15
gdb 48746	2.71538	1.65674	1.18101	3.6994	72.02	-0.2487	-0.0676	0.1811	1010.3177	0.112624	-420.655965	-420.648512	-420.647568	-420.688032	27.998	
O	-0.9312324617	 1.2272915211	-0.2802959664	-0.277032
C	 0.1692491639	 0.9147599314	 0.1094631345	 0.073786
C	 1.3678011904	 1.7806341369	-0.0164099529	 0.109342
C	 1.1523676143	 3.2995733529	-0.0063454897	-0.298364
C	 1.6257213083	 2.6305574005	-1.2569405509	-0.117849
C	 3.1089524847	 2.6013519777	-1.4385674538	-0.067154
C	 3.7289088532	 1.8945282986	-0.4825203305	-0.200368
C	 2.726542992	 1.2853112073	 0.4358307945	 0.320722
O	 2.9255711748	 0.507424424	 1.3405799269	-0.331006
H	 0.3635350123	-0.0606189256	 0.5993331921	 0.106987
H	 0.1079519721	 3.5900186567	 0.0424583519	 0.155839
H	 1.8537073272	 3.9042091666	 0.5576170551	 0.137066
H	 0.9534656257	 2.5668664907	-2.1042495347	 0.129518
H	 3.5964753925	 3.1404675895	-2.2429771131	 0.129766
H	 4.7942395302	 1.7585339916	-0.353126763	 0.128747
103.9196	156.7999	184.1861	250.9432	310.4559	364.2212	450.7118	573.1246	619.35	706.3679	744.6174	749.6556	829.0634	844.0057	874.8912	918.0235	978.3953	988.8818	1033.2053	1047.1856	1070.6317	1094.0519	1107.0524	1132.6293	1248.9812	1281.7008	1352.768	1368.3102	1419.9068	1461.6407	1629.1207	1799.5055	1810.3317	2936.0806	3133.5269	3190.3561	3200.4343	3235.1876	3235.9222
O=CC12CC1C=CC2=O	O=C[C@]12C[C@H]1C=CC2=O	
InChI=1S/C7H6O2/c8-4-7-3-5(7)1-2-6(7)9/h1-2,4-5H,3H2	InChI=1S/C7H6O2/c8-4-7-3-5(7)1-2-6(7)9/h1-2,4-5H,3H2/t5-,7-/m1/s1
