20
gdb 64650	3.12458	1.2363	1.09956	3.9936	83.11	-0.3044	0.0376	0.342	1176.2177	0.171852	-365.974778	-365.966432	-365.965487	-366.008039	32.468	
C	-0.0256975994	 1.6181249876	-0.1324170785	-0.489174
C	 0.0093764472	 0.0883491395	-0.0553346472	 0.37847
C	-1.4299390592	-0.4146871784	-0.3437729155	-0.426319
C	-2.3417191926	-0.1472472295	 0.7680160909	 0.275371
N	-3.0436031555	 0.0684208445	 1.6609487887	-0.321418
C	 1.1870016765	-0.7028095375	-0.7399071638	-0.098724
C	 2.1278087796	-0.1629587784	 0.3783080255	-0.235658
C	 0.8195464578	-0.6024928121	 1.1048140895	-0.072372
C	 0.9028753101	-1.8896157614	 0.231823905	-0.235568
H	 0.9107958759	 2.0989458006	 0.1465028232	 0.125143
H	-0.2736324773	 1.942059396	-1.1500810223	 0.117751
H	-0.8029736619	 2.0096797436	 0.5324275841	 0.1431
H	-1.8169935583	 0.0987651883	-1.2320119819	 0.145891
H	-1.4735353516	-1.4820137604	-0.565844423	 0.148388
H	 1.3997848531	-0.7595127985	-1.809611014	 0.071745
H	 3.0064060792	-0.7771829358	 0.5872332567	 0.096392
H	 2.3934210359	 0.8920575724	 0.3701782151	 0.09815
H	 0.6024592132	-0.5415346825	 2.1721177279	 0.087027
H	 0.0023030681	-2.4863623722	 0.0930689281	 0.094195
H	 1.7552973293	-2.5413778259	 0.4352138415	 0.09761
50.4376	117.6097	176.4673	214.6999	363.4035	368.8938	396.0838	416.9911	474.1994	553.7753	615.1802	690.7742	776.6209	796.8473	861.0743	895.4731	897.97	910.7144	934.5156	961.2696	1002.5384	1011.0659	1027.7381	1074.2593	1091.5444	1108.7633	1127.0746	1159.3002	1185.0191	1191.9413	1197.1139	1233.6293	1245.781	1249.9479	1315.1002	1328.2603	1420.4091	1463.2243	1494.4451	1500.7728	1526.8553	1560.3312	2356.3946	3035.7373	3048.0444	3075.6947	3077.9061	3092.1124	3092.2745	3108.6447	3113.0061	3140.8985	3143.2927	3162.2836
CC1(CC#N)C2CC1C2	C[C@@]1(CC#N)[C@H]2C[C@@H]1C2	
InChI=1S/C8H11N/c1-8(2-3-9)6-4-7(8)5-6/h6-7H,2,4-5H2,1H3	InChI=1S/C8H11N/c1-8(2-3-9)6-4-7(8)5-6/h6-7H,2,4-5H2,1H3/t6-,7+,8-
