19
gdb 66138	2.95836	1.33646	1.2317	2.5578	75.01	-0.2591	-0.0342	0.2249	1093.2775	0.15948	-423.038004	-423.029853	-423.028908	-423.070573	32.004	
O	 0.1071663519	 1.5448439517	-0.4841423307	-0.485552
C	-0.0551364617	 0.2306157061	-0.0171227652	 0.324074
C	 0.4284039961	 0.0798541051	 1.46194077	-0.299576
C	-0.4521502595	-1.008499812	 2.1075599191	-0.225462
C	-1.7566123246	-0.9763297017	 1.3196980325	-0.023605
C	-2.386498914	 0.3715602894	 1.0856086124	-0.301879
C	-1.5122473544	-0.2413825513	 0.0204291186	-0.071582
C	 0.7341719686	-0.7129701769	-0.906922659	 0.115599
O	 1.3652993971	-0.325960106	-1.8610957349	-0.27863
H	 0.6660566591	 1.4786850932	-1.2743957291	 0.289245
H	 1.4976596201	-0.1406291517	 1.5297498664	 0.108274
H	 0.2804026214	 1.0560117552	 1.930101285	 0.130936
H	 0.012425476	-1.9957739671	 2.0008477871	 0.101811
H	-0.5937886701	-0.83885783	 3.180552683	 0.105667
H	-2.402069026	-1.8469495956	 1.35375386	 0.084479
H	-3.4507766328	 0.3937106825	 0.879909408	 0.115282
H	-2.0254439489	 1.2370361705	 1.630545208	 0.123429
H	-1.9725980369	-0.5498710664	-0.9120268847	 0.08859
H	 0.7006997787	-1.7867355652	-0.6302674865	 0.0989
93.6154	119.7307	222.3836	295.3282	304.6803	354.2992	364.9937	419.0841	482.0143	516.2	631.4846	686.653	796.5641	816.5752	827.7217	837.1557	907.0806	933.6916	959.6797	982.0661	1002.9628	1038.4697	1053.2162	1069.097	1103.2701	1113.6204	1155.8074	1161.453	1209.6115	1232.2319	1242.2065	1302.0943	1327.9342	1349.9226	1378.474	1390.4587	1441.4404	1482.8477	1494.4083	1508.99	1810.2332	2926.3875	3034.5481	3063.1743	3069.3512	3108.1087	3136.1899	3162.8229	3172.7635	3219.2515	3691.1606
OC1(CCC2CC12)C=O	O[C@]1(CC[C@H]2C[C@@H]12)C=O	
InChI=1S/C7H10O2/c8-4-7(9)2-1-5-3-6(5)7/h4-6,9H,1-3H2	InChI=1S/C7H10O2/c8-4-7(9)2-1-5-3-6(5)7/h4-6,9H,1-3H2/t5-,6+,7+/m0/s1
