18
gdb 23556	2.39462	1.56337	1.08126	1.2398	81.51	-0.2265	0.0138	0.2403	1138.8769	0.147169	-401.85971	-401.851565	-401.850621	-401.892264	31.818	
O	-0.1194262673	 1.3171983806	 0.0959493311	-0.398776
N	 0.0138282619	-0.0851120134	-0.0049477052	-0.284594
C	-1.1202664301	-0.6487076128	-0.0549742152	 0.372415
C	-2.5525251278	-0.2339676532	 0.0272678857	-0.147412
C	-3.3442681185	-0.8911943592	-1.0907291479	-0.286624
C	-2.9422169101	-1.7328397606	 0.0769978176	-0.14897
C	-1.4680995306	-2.1086092779	-0.0421206294	 0.300115
C	-0.8248705392	-3.2438664258	-0.7911550832	-0.319898
C	-0.7280980578	-3.1763647053	 0.7135404507	-0.332434
H	 0.7992799499	 1.6017482891	 0.1401220258	 0.303997
H	-2.9396659262	 0.6045528834	 0.5889567314	 0.111533
H	-4.3879529249	-0.593675812	-1.1257854143	 0.118741
H	-2.8883092729	-1.0487822833	-2.063925949	 0.121618
H	-3.6518585428	-2.2049625333	 0.7441229783	 0.100351
H	-1.4757434561	-3.9932972733	-1.2296415661	 0.1153
H	 0.0642431438	-3.0161922605	-1.3690138731	 0.127444
H	 0.2216799535	-2.8987191004	 1.156958636	 0.131685
H	-1.3159596347	-3.8792365523	 1.2951132668	 0.115507
121.2575	148.1776	161.9101	250.7163	264.0595	315.1575	391.677	473.3718	530.9227	573.8841	664.3908	723.5993	771.7737	803.4666	826.8805	899.0591	904.29	932.3402	949.8248	954.2378	987.422	1013.4326	1033.1564	1052.732	1055.4498	1078.5696	1091.0649	1137.1629	1180.6166	1193.2435	1254.1994	1267.1556	1302.093	1376.0454	1427.1115	1458.1192	1485.8322	1498.7043	1785.5173	3117.5154	3128.8359	3131.8294	3196.5066	3204.8743	3212.456	3219.6093	3227.0034	3822.5804
ON=C1C2CC2C11CC1	ON=C1[C@H]2C[C@H]2C21CC2	
InChI=1S/C7H9NO/c9-8-6-4-3-5(4)7(6)1-2-7/h4-5,9H,1-3H2	InChI=1S/C7H9NO/c9-8-6-4-3-5(4)7(6)1-2-7/h4-5,9H,1-3H2/t4-,5+/m0/s1
