16
gdb 67271	2.70821	2.24162	1.74874	2.2742	65.74	-0.2243	0.0634	0.2877	815.1184	0.126877	-437.800692	-437.794697	-437.793753	-437.830675	25.741	
O	 0.1720698963	 1.3664451228	-0.1511588693	-0.488413
C	 0.0508836397	-0.0006630495	-0.0891946094	 0.445584
C	 0.4435319496	-0.8586508825	 1.1884665454	-0.126446
N	-0.9973778646	-0.9252035705	 1.5487869984	-0.329027
C	-1.2554998258	-0.853229166	 0.0947973339	-0.126578
C	-0.4106788562	-1.9506177683	-0.6425897781	-0.103687
C	 0.8079646401	-2.100230385	 0.334751471	 0.079306
O	 1.7448466432	-1.6189858038	-0.6669381694	-0.29682
C	 0.6070322359	-0.921584197	-1.2108079944	 0.025011
H	-0.2362757462	 1.7404046272	 0.6391937363	 0.293424
H	 1.1527678174	-0.5218119459	 1.9444531442	 0.080208
H	-1.2761050221	-1.8018805483	 1.9916580254	 0.211628
H	-2.2539483461	-0.6000612427	-0.2589235587	 0.078443
H	-0.8131419683	-2.8011177421	-1.185261024	 0.082782
H	 1.117128199	-3.0260977121	 0.8203729858	 0.081961
H	 0.7113176481	-0.5673563863	-2.234503757	 0.092623
252.6871	290.1595	360.9579	421.8214	483.5494	562.0261	618.1562	707.7828	735.7421	810.5229	827.6801	841.7732	864.4172	887.9343	939.3277	947.5948	964.319	987.3254	998.9706	1013.6705	1018.5072	1061.6404	1099.9631	1134.2274	1147.4794	1180.1634	1205.143	1222.6756	1239.9364	1261.7485	1286.4583	1321.4049	1337.3059	1346.489	1416.7101	3113.2042	3124.4953	3128.3456	3144.9041	3163.1136	3435.433	3786.8637
OC12C3NC1C1C3OC21	O[C@@]12[C@H]3N[C@@H]1[C@@H]1[C@H]3O[C@H]21	
InChI=1S/C6H7NO2/c8-6-3-1-2(4(6)7-3)9-5(1)6/h1-5,7-8H	InChI=1S/C6H7NO2/c8-6-3-1-2(4(6)7-3)9-5(1)6/h1-5,7-8H/t1-,2+,3+,4-,5-,6+/m0/s1
