21
gdb 90972	3.68526	1.35748	1.26438	1.3194	82.74	-0.2397	0.0921	0.3317	1097.5844	0.184405	-387.02818	-387.020746	-387.019802	-387.059932	31.035	
C	-0.2117388591	 1.5387947788	 0.0395893494	-0.392446
C	 0.065901697	 0.0453937813	 0.0182596773	 0.137573
C	 0.6996327509	-0.4830955179	-1.3255555891	-0.333736
C	 1.548651328	-1.6360466111	-0.7894988116	 0.001435
C	 3.0981237953	-1.89111706	-0.6826179607	-0.105228
C	 3.2779187254	-0.4500049928	-0.1540091149	-0.286308
C	 1.9958028699	-1.0326136308	 0.5349787997	 0.438612
C	 2.8123923945	-2.324138601	 0.8146203226	-0.294545
O	 0.9793429071	-0.2911302167	 1.1138314244	-0.337358
H	 0.7078107914	 2.1055305565	-0.1369826192	 0.120311
H	-0.9367484145	 1.8021107923	-0.7381283464	 0.113535
H	-0.6214278669	 1.8424775213	 1.0068582201	 0.127072
H	-0.8653656159	-0.5036886358	 0.2129012596	 0.080596
H	-0.0820814187	-0.7951224145	-2.0224117098	 0.10137
H	 1.2754989242	 0.3108456932	-1.807525222	 0.108538
H	 0.9533238632	-2.5494590862	-0.6880990718	 0.067263
H	 3.7426480383	-2.4207834965	-1.3812709988	 0.080652
H	 4.141393254	-0.2737291894	 0.4918024861	 0.090146
H	 3.1458487557	 0.3661942221	-0.8649668477	 0.090692
H	 2.2420609589	-3.2456487762	 0.9552997603	 0.096468
H	 3.6595514313	-2.2547413067	 1.5013917626	 0.095359
69.4427	233.7623	259.8569	342.3179	375.839	444.1906	454.9468	523.1495	572.2841	619.0726	725.7707	746.7919	785.4709	816.8514	865.8713	883.7378	910.1143	935.7267	953.5964	968.616	1002.6663	1031.4707	1059.4961	1071.145	1104.7947	1115.5607	1128.183	1134.3792	1160.051	1169.1335	1194.4603	1208.7867	1218.0067	1235.2964	1253.3077	1284.4513	1360.8151	1379.7651	1405.8324	1410.208	1482.6344	1485.9039	1497.0435	1505.2563	1543.331	3007.8484	3036.4709	3046.9682	3056.4254	3062.7634	3071.2435	3107.1058	3111.271	3118.3074	3127.5767	3133.8928	3135.3839
CC1CC2C3CC2(C3)O1	C[C@H]1C[C@H]2[C@H]3C[C@@]2(C3)O1	
InChI=1S/C8H12O/c1-5-2-7-6-3-8(7,4-6)9-5/h5-7H,2-4H2,1H3	InChI=1S/C8H12O/c1-5-2-7-6-3-8(7,4-6)9-5/h5-7H,2-4H2,1H3/t5-,6-,7-,8-/m0/s1
