13
gdb 19639	5.8686	1.80389	1.71207	2.8718	61.9	-0.2345	-0.0372	0.1973	749.7151	0.094693	-361.341611	-361.335515	-361.334571	-361.371978	22.889	
O	-0.2646053284	 0.3979064153	-0.6821519363	-0.274475
C	 0.1479495656	 1.0922894503	 0.219614229	 0.022241
C	 1.3500677518	 1.918779141	 0.1170226914	 0.30489
C	 2.7049192762	 1.6297069446	-0.52523539	-0.145965
C	 3.3098540254	 2.559578472	 0.5589175578	-0.049941
C	 2.4879863499	 3.6933161387	 0.0621654215	-0.049933
C	 1.8691871621	 2.7824626839	-1.030272836	-0.145949
N	 1.9616912086	 2.8258658428	 1.1751488886	-0.213588
H	-0.3639410047	 1.1530784288	 1.2049018116	 0.08717
H	 3.0258239927	 0.7290461623	-1.0274486179	 0.123029
H	 4.2200363523	 2.5230730919	 1.1437965871	 0.109748
H	 2.5940440092	 4.7660832352	 0.1610066753	 0.109747
H	 1.4190646893	 2.9452764633	-1.9983996819	 0.123027
114.652	163.6209	202.3972	447.1682	648.7651	679.8584	744.5515	776.1188	810.6469	823.1915	859.7333	882.1676	882.2532	911.8172	968.7527	971.9378	1006.5347	1049.2334	1056.5035	1074.0174	1165.1119	1179.4836	1214.2602	1267.3118	1317.2485	1381.0705	1422.8264	1788.9536	2895.2655	3189.6268	3203.3854	3228.5078	3238.6006
O=CC12C3C4C(C13)N24	O=C[C@@]12[C@@H]3[C@H]4[C@@H]([C@H]13)N24	
InChI=1S/C6H5NO/c8-1-6-2-3(6)5-4(2)7(5)6/h1-5H	InChI=1S/C6H5NO/c8-1-6-2-3(6)5-4(2)7(5)6/h1-5H/t2-,3+,4-,5+,6+,7?
