17
gdb 47985	5.63524	0.73474	0.7034	3.8198	87.18	-0.2624	-0.0602	0.2022	1588.8649	0.135966	-384.615527	-384.607391	-384.606447	-384.649795	29.445	
O	-0.7492300505	 0.86101736	-0.4829288909	-0.232657
C	 0.1721137082	 0.8884412424	 0.3022413737	 0.008495
C	 1.2996134811	 1.7756785119	 0.2095882567	 0.100514
C	 2.2589202264	 2.5110510833	 0.1547874909	 0.043107
C	 3.4066004789	 3.3847528459	 0.0965148557	-0.182397
C	 4.125517205	 3.632530186	-1.2823990857	-0.034464
C	 2.8961553706	 4.4826524556	-1.7137548369	-0.226859
C	 3.2074076672	 4.9078943351	-0.2500584062	-0.034496
C	 4.7102242631	 4.9255977753	-0.6476301642	-0.22716
H	 0.2048537545	 0.2047609032	 1.1753846673	 0.096194
H	 4.0872482798	 3.1977820679	 0.9328995567	 0.099595
H	 4.6521307124	 2.8755784557	-1.8638233448	 0.086862
H	 3.08099841	 5.2372183052	-2.4815589042	 0.097964
H	 1.9606637785	 3.9494049401	-1.8869870648	 0.123308
H	 2.6696750926	 5.6293738557	 0.3652963514	 0.086864
H	 5.4388597544	 4.7983501189	 0.1575733678	 0.095661
H	 5.0138758977	 5.7088665276	-1.3451802027	 0.099469
39.9967	71.9729	98.4548	210.7417	259.5514	397.7954	421.4894	532.9061	557.4733	678.1845	764.2084	808.4579	857.3221	869.1867	903.562	908.8628	912.1698	1016.4809	1021.5647	1027.3492	1034.2112	1087.9142	1102.5585	1110.9423	1137.7248	1195.2469	1195.9086	1210.6746	1240.6537	1240.6936	1257.3853	1372.7775	1423.1202	1500.2764	1536.425	1761.912	2315.3246	2913.774	3056.7439	3059.9064	3071.2503	3112.8515	3117.2428	3126.5264	3142.4547
O=CC#CC1C2CC1C2	O=CC#C[C@H]1[C@H]2C[C@@H]1C2	
InChI=1S/C8H8O/c9-3-1-2-8-6-4-7(8)5-6/h3,6-8H,4-5H2	InChI=1S/C8H8O/c9-3-1-2-8-6-4-7(8)5-6/h3,6-8H,4-5H2/t6-,7+,8-
