18
gdb 127509	2.33793	1.61178	0.97076	1.2695	76.37	-0.2056	0.0335	0.2391	1199.4549	0.147685	-435.289904	-435.280044	-435.2791	-435.325017	34.831	
C	 0.0907114353	 1.3775104974	-0.084458003	-0.321426
N	-0.0102588492	-0.0564800218	 0.0415370428	-0.047852
N	 0.0132341447	-0.8210812074	-1.0906818689	-0.389367
C	 0.0197519215	-2.0635928559	-0.6411275892	 0.385895
O	 0.0189295432	-3.1310702695	-1.4715907053	-0.437539
C	 0.0092960871	-2.1355019741	 0.7713914716	-0.061424
N	-0.0074564415	-3.2660733492	 1.6348690616	-0.619445
C	-0.0049467947	-0.8071940412	 1.1729832241	 0.388097
C	-0.0183610961	-0.2525082837	 2.5563056128	-0.510584
H	 1.1348236235	 1.7125820317	-0.1238076074	 0.132576
H	-0.4073407948	 1.676775998	-1.0079099535	 0.15196
H	-0.4016185793	 1.8607790945	 0.7622541357	 0.135414
H	 0.0100623389	-2.7852807547	-2.3728269135	 0.299818
H	 0.8554305523	-3.7969658946	 1.5553694517	 0.238357
H	-0.7527403612	-3.9049371758	 1.373321935	 0.23969
H	 0.8840337456	 0.3277213128	 2.782134867	 0.129027
H	-0.8815815912	 0.4000082481	 2.7316180593	 0.129613
H	-0.0723328141	-1.0891033543	 3.2563274191	 0.157191
57.558	73.8568	133.2291	168.1259	193.1183	253.1123	274.9225	294.1414	305.8481	369.866	424.2912	578.889	597.6046	632.0321	638.699	737.1616	740.3905	843.5347	904.99	1045.7835	1063.3221	1067.2768	1146.4346	1173.1025	1211.6624	1226.3202	1281.2326	1354.5014	1410.6853	1435.9994	1458.24	1487.296	1490.2582	1494.9096	1503.8201	1543.6103	1568.3464	1633.4877	1673.862	3023.4385	3026.093	3075.2301	3103.5847	3131.3791	3148.0974	3485.6262	3545.6126	3795.4576
CN1N=C(O)C(N)=C1C	Cn1nc(O)c(N)c1C	
InChI=1S/C5H9N3O/c1-3-4(6)5(9)7-8(3)2/h6H2,1-2H3,(H,7,9)	InChI=1S/C5H9N3O/c1-3-4(6)5(9)7-8(3)2/h6H2,1-2H3,(H,7,9)
