21
gdb 105097	2.44706	1.20633	1.0558	2.2934	78.7	-0.2431	0.071	0.314	1255.7427	0.181646	-424.179874	-424.170365	-424.16942	-424.214206	36.476	
O	 0.0704119126	 1.4794523244	 0.267869649	-0.416845
C	 0.0149382671	 0.0631410174	 0.1630468515	-0.183011
C	-1.4097722588	-0.4878845625	 0.0945859085	 0.365055
C	-2.5098366076	 0.2550048207	 0.8194359133	-0.298362
C	-2.4156076317	 0.3277439898	-0.6847466612	-0.30627
C	-1.5612940477	-1.9875392536	 0.0243303776	-0.104673
C	-0.4343242726	-2.9388714956	-0.3436778399	-0.356024
C	-1.0113056893	-2.9392069301	 1.0515350603	 0.097801
O	-0.2714068099	-2.3955367622	 2.1091937256	-0.412762
H	-0.1051084292	 1.7105578353	 1.1843896605	 0.286599
H	 0.5371695555	-0.1818375871	-0.7692402188	 0.105849
H	 0.5556501514	-0.4147776272	 0.9879628865	 0.107166
H	-3.3041632452	-0.3344255957	 1.2646292938	 0.107249
H	-2.2574177778	 1.1500090772	 1.3773405091	 0.092945
H	-2.0650488897	 1.2620733935	-1.107573704	 0.125084
H	-3.1568063174	-0.1964930312	-1.2788688224	 0.101903
H	-2.537441255	-2.283886602	-0.3517992336	 0.085668
H	-0.6442073823	-3.7708218948	-1.0075184371	 0.109942
H	 0.5610476191	-2.5220463867	-0.448467778	 0.119387
H	-1.6452802214	-3.77904796	 1.3365608075	 0.08526
H	 0.4395655697	-3.01031001	 2.3190351816	 0.288038
53.4156	102.008	174.1089	197.9451	270.1337	296.7634	328.3548	329.9783	352.4003	387.4544	428.5371	511.2145	623.998	688.6229	778.1909	791.2546	832.8323	852.2146	869.8941	944.5774	983.5929	990.6381	1025.3822	1038.3452	1058.2935	1063.7308	1069.5352	1083.9047	1100.3805	1134.7732	1178.3066	1190.9265	1233.967	1235.2547	1273.5961	1289.3094	1331.3229	1398.2854	1403.3272	1415.4938	1432.6374	1456.3099	1491.367	1503.0541	1516.1701	3026.509	3072.7433	3093.4219	3129.2794	3130.9898	3133.8085	3136.2263	3210.3758	3222.4453	3226.9792	3802.8497	3835.7333
OCC1(CC1)C1CC1O	OCC1(CC1)[C@H]1C[C@H]1O	
InChI=1S/C7H12O2/c8-4-7(1-2-7)5-3-6(5)9/h5-6,8-9H,1-4H2	InChI=1S/C7H12O2/c8-4-7(1-2-7)5-3-6(5)9/h5-6,8-9H,1-4H2/t5-,6+/m0/s1
