20
gdb 100539	2.02754	1.3354	0.93038	3.5528	73.48	-0.2425	0.0171	0.2596	1317.5941	0.168938	-477.438502	-477.42773	-477.426786	-477.474946	37.703	
C	 0.041954225	 1.5462886776	 0.0189588113	-0.347676
N	-0.0695942473	 0.1086163355	 0.2262602113	-0.090609
C	 1.0393084392	-0.5098038529	 0.9351246667	-0.339483
C	-1.2217496991	-0.5155950168	-0.122288041	 0.401525
O	-2.1590429759	 0.0753084123	-0.6565235681	-0.415727
C	-1.4187246424	-2.0302510344	 0.128995831	-0.002956
O	-2.8031329412	-2.2729562509	 0.1280070328	-0.429493
C	-0.7790580808	-2.8955118079	-0.9869673255	-0.09944
O	 0.6248567483	-3.0836585098	-0.8654666918	-0.405469
H	 0.9178810222	 1.7729562887	-0.5996555235	 0.127489
H	-0.8596320329	 1.8984482125	-0.4777439356	 0.171769
H	 0.1562908216	 2.0637168254	 0.9797810889	 0.12469
H	 1.0013547484	-0.2889174459	 2.0107262912	 0.120117
H	 1.055038242	-1.582770791	 0.7667298115	 0.153206
H	 1.9784721141	-0.1075076874	 0.5411453411	 0.131276
H	-1.0050256399	-2.3319290765	 1.1003165629	 0.076597
H	-3.1788472378	-1.4781490488	-0.2928089418	 0.294522
H	-1.3178661828	-3.8501375452	-0.9824244854	 0.11417
H	-0.9567686813	-2.4204990288	-1.9574446196	 0.1247
H	 0.7721766205	-3.8252005757	-0.2709249764	 0.290791
46.9514	78.4206	100.7328	137.7533	154.8609	217.0205	241.2674	258.2924	303.7742	347.9735	363.0266	420.4467	448.0389	500.9389	562.1713	630.5814	739.2187	782.2762	946.7382	1000.8313	1034.5055	1079.4054	1085.4809	1116.9599	1131.0869	1169.2511	1178.5248	1181.8494	1279.8496	1285.1036	1334.8054	1388.3762	1394.5652	1422.1849	1434.5903	1472.218	1477.7675	1491.9573	1500.0816	1502.4652	1508.2762	1545.2821	1724.3224	3008.4966	3017.7908	3021.6284	3033.9088	3071.6128	3077.2002	3090.7287	3177.5649	3190.8175	3615.9701	3829.4586
CN(C)C(=O)C(O)CO	CN(C)C(=O)[C@@H](O)CO	
InChI=1S/C5H11NO3/c1-6(2)5(9)4(8)3-7/h4,7-8H,3H2,1-2H3	InChI=1S/C5H11NO3/c1-6(2)5(9)4(8)3-7/h4,7-8H,3H2,1-2H3/t4-/m0/s1
