23
gdb 101253	3.16638	0.87475	0.80718	1.4905	82.8	-0.2453	0.0733	0.3187	1558.087	0.202315	-425.416403	-425.405349	-425.404405	-425.452406	40.928	
C	-0.0863718365	 1.5250748844	 0.0952183644	-0.385983
C	-0.0617843917	 0.0034521667	-0.0594824385	-0.17706
C	 0.8475757933	-0.4724942694	-1.2018997582	 0.114932
O	 2.1913053468	-0.015878615	-1.025722481	-0.435126
C	 0.7891028829	-1.9755322904	-1.3709050216	-0.057133
C	-0.1649464483	-2.6369603536	-2.354527706	-0.361116
C	 1.3298096837	-2.6829902333	-2.5772263293	 0.390484
C	 1.9719771904	-1.94365425	-3.7285275985	-0.441205
O	 1.9792700135	-3.8882310836	-2.2466154209	-0.470398
H	 0.9261630469	 1.9116602504	 0.237093963	 0.129221
H	-0.502654373	 2.0048186616	-0.7978626183	 0.111065
H	-0.6968511413	 1.8280327465	 0.9512189832	 0.107088
H	 0.2834149152	-0.4633229732	 0.8745537973	 0.084517
H	-1.0739374677	-0.381181438	-0.2365823433	 0.099351
H	 0.5202963988	 0.014018737	-2.1292816868	 0.078385
H	 2.5780181536	-0.5254274805	-0.3048678004	 0.27749
H	 0.9395702855	-2.5320219527	-0.447121995	 0.087238
H	-0.6552442366	-3.551838531	-2.0414399438	 0.110226
H	-0.7622848408	-1.991796726	-2.9922135608	 0.106461
H	 1.4497786677	-1.0120378419	-3.9588566704	 0.119519
H	 3.0123661686	-1.7025079535	-3.4945348231	 0.134511
H	 1.9549716343	-2.5631470945	-4.6341494962	 0.099679
H	 1.8809786545	-4.4879360299	-2.9949118658	 0.277854
56.8777	93.7031	109.9688	167.1913	204.111	218.286	251.7	268.0835	301.1455	313.3195	348.8064	376.0376	426.4072	492.9334	514.3081	535.185	723.0181	776.183	842.0646	875.5792	910.3542	923.9643	967.5212	981.3908	1025.2279	1044.9599	1061.1229	1076.4641	1096.3875	1107.2155	1128.741	1171.1926	1226.4053	1260.2824	1282.914	1297.8917	1328.5374	1364.4084	1383.7939	1403.1966	1413.674	1418.3477	1433.0603	1477.0278	1479.6489	1486.281	1495.3833	1507.764	1509.6505	3004.2419	3026.1287	3032.131	3035.7272	3054.2104	3097.1525	3099.5025	3121.8967	3122.3262	3123.5949	3128.0709	3215.6452	3787.8336	3799.7828
CCC(O)C1CC1(C)O	CC[C@@H](O)[C@H]1C[C@]1(C)O	
InChI=1S/C7H14O2/c1-3-6(8)5-4-7(5,2)9/h5-6,8-9H,3-4H2,1-2H3	InChI=1S/C7H14O2/c1-3-6(8)5-4-7(5,2)9/h5-6,8-9H,3-4H2,1-2H3/t5-,6-,7+/m1/s1
