18
gdb 102832	2.02626	1.33218	0.95079	2.218	69.02	-0.2559	0.0194	0.2753	1260.1524	0.146629	-476.213283	-476.203854	-476.202909	-476.248541	33.269	
O	 0.1396852153	 1.4242750084	-0.0342090199	-0.415079
C	 0.0680596998	 0.0126045136	-0.0761319383	-0.088342
C	-1.376916956	-0.5089272156	-0.0248016796	-0.018527
N	-2.0197845483	-0.1585604615	 1.2339355602	-0.29859
C	-1.9482649512	-0.9460755414	 2.3401882875	 0.150287
O	-1.2867209615	-1.959175534	 2.4274297541	-0.323419
C	-2.2158982462	 0.0401286099	-1.1743771296	 0.085705
C	-3.668452522	-0.1448952011	-1.243530497	-0.193281
O	-3.103707439	 1.1208423299	-0.8687977909	-0.236923
H	-0.2183312751	 1.7037952532	 0.8151779929	 0.284451
H	 0.5284582058	-0.2907817974	-1.0230304393	 0.110822
H	 0.6357018255	-0.4561431559	 0.7393796871	 0.118227
H	-1.3366060242	-1.6032192791	-0.0904291183	 0.119442
H	-2.6598951728	 0.6229560994	 1.2020921126	 0.262987
H	-2.5649025627	-0.5503124551	 3.1712876806	 0.081526
H	-1.6692356492	 0.1688172403	-2.1073892564	 0.110719
H	-4.1675562658	-0.1592120455	-2.210109863	 0.128551
H	-4.1778894824	-0.6792533283	-0.4435903926	 0.121446
47.4321	85.6165	102.0122	170.2259	201.9644	236.5708	274.8167	323.9053	355.3436	404.2102	548.4182	648.4169	696.6914	754.8497	815.5328	873.2408	892.4146	947.4566	992.4387	1034.2493	1042.7314	1087.4696	1104.5868	1129.2399	1162.4539	1170.1875	1196.861	1231.0966	1285.8103	1305.4652	1353.4467	1393.4184	1414.062	1422.8594	1435.6521	1502.7129	1504.8741	1525.9043	1798.7274	2940.1354	3014.2907	3045.7541	3075.2578	3095.0176	3128.1368	3185.3412	3595.5586	3809.7682
OCC(NC=O)C1CO1	OC[C@@H](NC=O)[C@H]1CO1	
InChI=1S/C5H9NO3/c7-1-4(6-3-8)5-2-9-5/h3-5,7H,1-2H2,(H,6,8)	InChI=1S/C5H9NO3/c7-1-4(6-3-8)5-2-9-5/h3-5,7H,1-2H2,(H,6,8)/t4-,5-/m1/s1
