18
gdb 20097	5.09076	1.52056	1.38366	1.7322	72.02	-0.2392	0.0873	0.3265	952.2702	0.154131	-347.755505	-347.748312	-347.747368	-347.787036	27.982	
C	-0.3334656168	 1.2782060763	-0.2460107238	-0.266699
C	 1.0873361299	 1.1892682296	 0.2452719053	-0.262708
C	 0.284886277	-0.0728287658	 0.0079865823	-0.131687
C	-0.153707647	-0.8889543361	 1.1624405424	 0.442872
C	 0.4818181709	-2.1819762035	 1.714649828	-0.293729
C	-0.9308442929	-2.5930283221	 2.2604747694	-0.236755
C	-1.4802181189	-1.2830142636	 1.6838221888	-0.045216
O	-0.732298837	-0.2153052285	 2.2901880948	-0.290241
H	-1.0811786094	 1.6145971739	 0.4621663367	 0.128789
H	-0.5097128434	 1.5690652857	-1.2753699517	 0.108351
H	 1.8930105364	 1.4184337689	-0.4430905301	 0.110596
H	 1.275278536	 1.4692611485	 1.2755620196	 0.127123
H	 0.5590199036	-0.660399567	-0.8636771148	 0.084548
H	 0.8381810644	-2.8541753293	 0.9299731586	 0.103664
H	 1.2739673952	-2.0279612015	 2.451090271	 0.107479
H	-1.3297421739	-3.4833024137	 1.7684532181	 0.10414
H	-1.0302304179	-2.6986426803	 3.3433121258	 0.110539
H	-2.4801401661	-1.0435519617	 1.3393266897	 0.098935
76.2289	159.1784	193.6312	272.124	373.6489	463.01	506.9821	636.6711	735.9575	772.0389	793.7857	822.8647	875.0261	887.9162	910.1586	923.2459	950.9197	960.0307	1010.0567	1049.3621	1063.887	1087.0686	1115.9539	1128.5186	1128.9775	1162.7397	1202.8394	1212.0927	1216.4563	1223.9463	1256.0827	1272.8355	1381.7516	1459.4534	1463.5005	1466.2067	1492.0264	1506.4717	3061.7465	3069.71	3112.9878	3129.3615	3137.6507	3141.3572	3147.8912	3182.1682	3222.1406	3237.209
C1CC1C12CCC1O2	C1CC1[C@]12CC[C@H]1O2	
InChI=1S/C7H10O/c1-2-5(1)7-4-3-6(7)8-7/h5-6H,1-4H2	InChI=1S/C7H10O/c1-2-5(1)7-4-3-6(7)8-7/h5-6H,1-4H2/t6-,7-/m1/s1
