12
gdb 20320	6.0197	1.3638	1.21665	1.5738	60.35	-0.2808	-0.031	0.2497	940.8601	0.083719	-377.485798	-377.478915	-377.477971	-377.518127	24.148	
C	-0.0459605234	-1.1431857874	 0.4478548805	-0.432917
C	-0.0004877145	 0.0068258704	 0.1081613183	 0.300939
C	 0.0490820876	 1.4046559968	-0.308826721	-0.45112
C	 1.4114151312	 2.0176295975	-0.1814246464	 0.438959
N	 2.109442016	 2.5996723002	-1.1101304613	-0.309132
C	 3.2325067172	 2.9785408201	-0.4146386643	 0.041371
N	 3.2400034441	 2.6601133177	 0.8494942915	-0.106989
O	 2.0093953597	 2.0108086405	 1.014231135	-0.186411
H	-0.0833956153	-2.1605065419	 0.7507073465	 0.209806
H	-0.2483180749	 1.5096779199	-1.3562632725	 0.175799
H	-0.658980775	 1.9955553249	 0.2872327047	 0.16796
H	 4.0624688373	 3.5030527312	-0.8650426609	 0.151736
29.1556	107.1907	271.1311	318.3962	322.5196	457.574	634.0963	652.2869	661.7278	685.0901	792.2674	906.2351	931.0486	947.841	965.3874	981.5064	1031.1531	1177.4599	1206.7122	1263.4805	1331.0474	1341.0267	1453.4851	1515.494	1622.3937	2251.6473	3028.431	3094.1949	3262.9622	3505.3245
C#CCC1=NC=NO1	C#CCc1ncno1	
InChI=1S/C5H4N2O/c1-2-3-5-6-4-7-8-5/h1,4H,3H2	InChI=1S/C5H4N2O/c1-2-3-5-6-4-7-8-5/h1,4H,3H2
