15
gdb 132154	3.18362	1.37048	0.96382	6.7299	74.02	-0.2094	-0.0128	0.1967	1144.2816	0.113119	-458.130879	-458.122821	-458.121877	-458.163805	29.826	
C	-0.0213545029	 1.4978280304	 0.023402803	-0.489161
C	 0.002749929	-0.0050255856	-0.0323667902	 0.390625
N	-0.023500112	-0.6216700406	-1.1645111642	-0.35902
C	-0.0015059098	-2.0297269599	-1.2280659174	 0.240553
N	-0.0256374171	-2.6940999107	-2.320869103	-0.53639
C	 0.0521843134	-2.7186471381	 0.0619683751	 0.214789
F	 0.0750987463	-4.0450642734	 0.0703039626	-0.052093
C	 0.0781168393	-2.0371731641	 1.2174839466	-0.13332
N	 0.0531171999	-0.6512083567	 1.1752655141	-0.345533
H	 0.8727044495	 1.8868562503	 0.5235951736	 0.14008
H	-0.0594212345	 1.8882194987	-0.9921230208	 0.165913
H	-0.8958422103	 1.8563525228	 0.5780427856	 0.140193
H	-0.0622116003	-2.0302058419	-3.0975601298	 0.214194
H	 0.1177865606	-2.5133609812	 2.187103884	 0.142564
H	 0.071831259	-0.1239494399	 2.0320054209	 0.266608
82.5908	94.2964	194.2852	306.9787	310.8439	349.2472	401.0496	437.5599	464.5016	523.6936	577.6463	632.0277	746.3083	777.4324	781.9081	859.3454	902.0041	950.463	1017.2259	1059.2909	1097.5152	1186.0182	1255.3151	1293.4508	1320.3953	1403.8295	1411.6769	1470.7431	1483.7995	1529.8418	1664.4328	1687.7089	1730.5332	3037.3288	3092.6783	3170.95	3235.2808	3458.0886	3655.1403
CC1=NC(=N)C(F)=CN1	C[C@@H]1N=C([NH])C(=CN1)F	
InChI=1S/C5H6FN3/c1-3-8-2-4(6)5(7)9-3/h2H,1H3,(H2,7,8,9)	InChI=1S/C5H7FN3/c1-3-8-2-4(6)5(7)9-3/h2-3,7-8H,1H3/t3-/m0/s1
