15
gdb 19685	4.29043	1.96109	1.91107	3.546	64.08	-0.2469	-0.0292	0.2177	749.463	0.119324	-362.592705	-362.586396	-362.585452	-362.623354	24.06	
O	-0.1760192752	 0.0488577049	 0.3125502662	-0.242177
C	-0.0268074023	 1.1959159013	-0.0227610072	 0.148086
C	 1.2676355062	 1.9591620064	 0.0620056094	-0.02928
C	 1.5023266147	 2.9114056334	 1.2687804855	-0.114233
C	 1.353957483	 1.9603804114	 2.4883329639	-0.247348
C	 2.5722141154	 1.2344855216	 1.9236575203	-0.018363
C	 2.9982195393	 2.4242393073	 1.1529228931	-0.044854
N	 2.5153698136	 1.2191644674	 0.4161646074	-0.142143
H	-0.880110397	 1.8013790988	-0.4137200483	 0.070457
H	 1.4356654238	 2.4845004083	-0.8861034648	 0.099005
H	 1.1232782715	 3.9307900567	 1.2881148709	 0.081998
H	 1.6117402156	 2.4736126404	 3.4180037522	 0.11111
H	 0.416212557	 1.411174802	 2.6094048395	 0.117585
H	 3.1701688983	 0.4533895012	 2.3723756193	 0.106161
H	 3.9459808862	 2.9125227489	 0.9715297625	 0.103999
90.1241	159.1181	245.8853	405.4242	465.6419	661.4803	709.9106	763.9972	788.8766	827.8424	854.2722	884.5164	914.8605	951.456	974.2942	984.9958	1013.201	1030.0205	1072.0789	1111.2583	1124.2074	1140.4454	1167.7789	1205.9683	1215.5967	1249.7632	1283.2956	1334.7041	1367.8524	1419.8305	1498.2428	1828.763	2841.4724	3042.6133	3060.8158	3117.1738	3141.3891	3206.3108	3221.9044
O=CC1C2CC3C2N13	O=C[C@H]1[C@H]2C[C@@H]3[C@H]2N13	
InChI=1S/C6H7NO/c8-2-5-3-1-4-6(3)7(4)5/h2-6H,1H2	InChI=1S/C6H7NO/c8-2-5-3-1-4-6(3)7(4)5/h2-6H,1H2/t3-,4-,5+,6+,7?/m1/s1
