15
gdb 9712	3.30637	1.81839	1.64894	4.3967	66.86	-0.2658	-0.0136	0.2522	851.2043	0.118359	-362.678233	-362.670705	-362.669761	-362.71006	27.627	
C	 0.0338686762	 1.5060177661	-0.0663472177	-0.412509
C	-0.0323168784	-0.0237443357	 0.0230587919	 0.196574
O	 0.6419754089	-0.5917084377	-1.1000094321	-0.283497
C	 1.5516908536	-1.6087867076	-0.673469201	-0.132918
C	 1.575748853	-1.5016788417	 0.8237627704	-0.088247
C	 0.6789254868	-0.6129212801	 1.2282209142	-0.109254
C	-1.4558094465	-0.4604573714	 0.0134371685	 0.259755
N	-2.5614262362	-0.7968838131	 0.0205212759	-0.336781
H	 1.0802311723	 1.8179920749	-0.0317968211	 0.130862
H	-0.4101276224	 1.8439811839	-1.005514593	 0.147711
H	-0.5088293267	 1.9664425195	 0.7638570963	 0.133747
H	 1.2080593568	-2.5987575949	-1.0107344666	 0.123783
H	 2.5298669176	-1.4223827392	-1.1363856479	 0.121989
H	 2.2321931954	-2.0912303083	 1.4506557325	 0.122703
H	 0.4324824596	-0.3251443447	 2.2410163196	 0.126082
82.1785	165.6405	194.0845	233.5675	283.0395	355.4689	462.3289	522.8551	562.0072	628.0097	742.4309	776.9195	830.7132	889.3211	920.3593	958.3168	963.3849	1042.1107	1045.5859	1111.7765	1149.4898	1170.6023	1198.9477	1211.5257	1342.6184	1378.3344	1402.4487	1480.5548	1487.2778	1514.7574	1691.8764	2349.3093	2990.637	3031.4555	3050.7326	3132.0145	3140.1645	3217.123	3243.4775
CC1(OCC=C1)C#N	C[C@]1(OCC=C1)C#N	
InChI=1S/C6H7NO/c1-6(5-7)3-2-4-8-6/h2-3H,4H2,1H3	InChI=1S/C6H7NO/c1-6(5-7)3-2-4-8-6/h2-3H,4H2,1H3/t6-/m1/s1
