14
gdb 56725	2.82167	1.35953	1.02656	1.9856	66.41	-0.2981	-0.0212	0.2769	1101.4055	0.100202	-432.844049	-432.835349	-432.834405	-432.87778	30.912	
O	 0.3405552	 1.5093770372	-0.0575344376	-0.385052
C	 0.0886877439	 0.1285249291	 0.0381717654	-0.070683
C	 0.5002872293	-0.5801574414	-1.1932974571	 0.254086
N	 0.868691883	-1.1214129351	-2.1455154893	-0.312121
C	 0.7537918889	-0.50971755	 1.2696208343	 0.084239
C	 1.0460352196	-1.9745749825	 1.3189077313	-0.258164
N	 2.1421018201	-1.0111921859	 1.2110171588	-0.32332
C	 0.4051637544	 0.1770695852	 2.4976983034	 0.290328
N	 0.0963297686	 0.7065503143	 3.4767750517	-0.320898
H	 1.2940646873	 1.6566714695	-0.0875739073	 0.305626
H	-0.9983727609	 0.0393526912	 0.1402434446	 0.168727
H	 0.9718878714	-2.4840354352	 2.2738450888	 0.156361
H	 0.7775802062	-2.5647505346	 0.4474618327	 0.154205
H	 2.4813776382	-0.978183072	 0.2500423403	 0.256666
54.3643	129.8076	171.4312	203.0498	231.1327	264.7376	323.9893	376.3293	424.028	509.1472	560.8823	576.65	612.8667	741.1804	869.6834	883.4448	935.3035	969.267	997.7331	1083.0023	1104.4746	1152.2097	1241.6679	1272.0771	1278.8326	1317.5246	1372.3529	1417.1206	1504.3196	2354.5278	2366.6481	3067.9049	3125.112	3220.7533	3478.4206	3791.47
OC(C#N)C1(CN1)C#N	O[C@@H](C#N)[C@]1(CN1)C#N	
InChI=1S/C5H5N3O/c6-1-4(9)5(2-7)3-8-5/h4,8-9H,3H2	InChI=1S/C5H5N3O/c6-1-4(9)5(2-7)3-8-5/h4,8-9H,3H2/t4-,5+/m0/s1
