18
gdb 68552	2.43196	1.90268	1.52413	2.5744	75.81	-0.2319	0.0003	0.2322	954.219	0.147157	-401.86981	-401.862155	-401.861211	-401.901421	30.893	
C	 0.0087437321	 1.5131881005	-0.0477806087	-0.523293
C	-0.0328034244	 0.0154268393	 0.0345277519	 0.269736
O	 0.3606104338	-0.7015632621	-1.189132847	-0.31747
C	-0.2755382831	-1.8508192247	-0.5416460018	-0.077452
C	 0.5980331095	-2.0292887379	 0.7065424301	-0.082916
C	 0.7594068662	-0.7630460507	 1.1022908797	-0.122905
C	-1.3322101707	-0.8505701254	-0.0043627811	 0.408665
C	-2.5406712479	-0.9008623724	 0.8265160299	-0.337208
N	-2.5918060774	-0.548701457	-0.6222894243	-0.390155
H	 1.0253460782	 1.8520723951	-0.268844171	 0.142445
H	-0.6490180171	 1.8798164125	-0.8414834455	 0.128616
H	-0.3012279744	 1.9609914058	 0.9019304291	 0.124465
H	-0.505808261	-2.6828897684	-1.2034442797	 0.089436
H	 0.9313670807	-2.9564794974	 1.1486403241	 0.112277
H	 1.26755054	-0.3476316884	 1.9607030853	 0.108776
H	-3.0119229798	-1.8470099505	 1.0785474465	 0.12174
H	-2.6888260496	-0.1120080101	 1.5609283746	 0.111614
H	-2.7208909949	 0.4514648918	-0.758338682	 0.23363
160.3009	176.5872	210.8483	243.8841	321.9327	361.2289	467.105	548.505	572.8563	636.1652	656.9761	727.172	749.954	812.5038	858.7332	860.6475	888.2599	899.8446	906.6207	937.2931	967.0463	977.9364	1046.6219	1069.7201	1105.1007	1120.208	1150.6245	1190.7542	1217.4653	1242.7906	1254.4876	1290.5597	1339.1085	1413.0756	1429.2895	1476.924	1492.2298	1524.0675	1610.7201	3039.1002	3101.431	3111.5399	3113.5937	3153.7763	3185.3588	3226.414	3254.5394	3492.7094
CC12OC(C=C1)C21CN1	C[C@@]12O[C@@H](C=C1)[C@]12CN1	
InChI=1S/C7H9NO/c1-6-3-2-5(9-6)7(6)4-8-7/h2-3,5,8H,4H2,1H3	InChI=1S/C7H9NO/c1-6-3-2-5(9-6)7(6)4-8-7/h2-3,5,8H,4H2,1H3/t5-,6+,7-/m0/s1
