17
gdb 108853	2.27811	1.29942	0.86671	1.9048	72.23	-0.242	-0.0493	0.1928	1291.9194	0.134786	-458.988296	-458.979203	-458.978259	-459.022928	32.708	
O	 0.0310452089	 1.4336403532	 0.0082146892	-0.420572
C	 0.0073364072	 0.0187037498	 0.0097492635	-0.175767
C	-1.4078304035	-0.4516115598	 0.023814041	 0.187512
C	-2.53428434	 0.2717153786	 0.0449881736	-0.200596
C	-3.7898612442	-0.5733278715	 0.0641799578	 0.09332
O	-4.7151660732	-0.2035461777	-0.9502662905	-0.427197
C	-3.2621932821	-2.0236412917	-0.0264424547	-0.367558
C	-1.7363868415	-1.9016596454	 0.031881874	 0.324759
O	-0.9368950196	-2.8088792573	 0.0840898722	-0.32929
H	 0.9492763415	 1.7178946769	 0.0189803124	 0.294182
H	 0.5128782813	-0.4038113262	-0.8741650234	 0.11507
H	 0.5261891762	-0.4050505352	 0.8851548791	 0.118176
H	-2.5813820362	 1.3542248743	 0.0418005027	 0.133365
H	-4.3402464694	-0.4150493263	 0.9986593692	 0.107306
H	-4.2451037875	-0.2119256042	-1.7919042556	 0.278958
H	-3.6221028777	-2.680086818	 0.7702056645	 0.134769
H	-3.5627642904	-2.4807130194	-0.9748213849	 0.133566
59.2682	72.4749	135.3962	169.5375	235.7162	306.4345	331.7656	344.1529	390.6545	460.4785	563.5256	591.2675	610.1285	706.163	805.5989	867.6531	892.9707	959.5521	1001.4132	1038.6258	1061.3275	1078.8794	1110.7303	1145.2388	1190.0857	1233.1925	1242.7617	1253.0645	1283.8785	1312.9295	1335.2771	1424.7748	1450.8567	1466.4789	1499.2084	1700.3712	1806.6943	2970.172	2987.5106	3046.667	3063.1848	3108.6484	3215.1122	3795.2225	3838.9735
OCC1=CC(O)CC1=O	OCC1=C[C@@H](O)CC1=O	
InChI=1S/C6H8O3/c7-3-4-1-5(8)2-6(4)9/h1,5,7-8H,2-3H2	InChI=1S/C6H8O3/c7-3-4-1-5(8)2-6(4)9/h1,5,7-8H,2-3H2/t5-/m1/s1
