15
gdb 127614	3.56684	1.63963	1.13132	0.3669	73.96	-0.2178	-0.0105	0.2073	1008.9426	0.116565	-412.994124	-412.986912	-412.985968	-413.02631	26.71	
C	-0.0160219672	 1.4359233999	-0.0541724126	-0.339889
N	-0.00806243	-0.006590538	 0.0176291332	-0.122803
N	-0.0376742936	-0.7483345794	-1.1174253675	-0.246017
C	-0.0185586578	-2.0318353349	-0.7604324506	-0.141408
C	 0.0245399558	-2.1253652568	 0.6488157986	 0.290182
C	 0.0305526103	-0.811803863	 1.118059654	 0.32227
C	 0.0734660847	-0.900146953	 2.5302592294	-0.145095
N	 0.0924284419	-2.17867505	 2.8972807898	-0.201195
N	 0.062785866	-2.9157556762	 1.7591316471	-0.364256
H	 0.8910890771	 1.8562400544	 0.3935255847	 0.138692
H	-0.0577100918	 1.7093489693	-1.1080634608	 0.162751
H	-0.8893152345	 1.8488891562	 0.4621602148	 0.138702
H	-0.036846924	-2.799274329	-1.5178621483	 0.118019
H	 0.0914771149	-0.1274403342	 3.2826259685	 0.116797
H	 0.0707956782	-3.9168458353	 1.83471142	 0.27325
53.1138	153.7957	248.8441	266.2794	340.6224	391.1377	530.9726	629.3776	636.0291	666.9528	697.1594	748.0571	823.0763	838.8222	850.555	972.1496	1013.1831	1094.2878	1136.6852	1152.7232	1217.9492	1234.1045	1305.9543	1338.1354	1351.1356	1416.0316	1438.851	1448.4322	1483.5724	1502.2768	1514.905	1549.8113	1624.0414	3031.8146	3087.229	3162.598	3258.4245	3260.2725	3696.8983
CN1N=CC2=C1C=NN2	Cn1ncc2c1cn[nH]2	
InChI=1S/C5H6N4/c1-9-5-3-6-8-4(5)2-7-9/h2-3H,1H3,(H,6,8)	InChI=1S/C5H6N4/c1-9-5-3-6-8-4(5)2-7-9/h2-3H,1H3,(H,6,8)
