21
gdb 70595	2.09363	1.84162	1.42617	2.2014	77.28	-0.2297	0.0614	0.2911	1041.7189	0.182072	-424.232487	-424.223612	-424.222668	-424.26499	35.953	
C	-0.0230078079	 1.5718939463	-0.0423084912	-0.456604
C	 0.0670701078	 0.0496132723	-0.0146184531	 0.309353
O	-1.2534164815	-0.5226685957	 0.1043265781	-0.495096
C	 0.8136165205	-0.5810749597	-1.2099878143	-0.26623
C	 1.3168653839	-1.9559696908	-0.7057471146	-0.217915
C	 1.525524945	-1.7636636755	 0.7875810506	-0.111843
C	 2.2769062775	-0.5188557844	 1.236322474	-0.358777
C	 0.783980884	-0.5111657543	 1.212720565	 0.463352
O	 0.1188822422	-0.3687142918	 2.4243976734	-0.490374
H	 0.9720846505	 2.0233389241	-0.0890995717	 0.123107
H	-0.5874752874	 1.9195835961	-0.9166214502	 0.101382
H	-0.5209376834	 1.9318276316	 0.8623756249	 0.13096
H	-1.8433319414	-0.0370427736	-0.4804516311	 0.280613
H	 0.1560167213	-0.6661489904	-2.0797808199	 0.090899
H	 1.6523079417	 0.0582268693	-1.5042569876	 0.100627
H	 0.5499738126	-2.7206968927	-0.8679260873	 0.10724
H	 2.219597737	-2.2784355039	-1.2363216168	 0.092984
H	 1.5573402179	-2.627466444	 1.441439816	 0.085252
H	 2.7115569684	-0.5632392848	 2.2287893011	 0.121592
H	 2.8496862042	 0.0663916053	 0.5234122217	 0.104174
H	-0.7956046431	-0.6227589335	 2.2405321933	 0.285303
131.8766	218.5997	223.2009	246.2039	254.6647	289.9945	354.6047	380.5463	413.6813	445.1349	485.9742	504.5151	599.7099	623.0463	667.8707	799.1209	817.6072	845.6014	910.9929	933.9166	939.3043	966.553	971.9218	1016.4779	1049.6176	1056.5354	1086.9906	1095.0869	1151.381	1191.526	1206.6573	1224.9929	1226.6685	1279.0521	1329.0148	1332.5361	1351.4479	1399.9645	1404.1412	1429.5596	1479.2215	1488.4632	1489.7521	1497.8605	1504.5663	3025.0469	3037.0029	3050.9928	3073.8494	3093.7809	3097.9704	3121.557	3125.3206	3178.6967	3215.0828	3761.5069	3823.5345
CC1(O)CCC2CC12O	C[C@@]1(O)CC[C@H]2C[C@@]12O	
InChI=1S/C7H12O2/c1-6(8)3-2-5-4-7(5,6)9/h5,8-9H,2-4H2,1H3	InChI=1S/C7H12O2/c1-6(8)3-2-5-4-7(5,6)9/h5,8-9H,2-4H2,1H3/t5-,6+,7-/m0/s1
