15
gdb 17163	4.3901	1.87025	1.55287	2.0999	66.15	-0.2307	-0.0382	0.1925	816.3067	0.118884	-362.564271	-362.557813	-362.556869	-362.595092	24.516	
O	-0.0567405569	-0.043451833	 0.0806753992	-0.247282
C	 0.0182516164	 1.1590988834	 0.0069759397	 0.023387
C	 1.3038413377	 1.9082255207	 0.0047193921	 0.236685
C	 2.7384780264	 1.4101396299	 0.0875985138	-0.231057
N	 2.9765146078	 2.917779137	-0.0009556605	-0.159752
C	 1.7721180306	 3.0494174536	-0.9723947336	-0.038821
C	 1.1722529351	 4.1888388148	-0.1465341513	-0.262802
C	 1.7072893063	 3.1670631264	 0.8583876274	-0.038851
H	-0.8984916905	 1.7897763951	-0.0656329943	 0.07126
H	 3.0755660515	 0.9699786175	 1.0301884166	 0.112848
H	 3.1391721593	 0.8545181183	-0.7647835067	 0.112857
H	 1.9167964246	 2.9548926183	-2.0500017755	 0.097439
H	 1.7121320892	 5.138025532	-0.1884042801	 0.118303
H	 0.0911216461	 4.3339751515	-0.1941365152	 0.108365
H	 1.7752806064	 3.2117599946	 1.9467293083	 0.097423
89.3355	164.1662	268.7773	362.0649	428.5936	499.6061	671.8138	678.3701	810.7317	848.6135	863.6676	877.7958	900.9018	929.3006	1014.7073	1017.4564	1025.8122	1044.9249	1091.4357	1127.0941	1138.4537	1140.2503	1188.7992	1200.4693	1225.7164	1261.0828	1302.9222	1326.1603	1426.854	1492.6371	1520.7926	1810.9267	2856.0959	3054.0547	3065.4745	3102.4166	3107.9526	3115.881	3132.0527
O=CC12CN3C1CC23	O=C[C@@]12CN3[C@@H]1C[C@@H]23	
InChI=1S/C6H7NO/c8-3-6-2-7-4(6)1-5(6)7/h3-5H,1-2H2	InChI=1S/C6H7NO/c8-3-6-2-7-4(6)1-5(6)7/h3-5H,1-2H2/t4-,5+,6+
