19
gdb 113844	4.16806	0.8046	0.73135	3.5432	72.87	-0.2574	0.0699	0.3272	1545.9139	0.157649	-460.108594	-460.099172	-460.098228	-460.143819	34.462	
O	-0.041800816	 1.3944656346	-0.5211022978	-0.420181
C	 0.0140819978	 0.2249011742	 0.2795137267	-0.082902
C	-1.317674833	-0.4828663761	 0.2857767398	 0.018352
O	-1.6807278323	-1.1102736987	-0.9577260704	-0.275837
C	-1.5016495191	-1.9414398055	 0.1984021689	 0.061688
C	-0.387861163	-2.9341487733	 0.157484189	-0.058277
C	-0.1325824163	-3.8181522816	 1.3688739417	-0.338457
C	-0.7008202405	-4.405831944	 0.1049754926	 0.094888
O	-2.0518913729	-4.7588217874	 0.0640687997	-0.412578
H	-0.350015481	 1.1149295041	-1.3908922255	 0.293107
H	 0.8098615327	-0.4528773155	-0.0586606177	 0.088874
H	 0.2654856261	 0.5567975384	 1.2929210926	 0.110994
H	-2.126676807	 0.102970085	 0.7269292713	 0.094138
H	-2.4336065036	-2.3434785685	 0.5936248961	 0.104506
H	 0.4806288853	-2.6188403562	-0.4090148327	 0.100324
H	 0.8918769797	-4.036142583	 1.6492813049	 0.117969
H	-0.8215013869	-3.7130171883	 2.2011900008	 0.118853
H	-0.0471844208	-5.0256853655	-0.5080667219	 0.092909
H	-2.1685374691	-5.5539955328	 0.594084112	 0.291629
41.7884	67.7445	125.013	173.1751	202.3856	288.7491	313.1975	385.3596	409.3855	441.8102	476.8602	526.4922	629.2419	774.5553	796.4706	825.5724	848.4861	915.2692	938.4425	1004.8105	1020.0664	1050.1837	1063.3734	1070.4092	1113.0305	1133.3534	1157.2586	1169.1372	1197.1802	1230.7766	1237.9887	1290.6458	1298.6475	1326.2436	1360.1055	1407.5468	1419.7769	1441.1974	1477.8437	1496.003	1508.7474	3011.5947	3070.6944	3094.5568	3104.0807	3125.2926	3131.0841	3178.3836	3220.8398	3798.784	3810.3719
OCC1OC1C1CC1O	OC[C@H]1O[C@H]1[C@H]1C[C@H]1O	
InChI=1S/C6H10O3/c7-2-5-6(9-5)3-1-4(3)8/h3-8H,1-2H2	InChI=1S/C6H10O3/c7-2-5-6(9-5)3-1-4(3)8/h3-8H,1-2H2/t3-,4+,5+,6-/m0/s1
