17
gdb 19447	3.08219	2.18262	1.58825	2.3334	68.36	-0.2423	0.0582	0.3005	849.659	0.142458	-363.799293	-363.792115	-363.791171	-363.830805	27.621	
C	 0.2964134415	 1.4809597477	-0.1025049013	-0.314721
N	 1.3076521053	 0.429342599	 0.1208058443	-0.353996
C	-0.1029544528	 0.0636413446	 0.0108185186	 0.286157
C	-0.8540276503	-0.7339487246	 1.0873499412	-0.311479
C	-1.2102833029	-1.8074621795	 0.0038338078	-0.326228
C	-0.6278760195	-0.8706284637	-1.0628374567	 0.396024
C	-1.0720415805	-0.5897142424	-2.428973462	-0.267797
O	 0.1604000794	-1.2827823433	-2.1675867689	-0.273787
H	 0.1467002201	 2.1544226657	 0.7375517728	 0.120601
H	 0.2376396284	 1.9566835521	-1.07916965	 0.110528
H	 1.766133188	 0.1982998619	-0.7601209538	 0.240705
H	-0.2289870292	-1.0798947838	 1.9121053666	 0.119989
H	-1.7274100012	-0.2145797126	 1.4893870171	 0.107821
H	-0.6283923625	-2.7271983569	 0.1000784035	 0.124468
H	-2.2664516763	-2.0634805211	-0.1031875695	 0.108561
H	-1.858732538	-1.1963364619	-2.8763155467	 0.11852
H	-0.9656939694	 0.4115260588	-2.844465843	 0.114634
67.631	190.1923	221.186	291.0895	348.7997	413.6075	505.0555	567.16	597.4657	747.5791	823.159	858.6526	877.4902	878.7787	919.1328	926.2815	964.9832	988.3016	1050.8927	1103.0347	1112.5315	1116.1119	1136.1107	1153.0459	1164.3064	1212.1117	1229.1977	1251.8079	1282.5688	1292.2691	1400.6458	1439.0606	1468.9556	1491.0079	1509.964	1539.4643	3067.6062	3072.2468	3080.1424	3098.2622	3117.8893	3134.2256	3166.9459	3182.5006	3472.5062
C1NC11CCC11CO1	C1N[C@]21CC[C@]12CO1	
InChI=1S/C6H9NO/c1-2-6(4-8-6)5(1)3-7-5/h7H,1-4H2	InChI=1S/C6H9NO/c1-2-6(4-8-6)5(1)3-7-5/h7H,1-4H2/t5-,6+/m0/s1
