22
gdb 7218	3.31354	1.08907	0.86285	0.2123	87.4	-0.2402	0.0625	0.3027	1422.3991	0.197237	-313.062333	-313.051522	-313.050578	-313.099362	37.956	
C	-0.05596444	 1.4975794384	 0.0242317993	-0.498854
C	-0.0088013172	 0.0416696884	 0.0065972197	 0.068564
C	 0.0371569248	-1.1624478939	 0.0006601152	 0.06354
C	 0.047589623	-2.627516039	-0.0194227963	-0.134235
C	-1.3953543487	-3.156180487	 0.1282056995	-0.398172
C	 0.7741638499	-3.1716719698	-1.2850634691	 0.056919
C	 2.2135223136	-2.6464164861	-1.3655891855	-0.392692
C	 0.7669859071	-4.7059144723	-1.3388107192	-0.401925
H	 0.7356215315	 1.9156890486	 0.6562549572	 0.145163
H	 0.0711366528	 1.913890023	-0.981406527	 0.144968
H	-1.0141033631	 1.8614390676	 0.4121062562	 0.145045
H	 0.6217434793	-2.9754212203	 0.8534547173	 0.093271
H	-1.987857258	-2.9136361285	-0.7600267445	 0.119946
H	-1.4107464371	-4.2395706453	 0.2699162332	 0.114536
H	-1.8818807363	-2.6941638352	 0.9910042031	 0.121498
H	 0.2221860069	-2.7928307607	-2.1563282173	 0.077085
H	 2.8107890263	-3.0169369996	-0.5231783402	 0.107307
H	 2.6988385766	-2.9833524249	-2.2873071815	 0.105781
H	 2.2411630097	-1.554493848	-1.3418663886	 0.126404
H	 1.2306992441	-5.132701953	-0.4407351569	 0.110271
H	-0.2414822391	-5.1183586854	-1.4247879499	 0.115298
H	 1.3403020538	-5.0583587569	-2.202325905	 0.110282
17.4596	59.5718	92.155	143.9293	211.9743	216.7429	239.4252	272.7492	312.2492	323.2297	363.6556	387.043	427.5421	501.3757	555.5987	732.943	803.2731	914.8603	930.6695	963.8157	980.8676	1017.466	1053.0215	1053.5948	1084.9558	1135.6106	1161.8313	1188.7332	1202.8036	1291.6186	1328.4824	1351.5913	1366.4151	1398.4159	1405.9554	1415.4282	1420.2794	1479.71	1479.8161	1487.3689	1488.8828	1496.1529	1500.1143	1505.7932	1516.9334	2364.8002	2979.8226	3011.6655	3023.8601	3024.3872	3030.1483	3041.9615	3083.1413	3083.4258	3086.9875	3094.0486	3110.1025	3114.0133	3121.6932	3124.8661
CC#CC(C)C(C)C	CC#C[C@@H](C)C(C)C	
InChI=1S/C8H14/c1-5-6-8(4)7(2)3/h7-8H,1-4H3	InChI=1S/C8H14/c1-5-6-8(4)7(2)3/h7-8H,1-4H3/t8-/m1/s1
