18
gdb 75531	2.15507	1.71936	1.01391	2.6792	75.3	-0.253	-0.0133	0.2397	1168.5095	0.147675	-439.136331	-439.127753	-439.126809	-439.170001	31.565	
C	 0.0336455707	 1.4019379103	 0.4842173924	-0.429847
C	-0.0929776087	 0.0124778766	-0.0773588222	 0.383364
N	-1.020160473	-0.7552150073	 0.2775051233	-0.272578
C	-1.3259117752	-2.1004817365	-0.1485880524	-0.148722
C	-0.4929428013	-2.7409171608	-1.2595748514	-0.232478
C	 1.0139894847	-2.6128649677	-0.9853048082	-0.328279
C	 1.5490666041	-1.2884516741	-1.4685857278	 0.411071
O	 2.4569774908	-1.1614636438	-2.2381446405	-0.29824
O	 0.9351091411	-0.1430816317	-1.018336368	-0.255542
H	 1.0006999632	 1.5205750055	 0.9835389987	 0.140996
H	 0.0014160168	 2.1375206281	-0.3255198009	 0.146632
H	-0.7744850517	 1.5892022056	 1.1893567228	 0.142579
H	-1.2570118717	-2.7289948467	 0.7508928665	 0.120261
H	-2.387566823	-2.1126707646	-0.4257488925	 0.121552
H	-0.7648270899	-3.7996371003	-1.3254065662	 0.112789
H	-0.7330085872	-2.2971086694	-2.2324776681	 0.120006
H	 1.2092580165	-2.7158286902	 0.0898861581	 0.129676
H	 1.5919658537	-3.3787758529	-1.5040832436	 0.136759
69.4481	87.5598	160.9828	221.6277	272.8498	280.0858	354.2007	372.6863	504.325	519.2188	595.8069	638.106	684.544	762.3895	843.6443	879.6545	910.3437	952.9801	1027.1108	1044.9989	1058.9034	1088.5546	1120.1117	1162.6909	1176.4644	1213.8281	1266.1673	1307.1704	1352.2956	1375.6834	1393.8308	1406.4912	1469.2697	1474.3687	1477.0952	1479.5459	1496.5095	1800.9528	1856.3846	3007.9428	3033.2343	3037.6683	3048.8993	3049.4402	3083.0964	3107.028	3125.3992	3170.3444
CC1=NCCCC(=O)O1	CC1=NCCCC(=O)O1	
InChI=1S/C6H9NO2/c1-5-7-4-2-3-6(8)9-5/h2-4H2,1H3	InChI=1S/C6H9NO2/c1-5-7-4-2-3-6(8)9-5/h2-4H2,1H3
