19
gdb 91752	2.26567	1.97853	1.67544	1.3078	74.12	-0.2427	0.0088	0.2515	926.3021	0.162598	-423.038775	-423.031713	-423.030769	-423.069926	29.474	
O	 0.1219761976	 1.4470746561	 0.0286229695	-0.434015
C	 0.0425307159	 0.0330360954	 0.0176203966	 0.112438
C	 0.6961911439	-0.6552940847	 1.2511164492	-0.252267
C	-0.5393972504	-1.2167696889	 1.9794034846	 0.036586
O	-1.3368678889	-1.6882226932	 0.890479776	-0.263073
C	-1.4204514422	-0.5488005983	 0.0296067492	 0.051499
C	-2.4519727582	 0.4288087907	 0.6097493997	-0.26649
C	-2.1859493979	 0.622056154	 2.0849574325	-0.083927
C	-1.2864604442	-0.1274229588	 2.7256222497	-0.068815
H	-0.1898503836	 1.7478540476	 0.889702961	 0.281866
H	 0.5466529094	-0.265064683	-0.904305062	 0.095637
H	 1.3524604274	-1.4751950509	 0.9466496147	 0.107155
H	 1.283281608	 0.059241068	 1.8333786525	 0.102865
H	-0.3248447661	-2.0710240855	 2.6259588359	 0.081811
H	-1.7270135391	-0.9063439469	-0.9559619494	 0.078052
H	-2.4016939228	 1.3854003417	 0.0786179279	 0.119816
H	-3.4651835099	 0.0360978018	 0.4541946238	 0.114504
H	-2.7533961973	 1.385160827	 2.6118852208	 0.093715
H	-1.0631499917	 0.0216675679	 3.7783369778	 0.092643
107.9871	251.5271	290.8001	407.0651	440.3366	447.6502	460.9671	481.9774	555.2706	641.2054	713.5994	777.8192	804.4685	822.6203	861.8936	907.1359	948.7349	969.9885	981.7578	994.3827	1008.2871	1026.7865	1041.0697	1084.1912	1112.2732	1171.1565	1182.1185	1195.0625	1227.9274	1281.8004	1293.4779	1310.1243	1330.191	1344.3128	1357.7625	1385.7371	1407.1088	1447.3306	1468.0758	1482.4311	1701.5598	3025.9775	3058.5258	3071.3975	3077.4572	3085.331	3093.7514	3113.6028	3150.0057	3175.6063	3794.6853
OC1CC2OC1CC=C2	O[C@H]1C[C@@H]2O[C@H]1CC=C2	
InChI=1S/C7H10O2/c8-6-4-5-2-1-3-7(6)9-5/h1-2,5-8H,3-4H2	InChI=1S/C7H10O2/c8-6-4-5-2-1-3-7(6)9-5/h1-2,5-8H,3-4H2/t5-,6+,7+/m1/s1
