23
gdb 119153	1.95517	1.24415	0.98036	1.4572	82.21	-0.2572	0.0683	0.3255	1382.2471	0.202624	-425.399299	-425.388409	-425.387465	-425.436085	39.006	
C	 0.9374937782	 1.3334992876	-0.0416115356	-0.224054
O	 1.0306067468	-0.0691561968	-0.1263015178	-0.234053
C	 0.1645281968	-0.6151568475	-1.1012614088	-0.142171
C	 0.3284194344	-2.1243179428	-1.1277857843	 0.409549
C	-0.3773713136	-2.8867732018	-0.0887151509	-0.224472
O	-0.9030287888	-2.8096330823	-1.4168637358	-0.292512
C	 1.547884783	-2.7379371076	-1.8089131671	-0.030401
C	 1.5606768275	-2.4346607279	-3.3151256196	-0.403353
C	 2.8674796228	-2.3358329065	-1.1345953078	-0.389036
H	 1.2038749326	 1.8205090277	-0.99304213	 0.105266
H	-0.0782762862	 1.6576834133	 0.2350006992	 0.105984
H	 1.6363808351	 1.6615241439	 0.7314858722	 0.128597
H	-0.8868866978	-0.3890218031	-0.8649790365	 0.099542
H	 0.3783037515	-0.1789643838	-2.0905120157	 0.091054
H	 0.0011382062	-3.8644231529	 0.20632201	 0.110927
H	-0.9505064738	-2.3614642155	 0.6738739493	 0.113165
H	 1.4231099739	-3.822577108	-1.6983028125	 0.076251
H	 2.3502670573	-3.0064965859	-3.8127303641	 0.112059
H	 0.6050503106	-2.7031889647	-3.7751086669	 0.12891
H	 1.7529332458	-1.3748753302	-3.5153389701	 0.1131
H	 2.8630401646	-2.5850678359	-0.0691721199	 0.114563
H	 3.705513478	-2.8608642479	-1.6047594433	 0.105292
H	 3.0468788251	-1.2609112813	-1.216231954	 0.125793
26.6216	80.0767	99.1393	157.3926	217.0846	225.7326	239.9122	247.7671	262.6307	300.7762	363.5965	399.6349	439.9542	487.4377	553.9251	729.0406	861.8412	882.2517	930.0878	939.0099	942.4993	970.7232	998.2084	1031.8133	1101.4428	1124.2027	1144.4649	1155.3416	1158.8101	1183.2144	1192.2005	1226.8061	1240.0959	1306.4669	1324.3313	1346.049	1398.9605	1408.5578	1424.9155	1440.5953	1479.3966	1485.4327	1485.8611	1490.7277	1500.2026	1506.9299	1509.8744	1523.5195	1532.764	2964.9655	2975.9137	3004.6274	3015.2111	3022.7879	3032.2984	3039.8339	3083.8885	3096.7102	3104.8599	3111.9299	3115.8629	3124.1886	3170.1193
COCC1(CO1)C(C)C	COC[C@]1(CO1)C(C)C	
InChI=1S/C7H14O2/c1-6(2)7(4-8-3)5-9-7/h6H,4-5H2,1-3H3	InChI=1S/C7H14O2/c1-6(2)7(4-8-3)5-9-7/h6H,4-5H2,1-3H3/t7-/m0/s1
