16
gdb 18878	3.27719	2.50079	2.12149	2.823	62.96	-0.222	0.0704	0.2924	716.3526	0.132438	-383.701309	-383.695118	-383.694174	-383.731309	25.023	
O	 0.0116314037	 1.4662982707	 0.0874584306	-0.427519
C	-0.0238694003	 0.0635311024	-0.0434613362	 0.14539
C	-1.4006773068	-0.5688709983	-0.0055064823	-0.137121
C	-2.0556298594	-0.5055328822	-1.3719804101	 0.128341
O	-1.6926696939	 0.4968875012	-2.287291581	-0.266139
C	-0.2928381744	 0.3413202402	-2.5505480807	-0.060853
C	 0.2173847705	-0.5911982596	-1.4519939288	-0.153313
C	-0.9920985594	-1.5167138909	-1.159300923	-0.125205
H	 0.9222345993	 1.7361843005	 0.2420596834	 0.281759
H	 0.6253705408	-0.4180735507	 0.6998831708	 0.071289
H	-1.9698344374	-0.7914986142	 0.8903437752	 0.083209
H	-3.1005227252	-0.7840692555	-1.4381147131	 0.104084
H	-0.1409606286	-0.0843413232	-3.5533876693	 0.087922
H	 0.1770561877	 1.328395681	-2.5011552219	 0.1065
H	 1.1976324084	-1.0287321989	-1.6388956483	 0.069527
H	-1.0580975648	-2.5914192425	-1.2522817353	 0.092128
168.9158	257.8408	273.9559	338.4585	514.4788	566.9177	636.9381	719.3403	773.7676	802.684	820.6798	840.2304	897.2729	931.052	986.0338	996.853	1015.8543	1026.6224	1050.3073	1051.6615	1070.3867	1126.0654	1146.8774	1182.311	1222.2908	1225.0072	1250.6017	1263.5197	1301.4164	1345.1492	1371.3575	1414.6465	1439.7896	1504.4981	2994.2431	3009.3849	3080.3765	3118.9624	3170.0036	3192.6528	3214.319	3820.0099
OC1C2C3OCC1C23	O[C@H]1[C@H]2[C@H]3OC[C@@H]1[C@@H]23	
InChI=1S/C6H8O2/c7-5-2-1-8-6-3(2)4(5)6/h2-7H,1H2	InChI=1S/C6H8O2/c7-5-2-1-8-6-3(2)4(5)6/h2-7H,1H2/t2-,3+,4+,5-,6+/m1/s1
