18
gdb 47486	2.75069	1.54541	1.12867	2.6104	74.03	-0.2476	0.0148	0.2624	1097.6517	0.148446	-439.069615	-439.061769	-439.060825	-439.102249	30.393	
N	-0.1161660202	 1.2508554709	 0.3417890283	-0.47874
C	-0.0112808266	 0.0461847392	-0.0299203789	 0.338231
C	 1.2936888716	-0.7260604578	-0.2036722519	-0.187278
O	 1.2335417498	-1.7972355455	-1.1216114406	-0.239628
C	 0.1175593002	-2.6277383809	-0.8428039718	-0.165674
C	-1.1442596754	-1.8256703592	-0.9830805225	 0.439749
C	-1.8474592711	-1.6963522487	-2.3054370416	-0.315335
C	-2.4818648024	-2.4626416542	-1.1585235751	-0.331652
O	-1.1598911719	-0.6683490176	-0.1601930742	-0.260814
H	 0.8074008906	 1.6671599559	 0.4573455895	 0.220929
H	 2.071275631	-0.0454353399	-0.556997753	 0.131585
H	 1.5890560692	-1.0948704898	 0.7951469887	 0.118116
H	 0.1396969753	-3.4493077423	-1.5624287743	 0.117815
H	 0.1962266131	-3.0469288318	 0.1745479046	 0.098721
H	-2.2647807875	-0.7245931954	-2.5407884573	 0.136016
H	-1.4579688226	-2.2489356688	-3.1535502116	 0.121062
H	-2.5343744028	-3.5447416315	-1.2139554711	 0.119482
H	-3.3094641503	-1.9905806026	-0.6418879073	 0.137415
77.3576	99.9462	239.0151	258.2284	366.2706	396.6438	440.4659	459.6141	511.2912	550.2756	620.889	763.7288	799.7917	842.6205	856.6441	915.6693	936.893	967.2881	992.207	996.6915	1027.8655	1053.9663	1072.9161	1084.6599	1113.558	1144.6597	1187.695	1232.5621	1295.6186	1313.0388	1349.7291	1372.5261	1386.0887	1420.0454	1452.2786	1473.7282	1489.6904	1499.956	1739.6082	2948.5101	2968.6637	3105.1538	3107.5918	3137.121	3140.2223	3223.6885	3237.1175	3490.5203
N=C1COCC2(CC2)O1	[NH][C]1COCC2(CC2)O1	
InChI=1S/C6H9NO2/c7-5-3-8-4-6(9-5)1-2-6/h7H,1-4H2	InChI=1S/C6H9NO2/c7-5-3-8-4-6(9-5)1-2-6/h7H,1-4H2
