23
gdb 59790	3.08568	1.03741	0.82443	1.966	81.75	-0.2439	0.0711	0.3151	1436.4002	0.206596	-425.439207	-425.429857	-425.428913	-425.473155	36.209	
C	 0.0815019857	 1.5667421036	 0.0580116568	-0.414741
C	 0.0076050661	 0.0389678926	 0.0417412908	 0.122896
O	 0.7248457119	-0.5050551859	 1.1508158902	-0.431424
C	-1.4283548959	-0.5163943023	-0.0098951231	 0.01377
C	-2.2261989317	-0.0403661643	-1.2368383076	-0.219105
C	-3.6035767181	-0.7106623632	-1.2813826075	-0.077255
O	-3.5157031125	-2.1225463469	-1.2597883262	-0.241154
C	-2.8634014985	-2.5939639876	-0.0917733796	-0.087283
C	-1.4383426005	-2.0546670239	 0.0230031533	-0.19659
H	 1.1211248851	 1.8816950161	 0.1812666082	 0.124987
H	-0.3023734361	 2.0079050915	-0.8659130444	 0.122131
H	-0.5014758567	 1.9777457581	 0.8926214025	 0.104264
H	 0.5514372684	-0.3340740525	-0.836293893	 0.087501
H	 0.3323010126	-0.144836722	 1.9541746646	 0.274113
H	-1.9503560455	-0.1522665478	 0.8921502151	 0.052667
H	-2.3604827026	 1.0467002229	-1.229735618	 0.094111
H	-1.6776012254	-0.2965786416	-2.1529417285	 0.102466
H	-4.212682915	-0.3572256485	-0.4296660163	 0.079577
H	-4.1356222972	-0.4506166816	-2.2014124979	 0.104235
H	-3.4462130031	-2.3103640925	 0.8032607268	 0.078213
H	-2.8686744761	-3.685803274	-0.1601579662	 0.104699
H	-0.8475072333	-2.4378869546	-0.8193630408	 0.099504
H	-0.9647412818	-2.4187890454	 0.9388617909	 0.102416
74.1248	118.584	187.199	239.8047	245.0515	284.2418	307.0332	336.3733	410.48	415.0194	471.2815	479.5009	518.3288	589.7482	820.7866	823.4773	861.2236	894.4491	918.8236	955.9891	996.1692	1014.1589	1022.2702	1060.9151	1086.8616	1115.2263	1116.1225	1163.6118	1180.5142	1197.7948	1239.798	1261.5748	1283.6551	1315.788	1324.8819	1337.714	1371.7411	1373.868	1389.1623	1391.9826	1402.1111	1419.2339	1428.0904	1472.6701	1485.1069	1493.2244	1493.7361	1498.0926	1504.6143	2940.5837	2945.9569	2956.7314	3019.529	3022.3199	3027.3737	3032.574	3073.1054	3079.1569	3082.5211	3096.0252	3099.6713	3123.7562	3793.8197
CC(O)C1CCOCC1	C[C@@H](O)C1CCOCC1	
InChI=1S/C7H14O2/c1-6(8)7-2-4-9-5-3-7/h6-8H,2-5H2,1H3	InChI=1S/C7H14O2/c1-6(8)7-2-4-9-5-3-7/h6-8H,2-5H2,1H3/t6-/m1/s1
