26
gdb 60455	4.68538	0.53947	0.5211	1.0303	94.54	-0.2293	0.0851	0.3144	2258.4864	0.239123	-369.59293	-369.581866	-369.580922	-369.630218	40.351	
C	-0.2947550311	 1.4569429349	-0.1240400843	-0.38058
C	 0.0073814034	-0.0422436656	 0.0112541325	 0.043225
C	 0.72020508	-0.5628317419	-1.2443996104	-0.388154
C	 0.8305488065	-0.3656710806	 1.2717894209	-0.16494
C	 0.127258628	-0.0675431454	 2.6006497506	-0.190498
C	 0.9437894736	-0.519174452	 3.8119782092	-0.141621
N	 0.2713523017	-0.1703727692	 5.059531337	-0.058681
C	-0.6671174624	-1.1562494509	 5.5852628051	-0.218571
C	 0.6532143727	-0.937884645	 6.238189208	-0.220826
H	 0.6344349849	 2.0365741668	-0.1895770083	 0.109456
H	-0.8744746055	 1.6593467339	-1.0308606165	 0.108184
H	-0.8668199059	 1.840083594	 0.7256749988	 0.115984
H	-0.9520925229	-0.573484519	 0.0973742305	 0.068774
H	 1.6878125505	-0.0643990458	-1.3800650304	 0.110327
H	 0.9081052198	-1.6399977276	-1.1803265742	 0.107119
H	 0.1250554759	-0.3787125387	-2.1450500714	 0.107741
H	 1.1003209613	-1.4306620997	 1.2456533076	 0.086009
H	 1.7809885855	 0.1862906632	 1.2281735368	 0.089025
H	-0.0739304105	 1.0038223947	 2.7058372662	 0.110665
H	-0.8494167624	-0.5700592225	 2.6210370475	 0.092855
H	 1.1437836464	-1.6059701566	 3.7432539589	 0.073077
H	 1.9201153292	-0.0177885253	 3.8101712561	 0.100101
H	-1.5770001338	-0.7603531487	 6.0273561555	 0.114706
H	-0.7968826104	-2.0849742334	 5.0304916055	 0.105864
H	 1.4001626259	-1.7215634496	 6.1177365774	 0.106214
H	 0.72729572	-0.3779744799	 7.1662827817	 0.114546
41.8833	55.5408	93.2372	126.1272	135.221	220.7592	240.0326	249.9329	268.4153	371.8594	379.1496	414.8596	439.6791	510.5872	750.7551	765.2572	821.0907	833.319	867.6454	899.8656	927.8291	951.3173	964.9596	1009.7645	1019.4183	1033.0906	1056.9325	1066.6197	1111.9844	1115.6949	1143.2793	1158.2345	1178.9459	1192.9891	1204.7612	1244.6338	1273.6922	1309.2521	1318.5308	1326.2856	1344.2405	1370.3528	1387.4627	1399.9874	1405.9057	1422.1992	1478.9285	1486.3906	1489.0634	1493.6219	1495.8282	1505.2714	1507.6476	1511.3934	1524.2308	2916.6157	2991.0957	2998.7589	3017.6767	3021.3357	3027.2883	3032.1791	3039.4266	3079.1145	3085.3049	3089.2502	3091.3105	3094.0924	3096.3904	3107.6426	3172.4683	3186.9226
CC(C)CCCN1CC1	CC(C)CCCN1CC1	
InChI=1S/C8H17N/c1-8(2)4-3-5-9-6-7-9/h8H,3-7H2,1-2H3	InChI=1S/C8H17N/c1-8(2)4-3-5-9-6-7-9/h8H,3-7H2,1-2H3
