15
gdb 132777	2.33323	1.80516	1.01873	1.3805	72.68	-0.1975	0.0158	0.2133	1075.1875	0.113379	-461.977838	-461.970132	-461.969188	-462.009544	30.621	
N	 0.0056812057	 1.4289073387	-0.1558761707	-0.593902
C	 0.0381792239	 0.0389462471	-0.0678284711	 0.243561
C	-1.1708105212	-0.6720597337	-0.1007843068	 0.201039
O	-2.3429791317	 0.0306617848	-0.1512771435	-0.462117
C	-1.1468103758	-2.0592947022	-0.0711867748	 0.196596
F	-2.3490098913	-2.6776191494	-0.098644894	-0.104799
C	 0.0271858356	-2.7898139192	-0.007659219	-0.276466
C	 1.2259124145	-2.0805026079	 0.0288568477	-0.099466
C	 1.2319944801	-0.689107324	-0.000369459	-0.202576
H	 0.7889289994	 1.8972810531	 0.2748483703	 0.247336
H	-0.8791723292	 1.834570691	 0.1134010417	 0.260277
H	-3.0663682603	-0.6071515434	-0.1451239309	 0.302732
H	-0.0122731866	-3.8713722345	 0.0130612733	 0.105833
H	 2.1655220595	-2.6187099997	 0.0807086902	 0.097601
H	 2.1729108876	-0.1484797308	 0.0243363566	 0.08435
157.7961	250.7207	294.2099	298.8358	304.3176	331.9115	396.1849	492.7855	506.3882	548.7104	565.8024	574.8357	630.028	706.686	718.2331	765.9157	838.9939	852.0905	919.8419	994.6307	1071.0005	1135.147	1177.4907	1242.5755	1277.4087	1309.0964	1367.0292	1394.855	1518.1262	1547.0779	1639.9255	1643.6218	1672.3761	3172.1303	3194.3899	3216.4255	3565.3076	3668.8897	3805.7418
NC1=C(O)C(F)=CC=C1	Nc1c(O)c(F)ccc1	
InChI=1S/C6H6FNO/c7-4-2-1-3-5(8)6(4)9/h1-3,9H,8H2	InChI=1S/C6H6FNO/c7-4-2-1-3-5(8)6(4)9/h1-3,9H,8H2
