19
gdb 92712	2.04248	1.76416	1.06298	1.4264	83.56	-0.2367	0.0227	0.2594	1162.3391	0.15782	-385.873756	-385.864617	-385.863673	-385.907293	34.896	
C	-0.0749026644	 1.5072362853	-0.0038493502	-0.498935
C	 0.0031658784	 0.0167125393	-0.0706918526	 0.3411
C	-0.0791885436	-0.7668701732	-1.1455643166	-0.165979
C	 0.007867981	-2.234866737	-0.8172714018	-0.268926
C	 0.529256588	-2.2506006351	 0.6334138681	 0.120399
O	 1.9293734785	-2.4243080097	 0.5705043233	-0.435916
C	 0.1313782027	-0.8381179551	 1.1922390616	-0.294128
C	 1.0675932743	-0.3472491586	 2.1957049295	 0.297444
C	 1.8636338443	 0.0192309214	 3.0209608828	-0.450219
H	 0.8172907752	 1.9269328723	 0.4750284939	 0.138151
H	-0.1719272944	 1.9447718198	-1.0008195364	 0.123504
H	-0.9333970274	 1.8348867898	 0.597159986	 0.123748
H	-0.2241316721	-0.4010759255	-2.1567109975	 0.088626
H	-0.9736668692	-2.7225582317	-0.8940334305	 0.102014
H	 0.6958032846	-2.7907419248	-1.4621430745	 0.122087
H	 0.0676832581	-3.0438235035	 1.2384645816	 0.065258
H	 2.3022093163	-2.1226606104	 1.4085507644	 0.283007
H	-0.8594677381	-0.9152505607	 1.6673607729	 0.108358
H	 2.5497970176	 0.3650528772	 3.7543305861	 0.200409
80.6517	134.7918	169.5859	183.5742	240.0715	305.2583	357.0976	372.7499	408.8923	428.9829	508.3509	563.7718	619.2573	652.6329	654.1919	784.2114	793.3036	844.218	889.3474	924.5709	965.7979	1001.7422	1037.8925	1044.7866	1066.1895	1098.7092	1177.4276	1209.4166	1235.716	1254.496	1300.5312	1310.6305	1328.7852	1373.2129	1415.3063	1418.9852	1475.2507	1476.5893	1489.2456	1728.6617	2223.7542	2975.1636	2996.2913	3018.8095	3019.4132	3070.4974	3078.377	3115.3168	3186.3177	3500.7055	3765.5651
CC1=CCC(O)C1C#C	CC1=CC[C@@H](O)[C@H]1C#C	
InChI=1S/C8H10O/c1-3-7-6(2)4-5-8(7)9/h1,4,7-9H,5H2,2H3	InChI=1S/C8H10O/c1-3-7-6(2)4-5-8(7)9/h1,4,7-9H,5H2,2H3/t7-,8+/m0/s1
