18
gdb 65192	2.78115	1.22144	1.17621	4.9952	73.23	-0.2482	0.0081	0.2563	1150.6612	0.145659	-439.055619	-439.046691	-439.045747	-439.089626	32.487	
C	-0.1674236908	 1.5311795186	-0.1774146723	-0.466966
C	-0.1492526039	 0.0301855491	 0.0144678064	 0.389622
C	 1.0973715789	-0.7264117746	-0.1890091509	-0.217185
O	 0.6126805752	-0.4426016395	 1.1282226868	-0.261208
C	-1.4678043392	-0.6712487755	-0.190617434	-0.088453
C	-1.7396408501	-2.0114419495	 0.4307752329	-0.254313
N	-2.4119279589	-0.8260116199	 0.906019538	-0.072272
C	-2.3121626248	-0.339826959	 2.2001848027	 0.156444
O	-2.3561544604	-1.0224298884	 3.1921947477	-0.289615
H	 0.8281281471	 1.9501512829	-0.0145447285	 0.134946
H	-0.4940019507	 1.7874500006	-1.1908228122	 0.128204
H	-0.8582915352	 2.005140313	 0.5270966442	 0.136376
H	 1.053041952	-1.7727923134	-0.4851345357	 0.119855
H	 2.0049090363	-0.1961001959	-0.47314556	 0.12094
H	-1.9394756006	-0.4431904397	-1.1460476487	 0.103891
H	-2.3522103965	-2.7351005341	-0.0996614181	 0.126029
H	-0.974588241	-2.41934719	 1.0852412695	 0.152631
H	-2.2813670171	 0.7662418654	 2.2245799623	 0.081073
57.7744	101.9772	179.089	196.131	200.5873	282.3097	310.21	347.3848	383.3022	492.8254	531.3306	642.1366	719.7563	810.2085	860.1304	896.9493	921.7393	966.0148	1003.4649	1034.2803	1040.775	1092.5043	1099.083	1124.5877	1137.1423	1149.7695	1169.1669	1172.663	1244.0688	1370.4519	1387.2908	1414.6603	1421.6597	1429.4636	1482.8419	1495.4689	1501.3805	1527.3771	1805.6618	2950.8478	3040.8457	3088.7448	3105.3298	3112.5564	3116.4732	3129.9056	3178.8084	3209.9628
CC1(CO1)C1CN1C=O	C[C@]1(CO1)[C@H]1CN1C=O	
InChI=1S/C6H9NO2/c1-6(3-9-6)5-2-7(5)4-8/h4-5H,2-3H2,1H3	InChI=1S/C6H9NO2/c1-6(3-9-6)5-2-7(5)4-8/h4-5H,2-3H2,1H3/t5-,6+,7?/m1/s1
