15
gdb 128241	1.99876	1.8136	0.9589	2.9561	72.11	-0.2155	-0.0698	0.1456	1156.5142	0.112447	-453.939408	-453.931127	-453.930183	-453.972613	29.605	
C	 0.2441760132	 1.2618793422	-0.2639249988	-0.333157
N	-0.0368688071	-0.1187579646	 0.062975742	-0.399068
C	 0.5415317617	-0.703144661	 1.1541581034	 0.142151
C	 1.1686683849	-0.1671928683	 2.2456876331	-0.024772
O	 1.5326526209	-1.1650354137	 3.0991428743	-0.1543
N	 1.1679581964	-2.3684808322	 2.5895432851	-0.18198
C	 0.5817363867	-2.111037807	 1.4325254072	 0.229089
C	 0.0916235309	-3.1904316676	 0.5798182211	 0.091611
O	-0.400100454	-2.9904050677	-0.514099782	-0.292739
H	 1.3156017463	 1.4568597929	-0.4273132897	 0.120497
H	-0.3003139514	 1.532978703	-1.1702447111	 0.137995
H	-0.1006556672	 1.9214090155	 0.5417395068	 0.132223
H	-0.2322874475	-0.7626764424	-0.6891877717	 0.267439
H	 1.4191917969	 0.8312893861	 2.5590694012	 0.150356
H	 0.2066707593	-4.2099316453	 0.9943497991	 0.114656
103.3049	142.4707	147.6509	169.814	236.8008	280.035	369.2394	430.3532	492.2397	548.9896	616.5889	697.4286	715.5385	745.4942	807.2015	932.6275	1016.1092	1036.9869	1085.7554	1114.0532	1154.2991	1175.4975	1252.3	1318.3147	1386.2773	1433.4234	1457.0724	1472.8773	1483.2581	1517.7518	1555.5487	1666.5448	1771.5776	2959.7671	2982.6273	3051.2289	3129.7042	3293.1397	3608.6399
CNC1=CON=C1C=O	CNc1conc1C=O	
InChI=1S/C5H6N2O2/c1-6-5-3-9-7-4(5)2-8/h2-3,6H,1H3	InChI=1S/C5H6N2O2/c1-6-5-3-9-7-4(5)2-8/h2-3,6H,1H3
