18
gdb 19765	2.99278	2.77745	2.34451	1.4781	69.28	-0.2176	0.0811	0.2986	716.3825	0.158143	-347.808316	-347.80248	-347.801535	-347.838023	24.452	
C	 0.0314164992	 1.5728594077	-0.0352657921	-0.217343
C	 1.5177844353	 1.8855490056	 0.0605587401	-0.097069
C	 2.1824204778	 0.6934666268	 0.7637383011	-0.097069
C	 1.0809340645	-0.3095441216	 1.0750989522	-0.217343
C	 0.0320744482	 0.0282302268	-0.0076962275	-0.072919
C	 0.5488167451	-0.4797933495	-1.3573785683	-0.052116
O	 1.836693331	 0.0536585745	-1.6702571137	-0.277556
C	 2.3801637876	 0.9231159693	-0.7099935839	 0.134402
H	-0.5077039596	 1.9862502899	 0.8249210826	 0.095709
H	-0.4353283912	 1.9676683204	-0.9446744871	 0.098627
H	 1.8510321391	 2.9050584913	 0.2202775602	 0.078227
H	 3.0127710177	 0.8213776576	 1.4493913943	 0.078227
H	 1.4151292468	-1.3512796775	 1.0130522301	 0.098628
H	 0.680676099	-0.1452332174	 2.0822033258	 0.095709
H	-0.9522090535	-0.4034347556	 0.1908476808	 0.068968
H	 0.6246021438	-1.576614241	-1.350791247	 0.09281
H	-0.143708629	-0.1985174615	-2.1636641357	 0.092809
H	 3.3514051783	 1.2633414143	-1.0512271317	 0.0973
128.0845	343.1754	386.0212	480.6432	523.6842	616.154	675.609	757.1392	778.3825	828.7322	833.0187	904.2211	905.0705	925.5098	942.9912	1000.6333	1003.4833	1030.27	1068.2732	1081.9737	1096.7446	1101.7297	1117.8359	1170.1386	1176.4749	1209.8425	1229.8898	1276.4508	1299.8448	1309.5431	1340.7916	1352.2294	1358.5167	1408.1393	1440.0036	1489.0366	1504.0306	1524.0941	2988.0334	3017.418	3029.1216	3032.4079	3070.2186	3071.4521	3080.446	3162.3355	3166.145	3180.5761
C1C2C3CC1COC23	C1[C@H]2[C@H]3C[C@@H]1CO[C@@H]23	
InChI=1S/C7H10O/c1-4-2-6-5(1)7(6)8-3-4/h4-7H,1-3H2	InChI=1S/C7H10O/c1-4-2-6-5(1)7(6)8-3-4/h4-7H,1-3H2/t4-,5+,6-,7+
