19
gdb 51568	3.94281	0.83978	0.77634	4.0345	76.92	-0.2397	-0.0216	0.2181	1482.8655	0.159461	-419.157111	-419.148156	-419.147211	-419.192042	32.254	
O	-0.5605445168	 0.6286605885	 0.4042640693	-0.239026
C	 0.1007321683	 1.6292631334	 0.2972048444	 0.159086
C	 1.4823687188	 1.6913554368	-0.322246224	-0.30119
C	 1.54300297	 2.7284245073	-1.4291010317	-0.027183
N	 1.5254110462	 4.1497330255	-1.0286069077	-0.344054
C	 2.7226071266	 3.6036275869	-1.6829788553	-0.055861
C	 3.9724456638	 3.5650796561	-0.8507550222	-0.004466
C	 4.5464636015	 4.8330234579	-0.3347761779	-0.239838
N	 3.9092322479	 3.8750257852	 0.584017302	-0.316061
H	-0.2775487524	 2.6127038885	 0.6561152495	 0.085938
H	 2.196528805	 1.9543177398	 0.4667791443	 0.150655
H	 1.7409206719	 0.6994885023	-0.7045743269	 0.122951
H	 0.9538080219	 2.4699692457	-2.307771115	 0.10058
H	 0.9710692078	 4.7073550357	-1.6705839286	 0.24115
H	 2.8880150129	 3.8705501995	-2.7263134366	 0.09494
H	 4.6540258118	 2.7541124247	-1.1010751572	 0.097893
H	 5.6214703008	 4.9403913633	-0.2230886908	 0.119307
H	 4.0132342818	 5.7527792386	-0.5621478318	 0.112774
H	 2.965345002	 4.2114964643	 0.7760135862	 0.242405
51.0281	68.0845	120.1615	133.5518	210.1199	259.8912	302.2764	431.9257	501.8359	539.0441	618.2294	743.029	810.2476	829.2316	859.0086	874.9856	914.1668	957.7041	991.7058	998.7159	1029.6616	1043.1475	1081.8811	1112.8587	1129.4582	1150.4978	1180.6577	1193.9533	1218.3807	1260.1517	1272.8433	1296.543	1298.755	1321.4045	1388.2877	1421.7569	1426.3305	1461.3756	1464.1582	1509.3807	1833.2557	2885.028	3049.0528	3102.2457	3108.1152	3109.0939	3122.4988	3125.6658	3195.8113	3463.9997	3524.247
O=CCC1NC1C1CN1	O=CC[C@H]1N[C@H]1[C@H]1CN1	
InChI=1S/C6H10N2O/c9-2-1-4-6(8-4)5-3-7-5/h2,4-8H,1,3H2	InChI=1S/C6H10N2O/c9-2-1-4-6(8-4)5-3-7-5/h2,4-8H,1,3H2/t4-,5-,6-/m1/s1
