22
gdb 90095	2.72705	1.44026	1.27302	1.9501	88.02	-0.2031	0.057	0.2601	1138.6253	0.194286	-367.057944	-367.049453	-367.048509	-367.090441	34.155	
C	-0.0775090727	 1.6553759639	-0.0538870029	-0.409438
C	 0.0180744972	 0.1339804723	-0.0118853562	-0.018306
C	 0.9404510288	-0.6006067466	-1.1010594492	-0.360791
C	 1.8451707001	-1.0063902419	 0.0911989077	 0.23716
C	 2.4499263165	-1.9724364663	 1.1634266365	-0.268636
N	 2.0785389037	-0.7083495118	 2.0078381958	-0.199364
C	 2.6565627453	 0.0987555421	 0.8344236648	 0.087854
C	 4.1636244786	 0.2499275167	 0.7187776875	-0.449892
C	 0.769979028	-0.7477413447	 1.0967838293	 0.00575
H	 0.8867339332	 2.1483587643	-0.1975479341	 0.123228
H	-0.7217809125	 1.9635003638	-0.8855409328	 0.115424
H	-0.5210857677	 2.0433057394	 0.8689123326	 0.126367
H	-1.0037412803	-0.2561010525	-0.0495904172	 0.087856
H	 0.4143172608	-1.428211555	-1.5838928916	 0.107137
H	 1.3942474076	 0.031519815	-1.870788611	 0.100152
H	 1.8566899862	-2.8539620305	 1.4182206811	 0.104446
H	 3.5163775465	-2.2020344161	 1.1854759033	 0.102617
H	 2.2127692541	 1.0941421133	 0.8261084067	 0.072885
H	 4.7023437819	-0.690482952	 0.5861168794	 0.118833
H	 4.4027104867	 0.8901367816	-0.1373838663	 0.11645
H	 4.5547863924	 0.7392972492	 1.6176798021	 0.129555
H	 0.1294457557	-1.5685670741	 1.4278223147	 0.070713
133.6788	154.7106	197.4243	212.3483	254.6614	320.5793	373.8484	433.6698	449.0626	531.5534	596.8816	671.7301	734.2257	758.3976	782.2423	819.9037	856.9719	863.5929	877.3537	946.3974	991.6925	1019.2233	1045.4674	1065.2997	1073.2508	1088.76	1119.9419	1141.4311	1165.8548	1172.9459	1189.7948	1195.2518	1216.4519	1230.0644	1260.9811	1278.3511	1344.7684	1373.3135	1405.6697	1412.9968	1429.885	1473.4389	1490.7283	1493.2494	1495.6401	1506.5218	1537.2624	3031.8466	3036.6346	3045.3281	3048.8578	3066.3991	3075.1096	3091.8886	3095.5608	3105.333	3109.0972	3118.9682	3130.4166	3138.7355
CC1CC23CN(C2C)C13	C[C@H]1C[C@@]23CN([C@H]2C)[C@@H]13	
InChI=1S/C8H13N/c1-5-3-8-4-9(6(8)2)7(5)8/h5-7H,3-4H2,1-2H3	InChI=1S/C8H13N/c1-5-3-8-4-9(6(8)2)7(5)8/h5-7H,3-4H2,1-2H3/t5-,6-,7-,8+/m0/s1
