13
gdb 5046	3.65536	2.2534	1.4828	1.237	73.21	-0.2435	-0.0776	0.166	798.1031	0.09764	-357.639733	-357.633436	-357.632492	-357.67034	23.535	
N	-0.075241545	 1.172269571	-0.6262757362	-0.474336
C	-0.0000221752	 0.0067443387	-0.1049938132	 0.217412
C	 1.254874651	-0.6521891863	 0.3328016423	-0.052564
N	 1.5697771125	-1.8952172103	 0.290273128	-0.206852
C	 0.7310581374	-2.8974307735	-0.129108164	-0.008631
C	-0.6295733819	-2.9160200857	-0.1557360428	-0.003285
N	-1.5161894767	-1.9428448891	 0.2320546797	-0.212788
C	-1.2517427541	-0.6882037313	 0.2791682769	 0.006135
H	 0.8602263637	 1.5622580505	-0.77742567	 0.225644
H	 2.0047775383	 0.0310150328	 0.7425493747	 0.128459
H	 1.2454557752	-3.8243336927	-0.3700311912	 0.119872
H	-1.1055856179	-3.857374546	-0.4198047259	 0.120869
H	-2.0363959271	-0.0232694181	 0.6443559118	 0.140066
84.4942	240.1744	306.6998	399.3428	412.2711	466.4033	570.0275	645.968	693.523	844.8532	867.4606	878.5824	912.6854	947.7039	968.6119	980.3896	984.1246	1095.2491	1155.5692	1297.1272	1370.0437	1380.8104	1407.05	1464.7092	1550.938	1642.0606	1660.2695	1684.4382	3086.316	3120.6708	3151.06	3171.4024	3418.0567
N=C1C=NC=CN=C1	[NH][C]1C=NC=CN=C1	
InChI=1S/C5H5N3/c6-5-3-7-1-2-8-4-5/h1-4,6H	InChI=1S/C5H5N3/c6-5-3-7-1-2-8-4-5/h1-4,6H
