16
gdb 23185	2.34406	1.60282	1.03676	1.0656	68.68	-0.2524	-0.0187	0.2338	1115.564	0.123389	-474.950185	-474.942085	-474.941141	-474.983193	30.019	
O	-0.1303876389	 1.3013864453	 0.1192775077	-0.389931
N	 0.0277332769	-0.0886130428	 0.0401923709	-0.213992
C	-1.098930369	-0.6688090515	-0.0414826882	 0.299267
C	-2.4855412184	-0.0771487362	-0.0847764984	-0.170782
O	-3.3303462631	-1.1441939614	-0.5036588299	-0.25482
C	-2.7611559416	-2.3686436512	-0.060786675	-0.170011
C	-1.2504475666	-2.1550032008	-0.1144443519	 0.337798
C	-0.2839263907	-3.0538594448	-0.7604527129	-0.233728
O	-0.4109335483	-3.0000913354	 0.6631396626	-0.266757
H	 0.779948103	 1.6125629323	 0.1721946741	 0.31268
H	-2.7719862505	 0.3046263679	 0.9090763637	 0.122557
H	-2.5711615131	 0.7461745027	-0.7988137325	 0.141986
H	-3.0536054268	-2.6016534347	 0.975776039	 0.111715
H	-3.1192449368	-3.1667750839	-0.7148796565	 0.121883
H	-0.6375781369	-3.9712534805	-1.22996488	 0.119222
H	 0.637053181	-2.6330483951	-1.1594937127	 0.132914
68.6115	164.3935	179.7335	198.0618	305.6573	324.6201	372.1668	456.51	498.6267	530.2047	583.9192	662.8329	780.6593	861.9445	889.7972	942.2474	953.2389	990.962	1023.1796	1078.118	1112.2164	1129.7981	1136.679	1173.1585	1201.0954	1235.6653	1255.7752	1327.2972	1368.5268	1396.9893	1441.7586	1490.3886	1511.7393	1521.3479	1764.8675	2973.694	2982.0349	3082.925	3093.2054	3102.3462	3180.0629	3814.2763
ON=C1COCC11CO1	ON=C1COC[C@]21CO2	
InChI=1S/C5H7NO3/c7-6-4-1-8-2-5(4)3-9-5/h7H,1-3H2	InChI=1S/C5H7NO3/c7-6-4-1-8-2-5(4)3-9-5/h7H,1-3H2/t5-/m1/s1
