17
gdb 43220	2.922	1.82745	1.61472	3.3635	71.13	-0.2396	-0.0151	0.2245	887.2623	0.138505	-421.810114	-421.80374	-421.802795	-421.840667	26.506	
O	 0.0364108883	 0.0159677219	 0.1144681342	-0.327113
C	 0.0266197359	 1.21214628	 0.0748602017	 0.462604
C	-1.082651641	 2.2798434265	-0.0305210772	-0.200174
C	-1.289388623	 2.8548019205	 1.3786776838	-0.094773
O	-0.018111565	 3.0723484223	 1.9914844202	-0.266062
C	 0.969586313	 3.3992032473	 1.0344470706	 0.11694
C	 0.4392378731	 4.4047514827	-0.0206021413	-0.266649
C	-0.0356291559	 3.17335734	-0.8119577745	-0.039609
C	 1.0710753728	 2.2898840618	-0.1117886303	-0.198103
H	-2.0238855246	 2.0174355356	-0.5152534518	 0.094602
H	-1.8612024603	 3.7922103866	 1.3254606748	 0.105456
H	-1.8351675561	 2.1572778147	 2.0202288469	 0.128689
H	 1.883423699	 3.623770747	 1.584475995	 0.095577
H	-0.2808017264	 5.1560560996	 0.3157961639	 0.106656
H	 1.2612523658	 4.9052166288	-0.5396257172	 0.110985
H	-0.1682892389	 3.2016554753	-1.8926527784	 0.083835
H	 2.0659576833	 2.0869066695	-0.5064891103	 0.087139
135.3918	288.5454	323.7135	409.4626	478.4888	516.0875	526.4996	623.8517	743.2186	767.9746	785.0458	824.3617	840.1016	864.1915	922.0087	960.9723	978.4645	1017.5927	1032.0581	1035.2923	1069.4616	1088.3929	1106.2664	1141.7915	1192.2387	1194.9103	1209.3741	1235.3234	1264.3296	1271.2071	1273.0039	1301.588	1355.1763	1397.6587	1484.9133	1520.6758	1886.8061	3002.2645	3055.3244	3089.0006	3106.455	3110.4459	3115.1539	3121.0106	3130.5998
O=C1C2COC3CC2C13	O=C1[C@H]2CO[C@@H]3C[C@H]2[C@H]13	
InChI=1S/C7H8O2/c8-7-4-2-9-5-1-3(4)6(5)7/h3-6H,1-2H2	InChI=1S/C7H8O2/c8-7-4-2-9-5-1-3(4)6(5)7/h3-6H,1-2H2/t3-,4+,5-,6+/m1/s1
