14
gdb 5168	5.49044	1.47456	1.17884	3.4522	63.85	-0.2188	-0.0425	0.1762	948.8085	0.108528	-378.770645	-378.763688	-378.762744	-378.802769	24.825	
O	-0.6814128687	 1.757655932	 0.4686108748	-0.25223
C	 0.2415530876	 1.0237532215	 0.2071918143	 0.167577
C	 1.4344555597	 1.3674347801	-0.6549283474	-0.432629
C	 1.3773002141	 2.6389716716	-1.4384677454	 0.309315
C	 2.1149732895	 3.084054233	-2.5088914751	-0.16936
N	 1.7252517357	 4.3478058294	-2.8813227446	-0.256619
C	 0.759186241	 4.667677598	-2.0488690208	 0.009548
N	 0.5149369452	 3.6760293163	-1.1503306099	-0.289024
H	 0.2851280087	 0.000940532	 0.6400017316	 0.098783
H	 2.2897101185	 1.3529429338	 0.0442763502	 0.1541
H	 1.6188899726	 0.5113166018	-1.3173813172	 0.149742
H	 2.9067667809	 2.5636377342	-3.0277543676	 0.102447
H	 0.2033552261	 5.5933220553	-2.0492602894	 0.128266
H	-0.2160399609	 3.610395691	-0.4581861136	 0.280084
38.931	153.4949	192.2132	251.0228	322.9032	578.2552	602.5346	663.0453	716.3411	718.8356	805.6702	814.1972	846.3176	926.8616	941.1983	1023.0405	1045.4426	1121.8807	1150.9757	1221.2813	1256.3639	1265.5888	1340.748	1384.5906	1422.4795	1432.9309	1445.6947	1500.0854	1604.0218	1816.0743	2902.7034	2964.9547	3043.9904	3239.3057	3253.1154	3631.1601
O=CCC1=CN=CN1	O=CCc1cnc[nH]1	
InChI=1S/C5H6N2O/c8-2-1-5-3-6-4-7-5/h2-4H,1H2,(H,6,7)	InChI=1S/C5H6N2O/c8-2-1-5-3-6-4-7-5/h2-4H,1H2,(H,6,7)
