25
gdb 84025	2.49956	1.32518	1.07018	0.0182	92.29	-0.2509	0.0823	0.3332	1284.2511	0.232033	-352.367383	-352.35853	-352.357586	-352.400367	35.77	
C	-0.2048178569	 1.5782112872	-0.0403855701	-0.406176
C	 0.0024973629	 0.079784803	 0.0244124771	-0.052249
C	 1.3131094756	-0.6016914521	-0.3203594715	-0.017064
C	 2.5855232192	 0.1370806848	-0.6969154066	-0.220071
C	 3.8398678526	-0.4492631612	-0.0205993993	-0.173207
C	 4.0395229073	-0.0251654734	 1.4448412223	-0.175882
C	 2.9675059794	-0.4632378378	 2.4578108364	-0.173201
C	 1.5640292163	 0.1207696212	 2.2052583854	-0.220097
C	 0.8105567395	-0.6096311618	 1.1073551981	-0.017065
H	 0.6740233152	 2.1462206639	 0.2736511001	 0.118659
H	-0.4470409619	 1.8926768833	-1.0618861588	 0.114204
H	-1.0364388465	 1.8831543466	 0.6049311952	 0.114192
H	-0.8810776267	-0.4718639078	-0.289644595	 0.077321
H	 1.2125567652	-1.5493307311	-0.8457203334	 0.073595
H	 2.7054285009	 0.0936645728	-1.7866514729	 0.090033
H	 2.5151878839	 1.2025975829	-0.4505113508	 0.090002
H	 3.8088410693	-1.5454106549	-0.088606064	 0.088682
H	 4.7274057101	-0.1351793011	-0.5843505154	 0.08529
H	 5.0098190368	-0.4098386219	 1.7842021197	 0.08772
H	 4.1238848953	 1.0708470303	 1.4807156173	 0.087693
H	 2.904569831	-1.5598947554	 2.4803651509	 0.088684
H	 3.3051779854	-0.1579944899	 3.4563056386	 0.085292
H	 0.9751131752	 0.065994258	 3.1293596437	 0.090036
H	 1.659826444	 1.1889532317	 1.9798737101	 0.090009
H	 0.4063136169	-1.5620508474	 1.4444301827	 0.073602
108.97	149.0499	194.1669	243.1041	262.5484	304.5587	320.0555	351.4181	460.6602	469.5844	548.2814	560.1183	736.7424	754.9807	762.8496	826.9518	862.5782	890.1083	897.6927	930.5047	938.5046	996.4919	1017.8882	1025.9081	1070.589	1071.7411	1100.5292	1108.6334	1122.9649	1153.9624	1186.2852	1208.3209	1223.9838	1242.1224	1271.1631	1289.723	1302.5338	1340.2471	1359.5488	1376.7524	1383.4788	1391.1749	1393.6754	1405.3345	1419.4069	1456.0664	1481.3121	1482.2295	1484.2912	1492.7993	1496.4053	1497.7169	1508.8029	3000.2428	3007.9826	3009.1924	3021.0844	3023.572	3031.1057	3044.4671	3046.7839	3051.8632	3057.6385	3065.9057	3084.4274	3107.7572	3111.0299	3118.2005	3134.0382
CC1C2CCCCCC12	C[C@H]1[C@H]2CCCCC[C@@H]12	
InChI=1S/C9H16/c1-7-8-5-3-2-4-6-9(7)8/h7-9H,2-6H2,1H3	InChI=1S/C9H16/c1-7-8-5-3-2-4-6-9(7)8/h7-9H,2-6H2,1H3/t7-,8+,9-
