15
gdb 48354	2.45925	1.44145	0.97624	1.3405	74.49	-0.2584	-0.072	0.1864	1157.037	0.109377	-420.602936	-420.594013	-420.593069	-420.63727	31.893	
O	-0.2865211376	 0.4107357686	-0.9013434811	-0.278684
C	 0.2693428271	 0.8017367469	 0.0990354207	 0.067434
C	 1.3874665346	 1.7836863578	 0.0818973257	 0.088995
C	 2.3065078988	 1.7304790018	-1.1622166852	-0.260719
C	 1.3413321579	 2.8313766738	-1.0563191408	-0.260716
C	 2.04477369	 2.2387235278	 1.3425981138	 0.185803
O	 2.9596174463	 3.0406881094	 1.3412097242	-0.313851
C	 1.5536054357	 1.6879517236	 2.5950551419	 0.234455
C	 1.1705951374	 1.2510207935	 3.649449095	-0.386315
H	-0.0330668721	 0.4400173223	 1.1012632324	 0.098142
H	 3.3492269809	 1.9390223839	-0.95517371	 0.151861
H	 2.0837589691	 0.9132640389	-1.8379089806	 0.150537
H	 0.4410988556	 2.7868761383	-1.6576608914	 0.150542
H	 1.707777659	 3.8112994048	-0.775083803	 0.151857
H	 0.8394060172	 0.8708331086	 4.5857237583	 0.220659
38.7743	107.7224	137.9458	226.5066	240.5321	274.3654	290.7936	321.4716	451.0987	463.6056	647.1946	658.6317	707.5753	721.7592	731.9881	801.5683	804.8252	878.8249	989.4912	991.2859	1062.0336	1070.4725	1118.1508	1122.2494	1220.2002	1282.7844	1322.3313	1434.3893	1435.7528	1472.1432	1733.134	1801.4308	2211.0293	2945.2325	3147.8096	3149.7105	3246.0029	3259.7193	3490.5648
O=CC1(CC1)C(=O)C#C	O=CC1(CC1)C(=O)C#C	
InChI=1S/C7H6O2/c1-2-6(9)7(5-8)3-4-7/h1,5H,3-4H2	InChI=1S/C7H6O2/c1-2-6(9)7(5-8)3-4-7/h1,5H,3-4H2
