16
gdb 20092	3.46606	1.57045	1.41187	3.167	60.19	-0.2383	0.0456	0.2839	922.8131	0.129295	-420.814283	-420.806368	-420.805423	-420.846873	29.192	
O	-0.1387196909	 1.0964226382	-0.4941507888	-0.424341
C	-0.1400302824	-0.2439880139	-0.1169626952	 0.081435
C	-0.4167851013	-0.5639391742	 1.3309079413	 0.009985
O	-0.7851375211	 0.5397686401	 2.1243308049	-0.421966
C	-1.4317634822	-0.9500381483	 0.2805686183	-0.138993
C	-2.7761244345	-0.2862664333	 0.2397747703	 0.066793
C	-3.1704112034	 0.6585624439	-0.8186635012	-0.175899
O	-3.6273429973	-0.6927928085	-0.8357435178	-0.241196
H	-0.5026837308	 1.5866954778	 0.2564883638	 0.285214
H	 0.6052025939	-0.8106436633	-0.6652766506	 0.108432
H	 0.1322172663	-1.3435939501	 1.8546902028	 0.096123
H	 0.0165067603	 0.89705273	 2.5229695565	 0.299087
H	-1.4746562898	-2.0123244117	 0.0546209395	 0.109548
H	-3.2900802963	-0.2113476079	 1.1981001542	 0.102502
H	-3.9350994899	 1.4065830868	-0.6107131296	 0.108204
H	-2.4468276906	 0.9211885045	-1.5849394284	 0.135072
59.1926	138.365	179.5983	247.0765	272.0012	336.291	356.8762	503.3354	542.7936	636.0895	684.358	753.6498	788.6424	851.8755	868.9897	933.7581	996.9121	1053.5477	1063.7377	1078.7297	1120.0548	1133.9686	1150.7865	1158.3967	1181.01	1225.0477	1264.5383	1297.1445	1325.4138	1345.2986	1412.3122	1431.2847	1470.989	1529.0467	3089.3744	3107.1312	3120.3575	3144.716	3168.7205	3194.6667	3740.1834	3797.8227
OC1C(O)C1C1CO1	O[C@H]1[C@@H](O)[C@H]1[C@H]1CO1	
InChI=1S/C5H8O3/c6-4-3(5(4)7)2-1-8-2/h2-7H,1H2	InChI=1S/C5H8O3/c6-4-3(5(4)7)2-1-8-2/h2-7H,1H2/t2-,3-,4+,5-/m1/s1
