17
gdb 14322	4.20206	1.83853	1.56441	3.19	68.75	-0.2524	0.0315	0.2839	854.1879	0.144672	-363.878524	-363.871887	-363.870942	-363.909628	25.858	
N	-0.0193507146	 1.292760186	-0.0290097528	-0.535921
C	-0.0257798822	 0.0307662979	-0.0138746825	 0.400333
C	-1.261214923	-0.8478622257	-0.0911572538	-0.315858
C	-0.7024349585	-2.2294562413	-0.4079637758	-0.027672
C	-0.2767316517	-2.5214442174	-1.881515153	-0.238178
C	 1.1928785777	-2.7175055692	-1.4071664348	-0.230423
C	 0.8041112873	-2.1442821105	-0.0265572789	 0.101096
O	 1.0976354243	-0.746642571	 0.0907195081	-0.248771
H	 0.9359338337	 1.6460604605	 0.0494360763	 0.220226
H	-1.7701512436	-0.8276166491	 0.8789564294	 0.13097
H	-1.9605385461	-0.4615451658	-0.8352716004	 0.136073
H	-1.2524383417	-3.0471951937	 0.058163321	 0.079703
H	-0.7503832398	-3.3851964103	-2.3516279376	 0.106577
H	-0.4105505164	-1.6576632067	-2.5382009852	 0.114398
H	 1.4825766213	-3.7697119624	-1.3444915882	 0.107187
H	 1.9722086083	-2.165776607	-1.9361266102	 0.115865
H	 1.1781343949	-2.6485100642	 0.8677865085	 0.084395
91.5986	104.022	330.8258	362.0249	454.2054	522.5646	631.5154	662.9569	732.5156	757.7562	832.38	864.7286	874.8599	894.7768	930.3275	955.1772	963.1899	1008.2415	1062.7948	1071.5472	1109.1157	1122.0131	1195.0602	1206.3236	1226.0358	1255.1878	1266.6476	1277.5386	1303.7922	1305.9009	1337.3239	1382.9779	1466.8769	1470.6216	1494.8838	1773.8034	3052.4734	3064.3038	3066.48	3078.5329	3104.318	3114.491	3118.0602	3131.8599	3471.1279
N=C1CC2CCC2O1	[NH][C]1C[C@H]2CC[C@H]2O1	
InChI=1S/C6H9NO/c7-6-3-4-1-2-5(4)8-6/h4-5,7H,1-3H2	InChI=1S/C6H9NO/c7-6-3-4-1-2-5(4)8-6/h4-5,7H,1-3H2/t4-,5-/m1/s1
