16
gdb 24775	4.01196	1.42809	1.0675	6.3543	82.44	-0.2009	-0.0184	0.1824	1081.4002	0.1277	-396.95087	-396.943736	-396.942792	-396.983021	27.136	
N	-0.0639403194	 1.2840984615	-0.4369863333	-0.544055
C	-0.0195988337	 0.0619634822	-0.0543023059	 0.302613
C	-1.2764731332	-0.6648572969	 0.2036872142	-0.135745
C	-1.2896755286	-1.9512554417	 0.6086453554	-0.040798
N	-0.0600295925	-2.5471806772	 0.767325728	-0.073963
C	 0.6124076962	-3.7969481539	 1.1438387246	-0.17969
C	 1.9663186216	-3.0433590528	 0.8745057647	-0.368286
C	 1.0897159113	-1.8493212177	 0.5202465527	 0.437334
N	 1.2108224159	-0.639350505	 0.1366877716	-0.417349
H	 0.8929066153	 1.6197411583	-0.5650918956	 0.209342
H	-2.1985982956	-0.1194426768	 0.0537417154	 0.11933
H	-2.1784122669	-2.5348817565	 0.8130155301	 0.135049
H	 0.4404274741	-4.0988209867	 2.1811089218	 0.132421
H	 0.3995886149	-4.6351158448	 0.4738859475	 0.132414
H	 2.6022763498	-2.9057792778	 1.7504345702	 0.145689
H	 2.5609930108	-3.4400839442	 0.0501033285	 0.145693
61.0681	113.6349	216.2972	358.1329	411.0609	488.8375	503.6676	567.5898	636.2995	724.4357	764.6834	804.2414	830.5589	865.5398	886.147	898.8594	948.4796	960.9504	1051.1496	1055.7361	1133.584	1144.3279	1182.451	1188.2487	1201.277	1249.0171	1289.1666	1331.7469	1396.5549	1458.3695	1478.3776	1519.7007	1618.6299	1688.7772	1736.5221	3049.8457	3090.9844	3099.1437	3146.9239	3210.6698	3233.3827	3458.6002
N=C1C=CN2CCC2=N1	[NH]C1=CCN2CCC2=N1	
InChI=1S/C6H7N3/c7-5-1-3-9-4-2-6(9)8-5/h1,3,7H,2,4H2	InChI=1S/C6H8N3/c7-5-1-3-9-4-2-6(9)8-5/h1,7H,2-4H2
