16
gdb 43588	3.26777	1.3279	1.07608	3.5685	74.64	-0.2442	0.0233	0.2674	1103.391	0.125009	-400.742611	-400.734789	-400.733844	-400.775161	30.117	
O	 0.0599344403	-0.034310084	-0.2373255896	-0.380983
C	 0.0645317825	 1.1634546511	-0.0661915488	 0.416778
N	-1.0386296498	 1.938556433	 0.2159812243	-0.308636
C	-0.8336639486	 3.3813514717	 0.1487513375	-0.196944
C	-1.4311775716	 4.096734793	 1.2773506666	 0.341563
C	-1.9368826891	 4.6919385864	 2.1902531994	-0.447199
C	 0.6988046779	 3.4986791407	 0.0666730821	-0.040287
C	 1.4845243084	 2.8707888259	 1.174663946	-0.284053
C	 1.2438922491	 2.0999860095	-0.1094209484	-0.159985
H	-1.9511458451	 1.5250483445	 0.3201051055	 0.257783
H	-1.2657743125	 3.7850374642	-0.7793731173	 0.114725
H	-2.3788419927	 5.2166250673	 3.0013858405	 0.20414
H	 1.1005273945	 4.3489209663	-0.4683699669	 0.107278
H	 2.4904265464	 3.2408395038	 1.3368019522	 0.124522
H	 0.965024292	 2.5552830958	 2.0732378542	 0.136871
H	 2.0686871685	 1.846961851	-0.7614197472	 0.114429
69.7508	127.9515	190.6975	270.0117	346.4878	430.5851	467.6474	501.9108	539.6314	602.0752	638.4625	665.4169	737.0007	766.6781	806.1048	832.523	850.0504	940.7147	987.2141	1013.6544	1032.2773	1058.5979	1075.5034	1102.5195	1122.2969	1199.0919	1248.0447	1283.5233	1334.6617	1362.7407	1377.4096	1420.5702	1487.0992	1832.7095	2239.4184	2982.3084	3136.8787	3199.4476	3213.2228	3227.4106	3500.4729	3651.7695
O=C1NC(C#C)C2CC12	O=C1N[C@@H](C#C)[C@H]2C[C@@H]12	
InChI=1S/C7H7NO/c1-2-6-4-3-5(4)7(9)8-6/h1,4-6H,3H2,(H,8,9)	InChI=1S/C7H7NO/c1-2-6-4-3-5(4)7(9)8-6/h1,4-6H,3H2,(H,8,9)/t4-,5+,6-/m0/s1
