19
gdb 126800	3.02501	1.26034	0.96581	2.1298	79.39	-0.1967	0.0392	0.2359	1256.042	0.161283	-415.40293	-415.39349	-415.392546	-415.437409	34.609	
C	-0.1006596546	 1.537871215	 0.0230767608	-0.376141
C	 0.0131836254	 0.0128518299	-0.0447025401	-0.148574
N	 0.7505270789	-0.4496797874	-1.2036048124	-0.006538
N	 0.1224533487	-0.5625343416	-2.4080835882	-0.294127
C	 1.0633783648	-0.9965271718	-3.2383018733	-0.052813
C	 2.31294214	-1.1477670952	-2.5950323446	 0.029819
N	 3.5970754696	-1.566480956	-3.0526288958	-0.621922
C	 2.0645842945	-0.7740228443	-1.2820125692	 0.372937
N	 2.9245617439	-0.7987563992	-0.1829376914	-0.612522
H	 0.8843546863	 2.0091740271	 0.1055416048	 0.112231
H	-0.5854352075	 1.9176859929	-0.8798749141	 0.146078
H	-0.6952448072	 1.8372531666	 0.8917957338	 0.118023
H	 0.5155340829	-0.3866034779	 0.8419530022	 0.125377
H	-0.9810042107	-0.4380246914	-0.1004277097	 0.132275
H	 0.8173713855	-1.183249752	-4.2749563598	 0.097173
H	 3.5892719729	-2.5347561412	-3.3586649448	 0.238574
H	 3.9093018377	-1.0133252258	-3.8444565028	 0.236854
H	 3.8474500111	-1.0683778294	-0.5106324589	 0.257221
H	 2.9917782278	 0.0910753817	 0.2988110834	 0.246076
50.042	93.0877	162.6234	206.8226	237.1201	259.8359	300.7057	309.9605	316.1186	401.2997	519.6028	594.7995	663.6346	692.2694	746.1902	758.6242	801.7823	841.3482	857.8767	871.9449	963.7467	1009.8141	1078.1253	1101.3741	1199.9477	1215.4288	1224.3416	1242.6058	1292.8743	1349.366	1390.2	1404.3292	1408.4041	1455.9614	1480.7677	1488.4787	1505.5025	1564.4602	1613.5376	1649.6251	1674.763	3037.9961	3059.152	3098.2694	3114.3031	3130.7376	3226.3227	3490.1543	3500.0882	3553.6458	3585.0581
CCN1N=CC(N)=C1N	CCn1ncc(N)c1N	
InChI=1S/C5H10N4/c1-2-9-5(7)4(6)3-8-9/h3H,2,6-7H2,1H3	InChI=1S/C5H10N4/c1-2-9-5(7)4(6)3-8-9/h3H,2,6-7H2,1H3
