19
gdb 62484	2.13661	1.72	1.23203	1.4929	74.9	-0.2374	-0.0398	0.1976	1084.4983	0.156993	-423.08781	-423.078336	-423.077392	-423.123115	34.443	
C	-0.0160868083	 1.4828870848	 0.0972677581	-0.417517
C	-0.0693959317	-0.06185984	 0.0038806027	 0.035792
C	-1.520612784	-0.5504191441	-0.0737593493	-0.419427
C	 0.7564879904	-0.5032876485	-1.2118709121	 0.383488
O	 0.4444566946	-0.3135382329	-2.3593341398	-0.323014
C	 2.0324531447	-1.2249805108	-0.755637305	-0.334966
C	 2.1011490755	-1.0513585559	 0.7686282371	-0.336248
C	 0.6852746994	-0.6504667311	 1.2010185433	 0.375765
O	 0.2342278779	-0.7777207659	 2.3102043946	-0.318704
H	 1.0101271484	 1.8576605993	 0.1732496951	 0.119415
H	-0.4682316257	 1.9147792432	-0.7996773485	 0.143195
H	-0.5676479569	 1.8176648214	 0.9801010463	 0.139049
H	-2.0104236457	-0.1225188598	-0.9520068996	 0.135338
H	-1.5730499618	-1.6406150209	-0.1518050424	 0.119752
H	-2.0601948572	-0.2517347588	 0.8283816738	 0.136657
H	 1.9275811212	-2.2790989945	-1.0394302743	 0.144728
H	 2.8980954083	-0.8410533216	-1.3006181858	 0.139551
H	 2.4282288611	-1.934643372	 1.3204730834	 0.137301
H	 2.7767776098	-0.2331579922	 1.0476795925	 0.139845
18.8522	83.3738	182.3006	192.1442	218.9274	232.9355	282.5869	293.9514	404.2654	511.3484	535.4	563.5389	585.0005	655.9542	672.3197	795.4536	807.1319	912.6627	962.8935	967.3387	1003.4453	1048.3275	1056.6728	1078.9635	1109.1358	1188.9617	1225.7764	1230.2476	1268.9632	1293.7748	1299.787	1385.4905	1410.9175	1447.3096	1462.721	1480.4676	1483.3759	1498.5954	1506.4318	1821.391	1860.2273	3034.7924	3041.7004	3044.4206	3047.8767	3105.0104	3106.5257	3115.3223	3117.4874	3125.8518	3133.4064
CC1(C)C(=O)CCC1=O	CC1(C)C(=O)CCC1=O	
InChI=1S/C7H10O2/c1-7(2)5(8)3-4-6(7)9/h3-4H2,1-2H3	InChI=1S/C7H10O2/c1-7(2)5(8)3-4-6(7)9/h3-4H2,1-2H3
