16
gdb 83720	2.62538	1.79531	1.27365	3.1485	63.63	-0.2435	0.0007	0.2442	975.3065	0.126277	-475.034803	-475.027393	-475.026449	-475.066918	28.052	
N	-0.0242989385	 1.497479509	 0.1453911081	-0.520823
C	-0.0340159726	 0.0546596026	-0.0107739539	-0.130694
C	-1.4272908932	-0.5463205233	-0.0666993661	 0.092791
O	-2.3364280211	 0.2104518193	-0.9022850368	-0.295175
C	-2.4835573823	-0.8993234646	-1.8233870443	-0.09472
C	-1.3508434757	-1.666561335	-1.1286020819	 0.042678
O	-0.0985314303	-1.5258857161	-1.8020324257	-0.227953
C	 0.6213824258	-0.4760113166	-1.3009164041	 0.407315
O	 1.619474169	-0.0748425642	-1.8211997347	-0.333083
H	 0.8951215221	 1.8433728588	-0.1184693674	 0.246116
H	-0.6866893505	 1.8905000041	-0.5189741142	 0.2454
H	 0.5171244876	-0.4045219628	 0.8229679052	 0.116862
H	-1.8678829482	-0.7804747957	 0.905275859	 0.096508
H	-3.470936279	-1.3678556855	-1.7341351856	 0.114991
H	-2.2925889627	-0.6150925035	-2.8623020903	 0.13049
H	-1.4978292003	-2.7124608666	-0.8627446774	 0.109297
91.2588	136.0897	232.1046	254.3814	313.4314	396.6982	480.2507	507.3995	631.7399	643.5324	735.2215	812.8049	854.4387	898.363	899.1343	939.8779	965.5718	1004.3708	1031.3159	1077.0771	1107.4299	1142.4426	1156.4689	1171.8162	1211.7122	1250.563	1271.6403	1299.5824	1342.5352	1353.9018	1369.5573	1408.8219	1507.5503	1654.0992	1886.1489	3006.8798	3031.2701	3084.0293	3097.4008	3127.0467	3482.4677	3560.9192
NC1C2OCC2OC1=O	N[C@H]1[C@H]2OC[C@H]2OC1=O	
InChI=1S/C5H7NO3/c6-3-4-2(1-8-4)9-5(3)7/h2-4H,1,6H2	InChI=1S/C5H7NO3/c6-3-4-2(1-8-4)9-5(3)7/h2-4H,1,6H2/t2-,3+,4+/m1/s1
