21
gdb 63040	2.55476	1.98226	1.52903	1.566	80.53	-0.2355	0.0816	0.3171	968.6458	0.18366	-387.050454	-387.042849	-387.041905	-387.081813	31.821	
C	-0.0143443377	 1.512683827	 0.0475583315	-0.462241
C	 0.0415212864	-0.0196765005	-0.0038700432	 0.347212
C	-1.381665088	-0.5749046852	-0.1343218192	-0.445491
C	 1.0137070624	-0.6409495767	-1.051543284	-0.122841
C	 2.3705088311	 0.045728258	-0.7587947984	-0.269888
C	 2.2956243429	-0.7228413458	 0.5709583013	-0.072673
C	 1.5393553209	-1.8621159979	-0.1363191908	 0.106443
O	 0.6520749871	-2.0724070973	 0.963334885	-0.288801
C	 0.8317517041	-0.6404701263	 1.1825634237	 0.028129
H	 0.9240699685	 1.9689694825	 0.3708750896	 0.1164
H	-0.2740203286	 1.9341211505	-0.9296673018	 0.116247
H	-0.7871309598	 1.8299425413	 0.7562624624	 0.112923
H	-1.8615276484	-0.1707356188	-1.0329505409	 0.104478
H	-1.3833876719	-1.6633490617	-0.1965791615	 0.132507
H	-1.9959079223	-0.2847786281	 0.7259556078	 0.106001
H	 0.6430915039	-0.7800461129	-2.0667864219	 0.061027
H	 3.1764361407	-0.3669963313	-1.3743585388	 0.098995
H	 2.4309094486	 1.1342735976	-0.7795178701	 0.099569
H	 3.1273452948	-0.8817836882	 1.2553283281	 0.075477
H	 1.9624762814	-2.7568497467	-0.5910648824	 0.08382
H	 0.6158391941	-0.3225025795	 2.2030179535	 0.072708
181.3233	199.0456	225.4048	259.5441	346.7533	380.8144	459.3723	498.2455	547.9286	594.4854	724.7181	745.4032	782.5223	816.6807	852.861	860.6603	922.5078	947.7207	954.0376	957.7938	965.2445	998.8073	1008.807	1032.319	1046.4431	1071.9909	1102.3086	1151.0918	1181.231	1200.5871	1205.1892	1218.3274	1219.0112	1249.1341	1259.693	1296.9907	1318.4565	1339.6912	1397.4091	1419.882	1483.1681	1487.224	1501.4506	1506.8145	1525.339	3027.5444	3033.8417	3057.4434	3084.1247	3092.449	3108.1062	3115.716	3117.9458	3125.6601	3127.3002	3138.8555	3143.8713
CC1(C)C2CC3C2OC13	CC1(C)[C@H]2C[C@@H]3[C@H]2O[C@H]13	
InChI=1S/C8H12O/c1-8(2)5-3-4-6(5)9-7(4)8/h4-7H,3H2,1-2H3	InChI=1S/C8H12O/c1-8(2)5-3-4-6(5)9-7(4)8/h4-7H,3H2,1-2H3/t4-,5+,6-,7+/m1/s1
