19
gdb 114321	2.33391	1.33672	1.14431	1.1103	71.06	-0.23	0.061	0.291	1181.4598	0.157235	-460.108957	-460.099752	-460.098808	-460.142641	34.788	
C	 0.1830493638	 1.5188506529	 0.1616425489	-0.380468
C	-0.1990623371	 0.0562707637	-0.0898515915	-0.222185
C	 0.6462858994	-0.5871224011	-1.1732383816	 0.089609
O	 2.084714867	-0.6693992805	-0.8707916977	-0.326011
C	 2.1302874825	-2.0316177508	-1.3219798105	-0.034094
C	 1.3468822645	-2.8649050171	-0.3614339712	 0.041209
O	 1.3126825219	-2.5898334712	 1.0041215383	-0.431314
C	 0.6094885813	-2.0912277011	-1.4445472223	 0.229153
O	-0.1744656272	-2.6767236084	-2.4174690712	-0.452219
H	 1.2303563092	 1.5983944062	 0.4678262456	 0.132661
H	 0.0539102412	 2.1237128449	-0.7426331382	 0.116313
H	-0.4356506518	 1.9577664562	 0.9497117922	 0.114515
H	-0.1219271251	-0.5299619671	 0.8302195279	 0.11447
H	-1.246176317	-0.0075794299	-0.4154759514	 0.101799
H	 0.5369105352	-0.0419984688	-2.1212171706	 0.091365
H	 2.9580792581	-2.3346278968	-1.9525472163	 0.113014
H	 1.3688395408	-3.9326384856	-0.5692396392	 0.112411
H	 1.7953695004	-1.7592897305	 1.1145949758	 0.295438
H	-0.900355647	-3.1402266853	-1.985674137	 0.294334
86.4205	145.2466	173.8187	205.3664	242.3049	245.7226	292.6002	323.6691	396.5271	439.7879	475.2287	568.2391	628.4985	659.7832	764.4816	805.2248	832.6859	886.8727	923.4895	943.6074	983.4124	1019.3915	1035.0747	1086.5091	1113.5341	1137.2874	1166.3712	1208.7181	1223.088	1271.7036	1286.3058	1292.361	1337.206	1345.1973	1391.8407	1410.3715	1417.8843	1482.5319	1488.3877	1499.9513	1509.6909	3012.1789	3026.9558	3036.936	3087.634	3109.3068	3116.0358	3144.9594	3182.5147	3756.2057	3799.1157
CCC1OC2C(O)C12O	CC[C@H]1O[C@H]2[C@@H](O)[C@@]12O	
InChI=1S/C6H10O3/c1-2-3-6(8)4(7)5(6)9-3/h3-5,7-8H,2H2,1H3	InChI=1S/C6H10O3/c1-2-3-6(8)4(7)5(6)9-3/h3-5,7-8H,2H2,1H3/t3-,4-,5+,6+/m1/s1
