16
gdb 35888	2.22331	1.58197	1.11812	6.6011	72.39	-0.2692	0.0027	0.2719	1092.4811	0.126565	-396.95071	-396.942337	-396.941393	-396.984869	29.722	
N	-0.5911227227	-0.895877123	-0.9285346514	-0.312064
C	-0.3417551766	 0.1293761376	-0.4573669092	 0.277257
C	-0.0366103148	 1.4309194236	 0.1207403077	-0.146663
C	-0.3103517062	 1.5505950096	 1.6396651479	-0.239086
C	 0.6645789837	 2.6720233971	 2.1086123148	-0.181536
N	 1.5554810183	 2.9982372541	 0.9725538588	-0.275153
C	 1.4564353574	 1.8983898245	 0.0184663016	-0.184351
C	 2.3903551637	 0.8174477063	 0.3814132211	 0.32537
N	 3.1169031366	-0.029006494	 0.680313156	-0.313724
H	-0.6239398095	 2.1826646499	-0.4187699426	 0.132162
H	-1.3576598232	 1.7844574462	 1.8376649479	 0.129588
H	-0.0822480687	 0.6028673791	 2.1320568966	 0.149405
H	 0.1394560944	 3.5743089334	 2.4304167363	 0.119799
H	 1.2615852286	 2.3215278857	 2.9553461342	 0.139815
H	 1.2535228805	 3.8513926327	 0.5176147062	 0.236462
H	 1.7069055186	 2.2374199672	-0.9899855958	 0.142719
40.0573	90.7059	115.3823	175.7185	232.3659	311.6396	435.9533	485.2406	536.0137	579.6363	672.3963	706.1579	742.9864	810.122	868.3757	898.9574	940.3994	986.1997	1049.983	1056.0615	1067.6291	1113.9198	1200.9066	1226.7196	1271.6155	1291.407	1294.7096	1347.2358	1355.3131	1377.1286	1466.8366	1494.7935	1517.7491	2361.495	2364.5069	3048.0758	3061.0012	3082.9901	3090.9147	3102.2582	3134.2805	3549.632
N#CC1CCNC1C#N	N#C[C@H]1CCN[C@H]1C#N	
InChI=1S/C6H7N3/c7-3-5-1-2-9-6(5)4-8/h5-6,9H,1-2H2	InChI=1S/C6H7N3/c7-3-5-1-2-9-6(5)4-8/h5-6,9H,1-2H2/t5-,6+/m1/s1
