19
gdb 113275	4.49921	0.81009	0.77987	1.8864	72.91	-0.2487	-0.0349	0.2138	1485.7161	0.1562	-460.148709	-460.138873	-460.137929	-460.183876	35.604	
O	-0.0797502594	 1.2731393665	-0.7084291926	-0.422955
C	 0.0036518422	 0.0967406008	 0.0897882942	-0.099894
C	-1.3527807249	-0.5571026999	 0.0896523887	-0.058156
C	-1.7748945935	-1.4232557054	-1.0828644659	-0.334627
C	-1.4855508544	-2.0434554204	 0.2644234514	 0.413233
O	-0.2896458683	-2.7527513127	 0.4263457007	-0.481535
C	-2.6294173339	-2.5988682901	 1.0902801174	-0.363844
C	-2.9340050585	-4.0496868298	 0.7949243755	 0.163875
O	-2.2431798053	-4.7730546269	 0.1160660396	-0.25179
H	 0.782471123	 1.6991597824	-0.6941059534	 0.284155
H	 0.7491603772	-0.6081970619	-0.2996792661	 0.104631
H	 0.2945651537	 0.3436994503	 1.1235259913	 0.084846
H	-2.1327896615	 0.0497178137	 0.5427557336	 0.085558
H	-2.7987274974	-1.3626524259	-1.4366324722	 0.104776
H	-1.0344629026	-1.5902971063	-1.8572007246	 0.12213
H	-0.4707541079	-3.6424730566	 0.0910761371	 0.293286
H	-2.3979247431	-2.5419466731	 2.1659811154	 0.138615
H	-3.5512972895	-2.0191015014	 0.9545220834	 0.124796
H	-3.8593310958	-4.4435539834	 1.2706399465	 0.092899
56.5644	85.1902	137.7981	144.8672	192.4727	245.1217	263.0905	298.1349	362.2755	403.2045	464.6128	528.9277	565.4899	680.4792	707.0431	807.015	851.0135	891.6787	914.1089	940.338	958.5077	1016.5569	1043.4426	1058.4802	1084.2665	1104.4312	1163.7665	1206.282	1232.9837	1257.3091	1278.4829	1311.1385	1338.0472	1368.3678	1413.3171	1425.8031	1443.0465	1466.7901	1505.8411	1524.7736	1811.6119	2890.0254	2972.0183	3000.138	3037.1536	3055.9117	3132.1891	3139.0897	3223.1379	3735.752	3825.5709
OCC1CC1(O)CC=O	OC[C@H]1C[C@]1(O)CC=O	
InChI=1S/C6H10O3/c7-2-1-6(9)3-5(6)4-8/h2,5,8-9H,1,3-4H2	InChI=1S/C6H10O3/c7-2-1-6(9)3-5(6)4-8/h2,5,8-9H,1,3-4H2/t5-,6-/m1/s1
