17
gdb 69897	3.01684	1.50892	1.15448	4.136	75.07	-0.2136	-0.0349	0.1787	1061.4356	0.134811	-417.912243	-417.904252	-417.903308	-417.944463	30.854	
C	-0.0732049487	 1.5763881488	 0.226007227	-0.51521
C	 0.035397282	 0.0915455138	 0.0830879489	 0.259794
N	-0.8065948767	-0.8735225789	 0.8198159101	-0.342634
C	 0.674214439	-0.936855433	 0.9384533064	-0.124686
C	 1.2384507443	-1.6663972369	-0.3117392486	-0.080375
N	 0.1668575954	-2.0644286312	-1.192915425	-0.334384
C	 0.5645597084	-0.6320527687	-1.2047453698	 0.202692
C	 1.1983362427	-0.0688666021	-2.3929083713	 0.054373
O	 1.6375375791	-0.7484706915	-3.3003025894	-0.298582
H	 0.8313027248	 2.080154032	-0.1328481279	 0.130997
H	-0.9232898837	 1.9695292237	-0.3435328551	 0.13899
H	-0.2120084774	 1.8516352598	 1.2767167026	 0.124266
H	-1.1353775996	-0.3882756462	 1.6561614854	 0.229094
H	 1.1814803629	-0.8385187451	 1.8891250115	 0.10312
H	 2.2529702391	-2.0294525738	-0.4206760327	 0.122889
H	 0.5970937741	-2.4498362072	-2.0383491414	 0.254624
H	 1.2721201143	 1.0386882164	-2.4188023707	 0.075033
133.8976	173.9166	183.9356	226.9666	286.5006	305.7905	409.9411	438.3505	501.3498	566.3983	667.2931	728.7973	778.2364	800.0979	843.945	881.8153	886.1587	926.842	954.4536	995.2183	1018.1392	1034.2768	1077.7765	1098.7837	1113.3253	1172.7101	1234.2626	1280.5456	1289.5836	1349.7467	1374.318	1410.7604	1435.0055	1441.4516	1481.4079	1498.6483	1761.3419	2906.7102	3024.4126	3086.4515	3098.8212	3195.7084	3206.0218	3437.4588	3457.6588
CC12NC1C1NC21C=O	C[C@]12N[C@H]1[C@H]1N[C@@]21C=O	
InChI=1S/C6H8N2O/c1-5-3(7-5)4-6(5,2-9)8-4/h2-4,7-8H,1H3	InChI=1S/C6H8N2O/c1-5-3(7-5)4-6(5,2-9)8-4/h2-4,7-8H,1H3/t3-,4+,5-,6+/m0/s1
