16
gdb 16467	3.16641	2.8929	1.84871	1.2016	63.67	-0.2359	0.0747	0.3106	738.7763	0.130905	-383.67686	-383.670626	-383.669682	-383.70678	25.334	
C	 0.0255359249	 1.5083550238	-0.0848511126	-0.496651
C	 0.0338085715	 0.0116603879	-0.0096827306	 0.459996
O	 0.4186894082	-0.6050249679	-1.2167278462	-0.313571
C	 0.354442113	-2.0150865372	-0.9122106015	-0.116866
C	-0.0927737679	-1.9875414763	 0.5372707033	-0.088939
C	 0.6142696875	-0.776475287	 1.2161947501	-0.009583
O	-0.5781267072	-0.4661896937	 2.0087965961	-0.316885
C	-1.1050405116	-0.8125498204	 0.6864032748	-0.009571
H	 1.0210472654	 1.887031286	-0.3348918711	 0.128624
H	-0.6710162818	 1.8515472948	-0.8555630633	 0.128619
H	-0.280504702	 1.9142177706	 0.8819753756	 0.141739
H	-0.3611987628	-2.5074160238	-1.5814444797	 0.110416
H	 1.3408223317	-2.4717012468	-1.0569909426	 0.110417
H	-0.2447834967	-2.9102807651	 1.0934141036	 0.089004
H	 1.5878704401	-0.7200247966	 1.7039363021	 0.091625
H	-2.1856445422	-0.7991959982	 0.541165902	 0.091625
236.6344	249.0485	279.9384	324.6494	437.6877	502.6069	670.1308	684.0353	727.7309	760.0911	795.5633	877.4572	881.9087	919.4525	942.6251	951.6225	979.8973	1025.5384	1067.4871	1096.1904	1132.1755	1155.6145	1167.9047	1168.5027	1218.584	1221.8843	1266.8392	1313.0087	1340.7825	1377.7139	1416.4832	1485.7243	1493.6816	1522.719	3025.3321	3046.6329	3063.6107	3112.7678	3113.2897	3118.093	3136.8665	3152.2385
CC12OCC3C1OC23	C[C@@]12OC[C@H]3[C@@H]1O[C@@H]23	
InChI=1S/C6H8O2/c1-6-4-3(2-7-6)5(6)8-4/h3-5H,2H2,1H3	InChI=1S/C6H8O2/c1-6-4-3(2-7-6)5(6)8-4/h3-5H,2H2,1H3/t3-,4-,5+,6+
