19
gdb 56851	2.87979	1.19086	1.00887	4.9068	79.13	-0.2516	0.0245	0.2762	1229.7911	0.160709	-382.040845	-382.032186	-382.031242	-382.074599	32.591	
N	 0.1690936932	 1.2884471918	 0.2622202865	-0.50668
C	-0.1282094476	-0.1326021717	 0.0318653831	-0.164195
C	-1.5888755496	-0.3172465226	 0.003913534	 0.303837
N	-2.7318665316	-0.4748984731	-0.0555349964	-0.322522
C	 0.4891065205	-0.725581591	-1.234344671	-0.002005
C	 1.9303104974	-1.1488310632	-1.3478843576	-0.098232
C	 2.4298743196	-1.8437540079	-0.0727982883	-0.23673
C	 1.2739178685	-2.8879289499	-0.2027023848	-0.233669
C	 0.7915630362	-2.1771159295	-1.4750968992	-0.062209
H	 1.1792703068	 1.4028617986	 0.268082307	 0.238446
H	-0.1750235678	 1.8378272904	-0.5213363597	 0.237506
H	 0.2379257131	-0.6785358831	 0.9079563082	 0.132599
H	 0.1293386302	-0.2251326752	-2.1317745217	 0.097442
H	 2.5694074299	-0.7425519455	-2.1230855469	 0.091039
H	 3.4108196434	-2.3027038341	-0.2090783986	 0.112007
H	 2.4653962998	-1.2391138906	 0.840054568	 0.097806
H	 1.6546814392	-3.8900474187	-0.4077202762	 0.111816
H	 0.5579134572	-2.9594271358	 0.6220085356	 0.108696
H	 0.4228718916	-2.6782964287	-2.3618323519	 0.095047
49.432	124.1257	166.2443	210.9608	230.5095	286.9099	305.7564	450.0035	493.3401	532.0753	599.1182	744.0223	775.2612	787.3233	803.1303	875.4231	886.7048	938.5661	951.2497	959.4236	1011.8722	1020.4758	1026.1561	1077.4933	1117.5065	1123.2058	1139.0472	1181.2622	1214.7872	1222.6252	1245.3738	1264.2736	1301.3002	1304.5306	1354.2221	1398.8209	1441.0204	1486.3642	1507.7239	1656.492	2361.4489	3043.1145	3054.4029	3062.127	3101.6875	3119.3307	3127.4983	3175.4005	3188.3374	3481.6354	3563.8702
NC(C#N)C1C2CCC12	N[C@@H](C#N)[C@H]1[C@H]2CC[C@@H]12	
InChI=1S/C7H10N2/c8-3-6(9)7-4-1-2-5(4)7/h4-7H,1-2,9H2	InChI=1S/C7H10N2/c8-3-6(9)7-4-1-2-5(4)7/h4-7H,1-2,9H2/t4-,5+,6-,7-/m0/s1
