21
gdb 108573	2.3678	1.45936	1.16076	2.5615	78.3	-0.2298	0.0704	0.3002	1163.4966	0.182391	-424.209594	-424.200315	-424.199371	-424.24363	34.571	
C	-0.3996551098	 1.4657049466	-0.1188128111	-0.417764
C	-0.086332439	-0.0049064503	 0.035713535	-0.108043
C	 1.2869104278	-0.5662036244	-0.2548301194	 0.048894
O	 2.3321943311	 0.3624130978	-0.3657338282	-0.264094
C	 2.8565802155	 0.5969658235	 0.9484104505	-0.061684
C	 1.6819605476	 0.3940164357	 1.9258693093	-0.318141
C	 0.772665518	-0.5742004979	 1.1612235113	 0.321442
C	 0.3398584551	-1.8391116145	 1.8501586734	-0.187864
O	 1.502018669	-2.5261812199	 2.3024309574	-0.422209
H	 0.5068488702	 2.0727530907	-0.0696651848	 0.131357
H	-0.8619649598	 1.6518342815	-1.0938369716	 0.118296
H	-1.0958572656	 1.8160059189	 0.6512330546	 0.111658
H	-0.9020683161	-0.6654958945	-0.2541674917	 0.076002
H	 1.4172669064	-1.4703895167	-0.8430357853	 0.091481
H	 3.6592818612	-0.1236356789	 1.1616611576	 0.103424
H	 3.2789600347	 1.6059038799	 0.9606404757	 0.10254
H	 2.0172444792	-0.0595324572	 2.8609015874	 0.115649
H	 1.1825972469	 1.3390825473	 2.1611037654	 0.100287
H	-0.3252656665	-1.598448914	 2.6958381815	 0.086899
H	-0.2395213339	-2.4603309314	 1.1486450779	 0.084176
H	 1.2211134081	-3.2551216123	 2.8633389152	 0.287692
88.9889	116.3626	135.0845	164.5964	215.3894	249.9818	274.8339	305.6349	364.2768	519.6813	579.2681	597.5197	645.2153	760.3456	803.3316	865.5332	879.8954	938.1421	967.6711	980.4281	1015.0209	1041.5056	1050.2973	1066.9181	1090.9787	1118.2511	1141.2068	1149.0049	1207.2158	1232.1496	1237.9469	1247.7354	1278.2624	1304.2781	1326.3193	1342.9957	1388.7186	1413.0305	1440.7925	1464.1706	1482.0261	1495.5863	1502.7406	1514.4646	1517.4284	2959.6931	2988.7458	3000.0577	3034.347	3051.3871	3086.1562	3090.9365	3111.7899	3114.5754	3128.6096	3144.2426	3828.6411
CC1C2OCCC12CO	C[C@H]1[C@H]2OCC[C@@]12CO	
InChI=1S/C7H12O2/c1-5-6-7(5,4-8)2-3-9-6/h5-6,8H,2-4H2,1H3	InChI=1S/C7H12O2/c1-5-6-7(5,4-8)2-3-9-6/h5-6,8H,2-4H2,1H3/t5-,6+,7+/m0/s1
