17
gdb 52592	1.90039	1.28242	0.85353	5.0958	81.45	-0.2577	0.0044	0.2621	1379.4029	0.134025	-380.816346	-380.806549	-380.805605	-380.854416	33.465	
C	 0.7071839067	 0.9848688338	 0.2753340505	-0.50046
C	 0.3046342056	-0.4127492711	 0.2234843141	 0.047689
C	-0.0477680576	-1.5636168081	 0.1880186804	 0.106548
C	-0.44391718	-2.979027566	 0.1436216314	-0.283191
C	-1.8152870222	-3.1028876144	-0.3941374296	 0.318948
N	-2.8901135259	-3.1953336137	-0.805205436	-0.322212
N	 0.4255419304	-3.9018073066	-0.6075276612	-0.073952
C	 1.0787738914	-3.409522963	-1.8178037059	-0.216241
C	 1.8661827063	-3.6589674089	-0.5780966911	-0.227049
H	 1.7976027199	 1.0830910986	 0.2539437702	 0.156576
H	 0.302324458	 1.5441090434	-0.5744707736	 0.161215
H	 0.3471168435	 1.4612154889	 1.1932842292	 0.160841
H	-0.47248616	-3.3647462861	 1.1722568171	 0.159226
H	 1.0994725881	-4.1142766014	-2.6427656789	 0.128696
H	 0.925138155	-2.3695940563	-2.0944409446	 0.130351
H	 2.227620609	-2.7815846699	-0.0475760354	 0.126739
H	 2.4754529018	-4.5515167991	-0.4744474165	 0.126276
4.2878	76.9928	79.6377	109.681	163.8387	262.1234	272.3246	364.5556	373.0428	391.1756	500.5767	528.7165	574.6852	781.249	799.1527	840.6796	911.1341	949.0112	1029.5797	1045.0335	1052.0132	1053.5907	1115.9006	1128.9221	1157.243	1174.8687	1185.0392	1293.8482	1310.9527	1325.4983	1413.8178	1474.3866	1476.1113	1481.807	1508.1175	2364.2803	2369.9866	3016.3034	3034.5008	3098.6573	3100.0674	3112.475	3115.9416	3197.3476	3210.9178
CC#CC(C#N)N1CC1	CC#C[C@@H](C#N)N1CC1	
InChI=1S/C7H8N2/c1-2-3-7(6-8)9-4-5-9/h7H,4-5H2,1H3	InChI=1S/C7H8N2/c1-2-3-7(6-8)9-4-5-9/h7H,4-5H2,1H3/t7-/m0/s1
