19
gdb 108166	2.61137	1.51609	1.24089	2.5655	74.8	-0.2404	-0.0009	0.2395	1081.5114	0.160058	-419.188711	-419.180212	-419.179268	-419.221704	32.31	
C	-0.0272756247	 1.4847113065	-0.1723608247	-0.430151
C	 0.0162154188	 0.0015776016	 0.1062290525	-0.044002
N	 1.2683281735	-0.8209880222	-0.0182143896	-0.191391
C	 2.4614183371	-0.0476727666	 0.0989192432	 0.026246
N	 2.7426764632	 0.509617803	 1.2065203963	-0.19395
C	 1.6314757642	 0.2114373718	 2.1286227468	-0.247562
C	 0.6218956937	-0.6079701171	 1.316613212	 0.264333
C	 0.0316689177	-1.8484328184	 1.9492302958	-0.150693
O	 1.0399667335	-2.7581183342	 2.3496283412	-0.414504
H	 0.8405901668	 2.0163178811	 0.2219093052	 0.146202
H	-0.0833962577	 1.6720857643	-1.249665013	 0.130306
H	-0.926394532	 1.9118026837	 0.2847160403	 0.129061
H	-0.8275617212	-0.5397181658	-0.3189945804	 0.098074
H	 3.1121024974	 0.0073175455	-0.7695800157	 0.125323
H	 2.0048038467	-0.3811155506	 2.9707344168	 0.136659
H	 1.2283524328	 1.1466328804	 2.5334278239	 0.115144
H	-0.519175018	-1.5832554638	 2.8587704335	 0.114254
H	-0.6807658536	-2.3143776957	 1.2520019115	 0.093493
H	 1.5464238419	-2.9697644134	 1.5563597745	 0.293158
81.8075	149.3175	183.5754	224.3954	237.966	299.8681	335.4214	424.8604	452.583	535.5399	571.2857	637.1112	692.4923	799.1584	835.6	897.114	935.9678	954.699	962.7615	1008.0701	1011.6556	1041.1396	1060.4156	1093.5815	1133.6768	1160.7445	1198.2232	1215.1875	1265.7974	1314.9671	1330.2265	1339.7174	1391.6101	1412.9689	1423.018	1444.7934	1479.2722	1495.3367	1497.4983	1503.4441	1678.0837	2991.7483	3040.124	3041.4029	3067.9437	3078.9321	3098.8907	3113.7288	3139.5943	3181.9911	3791.8597
CC1N2C=NCC12CO	C[C@H]1N2C=NC[C@@]12CO	
InChI=1S/C6H10N2O/c1-5-6(3-9)2-7-4-8(5)6/h4-5,9H,2-3H2,1H3	InChI=1S/C6H10N2O/c1-5-6(3-9)2-7-4-8(5)6/h4-5,9H,2-3H2,1H3/t5-,6-,8?/m1/s1
