23
gdb 81480	2.95794	1.47361	1.38649	0.0511	88.23	-0.273	0.0922	0.3651	1090.5056	0.209164	-351.133764	-351.126269	-351.125325	-351.165146	31.89	
C	-0.0720833953	 1.6239975356	 0.1104279301	-0.435861
C	 0.0070454706	 0.1003428217	 0.0888392136	 0.048643
C	 1.0233194463	-0.5527186197	-0.9028823289	-0.041023
C	 2.1120901448	-0.2884974799	 0.1870746863	-0.234651
C	 0.9209588902	-0.5871817984	 1.1541517292	-0.041028
C	 0.73109295	-2.0916362629	 0.8763710847	 0.006029
C	-0.7001258982	-2.6977050519	 0.7879825984	-0.24687
C	-0.6225847508	-2.6716071332	-0.7701489487	-0.24687
C	 0.8093275562	-2.0652978293	-0.6957453798	 0.006028
H	 0.904015	 2.112717805	 0.1673525951	 0.11624
H	-0.5715975382	 1.9935905604	-0.7922700019	 0.112494
H	-0.6596087618	 1.9640319385	 0.9707570358	 0.112493
H	-1.0160448035	-0.2815962045	 0.0315275367	 0.061519
H	 1.1282815884	-0.1884543527	-1.9269367782	 0.050504
H	 2.9684407068	-0.9695677904	 0.2182784323	 0.085022
H	 2.4651497956	 0.7416284057	 0.221898512	 0.095891
H	 0.9231607816	-0.2575180448	 2.1951655272	 0.050505
H	 1.4609599797	-2.7022187919	 1.4130261839	 0.06023
H	-0.7708038303	-3.7049907362	 1.2058102296	 0.093845
H	-1.4952462284	-2.0940533693	 1.2351141193	 0.096392
H	-0.6497625045	-3.6642531157	-1.2263451207	 0.093845
H	-1.3704025538	-2.0520367785	-1.2735763394	 0.096392
H	 1.5898724446	-2.6588174876	-1.1774087368	 0.06023
180.2425	198.9584	218.784	270.0593	357.9293	370.329	481.5073	529.3079	605.073	737.591	743.0128	775.8631	830.5103	831.2392	847.133	856.21	889.7914	913.4107	951.586	981.3187	1011.1978	1012.3826	1018.0368	1052.5409	1070.019	1075.3625	1084.4353	1092.2004	1124.2783	1144.5193	1179.4357	1210.8239	1229.4036	1245.7787	1248.0793	1254.138	1254.8072	1269.7781	1282.2179	1305.6402	1326.234	1334.5179	1404.3869	1415.8388	1475.0968	1492.3758	1494.7336	1498.2652	1518.7111	3030.4806	3050.0651	3053.4699	3055.5943	3058.8067	3066.4009	3077.0369	3085.4916	3089.8814	3092.8377	3095.2582	3111.1013	3113.3362	3137.7487
CC1C2CC1C1CCC21	C[C@H]1[C@H]2C[C@@H]1[C@H]1CC[C@@H]21	
InChI=1S/C9H14/c1-5-8-4-9(5)7-3-2-6(7)8/h5-9H,2-4H2,1H3	InChI=1S/C9H14/c1-5-8-4-9(5)7-3-2-6(7)8/h5-9H,2-4H2,1H3/t5-,6+,7-,8+,9-
