20
gdb 71355	2.89731	1.90699	1.51698	1.5475	81.9	-0.224	0.0916	0.3156	948.7848	0.173102	-365.939528	-365.932451	-365.931507	-365.970729	29.571	
C	 0.0142192958	 1.5368069786	-0.0698176689	-0.523681
C	 0.0140512169	 0.0242370851	-0.0335278792	 0.310695
C	 0.570704358	-0.8452384089	-1.1895551981	-0.292024
C	 0.1107589068	-1.8689053043	-0.1445254406	-0.050757
C	 0.6821376735	-0.9491509518	 1.0026278148	-0.072378
C	-0.2565013949	-1.1577012966	 2.1808636138	-0.0519
C	-1.3418702864	-0.1740377926	 2.4460104829	-0.255779
N	-1.5753116711	-1.2929105682	 1.5158107616	-0.115394
C	-1.1688503758	-1.0246694832	 0.1227349547	-0.021383
H	 0.9937871504	 1.8986976369	-0.4036793223	 0.119359
H	-0.7310207236	 1.9060060666	-0.7835906521	 0.122678
H	-0.1890273898	 2.0038230228	 0.8964606397	 0.124172
H	 0.0187707735	-0.8172817822	-2.1343550687	 0.088501
H	 1.6477590267	-0.7705846603	-1.3673607625	 0.088704
H	 0.1621677925	-2.957129274	-0.1863459896	 0.074203
H	 1.7584830546	-0.9005590284	 1.1748809129	 0.063741
H	-0.0007846705	-1.9003750914	 2.9324228445	 0.09116
H	-1.8996014823	-0.255270274	 3.3755481912	 0.113611
H	-1.2746247412	 0.8325764291	 2.0555591221	 0.115816
H	-1.9957940334	-1.0237697232	-0.589187286	 0.070655
95.6994	213.6266	288.8383	348.7297	397.1119	415.683	515.6171	629.0183	683.5066	698.7095	757.1906	806.3596	816.261	835.276	892.303	907.8327	925.6882	960.794	997.8186	1005.4212	1008.8061	1030.2005	1062.6956	1080.5022	1087.5538	1112.3469	1124.0045	1140.6606	1168.3245	1177.9526	1208.5754	1220.2982	1233.1624	1244.547	1271.5072	1288.4125	1345.3353	1375.5099	1410.0405	1483.9321	1489.8465	1511.6319	1520.0451	3028.8548	3040.6642	3085.3391	3097.1406	3104.4927	3105.8555	3114.5127	3117.0635	3126.5723	3140.7339	3234.4791
CC12CC3C1C1CN1C23	C[C@@]12C[C@H]3[C@@H]1[C@H]1CN1[C@@H]23	
InChI=1S/C8H11N/c1-8-2-4-6(8)5-3-9(5)7(4)8/h4-7H,2-3H2,1H3	InChI=1S/C8H11N/c1-8-2-4-6(8)5-3-9(5)7(4)8/h4-7H,2-3H2,1H3/t4-,5+,6+,7+,8+,9?/m0/s1
