17
gdb 30133	3.69333	1.19092	1.11711	1.3827	74.5	-0.2106	0.0045	0.215	1136.0014	0.136906	-418.006884	-417.999	-417.998056	-418.040518	29.299	
C	-0.1026055657	 1.4769227562	-0.3203414483	-0.412335
C	 0.0065848271	-0.0103283885	-0.0914790298	 0.007371
C	 1.2896509846	-0.7304627468	-0.3110951699	-0.247647
N	 0.7840529452	-0.5513907921	 1.0476349949	-0.190103
C	 1.4610355052	 0.3133386366	 1.9104762487	 0.294885
C	 1.0100794408	 0.8384063278	 3.0816792048	-0.122011
O	 2.022910731	 1.5903044552	 3.6219689184	-0.137517
C	 3.0361789509	 1.4658314736	 2.7453951832	 0.078467
N	 2.7752498125	 0.7315851591	 1.7126399848	-0.302551
H	 0.8659958218	 1.9719961208	-0.21442533	 0.136598
H	-0.4791419922	 1.6728846943	-1.3295849642	 0.123709
H	-0.7979110622	 1.9357079076	 0.3915513393	 0.124158
H	-0.9169306574	-0.5638781023	-0.2509038878	 0.094512
H	 1.294578959	-1.7574875107	-0.6659640074	 0.116288
H	 2.1541911683	-0.1383890745	-0.5972432136	 0.14042
H	 0.0919420666	 0.7817582659	 3.6374840563	 0.145434
H	 3.9546272645	 1.9786282478	 2.9847300505	 0.150319
24.2445	115.4154	187.3866	228.2551	300.924	372.2459	453.0026	526.8821	580.5751	645.8518	697.7236	761.8856	800.3184	836.4357	857.6286	912.0828	934.8767	972.97	1021.7682	1050.2508	1090.5992	1125.812	1132.8175	1150.6544	1157.2863	1196.34	1235.2243	1252.2843	1337.0717	1363.6674	1400.8251	1424.3841	1488.7808	1495.7542	1510.6594	1553.1912	1626.3392	3035.3345	3096.2982	3111.3359	3114.62	3132.1799	3202.1015	3272.9541	3307.6553
CC1CN1C1=COC=N1	C[C@H]1CN1c1cocn1	
InChI=1S/C6H8N2O/c1-5-2-8(5)6-3-9-4-7-6/h3-5H,2H2,1H3	InChI=1S/C6H8N2O/c1-5-2-8(5)6-3-9-4-7-6/h3-5H,2H2,1H3/t5-,8?/m0/s1
