17
gdb 68714	2.52901	1.60059	1.33968	2.9737	77.78	-0.2542	0.0122	0.2665	1017.5591	0.136367	-380.82931	-380.821457	-380.820513	-380.861477	30.353	
C	-0.0276021052	 1.5342289949	 0.0124627714	-0.489334
C	-0.0118901569	 0.0381418593	 0.0435326722	 0.300811
C	 1.1472779978	-0.818172662	-0.3336783233	-0.362997
C	 0.5834102016	-0.9642390972	 1.0774102135	 0.142686
C	 1.3596544874	-0.7437498225	 2.2518049888	 0.194808
N	 1.9813332247	-0.5465964626	 3.2090671666	-0.35562
C	-0.7356245822	-1.6890626486	 0.9947310721	-0.10703
C	-1.8730862535	-0.7808250516	 1.2550902749	-0.242743
N	-1.2560572465	-0.7511253229	-0.0866037713	-0.146603
H	 0.9502761571	 1.9384245936	 0.2873210017	 0.141481
H	-0.2715526273	 1.884857707	-0.9963106198	 0.143661
H	-0.7717540541	 1.9427054798	 0.702717469	 0.13317
H	 1.0134398417	-1.6393212483	-1.0318537408	 0.131659
H	 2.1064069294	-0.3137003044	-0.3910622676	 0.138675
H	-0.8467829393	-2.7647442812	 0.9056249608	 0.114376
H	-2.8683041311	-1.2140093661	 1.2513761547	 0.132501
H	-1.7423282836	 0.0690619128	 1.9195749472	 0.130498
116.2319	140.8497	190.782	252.9233	293.8943	381.3726	430.2535	525.0157	538.4755	565.087	597.8069	691.7898	765.4689	770.3793	807.3337	855.1423	963.6627	979.1083	989.1311	1027.5662	1059.5812	1077.1852	1108.6	1119.7239	1132.5332	1150.5313	1217.4077	1249.4956	1288.6847	1350.4437	1382.9952	1426.3888	1478.8094	1488.2296	1494.7493	1500.9073	2339.4029	3039.1946	3104.4384	3119.1492	3121.4373	3124.2734	3171.1416	3212.6725	3217.7756
CC12CC1(C#N)C1CN21	C[C@@]12C[C@]1(C#N)[C@H]1CN21	
InChI=1S/C7H8N2/c1-6-3-7(6,4-8)5-2-9(5)6/h5H,2-3H2,1H3	InChI=1S/C7H8N2/c1-6-3-7(6,4-8)5-2-9(5)6/h5H,2-3H2,1H3/t5-,6-,7+,9?/m1/s1
