19
gdb 64241	2.92185	1.01193	0.92191	2.7765	73.3	-0.2593	-0.0008	0.2586	1339.2617	0.156042	-460.174136	-460.164409	-460.163465	-460.2096	34.497	
C	-0.1488407653	 1.5131981912	 0.1853244835	-0.420247
C	 0.0348239254	 0.0070417494	 0.0639152441	 0.380718
C	-1.2445374554	-0.71315151	-0.331400044	-0.433805
O	 1.1155797564	-0.3149489955	-0.8671318297	-0.320164
C	 1.9845527703	-0.7530715453	 0.1920176058	-0.103634
C	 0.8491879475	-0.6530974303	 1.2168675698	 0.022999
O	 1.1324715583	 0.1605992497	 2.3440292437	-0.182096
C	 0.7358535541	-0.2603013703	 3.5639509971	 0.167136
O	 0.9125534189	 0.379166625	 4.5546799707	-0.268811
H	 0.7821344604	 2.0044045302	 0.4751370946	 0.133999
H	-0.4708512555	 1.9160032599	-0.7796440993	 0.126272
H	-0.909226347	 1.7571384225	 0.9338237126	 0.121889
H	-1.6090515836	-0.3360487004	-1.2918417081	 0.133074
H	-1.0701788364	-1.7881451626	-0.4336586282	 0.118925
H	-2.0276051671	-0.5530197452	 0.4176594239	 0.119905
H	 2.4002770866	-1.7494714133	 0.0068513306	 0.110629
H	 2.8010289169	-0.0475512001	 0.3907757936	 0.118125
H	 0.4404524319	-1.6155758237	 1.5415427944	 0.093043
H	 0.2423701635	-1.2514878914	 3.5339103048	 0.082042
49.5404	55.4853	147.1615	180.0184	197.1353	219.3047	281.056	305.6019	343.1624	404.026	420.1874	487.2969	628.8968	678.8472	847.1079	858.5903	919.0763	942.9579	987.1387	999.1447	1020.4759	1043.8158	1086.1833	1115.7451	1165.9335	1174.6607	1181.1165	1222.2615	1270.7282	1285.204	1339.1419	1392.8242	1402.1619	1416.9086	1443.6689	1471.2695	1478.3961	1494.6032	1501.9074	1519.1217	1871.3237	2946.9416	3021.4647	3034.27	3045.4107	3050.1142	3074.6414	3106.9058	3114.0988	3116.6516	3134.725
CC1(C)OCC1OC=O	CC1(C)OC[C@H]1OC=O	
InChI=1S/C6H10O3/c1-6(2)5(3-9-6)8-4-7/h4-5H,3H2,1-2H3	InChI=1S/C6H10O3/c1-6(2)5(3-9-6)8-4-7/h4-5H,3H2,1-2H3/t5-/m1/s1
