19
gdb 78178	2.11707	1.83645	1.27572	3.0796	77.38	-0.2392	0.0156	0.2548	1070.0031	0.159854	-419.200203	-419.191802	-419.190857	-419.232992	32.118	
C	-0.014774623	 1.6532610647	-0.0305141096	-0.400636
C	 0.2411295632	 0.157846766	-0.1606317367	 0.081751
O	 1.1711691214	-0.0921263652	-1.2425623259	-0.253353
C	 2.3952222673	-0.4900771315	-0.7678960042	 0.40464
N	 3.4485710805	-0.5646837707	-1.4611431493	-0.548067
C	 2.2817435181	-0.8309441754	 0.6788160472	-0.115316
C	 0.8911734358	-0.4431086662	 1.0780346731	-0.055024
N	 1.2861189015	-1.8342723297	 1.060193794	-0.102563
C	 0.7420976805	-2.7885639035	 0.0987553885	-0.33176
H	 0.8991928374	 2.1806929832	 0.2598221724	 0.131061
H	-0.3634098078	 2.0619303399	-0.982208039	 0.134012
H	-0.7808120954	 1.8422504522	 0.7284743661	 0.123772
H	-0.6873387871	-0.3597673188	-0.429540843	 0.098197
H	 3.2719824284	-0.2455079547	-2.4155784005	 0.222011
H	 3.1679505313	-0.7526320512	 1.2970581936	 0.116515
H	 0.6435367271	-0.0159265228	 2.0458921257	 0.103527
H	 0.5612459012	-2.3917768022	-0.9085433895	 0.129107
H	 1.4405654587	-3.6258134719	 0.0174977813	 0.136759
H	-0.2014883591	-3.1733496821	 0.4978813158	 0.125365
112.8274	133.1478	190.7392	212.5697	234.1995	294.0747	382.0533	413.6869	439.4358	546.3728	643.1523	679.6429	742.769	763.2204	852.8506	868.783	901.5433	920.3206	935.2385	993.1594	1026.1675	1073.1915	1090.2758	1113.5642	1126.9679	1147.6767	1168.4068	1184.1958	1268.2713	1292.4294	1315.2521	1356.836	1374.2694	1403.5575	1407.6734	1455.9628	1486.7204	1493.7574	1495.3446	1508.9497	1772.0713	3016.9888	3039.3959	3040.8253	3086.6107	3113.7249	3114.2001	3126.2413	3147.9302	3190.5217	3469.9365
CC1OC(=N)C2C1N2C	C[C@H]1O[C]([NH])[C@H]2[C@@H]1N2C	
InChI=1S/C6H10N2O/c1-3-4-5(8(4)2)6(7)9-3/h3-5,7H,1-2H3	InChI=1S/C6H10N2O/c1-3-4-5(8(4)2)6(7)9-3/h3-5,7H,1-2H3/t3-,4-,5-,8?/m1/s1
