16
gdb 70044	4.06565	1.19958	1.03482	1.6561	79.22	-0.2409	-0.0321	0.2088	1159.7632	0.123115	-400.716494	-400.708499	-400.707555	-400.748777	30.816	
C	-0.0122475792	 1.5052423267	-0.0868700936	-0.476298
C	 0.0634587095	 0.0130707134	 0.02851527	 0.391161
C	-0.8268133461	-0.8312608687	 0.8925812506	-0.350519
C	 0.6748855608	-0.8411552723	 1.1346355995	-0.07058
N	 1.4139267652	-1.8856407577	 0.4779316689	-0.311844
C	 1.2326121256	-1.7068995212	-0.7770121211	 0.225197
O	 0.4922117507	-0.6272815788	-1.1736360778	-0.273417
C	 1.7437400919	-2.5257302669	-1.8197907926	 0.26229
C	 2.1720790658	-3.2129385137	-2.7074234261	-0.354795
H	 0.9467244158	 1.9207030001	-0.410602649	 0.134293
H	-0.7794694868	 1.8054197903	-0.8081727919	 0.135987
H	-0.2702098509	 1.9420674531	 0.881696579	 0.127164
H	-1.4265351516	-0.2996690762	 1.6233161724	 0.122121
H	-1.2832467928	-1.7221626366	 0.4743374028	 0.128788
H	 1.080737689	-0.4640337932	 2.0657400318	 0.104566
H	 2.556134473	-3.8245350283	-3.4866494828	 0.205886
114.7044	149.0457	193.3512	230.4151	304.0224	355.1459	420.8689	504.2274	524.1637	576.9421	642.5004	648.6663	676.6145	722.3741	757.1266	814.6547	873.7319	941.3181	958.0216	971.1786	1028.6261	1044.3807	1091.9648	1105.8159	1138.203	1214.9525	1271.277	1300.1492	1386.0052	1425.0581	1470.4084	1477.9588	1500.1137	1649.5784	2250.3059	3039.2742	3105.9822	3121.6184	3131.2529	3182.4519	3225.7069	3501.1541
CC12CC1N=C(O2)C#C	C[C@]12C[C@H]1N=C(O2)C#C	
InChI=1S/C7H7NO/c1-3-6-8-5-4-7(5,2)9-6/h1,5H,4H2,2H3	InChI=1S/C7H7NO/c1-3-6-8-5-4-7(5,2)9-6/h1,5H,4H2,2H3/t5-,7+/m1/s1
