21
gdb 13730	5.80345	0.8227	0.76749	0.7669	76.88	-0.2238	0.0932	0.317	1546.6172	0.186999	-366.218734	-366.209078	-366.208134	-366.253859	33.869	
C	 0.5783891434	 1.6422398468	-0.2957833238	-0.22481
O	 0.6983822691	 0.2659499404	-0.0347459183	-0.232363
C	-0.2079110222	-0.5149888036	-0.7814595939	-0.045158
C	 0.0088284751	-1.9771574049	-0.4083259773	-0.159604
N	-0.9161549972	-2.8064180369	-1.1686431282	-0.087842
C	-0.4265460967	-3.425543178	-2.3986330785	-0.255054
C	-0.7368891303	-4.2590049916	-1.2021229263	 0.033169
C	 0.3520054908	-4.9780221673	-0.4357115479	-0.411297
H	 0.7783993061	 1.8776767769	-1.3536918727	 0.10145
H	-0.4263016509	 2.0205136648	-0.047569584	 0.103138
H	 1.3133331681	 2.160585362	 0.3252930106	 0.124347
H	-1.2500577894	-0.2270013444	-0.5700086365	 0.095218
H	-0.0452360536	-0.3735371909	-1.8640544041	 0.084906
H	 1.0702380346	-2.2230923667	-0.569418421	 0.092252
H	-0.1978609838	-2.1040083626	 0.6603027021	 0.109922
H	-1.0961687106	-3.3937757828	-3.2544402818	 0.111147
H	 0.6279512804	-3.2953864767	-2.644197654	 0.104172
H	-1.6896200732	-4.7881903657	-1.1989059009	 0.088382
H	 1.3211467943	-4.48065784	-0.5184933382	 0.122662
H	 0.1005900738	-5.0580207432	 0.6278366958	 0.123631
H	 0.467596782	-5.9957323255	-0.8234536209	 0.121732
55.9867	88.8958	107.4707	118.659	186.2464	227.9884	240.1675	305.8373	370.2132	410.97	453.3461	539.9973	756.3222	817.3825	827.1741	904.0278	950.5771	999.0464	1032.2639	1053.423	1083.218	1113.2365	1139.2039	1150.9898	1166.9683	1175.9274	1191.3826	1198.3017	1231.5197	1245.735	1306.1759	1338.493	1349.6595	1403.9493	1421.462	1431.1098	1482.1844	1485.6951	1489.8142	1494.6441	1502.1243	1505.2636	1516.1013	1531.1758	2953.0267	2968.7443	2975.3183	2996.9507	3008.9312	3035.6666	3065.9781	3081.4335	3092.8117	3098.3454	3110.5043	3126.0312	3169.1382
COCCN1CC1C	COCCN1C[C@H]1C	
InChI=1S/C6H13NO/c1-6-5-7(6)3-4-8-2/h6H,3-5H2,1-2H3	InChI=1S/C6H13NO/c1-6-5-7(6)3-4-8-2/h6H,3-5H2,1-2H3/t6-,7?/m1/s1
