17
gdb 51374	3.80994	1.11097	0.99838	4.1499	73.02	-0.2249	0.0024	0.2274	1197.5938	0.135255	-421.761616	-421.753801	-421.752857	-421.795565	29.301	
O	-0.158409208	 0.0481728664	 0.1324115155	-0.276357
C	 0.0064753186	 1.2271242573	 0.2225968768	 0.175442
O	 1.03654068	 1.8639598883	-0.3716646095	-0.189873
C	 1.1311466304	 3.2643134404	-0.1413944688	 0.110214
C	 1.9923695221	 3.959029723	 0.8646085579	-0.12443
C	 3.4554855793	 3.46385198	 1.0052982396	-0.057023
C	 3.828618328	 2.2783955057	 0.1522284987	-0.307878
C	 3.6774149103	 3.633760462	-0.4846139007	-0.05065
C	 2.2178469296	 4.1303830005	-0.6645980819	-0.12923
H	-0.6578291679	 1.9118907401	 0.7837045464	 0.079157
H	 0.1567972832	 3.7432475753	-0.2363374816	 0.116284
H	 1.5613372173	 4.6634978985	 1.566262036	 0.09597
H	 4.0817507782	 3.8120782763	 1.8155998529	 0.095648
H	 4.86680522	 1.9813521685	 0.2750152868	 0.113264
H	 3.1509791946	 1.4629432945	-0.0512610262	 0.154727
H	 4.494938883	 4.1365258875	-0.9834346453	 0.09551
H	 1.9872895816	 4.9837656456	-1.2910038466	 0.099224
18.4718	126.531	137.326	243.6751	313.3675	385.7665	538.8394	549.1572	684.4102	689.6752	716.2081	725.6946	784.7032	867.751	908.4123	915.5745	959.1845	984.2431	1007.3485	1039.3376	1044.7934	1047.5421	1055.7497	1079.0481	1094.2681	1142.4244	1170.5825	1184.1581	1227.2039	1269.1435	1296.9036	1337.0186	1365.8813	1421.2695	1458.8926	1491.8744	1867.6226	2956.49	3109.3426	3137.6547	3173.8786	3183.4463	3196.6785	3206.8433	3255.5177
O=COC1C2C3CC3C12	O=CO[C@H]1[C@H]2[C@H]3C[C@H]3[C@@H]12	
InChI=1S/C7H8O2/c8-2-9-7-5-3-1-4(3)6(5)7/h2-7H,1H2	InChI=1S/C7H8O2/c8-2-9-7-5-3-1-4(3)6(5)7/h2-7H,1H2/t3-,4+,5-,6+,7-
