17
gdb 35635	3.27435	1.37813	1.07815	4.4654	77.42	-0.2473	-0.0042	0.2431	1098.5338	0.138865	-380.872652	-380.86523	-380.864286	-380.904585	28.956	
N	 0.1070840069	-1.1690377631	 0.0751325829	-0.326637
C	 0.055723373	-0.0145706885	 0.05215571	 0.270141
C	-0.0027402916	 1.448964321	 0.0196199714	-0.155178
C	-0.8396799078	 1.9984899824	 1.2075209784	-0.263394
C	-0.7428313211	 3.4982639541	 1.3081869344	-0.103236
C	 0.3595584549	 4.1647866143	 0.9637250741	-0.007841
C	 1.5557411892	 3.4563504929	 0.4449332074	-0.097884
N	 2.0501515558	 2.3033346621	 1.2503676808	-0.322281
C	 1.3978836078	 2.0537042911	-0.0310011891	-0.03204
H	-0.5050438064	 1.7327623922	-0.9148420398	 0.129
H	-1.8792890999	 1.6808898405	 1.0855996035	 0.120188
H	-0.473809657	 1.5388351766	 2.1315160798	 0.154824
H	-1.6053413027	 4.028831795	 1.7000465304	 0.100518
H	 0.4099141665	 5.2454282957	 1.0530098512	 0.095859
H	 2.305631107	 4.0652926397	-0.051760183	 0.09336
H	 3.0584375229	 2.213304597	 1.1568965567	 0.240163
H	 2.0042980423	 1.7263803169	-0.8719823191	 0.104436
99.6449	148.6505	225.5463	286.266	345.6801	423.183	498.3439	524.2987	555.1182	648.8785	709.1041	720.703	819.4394	859.2507	894.1427	910.1286	949.9465	974.2387	983.7345	1011.5243	1022.54	1071.1403	1111.0937	1164.8528	1178.2893	1205.2625	1241.0711	1258.2793	1304.3878	1327.5676	1346.2326	1388.6281	1422.2059	1456.6785	1477.0491	1711.5153	2357.0373	3025.698	3054.2111	3093.0209	3137.3391	3150.0181	3166.334	3187.9435	3508.5559
N#CC1CC=CC2NC12	N#C[C@H]1CC=C[C@H]2N[C@@H]12	
InChI=1S/C7H8N2/c8-4-5-2-1-3-6-7(5)9-6/h1,3,5-7,9H,2H2	InChI=1S/C7H8N2/c8-4-5-2-1-3-6-7(5)9-6/h1,3,5-7,9H,2H2/t5-,6-,7+/m1/s1
