17
gdb 52277	4.08786	0.8626	0.74608	2.872	72.13	-0.2494	-0.0396	0.2098	1463.9032	0.135075	-455.124153	-455.115172	-455.114228	-455.159391	31.387	
N	-0.5602496156	 1.099289371	-0.4151977243	-0.442334
C	-0.4305064068	-0.1554720183	-0.3966076675	 0.128886
O	-0.761953871	-0.8451496893	 0.7177820973	-0.184707
C	-0.7909222636	-2.2641830339	 0.6148915697	-0.085885
C	-2.1710291244	-2.7502467953	 0.1937497546	-0.099253
N	-2.5188657255	-2.5013062686	-1.2329292238	-0.332028
C	-2.9106303966	-3.9181990189	-1.4711781668	-0.281767
C	-2.3357582921	-4.2582901569	-0.0878086666	 0.377805
O	-2.07742158	-5.2583565373	 0.5089763368	-0.278518
H	-0.234916806	 1.4655490131	-1.3074848273	 0.228776
H	-0.0527761839	-0.7915559324	-1.2064168038	 0.097233
H	-0.0359622266	-2.6151892306	-0.0996378292	 0.11289
H	-0.5450443356	-2.6559567599	 1.6055739608	 0.135396
H	-2.9175034155	-2.3905495054	 0.9159759881	 0.11449
H	-3.2728136531	-1.8375069737	-1.3605562349	 0.237421
H	-3.9903942135	-4.1121733832	-1.5288285225	 0.132011
H	-2.4232828002	-4.3913898703	-2.3304062604	 0.139584
52.9734	58.8453	107.2151	131.2623	151.6551	293.8023	333.5001	406.3941	493.0895	534.8417	647.8574	655.8059	767.5756	806.8063	821.2201	908.1627	967.1162	985.864	1003.7017	1035.8665	1063.5805	1080.7157	1104.2294	1134.251	1151.9064	1213.4833	1242.5139	1273.5479	1321.0361	1360.7241	1372.6655	1397.7771	1423.9705	1473.0331	1490.5758	1742.9577	1914.5414	3012.323	3018.5024	3031.6349	3048.3526	3074.0194	3105.679	3517.3049	3557.9974
N=COCC1NCC1=O	[NH][CH]OC[C@H]1NCC1=O	
InChI=1S/C5H8N2O2/c6-3-9-2-4-5(8)1-7-4/h3-4,6-7H,1-2H2	InChI=1S/C5H8N2O2/c6-3-9-2-4-5(8)1-7-4/h3-4,6-7H,1-2H2/t4-/m1/s1
