23
gdb 106301	3.58808	1.12961	1.06386	1.6092	85.6	-0.2321	0.0797	0.3118	1280.8941	0.205686	-388.287961	-388.278942	-388.277998	-388.321235	35.739	
C	 0.0541979909	 1.5436305627	-0.0871796724	-0.384946
C	-0.0189548191	 0.0232473198	 0.1066895256	-0.29599
C	-1.4204803953	-0.5458543897	 0.0341309595	 0.30295
C	-2.3133520869	-0.4958122137	-1.2532657031	-0.303733
C	-3.0846060634	-1.6008751266	-0.4822633735	 0.437111
C	-4.1452127809	-2.4852546688	-1.0738724789	-0.489247
C	-1.7048195576	-2.0848540773	 0.0362110733	-0.315612
O	-3.6079376182	-0.8793803125	 0.6558813457	-0.311723
C	-2.4660980382	-0.1061042124	 1.0747433049	-0.111334
H	 1.0919451449	 1.889757374	-0.0658705171	 0.113687
H	-0.3762556667	 1.8405598745	-1.0493541766	 0.120765
H	-0.4881685924	 2.0792438196	 0.6984212044	 0.119579
H	 0.5994069531	-0.4681480409	-0.6551690101	 0.095796
H	 0.4252328125	-0.2450213263	 1.0752465701	 0.096589
H	-2.8588772562	 0.4245745166	-1.4785490161	 0.093468
H	-1.7921665787	-0.8681708874	-2.1382614619	 0.092784
H	-3.753527094	-3.0345121168	-1.9345860815	 0.114479
H	-4.4993385347	-3.2072803688	-0.331402532	 0.126282
H	-5.0019161991	-1.888316562	-1.402089212	 0.126126
H	-1.1202286033	-2.6180043804	-0.7170265748	 0.092569
H	-1.6891895906	-2.6164723566	 0.9919252281	 0.092453
H	-2.1836148957	-0.3682388516	 2.1027878446	 0.092529
H	-2.7033239503	 0.9637176846	 1.0356707636	 0.095417
76.947	158.2259	196.9371	207.1	261.6879	276.3764	321.6477	365.9245	438.9952	484.2359	520.5758	587.5317	616.9395	683.93	775.8895	814.4829	868.9708	891.6944	901.4909	946.5393	953.2765	985.1667	1005.8393	1011.187	1029.0568	1066.8213	1075.111	1125.7163	1139.506	1175.261	1188.7858	1202.2668	1216.6385	1231.0124	1276.6733	1324.1131	1334.2589	1364.3315	1385.6564	1412.3027	1419.3447	1471.6587	1480.8193	1482.0936	1492.6626	1500.7976	1506.7139	1508.9398	1534.3348	3009.6952	3012.762	3036.2093	3039.4538	3043.96	3050.5959	3053.9258	3060.4895	3104.4495	3106.9478	3108.9253	3117.05	3119.0488	3125.5334
CCC12CC(C)(C1)OC2	CC[C@@]12C[C@@](C)(C1)OC2	
InChI=1S/C8H14O/c1-3-8-4-7(2,5-8)9-6-8/h3-6H2,1-2H3	InChI=1S/C8H14O/c1-3-8-4-7(2,5-8)9-6-8/h3-6H2,1-2H3/t7-,8+
