13
gdb 131003	7.11702	0.89839	0.7977	3.8275	79.64	-0.2487	-0.0616	0.1871	1317.5084	0.089282	-415.610042	-415.602475	-415.601531	-415.642359	27.673	
O	-0.0559660331	-0.0521744058	-0.0000626993	-0.247599
C	-0.0019653263	 1.1407918931	 0.0091647472	 0.196395
N	 1.1866015835	 1.8933679334	 0.0024731808	-0.019938
C	 1.260103926	 3.262022326	 0.0128984476	-0.127393
C	 2.595013216	 3.59105426	 0.0011171232	 0.049174
C	 3.2598224594	 2.3183014137	-0.0165199365	-0.064888
N	 2.4182878642	 1.3095958954	-0.0156235279	-0.2133
C	 3.1829541803	 4.8744820997	 0.0052474088	 0.252991
C	 3.7070178128	 5.9581594751	 0.0084352444	-0.43378
H	-0.879068525	 1.8132896558	 0.0241267596	 0.105988
H	 0.3767039683	 3.879610362	 0.0275380405	 0.163156
H	 4.32533035	 2.1403105607	-0.0295320889	 0.140791
H	 4.164761644	 6.9163868407	 0.0113166004	 0.198405
86.9188	130.279	198.0714	253.1783	278.4159	446.9952	470.3192	530.6093	582.009	631.813	644.5741	662.9508	686.4013	807.3025	817.2452	913.6514	973.0586	1018.9672	1024.0015	1171.7345	1210.5584	1288.0233	1351.9333	1392.6793	1450.9233	1461.458	1608.0319	1857.7043	2239.23	2974.9959	3251.7698	3271.9327	3502.5558
O=CN1C=C(C=N1)C#C	O=Cn1cc(cn1)C#C	
InChI=1S/C6H4N2O/c1-2-6-3-7-8(4-6)5-9/h1,3-5H	InChI=1S/C6H4N2O/c1-2-6-3-7-8(4-6)5-9/h1,3-5H
