19
gdb 68211	4.09698	1.11113	1.01439	3.7489	84.93	-0.2448	-0.0576	0.1872	1223.307	0.159452	-385.882176	-385.874168	-385.873224	-385.914603	31.305	
C	-0.02061639	 1.5421209323	 0.0184675311	-0.505193
C	 0.0208642713	 0.0315946678	 0.0274991532	 0.291816
C	 0.9684007888	-0.8134649136	-0.9112007855	-0.244702
C	 0.6272510722	-1.9404609964	 0.1182628032	-0.132519
C	 0.6665742116	-0.8091042418	 1.1976188459	-0.244708
C	-0.8857910833	-2.0479152645	-0.0984692697	 0.273666
C	-1.6928456893	-3.2507127267	-0.2121108686	 0.03469
O	-1.2609899786	-4.3831286067	-0.1484400187	-0.282492
C	-1.2758287104	-0.76047845	-0.1561314546	-0.217244
H	 0.9791692318	 1.9641144046	 0.1600928881	 0.120185
H	-0.4115646651	 1.9228248634	-0.9317936859	 0.121921
H	-0.6612438627	 1.9264126624	 0.8201462291	 0.121923
H	 0.6541760225	-0.9589812894	-1.9478033788	 0.097997
H	 2.0095516376	-0.4791973186	-0.8633369948	 0.098226
H	 1.1962175469	-2.8629780917	 0.2015851883	 0.089003
H	 1.6795106573	-0.47433197	 1.442383956	 0.098238
H	 0.0741023169	-0.9506265277	 2.1050358192	 0.097992
H	-2.7783874787	-3.0569225145	-0.3678964991	 0.063371
H	-2.2677391589	-0.3499407991	-0.2987262683	 0.117831
95.4042	158.0164	195.9375	251.1389	287.8469	289.8764	463.8984	497.2628	533.8566	588.4272	629.8159	702.214	792.2643	800.5037	840.3768	860.0548	868.5126	928.2425	948.0968	994.6116	1035.5575	1047.1262	1057.4377	1095.0105	1108.818	1138.8909	1190.5307	1211.0583	1219.4841	1231.2756	1236.0904	1326.279	1339.3147	1414.7075	1416.848	1482.0868	1491.6668	1494.0949	1519.2676	1644.8879	1771.6783	2871.1051	3028.1816	3044.5483	3054.1934	3091.6356	3101.7668	3113.6574	3118.8589	3155.5584	3213.2185
CC12CC(C1)C(C=O)=C2	C[C@@]12C[C@@H](C1)C(=C2)C=O	
InChI=1S/C8H10O/c1-8-2-6(3-8)7(4-8)5-9/h4-6H,2-3H2,1H3	InChI=1S/C8H10O/c1-8-2-6(3-8)7(4-8)5-9/h4-6H,2-3H2,1H3/t6-,8+
