14
gdb 66525	5.14551	1.38082	1.34381	3.2013	64.05	-0.2401	-0.0118	0.2284	919.169	0.101296	-436.597187	-436.590796	-436.589852	-436.627776	25.87	
O	-0.1882096617	 1.4069123787	-0.003253465	-0.44985
C	 0.0148898464	 0.0611279835	 0.0318121495	 0.382799
C	-0.9886846424	-1.0483604303	 0.1717227839	-0.14083
C	 0.0533279885	-1.0092588226	-1.014385291	-0.146938
N	 1.2369435127	-1.7302915068	-0.4631791321	-0.207814
C	 1.0108725623	-0.8685882243	 0.804386886	-0.109498
C	-0.1512382778	-1.8662755563	 1.1744504557	-0.198373
C	 0.6004158807	-2.8580860533	 0.2823705927	 0.439688
O	 0.7780850733	-4.0283262833	 0.2089381918	-0.300039
H	 0.4950437046	 1.8110867707	-0.5519219658	 0.298992
H	-2.055015706	-1.0523780703	-0.0011676445	 0.113985
H	-0.2313949018	-1.0342427386	-2.0571837579	 0.114117
H	 1.8703163107	-0.6367185212	 1.4275468517	 0.104273
H	-0.5265450396	-2.094079006	 2.1682371549	 0.099488
133.3506	234.883	335.8348	375.1469	452.2101	543.6298	616.6909	676.9498	687.2509	738.5617	786.7563	814.1428	834.4911	854.4707	916.0372	922.7518	945.464	979.5688	1012.7384	1024.8195	1049.799	1106.6083	1122.0081	1167.0004	1182.0759	1193.4659	1226.0074	1234.1613	1316.0712	1501.7974	1932.1481	3156.1162	3164.5645	3215.8316	3231.0217	3779.564
OC12C3C1N1C2C3C1=O	O[C@@]12[C@H]3[C@@H]1N1[C@@H]2[C@@H]3C1=O	
InChI=1S/C6H5NO2/c8-5-1-2-4-6(2,9)3(1)7(4)5/h1-4,9H	InChI=1S/C6H5NO2/c8-5-1-2-4-6(2,9)3(1)7(4)5/h1-4,9H/t1-,2-,3-,4+,6-/m1/s1
