19
gdb 57104	2.39233	1.42385	1.16301	4.5276	74.58	-0.252	0.0287	0.2807	1139.0275	0.161181	-419.21976	-419.21089	-419.209946	-419.253733	32.572	
N	-0.3298467427	 1.4426502389	 0.0232144727	-0.502447
C	-0.0265639141	 0.0117132519	-0.0037660855	-0.146564
C	-1.2833197456	-0.7487572756	 0.1250886841	 0.317216
N	-2.2504226488	-1.3753580653	 0.2082652128	-0.336247
C	 0.7563877015	-0.4497419914	-1.2596932025	 0.123586
C	 0.9495146816	-1.9774586731	-1.4108122024	-0.269027
C	-0.0088906594	-2.3488990355	-2.5583442514	-0.221855
C	-0.0446743761	-1.0524308024	-3.3681027825	-0.068408
O	 0.0342921151	-0.002925639	-2.4035626982	-0.272648
H	 0.541808245	 1.9607488337	 0.0912739171	 0.234715
H	-0.7452452914	 1.6908776197	-0.8715853798	 0.252947
H	 0.58120881	-0.2247784254	 0.8789579807	 0.126817
H	 1.7271258976	 0.0677390282	-1.2206384042	 0.072046
H	 1.9860741255	-2.1963860598	-1.6818823954	 0.108694
H	 0.727782736	-2.5178000034	-0.4871675184	 0.122043
H	 0.3382665298	-3.2047572199	-3.1416779463	 0.104652
H	-1.0036329622	-2.5751117389	-2.1671288862	 0.142567
H	 0.8075950364	-0.9919408175	-4.062830982	 0.093086
H	-0.9658147082	-0.9094706651	-3.9388165527	 0.118827
74.1795	80.0482	147.7149	192.8795	237.7625	261.1959	306.0118	368.5371	410.2326	588.6743	606.0544	668.8446	710.2106	765.6735	856.4117	887.8456	908.3735	926.5822	944.2065	972.8587	1017.9842	1060.5885	1089.8218	1113.3665	1151.4948	1200.3351	1203.4421	1212.5341	1262.9389	1295.9399	1316.624	1323.9566	1351.2148	1361.3511	1399.5162	1420.9286	1487.7286	1500.2539	1524.4135	1660.8058	2359.8997	2978.4388	2985.2021	3039.2487	3062.5181	3073.4332	3095.725	3105.5297	3127.7316	3485.4808	3567.7169
NC(C#N)C1CCCO1	N[C@@H](C#N)[C@H]1CCCO1	
InChI=1S/C6H10N2O/c7-4-5(8)6-2-1-3-9-6/h5-6H,1-3,8H2	InChI=1S/C6H10N2O/c7-4-5(8)6-2-1-3-9-6/h5-6H,1-3,8H2/t5-,6+/m0/s1
