18
gdb 80032	3.0202	1.39282	1.17431	4.0283	80.97	-0.2487	-0.0185	0.2302	1091.9429	0.148969	-364.796847	-364.789216	-364.788272	-364.828681	30.34	
C	-0.0536733143	 1.7073788882	 0.0140196776	-0.438168
C	 0.0288251287	 0.1929744785	 0.0187304287	 0.044431
C	 1.1571518124	-0.5795603232	-0.7649177489	-0.089959
C	 2.4233651923	-0.0558988104	-0.0764495664	-0.096916
C	 2.1008948332	-0.0695894634	 1.2198885351	-0.096921
C	 0.6622140343	-0.6003278849	 1.2243677444	-0.089954
C	 0.842217217	-1.7953431668	 0.2003649615	-0.132117
C	-0.3465069995	-2.578859318	-0.1035595233	 0.263871
N	-1.2795945767	-3.2197795624	-0.3424086638	-0.335463
H	 0.905455706	 2.170698149	 0.2573847805	 0.122546
H	-0.369583833	 2.0701214715	-0.9700480808	 0.120885
H	-0.7954571336	 2.0522433332	 0.742441627	 0.120885
H	-0.9505711973	-0.2295195103	-0.2293703693	 0.104376
H	 1.1452322023	-0.6989621461	-1.8471089464	 0.081025
H	 3.3400958371	 0.2387307857	-0.5658911209	 0.111228
H	 2.6800394423	 0.2107369442	 2.0875078915	 0.111227
H	 0.1452018552	-0.7409130735	 2.1722447585	 0.081026
H	 1.6825041135	-2.4619212613	 0.402478985	 0.117996
142.2254	156.5154	217.8628	272.3318	276.5456	404.6341	479.1271	504.1232	577.1085	579.2521	724.403	735.6048	739.0557	818.6748	881.0024	899.9249	914.7187	923.0199	931.4322	986.1363	1015.5443	1056.4171	1060.9025	1095.5251	1117.2453	1163.474	1183.9573	1190.3041	1221.5059	1252.4557	1256.4701	1325.2888	1332.8072	1402.572	1421.7496	1493.5289	1500.243	1623.4101	2345.4874	3036.3499	3061.1512	3095.8087	3100.6441	3122.8431	3133.7811	3135.469	3227.6275	3253.7677
CC1C2C=CC1C2C#N	C[C@H]1[C@H]2C=C[C@@H]1[C@H]2C#N	
InChI=1S/C8H9N/c1-5-6-2-3-7(5)8(6)4-9/h2-3,5-8H,1H3	InChI=1S/C8H9N/c1-5-6-2-3-7(5)8(6)4-9/h2-3,5-8H,1H3/t5-,6+,7-,8-
