16
gdb 127241	3.98706	1.01218	0.81543	3.8898	76.6	-0.2491	0.0006	0.2497	1357.1682	0.123753	-396.898333	-396.889579	-396.888635	-396.933015	30.971	
C	 0.4508400062	 1.3352082711	-0.044179718	-0.332506
N	 0.0554087018	-0.0582052348	-0.073457659	 0.072664
C	 0.7142927395	-1.126768998	-0.5829256707	-0.171433
C	-0.1188376004	-2.1913415624	-0.3347905485	 0.30576
C	 0.0423442341	-3.6513936432	-0.6561507004	-0.463055
C	 1.2922508397	-3.9611695651	-1.3414270921	 0.309701
C	 2.3234871574	-4.209866506	-1.9057580074	-0.451575
N	-1.2280043428	-1.7255864113	 0.3043867233	-0.256635
N	-1.1214877968	-0.4368398525	 0.4616935814	-0.148231
H	 1.3775423348	 1.4622399776	 0.5221981304	 0.148694
H	 0.5929114811	 1.7175119934	-1.0586828365	 0.148607
H	-0.3524146622	 1.8870236926	 0.4437399768	 0.171578
H	 1.6766023518	-1.0531397772	-1.0592301737	 0.154335
H	-0.0241975461	-4.2332569676	 0.2722336919	 0.156683
H	-0.8065749313	-3.9803989801	-1.2693073639	 0.156688
H	 3.2310236631	-4.4443031364	-2.4046935436	 0.198727
34.1925	86.0341	106.2738	164.6325	270.48	300.2775	331.0978	399.1736	461.8873	617.2264	646.4104	651.7906	664.4161	709.7249	782.4217	795.9347	955.089	969.0632	1029.7507	1051.3027	1072.1006	1152.0167	1156.1761	1218.6974	1257.4074	1289.8229	1326.2934	1398.2122	1440.6659	1462.068	1485.1688	1485.9349	1513.1194	1593.0013	2243.5513	3023.6268	3048.142	3050.6026	3116.1581	3164.3665	3291.7974	3505.1822
CN1C=C(CC#C)N=N1	Cn1cc(CC#C)nn1	
InChI=1S/C6H7N3/c1-3-4-6-5-9(2)8-7-6/h1,5H,4H2,2H3	InChI=1S/C6H7N3/c1-3-4-6-5-9(2)8-7-6/h1,5H,4H2,2H3
