23
gdb 123080	8.30547	0.38342	0.37158	1.1141	93.4	-0.2411	0.062	0.3031	2933.9358	0.202511	-388.263809	-388.251802	-388.250857	-388.303851	39.84	
C	-0.0564454451	 1.3924576985	-0.0556603535	-0.226601
O	-0.0175994284	-0.012769945	-0.031902895	-0.23052
C	 0.6564916456	-0.5245117024	 1.0972911733	-0.05612
C	 0.6421692346	-2.0452888015	 1.0275459488	-0.194106
C	 1.3538744721	-2.6969976363	 2.2157683608	-0.173042
C	 1.335406823	-4.2370459907	 2.1403430691	-0.357904
C	 2.0098763976	-4.876324565	 3.2652766513	 0.024371
C	 2.5721703288	-5.3787162354	 4.2042496288	 0.108741
C	 3.2491486667	-5.998770854	 5.3348613521	-0.496972
H	 0.9544135153	 1.8307453324	-0.0826479386	 0.101377
H	-0.5938014136	 1.6914107334	-0.9591577252	 0.125344
H	-0.5814746641	 1.8035784661	 0.8218285768	 0.101376
H	 1.6955417419	-0.1505195302	 1.1256720375	 0.082902
H	 0.1680677133	-0.1774124652	 2.0253321444	 0.082904
H	-0.400809153	-2.3819318833	 0.9793800761	 0.105631
H	 1.113766894	-2.35524075	 0.0868160695	 0.105647
H	 2.3956750905	-2.3580181645	 2.2643932647	 0.106668
H	 0.8840504028	-2.3835741606	 3.1557986393	 0.106657
H	 0.2939726619	-4.582938168	 2.0891575747	 0.12433
H	 1.8026324899	-4.5574744923	 1.1991421051	 0.124328
H	 3.234811256	-7.0917545257	 5.2570592715	 0.145824
H	 4.297952811	-5.6867287135	 5.3935982107	 0.14458
H	 2.7716099494	-5.730054857	 6.2838379278	 0.144585
24.1568	43.6353	56.2113	68.7903	120.2671	133.5951	140.232	220.5193	233.9511	265.7348	276.7708	377.6446	388.3489	476.3923	527.451	739.3775	772.159	796.7003	925.0145	971.2754	1020.2588	1053.9927	1054.343	1057.8045	1085.5068	1126.1577	1164.4689	1169.2653	1179.1353	1218.5846	1220.4247	1264.8042	1281.7182	1313.5945	1322.3619	1342.6122	1389.5121	1415.5154	1429.1655	1474.709	1479.4699	1480.2201	1481.5072	1484.6593	1488.4868	1500.8372	1508.3273	1533.0313	2373.6638	2938.3026	2963.2494	2966.5252	3006.9002	3007.5743	3024.48	3025.0655	3032.7262	3034.8784	3058.0154	3082.7323	3083.9301	3084.1506	3110.9474
COCCCCC#CC	COCCCCC#CC	
InChI=1S/C8H14O/c1-3-4-5-6-7-8-9-2/h5-8H2,1-2H3	InChI=1S/C8H14O/c1-3-4-5-6-7-8-9-2/h5-8H2,1-2H3
