16
gdb 21259	6.89012	1.27446	1.09051	1.0359	68.94	-0.2046	0.0242	0.2288	1076.1351	0.131166	-379.924746	-379.916716	-379.915772	-379.958038	28.	
C	-0.0272827081	 1.4130935009	 0.017612755	-0.246953
O	-0.0967210034	 0.0003398905	-0.023871722	-0.265373
C	 0.5614706907	-0.5827325999	-1.0563267765	 0.262433
C	 0.6126924556	-1.9471738957	-1.2771802081	-0.158839
N	 1.3521958969	-2.1192176648	-2.4057305399	 0.067547
C	 1.7434163931	-3.3711314265	-3.0157537211	-0.321414
N	 1.7862170142	-0.9614156583	-2.9230029047	-0.266601
C	 1.3084537448	-0.0137008975	-2.1110201472	-0.121537
H	 1.0098385565	 1.7615618656	 0.1143674287	 0.121615
H	-0.4697289214	 1.8635648148	-0.8811332682	 0.121577
H	-0.5956633553	 1.7273907935	 0.8945444417	 0.13255
H	 0.1860875305	-2.7712601883	-0.7301139256	 0.129353
H	 0.8824584741	-4.041049987	-3.0914373091	 0.137797
H	 2.1185893294	-3.1458713831	-4.0136996977	 0.160364
H	 2.531262539	-3.8677075336	-2.4386343643	 0.139129
H	 1.5125542033	 1.0244490796	-2.3201427013	 0.10835
44.2808	73.5836	173.1952	211.7968	217.6047	345.1029	362.319	496.7791	628.1048	639.6409	666.8248	747.456	751.1915	833.8984	998.2027	1021.7731	1072.2137	1086.1203	1148.3883	1181.1647	1197.7321	1208.0472	1239.9137	1369.1539	1385.8954	1426.0515	1444.0691	1474.5199	1483.7847	1487.1736	1490.7602	1507.7805	1516.9395	1630.1109	2998.1628	3036.4842	3054.2374	3100.7218	3132.6377	3161.7298	3258.3215	3271.1727
COC1=CN(C)N=C1	COc1cn(C)nc1	
InChI=1S/C5H8N2O/c1-7-4-5(8-2)3-6-7/h3-4H,1-2H3	InChI=1S/C5H8N2O/c1-7-4-5(8-2)3-6-7/h3-4H,1-2H3
