23
gdb 77501	1.82842	1.70892	1.24069	1.2612	86.48	-0.2471	0.0799	0.327	1189.2708	0.203854	-388.255517	-388.245429	-388.244485	-388.289533	38.769	
C	-0.0621523496	 1.6413425941	 0.1985798833	-0.44797
C	 0.0471774891	 0.1246859324	 0.1150872846	-0.023869
C	 0.8402892574	-0.5946555024	-1.0384179539	 0.313263
C	 0.5477581513	-0.5422738325	-2.5134552606	-0.514791
C	 2.1585619789	-0.1530921318	-0.3273984444	-0.347481
C	 1.2020404832	-0.6519484554	 0.7979022141	 0.37462
O	 1.4014370834	-0.641985114	 2.1687880002	-0.475229
C	 0.885984956	-1.8758000136	-0.1302905214	-0.052244
C	-0.3157143807	-2.7837517472	 0.0856131941	-0.44799
H	 0.8775936442	 2.1655769234	 0.0108193349	 0.115945
H	-0.7966775973	 2.010389442	-0.5262568517	 0.112025
H	-0.4096237218	 1.9377679944	 1.1940703871	 0.125381
H	-0.9403327015	-0.3051287074	 0.2997683635	 0.059505
H	 0.5679382185	 0.4881130524	-2.8853995997	 0.119964
H	 1.2864275954	-1.116517758	-3.0836900579	 0.11722
H	-0.4419959019	-0.9566182241	-2.7359964037	 0.118347
H	 3.0394214225	-0.7715842428	-0.528393311	 0.077997
H	 2.4130255289	 0.906416112	-0.3453587875	 0.091326
H	 2.2024056178	-1.1401252406	 2.3641932478	 0.279995
H	 1.7725605167	-2.4911611494	-0.33268525	 0.049588
H	-1.2467440899	-2.2494715749	 0.2875796314	 0.122333
H	-0.4819779182	-3.4158339142	-0.7941127259	 0.114199
H	-0.1342175822	-3.4515094423	 0.9352029469	 0.117864
137.2143	151.1178	176.7298	187.0565	205.3573	208.7029	221.8981	266.1933	290.2018	403.2616	435.9725	487.3353	555.8364	593.6452	613.4683	662.6297	731.8794	761.724	795.3402	854.1762	961.0269	1000.1442	1011.8416	1038.3847	1055.266	1088.1143	1094.4183	1120.5937	1144.0669	1145.5929	1159.1561	1165.0508	1198.0109	1206.817	1281.8614	1335.587	1355.7033	1400.6164	1408.1283	1414.0739	1426.9354	1442.2973	1489.6069	1492.2979	1495.793	1497.5812	1500.8896	1505.7076	1536.4561	3011.4256	3023.6382	3034.0384	3034.4759	3051.1243	3073.7735	3086.4652	3089.2968	3089.735	3091.2008	3116.2872	3122.7915	3138.0152	3807.3173
CC1C2(C)CC1(O)C2C	C[C@H]1[C@@]2(C)C[C@]1(O)[C@H]2C	
InChI=1S/C8H14O/c1-5-7(3)4-8(5,9)6(7)2/h5-6,9H,4H2,1-3H3	InChI=1S/C8H14O/c1-5-7(3)4-8(5,9)6(7)2/h5-6,9H,4H2,1-3H3/t5-,6-,7-,8-/m0/s1
