21
gdb 112803	2.47714	1.1069	0.89735	2.7502	74.49	-0.2446	0.0619	0.3065	1361.337	0.181283	-461.33461	-461.324521	-461.323577	-461.370179	36.542	
C	 0.4561619354	 1.3612390915	-0.3519775643	-0.405124
C	 0.1365097235	-0.0528687655	 0.0909583987	 0.162172
O	 0.8100194442	-1.0591982358	-0.7169194116	-0.330263
C	 1.4538897068	-1.6441967565	 0.4427542736	 0.09612
C	 2.9628372123	-1.6407388682	 0.2370738376	-0.069651
O	 3.2765167358	-2.3330906075	-0.9556359797	-0.423933
C	 0.7726771285	-0.624686849	 1.3892812903	-0.077822
C	 1.6201420873	 0.2832591808	 2.2623942934	-0.105819
O	 0.7225196295	 1.1651854042	 2.9256569645	-0.423885
H	 1.5351184026	 1.5373923547	-0.3864149868	 0.113712
H	 0.0558639631	 1.5369834765	-1.3552329919	 0.122394
H	 0.0058482555	 2.0802007443	 0.3387543802	 0.132733
H	-0.9485140249	-0.2117933071	 0.0517614272	 0.081371
H	 1.1205294675	-2.6808182527	 0.5818018537	 0.083296
H	 3.3424895939	-0.6076297054	 0.206149999	 0.079604
H	 3.4677910017	-2.163212308	 1.0574330315	 0.105254
H	 2.7035531454	-1.9518732432	-1.6333911626	 0.293651
H	 0.0258105273	-1.0922717724	 2.0349291179	 0.091493
H	 2.1856283222	-0.327360161	 2.984784408	 0.092728
H	 2.3531830254	 0.8448874998	 1.6669263316	 0.0928
H	 1.2389008271	 1.7820802106	 3.4527454097	 0.289171
47.0684	98.2929	114.701	144.4081	189.64	247.0081	271.9821	287.9564	326.0413	380.525	459.0785	477.4372	481.5827	570.7937	771.2625	789.9075	846.7498	890.5324	946.6544	1003.2405	1031.5845	1044.5387	1063.6153	1080.6078	1092.1563	1123.8333	1157.6654	1167.399	1211.7708	1231.2735	1258.0551	1276.6696	1289.4349	1322.8847	1349.2875	1374.5915	1382.6209	1402.113	1416.8013	1440.9672	1464.308	1481.7874	1493.8254	1501.1514	1527.0607	2971.1193	2980.7742	3016.1529	3018.7328	3021.308	3041.8209	3067.9248	3085.4011	3113.1315	3122.704	3774.933	3829.0862
CC1OC(CO)C1CO	C[C@H]1O[C@@H](CO)[C@H]1CO	
InChI=1S/C6H12O3/c1-4-5(2-7)6(3-8)9-4/h4-8H,2-3H2,1H3	InChI=1S/C6H12O3/c1-4-5(2-7)6(3-8)9-4/h4-8H,2-3H2,1H3/t4-,5+,6+/m1/s1
