19
gdb 114273	4.16098	1.16348	1.10307	1.1258	76.92	-0.2286	0.0688	0.2974	1152.371	0.158573	-422.887181	-422.879251	-422.878306	-422.919548	31.329	
O	-0.2203646846	 1.6155930655	 0.1339401517	-0.426799
C	 0.0447311194	 0.2192255855	 0.248247965	-0.10346
C	-1.2714081292	-0.4990417213	 0.0215839037	 0.011598
C	-1.8175763946	-0.5635807917	-1.4728029353	-0.339947
C	-1.4420585487	-2.0482308673	-1.4287365526	 0.376029
C	-1.5120613817	-3.5941175997	-1.5039631867	-0.311703
C	-0.3822157301	-3.130044227	-0.4886636312	 0.024459
O	 0.0580221859	-2.1648095328	-1.4902295339	-0.33209
C	-1.3612060477	-2.0776505572	 0.1008676674	-0.080965
H	 0.6228921901	 2.0763458583	 0.1051930737	 0.285672
H	 0.7877086559	-0.1124580755	-0.4835246478	 0.114112
H	 0.4207155748	-0.0319447632	 1.2542340567	 0.07997
H	-2.0083959636	-0.0579284188	 0.6980705568	 0.087469
H	-2.8941526875	-0.3850452752	-1.5206902606	 0.111671
H	-1.3064068898	 0.0389000155	-2.2265772772	 0.122449
H	-2.4104273301	-4.0705828708	-1.1031543577	 0.102217
H	-1.1356516544	-4.0754532528	-2.4083842433	 0.112119
H	 0.3817806428	-3.7569817887	-0.0190970288	 0.090716
H	-2.2148642968	-2.4520077827	 0.6684699701	 0.076482
91.1924	154.2354	193.6744	242.2213	315.791	358.2454	421.7563	446.4258	561.9117	654.7434	704.6033	721.1129	795.1173	822.3602	839.9663	868.2971	892.2163	955.0156	966.8742	1007.2327	1025.7752	1043.76	1062.8743	1068.2655	1114.7032	1136.3139	1159.4162	1174.0026	1188.9517	1198.1449	1231.5927	1242.4991	1257.1955	1264.066	1287.2572	1336.6777	1358.5023	1449.6297	1466.5958	1482.5658	1530.3764	2963.9343	3056.8206	3063.3867	3067.6861	3072.2233	3081.5891	3097.2709	3133.7997	3143.9873	3832.5734
OCC1CC23CC(O2)C13	OC[C@H]1C[C@@]23C[C@@H](O2)[C@@H]13	
InChI=1S/C7H10O2/c8-3-4-1-7-2-5(9-7)6(4)7/h4-6,8H,1-3H2	InChI=1S/C7H10O2/c8-3-4-1-7-2-5(9-7)6(4)7/h4-6,8H,1-3H2/t4-,5-,6-,7+/m1/s1
