16
gdb 48558	3.71863	1.47589	1.36806	3.4051	73.3	-0.2384	-0.0235	0.2148	958.2912	0.125724	-400.703559	-400.696998	-400.696054	-400.734645	26.122	
O	-0.1309662976	 0.0027775617	 0.031327069	-0.276942
C	 0.0052044581	 1.2017092414	-0.063929446	 0.0239
C	 1.2802483192	 1.8974494607	 0.0466709533	 0.270022
C	 1.4650959193	 3.3542454475	 0.5276896374	-0.139423
C	 2.6990325864	 3.4367908533	 1.4039594372	-0.247291
C	 3.5380287699	 2.3996284586	 0.6891932806	-0.045557
C	 2.6920280468	 1.3163393168	 0.1322943796	-0.124764
N	 3.248361859	 2.374295652	-0.7830158742	-0.155829
C	 1.8742087095	 2.9894642358	-0.852422461	-0.063586
H	-0.864670407	 1.8705736414	-0.2601547354	 0.063594
H	 0.5787891367	 3.9542478054	 0.691609432	 0.109669
H	 3.1523486064	 4.433071671	 1.377121572	 0.120338
H	 2.5045041417	 3.1631964076	 2.4455410161	 0.121276
H	 4.5764037159	 2.2238649116	 0.9439633792	 0.107767
H	 2.9550212424	 0.2717780412	 0.0321139304	 0.119039
H	 1.5030530634	 3.4029224041	-1.7799668403	 0.117789
104.6767	170.1388	262.9768	387.9889	461.1922	554.3914	672.3678	690.5572	728.3348	757.6489	786.3379	840.508	865.2241	901.2043	932.3494	955.1736	965.3107	984.2996	1013.8877	1039.6912	1049.1746	1056.4175	1070.9132	1146.068	1162.8237	1184.7422	1235.1208	1252.2087	1285.3745	1333.3499	1370.1781	1405.6118	1446.744	1487.0121	1792.3512	2859.8588	3053.2031	3099.6738	3192.1702	3202.9715	3210.4025	3215.9886
O=CC12C3CC4C1N4C23	O=C[C@@]12[C@H]3C[C@H]4[C@@H]1N4[C@@H]23	
InChI=1S/C7H7NO/c9-2-7-3-1-4-6(7)8(4)5(3)7/h2-6H,1H2	InChI=1S/C7H7NO/c9-2-7-3-1-4-6(7)8(4)5(3)7/h2-6H,1H2/t3-,4-,5+,6-,7-,8?/m0/s1
