17
gdb 38046	3.36718	1.76397	1.67918	2.1769	76.45	-0.2319	-0.001	0.2309	873.71	0.137848	-384.606134	-384.599962	-384.599018	-384.63616	26.913	
C	-0.0275647843	 1.6425303209	-0.1741059037	-0.347332
C	 1.5028882682	 1.820018066	-0.0460552348	-0.036463
C	 2.1232433482	 0.8110601774	 0.5946379915	-0.24799
C	 1.030333655	-0.0844439409	 1.0929404649	 0.40383
O	 0.6953490507	-1.5356787836	 1.0377958825	-0.360163
C	-0.6890036599	-0.9885118595	 0.9654713193	-0.078834
C	-0.8270028132	-0.3037702409	 2.3270468256	-0.071505
C	 0.3574842995	 0.2981615836	 2.4313435879	-0.134449
C	-0.0690609847	 0.1287974589	 0.0504531681	 0.039466
H	-0.5374700528	 2.20611626	 0.6174541332	 0.119149
H	-0.4151890281	 1.9838518168	-1.1382293016	 0.104615
H	 2.003545867	 2.7115910504	-0.4091816649	 0.10201
H	 3.1787238099	 0.7625898062	 0.830752536	 0.109396
H	-1.4255209075	-1.7151765285	 0.6260555563	 0.080545
H	-1.6766276441	-0.3346668077	 2.9931701302	 0.111107
H	 0.7812019106	 0.923144977	 3.2034942369	 0.108585
H	 0.2443403153	-0.363594526	-0.8742525874	 0.098032
238.7716	271.6995	370.2094	476.8706	513.9774	573.9966	582.0099	662.7489	700.7405	720.1038	742.2401	767.1878	832.8756	842.8095	880.0519	901.5963	913.2941	930.2266	950.71	970.5077	1004.9432	1047.1048	1061.6053	1106.3943	1130.8871	1156.4771	1163.384	1213.2872	1252.2842	1255.3631	1273.0856	1317.5985	1358.5671	1404.7145	1475.2317	1600.5797	1620.4852	3034.1831	3070.262	3090.1527	3137.5211	3186.201	3218.0015	3229.5431	3257.8656
C1C=CC23OC(C=C2)C13	C1C=C[C@@]23O[C@@H](C=C2)[C@@H]13	
InChI=1S/C8H8O/c1-2-6-7-3-5-8(6,4-1)9-7/h1,3-7H,2H2	InChI=1S/C8H8O/c1-2-6-7-3-5-8(6,4-1)9-7/h1,3-7H,2H2/t6-,7+,8-/m1/s1
