15
gdb 50214	3.93147	1.4335	1.27338	3.7834	63.83	-0.2358	-0.0305	0.2054	966.7659	0.112243	-457.709384	-457.702553	-457.701609	-457.741247	26.103	
O	-0.7968912964	 0.9621485517	 0.467933195	-0.249563
C	 0.2389428405	 0.7322592649	-0.0979595936	 0.152082
C	 1.4512297214	 1.6503126163	-0.0042199251	 0.036214
O	 2.6352966932	 0.9140749131	-0.3259367573	-0.276621
C	 3.4037815584	 1.7024292949	-1.2076391354	 0.073797
C	 2.7434853686	 2.1792164314	-2.4887128534	 0.063385
O	 1.3264586183	 2.0670996299	-2.3598856818	-0.299504
C	 1.4109766813	 2.7530325303	-1.0683461125	 0.037493
C	 2.8944555911	 3.1099417241	-1.3046392046	-0.201846
H	 0.3954431408	-0.1555707831	-0.7424783424	 0.105557
H	 1.5068617766	 2.0716424433	 1.0097821365	 0.10279
H	 4.4618114422	 1.4729002021	-1.1907463102	 0.118372
H	 3.1719026711	 2.1693356844	-3.4841969893	 0.115807
H	 0.650278748	 3.5227742692	-0.9466859156	 0.110477
H	 3.4116830647	 4.0418349375	-1.1251659503	 0.111559
62.6739	129.1555	237.7547	349.2729	438.3363	509.49	564.477	699.6601	730.3951	781.81	806.1665	832.1967	868.5566	892.5215	932.171	985.5374	1009.8724	1027.095	1043.1093	1044.9087	1072.5324	1084.7327	1109.387	1127.5771	1211.2997	1234.8636	1256.9351	1275.3577	1302.5477	1336.5398	1390.4006	1398.7998	1833.777	2941.869	3011.6208	3136.4441	3184.2981	3200.9303	3214.0265
O=CC1OC2C3OC1C23	O=C[C@H]1O[C@H]2[C@H]3O[C@@H]1[C@@H]23	
InChI=1S/C6H6O3/c7-1-2-4-3-5(8-2)6(3)9-4/h1-6H	InChI=1S/C6H6O3/c7-1-2-4-3-5(8-2)6(3)9-4/h1-6H/t2-,3+,4+,5-,6+/m1/s1
