19
gdb 93295	2.14362	1.81622	1.22765	2.2247	75.72	-0.2419	-0.0225	0.2194	1075.6909	0.158769	-423.041911	-423.033413	-423.032469	-423.075118	32.286	
C	 0.4336641912	 1.4425460532	-0.38128324	-0.39171
C	-0.1077455966	 0.1136835069	 0.1462911088	 0.004766
O	-0.029275359	-0.9046510478	-0.8729440168	-0.267679
C	 1.1708283371	-1.6388117931	-0.7288364036	-0.19197
C	 1.5836927557	-1.4979136394	 0.7354564035	 0.311258
O	 2.4582386494	-2.1031775977	 1.3048444685	-0.3297
C	 0.675004873	-0.4634484714	 1.317621971	 0.235585
C	 1.1157579195	 0.280312192	 2.5552841472	-0.305797
C	 0.0700818204	-0.7788512159	 2.6788241015	-0.296742
H	 1.5030367411	 1.3743338935	-0.6067800238	 0.118524
H	-0.0958411724	 1.721295755	-1.2962403445	 0.128017
H	 0.2950525092	 2.2409726983	 0.3546146682	 0.11612
H	-1.1724779516	 0.2191539346	 0.3800213161	 0.089687
H	 0.9947862971	-2.6858740484	-0.9946106148	 0.137697
H	 1.979943889	-1.2572115916	-1.3729086481	 0.119954
H	 2.1135814333	 0.0501583393	 2.9141109721	 0.139192
H	 0.8148382751	 1.3181322648	 2.6474558297	 0.12173
H	-0.9605663245	-0.4790147232	 2.8365538338	 0.123197
H	 0.3545264329	-1.7254876992	 3.1251769111	 0.137872
62.4958	140.9541	203.2737	228.5373	241.0873	249.6041	344.0739	457.5718	479.661	568.3278	585.9271	645.4934	734.9504	786.7592	837.0153	862.7943	881.3558	948.9485	974.6875	1026.2925	1029.2717	1060.0331	1069.0095	1092.9809	1098.2194	1121.6918	1136.8625	1201.3109	1210.4659	1288.3345	1290.8752	1335.8005	1373.4216	1386.6043	1406.0939	1456.0804	1481.0906	1486.2356	1491.742	1496.1667	1837.4106	2976.3512	3037.9549	3047.3707	3079.0834	3108.4309	3121.1153	3131.3713	3132.4449	3216.7636	3231.131
CC1OCC(=O)C11CC1	C[C@H]1OCC(=O)C21CC2	
InChI=1S/C7H10O2/c1-5-7(2-3-7)6(8)4-9-5/h5H,2-4H2,1H3	InChI=1S/C7H10O2/c1-5-7(2-3-7)6(8)4-9-5/h5H,2-4H2,1H3/t5-/m1/s1
