19
gdb 88095	3.23726	1.33009	1.24638	2.949	75.31	-0.2327	0.0745	0.3072	1085.9776	0.159684	-422.994024	-422.986114	-422.98517	-423.026223	31.522	
O	-0.0377975114	 1.3674858661	-0.069677332	-0.437956
C	 0.0381296659	-0.0239002609	-0.0390543168	 0.062929
C	-0.3277726419	-0.7872138127	 1.2279398109	-0.397811
C	-1.2299966338	-0.8143221808	 0.0121104495	 0.408836
O	-2.3863173085	 0.0037823252	 0.0361928809	-0.315503
C	-3.5397593296	-0.8416687373	-0.02551287	-0.105419
C	-3.0967669805	-2.0777929203	-0.7864770019	-0.050398
C	-2.3156108942	-1.8408879921	-2.0524690964	-0.297756
C	-1.582636238	-2.0552192814	-0.7492468653	-0.131332
H	-0.9743628777	 1.5900834327	-0.1452569273	 0.297955
H	 0.8607668608	-0.4066836412	-0.6377607666	 0.099013
H	 0.2397922448	-1.6758781172	 1.487445187	 0.107147
H	-0.6695825892	-0.1874242574	 2.0647753278	 0.121159
H	-3.8751484056	-1.1157217094	 0.9859495132	 0.101264
H	-4.332988428	-0.2664295216	-0.5136332419	 0.11149
H	-3.657852823	-2.9955525453	-0.6578217673	 0.093783
H	-2.2874421836	-2.6477444706	-2.7760164489	 0.113579
H	-2.3135075366	-0.8437970367	-2.4816836519	 0.124222
H	-0.9980601599	-2.952574949	-0.5901882127	 0.094797
104.7582	157.0956	202.7164	282.8748	316.7833	357.8381	390.0666	460.4584	496.759	632.6518	689.9483	743.7446	790.6973	825.2526	841.3847	883.6145	905.1744	943.4957	981.5647	999.8416	1005.5705	1024.1577	1068.2523	1074.8673	1079.0269	1092.6564	1108.5917	1119.3876	1146.3302	1195.6228	1218.4142	1245.007	1274.8002	1331.3857	1355.5877	1381.3978	1405.4443	1422.2342	1480.4137	1491.8532	1516.0089	2993.7483	3074.0205	3120.922	3131.204	3138.7713	3183.9194	3192.984	3219.6023	3221.3879	3772.6896
OC1CC11OCC2CC12	O[C@H]1C[C@]21OC[C@H]1C[C@@H]21	
InChI=1S/C7H10O2/c8-6-2-7(6)5-1-4(5)3-9-7/h4-6,8H,1-3H2	InChI=1S/C7H10O2/c8-6-2-7(6)5-1-4(5)3-9-7/h4-6,8H,1-3H2/t4-,5-,6+,7+/m1/s1
