14
gdb 133283	2.56929	1.64602	1.00965	2.7511	70.49	-0.2302	-0.0661	0.1641	1089.5694	0.101551	-474.151212	-474.143561	-474.142617	-474.183621	27.911	
C	 0.1283103668	 1.3980116481	 0.1360386476	-0.348461
N	 0.1552531959	-0.0516566958	 0.1190416224	-0.309578
C	 0.4832891474	-0.6251742126	-0.9724665813	 0.281149
N	 0.8280319134	-0.0209265714	-2.1816894314	-0.31201
N	 1.1728549652	-0.6521604153	-3.3279681898	-0.180949
C	 1.1759528836	-1.943324664	-3.2720764018	 0.07774
N	 0.8648656767	-2.716373046	-2.1688517321	-0.310057
C	 0.5450753481	-2.0855327725	-1.1084284384	 0.32687
F	 0.2399968494	-2.7649637335	-0.0298006755	-0.018188
H	 1.1133794663	 1.8409558481	-0.088028116	 0.115057
H	-0.5918087492	 1.8152115148	-0.5879439589	 0.115019
H	-0.1679508554	 1.7427670253	 1.1288293009	 0.13816
H	 0.8328773626	 0.9838951621	-2.2496923985	 0.28
H	 1.4483871493	-2.4726213171	-4.176055197	 0.145248
98.3608	183.3318	201.228	202.2195	264.43	340.3607	487.1979	527.3173	563.1035	574.8084	589.419	651.6648	763.0079	786.3208	919.2593	919.8802	1040.69	1102.102	1123.4942	1171.7655	1189.1085	1265.3516	1387.4126	1398.9	1427.9485	1455.6625	1503.2589	1506.226	1599.5575	1680.9406	1717.913	2952.5929	2995.5029	3110.9502	3224.9226	3649.3572
CN=C1NN=CN=C1F	CN=c1[nH]ncnc1F	
InChI=1S/C4H5FN4/c1-6-4-3(5)7-2-8-9-4/h2H,1H3,(H,6,9)	InChI=1S/C4H5FN4/c1-6-4-3(5)7-2-8-9-4/h2H,1H3,(H,6,9)
