21
gdb 109014	3.96641	0.99598	0.8878	1.5193	85.06	-0.2131	0.0297	0.2428	1379.3617	0.182194	-387.089707	-387.080599	-387.079655	-387.123395	34.869	
C	-0.0647327851	 1.4960157061	 0.0070359632	-0.481221
C	 0.0635207801	-0.0085922022	-0.0002325887	 0.358076
C	-0.8097697162	-0.8327690138	 0.9132745178	-0.319824
C	 0.6917008903	-0.7861163725	 1.1475467478	-0.112737
C	 1.4630998282	-1.8930372224	 0.5152382198	-0.16433
C	 1.3528799444	-1.8756028905	-0.8166157922	 0.291992
C	 1.9237500106	-2.8608291534	-1.7830951375	-0.172893
O	 2.6646435922	-3.8466902084	-1.0859050063	-0.414014
C	 0.5326961643	-0.6900776878	-1.2930582507	-0.388172
H	 0.8713410957	 1.9765550376	-0.3012199828	 0.113806
H	-0.8513539412	 1.8337946433	-0.6789114151	 0.114154
H	-0.3173877587	 1.8688196907	 1.0048408229	 0.112958
H	-1.4438976828	-0.284432548	 1.6038523411	 0.102022
H	-1.2329929746	-1.7657202007	 0.553431507	 0.104807
H	 1.0656516772	-0.2937166528	 2.0395508066	 0.07913
H	 2.0085013542	-2.6418170237	 1.0750022908	 0.10606
H	 1.104755147	-3.3159197086	-2.3694705948	 0.09147
H	 2.5576027975	-2.3256757809	-2.5141427278	 0.090294
H	 3.0255445965	-4.460411419	-1.73147455	 0.288241
H	-0.3083931803	-0.9941232372	-1.9312946531	 0.102695
H	 1.1423456909	-0.0042519957	-1.900897578	 0.097487
69.9177	138.897	179.2884	206.1767	229.597	255.7236	312.0666	383.1954	387.9794	434.0879	502.0705	593.9413	666.8621	742.1879	822.8677	852.5749	871.362	901.4807	932.3	955.9268	984.9184	1022.125	1043.5798	1047.017	1065.6059	1079.8885	1097.9159	1110.1503	1176.2084	1190.0069	1214.462	1249.903	1251.8967	1273.4288	1318.0973	1336.901	1397.5723	1421.989	1466.1907	1474.3116	1486.5691	1492.9638	1502.2773	1509.0792	1711.8006	2930.0792	2940.0661	2990.7133	3018.5168	3025.6432	3075.0321	3095.8486	3114.1655	3157.999	3202.3949	3221.0162	3839.0577
CC12CC1C=C(CO)C2	C[C@]12C[C@H]1C=C(CO)C2	
InChI=1S/C8H12O/c1-8-3-6(5-9)2-7(8)4-8/h2,7,9H,3-5H2,1H3	InChI=1S/C8H12O/c1-8-3-6(5-9)2-7(8)4-8/h2,7,9H,3-5H2,1H3/t7-,8+/m1/s1
