18
gdb 98804	2.80815	1.23271	0.90812	1.5761	74.66	-0.2429	-0.0352	0.2077	1285.4299	0.146484	-439.130934	-439.121518	-439.120574	-439.166407	33.007	
C	 0.2502674584	 1.419723733	 0.1539646289	-0.332264
N	 0.3521185377	-0.0194157902	 0.0039763128	-0.310821
C	 0.4415630267	-0.619408035	-1.2121152249	 0.39051
O	 0.4105118183	-0.0374478575	-2.2809389244	-0.375317
C	 0.5637036347	-2.1425291164	-1.1279175256	-0.232044
C	 1.3682808921	-2.8758857689	-2.237817242	-0.23631
C	 2.2430680256	-3.5844646364	-1.1547938314	-0.33533
C	 1.551753815	-2.7156537447	-0.0989794239	 0.392786
O	 1.7409321281	-2.4787972705	 1.0631259197	-0.311168
H	 1.174725512	 1.8506895422	 0.5559076813	 0.128979
H	 0.0659078326	 1.843438643	-0.8337513175	 0.167524
H	-0.5765078748	 1.6837144408	 0.8212457399	 0.126571
H	 0.5457489384	-0.5886105145	 0.8169306467	 0.263989
H	-0.4403127908	-2.5541881005	-0.9712104252	 0.133472
H	 0.7859348126	-3.5382351554	-2.8776243482	 0.11498
H	 1.9200111398	-2.1740011867	-2.863632666	 0.138275
H	 2.0279909256	-4.649139922	-1.0183108277	 0.137671
H	 3.327540028	-3.4600192905	-1.2177148626	 0.138495
57.6916	69.7287	77.2586	122.3315	155.3739	247.3303	300.6991	391.2264	412.2332	515.1477	571.5521	628.5702	687.3094	699.2983	767.2804	817.0172	904.9404	935.6337	985.3962	1015.3234	1065.1835	1093.5375	1114.6693	1152.0154	1175.3479	1182.3294	1205.395	1224.7854	1246.3472	1271.9703	1281.5975	1435.405	1441.2438	1496.5122	1497.4061	1500.8704	1582.1409	1784.0251	1865.193	3028.7996	3051.2195	3059.316	3083.4996	3098.5062	3110.0257	3154.1034	3154.5235	3581.932
CNC(=O)C1CCC1=O	CNC(=O)[C@H]1CCC1=O	
InChI=1S/C6H9NO2/c1-7-6(9)4-2-3-5(4)8/h4H,2-3H2,1H3,(H,7,9)	InChI=1S/C6H9NO2/c1-7-6(9)4-2-3-5(4)8/h4H,2-3H2,1H3,(H,7,9)/t4-/m0/s1
