25
gdb 76749	2.14224	1.49333	1.31076	0.1651	91.8	-0.2526	0.0762	0.3288	1199.3952	0.228719	-352.343239	-352.33355	-352.332605	-352.377098	38.209	
C	-0.0301640286	 1.6447500333	 0.0673509735	-0.415924
C	 0.0519721377	 0.1233971427	 0.0359047462	 0.031436
C	 1.0547099636	-0.6075807115	-0.9328309347	-0.05644
C	 2.1110734249	 0.2242876509	-1.6526941959	-0.411535
C	 1.5023524328	-1.5426067385	 0.2506815488	 0.382503
C	 1.2704219456	-3.024288413	 0.0421747672	-0.495486
C	 2.7954925454	-1.1119568104	 0.9907813946	-0.279799
C	 1.9725948553	-0.1086149287	 1.8506529095	-0.230094
C	 0.6501729762	-0.6539072663	 1.2358795766	-0.085711
H	 0.9419416264	 2.1174738591	 0.2354015289	 0.114819
H	-0.4250346455	 2.0370692328	-0.8765534923	 0.1113
H	-0.6998990155	 1.9783384978	 0.8682458543	 0.111284
H	-0.9556521641	-0.2637847283	-0.1538349946	 0.067144
H	 0.5148075045	-1.1879439003	-1.6892203534	 0.062392
H	 2.6733742353	 0.8754888119	-0.9769194332	 0.115933
H	 2.8339905478	-0.4206172177	-2.1651092713	 0.111715
H	 1.6480730408	 0.8649094545	-2.4112686941	 0.1109
H	 1.9593277452	-3.4297324446	-0.7104022226	 0.111978
H	 1.4256071013	-3.5889970748	 0.9687676744	 0.108151
H	 0.2503206996	-3.2258948432	-0.3052672215	 0.10967
H	 3.2040273902	-1.9316433572	 1.5898913594	 0.091399
H	 3.6099367599	-0.7039739013	 0.3862179184	 0.091268
H	 2.0617692608	-0.2583138336	 2.9291877797	 0.096819
H	 2.1741167352	 0.9462191286	 1.6473541992	 0.095067
H	-0.0586653047	-1.0807271223	 1.9496780529	 0.051213
59.7886	195.4995	211.5039	215.2758	227.1613	238.8883	255.1904	283.7508	330.1299	433.4496	456.4909	507.8506	587.3098	628.9725	721.1185	755.6108	795.289	844.5633	851.0299	917.5623	948.998	960.8736	980.3484	997.3471	1020.3883	1047.2303	1058.8647	1114.0095	1123.9424	1155.9859	1172.0263	1179.4105	1210.7023	1221.5289	1242.8127	1257.0121	1273.4814	1285.635	1325.3669	1331.373	1367.3846	1379.4949	1405.6754	1408.6091	1413.133	1472.6457	1486.5779	1489.0746	1491.359	1493.9401	1498.9933	1503.0737	1513.1874	3010.8377	3019.5846	3027.2312	3029.6823	3039.0406	3047.9989	3060.0352	3071.3438	3072.734	3083.2893	3086.1902	3089.5656	3090.8279	3100.6267	3106.4746	3113.5101
CC1C(C)C2(C)CCC12	C[C@H]1[C@@H](C)[C@@]2(C)CC[C@@H]12	
InChI=1S/C9H16/c1-6-7(2)9(3)5-4-8(6)9/h6-8H,4-5H2,1-3H3	InChI=1S/C9H16/c1-6-7(2)9(3)5-4-8(6)9/h6-8H,4-5H2,1-3H3/t6-,7+,8-,9+/m0/s1
