12
gdb 29109	3.1323	1.49716	1.01851	5.031	59.73	-0.258	-0.0777	0.1803	1052.6111	0.0767	-509.80398	-509.796156	-509.795212	-509.837592	27.648	
N	-0.1238193686	 1.4485549751	 0.1919096543	-0.567234
C	-0.1363762157	 0.0600269932	 0.0548546371	 0.226987
C	-1.1913917908	-0.6273846499	-0.3685411179	-0.003402
O	-1.1965390324	-1.9940790022	-0.5006949775	-0.193884
C	-0.0881341849	-2.7224461264	-0.1953575696	 0.314479
O	-0.0855446366	-3.9081146821	-0.3082594898	-0.271566
C	 1.1505173902	-1.9501432495	 0.298276027	 0.292999
O	 2.1629081116	-2.5070310293	 0.5877531268	-0.270905
O	 1.0459955394	-0.5949804049	 0.3930327017	-0.212313
H	 0.586120513	 1.8772141419	-0.3952494995	 0.25889
H	 0.0596986281	 1.7294177294	 1.1510564267	 0.258907
H	-2.1271818133	-0.1672235453	-0.6419627293	 0.167043
31.8476	103.7363	132.3322	322.9123	362.2308	364.5608	456.3607	461.315	502.3666	566.7545	620.2038	663.121	800.4392	806.1321	822.9822	839.0407	1000.2241	1060.7588	1148.8569	1225.8252	1257.531	1269.0323	1334.9633	1650.8754	1786.3435	1864.5479	1883.3118	3275.7672	3493.2583	3559.7231
NC1=COC(=O)C(=O)O1	Nc1coc(=O)c(=O)o1	
InChI=1S/C4H3NO4/c5-2-1-8-3(6)4(7)9-2/h1H,5H2	InChI=1S/C4H3NO4/c5-2-1-8-3(6)4(7)9-2/h1H,5H2
