19
gdb 114911	2.87372	1.27632	0.93898	0.5672	78.35	-0.2352	-0.0535	0.1818	1266.8761	0.159861	-419.256633	-419.247449	-419.246505	-419.291058	34.025	
C	 0.0435231768	 1.5921531295	 0.1218395601	-0.389574
C	-0.0022464605	 0.0644525091	 0.0286755881	-0.187596
C	 0.6243472563	-0.5016666819	-1.2612096328	-0.117191
C	 0.7297969572	-2.0455567335	-1.3119861599	-0.196406
N	 0.0847120467	-2.5309772126	-2.5405109519	-0.28414
C	-0.4282832077	-1.5351263706	-3.1652189953	 0.293209
N	-1.1672515669	-1.5730581454	-4.3036181133	-0.567985
C	-0.187451816	-0.199725829	-2.5142910255	 0.343479
O	-0.5673075925	 0.8611135586	-2.9540475685	-0.336314
H	 1.0785913949	 1.9522744539	 0.1246101862	 0.112025
H	-0.4664589257	 2.0545976393	-0.7261796534	 0.148958
H	-0.432140219	 1.9385075868	 1.0445269877	 0.110881
H	 0.5283326101	-0.3753239007	 0.8818905581	 0.103287
H	-1.039613002	-0.2869144526	 0.1024391085	 0.104972
H	 1.6130372284	-0.0440993837	-1.3970014509	 0.106901
H	 1.7701928304	-2.3897994996	-1.2923848656	 0.111206
H	 0.2364566002	-2.5082516696	-0.4474530257	 0.11271
H	-1.1518014775	-2.4095480531	-4.862915038	 0.263424
H	-1.2996560232	-0.6921512749	-4.7750260579	 0.268155
33.5416	116.285	176.0599	215.4738	252.0619	279.5909	290.7703	361.2885	376.3767	441.4233	530.0898	544.5724	612.059	703.0766	725.5981	767.7486	837.6624	880.4758	955.7317	978.9327	1016.9299	1029.7988	1103.1774	1111.8138	1142.4764	1168.3536	1223.5871	1248.2196	1275.1111	1315.5269	1356.9833	1364.8589	1413.5691	1418.7409	1490.5549	1496.324	1496.7174	1512.0863	1606.058	1725.8934	1815.5723	3017.4604	3023.4624	3026.9893	3036.1447	3055.368	3057.8794	3099.7364	3132.5564	3592.5579	3717.4336
CCC1CN=C(N)C1=O	CC[C@H]1CN=C(N)C1=O	
InChI=1S/C6H10N2O/c1-2-4-3-8-6(7)5(4)9/h4H,2-3H2,1H3,(H2,7,8)	InChI=1S/C6H10N2O/c1-2-4-3-8-6(7)5(4)9/h4H,2-3H2,1H3,(H2,7,8)/t4-/m0/s1
