19
gdb 33249	5.45965	0.65849	0.62857	3.2612	78.36	-0.2172	0.0357	0.2529	1765.0147	0.16061	-419.242559	-419.233417	-419.232472	-419.277804	32.781	
O	-0.0539859434	 1.4813251364	-0.0601676328	-0.422341
C	 0.0082227639	 0.0757242248	 0.1342692798	-0.074711
C	-1.3927059859	-0.4895603507	-0.0512261469	-0.153387
C	-1.4406784845	-2.0183033632	 0.1080629058	-0.320791
C	-2.8304370723	-2.5667060713	 0.0128148232	 0.297088
C	-3.373656884	-3.3727039666	-0.9549153884	-0.195311
N	-4.685970104	-3.5723900671	-0.579498137	-0.229438
C	-4.8771794473	-2.8887962354	 0.5826700718	 0.010555
N	-3.7846853992	-2.2732961256	 0.9678767133	-0.301466
H	 0.8257736799	 1.8425992975	 0.0808117973	 0.282819
H	 0.7002262023	-0.3940420505	-0.5855330023	 0.076944
H	 0.3765555949	-0.1711386682	 1.143945452	 0.083207
H	-2.0657886043	-0.0283556134	 0.6784888769	 0.12739
H	-1.759674835	-0.2061381088	-1.044567943	 0.100542
H	-0.8104990664	-2.4945663995	-0.6528496692	 0.093016
H	-1.0166624208	-2.2902854728	 1.0836215716	 0.109495
H	-2.9639053207	-3.8120206418	-1.8492922899	 0.124045
H	-5.3687072783	-4.1241633745	-1.0704328308	 0.265187
H	-5.826689395	-2.8807340393	 1.0972408885	 0.127158
43.6783	80.891	92.446	124.8573	248.5736	261.0359	322.6683	334.3878	468.1119	509.4655	659.0247	693.2142	721.5518	755.2543	770.0549	819.2846	865.8571	949.7448	977.5647	1023.147	1036.8645	1077.9816	1082.4372	1097.1922	1136.2598	1204.475	1228.8339	1247.5746	1281.1278	1300.2775	1310.2423	1316.1229	1357.0688	1382.9975	1456.4089	1463.5416	1478.6076	1500.9044	1527.8292	1528.8912	1601.1139	2951.024	2976.719	3016.7627	3044.6726	3056.0287	3097.1208	3248.9379	3271.3634	3669.4956	3830.1666
OCCCC1=CNC=N1	OCCCc1c[nH]cn1	
InChI=1S/C6H10N2O/c9-3-1-2-6-4-7-5-8-6/h4-5,9H,1-3H2,(H,7,8)	InChI=1S/C6H10N2O/c9-3-1-2-6-4-7-5-8-6/h4-5,9H,1-3H2,(H,7,8)
