16
gdb 19238	3.17562	2.08243	1.60549	3.4758	68.42	-0.2297	0.012	0.2417	836.0193	0.13085	-342.744996	-342.737615	-342.736671	-342.776511	27.569	
C	-0.2489447249	 1.5142095726	-0.0667943688	-0.33291
N	 0.0620950024	 0.0939060103	-0.0722143013	-0.089992
C	 0.7052183985	-0.4968984576	-1.2448027694	 0.005605
C	 2.1445165516	-0.0923322192	-1.4176322509	-0.302872
C	 1.7847378548	-1.1368266678	-0.3915505971	-0.086088
C	 1.1261192671	-0.4632428291	 0.8241305666	-0.121608
C	 1.9526941824	 0.495935269	 1.5610160433	 0.283319
N	 2.5895995305	 1.2722292361	 2.1345898573	-0.336908
H	 0.6084397306	 2.1718482358	-0.2778536226	 0.117009
H	-1.0181335069	 1.6974787731	-0.8235007769	 0.127318
H	-0.6602135524	 1.7940108491	 0.9075447691	 0.134725
H	 0.1024216224	-0.9187037199	-2.0411298479	 0.104307
H	 2.6297130034	-0.4853474663	-2.3054655065	 0.123654
H	 2.4998197033	 0.8859641454	-1.1070676118	 0.133749
H	 2.1676783429	-2.1472638956	-0.395559718	 0.110753
H	 0.6938676943	-1.1708667759	 1.5398226249	 0.12994
118.5665	145.3845	193.6777	216.9041	326.0267	373.7002	484.4738	551.0713	587.1637	663.1405	788.1541	806.519	823.977	927.672	955.6777	973.0212	1027.832	1038.6724	1059.1468	1076.9264	1083.1519	1152.3335	1177.6339	1197.2646	1237.0141	1262.4642	1284.1517	1330.9256	1356.7927	1449.9696	1479.7207	1493.3418	1500.4559	2346.8393	2985.9916	3047.2769	3073.8074	3112.6535	3124.1572	3174.0151	3209.2005	3219.743
CN1C2CC2C1C#N	CN1[C@H]2C[C@H]2[C@H]1C#N	
InChI=1S/C6H8N2/c1-8-5-2-4(5)6(8)3-7/h4-6H,2H2,1H3	InChI=1S/C6H8N2/c1-8-5-2-4(5)6(8)3-7/h4-6H,2H2,1H3/t4-,5+,6-/m1/s1
