18
gdb 45088	2.49635	1.89784	1.29981	2.2574	74.9	-0.2305	-0.0261	0.2044	991.1256	0.14927	-401.924538	-401.917288	-401.916344	-401.956492	29.052	
O	 0.0520786526	-0.0326779498	-0.3582672414	-0.311166
C	 0.0176290311	 1.1304780454	-0.0304562362	 0.344573
C	-1.2969837853	 1.8677764803	 0.2051730814	-0.321867
C	-1.2276293484	 3.0383642153	 1.1657936742	-0.029709
C	-0.6027081285	 2.8321832668	 2.5233579488	-0.313706
C	 0.1191825454	 3.6488702938	 1.470277786	 0.014359
N	 1.3131426049	 3.2302360766	 0.7612069406	-0.10328
C	 2.0874689954	 2.1006230996	 1.2595755912	-0.24634
C	 1.2698009327	 1.9700617666	 0.0178452733	-0.104028
H	-1.5859056379	 2.2380053729	-0.7904197617	 0.136516
H	-2.0555230821	 1.1344212735	 0.49594318	 0.131168
H	-2.0721754453	 3.7181257295	 1.1068746501	 0.091598
H	-1.0061407468	 3.3642519806	 3.377626151	 0.118614
H	-0.2508989166	 1.8330513736	 2.7594406464	 0.120941
H	 0.1333655071	 4.7198417238	 1.6462289267	 0.102669
H	 3.1662973336	 2.1951023931	 1.1735067805	 0.125635
H	 1.7485965712	 1.5868362582	 2.1548667992	 0.122697
H	 1.7936747671	 1.9799386103	-0.93689089	 0.121327
52.8218	195.2878	285.7569	324.7925	431.957	438.5612	469.4011	518.0286	575.5948	667.8992	697.502	779.1053	813.7416	845.1119	880.4047	896.4705	958.8874	981.8259	1008.0158	1025.3044	1051.8423	1076.4684	1094.6744	1112.6322	1136.1736	1147.2224	1160.6202	1193.272	1223.216	1248.6877	1309.8154	1326.7072	1375.4162	1381.5226	1408.3067	1451.392	1489.5825	1515.2199	1807.8599	3005.7093	3082.6674	3111.9129	3118.3639	3133.5108	3145.3712	3154.6508	3196.6605	3215.9285
O=C1CC2CC2N2CC12	O=C1C[C@H]2C[C@H]2N2C[C@@H]12	
InChI=1S/C7H9NO/c9-7-2-4-1-5(4)8-3-6(7)8/h4-6H,1-3H2	InChI=1S/C7H9NO/c9-7-2-4-1-5(4)8-3-6(7)8/h4-6H,1-3H2/t4-,5-,6+,8?/m1/s1
