18
gdb 92419	2.43019	1.53591	1.26318	1.0174	73.18	-0.2379	-0.0446	0.1933	1067.1648	0.146886	-439.048832	-439.040507	-439.039562	-439.081774	31.219	
C	-0.5659123562	 1.4279371762	-0.0257423381	-0.408415
C	 0.0731761077	 0.0643586889	-0.1258142934	 0.115904
O	 1.2801790993	 0.0459316029	-0.9425776474	-0.31075
C	 2.0218200974	-0.649645893	 0.0633094921	 0.056945
C	 2.8352863747	 0.256861486	 1.0092895446	-0.183747
N	 1.6174700271	 0.5122911473	 1.8347955455	-0.363218
C	 0.8511797858	-0.5032449285	 1.0963782712	 0.1832
C	 0.2869640181	-1.6325106488	 1.8847615656	 0.059182
O	 0.4790144101	-1.7790834254	 3.0687135866	-0.26163
H	-0.7820313773	 1.8089260946	-1.0285088553	 0.128952
H	-1.5090022572	 1.3658764478	 0.5278863845	 0.118167
H	 0.101240739	 2.1206275734	 0.4908114745	 0.14627
H	-0.6350490514	-0.6810118435	-0.5181753229	 0.076299
H	 2.4581913637	-1.5860932035	-0.2918331968	 0.093276
H	 3.6256794412	-0.291817503	 1.5356776633	 0.10855
H	 3.2575626784	 1.1527311205	 0.5448370467	 0.118479
H	 1.7164838493	 0.2444284759	 2.8091564234	 0.237822
H	-0.3252438597	-2.3561646779	 1.3026413357	 0.084715
96.551	121.0581	204.3888	217.5893	242.0469	274.4197	353.8241	397.3444	486.5267	544.7878	646.2396	748.2477	764.2414	827.1178	855.3956	884.0345	899.6373	988.4928	1008.9442	1041.6971	1062.151	1096.8148	1105.886	1119.9443	1136.9553	1188.7	1208.7534	1236.484	1294.3467	1316.0627	1338.1247	1370.6153	1394.8392	1413.2206	1425.9143	1477.6819	1492.1254	1495.4421	1800.7539	2890.0027	2987.7057	3026.1747	3041.9642	3082.4891	3091.5169	3109.5853	3141.5556	3527.0676
CC1OC2CNC12C=O	C[C@H]1O[C@H]2CN[C@@]12C=O	
InChI=1S/C6H9NO2/c1-4-6(3-8)5(9-4)2-7-6/h3-5,7H,2H2,1H3	InChI=1S/C6H9NO2/c1-4-6(3-8)5(9-4)2-7-6/h3-5,7H,2H2,1H3/t4-,5+,6+/m1/s1
