15
gdb 14359	4.50208	2.33348	2.06391	1.6134	64.14	-0.255	0.0054	0.2604	691.9437	0.12164	-362.582174	-362.576849	-362.575905	-362.611239	22.469	
C	-0.0410973502	 1.5771246566	 0.0550229723	-0.275731
C	 1.4725520971	 1.2708353342	 0.04443035	-0.105224
C	 1.1652529348	 0.0568442249	 1.0336466348	-0.301362
C	 0.1071879822	 0.0353774677	-0.0943393325	 0.396753
O	-0.8987560694	-0.7339839947	-0.7429792615	-0.287102
C	-0.6345930256	-0.3706118555	-2.0571637321	 0.088806
N	 0.4364213966	 0.2555878852	-2.3691140889	-0.301597
C	 1.2088244594	 0.2267891311	-1.1068261013	 0.031284
H	-0.4630378172	 1.9369145773	 0.9956016778	 0.096272
H	-0.434379217	 2.1158286852	-0.80651221	 0.118248
H	 2.2947123633	 1.9747720946	 0.1558309661	 0.094293
H	 1.8914696277	-0.7583908049	 1.0488205655	 0.110873
H	 0.8344477915	 0.3393798776	 2.0348672495	 0.1095
H	-1.4119586375	-0.6681790888	-2.7521451409	 0.140408
H	 1.9879883144	-0.5390278005	-1.1867614888	 0.084578
300.4557	337.4628	454.0901	514.6601	538.2999	597.0624	730.0619	766.5081	831.1701	857.0875	898.4859	915.4752	950.665	955.2052	977.0057	987.8158	1036.8782	1057.8117	1063.118	1088.7173	1120.8576	1154.6931	1170.4186	1190.5817	1225.1464	1248.3925	1256.1463	1321.1999	1368.6307	1492.5611	1533.8271	1609.9929	3046.5624	3068.0536	3077.6091	3138.4511	3141.9136	3153.2306	3217.272
C1C2CC11OC=NC21	C1[C@H]2C[C@]31O[CH][N][C@@H]23	
InChI=1S/C6H7NO/c1-4-2-6(1)5(4)7-3-8-6/h3-5H,1-2H2	InChI=1S/C6H7NO/c1-4-2-6(1)5(4)7-3-8-6/h3-5H,1-2H2/t4-,5-,6-/m0/s1
