18
gdb 14373	3.83598	2.31769	1.96578	1.6011	71.33	-0.2369	0.0816	0.3185	758.1967	0.156628	-347.740756	-347.734911	-347.733967	-347.770209	25.351	
C	-0.0428988643	 1.4943563624	-0.1818397705	-0.292716
C	 1.517471357	 1.5565644129	 0.0751917925	-0.354069
C	 1.3295810391	 0.2792630987	 0.9277117447	 0.290626
C	 1.7771889435	-1.1607786538	 1.3145934125	-0.34121
C	 0.366463844	-1.0888884643	 2.0256842983	 0.106926
C	 0.7143123114	 0.3703395986	 2.3634609007	-0.256004
O	-0.6364997939	-0.9197747775	 0.9863652889	-0.30121
C	 0.0868756888	-0.0349751923	 0.1200715354	 0.156893
H	-0.602105451	 2.0488543179	 0.5722167284	 0.117164
H	-0.3998941537	 1.7717597162	-1.1753127866	 0.100587
H	 2.0791604138	 1.383170252	-0.8468301859	 0.111198
H	 1.9163147782	 2.4407140649	 0.575672266	 0.106276
H	 1.9097270743	-1.8810933797	 0.5037896055	 0.100697
H	 2.5847695094	-1.2384829376	 2.0454309242	 0.101097
H	 0.027300769	-1.8296509768	 2.7477447761	 0.083039
H	 1.4863898444	 0.482232356	 3.1280786003	 0.096532
H	-0.1261231595	 1.0398177754	 2.5538388395	 0.10058
H	 0.3002735692	-0.5569938931	-0.8213862901	 0.073595
265.9408	304.6763	376.9878	463.2408	522.4362	555.1329	649.1864	673.5469	779.3799	793.9826	828.0321	869.1277	886.0427	887.279	922.7274	945.911	978.342	1004.2164	1024.8462	1055.8582	1088.6283	1112.9235	1121.2007	1158.1886	1166.2421	1199.3175	1215.8597	1218.2228	1237.1127	1251.1669	1274.3668	1280.839	1315.7597	1392.2649	1472.2131	1483.1062	1491.7766	1512.9344	3016.6646	3062.8162	3065.1321	3071.1106	3083.3843	3119.7168	3129.3895	3134.8319	3142.1853	3147.3766
C1CC23CC(C2)OC13	C1C[C@@]23C[C@@H](C2)O[C@@H]13	
InChI=1S/C7H10O/c1-2-7-3-5(4-7)8-6(1)7/h5-6H,1-4H2	InChI=1S/C7H10O/c1-2-7-3-5(4-7)8-6(1)7/h5-6H,1-4H2/t5-,6-,7+/m0/s1
