21
gdb 107567	2.7767	1.36568	1.20966	1.1836	83.35	-0.2363	0.0278	0.2641	1148.4048	0.183251	-387.083495	-387.074982	-387.074038	-387.116403	33.268	
C	-1.1405035952	-0.314219314	-0.5268397707	-0.252596
O	 0.1631272485	-0.0155813234	-0.0700552282	-0.28974
C	 0.4708442628	-0.5160032234	 1.2037932648	 0.440567
C	 1.8734707491	-1.0276550653	 1.3299882958	-0.335098
C	 0.710131103	-2.0027306985	 1.3392436784	-0.098569
C	 0.3287469085	-2.7312795464	 2.6154921385	-0.272765
C	 0.0789558051	-1.810017969	 3.7791400643	-0.064066
C	-0.125051979	-0.4983266079	 3.6669067093	-0.048412
C	-0.1426469978	 0.2532073608	 2.3628064656	-0.338136
H	-1.9208038042	 0.1561281527	 0.0883717809	 0.106154
H	-1.2174304457	 0.0806919835	-1.5427979036	 0.125317
H	-1.3267100108	-1.397561176	-0.5493393836	 0.104509
H	 2.4830898887	-0.9884809463	 0.4349414346	 0.11711
H	 2.400712828	-0.8463472107	 2.261131422	 0.112598
H	 0.5919540622	-2.5775939875	 0.4255833879	 0.086622
H	-0.5768357035	-3.3301801972	 2.4362705035	 0.109716
H	 1.1079690147	-3.4600743317	 2.8808517484	 0.105541
H	 0.0536015589	-2.2711474505	 4.7634737469	 0.084504
H	-0.3138842877	 0.0913640239	 4.5607414998	 0.085136
H	 0.3700598533	 1.2184797673	 2.472325764	 0.110664
H	-1.1845249991	 0.5052631296	 2.1173614714	 0.110946
108.5184	112.8813	169.7569	207.4758	296.6699	345.706	388.9503	402.7374	459.5707	513.9155	543.8615	670.1236	687.8736	788.0663	814.2615	888.3298	905.9684	941.4391	950.9855	972.2164	1001.3349	1027.2302	1046.4165	1065.3847	1087.2076	1109.2167	1132.006	1180.9333	1185.959	1202.9711	1232.9194	1240.4635	1259.7019	1299.8747	1359.9233	1371.7623	1398.7337	1420.2828	1467.4255	1476.09	1478.9531	1490.0672	1495.5659	1509.4427	1728.452	2987.8654	2993.3029	3002.7158	3014.8703	3027.4972	3037.9546	3114.3595	3132.5955	3143.3644	3152.5243	3166.8581	3226.1407
COC12CC1CC=CC2	CO[C@]12C[C@H]1CC=CC2	
InChI=1S/C8H12O/c1-9-8-5-3-2-4-7(8)6-8/h2-3,7H,4-6H2,1H3	InChI=1S/C8H12O/c1-9-8-5-3-2-4-7(8)6-8/h2-3,7H,4-6H2,1H3/t7-,8-/m1/s1
