19
gdb 111349	2.48468	1.41784	1.06942	1.4988	75.23	-0.2316	0.0643	0.296	1162.1615	0.159948	-419.116025	-419.107582	-419.106638	-419.149264	32.319	
O	 0.0298927479	 1.4872933064	-0.1119394661	-0.423355
C	 0.0750170176	 0.0758543613	 0.0601355825	-0.086528
C	-1.3158275106	-0.5428649151	 0.0668577973	-0.115067
C	-2.0884585188	-0.578483459	-1.272249587	-0.075545
N	-1.2964536639	-1.4273869739	-2.1980310157	-0.341475
C	-2.2132187834	-2.060726581	-1.2129475112	-0.137395
C	-1.4550847211	-2.0908193084	 0.0981911479	 0.381514
C	-0.5547244473	-3.1183379948	 0.6572612133	-0.303162
N	-1.8999825725	-2.8862505677	 1.2338613292	-0.380131
H	-0.2391831165	 1.6550138686	-1.0205589636	 0.28563
H	 0.683989747	-0.4074414999	-0.7142980602	 0.113787
H	 0.5656924059	-0.091214088	 1.0257953519	 0.100691
H	-1.9294354414	-0.0834984573	 0.8498688189	 0.083704
H	-2.791096395	 0.1557853102	-1.6456519069	 0.09708
H	-1.7819081652	-1.4255822585	-3.0950476159	 0.230923
H	-3.0198993828	-2.7131650766	-1.5223041905	 0.103458
H	-0.431368848	-4.0716414165	 0.1511013379	 0.120867
H	 0.3152070588	-2.7886339793	 1.2198108678	 0.11426
H	-1.8238383006	-2.3477759205	 2.0941289803	 0.230744
74.7672	134.027	150.689	247.2688	268.5555	291.0751	312.1636	446.3296	491.3833	558.3882	610.8693	774.8474	819.3384	839.3035	846.3622	882.1316	910.8513	932.2803	948.6979	979.0079	1014.6325	1025.9543	1042.417	1067.3153	1101.6735	1106.0026	1115.3553	1132.0483	1184.2054	1215.6166	1248.7622	1256.4324	1276.797	1316.7577	1348.0501	1358.6895	1396.6184	1412.0314	1437.8994	1500.5993	1516.6581	3023.7205	3049.3641	3073.8917	3106.1911	3188.9533	3191.0246	3203.6804	3470.6089	3488.2551	3820.5395
OCC1C2NC2C11CN1	OC[C@H]1[C@H]2N[C@H]2[C@]21CN2	
InChI=1S/C6H10N2O/c9-1-3-4-5(8-4)6(3)2-7-6/h3-5,7-9H,1-2H2	InChI=1S/C6H10N2O/c9-1-3-4-5(8-4)6(3)2-7-6/h3-5,7-9H,1-2H2/t3-,4+,5+,6+/m0/s1
