14
gdb 127193	3.42628	1.38257	0.99119	2.9002	73.29	-0.2191	-0.0534	0.1657	1102.5074	0.102139	-429.067104	-429.058614	-429.057669	-429.101068	29.568	
C	-0.0280171335	 1.4469888117	-0.0628320409	-0.341114
N	 0.0151782847	-0.0005704608	-0.0478326284	-0.1412
C	-1.1314549559	-0.795823577	-0.0781239051	 0.439445
N	-2.3190982838	-0.3349742112	-0.1214051035	-0.614402
N	-0.5840335635	-2.0754800172	-0.0482666659	-0.304955
N	 0.7775140234	-2.1007599677	-0.0035741911	-0.247443
C	 1.1081009958	-0.839541084	-0.0044024247	 0.296846
C	 2.4476196255	-0.3728867889	 0.0351744093	 0.26509
N	 3.5215965167	 0.0566545415	 0.066373627	-0.33678
H	 0.9912545829	 1.8338153222	-0.0320144231	 0.16043
H	-0.5299893746	 1.7953976494	-0.9693176361	 0.161766
H	-0.5898355227	 1.8118130539	 0.8010677156	 0.16183
H	-3.0165231163	-1.073660152	-0.1374027009	 0.216677
H	-1.0897308386	-2.9436037797	-0.0571902722	 0.283811
40.898	109.9225	148.8856	173.0461	223.6695	283.746	361.5485	439.3348	518.9005	546.7687	613.978	690.3028	704.8687	720.4866	727.4123	797.4062	995.5607	1058.4433	1114.8304	1161.2023	1208.4209	1236.567	1373.1328	1399.1552	1445.0773	1471.5611	1481.5712	1526.9967	1586.3523	1758.0092	2356.1168	3053.4256	3119.0051	3156.3717	3537.3294	3693.557
CN1C(=N)NN=C1C#N	CN1[C@H]([NH])NN=C1C#N	
InChI=1S/C4H5N5/c1-9-3(2-5)7-8-4(9)6/h1H3,(H2,6,8)	InChI=1S/C4H6N5/c1-9-3(2-5)7-8-4(9)6/h4,6,8H,1H3/t4-/m1/s1
