18
gdb 75989	1.9809	1.66684	1.0965	3.7079	76.37	-0.2553	-0.037	0.2183	1149.406	0.145772	-401.981453	-401.971954	-401.97101	-402.016216	33.807	
C	-1.0955924864	 1.1085616355	-0.4306642326	-0.415735
C	-0.1347150741	-0.0666071446	-0.3369659171	-0.106925
C	 0.8421533627	-0.43344245	-1.5269562659	-0.232289
C	 1.0357794152	 0.6375371153	-2.4897981767	 0.304976
N	 1.1921433319	 1.497058406	-3.2477839659	-0.334043
C	 2.0296962228	-0.5990201688	-0.4939071671	-0.106918
C	 3.4017461615	 0.0021914016	-0.7567504454	-0.415736
C	 1.1175405211	 0.0754400477	 0.5447510036	 0.39737
O	 1.3270307628	 0.6193875887	 1.5886545454	-0.292599
H	-0.586273858	 2.0127617045	-0.774057846	 0.147935
H	-1.9165685197	 0.8969370819	-1.1217334726	 0.130367
H	-1.5198900687	 1.3121791624	 0.5564615764	 0.141295
H	-0.6690882225	-0.9783781469	-0.0435261328	 0.118113
H	 0.5786583354	-1.3465110577	-2.0634847238	 0.12648
H	 2.1170932157	-1.6637608642	-0.2455442499	 0.118113
H	 3.3260602197	 1.0503990887	-1.0574788274	 0.14793
H	 4.0020721713	-0.0464797854	 0.1560183072	 0.141293
H	 3.9295443995	-0.5411328346	-1.5457951093	 0.13037
43.4994	134.27	158.9852	174.2086	180.0149	180.2602	218.5297	345.2659	356.6723	496.9131	509.5902	556.7135	621.5892	728.7497	745.4521	800.8399	854.6508	959.4659	967.695	969.9848	1027.6392	1090.5265	1119.6754	1140.2255	1153.8306	1163.1287	1237.7104	1248.8175	1302.8318	1329.8662	1358.5671	1410.0751	1411.9896	1490.0524	1491.2633	1494.3723	1496.0069	1894.7777	2351.2945	3039.4359	3043.4753	3047.2643	3047.7532	3099.5978	3119.8249	3119.9733	3126.3345	3126.8656
CC1C(C#N)C(C)C1=O	C[C@H]1[C@@H](C#N)[C@@H](C)C1=O	
InChI=1S/C7H9NO/c1-4-6(3-8)5(2)7(4)9/h4-6H,1-2H3	InChI=1S/C7H9NO/c1-4-6(3-8)5(2)7(4)9/h4-6H,1-2H3/t4-,5+,6+
