19
gdb 35415	2.59993	1.57552	1.28864	0.6445	85.16	-0.2337	0.0266	0.2602	1057.5237	0.160339	-348.722703	-348.714862	-348.713917	-348.755459	31.101	
C	 0.1570220398	-1.1496985814	 0.6051278651	-0.485311
C	 0.0975828313	 0.0191939549	 0.3244661265	 0.351766
C	 0.0244307659	 1.4273992844	-0.0055374648	-0.18101
C	-0.5064925333	 2.3875519019	 1.1169015908	-0.24421
C	 0.8642082172	 3.1285650531	 1.1315713616	-0.047462
C	 1.791440676	 2.7576041316	 2.2562374393	-0.077197
C	 2.7506469999	 1.9155928324	 1.8721903644	-0.051292
C	 2.6748581636	 1.5632145355	 0.4035678322	-0.281642
C	 1.3744113156	 2.2496220604	-0.0584935644	-0.027755
H	 0.2013078685	-2.1813316781	 0.8519803443	 0.193769
H	-0.5410525954	 1.5419295844	-0.9353679622	 0.101164
H	-1.3486001028	 3.0000126276	 0.7862414659	 0.100084
H	-0.7754224723	 1.8904297566	 2.0504995218	 0.110492
H	 0.7988994482	 4.2095925855	 0.972205344	 0.069668
H	 1.6599932251	 3.1364762211	 3.2646564296	 0.089282
H	 3.5205612712	 1.5136020797	 2.5224610063	 0.090372
H	 3.5510899232	 1.9366279543	-0.1431442171	 0.098535
H	 2.6443090057	 0.4791969259	 0.2410740003	 0.120387
H	 1.4867567724	 2.7620098303	-1.0146895635	 0.070362
40.4211	147.3803	207.2626	246.8078	345.9897	445.5054	498.795	551.2153	605.1286	622.5766	633.5395	737.3487	749.2064	749.6179	789.1274	851.8851	882.602	918.9942	952.8383	971.2027	995.9205	1022.3054	1032.6826	1055.9013	1092.7223	1120.817	1128.7451	1176.1547	1200.0824	1223.3752	1253.0863	1265.6251	1300.1127	1303.2303	1331.7488	1345.0881	1379.5849	1479.0758	1481.1764	1681.3336	2226.5707	3014.2791	3047.2728	3050.4864	3054.1047	3067.9235	3098.0701	3126.5452	3174.6137	3200.5008	3504.2387
C#CC1CC2C=CCC12	C#C[C@H]1C[C@H]2C=CC[C@@H]12	
InChI=1S/C9H10/c1-2-7-6-8-4-3-5-9(7)8/h1,3-4,7-9H,5-6H2	InChI=1S/C9H10/c1-2-7-6-8-4-3-5-9(7)8/h1,3-4,7-9H,5-6H2/t7-,8+,9-/m0/s1
