21
gdb 105748	2.22051	1.42347	1.17065	1.3859	83.74	-0.2536	0.0436	0.2972	1201.01	0.181529	-387.069775	-387.060191	-387.059247	-387.104897	35.851	
C	-0.1894105972	 1.4822223123	 0.0404632075	-0.390824
C	 0.0133365835	-0.0324043808	-0.0202305856	-0.231718
C	 0.7819767401	-0.5135573108	-1.2619836731	 0.201571
C	 0.8703623362	-2.0751414671	-1.3609276973	-0.286595
C	 0.3808867389	-2.3963363952	-2.7930548691	-0.210061
C	 0.3534340225	-1.0160886048	-3.464417974	-0.085922
O	 0.0339779143	-0.1113040969	-2.4174677468	-0.264452
C	 2.1322977988	 0.0767081281	-1.3145632888	 0.374902
C	 3.2376473293	 0.5482665549	-1.3644034912	-0.521469
H	 0.7702081273	 2.0059236309	 0.0782225557	 0.126973
H	-0.7320782028	 1.8328730662	-0.840877243	 0.135327
H	-0.762616447	 1.7578398801	 0.9307386515	 0.106909
H	 0.5518207216	-0.3828379692	 0.8678646233	 0.103527
H	-0.957036406	-0.5421677954	-0.0338588779	 0.098921
H	 1.8919554444	-2.4154641013	-1.1864699866	 0.117736
H	 0.2316592567	-2.5352250045	-0.6032950515	 0.108079
H	 1.0298285442	-3.1037651182	-3.3148260037	 0.104353
H	-0.6263258456	-2.8208756035	-2.7684018659	 0.109255
H	 1.3332608164	-0.7696065892	-3.9009615201	 0.099577
H	-0.4101552521	-0.9101018228	-4.2387280668	 0.10755
H	 4.2105110366	 0.9721244272	-1.4088260864	 0.196362
24.7428	108.2598	146.2703	172.5548	203.7975	236.5717	265.0441	386.6363	405.2485	484.6336	568.9401	620.2695	624.3416	633.4164	658.4689	757.6309	784.8252	823.2582	882.5927	927.5204	945.6153	956.8775	997.2874	1033.2225	1067.7889	1089.7041	1130.8173	1144.6951	1181.0294	1226.9777	1253.9417	1266.5848	1303.0638	1321.746	1332.7733	1364.6153	1387.8374	1408.7495	1471.0115	1486.6444	1495.0729	1501.9485	1509.4198	1516.8816	2223.0405	2991.5797	3031.9336	3045.2412	3060.2394	3073.2661	3074.5074	3097.0684	3107.0742	3112.5119	3128.1006	3128.5748	3499.7347
CCC1(CCCO1)C#C	CC[C@]1(CCCO1)C#C	
InChI=1S/C8H12O/c1-3-8(4-2)6-5-7-9-8/h1H,4-7H2,2H3	InChI=1S/C8H12O/c1-3-8(4-2)6-5-7-9-8/h1H,4-7H2,2H3/t8-/m0/s1
