16
gdb 31833	5.0759	1.02389	0.85871	3.9513	76.78	-0.2036	-0.0344	0.1692	1295.5391	0.126613	-434.12309	-434.115153	-434.114209	-434.155665	29.828	
C	 0.0107378778	 1.4513445497	-0.0718118898	-0.326952
N	-0.020027643	 0.0275058553	 0.2026081114	-0.379796
C	-1.2074132557	-0.6857192973	 0.082735116	 0.265694
C	-2.4759955719	-0.0986222426	 0.0365018605	-0.057171
N	-3.5992364413	-0.8191285217	-0.0250431712	-0.347568
C	-3.459831919	-2.1404706775	-0.0513909863	 0.438799
O	-4.5814767432	-2.8845635854	-0.1124494924	-0.400838
N	-2.3150854237	-2.8209785522	-0.0279048619	-0.283655
C	-1.2118733876	-2.0896768197	 0.0406298957	-0.049667
H	 1.0437480168	 1.7995222141	-0.0092976405	 0.13022
H	-0.3886251282	 1.7173841335	-1.0637115701	 0.117865
H	-0.5668236942	 1.9987042682	 0.6813708873	 0.138452
H	 0.7868319782	-0.47392216	-0.1371374827	 0.239696
H	-2.5998347599	 0.9800521265	 0.0519512196	 0.108594
H	-5.3156532867	-2.2567283149	-0.1237630037	 0.301289
H	-0.2683164782	-2.635440106	 0.0632612081	 0.105038
87.1687	134.1369	199.2415	229.247	359.6138	401.7928	434.1824	469.1672	474.1602	522.9332	562.0094	598.5424	666.4244	791.2378	817.3389	894.3528	934.9189	967.6951	1037.9532	1087.5966	1151.1058	1154.2434	1201.2832	1268.2665	1329.6015	1365.9975	1390.3666	1417.1475	1468.1594	1484.7246	1510.9719	1515.9468	1530.6122	1609.9458	1653.1165	2976.0765	3061.3552	3124.2419	3125.0185	3173.492	3602.6329	3792.8291
CNC1=CN=C(O)N=C1	CNc1cnc(O)nc1	
InChI=1S/C5H7N3O/c1-6-4-2-7-5(9)8-3-4/h2-3,6H,1H3,(H,7,8,9)	InChI=1S/C5H7N3O/c1-6-4-2-7-5(9)8-3-4/h2-3,6H,1H3,(H,7,8,9)
