20
gdb 116367	3.22191	1.20047	0.9252	1.5593	77.48	-0.2441	0.0152	0.2593	1297.5491	0.171538	-440.296286	-440.287476	-440.286532	-440.330125	32.707	
C	 0.0675916618	 1.5237122262	-0.1613493719	-0.386263
C	 0.0072422931	 0.0091102029	 0.0425392144	-0.206441
C	-1.4075611706	-0.5488225214	 0.0308533215	 0.222789
O	-1.3416481842	-1.9309325338	 0.1581578236	-0.23282
C	-2.5408451104	-2.6013599338	-0.197191768	-0.104339
C	-3.6038428759	-2.5181691669	 0.893173031	-0.150283
N	-4.1236612775	-1.2090162231	 1.2420801202	-0.250467
C	-3.430389665	-0.1618424087	 1.3425575569	 0.120517
O	-2.1140551012	 0.0961479271	 1.0994921041	-0.238778
H	 1.1045932865	 1.8709839707	-0.1608481106	 0.116609
H	-0.3793728926	 1.815110568	-1.1185215632	 0.113681
H	-0.4696022328	 2.0466961465	 0.6332459547	 0.134879
H	 0.5612411794	-0.5108973085	-0.7454018919	 0.109963
H	 0.4642353355	-0.2735190487	 0.9970045403	 0.119066
H	-1.9382998269	-0.2893159851	-0.9019612165	 0.070163
H	-2.9317127896	-2.1934673714	-1.1425541607	 0.097705
H	-2.2706657925	-3.6491393923	-0.3623289538	 0.111894
H	-4.4501150155	-3.1470999231	 0.5904456762	 0.108557
H	-3.192477592	-2.9680155935	 1.8079404718	 0.125541
H	-3.8965978397	 0.7412441188	 1.7384040018	 0.118025
84.6092	92.0733	129.6882	194.7939	228.477	315.7066	339.701	387.4439	451.081	493.5483	540.5836	598.5797	754.9389	796.9894	836.6349	879.2292	911.8299	938.0857	969.6507	1022.03	1046.7855	1070.0647	1085.5809	1117.616	1125.7349	1179.1692	1197.7021	1270.5326	1289.3267	1310.1009	1340.993	1381.5156	1390.9209	1400.9965	1414.3896	1429.9	1432.3791	1472.2294	1478.7188	1491.5329	1498.5638	1510.6017	1758.4393	2950.6775	2986.5969	3013.0141	3039.4243	3051.6537	3053.4691	3082.5078	3090.3302	3107.6302	3130.2683	3131.2948
CCC1OCCN=CO1	CC[C@H]1OCCN=CO1	
InChI=1S/C6H11NO2/c1-2-6-8-4-3-7-5-9-6/h5-6H,2-4H2,1H3	InChI=1S/C6H11NO2/c1-2-6-8-4-3-7-5-9-6/h5-6H,2-4H2,1H3/t6-/m0/s1
