19
gdb 38134	2.75604	1.86324	1.35074	1.4806	79.87	-0.2304	0.0177	0.2481	983.7645	0.162477	-385.870584	-385.863578	-385.862633	-385.902152	28.392	
C	 0.0194782026	 1.5934758402	 0.0971308872	-0.278555
C	 1.3040131848	 0.7996062245	-0.0077072748	-0.07114
C	 2.204999974	 0.6806966136	 1.1612079179	-0.064832
C	 1.9392355796	-0.0692505676	 2.2327722404	-0.082406
C	 0.69613858	-0.8836366126	 2.3907054453	-0.125048
C	-0.3937264792	-0.3076146787	 3.3314089983	-0.07775
O	-1.257534076	-0.0089434576	 2.2195037251	-0.284102
C	-0.3847602812	-0.6997102543	 1.287603982	 0.102041
C	-0.0370258407	 0.0892310785	 0.0436540362	-0.05422
H	-0.2119356764	 2.0557505866	 1.0493445968	 0.130568
H	-0.3154418495	 2.1442775162	-0.7749248905	 0.110367
H	 1.8021623337	 0.8322632326	-0.9726348918	 0.087508
H	 3.1335433298	 1.2450886577	 1.1194604312	 0.088913
H	 2.6511351805	-0.1072599034	 3.0544054434	 0.088058
H	 0.9475896492	-1.9266983964	 2.6080640657	 0.081961
H	-0.8403289973	-1.0425875767	 4.0146088997	 0.094554
H	-0.1236364271	 0.5923979272	 3.8959907984	 0.100707
H	-0.8365486531	-1.6554100305	 0.9921624561	 0.069685
H	-0.3821390437	-0.3468975893	-0.8875403367	 0.083689
74.7183	170.2562	263.6204	336.6651	442.4566	488.0103	522.9766	607.3076	714.8424	747.3759	790.7792	803.2596	824.6021	846.5253	905.276	935.4066	956.4806	998.3682	1007.3857	1014.5998	1032.3586	1055.4883	1074.201	1079.2971	1117.2559	1126.4649	1144.1413	1166.8037	1200.5504	1221.6884	1253.6541	1278.6189	1340.8427	1350.4143	1365.3015	1388.4059	1413.0854	1433.4737	1488.599	1523.6846	1713.3988	3002.8934	3011.2687	3047.6964	3060.2898	3136.6799	3138.9891	3143.6453	3160.9838	3164.9645	3233.2662
C1C2C=CC3COC3C12	C1[C@H]2C=C[C@H]3CO[C@H]3[C@@H]12	
InChI=1S/C8H10O/c1-2-6-4-9-8(6)7-3-5(1)7/h1-2,5-8H,3-4H2	InChI=1S/C8H10O/c1-2-6-4-9-8(6)7-3-5(1)7/h1-2,5-8H,3-4H2/t5-,6+,7+,8-/m1/s1
