15
gdb 123997	3.75294	1.6294	1.15906	5.0147	74.25	-0.203	-0.0124	0.1906	986.4299	0.116803	-412.988486	-412.981791	-412.980847	-413.019597	26.253	
C	-0.0185544688	 1.5116374844	 0.023990603	-0.230216
N	 1.3030863812	 2.1794611764	-0.1020901309	-0.429449
C	 2.2118030745	 1.419355535	-0.8235123954	 0.354868
C	 2.1012303115	 0.0748965134	-1.1173897979	 0.267582
C	 1.0100566628	-0.6894383283	-0.5525207551	-0.142844
C	 0.0258151479	-0.0076256958	 0.0518558837	-0.107648
N	 3.1849213143	-0.2999279298	-1.8552850066	-0.278301
N	 3.961245512	 0.7283413021	-2.0292267842	-0.130483
N	 3.3700674824	 1.7926315723	-1.4026172221	-0.285331
H	-0.4993775019	 1.9027409899	 0.9244813904	 0.118562
H	-0.6414909919	 1.8396241595	-0.822798991	 0.129601
H	 1.668184568	 2.508195324	 0.784402213	 0.244605
H	 1.0377348752	-1.7727518012	-0.580077195	 0.111864
H	-0.7984982698	-0.5172482568	 0.5395856754	 0.100278
H	 3.8100955725	 2.6977752248	-1.4396300275	 0.276914
109.6306	188.9631	280.5218	407.2072	451.3231	492.2664	536.8357	576.9964	610.7135	694.6738	708.1774	758.1408	800.4452	847.8758	909.0433	981.5884	992.8969	1010.6098	1018.0849	1050.6775	1171.0583	1240.6168	1248.2383	1295.4067	1312.1591	1366.28	1386.8177	1399.8638	1458.93	1487.8336	1535.2478	1624.0289	1677.2088	2977.3822	3087.571	3180.2527	3205.628	3527.8923	3661.3502
C1NC2=C(C=C1)N=NN2	C1Nc2c(C=C1)nn[nH]2	
InChI=1S/C5H6N4/c1-2-4-5(6-3-1)8-9-7-4/h1-2H,3H2,(H2,6,7,8,9)	InChI=1S/C5H6N4/c1-2-4-5(6-3-1)8-9-7-4/h1-2H,3H2,(H2,6,7,8,9)
