14
gdb 128173	2.28965	1.53258	0.92621	5.6201	74.79	-0.2304	-0.0579	0.1725	1182.3643	0.101642	-432.860435	-432.85224	-432.851296	-432.893797	28.909	
C	 0.0579974954	 1.5021539516	 0.0619215649	-0.337343
N	-0.1689206927	 0.0767340328	-0.1021036546	-0.410693
C	 0.5077337091	-0.638385111	-1.0495253779	 0.140634
C	 0.6658204448	-2.0025719401	-1.1598720616	 0.263183
O	 1.3724433886	-2.2970471963	-2.2917758896	-0.211541
N	 1.6896293714	-1.129734823	-2.9272088351	-0.108428
C	 1.1895234036	-0.1544134582	-2.2082795949	-0.027354
C	 0.2331846495	-3.0414961737	-0.3198742299	 0.216518
N	-0.1484068171	-3.8523328964	 0.4171482386	-0.350299
H	 1.0973461021	 1.7489435568	 0.3223629065	 0.130837
H	-0.2048980859	 2.0358417688	-0.857091945	 0.14401
H	-0.595656308	 1.8707734387	 0.8542675465	 0.144478
H	-0.3982928263	-0.4320363336	 0.7377956425	 0.262675
H	 1.3273782357	 0.8663925436	-2.5318930803	 0.143322
82.8479	117.017	155.7636	169.4179	230.2804	322.4094	394.6664	483.0761	505.8157	550.2101	629.2692	638.8038	718.3927	731.6006	876.3733	953.4249	1003.0959	1065.984	1124.9152	1153.2855	1212.912	1220.5175	1255.6702	1448.2751	1464.7057	1487.6335	1496.3321	1507.4699	1524.4946	1676.4957	2326.5606	3000.4325	3076.9745	3134.5496	3257.8047	3618.4129
CNC1=C(ON=C1)C#N	CNc1c(onc1)C#N	
InChI=1S/C5H5N3O/c1-7-4-3-8-9-5(4)2-6/h3,7H,1H3	InChI=1S/C5H5N3O/c1-7-4-3-8-9-5(4)2-6/h3,7H,1H3
