16
gdb 128901	6.66554	0.71736	0.68237	1.6382	75.88	-0.2505	0.0034	0.2539	1565.4481	0.12677	-396.968985	-396.960785	-396.959841	-397.003281	29.111	
N	 0.0122751983	-1.1912360496	 0.1422500998	-0.297984
C	-0.0167258028	-0.0375761722	 0.08352398	 0.254451
C	-0.019872859	 1.421555116	 0.0113465638	-0.326522
C	 1.4152837956	 2.0109940582	-0.039724575	-0.326394
C	 1.4090041236	 3.504982304	-0.1020973553	 0.365729
C	 1.332382023	 4.3850597018	-1.165757018	-0.297585
C	 1.319966679	 5.6672358491	-0.5776003827	 0.00134
N	 1.3836199491	 5.6053735948	 0.7490827991	-0.222492
N	 1.4306402048	 4.285629051	 1.0118840841	-0.245337
H	-0.5798402998	 1.7342267291	-0.8759069575	 0.164895
H	-0.5592575332	 1.8173697609	 0.878499626	 0.157083
H	 1.973792568	 1.6654120557	 0.8368074847	 0.130588
H	 1.9311447421	 1.6100531095	-0.9161467153	 0.146824
H	 1.298946342	 4.1311478734	-2.2132605477	 0.106524
H	 1.2733047637	 6.6296445609	-1.0656228729	 0.116029
H	 1.5096454156	 3.9846346874	 1.969377877	 0.272852
47.4738	60.5947	96.5153	188.511	318.0703	351.2219	402.8241	502.7377	529.4687	674.7659	696.2081	749.3968	763.288	808.6452	898.6188	937.3827	953.8142	1005.1136	1006.3881	1037.5849	1063.68	1138.0041	1176.6822	1240.9147	1286.4371	1294.0069	1324.1501	1370.7949	1375.3557	1442.8057	1468.11	1491.0417	1494.9843	1604.3837	2363.007	3049.9407	3058.818	3089.0622	3110.709	3245.9578	3266.7692	3661.1429
N#CCCC1=CC=NN1	N#CCCc1ccn[nH]1	
InChI=1S/C6H7N3/c7-4-1-2-6-3-5-8-9-6/h3,5H,1-2H2,(H,8,9)	InChI=1S/C6H7N3/c7-4-1-2-6-3-5-8-9-6/h3,5H,1-2H2,(H,8,9)
