20
gdb 80063	2.81772	1.88412	1.68651	1.2587	82.36	-0.2117	0.0097	0.2214	926.2765	0.173773	-365.965032	-365.958104	-365.95716	-365.995761	29.539	
C	-0.2078454045	 1.5998800964	 0.0519504435	-0.422672
C	 0.0528282937	 0.1106743061	-0.0523990666	 0.094214
C	 0.7836798293	-0.5815156292	-1.2673648193	-0.128447
C	 1.9190859604	 0.321843796	-1.6544524555	-0.077206
C	 2.7550254945	 0.6079762736	-0.6529923794	-0.070452
C	 2.5152793661	-0.1826791486	 0.6059181621	-0.051651
C	 2.7122102445	-1.6791100748	 0.2095156426	-0.229937
C	 1.2360118145	-1.6199800595	-0.1627670347	 0.017744
N	 1.0243071572	-0.5266271563	 0.8834745838	-0.161982
H	 0.6945372626	 2.1927557718	-0.1083186758	 0.12149
H	-0.9591857902	 1.9122609239	-0.6818788458	 0.11234
H	-0.5949873947	 1.8289305278	 1.050433587	 0.123416
H	-0.8876331757	-0.4287423819	 0.1215417883	 0.081922
H	 0.1841012031	-0.9430432077	-2.1050566613	 0.057368
H	 1.9691062274	 0.7739458214	-2.6389605579	 0.091913
H	 3.5916629436	 1.2949365764	-0.7242113754	 0.090162
H	 3.0283911051	 0.2004255444	 1.4879424589	 0.072845
H	 3.4658310096	-1.9058150193	-0.5457000167	 0.098715
H	 2.8376753533	-2.3150210377	 1.0893104378	 0.110922
H	 0.60935653	-2.5137790728	-0.0941293755	 0.069299
192.9329	207.0458	257.6073	373.61	393.5809	500.5834	520.4675	599.8674	653.1117	696.3475	727.7774	745.422	778.3002	839.5308	852.9689	914.4123	929.103	955.8905	957.7333	961.7653	998.3388	1025.3831	1065.2888	1083.3136	1094.4551	1133.0342	1151.713	1156.7404	1185.4207	1202.8091	1226.5408	1240.2999	1268.253	1301.5686	1312.6826	1340.519	1375.5287	1397.7091	1413.5341	1475.7189	1485.7797	1503.2085	1673.0343	3014.6032	3037.3114	3059.2286	3072.3111	3087.5992	3099.1998	3107.114	3130.1124	3133.5107	3171.8336	3195.9519
CC1C2C=CC3CC2N13	C[C@H]1[C@H]2C=C[C@@H]3C[C@H]2N13	
InChI=1S/C8H11N/c1-5-7-3-2-6-4-8(7)9(5)6/h2-3,5-8H,4H2,1H3	InChI=1S/C8H11N/c1-5-7-3-2-6-4-8(7)9(5)6/h2-3,5-8H,4H2,1H3/t5-,6+,7+,8+/m0/s1
