17
gdb 37637	2.87923	2.26301	2.03426	2.0968	68.56	-0.2287	0.0834	0.3121	781.6355	0.140221	-421.798333	-421.792785	-421.791841	-421.82791	24.387	
C	-0.0218436308	 1.556766453	 0.1063633387	-0.059831
O	 1.2899273597	 2.1042987286	-0.0618405165	-0.271356
C	 2.1604100018	 1.1952704955	-0.6952585146	 0.098555
C	 1.6332771518	 0.5013098811	-1.9496542676	-0.118934
C	 1.9093919055	-0.8724947521	-1.3546891949	-0.095987
C	 0.497015948	-0.3678701972	-1.4358628951	-0.075541
C	 0.0445234208	 0.0302712126	-0.0164065011	 0.017369
O	 1.1150830437	-0.4018705112	 0.8382125052	-0.249551
C	 2.2486173358	-0.2263597182	 0.0024012112	 0.030107
H	-0.3716346747	 1.8536072408	 1.1004429436	 0.109704
H	-0.7105221748	 1.9709536664	-0.6466765064	 0.08743
H	 3.1242515901	 1.6924302727	-0.8105053877	 0.084515
H	 1.7039922565	 0.8403270788	-2.9757683905	 0.089097
H	 2.2868217985	-1.7788671671	-1.8054589042	 0.095686
H	-0.2037902969	-0.788953863	-2.1442103341	 0.095005
H	-0.8837933515	-0.4484408224	 0.3028374816	 0.081728
H	 3.1537767564	-0.4894678982	 0.5461063324	 0.082005
246.3651	381.3044	397.9999	558.1812	602.0526	649.5632	687.9429	746.7634	791.2304	814.1006	830.2899	863.5616	876.652	906.3065	933.4717	974.5254	976.9403	1011.6505	1017.3688	1042.7973	1050.3226	1066.5926	1092.2818	1096.5056	1138.3784	1174.4952	1214.0453	1232.3803	1263.343	1283.5029	1297.0685	1316.2182	1346.5681	1354.6395	1384.389	1410.3806	1509.1327	2982.3974	3067.9527	3091.4665	3108.6451	3142.3973	3187.146	3206.681	3223.7969
C1OC2C3C4C3C1OC24	C1O[C@@H]2[C@H]3[C@@H]4[C@H]3[C@H]1O[C@H]24	
InChI=1S/C7H8O2/c1-2-3-4-5(3)7(9-2)6(4)8-1/h2-7H,1H2	InChI=1S/C7H8O2/c1-2-3-4-5(3)7(9-2)6(4)8-1/h2-7H,1H2/t2-,3-,4+,5-,6+,7-/m0/s1
