14
gdb 24022	4.26364	1.24448	1.05045	5.2336	72.93	-0.2397	0.0043	0.244	1085.0731	0.103726	-395.736996	-395.729965	-395.729021	-395.769199	25.668	
N	-0.3188258126	-1.1855724372	-0.2714032765	-0.313037
C	-0.1529986401	-0.0468272417	-0.1686269765	 0.29877
C	 0.038259648	 1.3898333812	-0.0246120426	-0.325507
C	-0.3032845412	 1.9939069857	 1.4109827292	-0.1799
N	 1.1144649267	 2.3888375706	 1.4837141594	 0.0151
C	 2.2013599886	 3.0763493921	 1.9686709304	-0.169459
C	 3.1449549249	 2.9111722164	 0.9692416015	-0.08572
N	 2.6636228944	 2.1843937617	-0.1113303514	-0.359858
C	 1.4458694672	 1.9064214057	 0.2701651516	 0.395581
H	-0.4745620114	 1.9117788594	-0.8375223225	 0.155396
H	-1.0011230805	 2.8335911757	 1.3860732253	 0.148591
H	-0.6049097789	 1.2621044714	 2.1622816617	 0.157649
H	 2.2351880716	 3.5673439046	 2.9256028301	 0.142835
H	 4.1609583434	 3.2765311544	 0.9741504402	 0.11956
69.972	113.1114	167.41	292.5455	422.0469	499.158	563.6477	623.4589	688.6179	726.9489	754.7297	793.6321	845.092	861.075	933.5903	1008.053	1041.5934	1073.866	1125.9655	1141.1433	1147.0833	1176.6452	1259.0466	1278.0123	1324.2408	1403.4348	1429.4429	1471.6727	1510.8149	1583.1421	2364.5991	3074.1415	3079.2099	3138.8868	3251.508	3292.717
N#CC1CN2C=CN=C12	N#C[C@H]1Cn2ccnc12	
InChI=1S/C6H5N3/c7-3-5-4-9-2-1-8-6(5)9/h1-2,5H,4H2	InChI=1S/C6H5N3/c7-3-5-4-9-2-1-8-6(5)9/h1-2,5H,4H2/t5-/m0/s1
