19
gdb 89203	2.45388	1.5448	1.23978	3.5404	76.02	-0.2296	-0.0276	0.202	1099.8868	0.157113	-423.021724	-423.012856	-423.011912	-423.055171	33.384	
C	-0.7176735005	 1.2326690547	-0.0432015697	-0.414363
C	 0.0889830639	-0.0454607489	 0.0328370342	 0.157151
O	 1.2608546909	-0.032046946	-0.8324829247	-0.344356
C	 2.1114717104	-0.5676198248	 0.2185580893	 0.340248
C	 2.8565043294	-1.8113691749	-0.1739735141	-0.488078
C	 0.9505561607	-0.3918796403	 1.2635259707	-0.171792
C	 1.7020900535	 0.7927702424	 1.9281921152	-0.371804
C	 2.8378965466	 0.6244900259	 0.8945423034	 0.377895
O	 3.8801441856	 1.1764820814	 0.7020225656	-0.294984
H	-0.1142152748	 2.1094731679	 0.2044722088	 0.127462
H	-1.1030786102	 1.3678479161	-1.0586634747	 0.133721
H	-1.5719451286	 1.1861437981	 0.6408512313	 0.120125
H	-0.5484298208	-0.8981288002	-0.2428264495	 0.079624
H	 3.5573100334	-1.5784530947	-0.9821697264	 0.147959
H	 3.4316194764	-2.2056445272	 0.6699751229	 0.123944
H	 2.1676032314	-2.5851349184	-0.5254178416	 0.126541
H	 0.6048968364	-1.188226521	 1.9198123721	 0.083392
H	 1.2120651872	 1.7682731214	 1.9676447674	 0.13172
H	 2.0611772392	 0.5540299284	 2.9351060398	 0.135596
66.7434	150.8903	188.5511	202.1306	242.9259	259.9134	269.8863	396.037	429.6871	509.6267	541.282	589.2559	671.5716	749.0344	789.673	835.1088	890.3624	906.1447	945.4638	982.8661	1033.2183	1050.4916	1079.8782	1104.4448	1121.0704	1146.7048	1153.0277	1186.4997	1223.8243	1297.2984	1316.1343	1328.1136	1390.9328	1404.5564	1412.457	1437.4241	1477.02	1480.2982	1482.7904	1499.5904	1892.9019	2993.2205	3036.7976	3039.9038	3057.5294	3108.0189	3110.1772	3112.7638	3114.6242	3124.4102	3131.4498
CC1OC2(C)C1CC2=O	C[C@H]1O[C@]2(C)[C@H]1CC2=O	
InChI=1S/C7H10O2/c1-4-5-3-6(8)7(5,2)9-4/h4-5H,3H2,1-2H3	InChI=1S/C7H10O2/c1-4-5-3-6(8)7(5,2)9-4/h4-5H,3H2,1-2H3/t4-,5+,7-/m1/s1
