15
gdb 19414	3.23894	2.18247	1.66165	0.6668	60.48	-0.242	0.0726	0.3146	794.7257	0.118963	-399.716807	-399.710007	-399.709063	-399.747688	26.291	
O	 0.1785204822	 1.388141356	-0.0757868518	-0.429797
C	 0.0226823491	-0.0009333527	-0.0371117405	 0.027824
C	 0.2999095206	-0.7158638199	 1.3036112739	-0.016704
O	-0.6701082281	-0.1949229085	 2.2249552212	-0.258239
C	-1.0663848213	-1.2669833155	 1.3440348861	-0.059726
C	-1.4184282033	-0.5966966769	 0.0320498985	 0.315178
C	-2.6779395868	 0.0034926244	-0.4415446401	-0.30389
N	-2.1446275158	-1.2352338725	-1.0545775524	-0.381456
H	-0.247613407	 1.7251456492	 0.7231419819	 0.291407
H	 0.5966928547	-0.4206925303	-0.8696779974	 0.098498
H	 1.2318683158	-1.0872298703	 1.7130402719	 0.111053
H	-1.4476505749	-2.1771753815	 1.7889938802	 0.11904
H	-3.5975549378	-0.1244515259	 0.1222790388	 0.125207
H	-2.6008818972	 0.9349284946	-0.9969306591	 0.125432
H	-1.7021538201	-1.0225747902	-1.9463105814	 0.236172
117.8547	202.0738	232.0761	290.2997	410.3804	477.6309	503.5828	604.7792	659.583	774.467	844.249	856.4019	882.9953	893.5133	929.3078	951.586	984.2985	996.4851	1040.8844	1067.6571	1110.791	1132.6762	1199.3025	1203.5503	1229.9654	1260.5148	1286.4904	1295.0798	1365.1629	1426.9691	1438.0688	1514.5631	3068.8838	3108.653	3189.2853	3197.2054	3211.3859	3487.1038	3773.0403
OC1C2OC2C11CN1	O[C@H]1[C@H]2O[C@H]2[C@]21CN2	
InChI=1S/C5H7NO2/c7-3-2-4(8-2)5(3)1-6-5/h2-4,6-7H,1H2	InChI=1S/C5H7NO2/c7-3-2-4(8-2)5(3)1-6-5/h2-4,6-7H,1H2/t2-,3+,4-,5-/m1/s1
