18
gdb 74714	2.3206	1.68833	1.40659	1.7018	78.53	-0.2384	0.0079	0.2463	1026.6425	0.146806	-401.933658	-401.925124	-401.92418	-401.966556	32.252	
C	-0.0685265273	 1.4501203873	 0.0318728994	-0.518545
C	 0.0244775621	-0.0359739269	 0.0029335902	 0.339639
C	 0.0247122779	-0.9034794824	-1.0256655315	-0.170825
C	 0.0341706027	-2.2573606243	-0.3575571035	-0.182718
N	 1.0226479262	-2.0015009936	 0.7574155517	-0.316927
C	 0.0355728296	-0.9469008663	 1.2273627632	 0.088267
C	 0.1369352169	-0.4038198078	 2.6257831274	-0.520147
C	-1.0662846106	-1.9922216389	 0.7487269375	 0.381991
O	-2.0589262993	-2.4861638444	 1.1744858331	-0.318567
H	 0.7887796735	 1.8984204769	 0.5485900549	 0.134511
H	-0.1074264477	 1.8602691943	-0.9808282731	 0.131348
H	-0.967366817	 1.7851619743	 0.564963744	 0.134683
H	-0.0578936831	-0.7121375658	-2.0856909579	 0.110196
H	 0.1235476714	-3.1714599032	-0.9392339796	 0.087975
H	 0.9886135554	-2.7898257794	 1.4127076384	 0.219095
H	 1.1056395239	 0.0790533432	 2.788858008	 0.135682
H	-0.6489359748	 0.3348509977	 2.809301083	 0.135025
H	 0.0198401301	-1.2008256909	 3.3663514449	 0.129318
103.8116	148.4965	166.5992	202.8177	230.3577	238.1911	361.319	441.4897	529.972	554.2203	583.1822	640.8598	692.4918	765.6074	805.914	824.675	862.2411	885.9577	958.736	968.2914	1009.6592	1059.2228	1066.6324	1089.276	1106.228	1146.6533	1208.2173	1253.3078	1269.0775	1317.4796	1378.8972	1410.82	1418.5387	1476.5112	1478.2501	1491.592	1492.5203	1660.4418	1888.6106	3019.5905	3039.8747	3066.8918	3109.0574	3112.2729	3113.9137	3159.7424	3237.8605	3393.8048
CC1=CC2NC1(C)C2=O	CC1=C[C@H]2N[C@]1(C)C2=O	
InChI=1S/C7H9NO/c1-4-3-5-6(9)7(4,2)8-5/h3,5,8H,1-2H3	InChI=1S/C7H9NO/c1-4-3-5-6(9)7(4,2)8-5/h3,5,8H,1-2H3/t5-,7+/m1/s1
