19
gdb 59035	2.73518	1.29071	1.09119	4.2579	78.42	-0.2651	-0.0369	0.2282	1199.1625	0.15921	-423.089137	-423.080319	-423.079375	-423.122661	32.856	
C	-0.0012818009	 1.5536870037	 0.0030934822	-0.399092
C	 0.00697673	 0.0129296078	 0.0288599489	-0.084297
C	 0.7727230719	-0.5164965851	 1.2568813261	-0.399081
C	-1.3936237834	-0.5329725254	-0.0077245217	 0.199894
C	-1.9922470224	-1.3069987419	-0.9155578236	-0.236747
C	-3.4041689709	-1.5820268152	-0.4979377232	-0.12909
O	-3.564301877	-0.892409088	 0.738898424	-0.223897
C	-2.3944036949	-0.2562921158	 1.0665498204	 0.40503
O	-2.2811485332	 0.3940770838	 2.0700308548	-0.35295
H	 1.0241771525	 1.9363343566	 0.0058965133	 0.112457
H	-0.5027478341	 1.932404672	-0.8929825276	 0.110933
H	-0.5200608059	 1.9476320057	 0.880512199	 0.152221
H	 0.5168286765	-0.3439411824	-0.8751450876	 0.076946
H	 1.7969468994	-0.1305441586	 1.2577768096	 0.112462
H	 0.2819510371	-0.1975967546	 2.1797262357	 0.15221
H	 0.821680282	-1.6098512143	 1.2523244379	 0.110934
H	-1.5617024316	-1.6992235841	-1.8285773325	 0.121624
H	-4.1438706069	-1.2054646184	-1.2163058767	 0.13522
H	-3.603563078	-2.6500158557	-0.3409214791	 0.135221
71.6294	137.7933	185.0178	206.6161	241.0425	264.9459	310.9758	319.8426	436.3877	502.2374	515.6137	637.4627	745.0197	795.8562	802.0644	850.4676	881.324	935.2326	954.8416	969.16	1015.2989	1029.7592	1091.7949	1121.2701	1121.3568	1178.8339	1200.5054	1228.484	1317.6825	1339.906	1365.4849	1380.73	1393.6683	1416.4524	1487.2377	1495.4445	1500.0231	1502.6544	1519.0687	1706.2958	1849.9461	3020.1834	3021.6107	3037.5824	3041.082	3052.1123	3104.2191	3107.0223	3128.6946	3133.1053	3214.2045
CC(C)C1=CCOC1=O	CC(C)C1=CCOC1=O	
InChI=1S/C7H10O2/c1-5(2)6-3-4-9-7(6)8/h3,5H,4H2,1-2H3	InChI=1S/C7H10O2/c1-5(2)6-3-4-9-7(6)8/h3,5H,4H2,1-2H3
