23
gdb 9961	2.46511	1.6037	1.45754	1.262	82.27	-0.2089	0.0796	0.2886	1083.8303	0.209412	-330.307379	-330.297093	-330.296148	-330.341929	37.678	
C	 0.4703793951	 1.0429385869	 0.3367393971	-0.38617
C	 0.1855890805	-0.4203100766	-0.0356992397	-0.243521
C	-1.283658484	-0.8188964145	 0.0536487772	 0.323146
C	-2.2057564585	-0.0245788115	-0.8576209537	-0.443596
C	-1.666090925	-2.2402122698	 0.3565081495	-0.042141
C	-0.6848844443	-3.3730784985	 0.5761353152	-0.421539
N	-1.9142204571	-1.1767490068	 1.3366817554	-0.134752
C	-1.1813658274	-1.1470601976	 2.5919185511	-0.315689
H	 1.5439107126	 1.2496564873	 0.2852250082	 0.111014
H	-0.0310394743	 1.7409056896	-0.3396452175	 0.121382
H	 0.1356589662	 1.2688166339	 1.3541182905	 0.121044
H	 0.5208447997	-0.6004910219	-1.0656666055	 0.09717
H	 0.80044786	-1.0682396445	 0.5927779156	 0.095424
H	-1.8869681481	-0.1025999	-1.9039720613	 0.105723
H	-3.229243353	-0.3980297996	-0.777470489	 0.121633
H	-2.2203819156	 1.0364437044	-0.5882677257	 0.11647
H	-2.5901726006	-2.5911739724	-0.1074368192	 0.076218
H	 0.2666634239	-3.0579815958	 1.0067484209	 0.118732
H	-1.1167610419	-4.1267175203	 1.2444219441	 0.121279
H	-0.4686365542	-3.868668598	-0.3766738628	 0.121071
H	-0.1119811013	-1.3985013316	 2.5397415632	 0.096768
H	-1.266458673	-0.1453501243	 3.0264261325	 0.121397
H	-1.6523425598	-1.8487219183	 3.2890508538	 0.118938
66.6152	115.9697	159.6092	173.9751	191.6385	213.9298	238.9325	279.1874	299.4438	310.5345	377.8217	473.2	512.4821	546.6962	677.2698	729.1842	777.7283	790.4852	924.4839	998.8057	1007.747	1012.2733	1042.6371	1068.6185	1117.882	1136.6149	1149.6825	1165.7036	1180.2511	1191.1477	1271.1688	1299.6718	1345.6951	1382.1422	1406.9635	1410.9085	1413.4571	1435.025	1458.0321	1474.3505	1485.0743	1489.0782	1494.8805	1499.3348	1503.2975	1506.0919	1510.6779	1514.225	2989.8671	3023.4857	3030.0494	3035.7342	3041.2945	3058.6327	3071.0596	3087.4089	3089.2273	3090.0475	3093.8819	3106.5315	3116.9542	3121.7264	3134.6844
CCC1(C)C(C)N1C	CC[C@@]1(C)[C@@H](C)N1C	
InChI=1S/C7H15N/c1-5-7(3)6(2)8(7)4/h6H,5H2,1-4H3	InChI=1S/C7H15N/c1-5-7(3)6(2)8(7)4/h6H,5H2,1-4H3/t6-,7+,8?/m1/s1
