16
gdb 33678	3.21144	1.46141	1.3967	5.2746	73.73	-0.2361	0.0013	0.2374	974.3445	0.12768	-396.888221	-396.881446	-396.880502	-396.919359	26.884	
N	-0.0621049801	-1.1062329388	-0.1987455942	-0.348234
C	-0.0412402649	 0.04317786	-0.0660093202	 0.149228
C	 0.0194950271	 1.454632329	 0.1028853118	 0.291174
C	-0.9263620222	 2.3407947252	 0.8236213409	-0.071743
C	-0.1482625534	 3.2812338661	 1.731658623	-0.20116
N	 1.264337741	 2.9693013913	 1.4199506145	-0.290438
C	 1.2521687087	 2.3956474517	 0.0810976419	-0.107173
C	 0.4437972383	 3.2310822696	-0.9529346111	-0.16905
N	-0.8196752038	 2.4669194623	-0.6559900697	-0.179436
H	-1.8921158877	 1.9621827488	 1.1362833007	 0.128911
H	-0.425110822	 4.3271645295	 1.5346050765	 0.110558
H	-0.3698890006	 3.0755578399	 2.7845628842	 0.124352
H	 1.8539426412	 3.7942975872	 1.4679098944	 0.225261
H	 2.2226649103	 2.0006217251	-0.2152169283	 0.10523
H	 0.377782218	 4.3114331775	-0.7872834052	 0.105567
H	 0.7201163301	 3.0352747357	-1.991238949	 0.126954
135.4436	160.4373	267.9708	387.0816	414.0031	515.5531	537.6174	544.444	636.8519	702.6344	754.2736	807.356	859.8533	882.8564	895.9707	941.3613	960.6868	993.9807	1045.2899	1092.084	1099.7145	1127.2151	1157.2034	1178.7734	1212.7684	1222.7532	1274.4083	1290.2945	1301.521	1356.9438	1413.0151	1433.7314	1494.6311	1523.2656	2349.6454	2997.1944	3049.7364	3057.8851	3114.5052	3134.0062	3196.3901	3523.6606
N#CC12C3CNC1CN23	N#C[C@@]12[C@H]3CN[C@@H]1CN23	
InChI=1S/C6H7N3/c7-3-6-4-2-9(6)5(6)1-8-4/h4-5,8H,1-2H2	InChI=1S/C6H7N3/c7-3-6-4-2-9(6)5(6)1-8-4/h4-5,8H,1-2H2/t4-,5-,6+,9?/m1/s1
