17
gdb 128589	2.47892	1.38786	0.90035	2.996	73.58	-0.1927	0.0304	0.2231	1268.7876	0.135659	-455.146099	-455.136958	-455.136014	-455.180299	32.605	
C	-0.107326404	 1.4188281404	 0.0495289516	-0.245865
O	 0.0008084842	 0.0104236659	 0.0600497633	-0.257523
C	 0.6151979293	-0.525184108	-1.0226078406	 0.178954
C	 1.1399865062	 0.0614368155	-2.1596175882	-0.156866
N	 1.6076591927	-0.9505745248	-2.9427927544	 0.036395
C	 2.3864300612	-0.8420934648	-4.1514535151	-0.316313
N	 1.4378236979	-2.1630729907	-2.361434553	-0.36952
C	 0.8323274724	-1.9107203496	-1.2122879747	 0.343354
O	 0.4646136079	-2.8836589807	-0.3521827551	-0.429883
H	 0.882508989	 1.8958816585	 0.0124386625	 0.116141
H	-0.6999656232	 1.7684815958	-0.8079943189	 0.116354
H	-0.6103969845	 1.7037081284	 0.9749117375	 0.135812
H	 1.2063858832	 1.0913842174	-2.4677860608	 0.128218
H	 3.4642868005	-0.8673834213	-3.9483996922	 0.135233
H	 2.1349337118	-1.6752822218	-4.8108399612	 0.150482
H	 2.1419640358	 0.0974459494	-4.6525904441	 0.133355
H	 0.7342999798	-3.7218208495	-0.7479095166	 0.301673
80.293	98.8413	138.6361	181.8611	212.2232	280.0763	295.5669	349.5932	368.0961	410.8598	581.5507	600.9188	612.3052	656.2517	708.5032	749.041	849.6286	1006.8763	1072.0254	1094.194	1146.3019	1181.7095	1186.9274	1203.2627	1241.8011	1283.9369	1361.6909	1443.146	1450.1093	1470.8328	1484.9106	1486.6093	1488.2029	1508.2572	1521.3648	1592.0283	1656.3818	2988.3364	3023.2342	3040.7115	3099.5654	3133.9599	3140.0244	3269.9038	3796.8197
COC1=CN(C)N=C1O	COc1cn(C)nc1O	
InChI=1S/C5H8N2O2/c1-7-3-4(9-2)5(8)6-7/h3H,1-2H3,(H,6,8)	InChI=1S/C5H8N2O2/c1-7-3-4(9-2)5(8)6-7/h3H,1-2H3,(H,6,8)
