18
gdb 127093	4.077	1.05209	0.84951	3.5215	76.31	-0.1882	0.0511	0.2393	1334.4758	0.147956	-435.275933	-435.266495	-435.265551	-435.310421	33.969	
C	-0.2842741813	 1.3590519568	-0.0518328001	-0.346784
N	 0.2244955446	 0.0005581833	 0.0010707316	-0.166535
C	 0.100179828	-0.6848888509	 1.2761203335	-0.332562
C	 0.071045911	-0.7853043452	-1.1267828706	 0.5368
C	 0.121449638	-2.1650867619	-1.2855567425	-0.458745
C	-0.0468790587	-2.3497055341	-2.6747409574	 0.442109
O	-0.0614703909	-3.5481465405	-3.2972487876	-0.434773
N	-0.2019145318	-1.2232200323	-3.3451847201	-0.355675
N	-0.1331375128	-0.2632961022	-2.3645874194	-0.312826
H	 0.1931181038	 1.9168514617	-0.8649844507	 0.126259
H	-1.3772075125	 1.4137366875	-0.1860331984	 0.119458
H	-0.0259986626	 1.8702143955	 0.8781270479	 0.133164
H	-0.9221842632	-1.0427151255	 1.4779801795	 0.11715
H	 0.7749906377	-1.54412481	 1.2998225188	 0.143191
H	 0.3960937555	-0.0031453742	 2.0773039978	 0.124271
H	 0.2522812952	-2.9213499722	-0.5329033575	 0.101918
H	-0.1995392312	-3.3698732423	-4.2360546012	 0.298785
H	-0.2140850688	 0.7002366264	-2.6285121437	 0.264794
49.4865	131.598	159.5869	176.3869	180.7083	240.4252	269.4561	371.1079	402.2504	413.0827	448.9139	535.0444	585.4114	680.9947	696.1411	744.9315	747.9313	944.8616	1011.3517	1044.0357	1081.3773	1128.8711	1130.5353	1167.7227	1179.5266	1217.4028	1262.9249	1303.4836	1361.2781	1440.4593	1448.9439	1478.0499	1488.4984	1492.6652	1501.5346	1516.6426	1564.5712	1587.3895	1629.7364	2968.48	2979.0212	3059.0829	3082.4667	3117.0591	3124.1744	3291.1087	3716.0001	3792.3685
CN(C)C1=CC(O)=NN1	CN(C)c1cc(O)n[nH]1	
InChI=1S/C5H9N3O/c1-8(2)4-3-5(9)7-6-4/h3H,1-2H3,(H2,6,7,9)	InChI=1S/C5H9N3O/c1-8(2)4-3-5(9)7-6-4/h3H,1-2H3,(H2,6,7,9)
