17
gdb 72981	2.70184	1.50596	1.2166	4.3825	73.83	-0.2457	0.0209	0.2667	1056.5121	0.135713	-417.978466	-417.969844	-417.968899	-418.011135	33.11	
N	-0.1006512292	 1.4842048766	 0.0144157954	-0.58415
C	-0.0513383312	 0.0680750972	-0.0572101382	 0.262964
C	 0.697555674	-0.8203659683	-1.0721463309	-0.284709
C	-0.4911818706	-1.8322906395	-1.0449754728	-0.23871
C	-1.2228023771	-0.936026096	-0.0422782405	-0.161112
C	-0.3363856001	-0.7468916472	 1.1798227937	 0.225401
O	 0.5972557581	-1.7063536934	 1.585745953	-0.454974
C	-0.9550541107	-0.0420479579	 2.2857603031	 0.262535
N	-1.438067713	 0.4474856607	 3.2153327203	-0.350238
H	 0.7388404119	 1.8697885664	 0.4356223417	 0.242773
H	-0.2090230017	 1.8968996996	-0.9059205141	 0.235257
H	 0.7879922602	-0.3190249312	-2.0392405222	 0.10232
H	 1.6767898046	-1.1919985399	-0.7635911117	 0.117443
H	-1.0130455115	-1.8994183041	-2.0010922428	 0.111
H	-0.25420851	-2.8394602941	-0.6954517103	 0.105995
H	-2.2890365382	-0.7555123423	 0.021033574	 0.111643
H	 0.1285331145	-2.4037830865	 2.0590868324	 0.296562
128.2962	150.7938	198.4314	238.2916	270.4696	298.6739	332.8095	352.9993	441.3816	464.2596	554.0381	565.7838	672.307	686.7815	764.5756	782.4236	796.5561	909.3878	942.0382	966.2612	984.6675	1017.2185	1061.7865	1120.736	1187.0692	1196.3481	1214.0287	1233.1747	1267.6322	1279.7067	1290.9142	1335.0634	1438.4067	1470.4651	1498.4632	1657.0997	2352.4715	3063.7384	3074.042	3114.5382	3131.0254	3192.278	3499.7038	3580.2619	3793.556
NC12CCC1C2(O)C#N	N[C@]12CC[C@H]1[C@]2(O)C#N	
InChI=1S/C6H8N2O/c7-3-6(9)4-1-2-5(4,6)8/h4,9H,1-2,8H2	InChI=1S/C6H8N2O/c7-3-6(9)4-1-2-5(4,6)8/h4,9H,1-2,8H2/t4-,5-,6-/m1/s1
