18
gdb 70478	3.26336	1.02167	0.90716	2.5927	74.02	-0.252	0.0034	0.2554	1317.251	0.146237	-439.0639	-439.055102	-439.054158	-439.09836	31.767	
C	-0.0572379026	 1.5110250179	-0.0607399294	-0.502306
C	-0.0757956631	 0.0122481768	-0.084432417	 0.326888
C	-0.9166405421	-0.8242113736	 0.7981061404	-0.281091
N	 0.5420077625	-0.86431388	 1.0112003244	-0.163989
C	 1.050844905	-1.7896873627	-0.0613652857	-0.198878
C	 0.5445294698	-0.8495392069	-1.1759990682	 0.053315
O	-0.3632667801	-1.405863372	-2.1270203744	-0.192996
C	-0.1141660929	-1.2318033898	-3.440207778	 0.16643
O	-0.8257539674	-1.6612737223	-4.2962583413	-0.272018
H	 0.9291630358	 1.9041023077	-0.3298117707	 0.123652
H	-0.7896285615	 1.9176163549	-0.7678981333	 0.13282
H	-0.3086275845	 1.8830102546	 0.9361728184	 0.137552
H	-1.4466687102	-0.3071613425	 1.5920408812	 0.125405
H	-1.4223192698	-1.7052996443	 0.4100021477	 0.12899
H	 2.1375899035	-1.8786344051	-0.0148257459	 0.119228
H	 0.5981015071	-2.7854218885	-0.0436695463	 0.123389
H	 1.3586364258	-0.3381371181	-1.7008553398	 0.09495
H	 0.8124394147	-0.6535971262	-3.6271793421	 0.07866
38.4581	105.1354	141.9842	170.0833	238.9864	274.4296	334.9526	373.7054	445.7448	500.9445	619.6178	672.8178	750.251	784.6241	872.6869	903.573	966.4827	991.5519	1032.1308	1043.224	1059.6462	1085.9254	1104.3679	1123.2026	1130.069	1188.4066	1202.7842	1229.184	1276.7354	1324.693	1364.3364	1398.8904	1422.4121	1445.6995	1482.6274	1488.3894	1492.5855	1514.9427	1868.5788	2940.8532	3029.7721	3049.4307	3060.128	3091.4926	3110.2399	3116.4891	3124.7291	3202.5077
CC12CN1CC2OC=O	C[C@]12CN1C[C@H]2OC=O	
InChI=1S/C6H9NO2/c1-6-3-7(6)2-5(6)9-4-8/h4-5H,2-3H2,1H3	InChI=1S/C6H9NO2/c1-6-3-7(6)2-5(6)9-4-8/h4-5H,2-3H2,1H3/t5-,6-,7?/m1/s1
