17
gdb 73757	2.51147	1.55319	1.03798	4.9718	81.71	-0.2469	-0.0393	0.2077	1138.5314	0.137182	-380.882304	-380.874288	-380.873344	-380.914859	30.34	
C	 0.073237246	 1.4925998185	 0.0935150355	-0.508238
C	 0.00105152	 0.005981874	 0.0123066121	 0.207285
C	-0.0548148434	-0.7496316566	-1.1045358321	 0.184624
C	-0.0988476896	-0.2569705636	-2.4344305277	 0.186578
N	-0.1498958379	 0.1249013496	-3.5278992891	-0.354816
C	-0.0216769908	-2.2110171883	-0.7744544733	-0.173316
N	 1.2365109549	-2.5946284963	-0.0830317906	-0.328026
C	 0.0282105527	-2.2892382102	 0.7092851939	-0.044385
C	 0.0073514559	-0.8672902031	 1.2542194183	-0.294654
H	 1.0162568259	 1.8077790673	 0.5572827883	 0.144459
H	 0.0042761772	 1.9565353127	-0.8928330974	 0.154315
H	-0.7324309297	 1.8870998232	 0.7250769712	 0.135868
H	-0.5305423577	-2.9331749348	-1.401997535	 0.107142
H	 1.3444605853	-3.6061649667	-0.1367870779	 0.234952
H	-0.4596865402	-3.0873491778	 1.2572395382	 0.098081
H	 0.8783262424	-0.6562587757	 1.886143708	 0.132083
H	-0.8849400511	-0.6758537222	 1.8653202177	 0.11805
131.6343	140.6133	155.7226	179.4108	311.1795	357.895	424.6314	453.3717	507.7899	567.4358	630.4046	702.0894	760.6318	819.7002	851.3328	872.1519	933.7824	946.9262	972.094	1035.3329	1070.1711	1094.3493	1136.4401	1173.5641	1185.9228	1194.494	1229.3298	1262.4726	1343.8561	1368.1572	1410.2312	1419.0028	1456.0481	1478.1737	1478.2062	1676.0801	2330.6782	3020.7928	3025.5723	3062.8225	3072.1949	3128.148	3174.0181	3187.9559	3483.1416
CC1=C(C#N)C2NC2C1	CC1=C(C#N)[C@H]2N[C@H]2C1	
InChI=1S/C7H8N2/c1-4-2-6-7(9-6)5(4)3-8/h6-7,9H,2H2,1H3	InChI=1S/C7H8N2/c1-4-2-6-7(9-6)5(4)3-8/h6-7,9H,2H2,1H3/t6-,7+/m0/s1
