16
gdb 65887	4.0893	0.75795	0.70814	4.1119	84.22	-0.2724	-0.0469	0.2255	1562.4432	0.123463	-400.714935	-400.706029	-400.705085	-400.749378	31.494	
C	-0.0886688727	 1.5730040808	-0.0009747671	-0.454486
C	-0.0181746237	 0.0396815288	-0.0024042506	 0.044227
C	 1.1815472305	-0.5293006135	-0.8266473792	-0.10283
O	 1.9280352337	-0.7989729723	 0.3705167336	-0.261182
C	 0.784042632	-0.5494729546	 1.2025020444	-0.102831
C	-1.3089132107	-0.5595580339	-0.2612147039	 0.10335
C	-2.3879452038	-1.0611928334	-0.4775571948	 0.022119
C	-3.6054043767	-1.6276031411	-0.7216331381	 0.200388
N	-4.6421520252	-2.1093228113	-0.9294215089	-0.3355
H	 0.9049814419	 1.9848516658	 0.197783327	 0.138202
H	-0.4347951114	 1.9478918753	-0.9682145526	 0.138372
H	-0.7755573609	 1.9306072582	 0.7711655941	 0.138373
H	 0.9481667588	-1.4424695056	-1.3866714308	 0.117518
H	 1.684028649	 0.1905053727	-1.4817843087	 0.11838
H	 0.999518564	 0.1557640409	 2.0124547037	 0.11838
H	 0.3600482951	-1.472315897	 1.6154920719	 0.117518
64.6145	86.4025	107.746	221.2846	224.1237	260.0115	330.8116	333.2135	471.3929	513.2401	534.2198	587.3977	588.2293	818.8983	846.4289	909.7119	935.0195	969.5076	1014.2633	1047.2108	1076.1568	1150.0589	1161.9012	1164.224	1203.2692	1305.6531	1312.1425	1365.0399	1413.9415	1489.2722	1496.0515	1509.3298	1531.9307	2261.1668	2394.9859	3019.7169	3029.5135	3042.803	3078.823	3080.1597	3121.9089	3122.2019
CC1(COC1)C#CC#N	CC1(COC1)C#CC#N	
InChI=1S/C7H7NO/c1-7(3-2-4-8)5-9-6-7/h5-6H2,1H3	InChI=1S/C7H7NO/c1-7(3-2-4-8)5-9-6-7/h5-6H2,1H3
