21
gdb 68671	2.26117	1.7469	1.38983	2.8997	81.67	-0.2267	-0.0057	0.221	1057.2297	0.18426	-387.118771	-387.110528	-387.109584	-387.151096	32.683	
C	-0.0184108116	 1.5877597011	 0.0249337372	-0.47764
C	 0.0405965969	 0.074240274	-0.0507487302	 0.198963
C	 0.7018052421	-0.6482628875	-1.2781905512	-0.287803
C	-0.365967309	-1.779193725	-1.1172936303	-0.137869
C	 0.0490261471	-2.7779780675	-0.0076000332	-0.214011
C	 0.9194549319	-2.072439898	 1.057592315	-0.212074
C	 0.5333771447	-0.5904790891	 1.2669448557	-0.241797
C	-1.225543708	-0.6952590769	-0.4590436778	 0.413575
O	-2.4003205802	-0.4657623627	-0.3910189771	-0.336132
H	 0.9756274077	 2.0145698074	 0.1988042114	 0.114223
H	-0.4176410366	 2.0160550963	-0.8996570369	 0.119823
H	-0.669725024	 1.9069560149	 0.8454950097	 0.129771
H	 0.5544661157	-0.0811203917	-2.2004434005	 0.10643
H	 1.7526395796	-0.9308108267	-1.1907608761	 0.10103
H	-0.7605300084	-2.2787293083	-2.0039257039	 0.083215
H	-0.8571705837	-3.2026562574	 0.4395272935	 0.115938
H	 0.603365545	-3.6153967171	-0.4449712366	 0.102587
H	 0.8767914634	-2.6147727013	 2.0069761509	 0.101543
H	 1.96497289	-2.1170128677	 0.7369735421	 0.108068
H	 1.3967721926	-0.0338457747	 1.6510017507	 0.098827
H	-0.2580883952	-0.4917738921	 2.0196425975	 0.113333
125.3713	178.3826	196.5453	225.4655	253.5358	303.0357	406.6347	416.2463	487.808	530.6097	667.924	694.3222	761.677	797.9817	818.0649	859.1904	878.0159	898.4595	916.1495	957.4777	1006.0211	1036.5429	1061.8699	1069.8169	1080.7009	1118.7604	1164.2083	1199.7553	1205.9015	1226.8791	1241.1579	1275.1673	1295.9399	1302.1127	1358.3655	1370.3407	1376.5909	1408.9783	1486.6562	1487.0291	1491.3123	1496.6682	1500.1578	1519.9352	1880.4285	3022.8023	3029.8663	3033.6837	3046.4451	3060.9595	3068.3471	3069.0722	3090.6798	3096.6229	3098.7903	3104.6196	3124.5429
CC12CC(CCC1)C2=O	C[C@@]12C[C@@H](CCC1)C2=O	
InChI=1S/C8H12O/c1-8-4-2-3-6(5-8)7(8)9/h6H,2-5H2,1H3	InChI=1S/C8H12O/c1-8-4-2-3-6(5-8)7(8)9/h6H,2-5H2,1H3/t6-,8+/m1/s1
