12
gdb 128627	2.13178	0.9424	0.71066	3.4777	57.48	-0.291	-0.0267	0.2643	1498.8181	0.071944	-506.039226	-506.028032	-506.027088	-506.081371	31.945	
C	 0.0310909296	 1.5688517843	 0.1493609586	-0.230247
O	-0.2258918883	 0.1709687882	-0.0360990284	-0.223033
C	 0.1432328466	-0.4436353774	-1.1602978676	 0.493767
N	 0.7794430942	 0.4229321733	-2.0808236112	-0.494174
C	 1.2401385968	 0.1781911475	-3.1818523742	 0.615373
O	 1.7078694183	 0.0734201825	-4.2386144593	-0.259025
N	 2.6392662336	-2.7689322303	-2.4228375631	-0.002716
N	 2.6256983611	-3.8669048842	-2.3915012034	 0.001104
O	-0.0573644354	-1.6095285993	-1.3460998494	-0.339703
H	 1.1029301659	 1.7786328597	 0.1197372836	 0.144672
H	-0.4793545403	 2.166318019	-0.6097372263	 0.144509
H	-0.366944302	 1.8027988367	 1.1369541408	 0.149473
13.115	23.7425	40.8012	47.0885	85.4823	90.4478	112.4464	124.5193	172.2721	286.2027	544.7443	573.9454	634.0131	667.2045	758.9862	824.8806	1067.9782	1171.8246	1174.758	1257.3122	1456.1548	1489.9215	1491.4322	1497.2295	1843.2629	2356.0942	2433.8762	3051.7853	3131.4069	3156.9519	13.1155	23.7404	40.7989	47.088	85.4812	90.4475	112.4464	124.5181	172.2715	286.2028	544.7443	573.9454	634.0127	667.2044	758.986	824.8805	1067.9785	1171.8247	1174.7582	1257.3126	1456.1549	1489.9219	1491.4327	1497.2299	1843.2623	2356.0942	2433.8762	3051.7854	3131.407	3156.9519
COC1=NC(=O)N=NO1	COC(=O)N=C=O.N#N	
InChI=1S/C3H3N3O3/c1-8-3-4-2(7)5-6-9-3/h1H3	InChI=1S/C3H3NO3.N2/c1-7-3(6)4-2-5;1-2/h1H3;
