18
gdb 85968	3.27768	1.16671	1.01096	4.7155	67.69	-0.2489	0.0153	0.2642	1185.6385	0.147909	-476.241126	-476.232422	-476.231478	-476.274452	33.352	
N	-0.0945475174	 0.6602800578	 0.4758572153	-0.594629
H	-0.3208525112	-0.30466688	 0.6995005284	 0.252159
H	 0.9176456817	 0.7421283755	 0.5445845296	 0.238651
H	-0.4810491531	 2.1135844167	-0.7247685131	 0.306072
C	-0.736827404	 1.549260915	 1.4495749763	 0.152606
C	-2.1364736162	 1.0010106459	 1.8864534847	-0.247617
C	-1.4892006215	 0.4420709349	 3.169541009	 0.102484
O	-1.1591261977	-0.9219530015	 2.9367987627	-0.435452
C	-0.2972457546	 1.409785774	 2.9394401573	-0.291384
C	-0.7810371186	 2.9752233639	 0.8918202002	 0.400958
O	-0.6318555391	 3.0400545154	-0.4389247668	-0.373337
O	-0.9752553474	 3.9461707833	 1.575932546	-0.353106
H	-2.8287724875	 1.8171299985	 2.0981096388	 0.134244
H	-2.605503845	 0.2713901645	 1.2226312361	 0.118343
H	-2.0507694118	 0.5555655356	 4.1041587895	 0.076585
H	-0.5772928122	-1.2126969427	 3.6471214746	 0.286436
H	 0.7057635247	 1.0124598001	 3.1215893153	 0.089629
H	-0.4259232791	 2.3588986131	 3.4636852461	 0.137358
78.2877	113.4092	174.9266	244.4178	342.8658	349.0135	358.6678	379.1438	415.3944	423.3712	479.6511	550.8515	726.9239	737.4876	832.339	846.9783	853.1521	864.6726	905.9245	950.3306	954.2328	995.4573	1007.7909	1080.2077	1123.4927	1180.3113	1193.4589	1215.6426	1241.6456	1270.7897	1283.4105	1325.3013	1339.585	1412.4601	1423.3981	1450.2331	1475.4873	1669.048	1860.0067	3030.6093	3055.3649	3078.0864	3130.8992	3144.9374	3477.6491	3507.7711	3560.7495	3808.864
[NH3+]C1(CC(O)C1)C([O-])=O	N[C@]1(C[C@@H](O)C1)C(=O)O	
InChI=1S/C5H9NO3/c6-5(4(8)9)1-3(7)2-5/h3,7H,1-2,6H2,(H,8,9)	InChI=1S/C5H9NO3/c6-5(4(8)9)1-3(7)2-5/h3,7H,1-2,6H2,(H,8,9)/t3-,5+
