16
gdb 47025	3.87907	1.33162	1.03299	2.4817	72.2	-0.2467	-0.0405	0.2062	1094.7285	0.126623	-437.89511	-437.887945	-437.887001	-437.926743	27.738	
O	-0.0123032627	-0.0542783682	 0.0323262184	-0.376396
C	-0.0145044856	 1.1619800667	-0.0080715179	 0.431464
N	-1.1912129482	 1.8900344065	-0.066480198	-0.349843
C	-1.290344712	 3.3283506574	 0.1999535516	-0.207656
C	-0.1755634399	 3.9599633151	-0.6216801638	 0.092292
O	 0.4158229324	 5.2097526081	-0.1754748406	-0.302545
C	 1.7497421617	 4.6194478109	-0.179282261	-0.166642
C	 1.1182942786	 3.2602565803	-0.3337320392	 0.279196
C	 1.2319310231	 1.9861289931	 0.0142289034	-0.366291
H	-2.0178108243	 1.322078078	 0.043850297	 0.250855
H	-2.2847909996	 3.6739190551	-0.0944398573	 0.12048
H	-1.1390154127	 3.5699169024	 1.2620941108	 0.117614
H	-0.4516080264	 4.0128414698	-1.6841694883	 0.10001
H	 2.3438154454	 4.9726913008	-1.032730524	 0.122595
H	 2.2978558535	 4.80967083	 0.7497226171	 0.132954
H	 2.1393523565	 1.4988402737	 0.3497638517	 0.121913
113.1151	198.4755	214.0403	311.9584	361.6438	438.3196	450.435	536.6259	542.4697	662.5119	730.0533	803.4541	820.5352	874.7654	877.2925	967.5687	991.2803	1008.1929	1052.7231	1085.7448	1105.8482	1125.7838	1139.9439	1217.012	1244.8443	1267.3652	1310.1805	1335.0996	1371.1276	1379.1846	1454.7959	1503.2967	1511.5125	1764.7412	1787.5881	2998.9203	3008.5173	3015.5237	3072.7419	3092.025	3211.5702	3622.4338
O=C1NCC2OCC2=C1	O=C1NC[C@H]2OC[C]2[CH]1	
InChI=1S/C6H7NO2/c8-6-1-4-3-9-5(4)2-7-6/h1,5H,2-3H2,(H,7,8)	InChI=1S/C6H7NO2/c8-6-1-4-3-9-5(4)2-7-6/h1,5H,2-3H2,(H,7,8)/t5-/m1/s1
