13
gdb 21917	5.16834	1.84177	1.44706	2.5019	59.52	-0.2645	0.0015	0.266	807.3049	0.098212	-394.753396	-394.747159	-394.746215	-394.784026	22.861	
O	 0.2961018962	 1.3269517358	 0.3510882105	-0.405623
C	 0.1011110218	-0.0107973578	 0.0221753589	 0.007559
C	-1.3948699532	-0.5933682822	 0.0322009432	-0.207496
N	-1.1420616402	-0.9170671062	-1.3828865662	 0.085939
N	-1.5039602008	-1.5581592138	-2.5098576743	-0.28001
C	-0.383285101	-1.3855073624	-3.2277364257	 0.022329
N	 0.6533551565	-0.7185741474	-2.6217688597	-0.372
C	 0.1031641675	-0.4547383242	-1.4481822608	 0.305021
H	-0.1243948547	 1.8777223282	-0.3190080705	 0.295944
H	 0.7695280804	-0.5911986344	 0.6620867353	 0.133861
H	-1.5632576301	-1.4677532645	 0.6647517027	 0.145538
H	-2.17469244	 0.1553576842	 0.1887497681	 0.138043
H	-0.3146203525	-1.7585826354	-4.2391664113	 0.130895
107.7917	155.142	281.6785	369.5875	462.7498	502.2802	669.5397	688.1341	759.7412	795.75	858.2318	891.6274	975.0619	1004.6968	1084.2595	1130.1909	1158.817	1168.4756	1198.9096	1242.304	1253.7618	1290.7292	1321.6075	1391.0029	1439.4805	1475.233	1506.6858	1560.7618	3069.657	3099.6448	3135.1011	3258.4607	3803.2064
OC1CN2N=CN=C12	O[C@H]1Cn2ncnc12	
InChI=1S/C4H5N3O/c8-3-1-7-4(3)5-2-6-7/h2-3,8H,1H2	InChI=1S/C4H5N3O/c8-3-1-7-4(3)5-2-6-7/h2-3,8H,1H2/t3-/m0/s1
