21
gdb 41394	2.5654	1.90582	1.36167	0.112	86.81	-0.2287	0.0245	0.2532	1021.3146	0.185127	-349.947378	-349.939991	-349.939047	-349.979274	30.328	
C	-0.0473441274	 1.5578799264	-0.0003552566	-0.225614
C	 1.510762546	 1.5597275444	-0.0089540348	-0.314096
C	 1.5226408177	 0.0249155223	 0.1542595803	 0.382286
C	 2.4787492803	-0.9495613924	-0.5659329894	-0.314095
C	 2.6295888045	-1.7828301569	 0.7419977055	-0.225616
C	 1.8094212881	-0.6920550916	 1.5115433981	-0.10524
C	 0.4517639838	-1.0807583474	 2.0320342076	-0.086369
C	-0.5345370728	-0.7256175437	 1.2030890757	-0.086364
C	-0.0288415582	-0.0086260961	-0.0197896234	-0.105245
H	-0.4873796737	 1.9688267055	 0.9113238882	 0.099537
H	-0.5218154574	 2.036945869	-0.8602361306	 0.095323
H	 1.9288111879	 1.8809011322	-0.9684142567	 0.097546
H	 2.0037053842	 2.1319436619	 0.7831537956	 0.094243
H	 2.0679358511	-1.4730184344	-1.4348885243	 0.094243
H	 3.4131963557	-0.4681412525	-0.8717517127	 0.097546
H	 2.1275480091	-2.7527259967	 0.7115850806	 0.099538
H	 3.6556180533	-1.9346848365	 1.0858377914	 0.095322
H	 2.4085643329	-0.1318171202	 2.2377162037	 0.064628
H	 0.3113195635	-1.6069526305	 2.9712940925	 0.088899
H	-1.5895837449	-0.9088166838	 1.3823342793	 0.088899
H	-0.4015447236	-0.434539299	-0.95779615	 0.064628
65.9309	160.5699	259.9468	277.6695	382.0932	432.2723	570.9897	600.9257	698.8762	741.892	742.0514	762.4918	783.0408	828.8677	841.4579	874.4366	928.9678	936.3081	955.2777	956.7154	973.7948	1020.9588	1040.1849	1089.719	1092.6898	1125.1629	1140.441	1165.8089	1165.9448	1219.2206	1227.1309	1231.9251	1244.0625	1255.1659	1267.8761	1287.3889	1289.2015	1298.7372	1320.6621	1367.2039	1473.2561	1474.6173	1490.0674	1490.1118	1660.9282	3038.9373	3039.9835	3041.6406	3044.194	3060.5647	3062.2651	3083.6506	3085.0583	3116.1803	3116.2584	3167.0112	3192.5626
C1CC23CCC2C=CC13	C1C[C@@]23CC[C@@H]2C=C[C@@H]13	
InChI=1S/C9H12/c1-2-8-4-6-9(8)5-3-7(1)9/h1-2,7-8H,3-6H2	InChI=1S/C9H12/c1-2-8-4-6-9(8)5-3-7(1)9/h1-2,7-8H,3-6H2/t7-,8-,9-/m0/s1
