15
gdb 25473	3.55685	1.4153	1.12863	3.8414	72.13	-0.2232	-0.0471	0.1762	1043.6768	0.113789	-416.810249	-416.802899	-416.801955	-416.843222	26.574	
O	-0.6997780547	 0.3274989961	 0.0450212822	-0.227166
C	-0.2740393588	 1.4315538955	-0.1597466486	 0.16006
C	 1.16675966	 1.8430906806	 0.0306230892	-0.086531
C	 1.4694292923	 2.7696476511	 1.29668195	-0.406367
C	 2.3569380607	 1.6124055773	 1.7197474457	 0.393416
N	 3.2296658058	 1.071927623	 2.5298933554	-0.369309
C	 3.4905846781	-0.1448995857	 1.9090797368	-0.088738
C	 2.7813571179	-0.3122707587	 0.7344037524	-0.167874
N	 2.049864499	 0.8494432734	 0.6503564193	 0.038898
H	-0.9264531223	 2.2615262879	-0.5150481572	 0.089349
H	 1.5516644511	 2.2635670116	-0.906944528	 0.126901
H	 1.9695553226	 3.7095327451	 1.0544819356	 0.142552
H	 0.6017472696	 2.9698793453	 1.9305502333	 0.142757
H	 4.1790731067	-0.8487383218	 2.3524601366	 0.111631
H	 2.7272173819	-1.1188480606	 0.0247444072	 0.140419
41.9399	91.7074	193.9702	210.234	328.8804	478.9416	618.7242	641.7734	688.7581	706.9823	723.0356	784.0935	840.6878	883.0429	915.5188	950.4846	997.9321	1050.5592	1073.7702	1119.8069	1130.2286	1142.2911	1191.2725	1228.8037	1277.8225	1330.9488	1407.6865	1418.3783	1425.4814	1473.7114	1491.9299	1588.2866	1842.9028	2877.4972	3039.2225	3070.7358	3124.5789	3248.6031	3296.2716
O=CC1CC2=NC=CN12	O=C[C@H]1Cc2nccn12	
InChI=1S/C6H6N2O/c9-4-5-3-6-7-1-2-8(5)6/h1-2,4-5H,3H2	InChI=1S/C6H6N2O/c9-4-5-3-6-7-1-2-8(5)6/h1-2,4-5H,3H2/t5-/m1/s1
