14
gdb 49054	2.14922	1.81984	1.32791	4.2855	62.29	-0.252	-0.0612	0.1907	972.6734	0.100133	-473.807517	-473.799789	-473.798845	-473.840641	27.498	
O	-0.6151517791	 0.7406176791	-0.6635864875	-0.230465
C	 0.1337043183	 1.0549527514	 0.2248015715	 0.048356
C	 1.3799068527	 1.8589890506	 0.0131378531	 0.053185
N	 1.6567217373	 3.0152343494	 0.9177752369	-0.363207
C	 1.8371972695	 3.9124292138	-0.2687392825	-0.191896
C	 1.7483627836	 2.7033116602	-1.218002768	 0.056435
O	 3.0108963279	 1.9778434958	-1.3515195383	-0.256928
C	 2.7250902618	 1.1384146956	-0.2994107988	 0.466845
O	 3.3696687894	 0.2410342273	 0.1249551503	-0.310585
H	-0.0539719424	 0.7670739326	 1.2829962565	 0.102358
H	 0.8596541272	 3.263996295	 1.4941362414	 0.235553
H	 1.013547468	 4.6174623247	-0.4222950476	 0.123912
H	 2.788633289	 4.4501620958	-0.2730982097	 0.136728
H	 1.206775317	 2.7466550687	-2.1586078573	 0.129709
49.0893	132.2015	164.8488	195.1905	250.5066	359.715	432.3187	576.3787	649.0125	681.3309	717.5596	779.5903	839.8379	845.6483	939.0273	975.8184	988.5471	1038.3398	1051.6383	1076.445	1129.8554	1166.1686	1194.4867	1259.6593	1317.6696	1336.9374	1386.0609	1417.2199	1491.6158	1820.4652	1946.6671	2891.952	3047.2268	3108.4742	3166.5709	3529.0504
O=CC12NCC1OC2=O	O=C[C@]12NC[C@H]1OC2=O	
InChI=1S/C5H5NO3/c7-2-5-3(1-6-5)9-4(5)8/h2-3,6H,1H2	InChI=1S/C5H5NO3/c7-2-5-3(1-6-5)9-4(5)8/h2-3,6H,1H2/t3-,5+/m1/s1
