23
gdb 95824	2.84153	1.14256	0.88123	1.2413	82.03	-0.2441	0.0747	0.3188	1376.8841	0.206419	-425.433826	-425.424384	-425.42344	-425.467843	36.461	
C	 0.1284543665	 1.6034373402	 0.0833210822	-0.394555
C	 0.0060874799	 0.0838258771	 0.0209350871	 0.134615
C	 0.5899787923	-0.4811577597	-1.2870371262	-0.207352
C	 0.1133064659	-1.8793378492	-1.7275817038	-0.201747
C	-0.2175706721	-2.8909050837	-0.6206418434	 0.126347
O	-0.1819605003	-4.1643864835	-1.2627042255	-0.440943
C	 0.7148349786	-2.8450142926	 0.5987693448	-0.227096
C	 0.3920702037	-1.7143798065	 1.5837679258	-0.075907
O	 0.7212589347	-0.4127308839	 1.1518438375	-0.254654
H	 1.1750505326	 1.9045372385	-0.0298160612	 0.122731
H	-0.4547893987	 2.0732174371	-0.7141244738	 0.110632
H	-0.2303422125	 1.97353232	 1.0471007837	 0.118731
H	-1.0581325402	-0.191761349	 0.1157051981	 0.061436
H	 0.3788503635	 0.2197484609	-2.102381326	 0.094228
H	 1.6777674485	-0.4739048136	-1.1530280345	 0.107916
H	-0.7727972048	-1.7891681067	-2.3652688442	 0.101775
H	 0.8867810866	-2.339896723	-2.3521370761	 0.112756
H	-1.2406352672	-2.6963773811	-0.2552471531	 0.059746
H	-0.4881459812	-4.8240185247	-0.6322034597	 0.276493
H	 0.5979837389	-3.790314064	 1.1478067827	 0.081297
H	 1.7639581816	-2.7906923984	 0.2857882509	 0.108954
H	-0.6792576954	-1.7670379563	 1.8500871548	 0.080114
H	 0.9627322392	-1.8612176379	 2.5064997601	 0.104485
68.1905	123.1541	178.5817	226.1085	277.3513	304.498	310.2397	323.5918	332.9195	412.8123	454.9231	463.9725	559.4256	576.6428	756.356	812.1596	864.1622	871.5412	898.1213	963.2199	972.132	1023.0118	1061.184	1075.3161	1093.7118	1119.4085	1131.4545	1148.6382	1162.9246	1213.2385	1233.9362	1258.0072	1299.5455	1301.5717	1332.7676	1346.4621	1364.8078	1379.5008	1397.7751	1404.5007	1410.153	1424.734	1438.6505	1469.8799	1476.9495	1485.7975	1492.3777	1498.2233	1502.344	2937.758	2944.2785	2960.2427	3009.3706	3031.348	3040.1393	3043.1325	3065.7231	3068.0091	3073.1528	3085.7687	3113.2505	3123.111	3815.0892
CC1CCC(O)CCO1	C[C@H]1CC[C@@H](O)CCO1	
InChI=1S/C7H14O2/c1-6-2-3-7(8)4-5-9-6/h6-8H,2-5H2,1H3	InChI=1S/C7H14O2/c1-6-2-3-7(8)4-5-9-6/h6-8H,2-5H2,1H3/t6-,7+/m0/s1
