15
gdb 109532	2.01645	1.42419	1.13933	5.1848	70.15	-0.292	-0.0172	0.2747	1119.9086	0.112382	-416.811302	-416.802467	-416.801522	-416.845466	31.16	
O	 0.0520836814	 1.3062493446	-0.413316609	-0.415482
C	 0.0168687683	 0.0488474585	 0.2294951248	-0.101274
C	-1.3662969668	-0.5759095564	 0.1538366133	-0.055989
C	-1.8335291319	-1.2266013989	-1.1338110779	-0.18852
C	-0.9471240091	-1.2506312124	-2.2638397341	 0.300952
N	-0.231678941	-1.2173289254	-3.1722839573	-0.329871
C	-1.5517015373	-2.0785567681	 0.1116561697	-0.2075
C	-0.4216651697	-2.9662661391	 0.151679928	 0.311969
N	 0.4769090714	-3.6920449598	 0.2029874639	-0.323679
H	 0.1249222281	 1.1531021946	-1.3619276936	 0.302121
H	 0.7688481788	-0.6413346586	-0.1734191651	 0.134651
H	 0.2671577112	 0.2244828642	 1.2804834103	 0.130681
H	-2.138655988	-0.0305172357	 0.6863941397	 0.130387
H	-2.880796963	-1.1258982722	-1.396970608	 0.155627
H	-2.4362118524	-2.4804933154	 0.5945306254	 0.155928
68.5178	96.7968	110.9606	167.1943	235.7209	270.4385	352.7922	376.2003	428.9523	469.3163	618.3061	631.3825	658.1877	770.5999	790.6919	851.6728	936.1097	987.951	1009.5796	1078.6854	1086.283	1117.5443	1132.5115	1216.2405	1248.2335	1353.8278	1361.0713	1396.6872	1415.4323	1428.7185	1498.5516	2355.3247	2360.911	3030.6336	3087.5227	3168.2677	3171.4729	3182.1975	3808.4342
OCC1C(C#N)C1C#N	OC[C@H]1[C@@H](C#N)[C@H]1C#N	
InChI=1S/C6H6N2O/c7-1-4-5(2-8)6(4)3-9/h4-6,9H,3H2	InChI=1S/C6H6N2O/c7-1-4-5(2-8)6(4)3-9/h4-6,9H,3H2/t4-,5+,6-
