14
gdb 42651	3.08541	1.50538	1.25035	4.114	74.24	-0.2556	-0.01	0.2456	994.645	0.100412	-399.47	-399.462899	-399.461955	-399.501589	27.667	
O	-0.0047359091	 0.081416444	 0.0238804334	-0.307107
C	-0.0928219055	 1.2658154659	 0.0437816597	 0.438469
C	-1.2073287279	 2.299116482	-0.0173440867	-0.257914
C	-0.9309367061	 3.1126950203	 1.2803127532	-0.249871
C	 0.4113079561	 3.4711440255	 0.6346454207	-0.094659
N	 0.9771959392	 2.2632964723	-0.0662422525	-0.227944
C	-0.0835134283	 3.1765683766	-0.7257848844	 0.307474
C	 0.0390551904	 3.746944156	-2.0076781008	 0.033375
C	 0.1023123508	 4.242952845	-3.1015618505	-0.333114
H	-2.2074610369	 2.0701966885	-0.3715269372	 0.115396
H	-1.5716441674	 3.9935956333	 1.3572607351	 0.12855
H	-0.928927415	 2.5599365749	 2.2244859809	 0.123192
H	 1.1435080528	 4.2054955582	 0.9434047863	 0.130398
H	 0.1703013069	 4.6768958876	-4.0686956371	 0.193755
96.2438	163.7074	211.4546	382.0433	448.3236	479.4491	521.6121	563.602	619.6219	623.2387	672.4448	688.5032	740.5873	785.557	847.5587	903.9498	944.4574	968.8187	984.692	1069.4999	1087.4848	1099.6891	1126.2282	1141.049	1208.8225	1264.0431	1275.7517	1411.2257	1498.6819	1929.7838	2242.8428	3059.6595	3124.107	3179.6074	3211.4463	3499.9571
O=C1C2CC3N1C23C#C	O=C1[C@H]2C[C@H]3N1[C@@]23C#C	
InChI=1S/C7H5NO/c1-2-7-4-3-5(7)8(7)6(4)9/h1,4-5H,3H2	InChI=1S/C7H5NO/c1-2-7-4-3-5(7)8(7)6(4)9/h1,4-5H,3H2/t4-,5-,7+,8?/m1/s1
