16
gdb 125725	4.89153	1.08512	0.93029	2.761	73.07	-0.2445	-0.0021	0.2423	1248.2359	0.124892	-434.050395	-434.042422	-434.041478	-434.083616	28.697	
C	-0.3228043545	 1.4212516163	 0.1078839533	-0.48693
C	-0.053133475	-0.0335800324	-0.0630911111	 0.367763
N	 0.4043975464	-0.5248378124	-1.1851525427	-0.180817
O	 0.5133344925	-1.9085445134	-0.9124499761	-0.212763
C	 0.1013964141	-2.0653182576	 0.3511127052	 0.484343
N	-0.2669305314	-0.9596876327	 0.9348562493	-0.379058
N	 0.1878848702	-3.3208302517	 0.8914044068	-0.159814
C	-0.8944839352	-3.837298424	 1.715981936	-0.21519
C	-0.6170906525	-4.4260375997	 0.3717633431	-0.229645
H	 0.2819107117	 1.8242841318	 0.9258129605	 0.148306
H	-0.089783316	 1.9601386296	-0.8115738829	 0.148619
H	-1.3734308316	 1.5844041322	 0.3662128616	 0.145157
H	-0.5763485119	-4.3579503337	 2.6131778266	 0.137361
H	-1.7725159122	-3.2081708395	 1.8261361259	 0.148698
H	-1.3110642439	-4.2025289074	-0.4333238368	 0.144226
H	-0.0922773007	-5.3715215454	 0.2844999413	 0.139743
58.3442	129.7673	145.5689	179.618	258.0439	331.4498	392.4097	528.5642	554.4068	678.6986	710.7761	778.9245	816.9418	908.6553	917.3031	946.7811	997.1667	1040.4132	1049.105	1066.7687	1070.636	1129.8689	1140.923	1174.1199	1183.5405	1253.1634	1359.4378	1394.2946	1434.0449	1473.7352	1475.3922	1496.9228	1523.242	1587.8028	1631.2236	3051.2251	3111.1755	3124.1861	3128.9397	3150.3031	3212.0188	3225.2938
CC1=NOC(=N1)N1CC1	Cc1noc(n1)N1CC1	
InChI=1S/C5H7N3O/c1-4-6-5(9-7-4)8-2-3-8/h2-3H2,1H3	InChI=1S/C5H7N3O/c1-4-6-5(9-7-4)8-2-3-8/h2-3H2,1H3
