19
gdb 110856	2.23938	1.28223	1.09067	1.4589	71.61	-0.2325	0.0693	0.3018	1211.0603	0.15711	-460.104344	-460.094923	-460.093979	-460.138338	35.127	
C	 1.0657243984	 0.626634255	-1.924264137	-0.427733
C	 1.4654643935	-0.6680360475	-1.2491608186	 0.102293
O	 2.9069903655	-0.9082191145	-1.1567990421	-0.307457
C	 2.7676359409	-1.3525865807	 0.1972862498	 0.008312
C	 2.3683670659	-0.2077614725	 1.0956985916	-0.132685
C	 2.9118286625	 1.1984343052	 0.961790816	-0.103666
O	 4.0599976748	 1.3836236109	 1.7803778411	-0.417868
C	 1.3212439148	-0.9229416792	 0.2540338907	 0.252689
O	 0.2352551459	-1.5757818508	 0.8033549392	-0.454339
H	 1.4437819669	 0.649049462	-2.9514803837	 0.132603
H	-0.0271288597	 0.6902313921	-1.9704750856	 0.122361
H	 1.4409835467	 1.5074200873	-1.4000057679	 0.127038
H	 1.0123903734	-1.5185382706	-1.7770263288	 0.093888
H	 3.2814825609	-2.2580010086	 0.4975473803	 0.112192
H	 2.2801924299	-0.5334129224	 2.1321169413	 0.102334
H	 3.1371633062	 1.4152738634	-0.0888202678	 0.108195
H	 2.1802683327	 1.934784799	 1.3117623045	 0.105336
H	 4.7429961819	 0.7901966443	 1.4505815341	 0.284812
H	-0.3017623212	-0.9316202823	 1.2768785629	 0.291695
81.3205	147.0995	179.6197	200.5794	210.5701	254.7806	270.6648	311.2051	329.445	416.8917	432.4072	566.952	594.1067	657.5212	735.5062	802.5884	852.7109	925.7237	942.3983	972.0298	1000.3372	1047.1116	1063.3148	1081.422	1109.2833	1116.7188	1149.8781	1203.5622	1214.5711	1242.5377	1277.1955	1316.229	1338.1458	1385.676	1404.3433	1409.5188	1415.5143	1477.59	1491.487	1496.3703	1506.5235	3013.9573	3032.2758	3041.5637	3076.5194	3103.7623	3125.7189	3136.4286	3187.4364	3802.6146	3811.3868
CC1OC2C(CO)C12O	C[C@H]1O[C@H]2[C@@H](CO)[C@@]12O	
InChI=1S/C6H10O3/c1-3-6(8)4(2-7)5(6)9-3/h3-5,7-8H,2H2,1H3	InChI=1S/C6H10O3/c1-3-6(8)4(2-7)5(6)9-3/h3-5,7-8H,2H2,1H3/t3-,4-,5+,6+/m1/s1
