15
gdb 84417	3.29717	1.28735	0.97369	4.0308	70.34	-0.2429	-0.0409	0.2021	1152.0225	0.113306	-453.996237	-453.988084	-453.98714	-454.029271	29.674	
N	-0.0158009091	 1.4908096025	-0.2583694175	-0.497437
C	-0.0062800595	 0.0446639723	-0.05701322	-0.161828
C	 0.6156899234	-0.5115970597	 1.2082457232	-0.178307
C	-0.2700915642	-1.2603790714	 1.8646742171	-0.007976
N	-1.5089431538	-1.3058868797	 1.1837737877	-0.138152
C	-2.6328657768	-1.9920641824	 1.6184905492	 0.161582
O	-2.6581449608	-2.6489436971	 2.630686347	-0.307413
C	-1.4509995652	-0.5133172437	 0.0124841102	 0.437078
O	-2.3639608652	-0.3363332483	-0.7458717082	-0.328339
H	-0.3004613909	 1.9600865028	 0.5967081512	 0.235089
H	 0.9222172934	 1.8148003767	-0.4706003647	 0.23868
H	 0.4542321797	-0.4023104553	-0.9486905432	 0.132933
H	 1.6326630774	-0.3210677337	 1.5193043008	 0.118785
H	-0.1904581014	-1.8103406577	 2.790124767	 0.16497
H	-3.478237887	-1.8593457652	 0.9265735402	 0.130333
70.4624	147.8989	201.1221	215.3147	250.1857	292.737	337.3267	400.0198	547.6781	581.2319	655.223	716.5471	745.377	802.9055	838.6149	874.8371	944.0124	983.4016	1017.7116	1044.8658	1088.23	1153.7949	1184.4294	1224.2058	1261.0097	1305.3466	1383.9935	1404.3856	1420.5557	1662.2314	1675.2941	1800.9724	1863.7476	3024.8813	3037.3498	3236.7139	3267.2899	3495.1921	3578.5981
NC1C=CN(C=O)C1=O	N[C@H]1C=CN(C=O)C1=O	
InChI=1S/C5H6N2O2/c6-4-1-2-7(3-8)5(4)9/h1-4H,6H2	InChI=1S/C5H6N2O2/c6-4-1-2-7(3-8)5(4)9/h1-4H,6H2/t4-/m0/s1
