13
gdb 128967	4.13599	1.6831	1.19628	5.4533	77.16	-0.2158	-0.0706	0.1453	925.5944	0.093077	-411.781822	-411.775913	-411.774969	-411.812003	23.625	
N	 0.0324081545	 1.3492413264	 0.009516692	-0.22694
C	 1.1370902725	 2.1151828046	 0.0026945586	-0.067928
C	 2.3379049146	 1.4634019381	-0.0125432499	 0.206555
C	 3.7166790295	 1.7461924643	-0.0244449678	-0.163056
N	 4.429100277	 0.6117600392	-0.0377408828	-0.232934
C	 3.5670775236	-0.4462441292	-0.0349977714	-0.12331
C	 2.2538666312	-0.0034008206	-0.0195101721	 0.280718
N	 1.0802270928	-0.6754607233	-0.0115349484	-0.253827
N	-0.0279406468	-0.0399401572	 0.0027505821	-0.101062
H	-0.8904444367	 1.7555903479	 0.0207945612	 0.288926
H	 0.9876142653	 3.1906372676	 0.0099353826	 0.161035
H	 4.1980719397	 2.7150145959	-0.0239156963	 0.111706
H	 3.9276096129	-1.4644851737	-0.0441239975	 0.120117
199.1589	239.3706	382.6208	423.3667	574.363	597.1449	621.7988	648.8463	655.7929	759.3634	775.0068	821.2136	837.7552	869.2497	908.2987	937.0941	941.6364	1124.29	1161.6211	1240.6839	1261.5597	1271.7564	1336.85	1387.8746	1397.7491	1449.4396	1535.8543	1549.9902	1661.2315	3180.6096	3219.7618	3243.6233	3641.2644
N1C=C2C=NC=C2N=N1	[nH]1cc2cncc2nn1	
InChI=1S/C5H4N4/c1-4-2-7-9-8-5(4)3-6-1/h1-3H,(H,7,8)	InChI=1S/C5H4N4/c1-4-2-7-9-8-5(4)3-6-1/h1-3H,(H,7,8)
