13
gdb 9997	2.53338	1.47654	0.98209	3.3813	60.25	-0.2745	-0.0668	0.2077	1096.6227	0.09212	-398.621487	-398.613016	-398.612072	-398.655973	27.68	
O	-0.0885375234	 0.041704257	 0.3550095158	-0.22162
C	-0.0277531296	 1.1843397565	-0.0069891643	 0.165785
C	 1.2607269412	 1.9674976183	-0.1603234855	-0.284903
C	 1.2805278142	 2.8514731889	-1.4207620243	-0.267672
C	 2.2964661686	 4.0104598788	-1.3054148958	 0.164234
O	 2.7175161967	 4.3997337694	-0.253824981	-0.21871
C	 1.5139822237	 2.1041404899	-2.6560515146	 0.270856
N	 1.7286608405	 1.5335457787	-3.637526906	-0.293709
H	-0.9506706423	 1.7695339921	-0.2358209731	 0.078963
H	 1.3518800488	 2.6452932409	 0.6988297118	 0.163205
H	 2.1096216416	 1.2814174052	-0.1356037253	 0.152747
H	 0.3031422747	 3.3524431717	-1.526662412	 0.161867
H	 2.5815205353	 4.4728620227	-2.2713174757	 0.128957
52.2877	75.1716	89.5095	165.113	189.5995	245.9014	320.1206	474.4445	518.6902	571.566	622.1611	723.8637	845.8342	923.3857	1000.2445	1068.0139	1086.3205	1108.3306	1199.5109	1233.3317	1303.542	1331.527	1411.3983	1429.4823	1455.419	1843.6702	1847.5179	2361.2451	2846.5827	2942.8504	2981.4512	3041.0774	3126.8244
O=CCC(C=O)C#N	O=CC[C@@H](C=O)C#N	
InChI=1S/C5H5NO2/c6-3-5(4-8)1-2-7/h2,4-5H,1H2	InChI=1S/C5H5NO2/c6-3-5(4-8)1-2-7/h2,4-5H,1H2/t5-/m1/s1
