16
gdb 73081	2.46308	1.91618	1.36908	2.408	70.41	-0.2353	-0.0584	0.1769	947.163	0.125467	-437.884849	-437.877399	-437.876455	-437.916727	28.979	
O	 0.193101247	 1.3304308405	-0.2393943415	-0.479901
C	 0.0357311672	-0.0411911278	-0.0338487658	 0.30446
C	 0.2144520546	-0.9421346811	-1.300128181	-0.233141
N	-1.155099255	-1.5120598297	-1.1352226481	-0.326145
C	-1.3879451263	-0.6439330969	 0.0618368681	-0.117462
C	-1.3463976752	-1.4812641964	 1.3174668179	-0.023795
C	-0.1670004623	-1.4134197644	 1.9541123203	-0.180966
C	 0.7360809524	-0.4792381792	 1.254755392	 0.312875
O	 1.8013434854	-0.0276985822	 1.6185353985	-0.3566
H	 1.0103077327	 1.5731120172	 0.2217286145	 0.292203
H	 0.3387750672	-0.3074489495	-2.1822759935	 0.12122
H	 1.0083497186	-1.6954613181	-1.2774574571	 0.113629
H	-1.7649369064	-1.272735542	-1.9088521779	 0.22696
H	-2.2330608591	 0.046976516	 0.004120248	 0.096918
H	-2.1778624947	-2.1148164923	 1.6080115198	 0.124985
H	 0.1152311741	-1.9342580141	 2.8602776758	 0.124758
82.776	188.9692	244.4862	295.934	318.078	407.3808	435.5226	493.6227	584.9009	660.3699	713.0825	717.2006	751.7741	836.1216	873.6473	913.7782	941.7524	1001.0375	1004.8594	1018.8445	1050.1354	1063.26	1091.6454	1145.4819	1168.3314	1206.2336	1255.3314	1304.8973	1328.6577	1361.668	1379.86	1414.9906	1496.8928	1630.8294	1802.8175	3041.3105	3080.0633	3098.2456	3191.8467	3225.3509	3536.3496	3715.1147
OC12CNC1C=CC2=O	O[C@]12CN[C@H]1C=CC2=O	
InChI=1S/C6H7NO2/c8-5-2-1-4-6(5,9)3-7-4/h1-2,4,7,9H,3H2	InChI=1S/C6H7NO2/c8-5-2-1-4-6(5,9)3-7-4/h1-2,4,7,9H,3H2/t4-,6+/m0/s1
