13
gdb 13653	5.63991	0.95431	0.86714	4.8027	75.04	-0.2663	-0.0502	0.2161	1248.104	0.094323	-361.429889	-361.42184	-361.420896	-361.463051	28.005	
O	 0.1104181409	 1.382764133	-0.0299098079	-0.413918
C	 0.0305312869	 0.0035065147	 0.0342029134	 0.160439
C	-0.4013476922	-0.7220350216	 1.2644261102	-0.321043
C	-1.3224951912	-0.724172325	 0.0300530093	-0.262921
C	-2.5020312256	 0.0671276758	 0.0557670311	 0.066712
C	-3.4758590517	 0.7887192071	 0.0694998191	 0.062935
C	-4.5846155753	 1.5823098022	 0.0944639897	 0.204039
N	-5.5272177712	 2.2621076275	 0.1173868864	-0.335803
H	-0.7534537156	 1.7645977934	 0.1681990025	 0.296272
H	 0.8033729188	-0.4519806359	-0.5764715017	 0.128046
H	 0.0706778417	-1.6636564246	 1.5211613197	 0.13628
H	-0.7308792319	-0.1253234468	 2.1074377627	 0.141916
H	-1.3883706936	-1.6447844896	-0.5409840944	 0.137048
71.7927	96.2711	127.6587	194.9141	234.9127	377.3354	406.2962	496.7351	550.2615	576.8205	602.7114	697.5394	756.3915	815.9595	898.953	985.6076	1038.9165	1053.7023	1109.5884	1126.0574	1203.5394	1230.9633	1342.0189	1372.336	1429.4521	1475.4989	2255.6922	2383.6962	3141.4289	3159.8415	3172.2564	3237.0801	3780.8411
OC1CC1C#CC#N	O[C@H]1C[C@H]1C#CC#N	
InChI=1S/C6H5NO/c7-3-1-2-5-4-6(5)8/h5-6,8H,4H2	InChI=1S/C6H5NO/c7-3-1-2-5-4-6(5)8/h5-6,8H,4H2/t5-,6+/m1/s1
