17
gdb 9062	4.5409	0.86675	0.767	3.5094	70.04	-0.2615	-0.0358	0.2257	1414.8522	0.139958	-363.892314	-363.882985	-363.882041	-363.927824	31.444	
C	-0.09407091	 1.5485291428	-0.0705874456	-0.414995
C	-0.005692635	 0.0134871703	-0.0070110658	-0.067653
C	 0.7628510385	-0.5016909814	 1.2282302972	-0.197739
C	 2.2529741947	-0.1015372464	 1.2245396161	-0.350597
C	 2.9704451657	-0.6514195511	 2.372702358	 0.260907
N	 3.5210187817	-1.0923996053	 3.2878366708	-0.298323
C	-1.4125356019	-0.560139828	 0.0326974223	 0.15681
O	-1.8742613527	-1.3142283801	-0.7819521638	-0.24033
H	 0.8968660992	 2.0055053277	-0.1368999073	 0.130376
H	-0.6613793544	 1.8694308063	-0.9490886247	 0.139085
H	-0.5911479351	 1.9522762969	 0.8188197273	 0.128555
H	 0.4643521974	-0.3741082533	-0.9178976058	 0.100769
H	 0.2927407245	-0.1253877216	 2.1444920047	 0.125568
H	 0.6979278257	-1.5941709155	 1.2668724693	 0.137007
H	 2.7373464454	-0.4575692358	 0.3077692801	 0.157825
H	 2.3674130159	 0.9870397164	 1.2409512467	 0.157255
H	-2.0159324299	-0.2177631221	 0.9077866903	 0.07548
42.0144	63.6797	81.2337	123.8228	206.9296	246.3216	304.8684	341.7955	382.1639	400.7675	508.9243	589.7599	762.7894	873.3415	914.5642	942.3001	951.8628	968.5525	1035.4609	1115.1052	1131.7752	1156.7452	1218.546	1260.9327	1315.3264	1322.1726	1360.9551	1387.2383	1410.4376	1428.3931	1468.5428	1491.3615	1497.0803	1506.245	1839.8705	2364.0622	2844.5442	3035.4281	3037.8697	3048.6008	3053.9041	3076.7851	3097.9701	3107.3713	3116.263
CC(CCC#N)C=O	C[C@@H](CCC#N)C=O	
InChI=1S/C6H9NO/c1-6(5-8)3-2-4-7/h5-6H,2-3H2,1H3	InChI=1S/C6H9NO/c1-6(5-8)3-2-4-7/h5-6H,2-3H2,1H3/t6-/m0/s1
