16
gdb 26697	2.30226	1.56855	0.94073	1.6502	67.9	-0.1573	0.051	0.2083	1178.6741	0.121754	-475.042912	-475.032753	-475.031809	-475.077623	35.825	
C	-0.0129750399	 1.537887219	 0.0071192585	-0.525308
C	 0.0419121655	 0.0424713223	-0.0126124592	 0.036191
C	 0.0586105844	-0.7922930134	-1.09982612	 0.29522
O	 0.0427785085	-0.5762775109	-2.4453534987	-0.440679
N	 0.0842604291	-2.101926485	-0.6806067356	-0.360433
C	 0.097628833	-2.1231065209	 0.6956672411	 0.315249
O	 0.1033966846	-3.3149332649	 1.3478196852	-0.44669
C	 0.0773247923	-0.8322528378	 1.1380344761	 0.052005
O	-0.0078439796	-0.4799135328	 2.4725519307	-0.456501
H	 0.9571624792	 2.003686276	 0.2291031326	 0.116695
H	-0.3490591603	 1.9444792671	-0.9543144078	 0.102913
H	-0.7192692992	 1.8930454462	 0.7656684532	 0.137222
H	 0.1431124792	 0.368204188	-2.5965762075	 0.303107
H	 0.0996321409	-2.9064835434	-1.2818754614	 0.270656
H	 0.0210596712	-3.1078215613	 2.2861839203	 0.307142
H	 0.8044130211	-0.0281686284	 2.7265320228	 0.293209
90.3124	115.1563	165.9494	186.0305	217.0539	224.2432	234.8208	256.9898	301.7848	312.0616	342.4362	384.6482	540.417	617.4292	624.2112	650.6061	657.1579	747.5424	879.6433	1043.2412	1059.4589	1135.9468	1154.4734	1185.7481	1229.259	1272.0616	1327.5546	1396.1366	1419.7426	1479.426	1500.7973	1527.8008	1540.8858	1651.9218	1700.459	3002.3209	3052.6694	3082.9519	3694.3136	3779.0684	3811.7275	3847.4653
CC1=C(O)NC(O)=C1O	Cc1c(O)[nH]c(O)c1O	
InChI=1S/C5H7NO3/c1-2-3(7)5(9)6-4(2)8/h6-9H,1H3	InChI=1S/C5H7NO3/c1-2-3(7)5(9)6-4(2)8/h6-9H,1H3
