17
gdb 26333	3.55329	1.03674	0.94723	2.8354	71.11	-0.2128	0.0234	0.2362	1281.6558	0.136351	-455.181977	-455.17316	-455.172216	-455.215651	32.958	
C	 0.0731622336	 1.5011365331	-0.1350312472	-0.392109
C	 0.002365423	-0.0146936904	 0.0932753366	 0.014787
O	 0.5465785532	-0.3660472665	 1.360561499	-0.435465
C	-1.4034152713	-0.5271035226	-0.0171181978	 0.280011
C	-2.0220895569	-1.2532361129	-0.9686541463	-0.16843
O	-3.3346886955	-1.4553872402	-0.5629652599	-0.185092
C	-3.4050512547	-0.8329046752	 0.6307974688	 0.462608
N	-4.6274035197	-0.822141653	 1.2488859584	-0.588989
N	-2.306240011	-0.2629381087	 1.0205490858	-0.403988
H	 1.0997157709	 1.8469409207	 0.0134924601	 0.119127
H	-0.2469945066	 1.761470455	-1.1491970089	 0.110501
H	-0.5790106514	 2.0208222377	 0.5738248573	 0.125529
H	 0.6254337975	-0.521107239	-0.6527189214	 0.087376
H	-0.1491566101	-0.1891915465	 2.0063566565	 0.290264
H	-1.7421516151	-1.6899436844	-1.9102882643	 0.144168
H	-5.2172194106	-1.6147480713	 1.0432576914	 0.267392
H	-4.5768785453	-0.5932284558	 2.2300069919	 0.272311
56.5979	126.0766	167.3614	254.3604	269.9334	312.0402	339.2036	378.6596	423.4848	447.8215	513.0288	578.1402	657.5294	679.1107	730.4867	758.3792	783.791	903.3213	971.3249	994.1018	1023.8871	1088.6424	1096.0864	1106.9939	1143.7189	1220.4809	1279.7507	1320.8373	1352.9987	1396.9022	1431.9592	1448.2658	1488.5065	1495.7657	1604.8346	1648.2363	1687.0448	3036.6611	3047.3009	3111.594	3122.338	3303.5184	3581.3196	3691.0788	3777.8239
CC(O)C1=COC(N)=N1	C[C@@H](O)c1coc(N)n1	
InChI=1S/C5H8N2O2/c1-3(8)4-2-9-5(6)7-4/h2-3,8H,1H3,(H2,6,7)	InChI=1S/C5H8N2O2/c1-3(8)4-2-9-5(6)7-4/h2-3,8H,1H3,(H2,6,7)/t3-/m1/s1
