17
gdb 111083	3.91713	1.13401	1.10944	4.401	68.73	-0.2586	0.0106	0.2693	1146.4034	0.13649	-458.961925	-458.95424	-458.953296	-458.994453	28.95	
C	-0.0245797845	 1.3422467984	-0.1922943417	-0.250485
O	-0.0727800106	 0.0415440143	 0.366925723	-0.254707
C	-1.3109720089	-0.5788699382	 0.2224417403	 0.152948
C	-1.5770375846	-1.3466118751	-1.1156305134	 0.047906
C	-0.6133538635	-2.4377727283	-0.6059456151	-0.246442
C	-1.2898609735	-2.0538333017	 0.757371455	-0.230528
C	-2.7294074372	-2.4191520912	 0.4314700306	 0.449731
O	-3.585658324	-2.9807047483	 1.042113018	-0.346003
O	-2.8895610932	-1.914440543	-0.8437163309	-0.242793
H	 0.9680081867	 1.7434658002	 0.0208875045	 0.138523
H	-0.1781036852	 1.3283485881	-1.2804313054	 0.114843
H	-0.7822010437	 1.9990704991	 0.2588903612	 0.119367
H	-2.1338768989	 0.0670392073	 0.5606473519	 0.089362
H	-1.5652139558	-0.9104507018	-2.1116194835	 0.098227
H	-0.7596031042	-3.4504101933	-0.9860027579	 0.119958
H	 0.4318516901	-2.1365113614	-0.6444638785	 0.133974
H	-0.9121330491	-2.3287635753	 1.7375235718	 0.106118
81.9591	153.5413	167.8517	213.434	316.0412	388.7739	454.9576	502.5394	527.0398	643.8118	756.0618	803.0879	867.9187	877.0174	915.4418	943.0272	961.0456	1013.7956	1016.3896	1046.1534	1088.265	1122.8599	1144.3713	1161.203	1182.4266	1199.15	1231.6403	1236.2173	1263.1981	1277.0824	1317.3613	1391.6336	1479.2345	1487.7113	1490.7896	1507.7257	1916.5659	2990.8483	3010.592	3044.7795	3089.8363	3129.5983	3154.7246	3168.7749	3175.6911
COC1C2CC1C(=O)O2	CO[C@H]1[C@H]2C[C@@H]1C(=O)O2	
InChI=1S/C6H8O3/c1-8-5-3-2-4(5)9-6(3)7/h3-5H,2H2,1H3	InChI=1S/C6H8O3/c1-8-5-3-2-4(5)9-6(3)7/h3-5H,2H2,1H3/t3-,4+,5+/m0/s1
