22
gdb 99295	5.64364	0.59806	0.57838	3.4026	84.91	-0.2412	0.0382	0.2794	1995.9136	0.193372	-404.373918	-404.36334	-404.362395	-404.411544	37.092	
C	 0.0527519158	 1.4177774983	-0.1294125174	-0.332911
N	-0.1075095816	-0.0224491794	-0.1562416062	-0.312936
C	-1.2589730039	-0.643962521	 0.2357087483	 0.415441
O	-2.2452969987	-0.0331877981	 0.6116813488	-0.378885
C	-1.2162946754	-2.1692667991	 0.1907391765	-0.309502
C	-2.5520459246	-2.7674447991	-0.2706312231	-0.195249
C	-2.5952068956	-4.2749653186	-0.1489853811	 0.029305
C	-2.9557778105	-4.919749187	 1.1674562467	-0.256631
C	-3.9127041836	-4.9899269874	 0.001537943	-0.276587
H	 0.8593524131	 1.7198311948	 0.5484812786	 0.123139
H	 0.2683968223	 1.8152171734	-1.1276720018	 0.123262
H	-0.8881235018	 1.8393752754	 0.2261204418	 0.17177
H	 0.6671061265	-0.5903482481	-0.4551708556	 0.242735
H	-0.3926178059	-2.5222877738	-0.4419734898	 0.08703
H	-0.999477848	-2.5178765789	 1.2090190014	 0.130427
H	-3.3491609029	-2.3150011252	 0.3278049561	 0.12393
H	-2.7435461024	-2.4699591854	-1.3099039216	 0.09814
H	-1.8423242166	-4.7973379432	-0.7358641629	 0.074713
H	-2.4379887182	-5.8250874026	 1.4646686291	 0.107327
H	-3.2168000011	-4.2661001682	 1.9938824048	 0.11369
H	-4.8120667188	-4.3845931274	 0.0495446827	 0.113465
H	-4.045933538	-5.9426234993	-0.4992344284	 0.108327
26.4166	53.3654	83.8026	99.1588	111.5751	169.0582	250.3131	274.1752	353.1046	393.3223	442.279	474.2139	629.2771	714.5972	764.3171	780.0849	826.8135	845.8784	891.4327	933.5886	951.8113	1024.0984	1050.8892	1057.6218	1078.4045	1082.2766	1134.1189	1142.1835	1154.5657	1171.8112	1199.1387	1222.6964	1226.2729	1239.3393	1285.7663	1337.3828	1381.9594	1415.9449	1436.8311	1465.0029	1469.9504	1491.987	1492.9326	1500.7571	1507.5918	1557.9634	1775.0592	3019.3109	3024.9227	3026.8152	3057.7988	3075.5907	3087.3395	3124.3673	3127.4482	3133.2219	3153.3016	3205.4618	3220.6858	3653.2799
CNC(=O)CCC1CC1	CNC(=O)CCC1CC1	
InChI=1S/C7H13NO/c1-8-7(9)5-4-6-2-3-6/h6H,2-5H2,1H3,(H,8,9)	InChI=1S/C7H13NO/c1-8-7(9)5-4-6-2-3-6/h6H,2-5H2,1H3,(H,8,9)
