24
gdb 122512	4.7126	0.55392	0.52405	2.3287	87.61	-0.2207	0.0802	0.3009	2177.4387	0.215795	-405.513902	-405.502875	-405.501931	-405.551153	39.224	
C	 0.1017296825	-2.92415001	-0.2740057738	-0.379674
C	 0.7801367948	-1.5504184955	-0.3415625165	-0.198979
C	 1.3109429726	-1.1226066428	 1.0135218104	 0.028959
C	 2.7122487425	-1.4211368839	 1.4308229544	-0.25539
N	 2.2798641263	-0.0443633045	 1.2097897782	-0.090724
C	 2.8303175091	 0.6693613173	 0.0629875847	-0.142824
C	 4.0730602087	 1.4546062362	 0.4843844293	-0.163722
C	 4.6701387576	 2.2677104609	-0.6560339635	-0.074066
O	 5.8214673986	 2.9346039383	-0.160195143	-0.420134
H	-0.724418964	-2.9214249486	 0.4454076094	 0.117889
H	-0.3057927697	-3.2123504399	-1.2476855476	 0.112795
H	 0.8102678236	-3.6979471413	 0.0390726507	 0.11996
H	 1.5883678142	-1.5796818279	-1.0791113176	 0.099018
H	 0.0577500116	-0.8049582705	-0.7000290409	 0.100643
H	 0.5467427419	-1.1346707959	 1.7921574392	 0.084652
H	 2.9542842418	-1.6931168926	 2.455120076	 0.11147
H	 3.3585958968	-1.8752894679	 0.6783317889	 0.100516
H	 3.0881751394	 0.0029521086	-0.7781210002	 0.079565
H	 2.0597790624	 1.3601950007	-0.3032055384	 0.098979
H	 3.8166122734	 2.1242637961	 1.3115295184	 0.116311
H	 4.8369205875	 0.7640657603	 0.8608854451	 0.10701
H	 4.9282454813	 1.6019717078	-1.4967596125	 0.080728
H	 3.9239616984	 2.9876400377	-1.031658285	 0.082818
H	 6.1968480286	 3.4570167873	-0.8747822955	 0.2842
48.6528	80.9249	82.698	98.1822	133.4504	186.713	226.4192	267.1078	268.9699	299.3305	374.9309	436.846	449.2173	581.7975	747.6051	774.3983	794.0426	839.1356	882.8017	922.5303	960.2831	998.8808	1028.9924	1048.337	1052.1003	1072.229	1087.7687	1114.8145	1146.0267	1151.4385	1187.5324	1193.298	1234.78	1242.3812	1282.936	1307.5248	1314.4445	1322.9196	1338.97	1344.8913	1406.5207	1410.7923	1428.4035	1466.0634	1485.3417	1490.1208	1499.5486	1502.6812	1508.0601	1517.11	1531.1414	2946.1325	2956.277	2978.4089	3020.2428	3032.7791	3033.6016	3046.0438	3068.4373	3076.9788	3089.8169	3094.0682	3104.9707	3107.4841	3166.5844	3829.3382
CCC1CN1CCCO	CC[C@H]1CN1CCCO	
InChI=1S/C7H15NO/c1-2-7-6-8(7)4-3-5-9/h7,9H,2-6H2,1H3	InChI=1S/C7H15NO/c1-2-7-6-8(7)4-3-5-9/h7,9H,2-6H2,1H3/t7-,8?/m0/s1
