15
gdb 133083	3.85583	1.1162	0.87043	4.3516	71.25	-0.2543	-0.0181	0.2361	1239.9596	0.113327	-461.969743	-461.962248	-461.961303	-462.001996	28.034	
C	-0.0560955347	 1.390870624	 0.0854568957	-0.25187
O	 0.0090628344	-0.0241132234	-0.0113818573	-0.25991
C	 0.6207943087	-0.5655771796	-1.0839072076	 0.455749
C	 1.2079095384	 0.1611751056	-2.1286391877	-0.278475
C	 1.7991920292	-0.5538444025	-3.1629212641	 0.007807
N	 1.8482242923	-1.8872650913	-3.2328959352	-0.328734
C	 1.2856295614	-2.5334825486	-2.2323435249	 0.367148
F	 1.3321691079	-3.8620100902	-2.2981968792	-0.074238
C	 0.6607832136	-1.9602790113	-1.1371922259	-0.392696
H	 0.9449273412	 1.8362898839	 0.1272979269	 0.133635
H	-0.6107823725	 1.8250116681	-0.7548029128	 0.133637
H	-0.5848540017	 1.6032945465	 1.0153035091	 0.144798
H	 1.2120285177	 1.2418613488	-2.1492633254	 0.103874
H	 2.2627084321	-0.0177822591	-3.9872639534	 0.117501
H	 0.2205813418	-2.5616577211	-0.3532376382	 0.121775
92.0071	201.3828	232.3031	235.7404	264.9971	377.0069	476.6565	479.5014	568.3797	590.0532	675.1994	755.0615	772.5886	827.6392	876.5215	960.6925	978.6292	1004.8035	1069.3576	1135.1831	1176.5881	1194.5577	1216.6058	1324.1278	1330.6448	1346.445	1463.3051	1484.0574	1491.2018	1503.48	1524.8035	1613.4439	1644.1772	3016.7018	3082.0612	3144.5111	3161.7517	3225.6803	3227.0348
COC1=CC=NC(F)=C1	COc1ccnc(F)c1	
InChI=1S/C6H6FNO/c1-9-5-2-3-8-6(7)4-5/h2-4H,1H3	InChI=1S/C6H6FNO/c1-9-5-2-3-8-6(7)4-5/h2-4H,1H3
