19
gdb 85338	1.96154	1.69425	0.93693	5.0105	84.08	-0.2045	-0.0022	0.2023	1247.7916	0.160549	-419.246586	-419.237873	-419.236929	-419.279603	33.861	
C	-0.0116184295	 1.5106456307	 0.0616612781	-0.402021
C	-0.0050961814	-0.0050015448	-0.0552636895	 0.126005
C	 0.8150226175	-0.5219202533	-1.2376132425	-0.312148
C	 0.95518782	-2.0191572569	-1.1499958357	 0.32811
N	 1.116349775	-2.6891477106	-2.3457062915	-0.5705
C	 0.8709507805	-2.6213877331	 0.0531518663	-0.229616
C	 0.7091591444	-1.8698092899	 1.2865279493	 0.37407
N	 0.7969425462	-2.4249039355	 2.4303150262	-0.5437
O	 0.5125762701	-0.5112121437	 1.1817241323	-0.277252
H	 1.0068375423	 1.89009438	 0.1896100428	 0.126096
H	-0.443790283	 1.9625605198	-0.8363875657	 0.115837
H	-0.6039103073	 1.8207351451	 0.9261296045	 0.131174
H	-1.0361308118	-0.3714083627	-0.1700436974	 0.087424
H	 0.3172671635	-0.2428070619	-2.1737742983	 0.113314
H	 1.8074312	-0.0498018913	-1.2425611401	 0.121936
H	 1.5176465176	-2.162136214	-3.1061316438	 0.252337
H	 1.467377531	-3.633875217	-2.2883938318	 0.256332
H	 0.981194393	-3.6928354879	 0.1707112849	 0.093272
H	 0.6546599019	-1.7235166231	 3.159318572	 0.209329
121.6819	140.7106	175.7962	227.5488	266.2944	316.8468	373.4103	444.504	458.4857	466.4574	518.7555	525.3618	577.6096	636.3449	693.9462	854.0744	866.3601	887.7708	894.7538	904.2934	939.1804	994.1915	1075.6304	1099.3689	1123.4673	1152.2616	1166.7183	1233.7469	1262.548	1305.0562	1347.6483	1388.5751	1403.079	1411.4941	1427.6801	1464.7561	1483.9978	1499.6608	1647.8742	1696.9455	1722.8044	2992.6398	3014.4664	3043.4069	3065.117	3116.4843	3126.1343	3201.3881	3469.8638	3569.56	3676.2518
CC1CC(N)=CC(=N)O1	C[C@H]1C[C](N)C=C([NH])O1	
InChI=1S/C6H10N2O/c1-4-2-5(7)3-6(8)9-4/h3-4,8H,2,7H2,1H3	InChI=1S/C6H10N2O/c1-4-2-5(7)3-6(8)9-4/h3-4,8H,2,7H2,1H3/t4-/m0/s1
