13
gdb 127808	3.66323	1.76995	1.20245	3.0737	65.81	-0.2499	-0.0507	0.1992	936.775	0.091635	-445.058309	-445.051529	-445.050584	-445.090021	24.429	
C	 0.071631281	 1.4329204851	-0.0308189626	-0.341566
N	 0.0234248563	-0.0125254749	 0.0389843087	-0.1362
N	-0.1275346439	-0.7762520587	-1.0758904191	-0.093214
N	-0.1424908793	-2.0213284034	-0.7727948477	-0.129038
N	 0.0034262631	-2.0807546979	 0.5877554564	 0.000254
C	 0.0890180447	-2.9261487895	 1.6693843234	 0.000905
N	 0.2353483267	-2.195795829	 2.7523495525	-0.202534
N	 0.2517331694	-0.8446886255	 2.4260038195	-0.354044
C	 0.1099016518	-0.8336106414	 1.1228105559	 0.575915
H	 1.0251975535	 1.7971787659	 0.3599044176	 0.168082
H	-0.0313535399	 1.7122519978	-1.0788537516	 0.175308
H	-0.7454588627	 1.8655764558	 0.5521153779	 0.168067
H	 0.0415898093	-3.9996150943	 1.6140906992	 0.168065
76.0945	145.6996	247.081	254.3093	356.0772	521.3575	636.264	653.2698	660.5464	713.4288	752.6575	773.4001	883.4059	986.8622	1011.6596	1023.0743	1157.4452	1171.2499	1200.2049	1261.9086	1293.7443	1384.4027	1401.4509	1436.8989	1455.6874	1478.1155	1485.8868	1510.4937	1633.3769	3056.8387	3125.8928	3171.5065	3302.8155
CN1N=NN2C=NN=C12	Cn1nnn2cnnc12	
InChI=1S/C3H4N6/c1-8-3-5-4-2-9(3)7-6-8/h2H,1H3	InChI=1S/C3H4N6/c1-8-3-5-4-2-9(3)7-6-8/h2H,1H3
