20
gdb 119127	2.33513	1.2074	0.95562	2.6508	76.67	-0.2368	-0.0117	0.2251	1333.595	0.168228	-440.264944	-440.254687	-440.253743	-440.301114	35.997	
C	-0.5595459316	 1.7172260435	 0.0944832462	-0.22405
O	-0.3218672348	 0.3664806282	-0.2270517764	-0.242876
C	-1.3089746627	-0.5023090708	 0.2930612437	-0.151292
C	-0.8612245806	-1.918482283	 0.0247081284	 0.207721
C	-1.8676801002	-2.8833278954	-0.5276070037	-0.279465
N	-0.7844665263	-2.3878561789	-1.3700070692	-0.337641
C	 0.2075222802	-2.4379408063	 0.9648917067	 0.354885
C	 1.1279978146	-3.5240505574	 0.4521135868	-0.478318
O	 0.3006627849	-1.9829236867	 2.0834633339	-0.313989
H	 0.2508695987	 2.3041359183	-0.3440475782	 0.129405
H	-1.5182157997	 2.073174376	-0.316399166	 0.100497
H	-0.5707697836	 1.8801930253	 1.1829020203	 0.114205
H	-1.423286069	-0.3589905147	 1.3762842557	 0.120863
H	-2.2828693574	-0.3067238299	-0.1877596943	 0.075574
H	-1.8077830643	-3.9366256639	-0.2681887806	 0.12595
H	-2.8786022949	-2.5114842965	-0.673891574	 0.122922
H	-1.1044546372	-1.6481938054	-1.9903250502	 0.244268
H	 1.7433728414	-3.1209062053	-0.3585682936	 0.157967
H	 1.7611243866	-3.8718322152	 1.2688617653	 0.133794
H	 0.5699353558	-4.3598993517	 0.0205179891	 0.139579
51.8341	59.7572	99.9982	130.9184	155.033	222.2282	251.6112	274.4439	343.1226	348.7904	439.9328	499.1078	531.5313	611.0846	707.1455	850.1322	864.062	934.262	949.147	983.2855	994.0964	1048.9697	1051.7974	1077.8991	1135.3301	1156.1478	1172.9594	1185.7706	1226.6067	1249.9757	1264.9899	1335.7076	1380.8208	1395.5859	1422.8617	1452.1845	1467.1708	1476.8502	1486.4356	1496.0716	1514.3498	1518.8995	1799.1041	2954.3949	2972.1073	3019.2032	3033.962	3050.9193	3108.1927	3112.7645	3117.2138	3157.9122	3193.0394	3505.7228
COCC1(CN1)C(C)=O	COC[C@]1(CN1)C(=O)C	
InChI=1S/C6H11NO2/c1-5(8)6(3-7-6)4-9-2/h7H,3-4H2,1-2H3	InChI=1S/C6H11NO2/c1-5(8)6(3-7-6)4-9-2/h7H,3-4H2,1-2H3/t6-/m1/s1
