22
gdb 111520	4.61189	0.90283	0.85743	1.4148	87.8	-0.2227	0.0802	0.3029	1470.6341	0.194168	-367.156909	-367.148031	-367.147087	-367.190491	34.42	
C	-0.2250091178	 1.4233238309	-0.1777053916	-0.375514
C	 0.2848473741	-0.0021945894	 0.0596424279	-0.211263
C	 0.9202985265	-0.5987799363	-1.1753171803	 0.025366
C	 0.877831887	-2.0578818383	-1.4124253695	-0.144944
N	-0.0429994456	-1.1085249764	-2.173296605	-0.142614
C	 0.7537684804	-1.4049761935	-3.4198551373	-0.25064
C	 1.6212021155	-2.4252003907	-2.6729832049	 0.377692
C	 3.0659434593	-2.7936149303	-2.846272732	-0.327296
C	 1.975908025	-3.8047994188	-3.1319543508	-0.334222
H	 0.5933984054	 2.0959330331	-0.4582491144	 0.109224
H	-0.9614353176	 1.4333718917	-0.9863805821	 0.134139
H	-0.6965978542	 1.8307373895	 0.7216819924	 0.109629
H	 1.0177483422	-0.0118739075	 0.8767450431	 0.09483
H	-0.5461690299	-0.6451275576	 0.3714800196	 0.104504
H	 1.7845330825	-0.0520190234	-1.557855027	 0.077219
H	 0.4896776545	-2.7594833183	-0.6784566287	 0.089526
H	 0.106941048	-1.8450509022	-4.1834868073	 0.11078
H	 1.256718643	-0.5237167918	-3.8352658835	 0.100202
H	 3.6011358989	-2.3700243487	-3.690216471	 0.112725
H	 3.6724294745	-2.9304619051	-1.95662267	 0.113087
H	 1.8461113247	-4.6252182588	-2.4328278971	 0.114439
H	 1.7760300937	-4.0673043681	-4.1664007705	 0.113131
72.1223	125.992	146.9338	208.4315	250.295	277.376	327.3438	397.0344	443.6703	488.4334	570.6955	721.8794	773.1006	805.9461	833.7544	856.497	864.7988	902.6475	923.255	943.3503	983.1921	1015.172	1033.5816	1043.7523	1055.2372	1059.1418	1077.166	1109.1284	1140.0899	1142.9488	1182.8459	1188.0294	1216.5156	1258.8065	1283.9644	1292.1229	1302.5899	1349.7749	1403.6483	1406.1534	1449.9579	1463.9757	1477.3534	1497.7472	1498.3395	1507.2348	1508.4931	3025.2426	3030.2183	3033.9444	3063.3315	3086.0149	3093.0851	3101.1813	3117.2651	3119.6341	3125.3655	3142.2798	3198.0166	3213.8687
CCC1C2N1CC21CC1	CC[C@H]1[C@H]2N1CC12CC1	
InChI=1S/C8H13N/c1-2-6-7-8(3-4-8)5-9(6)7/h6-7H,2-5H2,1H3	InChI=1S/C8H13N/c1-2-6-7-8(3-4-8)5-9(6)7/h6-7H,2-5H2,1H3/t6-,7+,9?/m0/s1
