23
gdb 118040	3.22148	0.81111	0.68615	3.1033	84.14	-0.2478	-0.0213	0.2265	1697.9015	0.201313	-425.438981	-425.427416	-425.426472	-425.477043	40.152	
C	 0.0949156948	 1.5110569252	-0.0043385849	-0.384538
C	-0.0966345541	 0.0048091844	-0.0678921857	-0.041517
O	 0.6985853283	-0.4989227253	-1.1258074174	-0.259626
C	 0.7091953161	-1.9115755612	-1.2611527919	 0.134124
C	-0.554980939	-2.4192748029	-1.9610170359	-0.412086
C	 1.9904862795	-2.2731897372	-2.0434229431	-0.067532
C	 3.2525475187	-1.7217503837	-1.3557866436	-0.418959
C	 2.1274675363	-3.7779779712	-2.1593140598	 0.159857
O	 2.2189954477	-4.3964474763	-3.1878732364	-0.253452
H	 1.1448879823	 1.7588822885	 0.1755462879	 0.125855
H	-0.2100419754	 1.9758464842	-0.946124834	 0.129056
H	-0.5069356964	 1.9371132173	 0.8039301573	 0.116206
H	 0.2028437001	-0.4649021907	 0.8839067404	 0.08707
H	-1.1596839439	-0.2338976518	-0.2253393988	 0.091961
H	 0.7764130906	-2.3681718735	-0.2571359407	 0.063621
H	-0.636977138	-1.9771859362	-2.9586306687	 0.131685
H	-0.5348812324	-3.5082762012	-2.0702566732	 0.128342
H	-1.4534183872	-2.1607596319	-1.3943381277	 0.118794
H	 1.9091151127	-1.8689633881	-3.0578059871	 0.099891
H	 3.1467923859	-0.6465132736	-1.2061726856	 0.144191
H	 3.4035506298	-2.1889902042	-0.3752959892	 0.113962
H	 4.1427768084	-1.912070248	-1.96175206	 0.12604
H	 2.1680169351	-4.3025858028	-1.1728701619	 0.067055
43.0232	54.6686	59.697	92.5568	158.2874	212.2772	216.0273	246.6774	256.3432	295.8739	324.4515	339.7446	393.2594	466.7155	516.3717	575.2015	820.8253	839.327	863.9263	908.1597	951.5918	960.1329	991.1743	1042.024	1097.2736	1123.2529	1142.9469	1149.9998	1157.7926	1186.1284	1195.7624	1270.4716	1298.5031	1321.8449	1365.5251	1376.737	1393.7979	1403.3294	1410.6208	1428.574	1438.5941	1483.5605	1485.6486	1494.3234	1496.9506	1500.0804	1504.9285	1530.3849	1834.3967	2828.198	2940.243	2964.7472	2998.5701	3035.4621	3042.8468	3045.1485	3065.7071	3105.1792	3112.2835	3119.618	3121.2888	3122.3611	3144.7677
CCOC(C)C(C)C=O	CCO[C@@H](C)[C@@H](C)C=O	
InChI=1S/C7H14O2/c1-4-9-7(3)6(2)5-8/h5-7H,4H2,1-3H3	InChI=1S/C7H14O2/c1-4-9-7(3)6(2)5-8/h5-7H,4H2,1-3H3/t6-,7-/m0/s1
