18
gdb 66212	2.67287	1.34591	1.29334	2.1075	72.01	-0.254	-0.0307	0.2232	1075.8559	0.14725	-439.106196	-439.097444	-439.0965	-439.140397	31.709	
C	 0.019168296	 1.5491841713	-0.01222246	-0.433432
C	-0.0188689117	 0.0197609785	-0.0186559583	 0.082953
C	 0.7304616095	-0.5176169697	-1.2547006374	-0.097095
O	 0.8478795918	-1.944147429	-1.2558474227	-0.224474
C	 1.0877728929	-2.5126943587	-0.0488652006	 0.124258
N	 1.0499888504	-1.990933781	 1.1010414748	-0.263507
C	 0.6791786751	-0.5867282935	 1.2241771392	-0.194922
C	-1.4619340653	-0.4770193683	-0.0641709288	 0.154289
O	-2.4120883883	 0.2224521004	-0.3074762013	-0.256556
H	 1.0515625282	 1.9104190692	-0.0520346727	 0.11397
H	-0.5330816872	 1.9588722881	-0.8613018226	 0.13761
H	-0.4462876336	 1.9414303521	 0.8964577861	 0.132299
H	 0.2184620179	-0.257030339	-2.1842849823	 0.133578
H	 1.7377812602	-0.0821072965	-1.2796222876	 0.119954
H	 1.3227665073	-3.5674431423	-0.1771423264	 0.13112
H	 1.5812579499	-0.0034851673	 1.4503390915	 0.121021
H	 0.0325907155	-0.4869329571	 2.1048232213	 0.122196
H	-1.5937510386	-1.5588911173	 0.1543363179	 0.096738
30.299	124.5254	164.0048	193.4616	247.4483	273.9875	347.344	354.3817	445.5384	495.5925	512.1926	636.67	758.1103	837.8678	908.1897	921.0923	931.9461	955.0648	971.3424	990.4745	1038.0974	1055.6874	1157.3763	1188.7561	1194.9456	1218.9368	1263.3431	1327.6839	1350.8777	1398.5758	1408.4691	1419.9452	1434.3769	1480.312	1487.3252	1495.4566	1508.2425	1738.3494	1825.0565	2900.5141	3018.255	3024.1856	3044.462	3048.5673	3101.9168	3114.2768	3127.2688	3164.4311
CC1(COC=NC1)C=O	C[C@]1(COC=NC1)C=O	
InChI=1S/C6H9NO2/c1-6(3-8)2-7-5-9-4-6/h3,5H,2,4H2,1H3	InChI=1S/C6H9NO2/c1-6(3-8)2-7-5-9-4-6/h3,5H,2,4H2,1H3/t6-/m1/s1
