17
gdb 47294	3.14851	1.30551	1.00177	1.7057	70.84	-0.2512	0.0028	0.254	1151.4841	0.138212	-455.182943	-455.174859	-455.173915	-455.216119	30.178	
N	-0.0317263797	 1.3416484961	 0.4077168486	-0.480555
C	 0.0245490995	 0.1405257579	 0.0116720001	 0.38414
C	-1.2613976353	-0.655199217	-0.121173037	-0.250451
N	-1.5073045502	-1.2429274064	-1.4291054261	-0.297238
C	-0.8257879024	-2.3000801495	-1.9652278789	 0.379151
O	-1.1927261917	-2.8687192204	-2.9742792846	-0.358393
C	 0.4649967333	-2.6538029954	-1.2340644931	-0.330888
C	 1.4476232533	-1.4801139279	-1.1686355006	-0.082215
O	 1.2161300131	-0.5034557785	-0.1434998608	-0.252122
H	 0.9138685282	 1.7216168463	 0.4982443886	 0.223702
H	-1.2689391027	-1.4279330063	 0.6606311983	 0.131523
H	-2.0694439428	 0.0404710505	 0.0980163317	 0.152726
H	-2.3590387735	-0.9962168866	-1.9100402923	 0.256805
H	 0.2626863325	-3.0247957064	-0.2222598803	 0.128026
H	 0.9254803808	-3.4658858802	-1.8003125962	 0.139517
H	 2.4478729744	-1.8555125975	-0.9414232925	 0.129308
H	 1.4909364032	-0.9738627687	-2.1414914651	 0.126963
58.5606	104.6783	190.7787	251.1145	313.8366	337.4753	427.7959	485.7882	517.3411	527.9538	564.0782	688.2666	736.5529	787.8032	833.0387	904.3301	944.3789	958.6996	1004.6485	1033.8305	1076.098	1126.3394	1147.0327	1204.5335	1281.8988	1293.1898	1308.308	1346.9553	1379.8457	1393.4069	1433.8401	1453.941	1463.1323	1492.0359	1507.192	1742.0615	1803.2603	3008.5557	3027.7639	3048.3888	3104.8135	3122.2222	3152.2672	3454.502	3625.7204
N=C1CNC(=O)CCO1	[NH][C]1CNC(=O)CCO1	
InChI=1S/C5H8N2O2/c6-4-3-7-5(8)1-2-9-4/h6H,1-3H2,(H,7,8)	InChI=1S/C5H8N2O2/c6-4-3-7-5(8)1-2-9-4/h6H,1-3H2,(H,7,8)
