17
gdb 127735	3.07575	1.31888	0.96347	4.5012	72.27	-0.2119	0.0167	0.2286	1196.7383	0.137004	-451.319377	-451.310362	-451.309417	-451.353183	32.582	
C	-0.0014307538	 1.3844124867	 0.0308855627	-0.343996
N	-0.0204326741	-0.0589545523	 0.0521514224	 0.008714
N	-0.1638891429	-0.7732975536	-1.1087996198	-0.176641
N	-0.1489041319	-2.0289512162	-0.7864518897	-0.255985
C	 0.0004298618	-2.1628490811	 0.5599205831	 0.214866
C	 0.0499426279	-3.4677472299	 1.2836294715	-0.190313
O	 1.0379599994	-3.460210922	 2.3241829947	-0.418386
C	 0.0927399259	-0.8940262802	 1.1093702645	 0.265583
N	 0.1958398319	-0.4818998209	 2.4289851581	-0.611982
H	 0.9818043242	 1.7763775735	 0.315778616	 0.13524
H	-0.2230410904	 1.6943132447	-0.9903424661	 0.173213
H	-0.7587463935	 1.7895058246	 0.7090690893	 0.149764
H	-0.8911632952	-3.6816254783	 1.8032858479	 0.123956
H	 0.2181173628	-4.277753823	 0.5624308253	 0.122852
H	 1.8931056616	-3.3380178556	 1.8970045405	 0.285084
H	 0.5243195934	-1.2469284175	 3.0085129218	 0.268513
H	 0.7602750228	 0.3461122011	 2.5706359877	 0.249517
85.9593	123.0245	132.0994	189.4322	243.8768	267.2605	302.7246	337.9159	396.4794	431.8865	495.4867	632.2171	673.8677	719.9721	738.1445	786.7119	821.9671	971.9955	1002.4928	1025.0415	1044.8184	1151.8354	1183.7606	1226.3701	1255.8452	1285.3668	1337.3281	1349.4314	1397.8325	1428.7263	1442.6546	1485.7824	1501.9695	1506.6038	1566.5658	1618.2611	1665.7769	3024.3607	3031.453	3064.2691	3094.5259	3160.3469	3518.8107	3614.8022	3801.9316
CN1N=NC(CO)=C1N	Cn1nnc(CO)c1N	
InChI=1S/C4H8N4O/c1-8-4(5)3(2-9)6-7-8/h9H,2,5H2,1H3	InChI=1S/C4H8N4O/c1-8-4(5)3(2-9)6-7-8/h9H,2,5H2,1H3
