17
gdb 80605	2.90258	1.47694	1.25839	1.7872	67.82	-0.2551	-0.0253	0.2298	1030.5554	0.135676	-458.947309	-458.939406	-458.938461	-458.979672	30.438	
C	-0.0839139152	 1.5292487633	-0.0018041622	-0.414813
C	 0.0526958107	 0.0083563024	-0.0023814621	-0.047818
C	 1.0104688167	-0.5385620822	-1.0867514253	-0.064212
O	 2.3345596411	-0.3965852174	-0.4591446035	-0.308795
C	 1.8790120894	-1.407584468	 0.5097730315	-0.103996
C	 0.797475346	-0.6016041984	 1.25904521	 0.138885
O	 1.367990405	 0.3509554212	 2.122424707	-0.427756
C	 1.124612896	-2.023765468	-0.6881421425	 0.458962
O	 0.8941859236	-3.0981521919	-1.1426538237	-0.309671
H	 0.892793509	 2.0194552194	-0.0486118327	 0.121224
H	-0.6637872091	 1.8580932009	-0.8696986181	 0.118464
H	-0.5899112214	 1.8773326947	 0.9018931783	 0.136576
H	-0.936939964	-0.4499921695	-0.1062549033	 0.09485
H	 0.9552912271	-0.1644159862	-2.1075966132	 0.10636
H	 2.6729954887	-1.8895168763	 1.0765345596	 0.109745
H	 0.1417788915	-1.2230464192	 1.8728872396	 0.102596
H	 2.0523021447	 0.8074266251	 1.6166629107	 0.289398
104.6129	134.8854	216.6428	259.0904	282.9166	305.4301	461.3501	505.7432	523.2839	536.8829	679.7809	733.4226	753.0934	797.6174	844.7591	866.4331	888.2319	941.407	1018.4218	1032.4381	1055.0405	1068.6355	1095.7147	1118.967	1160.5277	1208.0831	1218.1103	1230.3125	1261.7508	1303.7232	1308.1827	1364.5996	1408.5558	1437.0238	1490.532	1502.0292	1928.8525	3044.1503	3048.607	3095.6727	3111.0023	3125.6973	3146.4001	3156.5425	3779.6166
CC1C2OC(C1O)C2=O	C[C@H]1[C@H]2O[C@@H]([C@H]1O)C2=O	
InChI=1S/C6H8O3/c1-2-3(7)6-4(8)5(2)9-6/h2-3,5-7H,1H3	InChI=1S/C6H8O3/c1-2-3(7)6-4(8)5(2)9-6/h2-3,5-7H,1H3/t2-,3+,5-,6+/m1/s1
