21
gdb 53601	4.42608	0.74923	0.68579	0.2687	92.41	-0.2321	0.0306	0.2627	1706.6695	0.182363	-349.94944	-349.939768	-349.938824	-349.985735	34.739	
C	 0.1693726132	 1.4135587781	-0.2171137915	-0.497534
C	 0.0794441277	-0.0394572378	-0.1742059636	 0.09833
C	 0.0157156728	-1.2420071878	-0.1403876207	 0.032209
C	-0.0905192077	-2.6963536262	-0.0887455757	-0.360936
C	-1.5164091493	-3.2076778998	 0.2293630375	 0.021888
C	-2.5224760838	-2.821140768	-0.8917901417	-0.257617
C	-2.6549971564	-4.0883088251	-1.7010723638	-0.054287
C	-2.122490396	-5.1382750271	-1.0786386106	-0.056478
C	-1.5374299629	-4.763006596	 0.262195382	-0.271978
H	 0.840063748	 1.7959227237	 0.5605695298	 0.145085
H	 0.55144069	 1.7626058246	-1.1830662507	 0.145037
H	-0.8110058737	 1.8784470223	-0.0634996771	 0.145131
H	 0.2299885829	-3.1271039412	-1.0475934453	 0.127401
H	 0.6030009593	-3.08725613	 0.6672718692	 0.119901
H	-1.8174031283	-2.7849719716	 1.1912913676	 0.076848
H	-3.4951821615	-2.5221265223	-0.4772091503	 0.101259
H	-2.1678538223	-1.9653878049	-1.4773310013	 0.11197
H	-3.1554365086	-4.1178177006	-2.662940116	 0.087905
H	-2.1218140837	-6.1567187077	-1.4516448157	 0.087982
H	-0.5377163521	-5.1854093481	 0.4258652217	 0.096834
H	-2.1639930878	-5.1425337845	 1.0812955563	 0.10105
27.2548	58.1918	79.3393	107.7163	223.5101	254.5634	318.5717	361.8007	389.9195	400.3883	493.9055	683.6139	722.3866	763.9591	795.7733	834.5784	892.9397	906.308	953.7775	972.5101	977.7837	996.6089	1052.8262	1053.4727	1070.4036	1077.0766	1130.8478	1167.7968	1172.0055	1187.9844	1235.9754	1266.9426	1307.9553	1321.3139	1335.7738	1369.2899	1381.9362	1415.6091	1472.8546	1479.5374	1480.0296	1485.9989	1492.9801	1687.7062	2369.8667	3006.4712	3009.738	3010.8277	3024.4817	3036.5862	3041.1036	3058.944	3077.2177	3083.8076	3083.9313	3178.756	3204.5639
CC#CCC1CC=CC1	CC#CC[C@H]1CC=CC1	
InChI=1S/C9H12/c1-2-3-6-9-7-4-5-8-9/h4-5,9H,6-8H2,1H3	InChI=1S/C9H12/c1-2-3-6-9-7-4-5-8-9/h4-5,9H,6-8H2,1H3
