23
gdb 91358	1.96327	1.95902	1.34163	1.3808	83.16	-0.2465	0.0725	0.319	1097.0446	0.20852	-388.310816	-388.302463	-388.301518	-388.343458	33.652	
C	-0.3573565935	 1.5197416967	 0.6382444727	-0.426872
C	-0.2116588348	 0.0022842116	 0.5278412633	 0.070098
C	 0.0864664398	-0.5532603841	-0.9005478998	-0.251274
C	 1.1783602251	-1.6027594563	-0.5892986407	 0.094407
C	 2.5335870711	-0.8917582226	-0.3691046295	-0.251283
C	 2.3569847375	-0.3530675017	 1.0856784722	 0.070097
C	 2.8333999993	 1.0782942181	 1.3312372799	-0.426868
C	 0.875857092	-0.7396249359	 1.3535943302	 0.007762
O	 0.8298283031	-2.0390003051	 0.7376073434	-0.265484
H	 0.4609790496	 2.0592173675	 0.1561678633	 0.118676
H	-1.2848840671	 1.8429607771	 0.1536922966	 0.115004
H	-0.4051586055	 1.845206706	 1.6832714831	 0.112327
H	-1.1537802075	-0.4411658977	 0.8681955992	 0.083082
H	-0.7980799384	-1.0141246317	-1.3470816559	 0.099267
H	 0.4421149186	 0.2217782307	-1.5866532272	 0.091992
H	 1.2046220264	-2.4632591821	-1.258152823	 0.0716
H	 3.3704517034	-1.5907243877	-0.4419233575	 0.09927
H	 2.7026060338	-0.0909030255	-1.095729579	 0.091993
H	 2.9281881766	-1.0058980583	 1.754729998	 0.083081
H	 2.4531354041	 1.7835965705	 0.5889198989	 0.118677
H	 2.5341135473	 1.4385309466	 2.3216698369	 0.112327
H	 3.9268264222	 1.1218863786	 1.2854965865	 0.115006
H	 0.6328242171	-0.8308196048	 2.4145295081	 0.067115
77.4594	169.821	195.6687	266.2004	293.7382	322.2657	389.8701	394.4665	511.957	542.2025	571.0799	664.8511	789.2836	803.2214	821.7467	857.3951	900.3784	910.6759	931.9095	967.3715	979.4617	989.1704	1016.94	1047.3483	1096.5859	1097.25	1128.4877	1139.7114	1144.4467	1167.2122	1219.3076	1245.875	1256.8914	1299.2875	1299.6653	1313.6236	1330.5196	1353.1013	1357.686	1368.6388	1393.9709	1409.6555	1418.7062	1487.0551	1490.6075	1492.378	1501.5078	1507.5495	1517.5314	3032.1474	3033.3631	3035.8525	3038.3169	3049.466	3055.4144	3090.6416	3092.6768	3094.5773	3096.1366	3099.612	3112.576	3117.7962	3129.3377
CC1CC2CC(C)C1O2	C[C@H]1C[C@H]2C[C@@H](C)[C@@H]1O2	
InChI=1S/C8H14O/c1-5-3-7-4-6(2)8(5)9-7/h5-8H,3-4H2,1-2H3	InChI=1S/C8H14O/c1-5-3-7-4-6(2)8(5)9-7/h5-8H,3-4H2,1-2H3/t5-,6+,7-,8+
