19
gdb 90823	3.53528	1.72951	1.5177	1.836	76.82	-0.2066	0.0729	0.2795	930.0976	0.162528	-382.002998	-381.996313	-381.995369	-382.033879	27.578	
C	-0.3171828763	 1.4620810329	-0.0126189924	-0.32702
N	 0.0618308465	 0.0653150626	-0.0281233604	-0.055929
C	 0.732109537	-0.4042571674	-1.2594965725	-0.186641
C	 1.7807341355	-1.3968213701	-0.7395185182	-0.050478
C	 2.9502187364	-0.7310073693	-0.0101636159	-0.048628
C	 2.3438468106	-0.0667147413	 1.1829764089	-0.065619
C	 0.8408570921	-0.4176051047	 1.0938100307	-0.005526
C	 1.3644267047	-1.8066853204	 0.6980582601	-0.024699
N	 2.7751178677	-1.5076969677	 1.2605610884	-0.181256
H	 0.5402830948	 2.1545397984	-0.1114946616	 0.094535
H	-1.0088612322	 1.6711081161	-0.8356066107	 0.120829
H	-0.8352349389	 1.6951706306	 0.9237243249	 0.117702
H	 0.005130667	-0.8598021541	-1.9445280126	 0.099523
H	 1.2237503842	 0.4196746545	-1.8019328879	 0.087335
H	 2.0641135345	-2.2010391892	-1.4174070693	 0.079489
H	 3.9315608631	-0.475603576	-0.393214035	 0.093008
H	 2.8522390049	 0.7003856352	 1.7551018305	 0.091406
H	 0.3044011684	-0.3368843985	 2.040761619	 0.079307
H	 0.85446646	-2.7349361917	 0.9417955141	 0.082664
114.2924	221.1609	275.5247	340.7152	419.2166	514.8121	598.2958	677.5135	758.0991	784.5134	815.686	821.2386	866.0974	882.4739	902.2608	915.6645	965.5349	968.0435	1018.3836	1032.5383	1046.3158	1058.004	1074.0528	1120.697	1135.5116	1153.1899	1195.5184	1209.9586	1220.3668	1233.1103	1240.9308	1262.7492	1287.4135	1331.6876	1343.8738	1366.0455	1384.3709	1460.4187	1487.4724	1506.8751	1524.3862	2926.7425	2968.8979	3021.4502	3053.1269	3095.4844	3101.4644	3122.8386	3153.3224	3175.3656	3187.7458
CN1CC2C3C4C1C2N34	CN1C[C@H]2[C@H]3[C@H]4[C@@H]1[C@@H]2N34	
InChI=1S/C7H10N2/c1-8-2-3-4-6(8)7-5(3)9(4)7/h3-7H,2H2,1H3	InChI=1S/C7H10N2/c1-8-2-3-4-6(8)7-5(3)9(4)7/h3-7H,2H2,1H3/t3-,4-,5+,6+,7+,9?/m1/s1
