21
gdb 122274	2.72529	0.8862	0.74212	2.7418	81.04	-0.2475	-0.0184	0.2291	1598.5456	0.180088	-424.216849	-424.206658	-424.205713	-424.25288	36.075	
C	 0.1406523657	 1.3248069769	-0.2269874942	-0.227706
O	 0.0604721237	-0.048701798	 0.0640772923	-0.230218
C	-1.2521048807	-0.5568727801	-0.0487803642	-0.055592
C	-1.2157360156	-2.0322756308	 0.3429096922	-0.301988
C	-2.5406946689	-2.7437128079	 0.1489947416	 0.257258
C	-2.9715290955	-3.1763714192	-1.2515477095	-0.299254
C	-2.5496710524	-4.2139795792	-0.2705146364	-0.315424
C	-3.6501897478	-2.3699692199	 1.0601976108	 0.117676
O	-3.5785144373	-1.5523478304	 1.94541043	-0.271379
H	 1.1852280941	 1.6248611775	-0.1114900078	 0.124519
H	-0.1791457118	 1.5447790138	-1.2587042987	 0.09904
H	-0.4797901439	 1.9256271588	 0.4567334146	 0.106368
H	-1.9410474319	-0.0065532751	 0.608260941	 0.11347
H	-1.6186367151	-0.4429644282	-1.084543056	 0.076348
H	-0.4425486763	-2.5264170279	-0.255408068	 0.102537
H	-0.911119516	-2.1078325079	 1.3917767769	 0.123728
H	-4.0237129951	-3.1035472757	-1.5067112246	 0.12503
H	-2.2955108182	-2.9147543253	-2.0577551868	 0.13206
H	-1.5775378723	-4.6795578403	-0.3838373532	 0.13251
H	-3.3100442148	-4.8586551056	 0.1577145029	 0.125886
H	-4.5992353196	-2.9267919954	 0.8704124372	 0.065132
60.2069	70.0395	122.5038	129.2456	144.4159	223.1597	230.0013	301.4707	306.0455	354.2493	421.9464	494.8416	549.0467	767.6489	789.3984	824.5835	848.9921	919.921	942.791	981.5009	1002.7326	1049.14	1057.2571	1078.2085	1091.2239	1107.3547	1163.0591	1182.2221	1196.361	1224.8622	1234.8643	1287.0949	1312.7252	1333.4384	1363.7062	1425.3803	1442.8052	1466.3169	1479.7042	1481.3054	1484.7062	1498.4562	1504.9251	1535.9838	1812.8998	2844.5915	2946.407	2967.3194	3009.5101	3017.7922	3045.282	3092.4816	3110.6405	3134.1937	3137.2726	3215.4659	3229.8974
COCCC1(CC1)C=O	COCCC1(CC1)C=O	
InChI=1S/C7H12O2/c1-9-5-4-7(6-8)2-3-7/h6H,2-5H2,1H3	InChI=1S/C7H12O2/c1-9-5-4-7(6-8)2-3-7/h6H,2-5H2,1H3
