15
gdb 56723	2.0682	1.38723	1.25014	4.8462	69.85	-0.3122	-0.0094	0.3028	1096.17	0.111579	-416.809924	-416.801014	-416.800069	-416.843986	31.798	
O	-0.3353672899	 1.2831094363	 0.0728325511	-0.399387
C	 0.0331885122	-0.0709591877	-0.005453405	-0.099153
C	 0.8359607715	-0.3514518531	-1.2180710224	 0.269655
N	 1.4638118404	-0.561243497	-2.1645795139	-0.306203
C	 0.754423175	-0.5712712801	 1.2513229918	 0.169069
C	-0.0914811017	-1.1009311441	 2.3983650273	-0.304815
C	 0.7191728542	-2.0550416984	 1.5765200367	-0.288296
C	 1.9344068494	 0.1884805562	 1.5760407234	 0.237384
N	 2.8596207783	 0.8415443395	 1.8127957067	-0.332055
H	 0.4666790808	 1.8192644097	 0.1255619426	 0.31145
H	-0.9047526038	-0.6298352727	-0.0958070951	 0.146061
H	 0.242150127	-0.8732531639	 3.4032118521	 0.153733
H	-1.1660193061	-1.0683972071	 2.2577907244	 0.143609
H	 0.2107903883	-2.6914953353	 0.8603851281	 0.144245
H	 1.6118946544	-2.4880542624	 2.0102804822	 0.154703
53.6269	113.2132	138.8269	211.0641	225.4002	253.1398	312.2914	372.4673	423.3047	484.923	560.9525	586.799	621.6836	753.2994	781.8502	878.5884	917.567	955.8981	974.5718	1001.3347	1071.8817	1092.1294	1098.7747	1191.2026	1243.3209	1280.53	1299.6053	1362.8856	1421.3134	1469.7847	1496.9555	2350.1923	2359.9172	3063.2908	3146.7101	3149.4402	3233.3261	3246.1065	3779.2806
OC(C#N)C1(CC1)C#N	O[C@@H](C#N)C1(CC1)C#N	
InChI=1S/C6H6N2O/c7-3-5(9)6(4-8)1-2-6/h5,9H,1-2H2	InChI=1S/C6H6N2O/c7-3-5(9)6(4-8)1-2-6/h5,9H,1-2H2/t5-/m0/s1
