17
gdb 36274	4.6384	0.96522	0.9062	2.9546	76.36	-0.2387	0.0285	0.2672	1274.9634	0.136864	-380.779562	-380.771929	-380.770985	-380.812303	29.281	
N	 0.0191346122	-0.6573272141	-1.7936061549	-0.299394
C	-0.0653132289	 0.2135272727	-1.0387992073	 0.250926
C	-0.1503125328	 1.3203363585	-0.0850869055	-0.402863
C	 1.1989664843	 2.0533056888	 0.0320348483	-0.014256
C	 1.5230057106	 3.4866027199	-0.2656888598	-0.105825
C	 0.6329116064	 4.5144496787	 0.4604996154	-0.037654
C	-0.3825232432	 3.9927496681	 1.4059015959	-0.249743
N	 1.030762008	 4.0049273905	 1.8200379605	-0.13421
C	 1.8123240878	 2.9181910292	 1.1151432985	-0.047471
H	-0.9417431775	 1.9920087201	-0.4279123262	 0.166508
H	-0.4669384363	 0.9094333305	 0.8805445056	 0.164941
H	 2.0029928921	 1.4230529597	-0.3439749671	 0.126646
H	 2.2123069127	 3.7859630618	-1.0444423134	 0.106224
H	 0.7059230206	 5.5735819903	 0.236365545	 0.110025
H	-0.957440813	 4.745962869	 1.9388591567	 0.129545
H	-0.9125388573	 3.062763261	 1.2695237496	 0.124187
H	 2.7500092042	 2.639773285	 1.5798187087	 0.112415
51.0574	138.7028	190.5127	238.522	392.1728	408.0026	457.9358	508.0651	652.2754	678.5396	713.	732.4024	779.0316	877.0934	891.1081	909.8238	956.1122	966.9889	997.9871	1015.3701	1026.9743	1062.0129	1074.4459	1100.2098	1118.2336	1141.9887	1204.1155	1245.5169	1251.8666	1281.0867	1300.986	1338.4175	1366.5821	1445.9422	1472.4349	1511.476	2361.8365	3044.8643	3096.4149	3128.8651	3135.834	3164.7936	3186.6156	3199.7689	3260.4895
N#CCC1C2C3CN3C12	N#CC[C@H]1[C@H]2[C@H]3CN3[C@@H]12	
InChI=1S/C7H8N2/c8-2-1-4-6-5-3-9(5)7(4)6/h4-7H,1,3H2	InChI=1S/C7H8N2/c8-2-1-4-6-5-3-9(5)7(4)6/h4-7H,1,3H2/t4-,5+,6-,7-,9?/m0/s1
