13
gdb 133299	5.21631	1.07096	0.89353	3.4781	63.79	-0.2532	-0.0827	0.1704	1185.7431	0.088958	-494.036787	-494.029447	-494.028503	-494.069058	26.386	
C	-0.0103399923	 1.3998806146	 0.0087932875	-0.239287
O	-0.0338746328	-0.0334871694	 0.0045436132	-0.263084
C	-1.2341463217	-0.6209123491	 0.0121432972	 0.442944
C	-1.2797077489	-2.0323274477	 0.0080987271	-0.061106
N	-2.4382662548	-2.6532500405	 0.0152324495	-0.27225
C	-3.4984416229	-1.8429886978	 0.0260246231	 0.386027
F	-4.6723880519	-2.4391646561	 0.0335338095	-0.049893
N	-3.5214986562	-0.5299551257	 0.0303484882	-0.253237
N	-2.3407954861	 0.1015164197	 0.0230747309	-0.275494
H	 1.0455313677	 1.6697304307	 0.0013122478	 0.139667
H	-0.5161475437	 1.7988717835	-0.8743664219	 0.148101
H	-0.5021538846	 1.7933722279	 0.9022642707	 0.148101
H	-0.366666162	-2.6213149802	-0.0009056728	 0.149511
93.3439	142.1271	190.9772	218.1495	395.9858	414.8994	446.4835	481.3582	588.4132	594.8617	653.8487	793.5579	821.7759	888.8224	971.635	1035.9709	1063.9191	1176.6413	1178.1103	1200.9072	1309.5561	1348.7752	1403.0451	1456.8582	1479.5139	1494.4658	1507.8782	1560.8799	1625.7671	3049.4103	3124.2792	3161.2442	3174.6163
COC1=CN=C(F)N=N1	COc1cnc(F)nn1	
InChI=1S/C4H4FN3O/c1-9-3-2-6-4(5)8-7-3/h2H,1H3	InChI=1S/C4H4FN3O/c1-9-3-2-6-4(5)8-7-3/h2H,1H3
