18
gdb 17791	5.97745	1.0137	0.99517	1.7578	68.11	-0.2354	0.0743	0.3097	1199.8091	0.153503	-384.855858	-384.848066	-384.847122	-384.88868	28.902	
O	 0.015861436	 1.457727627	-0.2465883643	-0.419747
C	 0.0281969008	 0.0526666396	-0.050958581	-0.063263
C	-1.4045362626	-0.4504022634	-0.2009451247	-0.239054
C	-1.4992691499	-1.9618994908	-0.0648843435	 0.043334
C	-1.4645081107	-2.7193336757	 1.2991722364	 0.03942
C	-2.9003204684	-2.2445772935	 1.6264785724	-0.229238
C	-2.8386668527	-2.7220096171	 0.1557210294	 0.023826
O	-2.0497799668	-3.8925565945	 0.6091968741	-0.309818
H	 0.9163665428	 1.782842228	-0.1572498538	 0.286305
H	 0.6769803705	-0.4489786862	-0.7874356789	 0.087834
H	 0.4116706504	-0.2079170709	 0.9492934389	 0.086682
H	-2.030394896	 0.0715180156	 0.5289799441	 0.109011
H	-1.768386874	-0.1529174597	-1.1921797346	 0.111907
H	-0.8807179921	-2.4754925655	-0.8074362861	 0.081364
H	-0.6266172192	-2.9045832162	 1.9726673804	 0.090342
H	-3.4539163815	-2.905198431	 2.2943066453	 0.109092
H	-3.0782808342	-1.1886056014	 1.8366185366	 0.100115
H	-3.6509958924	-2.9076440244	-0.5482616107	 0.091887
68.968	89.7439	137.2343	264.6856	307.6496	363.8087	375.0221	554.0874	642.6598	724.0907	772.0883	818.1689	863.4746	882.6515	904.687	926.1573	1008.4292	1012.824	1033.4419	1074.0974	1085.6441	1102.7001	1137.3823	1162.0652	1171.7418	1203.0145	1211.6659	1226.4647	1252.8138	1266.4614	1286.3107	1315.0776	1327.9825	1407.4459	1462.0927	1483.3787	1501.1308	1528.4519	2960.369	2985.8769	3039.1727	3065.4778	3075.3963	3095.091	3106.2685	3114.1343	3152.9785	3829.6637
OCCC1C2CC1O2	OCC[C@H]1[C@H]2C[C@@H]1O2	
InChI=1S/C6H10O2/c7-2-1-4-5-3-6(4)8-5/h4-7H,1-3H2	InChI=1S/C6H10O2/c7-2-1-4-5-3-6(4)8-5/h4-7H,1-3H2/t4-,5+,6-
