19
gdb 36620	5.14061	0.75708	0.72489	4.4442	80.2	-0.2445	0.0353	0.2799	1560.158	0.160008	-382.043723	-382.035085	-382.03414	-382.077965	31.848	
N	 0.0874431676	-1.2285509042	-0.0205925152	-0.302256
C	 0.0426988871	-0.0765653065	-0.0996579549	 0.260157
C	 0.0076904339	 1.3806485232	-0.1933323644	-0.342281
C	 1.3626207113	 2.0325995265	 0.1650945557	-0.30881
C	 1.288316891	 3.5311614033	 0.0808700701	 0.364007
C	 1.5474004798	 4.2901737948	-1.1624829658	-0.283386
N	 2.5264124638	 4.4000800105	-0.0622046314	-0.171561
C	 1.9076118334	 5.3649764215	 0.9171666574	-0.150413
C	 0.6773095173	 4.4492350575	 1.145279668	-0.313339
H	-0.2860121206	 1.6600446477	-1.2114133264	 0.155762
H	-0.7797172963	 1.7511739337	 0.4733788717	 0.155444
H	 1.6554192905	 1.7246372426	 1.1751167296	 0.124195
H	 2.1375989139	 1.6677348849	-0.5160122885	 0.133521
H	 1.9342878166	 3.7429158404	-2.0171755698	 0.122099
H	 0.939833391	 5.1571045845	-1.4166920577	 0.110659
H	 2.5495580757	 5.4717825563	 1.7930655424	 0.117762
H	 1.7195687843	 6.355247646	 0.4899052155	 0.108726
H	-0.3165482825	 4.8558816662	 0.9366061757	 0.105041
H	 0.6695282821	 3.999093291	 2.1406982779	 0.114672
55.3205	82.4042	101.3613	198.5833	252.7996	335.0308	377.8858	404.4737	477.6877	526.6944	698.7763	746.8281	770.3607	780.0878	811.7538	887.5461	930.7506	960.6148	969.909	986.1192	1018.0953	1027.1125	1091.7238	1103.2893	1124.693	1172.8599	1193.8946	1220.6651	1247.2607	1279.8695	1282.6165	1305.5676	1336.8893	1371.4506	1398.6758	1468.3751	1486.1214	1489.0756	1496.0005	1519.0402	2363.1277	3039.8404	3048.8794	3049.0669	3056.9739	3076.0544	3096.7905	3099.7387	3102.8386	3123.157	3190.4827
N#CCCC12CN1CC2	N#CCC[C@]12CN1CC2	
InChI=1S/C7H10N2/c8-4-1-2-7-3-5-9(7)6-7/h1-3,5-6H2	InChI=1S/C7H10N2/c8-4-1-2-7-3-5-9(7)6-7/h1-3,5-6H2/t7-,9?/m0/s1
