18
gdb 9667	3.15394	1.44229	1.32726	2.5769	70.42	-0.2412	-0.0193	0.2219	1025.9922	0.150897	-384.931612	-384.922579	-384.921635	-384.965118	32.111	
C	-0.2257202147	 1.098737068	-0.3139349877	-0.242277
O	 0.547687028	-0.0322634499	 0.0519602852	-0.226603
C	 0.9723087654	-0.7740233651	-1.0313348994	 0.115667
C	 1.4571461414	-2.1444060807	-0.7801050132	-0.352319
C	 0.1163046128	-1.9913637605	-1.4981014125	 0.191922
C	-1.1644127857	-2.3199337703	-0.7629883037	-0.492115
C	 0.1422259414	-2.1889220719	-2.9644263788	 0.086704
O	 1.13459958	-2.0973870218	-3.6534367464	-0.281177
H	 0.3428774623	 1.7742831813	-0.9684324961	 0.119366
H	-1.1503046333	 0.8067419804	-0.8299708562	 0.115425
H	-0.478259621	 1.6242326579	 0.6090914975	 0.134129
H	 1.4339567565	-0.2062211234	-1.8391708867	 0.110991
H	 2.284330025	-2.5046468863	-1.3812754146	 0.141232
H	 1.4087547905	-2.5029311513	 0.2422283806	 0.128403
H	-1.1655779164	-1.8581811487	 0.2270186817	 0.138828
H	-2.0400578088	-1.9489025065	-1.3079450212	 0.118501
H	-1.2872389128	-3.4006223524	-0.6330914698	 0.125426
H	-0.8502983906	-2.4045587388	-3.4222736987	 0.067898
101.4541	113.4561	165.3309	176.0926	186.5874	234.4417	265.679	341.4281	345.7272	468.1307	498.1681	636.7678	726.9113	753.1614	858.9099	932.9952	964.7959	1026.0037	1054.8252	1079.5878	1082.5695	1109.5671	1150.0665	1182.717	1186.8973	1257.5483	1281.158	1301.4889	1396.5266	1417.9915	1430.7517	1457.9438	1487.4384	1491.1486	1496.9679	1502.6128	1508.0103	1791.3122	2868.5638	2996.2097	3030.4843	3051.9631	3087.09	3110.9708	3124.3544	3129.5638	3137.7006	3236.0317
COC1CC1(C)C=O	CO[C@H]1C[C@]1(C)C=O	
InChI=1S/C6H10O2/c1-6(4-7)3-5(6)8-2/h4-5H,3H2,1-2H3	InChI=1S/C6H10O2/c1-6(4-7)3-5(6)8-2/h4-5H,3H2,1-2H3/t5-,6+/m0/s1
