15
gdb 43801	2.51784	1.66369	1.17212	1.9617	66.8	-0.2474	-0.0512	0.1963	1027.0943	0.110211	-457.712416	-457.704613	-457.703669	-457.744991	29.	
O	-0.0511938728	 0.279472721	-0.8720272253	-0.295576
C	-0.017549115	 1.3057078613	-0.262454629	 0.336426
C	-1.0693446243	 2.1566685353	 0.4997580008	-0.483366
C	-0.0011837575	 3.2595590633	 0.6148651409	 0.365864
C	-0.1080663398	 4.7093676159	 0.4713703805	-0.257896
O	 0.2051457011	 4.093623253	 1.7343048057	-0.272172
C	 1.0641367126	 2.336372488	 0.0514710308	 0.272804
C	 2.4262065025	 2.1032749162	 0.5623938286	-0.245864
O	 2.1902375922	 2.6972734925	-0.7138149604	-0.265326
H	-1.9669971307	 2.3963253029	-0.074849286	 0.146737
H	-1.3611998313	 1.7198307784	 1.4595911707	 0.152606
H	 0.708122032	 5.2602689707	 0.0080645087	 0.134948
H	-1.0909374399	 5.173578216	 0.4118192861	 0.126291
H	 2.8011520155	 2.7738700486	 1.3329203486	 0.142655
H	 2.8361961453	 1.0955955967	 0.5417448493	 0.14187
77.2325	170.8935	185.2054	213.8029	275.6736	321.6868	482.6531	517.8393	527.7709	565.9101	631.8088	779.6436	817.4056	862.4498	895.4851	912.4058	947.5162	983.8748	1043.2013	1104.5143	1116.0899	1125.9488	1138.4186	1145.3462	1161.912	1177.1588	1205.4159	1399.931	1421.8788	1459.0403	1514.9885	1534.5822	1903.2916	3066.1416	3091.1749	3094.4819	3123.5533	3184.6454	3196.0213
O=C1CC2(CO2)C11CO1	O=C1C[C@]2(CO2)[C@]21CO2	
InChI=1S/C6H6O3/c7-4-1-5(2-8-5)6(4)3-9-6/h1-3H2	InChI=1S/C6H6O3/c7-4-1-5(2-8-5)6(4)3-9-6/h1-3H2/t5-,6+/m0/s1
