14
gdb 16826	3.67066	2.10022	1.53675	4.3079	57.31	-0.2652	-0.0144	0.2508	808.6984	0.107324	-419.697521	-419.690865	-419.689921	-419.728355	24.91	
C	 0.1612701914	 1.5141970716	-0.0594223073	-0.402809
C	-0.0243249453	 0.0122994586	 0.0769702284	 0.100075
O	 0.5089563434	-0.6471139262	-1.0986198275	-0.244401
C	 1.2987478178	-1.7129031265	-0.788094144	 0.463667
O	 1.6978660698	-2.4918419982	-1.6021410374	-0.336692
C	 1.5345559537	-1.7068822109	 0.7028398658	-0.127861
O	 2.1281470183	-0.4647112122	 1.1266119349	-0.237662
C	 0.7168063569	-0.6202399067	 1.2439230127	 0.016623
H	 1.2258445223	 1.7582015162	-0.0677732223	 0.149353
H	-0.2936915439	 1.868997962	-0.9870180639	 0.139938
H	-0.3152008716	 2.0301060576	 0.7800301492	 0.123883
H	-1.0889120937	-0.2467469022	 0.1364273175	 0.103401
H	 1.8436661423	-2.6070351917	 1.2204507282	 0.132395
H	 0.3033345987	-0.6117441213	 2.2476273857	 0.12009
129.5284	193.3259	238.753	271.8352	379.4858	484.6559	522.5113	633.3911	716.7004	770.1677	838.4775	863.3722	882.3532	899.9177	969.6759	1008.5817	1050.1064	1087.6784	1118.7443	1150.5255	1194.9577	1242.1347	1308.0348	1359.4359	1369.3558	1406.6742	1420.4144	1486.0599	1499.7008	1887.6714	3034.8717	3050.9286	3124.9249	3143.5071	3170.0018	3201.3361
CC1OC(=O)C2OC12	C[C@H]1OC(=O)[C@H]2O[C@@H]12	
InChI=1S/C5H6O3/c1-2-3-4(8-3)5(6)7-2/h2-4H,1H3	InChI=1S/C5H6O3/c1-2-3-4(8-3)5(6)7-2/h2-4H,1H3/t2-,3+,4+/m1/s1
