22
gdb 77687	2.554	1.37049	1.12937	2.3061	82.56	-0.2379	0.065	0.3029	1201.336	0.192808	-404.310689	-404.301093	-404.300149	-404.344398	37.373	
C	-0.7386028321	 1.4564467532	 0.0470094314	-0.471934
C	 0.0220179778	 0.1365215031	 0.0451590903	 0.320738
C	-0.888133955	-1.0413045747	-0.3062825796	-0.442923
C	 1.3540484731	 0.116561155	-0.7813240733	-0.36715
C	 2.0301049544	-0.5509287543	 0.4173322164	 0.387877
C	 2.79210842	-1.8207165871	 0.4014842653	-0.310527
N	 3.4317177373	-0.5530949451	 0.802629179	-0.359812
C	 0.8735611841	-0.1685624266	 1.342791938	-0.004316
O	 1.2274164197	 0.9637316956	 2.1087325934	-0.422691
H	-0.0952287622	 2.2788684669	 0.3699317351	 0.125403
H	-1.1140260787	 1.6884287923	-0.9560954936	 0.114079
H	-1.6066953676	 1.4175909914	 0.7175393315	 0.102671
H	-1.3243831583	-0.9171890128	-1.3039014678	 0.112538
H	-0.3395654181	-1.9891457182	-0.2990055915	 0.117403
H	-1.7128373465	-1.1283620052	 0.4107701147	 0.109516
H	 1.3419672772	-0.4337149675	-1.7269011385	 0.09398
H	 1.7364917081	 1.1266016173	-0.9610704943	 0.103996
H	 2.6743006477	-2.5429873918	 1.2056317623	 0.116879
H	 3.0349155853	-2.254105898	-0.5663207403	 0.107391
H	 4.0007337821	-0.1864984436	 0.0428726407	 0.229523
H	 0.4750029566	-0.9707600904	 1.9812165436	 0.054223
H	 0.4459682551	 1.2486828905	 2.5936067972	 0.283135
67.0141	193.8501	221.4511	232.9756	244.0161	262.3508	291.4823	320.2403	326.7836	363.3695	377.4661	477.7762	538.8843	563.204	712.4945	830.6178	851.0514	862.3909	903.2241	923.4499	954.8672	971.1498	976.9834	978.1464	1008.3574	1035.9648	1107.2168	1124.0087	1148.703	1169.3053	1195.1457	1225.5509	1248.6503	1261.562	1289.3421	1293.3737	1322.3658	1380.8305	1398.557	1416.9434	1444.4988	1482.3616	1488.4843	1489.8298	1501.5825	1513.5677	1517.2891	2987.1038	3018.5126	3023.2203	3041.7673	3078.8755	3087.1363	3093.643	3095.5411	3096.7184	3115.9188	3180.7117	3491.8125	3813.2484
CC1(C)CC2(CN2)C1O	CC1(C)C[C@]2(CN2)[C@H]1O	
InChI=1S/C7H13NO/c1-6(2)3-7(4-8-7)5(6)9/h5,8-9H,3-4H2,1-2H3	InChI=1S/C7H13NO/c1-6(2)3-7(4-8-7)5(6)9/h5,8-9H,3-4H2,1-2H3/t5-,7-/m0/s1
