12
gdb 23980	6.23922	0.90095	0.78727	3.8967	77.81	-0.2608	-0.0502	0.2106	1302.4141	0.080405	-394.601518	-394.594278	-394.593334	-394.633568	26.326	
N	 0.1458392982	-1.1502298901	-0.0057858068	-0.330941
C	 0.0362482888	 0.003189638	 0.0022597902	 0.21798
C	-0.0739374142	 1.410846481	 0.0116950955	 0.253316
C	-1.1871417384	 2.2263979678	 0.0312162808	-0.34656
C	-0.7193671838	 3.5689496316	 0.0326075017	 0.17658
C	 0.6694581423	 3.5259755383	 0.0136432364	-0.144
N	 1.0443350662	 2.2262082352	 0.0013729745	-0.311192
C	-1.5100695737	 4.7451670337	 0.0498926577	 0.20344
N	-2.1590090524	 5.7038729359	 0.0640263784	-0.333464
H	-2.213891847	 1.9001899524	 0.0431147637	 0.152935
H	 1.3888962135	 4.3280456218	 0.0084935856	 0.168472
H	 1.9934437705	 1.8901920243	-0.0131479377	 0.293433
110.7216	119.8135	205.9865	214.1191	475.7399	487.8045	511.5364	540.8532	570.2365	596.9906	657.5851	663.1935	679.4142	804.6038	865.0196	990.0112	992.8679	1153.7787	1167.0486	1253.4678	1348.1529	1384.6212	1453.4467	1516.822	1602.1664	2343.9876	2353.1922	3280.6926	3282.2271	3667.5962
N#CC1=CC(=CN1)C#N	N#Cc1cc(c[nH]1)C#N	
InChI=1S/C6H3N3/c7-2-5-1-6(3-8)9-4-5/h1,4,9H	InChI=1S/C6H3N3/c7-2-5-1-6(3-8)9-4-5/h1,4,9H
