16
gdb 29924	2.04086	1.93967	1.00179	4.3231	81.85	-0.1995	-0.0081	0.1914	1130.6978	0.125838	-396.983314	-396.974491	-396.973547	-397.017456	31.816	
C	-0.0443197047	 1.4363134913	 0.0565572996	-0.342323
N	 0.0024931975	-0.0100823623	 0.0073909371	-0.069934
C	-0.0302693473	-0.7845376459	-1.104433669	-0.082407
C	 0.0174378857	-2.1180686148	-0.744130484	-0.230278
C	 0.0814478077	-2.1680670225	 0.669482901	 0.193628
N	 0.2149550442	-3.3001468711	 1.4597108711	-0.613549
C	 0.0657307588	-0.845575866	 1.1227555898	 0.146055
C	 0.0950030857	-0.3672760764	 2.4405230655	 0.184884
N	 0.1127866886	 0.0050317318	 3.5419698894	-0.380462
H	 0.8312023432	 1.8355996727	 0.5774037678	 0.156167
H	-0.054048341	 1.8215515383	-0.964138241	 0.141899
H	-0.9437444624	 1.7832042939	 0.575259976	 0.153232
H	-0.0841269771	-0.3323971928	-2.0826752883	 0.129715
H	 0.0193816239	-2.9600663891	-1.418508317	 0.102007
H	-0.2274524528	-4.1260641426	 1.0836578063	 0.251554
H	-0.0275216701	-3.1629219146	 2.4314422358	 0.259812
38.489	124.4768	132.1602	174.6022	266.8558	287.162	312.2605	411.6367	519.9524	541.1564	587.5846	601.9739	626.3939	682.8961	703.7127	754.5941	775.4365	806.045	1029.8628	1056.7299	1100.6363	1131.457	1152.6223	1258.6472	1281.1486	1383.0412	1430.5216	1456.6697	1478.2276	1480.818	1524.8046	1549.3277	1599.1943	1659.4908	2306.7325	3040.7037	3100.6064	3143.3756	3247.5342	3265.3157	3556.6705	3655.1627
CN1C=CC(N)=C1C#N	Cn1ccc(N)c1C#N	
InChI=1S/C6H7N3/c1-9-3-2-5(8)6(9)4-7/h2-3H,8H2,1H3	InChI=1S/C6H7N3/c1-9-3-2-5(8)6(9)4-7/h2-3H,8H2,1H3
