22
gdb 101794	2.66948	0.95427	0.75576	6.8118	79.59	-0.2349	0.0377	0.2726	1547.0686	0.193622	-441.525257	-441.514962	-441.514017	-441.56112	37.231	
C	-0.1101989781	 0.6845978995	 0.5786378026	-0.333121
N	 0.3355646645	-0.5955029171	 0.0207081796	-0.293369
H	 1.0657933641	-0.9819927263	 0.6152185502	 0.233628
H	-0.7559987812	-1.9315374398	 0.0862298141	 0.314179
C	 0.8438565379	-0.5366347811	-1.3675183644	 0.055792
C	 2.2509531169	 0.069980237	-1.4607247602	-0.406509
C	 0.7935624146	-1.9330378849	-2.01107931	-0.219848
C	-0.6180503139	-2.5128998926	-2.2584154645	-0.331382
C	-1.2481947396	-3.3461038908	-1.1355621375	 0.38243
O	-1.2301973449	-2.8108209599	 0.0885342746	-0.383666
O	-1.7550161992	-4.4188232685	-1.3485983181	-0.334873
H	 0.6581001587	 1.47072034	 0.5628000194	 0.117085
H	-0.9753036376	 1.0417062014	 0.0121187898	 0.13896
H	-0.4254494668	 0.5338941772	 1.6142843139	 0.138004
H	 0.1455370621	 0.1107643144	-1.9146704307	 0.090198
H	 2.5592711097	 0.1867549635	-2.5039956829	 0.127412
H	 2.2991251297	 1.055904002	-0.9892863886	 0.121917
H	 2.9853079897	-0.5784239775	-0.9676992342	 0.119624
H	 1.3020775377	-1.8622103641	-2.9785725792	 0.109904
H	 1.3922013797	-2.6311333355	-1.4107344861	 0.108486
H	-1.3117943289	-1.6947940198	-2.4966398178	 0.11572
H	-0.6009348252	-3.1704007468	-3.12903627	 0.12943
57.9602	64.3449	125.6351	173.3169	194.2887	218.582	247.4204	276.2523	288.056	349.535	439.7675	482.6416	495.9083	596.4765	699.0347	766.9372	826.1905	860.919	898.028	931.5196	953.0437	1039.4713	1049.3275	1059.3393	1089.6289	1094.995	1143.4766	1173.0614	1189.8336	1218.8237	1270.8014	1319.6104	1329.7293	1349.5282	1377.4849	1386.5542	1410.6219	1458.257	1468.4624	1471.8222	1483.3383	1492.0284	1496.3816	1500.3479	1508.2871	1517.7067	1848.1847	2999.0304	3018.1793	3022.347	3028.6404	3034.7812	3070.9051	3083.4089	3098.4856	3103.3333	3114.127	3117.4593	3121.6986	3484.9044
C[NH2+]C(C)CCC([O-])=O	CN[C@@H](C)CCC(=O)O	
InChI=1S/C6H13NO2/c1-5(7-2)3-4-6(8)9/h5,7H,3-4H2,1-2H3,(H,8,9)	InChI=1S/C6H13NO2/c1-5(7-2)3-4-6(8)9/h5,7H,3-4H2,1-2H3,(H,8,9)/t5-/m0/s1
