18
gdb 84827	3.04828	1.22966	0.98836	2.8851	75.47	-0.254	0.0064	0.2603	1211.3885	0.147974	-439.087466	-439.078946	-439.078001	-439.121288	31.676	
O	-0.2318651628	 1.0221349171	-0.8547320191	-0.429635
C	-0.1407548014	-0.1563649965	-0.0826931119	 0.093457
C	 0.3945584112	 0.0228346917	 1.3200193615	-0.111974
C	-0.3074605129	-0.6669334008	 2.2156100459	-0.056547
C	-1.4469618005	-1.4329289607	 1.5844132473	-0.281347
C	-1.5247566449	-0.8535405562	 0.1590652408	 0.061986
O	-2.5583871749	 0.1351335035	 0.1510119827	-0.205505
C	-3.1329153131	 0.4205681948	-1.0378568979	 0.127341
N	-3.9129729361	 1.4074128632	-1.1334629136	-0.446677
H	-0.8225950243	 1.6248283449	-0.3861403358	 0.296667
H	 0.5107856273	-0.8220805388	-0.6634807345	 0.096695
H	 1.2693185251	 0.6313321301	 1.5172500844	 0.104982
H	-0.09480945	-0.7199375629	 3.2773888108	 0.102552
H	-1.2354592339	-2.5095499771	 1.5572320211	 0.114911
H	-2.4012909393	-1.3071549301	 2.1052995289	 0.129833
H	-1.7446867775	-1.6101932621	-0.6014031521	 0.080666
H	-2.86242912	-0.2834380783	-1.835258104	 0.092537
H	-4.286681282	 1.4630660082	-2.0785575045	 0.230058
67.0779	77.215	123.7038	227.6759	280.2608	301.6341	380.8473	457.7105	467.7917	545.6993	607.9177	719.5517	764.171	818.1449	824.0108	854.6572	899.0166	952.4551	981.0712	1010.2767	1021.2332	1042.6149	1072.7055	1095.616	1121.7608	1145.1212	1211.6677	1237.8002	1274.196	1286.049	1303.3253	1327.4682	1372.6292	1381.7315	1427.0044	1432.3088	1473.8764	1685.9544	1742.806	3023.6254	3027.824	3035.7415	3055.7988	3081.285	3190.4072	3215.7507	3519.0007	3787.0405
OC1C=CCC1OC=N	O[C@H]1C=CC[C@H]1O[CH][NH]	
InChI=1S/C6H9NO2/c7-4-9-6-3-1-2-5(6)8/h1-2,4-8H,3H2	InChI=1S/C6H9NO2/c7-4-9-6-3-1-2-5(6)8/h1-2,4-8H,3H2/t5-,6+/m0/s1
