18
gdb 127132	2.63993	1.50741	1.02847	1.1278	75.66	-0.1912	0.0161	0.2073	1162.115	0.149355	-431.437739	-431.428589	-431.427645	-431.471425	33.482	
C	 0.0064924661	 1.4790849598	-0.082454684	-0.315381
N	-0.0308998918	 0.0405472369	 0.1359973456	-0.166155
C	 0.814262521	-0.3959277646	 1.2466950264	-0.351987
C	-1.301699398	-0.5309736894	 0.0987107894	 0.325104
N	-2.43688199	 0.1686435101	 0.0645110946	-0.295014
N	-3.3773910516	-0.7695172306	-0.0155385856	-0.105069
N	-2.9509125096	-2.0343402712	-0.0522678821	-0.274307
C	-1.6310155677	-1.9124575699	 0.022180366	 0.257998
N	-0.7622991245	-3.0049104733	 0.0662579963	-0.602445
H	 1.0475209668	 1.7875538518	-0.2192362535	 0.112228
H	-0.5614178703	 1.7300147491	-0.9805032755	 0.13562
H	-0.420197047	 2.0500491708	 0.7577786195	 0.113204
H	 0.5243521325	 0.0713378487	 2.202777593	 0.109005
H	 0.7491002196	-1.4796256216	 1.3636967126	 0.148428
H	 1.8542151283	-0.1269871162	 1.0357961436	 0.117072
H	-4.3500256777	-0.5385032347	-0.1133904684	 0.285169
H	-1.2460723722	-3.8657227686	-0.159144126	 0.253711
H	 0.0316793859	-2.8822785669	-0.5518557519	 0.252819
67.0636	163.7752	187.2134	232.4448	246.7878	262.7116	276.6412	312.9183	332.5889	379.8891	458.8754	544.9186	613.6585	684.6416	737.3923	755.9173	828.7159	968.993	978.4781	1078.789	1110.2585	1126.0351	1181.9559	1186.6813	1194.9166	1236.1331	1262.397	1338.4241	1416.6405	1446.9242	1462.5112	1477.1849	1483.4529	1498.6128	1500.5427	1514.7486	1586.2974	1596.3393	1644.7211	2966.0676	2980.0696	3069.493	3072.9252	3129.2339	3130.0068	3520.3733	3616.3648	3697.3613
CN(C)C1=NNN=C1N	CN(C)c1n[nH]nc1N	
InChI=1S/C4H9N5/c1-9(2)4-3(5)6-8-7-4/h1-2H3,(H3,5,6,7,8)	InChI=1S/C4H9N5/c1-9(2)4-3(5)6-8-7-4/h1-2H3,(H3,5,6,7,8)
