19
gdb 63964	3.618	1.20071	1.14251	2.3255	77.92	-0.2412	-0.0045	0.2367	1149.906	0.158483	-422.990501	-422.982144	-422.9812	-423.02303	32.787	
C	-0.1526690405	 1.5760577992	 0.0230494065	-0.437123
C	 0.0285733292	 0.0578611178	 0.0236250356	 0.360463
O	-1.2540387947	-0.5860618461	-0.0358779116	-0.472117
C	 0.8269060514	-0.4761065146	-1.2124784591	-0.273153
C	 1.4536112554	-1.7645362275	-0.6670671225	 0.101761
O	 2.9089004198	-2.0010995299	-0.7021169198	-0.308111
C	 2.9489988444	-2.1288584631	 0.7526508802	-0.156648
C	 1.5847428574	-1.4907775407	 0.7951594023	 0.195469
C	 0.8882328492	-0.437635449	 1.2021695541	-0.271956
H	 0.811230881	 2.0937730044	 0.0540597984	 0.118163
H	-0.6910740578	 1.8894067005	-0.8761560687	 0.126689
H	-0.7358082651	 1.8966774885	 0.8945735184	 0.104587
H	-1.6930588538	-0.4444206558	 0.8094835177	 0.272106
H	 0.1743285009	-0.60631917	-2.0789221431	 0.107902
H	 1.6254205991	 0.2278317942	-1.4635890473	 0.113665
H	 0.9300209857	-2.6758543074	-0.9776445853	 0.090874
H	 3.0007329636	-3.1827231118	 1.0566341975	 0.109508
H	 3.7768271882	-1.5735520769	 1.2059166018	 0.120508
H	 0.9621244067	 0.0946563081	 2.1439180149	 0.097415
95.9412	180.0393	241.6688	243.6841	296.5691	301.687	332.2463	364.6149	450.2849	511.1588	579.0078	637.0432	760.95	781.5461	828.6647	870.1322	892.8392	920.0814	927.1067	962.0053	972.6041	992.129	1052.1194	1071.5948	1117.1065	1138.2629	1140.8334	1161.5542	1229.1818	1248.4466	1259.6224	1307.0232	1331.6894	1345.8873	1364.5962	1403.7327	1468.554	1488.779	1490.6993	1509.6086	1740.2712	3011.9351	3027.1114	3039.5755	3065.4879	3074.4854	3094.3694	3115.0829	3124.0963	3192.7813	3809.646
CC1(O)CC2OCC2=C1	C[C@@]1(O)C[C@H]2OC[C]2[CH]1	
InChI=1S/C7H10O2/c1-7(8)2-5-4-9-6(5)3-7/h2,6,8H,3-4H2,1H3	InChI=1S/C7H10O2/c1-7(8)2-5-4-9-6(5)3-7/h2,6,8H,3-4H2,1H3/t6-,7+/m1/s1
