20
gdb 72431	2.548	1.94827	1.65858	2.7086	77.25	-0.2292	0.0742	0.3034	934.4482	0.173569	-403.123723	-403.116673	-403.115729	-403.154531	30.122	
C	-0.0014463078	 1.472007372	 0.0923616678	-0.485024
C	-0.003004858	-0.0358591614	-0.0228037455	 0.422843
C	 0.6930094626	-0.7049471254	-1.2333725768	-0.251926
C	 0.4375894798	-2.1282860151	-0.6694686943	-0.075748
C	 1.0530249214	-1.9502096645	 0.7283957774	-0.071886
O	 0.7214971567	-0.5938268585	 1.080707528	-0.298253
C	-1.1036257871	-2.0993593116	-0.5490595888	-0.048174
N	-1.6190340559	-1.8353579529	 0.8131111953	-0.324882
C	-1.4045454435	-0.7105199534	-0.1187859094	-0.07835
H	 1.020993024	 1.8586047685	 0.0673106263	 0.122823
H	-0.5653869256	 1.9242549983	-0.7295387124	 0.110785
H	-0.4594938476	 1.7810907339	 1.0366262859	 0.131217
H	 0.1785060181	-0.5249236372	-2.181356901	 0.091663
H	 1.7492541078	-0.433420442	-1.3226696349	 0.095922
H	 0.8383374405	-2.9691866068	-1.2359745137	 0.065235
H	 0.6303081538	-2.6319251725	 1.4697051547	 0.116711
H	 2.1449906236	-2.0635240852	 0.7016835916	 0.083939
H	-1.7147899962	-2.6504305177	-1.2557032352	 0.085086
H	-2.6133643885	-2.0544408689	 0.8360162855	 0.228405
H	-2.2565102081	-0.1397047496	-0.4750915105	 0.079611
207.1823	253.941	272.0827	321.4501	350.7677	445.5999	485.238	583.9446	591.0034	629.1018	765.1277	789.3917	800.8838	863.3033	873.0793	881.197	902.3088	917.7324	929.9593	959.044	990.8494	1026.881	1033.7562	1069.1299	1104.2046	1126.5035	1138.1176	1148.6406	1191.2077	1205.818	1218.523	1243.5147	1264.8946	1288.7565	1320.494	1349.9874	1381.2943	1404.1497	1415.0743	1480.9509	1487.3559	1496.8802	1512.7284	3011.5347	3040.658	3054.146	3099.4574	3109.8521	3112.7401	3114.1872	3118.5106	3152.6913	3167.9454	3484.1794
CC12CC(CO1)C1NC21	C[C@@]12C[C@@H](CO1)[C@H]1N[C@@H]21	
InChI=1S/C7H11NO/c1-7-2-4(3-9-7)5-6(7)8-5/h4-6,8H,2-3H2,1H3	InChI=1S/C7H11NO/c1-7-2-4(3-9-7)5-6(7)8-5/h4-6,8H,2-3H2,1H3/t4-,5+,6+,7-/m0/s1
