17
gdb 56303	7.48009	0.52979	0.50076	5.4094	71.19	-0.2585	0.0176	0.2761	2052.9198	0.133704	-455.176714	-455.166306	-455.165362	-455.214571	34.52	
N	-0.0430738629	 1.2971675636	-0.0686529115	-0.52415
C	 0.0655859632	-0.0512673696	 0.12999558	 0.375297
O	 1.1119741812	-0.6084522533	 0.3668806257	-0.32628
C	-1.284757915	-0.7796781005	 0.08909702	-0.166406
O	-1.0516605887	-2.1542957919	-0.0261168714	-0.220234
C	-2.2254649759	-2.926332832	 0.0304381189	-0.050028
C	-1.7867227154	-4.3921007376	-0.0741941856	-0.338813
C	-2.9234709119	-5.3059480517	-0.033788459	 0.246344
N	-3.8372709329	-6.0120947829	-0.0007119134	-0.301463
H	 0.8075308865	 1.8359045121	-0.0912753773	 0.266845
H	-0.8822122972	 1.7211023232	-0.4249882949	 0.259454
H	-1.8332597838	-0.5414035851	 1.0170256731	 0.12025
H	-1.8957853459	-0.4039877236	-0.7501461491	 0.098896
H	-2.7679147455	-2.7587252161	 0.9742573926	 0.112671
H	-2.9116530364	-2.6762057562	-0.794274137	 0.110379
H	-1.233079072	-4.5378522947	-1.007348462	 0.166963
H	-1.1002292973	-4.6228829639	 0.746667181	 0.170274
25.4076	39.2048	79.4065	112.5719	121.9981	169.6519	198.2275	310.2031	333.2709	399.0615	475.2996	503.9531	538.7586	619.659	665.8165	798.2446	852.1017	954.4185	1022.5914	1041.6348	1071.4983	1093.7656	1105.4836	1197.6103	1227.036	1262.7174	1294.7777	1301.8802	1309.005	1404.6635	1444.0898	1470.2034	1497.3718	1532.123	1619.9667	1829.1873	2367.1625	2948.315	2974.8678	2976.4453	3006.6365	3059.9048	3103.1586	3598.839	3731.1276
NC(=O)COCCC#N	NC(=O)COCCC#N	
InChI=1S/C5H8N2O2/c6-2-1-3-9-4-5(7)8/h1,3-4H2,(H2,7,8)	InChI=1S/C5H8N2O2/c6-2-1-3-9-4-5(7)8/h1,3-4H2,(H2,7,8)
