17
gdb 54292	2.32929	1.59438	1.07908	1.9235	69.79	-0.2518	-0.0283	0.2235	1116.007	0.134989	-455.179357	-455.170115	-455.169171	-455.213773	33.663	
C	 0.9070928195	 0.7077657179	 0.779340406	-0.46978
C	-0.2104195296	 0.0130666498	 0.0485425674	 0.319811
O	-1.3171862583	-0.118416452	 0.5332470237	-0.324239
C	 0.0307969688	-0.5740167613	-1.3323026388	 0.116891
C	-0.3322898613	-2.0362682102	-1.430938012	-0.230703
N	-1.1820994738	-1.0256110328	-2.0346603874	-0.357042
C	 1.1588921718	-0.0649350776	-2.2083545316	 0.31902
N	 0.869235676	-0.0980954607	-3.5320198421	-0.52424
O	 2.2262905764	 0.3057607819	-1.7512092869	-0.375142
H	 1.7795072166	 0.0536265138	 0.8538036413	 0.158155
H	 1.2478643345	 1.5778019335	 0.211492396	 0.162584
H	 0.5511450482	 1.0041841526	 1.7666982283	 0.130155
H	 0.2259290016	-2.6600384585	-2.1229332542	 0.13696
H	-0.6672176855	-2.5178478597	-0.5166424618	 0.140916
H	-1.9654847118	-0.8330168057	-1.4079225838	 0.255261
H	-0.0650037403	-0.3328880551	-3.8282138854	 0.278669
H	 1.5587271372	 0.2334167541	-4.1851068187	 0.262724
51.0504	75.6101	153.3914	216.9313	251.9194	266.3613	324.1228	355.9558	379.9692	409.0569	522.391	601.5724	609.6937	656.9525	668.9028	759.6889	884.5699	891.5782	929.2168	988.4689	1020.2805	1037.8689	1083.4309	1099.6265	1131.2147	1194.292	1272.7024	1294.5894	1336.3601	1393.3099	1411.9654	1440.1282	1461.5659	1494.2809	1585.9233	1773.3607	1788.6209	3058.4937	3114.5267	3125.3371	3160.9209	3211.1177	3452.4127	3583.4705	3730.3011
CC(=O)C1(CN1)C(N)=O	CC(=O)[C@]1(CN1)C(=O)N	
InChI=1S/C5H8N2O2/c1-3(8)5(2-7-5)4(6)9/h7H,2H2,1H3,(H2,6,9)	InChI=1S/C5H8N2O2/c1-3(8)5(2-7-5)4(6)9/h7H,2H2,1H3,(H2,6,9)/t5-/m1/s1
