20
gdb 70358	2.78784	1.66738	1.37825	1.2559	77.27	-0.227	0.0643	0.2913	1021.9332	0.172587	-403.111775	-403.104064	-403.10312	-403.143833	30.624	
C	-0.0444061766	 1.4733164891	 0.0760279494	-0.493021
C	-0.0204332622	-0.0333121012	-0.0053638409	 0.336467
C	-0.6016412809	-0.8941264983	 1.0561547226	-0.28647
N	 0.8562715538	-0.7688768878	 0.943550652	-0.133847
C	 1.5249482824	-1.8740325208	 0.2241560183	-0.191398
C	 1.0831098418	-1.8577494396	-1.2553963013	-0.077011
C	-0.1030313288	-2.7343831922	-1.7076911388	-0.09014
O	-0.9983321105	-1.6021780815	-1.7290685354	-0.289744
C	 0.0736929034	-0.6884742782	-1.3808454794	 0.048858
H	 0.7986978456	 1.9137139643	-0.4687749677	 0.116852
H	-0.9689447264	 1.8719452184	-0.3563425745	 0.12312
H	 0.0197357298	 1.8018007834	 1.1162140162	 0.128645
H	-1.0271676643	-0.4362212636	 1.9458472295	 0.10988
H	-1.0861878514	-1.8162357927	 0.7469914618	 0.121934
H	 2.604071161	-1.7068479238	 0.2987218148	 0.109753
H	 1.310016302	-2.8303802872	 0.7145183087	 0.106397
H	 1.9323884757	-1.8539296971	-1.9396339195	 0.084067
H	 0.0048753474	-3.1780024204	-2.7050177236	 0.103291
H	-0.4293108157	-3.5123507431	-1.0053808039	 0.099566
H	 0.2292222437	 0.0505952622	-2.1740143584	 0.072803
89.1731	182.1617	202.1124	280.3236	297.7794	352.9493	429.4035	499.5005	575.7107	667.8289	736.92	765.6666	784.92	856.6517	880.5922	916.3681	934.0531	954.2613	973.8539	1007.8495	1021.4287	1049.9989	1087.1358	1101.8198	1113.5628	1127.2564	1161.5697	1167.962	1204.2629	1239.593	1252.3525	1279.6982	1324.484	1330.5142	1337.748	1368.606	1400.7707	1418.7794	1487.8363	1493.6992	1498.3074	1517.7882	1524.8018	3008.5586	3028.5958	3036.6599	3049.6011	3051.9847	3074.2249	3089.2347	3103.8615	3104.8063	3121.051	3190.1133
CC12CN1CC1COC21	C[C@]12CN1C[C@H]1CO[C@@H]21	
InChI=1S/C7H11NO/c1-7-4-8(7)2-5-3-9-6(5)7/h5-6H,2-4H2,1H3	InChI=1S/C7H11NO/c1-7-4-8(7)2-5-3-9-6(5)7/h5-6H,2-4H2,1H3/t5-,6+,7+,8?/m0/s1
