18
gdb 133804	4.48111	0.53421	0.52786	2.1359	61.78	-0.2704	0.0732	0.3436	2005.3927	0.142684	-570.600312	-570.590317	-570.589373	-570.636847	34.617	
O	-0.0674352973	 1.4846500074	 0.0107439607	-0.42065
C	 0.0380337541	 0.0693817736	 0.0020690692	-0.075263
C	-1.3733475847	-0.5030577842	 0.0124015475	-0.173191
C	-1.3890768522	-2.0332714183	 0.0042286792	-0.197437
C	-2.8113560179	-2.602039521	 0.0146788962	-0.333443
C	-2.8386554024	-4.1152073396	 0.0067000176	 0.284371
F	-2.2135239651	-4.6314911196	 1.0793896661	-0.08654
F	-4.0976565111	-4.5819114796	 0.0161574471	-0.080244
F	-2.234134573	-4.619713396	-1.0832674064	-0.08654
H	 0.8205750907	 1.8534717819	 0.0043778749	 0.287011
H	 0.5766369985	-0.2859794846	-0.8919057608	 0.08684
H	 0.5935155501	-0.295594655	 0.8817265035	 0.08684
H	-1.8956793091	-0.1220835863	 0.8985753442	 0.108965
H	-1.9124303558	-0.1125276836	-0.8594652512	 0.108966
H	-0.8630932499	-2.4093074296	-0.8812068101	 0.115036
H	-0.8463656794	-2.4188656314	 0.8753425783	 0.115036
H	-3.3591136526	-2.2734589212	 0.9039225829	 0.130122
H	-3.375916543	-2.263855383	-0.8603418388	 0.130123
52.4518	62.8772	96.0054	133.3744	140.6392	212.0509	263.2572	284.9631	361.8517	400.3787	481.526	538.6975	565.1133	658.2542	748.0003	802.2819	847.2227	924.3654	1010.4595	1040.5166	1059.028	1065.7003	1091.1953	1174.1079	1193.3617	1238.2146	1238.9277	1271.8893	1298.2193	1305.5322	1318.7033	1344.7743	1374.0166	1414.0465	1467.8587	1477.6404	1492.0349	1507.9226	1529.8304	2959.3267	2984.5854	3027.4777	3036.9852	3057.4855	3059.4354	3081.0448	3106.9339	3830.6851
OCCCCC(F)(F)F	OCCCCC(F)(F)F	
InChI=1S/C5H9F3O/c6-5(7,8)3-1-2-4-9/h9H,1-4H2	InChI=1S/C5H9F3O/c6-5(7,8)3-1-2-4-9/h9H,1-4H2
