12
gdb 46183	1.92616	1.66738	1.30195	4.4092	65.35	-0.2922	-0.0318	0.2604	1011.2179	0.075894	-435.468599	-435.4605	-435.459556	-435.50167	28.579	
O	-0.0855780171	 0.0773250347	-0.2908384869	-0.288222
C	-0.0392964317	 1.2201246794	-0.0026877244	 0.464635
O	-1.0044490994	 2.0318328738	 0.5032331283	-0.225185
C	-0.1306129266	 3.1983573482	 0.5585216576	-0.095557
C	 1.0567029848	 2.3624637221	-0.0137716913	-0.22454
C	 2.1734156242	 2.1267127677	 0.8809928777	 0.272661
C	 3.0749487111	 1.9187472819	 1.6450266493	-0.392551
C	 1.4769415139	 2.7441896289	-1.3592496377	 0.263842
N	 1.7826083141	 3.0552676469	-2.4286625081	-0.314412
H	-0.4962444617	 3.9944042431	-0.0898549321	 0.160209
H	 0.0102184314	 3.5370989649	 1.5842294189	 0.156936
H	 3.881669927	 1.7320488884	 2.3114333387	 0.222185
111.7039	117.5042	125.2227	157.1299	250.5885	370.9115	406.1527	473.4687	557.7515	577.4802	650.4229	660.4899	677.5573	729.1479	780.0662	907.5682	937.8451	993.7894	1097.5896	1152.0269	1158.5644	1219.7055	1341.2588	1509.2585	1969.1741	2249.9644	2365.3342	3097.0993	3172.6669	3496.1647
O=C1OCC1(C#C)C#N	O=C1OC[C@]1(C#C)C#N	
InChI=1S/C6H3NO2/c1-2-6(3-7)4-9-5(6)8/h1H,4H2	InChI=1S/C6H3NO2/c1-2-6(3-7)4-9-5(6)8/h1H,4H2/t6-/m0/s1
