13
gdb 21829	5.98538	1.46595	1.17754	3.1385	62.47	-0.2246	0.0041	0.2287	932.2419	0.098477	-394.828199	-394.821552	-394.820608	-394.859382	24.302	
O	-0.3440101575	 0.07882326	 0.0021703506	-0.31038
C	-0.07426985	 1.2596420437	 0.0084687631	 0.1472
N	 1.1834836766	 1.7911436427	 0.0011012404	-0.384677
C	 2.3830667033	 1.078818004	-0.014140381	 0.448746
N	 3.520470455	 1.7695527969	-0.0176215303	-0.324149
N	 4.4737846602	 0.8134791327	-0.0330785423	-0.182879
C	 3.9676197312	-0.4406170564	-0.0392122191	-0.009078
C	 2.5941990476	-0.319078866	-0.0272207646	-0.290161
H	-0.8421290163	 2.0569594034	 0.0211486682	 0.082559
H	 1.2797178481	 2.7958769045	 0.0080861321	 0.26279
H	 5.4387651399	 1.093605945	-0.0385225127	 0.278419
H	 4.6060606086	-1.3097972023	-0.0514095642	 0.137187
H	 1.8469064633	-1.0904360883	-0.0273915703	 0.144422
77.8763	185.3344	213.1936	365.642	395.2407	465.5202	592.6259	626.381	656.3522	724.7514	781.5598	859.5293	866.3296	945.3498	992.1761	1019.4384	1064.0969	1106.7843	1164.9213	1218.1279	1312.0868	1385.991	1432.6851	1479.1594	1505.6467	1527.3169	1613.1739	1805.8541	2949.0216	3264.8419	3319.6396	3621.0228	3688.6901
O=CNC1=NNC=C1	O=CNc1n[nH]cc1	
InChI=1S/C4H5N3O/c8-3-5-4-1-2-6-7-4/h1-3H,(H2,5,6,7,8)	InChI=1S/C4H5N3O/c8-3-5-4-1-2-6-7-4/h1-3H,(H2,5,6,7,8)
