17
gdb 95154	2.7672	1.80825	1.51506	1.6117	66.76	-0.2503	-0.0029	0.2474	912.828	0.138063	-458.95409	-458.947066	-458.946122	-458.985198	28.407	
O	-0.0328513154	 1.435679283	 0.0453103696	-0.435299
C	 0.001328275	 0.0200999516	-0.010286019	 0.094639
C	 0.7680180382	-0.5604492608	 1.2097487285	-0.111492
O	 0.4816400149	-1.9348124612	 1.4782385385	-0.261862
C	-0.8908304076	-2.2527393483	 1.3013864397	 0.138521
O	-1.2770428581	-1.9457624381	-0.023423918	-0.240154
C	-1.441007568	-0.5217477873	 0.0209309824	 0.007174
C	-2.0848141092	-0.291643147	 1.379531854	-0.087361
C	-1.7861110713	-1.3426053095	 2.1373624696	-0.101444
H	 0.8544263247	 1.7707854097	-0.1174165069	 0.29019
H	 0.4545401833	-0.3340184291	-0.9460334441	 0.084004
H	 1.849504494	-0.5052999079	 1.0491733307	 0.101477
H	 0.5181311484	 0.0675422038	 2.0742127702	 0.106655
H	-0.9731894235	-3.327497964	 1.4654966291	 0.093015
H	-2.0241917269	-0.1894282686	-0.8401093873	 0.089208
H	-2.6081455401	 0.6122146288	 1.6582958004	 0.120084
H	-2.0043524383	-1.502680835	 3.1842713625	 0.112646
152.2612	227.3596	272.6479	298.6122	382.2973	426.6684	474.9615	507.681	619.6612	646.0046	748.9564	797.063	842.491	868.6341	927.3805	931.1738	948.5176	952.9239	982.6595	1021.335	1053.1498	1076.7707	1111.2332	1120.2738	1137.2753	1217.8183	1256.1451	1280.8042	1304.5734	1330.9003	1345.8262	1350.9247	1368.8923	1395.5235	1430.9964	1504.2187	1660.3448	3012.3306	3026.2949	3080.1033	3098.3524	3121.255	3221.2719	3246.7111	3821.2017
OC1COC2OC1C=C2	O[C@H]1CO[C@@H]2O[C@H]1C=C2	
InChI=1S/C6H8O3/c7-4-3-8-6-2-1-5(4)9-6/h1-2,4-7H,3H2	InChI=1S/C6H8O3/c7-4-3-8-6-2-1-5(4)9-6/h1-2,4-7H,3H2/t4-,5-,6+/m0/s1
