18
gdb 110791	2.72399	1.2507	1.10274	3.2736	71.39	-0.2424	0.0245	0.267	1156.0806	0.149015	-439.107253	-439.098948	-439.098004	-439.140661	31.398	
O	 0.0654200588	 1.4105058454	 0.2578095471	-0.414003
C	 0.0588398552	 0.0572650303	-0.1759031865	-0.100993
C	-1.3182952262	-0.5565429178	-0.0864983703	-0.058928
C	-1.5947349447	-2.0498924131	-0.111851272	-0.088955
C	-0.4881148673	-3.0468077731	 0.1967807374	-0.352869
C	-0.040233958	-2.7276025819	 1.6349554356	 0.386857
O	 0.8888778631	-3.2108449337	 2.2393588344	-0.369099
N	-0.8891222122	-1.7518771406	 2.1079682924	-0.29493
C	-1.8399807736	-1.2601915653	 1.1567123371	-0.04147
H	-0.1952902631	 1.4183878741	 1.1843722093	 0.2801
H	 0.3838065047	 0.0837288987	-1.221462742	 0.118334
H	 0.798231689	-0.5392576085	 0.3758644319	 0.105827
H	-2.071810013	 0.0334777907	-0.6031240732	 0.09969
H	-2.4346938403	-2.3876728974	-0.7060366826	 0.100414
H	-0.8564832847	-4.0768421977	 0.1601703029	 0.135362
H	 0.3790671274	-2.994207696	-0.4670348252	 0.138364
H	-0.6980148472	-1.3079642634	 2.9923055461	 0.25076
H	-2.8369092576	-1.0564236907	 1.5314309176	 0.105537
67.632	92.8149	148.3662	235.0818	291.032	335.4499	457.4682	464.901	509.8285	554.9969	597.2908	660.5692	736.6512	773.3933	813.4706	851.7841	908.952	955.8025	967.9458	1022.4046	1062.8199	1065.4533	1086.3116	1100.3969	1129.2707	1186.5631	1199.2467	1240.1152	1248.9223	1285.0873	1346.2668	1361.5072	1383.3686	1405.5279	1422.9699	1445.591	1467.0537	1500.3846	1831.9555	3012.002	3062.5535	3071.9896	3102.0018	3140.3361	3167.1091	3185.4438	3638.3354	3815.6572
OCC1C2CC(=O)NC12	OC[C@H]1[C@H]2CC(=O)N[C@@H]12	
InChI=1S/C6H9NO2/c8-2-4-3-1-5(9)7-6(3)4/h3-4,6,8H,1-2H2,(H,7,9)	InChI=1S/C6H9NO2/c8-2-4-3-1-5(9)7-6(3)4/h3-4,6,8H,1-2H2,(H,7,9)/t3-,4+,6-/m1/s1
