21
gdb 52710	3.62132	0.67053	0.60574	1.7375	88.69	-0.2417	0.0607	0.3024	1897.1986	0.179763	-387.049198	-387.038382	-387.037437	-387.087688	37.261	
C	 0.075560914	 1.4481783424	-0.0309892758	-0.497911
C	 0.068277747	-0.008053842	-0.055441731	 0.076944
C	 0.0690036723	-1.2126244936	-0.064771077	 0.051197
C	 0.0521427093	-2.6750228338	-0.1011282042	-0.14462
C	-1.3175822408	-3.2186573031	 0.3537506187	-0.391717
C	 0.4589273703	-3.1791827654	-1.5105570343	-0.216668
C	 0.6446470257	-4.6755482746	-1.5787648715	 0.083654
C	 1.7682866682	-5.2893669703	-2.2976207355	-0.180849
O	 1.7740849586	-5.2041394775	-0.8721597475	-0.237711
H	 0.8279081817	 1.831852057	 0.6672202592	 0.146588
H	 0.3013184336	 1.8632423428	-1.0196919286	 0.144999
H	-0.8965870511	 1.8471584395	 0.2796293998	 0.145618
H	 0.8142281166	-3.0474611295	 0.5967605361	 0.11941
H	-2.1059072383	-2.9125873671	-0.3416751774	 0.119235
H	-1.309441849	-4.31085365	 0.4113791782	 0.118701
H	-1.5730454603	-2.8302549504	 1.342796358	 0.125907
H	-0.3028940766	-2.8731348478	-2.2386309949	 0.105537
H	 1.3950617405	-2.6904660482	-1.7978955478	 0.110467
H	-0.2575680258	-5.2781310153	-1.464837507	 0.094234
H	 1.6693338193	-6.2941722084	-2.7065071556	 0.113319
H	 2.489183915	-4.6508475148	-2.8070453721	 0.113671
15.6257	45.4757	73.8381	84.9878	147.3459	192.8086	238.7799	287.2903	306.1589	338.1591	393.42	463.5887	510.6242	540.3019	733.3534	796.6323	845.8878	893.2584	905.1499	957.3556	1016.9241	1041.8916	1053.7576	1055.171	1092.6531	1115.0979	1141.3862	1159.6189	1174.6891	1193.8713	1252.4333	1290.3273	1300.8369	1342.2402	1366.3474	1407.207	1415.2665	1445.1744	1471.9458	1479.3755	1479.5781	1494.3504	1501.5981	1529.7802	2369.0871	3014.7912	3024.4361	3034.2049	3040.2536	3079.1444	3082.5285	3083.9659	3084.3257	3102.8791	3112.3453	3121.0027	3166.2376
CC#CC(C)CC1CO1	CC#C[C@@H](C)C[C@H]1CO1	
InChI=1S/C8H12O/c1-3-4-7(2)5-8-6-9-8/h7-8H,5-6H2,1-2H3	InChI=1S/C8H12O/c1-3-4-7(2)5-8-6-9-8/h7-8H,5-6H2,1-2H3/t7-,8+/m1/s1
