19
gdb 106649	2.80863	1.25431	1.03258	3.0124	78.84	-0.2169	0.016	0.2329	1226.9478	0.158183	-419.170734	-419.161502	-419.160558	-419.204715	34.753	
C	-0.2394912968	 1.4520582459	 0.0363770997	-0.372183
C	 0.2218752175	-0.0113825861	-0.0451533461	-0.306701
C	 0.8018094946	-0.5234136918	 1.2347896393	 0.271885
C	 0.0656807312	-1.0295855743	 2.4419237525	-0.351838
C	 1.0894985141	-1.935852834	 1.8052947872	 0.284624
O	 0.7705429395	-3.2190641269	 1.4405609505	-0.449263
C	 2.4820961415	-1.4374491384	 2.0164307342	 0.293724
N	 3.5554709314	-2.0868114854	 2.1563824859	-0.552435
N	 2.1440495589	-0.0680876627	 1.7466898408	-0.397523
H	 0.5900846125	 2.1171650502	 0.2966529184	 0.122372
H	-0.6491356752	 1.7845836171	-0.9220907381	 0.11667
H	-1.0138840349	 1.5749767912	 0.7995628445	 0.126892
H	-0.6238137674	-0.6534291199	-0.3174924655	 0.118788
H	 0.963334543	-0.1222295606	-0.8485051465	 0.099576
H	 0.2271554814	-0.5827180823	 3.4194266569	 0.120363
H	-0.9474243701	-1.3707106092	 2.2446651476	 0.127007
H	 1.5614107254	-3.6023269766	 1.0401676306	 0.299452
H	 4.3755966582	-1.478169439	 2.1259981497	 0.218494
H	 2.7429291253	 0.3646535629	 1.0488512582	 0.230098
78.6218	102.3538	136.7133	190.9201	226.9312	265.946	342.9265	372.2821	425.9484	472.778	491.1495	571.0909	660.4796	690.1901	731.3517	777.7824	785.6994	853.3062	885.5472	920.2927	967.1547	996.993	1004.0865	1048.6692	1088.0845	1099.7104	1103.4263	1196.2515	1218.6325	1268.7213	1317.3876	1344.5385	1374.1102	1403.8305	1413.4264	1427.1118	1475.289	1496.7658	1504.1409	1513.8684	1792.5167	3012.0603	3038.244	3060.9672	3106.2013	3108.8357	3113.1816	3200.4863	3461.1631	3517.3977	3778.7729
CCC12CC1(O)C(=N)N2	CC[C@@]12C[C@]1(O)[C]([NH])N2	
InChI=1S/C6H10N2O/c1-2-5-3-6(5,9)4(7)8-5/h9H,2-3H2,1H3,(H2,7,8)	InChI=1S/C6H10N2O/c1-2-5-3-6(5,9)4(7)8-5/h9H,2-3H2,1H3,(H2,7,8)/t5-,6+/m1/s1
