21
gdb 85899	2.61824	1.37653	1.19936	1.9616	77.52	-0.2468	0.0707	0.3176	1142.5156	0.182032	-424.225717	-424.216723	-424.215779	-424.258639	35.873	
C	-0.031557946	 1.5403078492	-0.0232121429	-0.440827
C	 0.0412758537	 0.0136125795	-0.0144258534	 0.377653
O	-1.2800765078	-0.5425630442	 0.0687327125	-0.479482
C	 0.7910990473	-0.5893806534	-1.2260322802	-0.318458
C	 1.295002725	-1.97306672	-0.7499898677	 0.124812
O	 2.4858273431	-2.4044930527	-1.3971915521	-0.439796
C	 1.530755784	-1.8004201868	 0.7376722191	-0.036816
C	 2.2805660785	-0.5666610301	 1.1732511628	-0.305773
C	 0.7742616609	-0.5729916599	 1.1870780875	-0.031235
H	 0.9676884192	 1.9850583447	-0.0033768898	 0.119183
H	-0.5411499441	 1.9043441078	-0.9242349184	 0.100907
H	-0.5882458307	 1.8958777522	 0.8490353325	 0.12189
H	-1.8017831688	-0.1593407488	-0.6446299663	 0.272244
H	 0.1374458491	-0.6524495698	-2.1020309003	 0.080293
H	 1.6543220273	 0.0229615551	-1.5056885942	 0.105877
H	 0.4983639798	-2.7187451838	-0.8861405036	 0.074411
H	 2.2673982586	-2.6125100147	-2.3109968831	 0.278667
H	 1.5875852835	-2.690597343	 1.3527227479	 0.083426
H	 2.7744174357	-0.6118527588	 2.1374244358	 0.110746
H	 2.8168568139	 0.0194435416	 0.4350972209	 0.115356
H	 0.2499144977	-0.5405705439	 2.1352466228	 0.086919
107.2147	166.6634	234.8684	246.5999	273.7365	284.0357	336.0131	352.4422	366.4908	449.6639	472.2034	533.6684	602.6696	613.5986	756.8069	816.7654	841.3159	869.8003	928.5245	945.0101	958.7196	971.5215	1009.6559	1043.7493	1063.3391	1069.6322	1091.3578	1108.6842	1113.0576	1164.0317	1192.6437	1206.6109	1221.7968	1248.8021	1285.3712	1317.9452	1353.0402	1389.0106	1403.1997	1404.2544	1431.8614	1478.0131	1487.7374	1495.5656	1502.2939	2993.7663	3022.8487	3046.6113	3088.7265	3092.534	3116.3294	3136.8909	3173.9054	3182.7188	3218.0871	3802.6438	3817.8749
CC1(O)CC(O)C2CC12	C[C@@]1(O)C[C@@H](O)[C@H]2C[C@@H]12	
InChI=1S/C7H12O2/c1-7(9)3-6(8)4-2-5(4)7/h4-6,8-9H,2-3H2,1H3	InChI=1S/C7H12O2/c1-7(9)3-6(8)4-2-5(4)7/h4-6,8-9H,2-3H2,1H3/t4-,5+,6+,7+/m0/s1
