18
gdb 106719	2.52727	1.57139	1.25054	2.5275	72.39	-0.2256	0.084	0.3096	1067.6677	0.146643	-438.995533	-438.987079	-438.986135	-439.028618	32.171	
C	 0.1295472845	 1.263203897	 0.2381039489	-0.252435
O	-0.2074610699	-0.0544499436	-0.1625175249	-0.277669
C	 0.5137061877	-0.5118192505	-1.2375915561	 0.375919
C	 1.9485236134	-1.0061778692	-1.1001244484	-0.397854
C	 0.8859103663	-1.9832288708	-1.5220694265	 0.343611
O	 0.632329004	-3.10918787	-0.7745478037	-0.456667
C	 0.5109208765	-1.7730894675	-2.9681549173	-0.138779
N	-0.9184923264	-1.3625826648	-2.9884982195	-0.348533
C	 0.1360800892	-0.3532028465	-2.6909489817	-0.143634
H	 1.1906028966	 1.3400379182	 0.5134658838	 0.111366
H	-0.0810339472	 1.9953510548	-0.5543000785	 0.109234
H	-0.486432988	 1.4982608741	 1.1088909376	 0.12931
H	 2.7411175368	-0.6951201248	-1.7758587148	 0.104652
H	 2.2533032164	-1.1358563302	-0.0659035839	 0.127786
H	-0.3163956559	-3.2778564084	-0.8313828524	 0.297619
H	 0.9981267158	-2.1678762776	-3.8522161138	 0.096144
H	-1.1816406163	-1.2404071876	-3.9680769479	 0.225295
H	 0.2914788567	 0.4963666576	-3.345886261	 0.094637
74.2979	139.4509	168.9881	214.7711	251.1141	301.0309	388.276	437.7122	452.1958	577.4825	603.5291	634.7194	753.5731	803.3834	821.1808	853.3334	858.1129	931.3837	945.4058	983.5377	1034.8517	1055.7559	1081.7768	1109.0366	1125.9665	1134.2417	1178.6528	1181.2846	1216.3269	1259.2281	1270.753	1323.1002	1364.6426	1376.0482	1415.6031	1476.2465	1488.3641	1503.3824	1509.5459	2991.3123	3045.3689	3109.6686	3121.7958	3175.2695	3187.5322	3205.6336	3452.3008	3781.5339
COC12CC1(O)C1NC21	CO[C@@]12C[C@]1(O)[C@H]1N[C@@H]21	
InChI=1S/C6H9NO2/c1-9-6-2-5(6,8)3-4(6)7-3/h3-4,7-8H,2H2,1H3	InChI=1S/C6H9NO2/c1-9-6-2-5(6,8)3-4(6)7-3/h3-4,7-8H,2H2,1H3/t3-,4+,5-,6+/m0/s1
