19
gdb 36435	3.5045	1.13179	0.96975	5.0106	78.94	-0.2205	0.0301	0.2506	1237.6954	0.160714	-382.037057	-382.028895	-382.027951	-382.070768	30.683	
N	-0.1828544142	-1.1251733444	 0.0013675513	-0.304502
C	-0.100064606	 0.0272187131	-0.0079065886	 0.273122
C	 0.0040742165	 1.4855881534	-0.0194559129	-0.376514
C	 1.4510837284	 1.9884189476	 0.000136287	 0.07358
C	 1.6857440026	 3.5109606832	 0.1968849953	-0.302552
C	 2.7265051567	 3.1139480327	 1.2732192364	 0.054475
C	 2.2724674416	 3.1628331173	 2.7442008523	-0.246244
C	 1.7153143282	 1.7298636072	 2.5265766013	-0.173535
N	 2.3383476827	 1.6471916488	 1.161177974	-0.138884
H	-0.4785529356	 1.8629593427	-0.9289263739	 0.156681
H	-0.5710087619	 1.8854816842	 0.8223398852	 0.149024
H	 1.944292012	 1.619208308	-0.9053905621	 0.103515
H	 2.0604508688	 4.05389633	-0.6734021156	 0.111625
H	 0.8234798406	 4.0524173833	 0.6004494247	 0.102066
H	 3.7654306851	 3.3712508756	 1.0507762801	 0.080415
H	 3.0981371257	 3.208472608	 3.4572603756	 0.11436
H	 1.548678082	 3.941982393	 2.9974681549	 0.102821
H	 2.1177836381	 0.9622346754	 3.1923243701	 0.120818
H	 0.6243615987	 1.6472731007	 2.5502786049	 0.099729
47.3767	69.9547	141.8104	272.0866	324.1865	350.4666	397.7474	433.5401	544.3959	658.1046	709.2176	749.3569	792.3474	859.5729	893.0338	910.9556	925.0434	938.9788	964.3411	985.5041	1041.8281	1068.4469	1111.2037	1116.1058	1157.8322	1194.9955	1211.1793	1229.3552	1241.6706	1254.0896	1271.5577	1294.9094	1303.3079	1326.2532	1343.9504	1393.0987	1460.4303	1480.468	1487.4345	1511.5995	2363.4261	3037.6657	3043.2656	3046.903	3051.071	3061.0283	3069.5094	3081.497	3090.7826	3111.1231	3121.0979
N#CCC1CC2CCN12	N#CC[C@H]1C[C@H]2CCN12	
InChI=1S/C7H10N2/c8-3-1-6-5-7-2-4-9(6)7/h6-7H,1-2,4-5H2	InChI=1S/C7H10N2/c8-3-1-6-5-7-2-4-9(6)7/h6-7H,1-2,4-5H2/t6-,7+/m0/s1
