18
gdb 66807	3.66493	1.78336	1.76132	2.126	76.21	-0.2172	0.0692	0.2864	867.5558	0.150127	-364.744627	-364.738411	-364.737467	-364.774791	26.71	
C	-0.1011491064	 1.543560233	 0.0066529835	-0.516961
C	 0.0026954824	 0.0475792921	 0.025175839	 0.343813
C	-0.0911541361	-0.866183421	-1.1795756475	-0.124214
C	 0.9569676119	-1.9582855977	-1.0821663535	-0.062307
C	 1.7477011395	-1.7864656008	 0.157988882	-0.055526
C	 0.8550620775	-0.8357659801	 0.9856037183	-0.145527
C	-0.2380040317	-1.9352315837	 0.8915990776	-0.010987
C	-1.0719692544	-1.0381221059	-0.036675035	-0.131762
N	 0.6787621714	-2.8507854811	 0.0796917665	-0.160051
H	 0.8554548289	 2.0042482774	-0.267793719	 0.12213
H	-0.8499873219	 1.8767254277	-0.7197812713	 0.120318
H	-0.3917402312	 1.9383547181	 0.9868173318	 0.120054
H	-0.4294456437	-0.4808307867	-2.1328320697	 0.086043
H	 1.3531988114	-2.4500851928	-1.9621860263	 0.091456
H	 2.7963528407	-2.0277629401	 0.2962702495	 0.08982
H	 1.1969657714	-0.4270991539	 1.9332523094	 0.07061
H	-0.6855740301	-2.4157055336	 1.7579932064	 0.077135
H	-2.1488882298	-0.9688251608	-0.1342160017	 0.085957
202.678	217.0099	270.3933	535.8624	560.3673	581.2068	714.7531	745.8089	758.9378	784.4181	796.9876	809.2307	821.4361	880.1336	886.1685	903.4838	914.0579	930.034	955.2914	982.5005	1008.6816	1031.0028	1052.2656	1062.8663	1107.0158	1151.6249	1154.7508	1174.9347	1201.0636	1223.2982	1236.5061	1252.6784	1280.071	1307.4068	1343.3477	1411.062	1437.9135	1485.3055	1497.6281	3020.7419	3080.4398	3093.8269	3142.8374	3150.2971	3164.1913	3180.415	3188.9251	3206.116
CC12C3C4C5C1C(C23)N45	C[C@@]12[C@H]3[C@H]4[C@H]5[C@@H]1[C@@H]([C@@H]23)N45	
InChI=1S/C8H9N/c1-8-2-3(8)6-7-4(8)5(2)9(6)7/h2-7H,1H3	InChI=1S/C8H9N/c1-8-2-3(8)6-7-4(8)5(2)9(6)7/h2-7H,1H3/t2-,3+,4-,5+,6-,7+,8+,9?/m0/s1
