20
gdb 9839	3.16663	1.31799	1.23935	1.5827	70.4	-0.2596	0.0732	0.3329	1098.8849	0.174697	-386.121011	-386.111519	-386.110575	-386.155092	34.642	
C	 0.2852505686	 1.6771940067	-0.1346984667	-0.401693
C	 0.1272957425	 0.1580587394	 0.0079335627	-0.052861
C	 0.6104579894	-0.5792465483	-1.2536050745	-0.076483
O	-0.1231099474	-0.212705629	-2.4134664184	-0.420294
C	 0.7962763142	-0.3982956055	 1.2610988996	 0.420235
C	 2.301094962	-0.2752131899	 1.3878538424	-0.471216
C	-0.0103979712	-0.5397296891	 2.4834897365	-0.23248
O	 0.2763411378	-1.678545883	 1.6680074683	-0.286903
H	 1.3389478239	 1.9635854971	-0.220824376	 0.116475
H	-0.2213491063	 2.0159897243	-1.0414036587	 0.131365
H	-0.1396315643	 2.207189862	 0.7235313103	 0.110007
H	-0.9425705384	-0.0718947611	 0.1130094423	 0.066462
H	 1.6504566457	-0.3156778842	-1.4751541994	 0.108178
H	 0.571000849	-1.6642391442	-1.0801350036	 0.105822
H	-1.0212136917	-0.5427287421	-2.3074060471	 0.282461
H	 2.6165335016	 0.7727131723	 1.3802123257	 0.126091
H	 2.6369701885	-0.7303235934	 2.3225650471	 0.127409
H	 2.8108963375	-0.785774816	 0.5646419202	 0.130847
H	 0.4775961274	-0.5287120414	 3.4576788803	 0.109287
H	-1.0512187189	-0.2168350044	 2.487603029	 0.107291
55.6611	111.6584	178.267	190.8733	224.4588	259.8376	279.4878	309.5918	342.6115	374.3236	472.0137	484.7149	508.1358	732.659	829.3851	865.7225	910.6339	922.0449	933.4092	995.1786	1058.9451	1065.2022	1094.6303	1119.8349	1135.8118	1142.995	1166.4473	1232.403	1288.0324	1294.3881	1357.4762	1386.4287	1404.2468	1407.1361	1423.5523	1427.5995	1484.5479	1494.5164	1498.3384	1508.2894	1509.6926	1531.2397	3001.9013	3004.512	3038.4501	3043.3163	3073.2536	3075.1098	3102.5423	3108.2298	3125.1436	3126.3875	3159.2544	3812.7513
CC(CO)C1(C)CO1	C[C@@H](CO)[C@@]1(C)CO1	
InChI=1S/C6H12O2/c1-5(3-7)6(2)4-8-6/h5,7H,3-4H2,1-2H3	InChI=1S/C6H12O2/c1-5(3-7)6(2)4-8-6/h5,7H,3-4H2,1-2H3/t5-,6+/m0/s1
