19
gdb 37294	3.04454	1.79596	1.69751	1.6715	76.87	-0.2439	0.0662	0.3101	902.344	0.16121	-385.797073	-385.790549	-385.789604	-385.827591	27.882	
C	-0.0349083903	 1.598349569	 0.1032635834	-0.227884
C	 1.5283227776	 1.6190176035	 0.0901847175	-0.227886
C	 1.551971996	 0.0657292312	-0.0091188254	-0.031274
C	-0.0191443956	 0.0449565768	 0.0040326733	-0.031275
C	-0.0144416172	-0.688876209	-1.3816548841	-0.060495
C	 0.0017898783	 0.0464479211	-2.7468959252	-0.000168
O	 0.7284079078	 1.269928291	-2.6240068696	-0.229566
C	 1.4849549072	 0.0660563868	-2.7593149073	-0.000169
C	 1.5434778939	-0.6682751902	-1.3946981476	-0.060496
H	-0.4594204096	 1.9413436211	 1.0508733848	 0.087862
H	-0.5257568447	 2.1323604713	-0.7088530748	 0.111825
H	 1.9912287978	 2.1656425687	-0.7299080578	 0.111825
H	 1.959411225	 1.9733171481	 1.0306388386	 0.087862
H	 2.1378693473	-0.4540176288	 0.7514272565	 0.061923
H	-0.578285591	-0.4899258603	 0.7741655759	 0.061923
H	-0.5359829564	-1.6466939366	-1.4161311124	 0.071238
H	-0.7155145551	-0.008971012	-3.5586984802	 0.101759
H	 2.1897797209	 0.0294397068	-3.5830269191	 0.101759
H	 2.0895121881	-1.6119754087	-1.4381139963	 0.071238
178.4907	239.5571	255.8057	348.2682	479.9505	646.3661	649.118	674.3826	716.8355	789.3813	799.677	809.7311	836.4914	837.6008	892.3652	911.9185	912.5631	931.5336	956.9197	1003.0801	1014.9544	1048.5307	1063.64	1079.546	1091.9381	1122.9349	1152.4271	1198.3449	1211.6523	1223.8752	1228.0161	1252.0683	1254.7916	1260.0144	1291.6928	1296.7903	1318.9312	1329.6742	1377.5206	1471.6462	1491.2484	3056.2824	3065.7969	3075.7449	3086.4338	3094.6037	3106.2691	3134.1702	3145.9093	3166.2824	3181.1523
C1CC2C1C1C3OC3C21	C1C[C@H]2[C@@H]1[C@H]1[C@H]3O[C@H]3[C@@H]21	
InChI=1S/C8H10O/c1-2-4-3(1)5-6(4)8-7(5)9-8/h3-8H,1-2H2	InChI=1S/C8H10O/c1-2-4-3(1)5-6(4)8-7(5)9-8/h3-8H,1-2H2/t3-,4+,5-,6+,7-,8+
