18
gdb 99043	3.62532	0.76974	0.70232	3.0205	75.05	-0.2461	0.0164	0.2625	1601.2141	0.146575	-435.279612	-435.269331	-435.268386	-435.315825	36.003	
C	 0.0309789524	 1.5873401258	 0.0689969606	-0.394034
C	 0.026659566	 0.0503961217	-0.0268410895	-0.090214
N	 0.6361260275	-0.46142446	-1.2456862154	-0.324006
C	-0.0920320423	-0.5494611087	-2.408317781	 0.331065
N	-1.351743727	-0.3483998417	-2.4168449213	-0.527676
C	 0.7429907006	-0.9240898467	-3.6334191915	-0.159147
O	-0.0507304513	-1.2822002658	-4.7399935254	-0.396632
C	 0.693488799	-0.5563951426	 1.1352306585	 0.267972
N	 1.236111226	-1.0100266479	 2.0488218886	-0.317859
H	 1.0531471915	 1.9761081479	 0.0604862094	 0.125475
H	-0.5177120037	 1.9894573779	-0.7849322472	 0.152413
H	-0.4564094993	 1.9164694212	 0.9906583471	 0.13944
H	-1.0128749526	-0.292774586	-0.0479004396	 0.172324
H	 1.6413643865	-0.429755467	-1.3070054526	 0.251534
H	-1.7017554879	-0.4814095335	-3.3651346301	 0.222566
H	 1.3309620713	-0.0528313961	-3.945979754	 0.139419
H	 1.4574504073	-1.7158231299	-3.3605763469	 0.112905
H	-0.4674060739	-2.1286529787	-4.5454750999	 0.294455
42.6638	63.6019	111.8212	130.7072	185.5071	239.3986	278.5273	323.5643	330.5801	346.0013	384.5861	418.3357	551.8379	577.7437	582.7016	689.9507	829.4946	880.2912	925.2004	948.819	1001.2807	1077.0878	1092.7145	1116.259	1142.8922	1174.2534	1210.0415	1282.1909	1338.176	1360.6205	1401.7207	1403.5434	1413.9245	1488.176	1490.1638	1495.1631	1544.6856	1716.6892	2361.4024	2991.3432	3049.4406	3062.2582	3073.9331	3126.1991	3144.2841	3491.6227	3634.4929	3813.2329
CC(NC(=N)CO)C#N	C[C@@H](NC(=N)CO)C#N	
InChI=1S/C5H9N3O/c1-4(2-6)8-5(7)3-9/h4,9H,3H2,1H3,(H2,7,8)	InChI=1S/C5H9N3O/c1-4(2-6)8-5(7)3-9/h4,9H,3H2,1H3,(H2,7,8)/t4-/m1/s1
