18
gdb 111962	3.26916	1.17312	0.91303	2.5396	75.16	-0.2093	-0.0004	0.2089	1270.6606	0.147206	-439.123006	-439.113767	-439.112823	-439.157379	33.019	
C	-0.0728986548	 1.4779271988	 0.0275054499	-0.35263
N	-0.0180233839	 0.0355846724	-0.0386931187	-0.082468
C	 0.0217614785	-0.7391442133	-1.212789795	-0.031631
C	 0.1009007045	-2.0453835609	-0.9444925669	-0.154793
C	 0.1117962381	-2.2235114423	 0.5515692332	-0.173785
C	 1.3179782732	-2.9693140021	 1.1234838426	-0.075972
O	 1.2279325662	-4.3167802925	 0.6882079133	-0.425945
C	 0.0540075884	-0.7787069591	 1.0772540158	 0.399859
O	 0.0810217623	-0.402421887	 2.2305635179	-0.396009
H	 0.7946181894	 1.9341093513	-0.4631284598	 0.130251
H	-0.9848606114	 1.8645483075	-0.4411459255	 0.131337
H	-0.069823212	 1.7512665861	 1.0841792909	 0.168605
H	-0.0159881577	-0.233515028	-2.1679956142	 0.125093
H	 0.145296466	-2.8500019979	-1.6607790898	 0.119224
H	-0.7868951903	-2.7500353247	 0.9003723033	 0.125701
H	 2.246192083	-2.4941370693	 0.7703258646	 0.091594
H	 1.2894594153	-2.8858447158	 2.2191348156	 0.112632
H	 1.9876205052	-4.7946946732	 1.0334936829	 0.288937
74.2233	111.4373	126.8714	151.4014	197.1351	247.5095	294.653	300.139	350.9908	500.5861	577.3642	624.0872	701.94	721.8968	740.3884	851.8661	907.5029	932.2977	988.9199	1056.0085	1068.6431	1092.4485	1102.4184	1148.1617	1155.2322	1210.9383	1230.7274	1266.6026	1289.1404	1323.667	1342.7697	1410.8606	1447.7896	1458.2528	1494.7806	1512.0875	1522.5753	1666.9868	1806.2687	2980.0681	3020.6455	3023.6223	3034.9734	3077.2161	3143.2623	3228.515	3268.91	3831.093
CN1C=CC(CO)C1=O	CN1C=C[C@@H](CO)C1=O	
InChI=1S/C6H9NO2/c1-7-3-2-5(4-8)6(7)9/h2-3,5,8H,4H2,1H3	InChI=1S/C6H9NO2/c1-7-3-2-5(4-8)6(7)9/h2-3,5,8H,4H2,1H3/t5-/m0/s1
