15
gdb 29209	3.09397	1.44018	0.99055	6.8366	72.58	-0.2247	-0.0659	0.1588	1126.6415	0.112516	-453.998797	-453.99062	-453.989676	-454.031647	30.423	
C	-0.0716160293	 1.5052076889	-0.0127675118	-0.489965
C	-0.0164494403	 0.0050664878	-0.0092103911	 0.327795
N	-0.0117908353	-0.6083346448	-1.1570430908	-0.377459
C	 0.0208841466	-1.9861572575	-1.2271378486	 0.433182
O	 0.0361333736	-2.6393494673	-2.2286758146	-0.338938
O	 0.0322539169	-2.6958151351	-0.0014876831	-0.205411
C	 0.058416267	-2.0447975887	 1.1679132983	 0.038936
C	 0.0280240524	-0.6954738482	 1.2555832147	 0.119089
N	-0.0635268812	 0.0144880088	 2.4689766211	-0.591184
H	 0.856826355	 1.9283435179	 0.392737568	 0.136038
H	-0.2035175684	 1.8651421177	-1.032490298	 0.159661
H	-0.8879415582	 1.8583015397	 0.6260126524	 0.155405
H	 0.0835999966	-2.7176060016	 2.0196184543	 0.133118
H	 0.0285673577	-0.5856718073	 3.2795947665	 0.247824
H	 0.6081641871	 0.7696274495	 2.5411537327	 0.251911
67.3019	165.845	204.1033	236.0236	295.2462	345.8034	367.8294	388.1058	476.2893	551.564	586.4441	649.2383	715.1387	749.5368	785.8771	795.7159	814.8568	892.8657	995.942	1050.783	1080.6654	1132.6694	1227.9586	1269.1363	1342.8722	1394.6766	1462.8707	1464.4672	1477.7551	1571.7776	1652.9555	1714.2369	1864.4331	3027.8986	3089.0698	3163.5139	3184.3281	3521.9847	3610.952
CC1=NC(=O)OC=C1N	Cc1nc(=O)occ1N	
InChI=1S/C5H6N2O2/c1-3-4(6)2-9-5(8)7-3/h2H,6H2,1H3	InChI=1S/C5H6N2O2/c1-3-4(6)2-9-5(8)7-3/h2H,6H2,1H3
