19
gdb 87733	3.1507	1.16268	0.98767	1.7814	78.32	-0.2468	-0.0034	0.2434	1247.225	0.158394	-423.020593	-423.011857	-423.010913	-423.054406	33.26	
C	-0.13355227	 1.5673161531	 0.1587027208	-0.421183
C	-0.1328388632	 0.0624573367	 0.2389200962	-0.005982
O	 1.039526034	-0.6168693642	-0.2200810014	-0.301027
C	 0.7104909222	-0.7031353451	 1.1791981756	 0.402636
C	 1.6853241277	-0.1113922426	 2.2002425658	-0.349423
C	 1.6565743186	-1.0790252045	 3.4175368529	 0.080754
O	 1.0868541061	-0.5093068206	 4.5958257882	-0.430369
C	 0.8545467243	-2.2598695919	 2.9148830924	-0.125405
C	 0.3205664291	-2.0357853334	 1.7141953761	-0.136136
H	 0.8165203228	 1.9845007347	 0.4999763797	 0.131082
H	-0.2957537724	 1.8915154026	-0.8746460423	 0.131186
H	-0.9411694762	 1.9843738325	 0.7704622925	 0.120529
H	-1.0640048828	-0.409470089	-0.085885992	 0.082561
H	 2.6810369841	-0.0671856052	 1.7505878638	 0.124728
H	 1.423518969	 0.8986691321	 2.5246182909	 0.111822
H	 2.666707425	-1.3659231275	 3.7265856678	 0.095157
H	 0.1468417891	-0.3796744023	 4.4258621097	 0.274231
H	 0.7109530623	-3.1469861463	 3.5212801293	 0.106483
H	-0.3160494297	-2.7108477191	 1.1535235841	 0.108354
38.8099	147.3258	172.0502	203.8619	280.8288	325.9264	357.6814	398.4572	448.4368	461.7432	534.5775	589.3861	731.6553	778.4752	808.4483	823.0192	851.4324	898.3296	965.2285	980.6608	987.4364	1018.1682	1043.8106	1072.2712	1121.3487	1123.0601	1158.9443	1184.7503	1230.3946	1259.3325	1279.4525	1320.338	1334.2713	1379.8774	1408.431	1429.8787	1462.2602	1476.0272	1488.3832	1504.63	1674.0385	3036.8765	3057.0324	3068.4229	3071.0537	3098.8118	3112.4355	3130.3576	3189.8403	3213.9243	3794.7877
CC1OC11CC(O)C=C1	C[C@H]1O[C@]21C[C@@H](O)C=C2	
InChI=1S/C7H10O2/c1-5-7(9-5)3-2-6(8)4-7/h2-3,5-6,8H,4H2,1H3	InChI=1S/C7H10O2/c1-5-7(9-5)3-2-6(8)4-7/h2-3,5-6,8H,4H2,1H3/t5-,6+,7+/m1/s1
