16
gdb 6598	5.72256	1.35489	1.33545	2.7311	66.6	-0.2474	-0.0393	0.2081	958.6052	0.127922	-383.686205	-383.678417	-383.677473	-383.718889	28.469	
C	-0.110364896	 1.4167045135	-0.1054034816	-0.50898
C	 0.0832265902	-0.0624962487	-0.0063654209	 0.398216
C	 0.7614736227	-1.0475250668	-0.998794225	-0.284938
C	 0.009363635	-1.854881099	 0.0864728494	 0.319112
C	 0.6087892795	-0.920041932	 1.1776048514	-0.283581
O	-1.1354151465	-0.9310342766	-0.036651756	-0.372218
C	-0.2749094069	-3.3185660698	 0.1781579713	 0.034959
O	 0.5648490607	-4.1690983544	 0.0299525229	-0.248982
H	 0.8569145363	 1.9273967029	-0.0695206388	 0.13085
H	-0.6047526272	 1.6753022111	-1.0464664096	 0.138146
H	-0.7261072931	 1.7792976807	 0.7229803506	 0.137129
H	 0.3128595418	-1.089687679	-1.9919360949	 0.11259
H	 1.8516866273	-1.1020934508	-1.0122285208	 0.108689
H	 1.6859932423	-0.9671555117	 1.3508982715	 0.10916
H	 0.0220291275	-0.8539182462	 2.0945903344	 0.112828
H	-1.3357657738	-3.5590051231	 0.4112719161	 0.09702
36.8226	150.8478	184.3253	198.063	312.0183	336.1292	454.3612	518.3497	592.0627	633.681	679.7661	736.2547	767.4894	902.0093	933.0601	959.0188	980.7825	1000.9937	1066.882	1093.583	1111.5277	1144.5962	1162.0905	1169.008	1200.3386	1255.4661	1359.9579	1404.1124	1415.9774	1464.8009	1476.461	1487.8682	1517.8966	1824.2181	2893.4158	3040.9528	3067.3927	3076.1538	3116.1439	3117.8301	3151.5415	3157.029
CC12CC(C1)(O2)C=O	C[C@@]12C[C@@](C1)(O2)C=O	
InChI=1S/C6H8O2/c1-5-2-6(3-5,4-7)8-5/h4H,2-3H2,1H3	InChI=1S/C6H8O2/c1-5-2-6(3-5,4-7)8-5/h4H,2-3H2,1H3/t5-,6+
