19
gdb 108629	3.05098	1.10839	0.8296	3.3934	79.81	-0.2328	-0.0122	0.2206	1356.883	0.157078	-423.060281	-423.050649	-423.049705	-423.095681	34.578	
C	 0.2095800601	 1.561915474	 0.0457585975	-0.500412
C	 0.0422843217	 0.072650837	 0.0309276394	 0.202309
C	-1.0750761216	-0.6715923948	-0.0231388129	 0.190147
C	-2.521942491	-0.2869266862	-0.0865958285	-0.166003
O	-2.7268300791	 1.1135955336	-0.0891491418	-0.409656
C	-0.7787027519	-2.1544753994	-0.0170119721	-0.413116
C	 0.7502783169	-2.2275638587	 0.0516585313	 0.398023
O	 1.408694937	-3.2339954972	 0.0764713716	-0.305811
C	 1.2807183169	-0.7937474057	 0.0826014981	-0.404351
H	 0.8286581492	 1.8822571319	-0.8029338442	 0.118056
H	-0.7421745321	 2.08501992	 0.0052692608	 0.16027
H	 0.7493781568	 1.8737046307	 0.9499497734	 0.118057
H	-2.9589816355	-0.7503977185	-0.9901605207	 0.097776
H	-3.0383883757	-0.7588052834	 0.7694661759	 0.097777
H	-3.6735264361	 1.2747542072	-0.1304302655	 0.290947
H	-1.2170934178	-2.6880092316	 0.8381380376	 0.13088
H	-1.1380231742	-2.679443232	-0.9133503237	 0.130884
H	 1.9626324647	-0.6244837739	-0.7624395035	 0.132113
H	 1.8836634116	-0.6330187731	 0.9872417873	 0.132111
36.4588	62.5033	153.8888	170.7251	224.0099	229.6085	280.6194	314.2133	359.9611	478.1499	490.6799	509.161	547.6706	665.9915	745.9401	810.5312	824.9591	922.7238	954.1532	1036.339	1057.5647	1068.9936	1073.2513	1134.5983	1159.678	1180.6711	1187.0332	1213.5801	1265.2365	1268.9733	1286.9691	1333.8003	1410.8826	1441.086	1448.2042	1469.3776	1487.8421	1492.6597	1506.8691	1736.0145	1852.6491	2930.4037	2940.219	3008.4825	3012.0266	3016.0684	3034.5019	3038.0867	3051.9159	3186.499	3836.9477
CC1=C(CO)CC(=O)C1	CC1=C(CO)CC(=O)C1	
InChI=1S/C7H10O2/c1-5-2-7(9)3-6(5)4-8/h8H,2-4H2,1H3	InChI=1S/C7H10O2/c1-5-2-7(9)3-6(5)4-8/h8H,2-4H2,1H3
