19
gdb 81732	2.97462	1.27902	1.06811	4.9057	80.84	-0.2558	0.0023	0.2581	1184.4853	0.158983	-382.046664	-382.037753	-382.036809	-382.079935	33.548	
C	-1.0164693888	 1.3571830297	-0.213231654	-0.410515
C	-0.3647184083	-0.0142761927	-0.2177141616	 0.05379
C	 0.6375320428	-0.4456892188	-1.3429896068	-0.084396
C	 1.0047090459	 0.4856659992	-2.4901772466	-0.417256
C	 1.6559845505	-0.6560820845	-0.2117778101	 0.2032
C	 1.8169407389	 0.5616606435	 0.6203880962	-0.277641
N	 0.6483097181	-0.2845757332	 0.8793869411	-0.165028
C	 2.5320261756	-1.7846738891	-0.1127912021	 0.202448
N	 3.2444917049	-2.6958741347	-0.0774731109	-0.340462
H	-0.3063557572	 2.1765517792	-0.3532956438	 0.119578
H	-1.7583730894	 1.4229955734	-1.015672318	 0.127786
H	-1.5343908161	 1.5184224495	 0.7375946931	 0.137159
H	-1.1423965127	-0.7729255002	-0.1020767892	 0.099747
H	 0.3332002239	-1.413695107	-1.7480509365	 0.103118
H	 1.3415621348	 1.4660082337	-2.1427209366	 0.118635
H	 1.8087166017	 0.0514000618	-3.0933171617	 0.134881
H	 0.14390389	 0.6433055004	-3.1480742271	 0.125601
H	 2.5497921503	 0.5157662926	 1.4192558306	 0.146198
H	 1.7045396654	 1.5398537072	 0.1630002439	 0.123158
107.9938	139.9806	186.6872	203.8299	206.654	228.4914	319.7917	355.5828	453.6364	502.0915	554.8413	591.1269	628.3218	697.4947	750.2726	794.3096	826.8267	910.2222	947.4935	1015.4186	1044.141	1073.7163	1096.6453	1120.5584	1132.9333	1144.069	1185.9525	1230.7248	1249.535	1308.1478	1333.5155	1379.537	1395.1582	1410.5062	1417.3762	1484.6129	1489.2833	1491.2566	1503.2056	1508.43	2346.9687	3037.8964	3042.7853	3067.3168	3083.2492	3104.4276	3108.7552	3112.6737	3118.4582	3127.7581	3214.9083
CC1C(C)C2(CN12)C#N	C[C@H]1[C@@H](C)[C@]2(CN12)C#N	
InChI=1S/C7H10N2/c1-5-6(2)9-4-7(5,9)3-8/h5-6H,4H2,1-2H3	InChI=1S/C7H10N2/c1-5-6(2)9-4-7(5,9)3-8/h5-6H,4H2,1-2H3/t5-,6+,7-,9?/m1/s1
