18
gdb 124553	3.97554	1.05251	0.88417	2.6576	74.54	-0.2407	0.0114	0.252	1331.25	0.147725	-435.291738	-435.2827	-435.281756	-435.32573	33.447	
C	-0.0984852863	 1.3596035337	-0.2853397771	-0.387334
C	 0.0205277516	-0.1216169543	 0.1208283141	-0.082752
C	 0.7714691245	-0.2940994798	 1.4456346385	-0.385562
C	-1.3395774702	-0.7577304503	 0.1425491285	 0.377221
N	-1.8660284616	-1.2696846535	 1.2232951091	-0.202467
O	-3.1350314034	-1.7361827282	 0.7734362848	-0.216254
C	-3.1877611496	-1.4352952329	-0.5266372589	 0.491218
N	-4.3312653575	-1.7328533887	-1.1961857473	-0.594039
N	-2.1248872132	-0.8378659536	-0.9886302607	-0.389304
H	 0.8964523837	 1.7999511271	-0.4024286317	 0.112728
H	-0.6396634666	 1.4643800332	-1.2285776142	 0.136225
H	-0.6333910595	 1.9289089649	 0.4823237305	 0.121266
H	 0.5785628473	-0.6355417408	-0.6736945284	 0.099681
H	 0.2412741586	 0.2024291811	 2.2635390419	 0.131145
H	 0.8759114786	-1.3486622124	 1.7125298343	 0.126447
H	 1.7703146513	 0.1456704986	 1.3680107588	 0.106555
H	-4.9133146887	-2.4533589921	-0.7998443751	 0.275656
H	-4.2501473187	-1.7362966018	-2.2001634771	 0.279572
44.1094	134.0772	178.3165	222.4309	251.8867	290.2757	318.234	361.396	394.894	442.9679	477.447	498.5649	622.3099	726.7312	770.4862	787.9033	887.1577	899.4659	933.2847	971.4176	1011.6828	1036.912	1108.2948	1122.7235	1138.3997	1192.5624	1294.695	1329.7234	1388.157	1397.9796	1420.9084	1445.5286	1486.2337	1489.6119	1499.7246	1514.1181	1573.0716	1606.474	1685.5398	3017.0312	3037.5319	3045.1783	3105.4308	3115.3926	3123.2408	3127.5789	3600.6689	3715.8621
CC(C)C1=NOC(N)=N1	CC(C)c1noc(N)n1	
InChI=1S/C5H9N3O/c1-3(2)4-7-5(6)9-8-4/h3H,1-2H3,(H2,6,7,8)	InChI=1S/C5H9N3O/c1-3(2)4-7-5(6)9-8-4/h3H,1-2H3,(H2,6,7,8)
