20
gdb 95641	2.05537	1.81739	1.03657	3.6472	76.26	-0.2343	0.0278	0.2621	1172.1454	0.171704	-440.321259	-440.31227	-440.311326	-440.354948	33.476	
C	-0.0345724667	 1.5530809281	-0.062809564	-0.404669
C	 0.0357091585	 0.0241698145	 0.0231653095	 0.033434
C	 0.6755717871	-0.5369804869	-1.2456987168	-0.092773
O	 0.8978211033	-1.9234889384	-1.1397531704	-0.239408
C	 1.8718067437	-2.1862573525	-0.1527689003	-0.196294
C	 1.6438115294	-1.4944096374	 1.1895426085	 0.385277
O	 2.2381488877	-1.8953212375	 2.1763633889	-0.38773
N	 0.7823175245	-0.4284499722	 1.2044795625	-0.104784
C	 0.4095848755	 0.1285706665	 2.4983775568	-0.351609
H	 0.9696880308	 1.9889591444	-0.0788308281	 0.128215
H	-0.5520866281	 1.8463281492	-0.9817152074	 0.12445
H	-0.5837069321	 1.9861764321	 0.7757535677	 0.129199
H	-0.9908746057	-0.3703365495	 0.0901758768	 0.089303
H	 0.0038120296	-0.3798752819	-2.0938475035	 0.117501
H	 1.620912534	-0.005569943	-1.45253997	 0.091722
H	 1.8726080047	-3.2613696409	 0.0362676219	 0.143822
H	 2.8792358122	-1.9067186376	-0.5046834052	 0.117349
H	 0.8822428289	-0.4782897077	 3.2691384544	 0.170449
H	 0.7469456866	 1.1643850625	 2.6072997014	 0.127018
H	-0.6800393338	 0.1026607781	 2.6238140175	 0.119528
77.4579	119.6721	159.3436	192.5028	250.7024	308.9378	322.4608	367.8408	417.9147	458.3366	477.582	542.1041	584.7171	659.4124	721.2444	898.5078	947.2995	962.69	1005.2562	1019.955	1088.9655	1118.0953	1131.5947	1146.6635	1157.9815	1198.2638	1246.2508	1275.3415	1314.2958	1341.1017	1367.1173	1369.1759	1407.9161	1414.3721	1428.6511	1448.4962	1473.5905	1490.2526	1495.1513	1497.7422	1510.3374	1524.4112	1763.95	2955.551	2972.1431	2976.9762	3022.0314	3041.9526	3079.1768	3093.6973	3111.0895	3119.0581	3129.0133	3165.1677
CC1COCC(=O)N1C	C[C@H]1COCC(=O)N1C	
InChI=1S/C6H11NO2/c1-5-3-9-4-6(8)7(5)2/h5H,3-4H2,1-2H3	InChI=1S/C6H11NO2/c1-5-3-9-4-6(8)7(5)2/h5H,3-4H2,1-2H3/t5-/m0/s1
