20
gdb 64309	2.22825	1.75328	1.26251	2.9568	81.16	-0.2125	-0.0499	0.1626	1080.15	0.171165	-403.178798	-403.169914	-403.16897	-403.211884	34.403	
C	-0.1369884087	 1.5269074975	 0.1133187835	-0.40223
C	-0.0078892974	-0.0049614418	-0.0043793042	 0.135805
C	-1.3969061391	-0.6431996574	-0.0823777586	-0.420876
N	 0.7243761162	-0.3460046998	-1.2410020212	-0.317783
C	 2.1406225516	 0.0079883961	-1.2437493198	-0.238832
C	 2.8649432265	-0.2914670184	 0.0398625273	-0.046923
C	 2.2076984683	-0.5657628316	 1.1725629122	-0.147424
C	 0.7314298244	-0.5107937335	 1.2552146229	 0.365537
O	 0.1437085521	-0.7989724822	 2.2801687659	-0.347017
H	 0.8370179132	 2.0152776482	 0.2142376515	 0.1159
H	-0.6286333652	 1.9208730724	-0.7807499076	 0.124559
H	-0.7312703255	 1.7857124853	 0.9934110096	 0.132182
H	-1.9519296806	-0.2303928295	-0.9288085485	 0.117148
H	-1.3224052299	-1.7286301155	-0.2144258974	 0.108336
H	-1.9468316197	-0.4635161968	 0.8422345175	 0.140566
H	 0.6448634	-1.3481191904	-1.3858935454	 0.217446
H	 2.6248222706	-0.5156399264	-2.0763709171	 0.119413
H	 2.2561769368	 1.0791132662	-1.4734859092	 0.129911
H	 3.9533233747	-0.26146635	 0.0226808512	 0.106438
H	 2.7198755916	-0.8049521125	 2.0996838872	 0.107843
72.1215	184.6439	210.6024	226.7878	252.4466	302.3949	336.0499	353.5668	390.7686	470.1104	502.7755	535.2701	641.6366	662.7067	763.4015	815.8185	830.7707	838.7139	919.1853	952.0859	973.3208	1005.9052	1020.5938	1038.4959	1100.1144	1153.5537	1179.0907	1187.8701	1236.6851	1271.7611	1298.9567	1374.1048	1388.3294	1400.3086	1409.0222	1464.2348	1473.333	1484.1937	1492.3463	1499.1109	1517.2344	1684.6875	1767.3142	2988.9287	3038.8129	3042.6635	3053.3251	3107.749	3112.1634	3126.5204	3140.2705	3149.6336	3183.8376	3506.4983
CC1(C)NCC=CC1=O	CC1(C)NCC=CC1=O	
InChI=1S/C7H11NO/c1-7(2)6(9)4-3-5-8-7/h3-4,8H,5H2,1-2H3	InChI=1S/C7H11NO/c1-7(2)6(9)4-3-5-8-7/h3-4,8H,5H2,1-2H3
