18
gdb 5859	4.50433	0.90703	0.90701	1.2162	90.47	-0.2394	-0.0069	0.2325	1371.9317	0.150203	-310.629561	-310.619936	-310.618992	-310.663367	35.549	
C	-0.0177796816	 1.5439100628	 0.0081162246	-0.39184
C	-0.0001193904	-0.0026756677	 0.0056174642	 0.015882
C	 0.7522143191	-0.5180560425	 1.2548633958	-0.391886
C	-1.4500884191	-0.5411066732	 0.0109523339	-0.391864
C	 0.6852436129	-0.4751725603	-1.1993110385	 0.600407
C	 1.252134482	-0.865693325	-2.1956989156	-0.449128
C	 1.889405481	-1.3043848602	-3.3154774363	 0.312014
C	 2.4549104518	-1.6936943148	-4.3091435907	-0.582721
H	 0.9985824527	 1.9470387943	 0.0018430099	 0.124913
H	-0.54376474	 1.9307401732	-0.8689595765	 0.124917
H	-0.5284694785	 1.9081045418	 0.9058252131	 0.113757
H	 0.2475915969	-0.169628938	 2.1622740956	 0.113756
H	 0.7786595433	-1.6110134183	 1.2727289894	 0.12493
H	 1.7822674598	-0.1515790788	 1.2703941733	 0.12493
H	-2.0012958925	-0.1904914616	-0.865851806	 0.12492
H	-1.4614716602	-1.6344469935	 0.0064813571	 0.124935
H	-1.9718707848	-0.1936948179	 0.9089523674	 0.113733
H	 2.9519436077	-2.0358174203	-5.1823994608	 0.188344
87.5091	88.3035	212.3175	229.0512	229.4103	269.6859	273.2047	329.6598	354.1624	356.415	503.5676	503.6866	546.5246	546.5826	603.268	604.9213	604.9418	821.2582	931.0332	931.8361	968.018	1048.2257	1048.9305	1081.8823	1219.2678	1219.5682	1295.2392	1395.2682	1395.6902	1428.4232	1474.1489	1484.8239	1485.1103	1498.0845	1498.3698	1518.2995	2178.7322	2357.7864	3034.5876	3034.7067	3040.7926	3107.6181	3107.7317	3113.7967	3118.3577	3122.0446	3122.2587	3506.4187
CC(C)(C)C#CC#C	CC(C)(C)C#CC#C	
InChI=1S/C8H10/c1-5-6-7-8(2,3)4/h1H,2-4H3	InChI=1S/C8H10/c1-5-6-7-8(2,3)4/h1H,2-4H3
