18
gdb 125353	2.87047	1.5011	1.05495	4.772	78.03	-0.244	0.0055	0.2495	1139.7353	0.148741	-398.12028	-398.112054	-398.11111	-398.153823	30.323	
C	 0.3321390055	 1.4234315794	 0.1629145447	-0.501754
C	 0.0341720845	-0.0298548805	 0.0210906259	 0.31179
C	-0.0697389373	-0.8574695144	-1.0729233997	-0.153249
N	-0.3633460058	-2.1188002636	-0.6551494427	-0.191764
N	-0.4557784768	-2.1242073328	 0.6411268963	-0.154012
N	-0.2110159854	-0.8604993559	 1.0723722759	-0.00172
C	-0.2584639382	-0.5202706687	 2.4642917362	 0.032818
C	 0.0939171879	-1.572434585	 3.4710198057	-0.267879
C	 1.0327723424	-0.4153358873	 3.2447125001	-0.270613
H	 1.1968031258	 1.598416754	 0.8121213582	 0.143588
H	 0.5494789271	 1.8552674014	-0.8162004162	 0.143232
H	-0.5132779433	 1.9744192825	 0.5912277004	 0.139116
H	 0.0522738729	-0.617614486	-2.1174017205	 0.118552
H	-1.0552572915	 0.1753340203	 2.7085733057	 0.114052
H	-0.4911468149	-1.5998198615	 4.3824855819	 0.12622
H	 0.3760705396	-2.5403715042	 3.0788842501	 0.157552
H	 1.9517238769	-0.6157881888	 2.7058211219	 0.131615
H	 1.1034839508	 0.3623614411	 3.996537936	 0.122455
47.1883	120.02	148.3453	180.3966	255.2215	300.564	390.3581	491.3274	614.4073	676.228	698.0034	715.4653	786.2186	828.5227	840.9662	908.1521	958.8079	984.2384	1009.4825	1063.9119	1066.855	1078.9582	1085.8367	1124.1967	1137.0697	1160.9538	1197.9767	1221.7363	1273.3065	1305.6003	1347.4927	1396.9737	1421.1103	1459.4623	1465.111	1480.9507	1500.2559	1506.6077	1594.8615	3032.2552	3083.9502	3129.5403	3141.9803	3151.8013	3159.8628	3229.9791	3254.4747	3262.8078
CC1=CN=NN1C1CC1	Cc1cnnn1C1CC1	
InChI=1S/C6H9N3/c1-5-4-7-8-9(5)6-2-3-6/h4,6H,2-3H2,1H3	InChI=1S/C6H9N3/c1-5-4-7-8-9(5)6-2-3-6/h4,6H,2-3H2,1H3
