12
gdb 131986	2.92866	1.6667	1.06294	4.2392	62.71	-0.246	-0.0853	0.1607	1001.7483	0.079455	-502.042129	-502.034969	-502.034025	-502.07399	26.363	
N	-0.0517219598	 1.37509135	 0.1499340805	-0.597801
C	 0.0189762181	 0.0249696126	 0.0517053716	 0.360499
N	-1.0499403295	-0.7802638763	 0.0317273285	-0.288599
N	-0.5019736238	-2.0046290826	-0.0157506388	-0.057412
N	 0.7995140193	-2.0904362009	-0.0316152001	-0.237853
C	 1.1690339105	-0.8071198657	 0.0077900289	 0.33998
N	 2.5356365016	-0.3999145168	-0.0172012298	 0.368276
O	 3.4114928191	-1.2475598823	-0.0323821665	-0.342933
O	 2.726291949	 0.8243197464	-0.0260077797	-0.408741
H	 0.8013668779	 1.8681684241	-0.0634602085	 0.285164
H	-0.9273274675	 1.8093818615	-0.0910538967	 0.270216
H	-1.0812216149	-2.82947342	-0.0389177295	 0.309204
88.3742	203.0881	225.0627	333.4886	356.7914	406.4334	449.2538	497.102	547.9624	569.1239	704.3377	722.2008	748.0247	803.3672	859.0036	983.4163	1073.2076	1194.0892	1227.4217	1296.7798	1383.1884	1404.6348	1452.3648	1527.8779	1562.5933	1632.4461	1664.0529	3587.094	3658.8786	3715.1394
NC1=NNN=C1N(=O)=O	Nc1n[nH]nc1N(=O)=O	
InChI=1S/C2H3N5O2/c3-1-2(7(8)9)5-6-4-1/h(H3,3,4,5,6)	InChI=1S/C2H3N5O2/c3-1-2(7(8)9)5-6-4-1/h(H3,3,4,5,6)
