21
gdb 122904	5.26466	0.55849	0.52109	4.8551	81.2	-0.2609	0.0241	0.2851	2115.2855	0.181136	-420.408349	-420.39739	-420.396446	-420.445685	37.799	
C	 0.0726531355	 1.4730956774	 0.0433350024	-0.383495
C	-0.0282696582	-0.0540859579	 0.0251060713	-0.185727
C	-1.4709789398	-0.5377995413	 0.0007299626	-0.036999
O	-1.4774801772	-1.9551726413	-0.0125780369	-0.255587
C	-2.7660416509	-2.5164263329	-0.0408893043	-0.065914
C	-2.5724437712	-4.0452758826	 0.0216630159	-0.12857
N	-1.846786236	-4.5254298486	 1.1987956803	-0.505683
C	-3.8788108616	-4.7092087573	-0.0742143302	 0.281922
N	-4.9242264937	-5.1953703919	-0.1442653822	-0.314458
H	 1.1173390744	 1.7955788586	 0.059467508	 0.122206
H	-0.3974359025	 1.915539738	-0.8417577806	 0.120004
H	-0.4189464636	 1.896052183	 0.9262579613	 0.11917
H	 0.4897241556	-0.4598268012	-0.8512802817	 0.110734
H	 0.4670664484	-0.47850081	 0.9060758338	 0.106579
H	-2.0191273189	-0.1665522996	 0.8831386138	 0.090811
H	-1.9928636995	-0.150344805	-0.8901501309	 0.093003
H	-3.367398451	-2.1822059404	 0.8211079938	 0.09793
H	-3.3071616414	-2.233870741	-0.9582063039	 0.107109
H	-1.9884585489	-4.3315045629	-0.862488828	 0.142412
H	-1.0009253067	-3.9665834177	 1.2749574286	 0.247848
H	-2.3941138029	-4.3395156955	 2.0355215169	 0.236704
45.1328	58.4321	80.9972	126.8218	160.7299	172.3104	224.7992	233.5806	263.7613	311.2916	377.6586	386.4211	508.0102	571.0361	579.0038	766.162	856.5761	895.8578	901.088	915.7185	956.5883	1020.727	1057.9644	1082.9095	1146.1951	1156.9818	1162.8926	1190.6353	1207.3474	1262.7596	1272.508	1312.8977	1316.3717	1335.0249	1385.5816	1413.537	1418.3667	1447.1366	1491.9015	1500.4406	1504.4447	1511.2485	1532.3343	1660.3114	2366.1739	2954.5321	2966.2822	2986.8214	3000.2213	3033.6295	3039.2104	3040.928	3072.9214	3101.8549	3112.1117	3484.1871	3567.9566
CCCOCC(N)C#N	CCCOC[C@@H](N)C#N	
InChI=1S/C6H12N2O/c1-2-3-9-5-6(8)4-7/h6H,2-3,5,8H2,1H3	InChI=1S/C6H12N2O/c1-2-3-9-5-6(8)4-7/h6H,2-3,5,8H2,1H3/t6-/m0/s1
