17
gdb 12447	3.27097	1.96047	1.39077	3.7897	70.07	-0.2332	0.0136	0.2468	903.7043	0.14475	-363.906958	-363.89973	-363.898786	-363.938511	27.696	
O	-0.0056130724	-0.0660146051	-0.1534036074	-0.363602
C	-0.0328559212	 1.1455780643	-0.0562633268	 0.386362
C	-1.3438327831	 1.9317986506	 0.0333492509	-0.36823
C	-1.5270156326	 2.7395599589	 1.301724842	-0.066321
C	-0.6377339471	 3.5037481034	 1.9378042957	-0.033696
C	 0.7846636512	 3.8048218798	 1.5471184952	-0.235636
C	 1.1820146956	 3.3368754265	 0.1435772045	-0.180951
N	 1.1084947832	 1.8975476154	-0.037791947	-0.285372
H	-1.4320024838	 2.5765595059	-0.8526612994	 0.127725
H	-2.1353641472	 1.1856125275	-0.046901357	 0.13209
H	-2.5171153237	 2.6570361797	 1.7431850651	 0.096697
H	-0.9614353634	 3.9828097156	 2.8600386245	 0.088789
H	 0.9467994128	 4.8902469169	 1.6089002139	 0.10786
H	 1.4700317586	 3.3625286117	 2.2848906679	 0.114049
H	 0.5521348498	 3.8388964711	-0.6012789747	 0.120656
H	 2.2108917439	 3.6404318051	-0.0672710329	 0.113545
H	 1.9621251293	 1.3602516828	-0.0507760647	 0.246034
86.5121	124.5528	277.1663	327.3869	406.3923	418.1947	454.3632	494.9589	598.6334	634.0637	695.5624	723.2416	835.2272	879.9405	922.8819	952.0259	967.4247	1008.7226	1031.5671	1072.1215	1121.1387	1188.9104	1240.3143	1251.8368	1289.9926	1331.0794	1345.4447	1392.0975	1410.0034	1427.187	1455.801	1467.7807	1475.1083	1498.3784	1728.8362	1796.1988	3001.6145	3010.7147	3022.2237	3038.8264	3093.5258	3118.8028	3135.9157	3162.2411	3623.1829
O=C1CC=CCCN1	O=C1CC=CCCN1	
InChI=1S/C6H9NO/c8-6-4-2-1-3-5-7-6/h1-2H,3-5H2,(H,7,8)	InChI=1S/C6H9NO/c8-6-4-2-1-3-5-7-6/h1-2H,3-5H2,(H,7,8)
