19
gdb 101555	3.08026	0.81425	0.70854	1.2783	72.91	-0.2531	-0.0991	0.1541	1610.5559	0.15495	-460.183265	-460.172685	-460.171741	-460.220251	36.617	
C	-0.22001126	 1.3378619386	-0.2389346706	-0.380397
C	 0.032298022	-0.1467042488	-0.5116349774	-0.195444
C	 1.372372632	-0.4081330226	-1.2081807039	 0.136136
O	 2.4727149858	 0.0834925741	-0.4475142946	-0.433295
C	 1.5876895971	-1.8894109204	-1.5461246007	-0.34606
C	 0.7420141341	-2.4126517168	-2.6800431521	 0.288553
O	-0.0182761592	-1.7525588203	-3.3518225365	-0.280071
C	 0.8730944021	-3.9075231252	-3.0151790488	 0.099505
O	 1.5676293411	-4.6700599937	-2.3976291461	-0.216786
H	 0.5942422187	 1.7693880185	 0.3490552324	 0.125361
H	-0.286988315	 1.9004379558	-1.1762778987	 0.121248
H	-1.1565831038	 1.4852216149	 0.3067243979	 0.110904
H	 0.015432153	-0.7116112033	 0.4333100528	 0.080609
H	-0.7698972109	-0.5563648374	-1.134550487	 0.117688
H	 1.4026355368	 0.165035895	-2.1414042097	 0.104411
H	 2.4414769166	-0.3344100514	 0.4206728749	 0.277351
H	 2.6388469996	-2.0507224305	-1.8210192339	 0.149624
H	 1.4265763127	-2.5361106745	-0.6720844359	 0.130605
H	 0.2501995175	-4.2065521923	-3.8847205623	 0.110059
26.0615	90.3879	94.2057	130.1821	151.157	204.7944	231.917	247.5307	299.5748	352.8246	441.5281	465.6716	471.5779	523.3035	649.8481	775.887	802.1909	841.2853	898.2138	988.3521	1000.7125	1039.5046	1075.5113	1114.3895	1125.7992	1148.6725	1206.3582	1257.6874	1315.4168	1337.1071	1362.6522	1377.3036	1398.3558	1407.156	1419.8757	1434.2346	1482.355	1496.4001	1509.2634	1798.1289	1826.262	2924.5901	2993.5092	3023.3623	3040.514	3050.1256	3064.2142	3077.2978	3106.1748	3122.6688	3793.1487
CCC(O)CC(=O)C=O	CC[C@@H](O)CC(=O)C=O	
InChI=1S/C6H10O3/c1-2-5(8)3-6(9)4-7/h4-5,8H,2-3H2,1H3	InChI=1S/C6H10O3/c1-2-5(8)3-6(9)4-7/h4-5,8H,2-3H2,1H3/t5-/m1/s1
