21
gdb 40183	3.27459	1.39974	1.18743	1.2704	81.39	-0.2238	0.0778	0.3017	1117.0229	0.184614	-387.062804	-387.055068	-387.054123	-387.094822	31.683	
C	-0.0183238053	 1.5265762514	 0.0167903496	-0.328537
C	 1.3080590048	 0.8011624087	 0.0039207284	-0.293679
C	 0.0161865924	 0.0234641366	-0.0018565541	 0.378259
C	-0.3515692385	-0.7255780915	 1.2586243519	-0.161574
O	 0.3174340152	-1.9774713986	 1.3459356394	-0.253047
C	 0.2524550441	-2.7821712066	 0.2043375699	 0.135952
C	-1.0422670332	-3.1548016092	-0.4651734484	-0.328802
C	-0.0637126281	-2.2142965998	-1.1570837419	-0.066853
C	-0.4000421257	-0.7245225853	-1.260347765	-0.316621
H	-0.3206234273	 2.0272018522	 0.9314304445	 0.108947
H	-0.3320429932	 2.036904582	-0.8885705767	 0.108629
H	 1.8934433718	 0.8254340002	-0.9092875758	 0.108446
H	 1.9022894232	 0.8029408136	 0.9116851472	 0.114834
H	-0.0482183897	-0.1710766873	 2.1515702032	 0.103028
H	-1.4441214539	-0.866809526	 1.3132366295	 0.088533
H	 1.0181254623	-3.5475459503	 0.2759827383	 0.097048
H	-1.1546843643	-4.1670644263	-0.8382545101	 0.107741
H	-1.9620829139	-2.7157835588	-0.0917939334	 0.112906
H	 0.4932472488	-2.6260764066	-1.9924236853	 0.0864
H	-1.4767451319	-0.5903151107	-1.4307598702	 0.100081
H	 0.1041116924	-0.2904271574	-2.129616101	 0.098309
87.5794	167.977	269.7515	282.5639	348.2811	376.9294	417.2748	488.0885	515.9846	640.3406	748.2617	783.2886	789.6117	806.3836	842.6522	872.9996	917.4656	947.8999	963.0577	971.6474	999.3595	1021.7765	1026.5602	1048.888	1055.1471	1079.5408	1097.1748	1121.7759	1127.2094	1184.448	1187.331	1225.1676	1244.7056	1263.8444	1323.2561	1331.9149	1364.8252	1367.3371	1405.1399	1427.1267	1469.1903	1479.0234	1491.5075	1500.4131	1515.2446	2963.5713	3011.2878	3067.7238	3078.5136	3121.4612	3127.1589	3129.7128	3149.8637	3163.8577	3199.0838	3212.3289	3215.8667
C1CC11COC2CC2C1	C1CC21CO[C@H]1C[C@H]1C2	
InChI=1S/C8H12O/c1-2-8(1)4-6-3-7(6)9-5-8/h6-7H,1-5H2	InChI=1S/C8H12O/c1-2-8(1)4-6-3-7(6)9-5-8/h6-7H,1-5H2/t6-,7-/m0/s1
