23
gdb 91003	3.91202	1.27419	1.12539	0.1907	89.5	-0.279	0.0866	0.3656	1189.6637	0.209147	-351.131634	-351.124075	-351.12313	-351.1632	31.792	
C	 0.0109360147	 1.6097517029	 0.007692301	-0.406791
C	 0.0427507579	 0.0811396855	 0.0032858599	 0.051238
C	 0.7292961905	-0.4992743938	-1.24332596	-0.2501
C	 1.02298423	-1.9885819877	-1.0710868943	 0.026346
C	 0.2140525962	-2.8070803486	-0.0035682145	-0.071075
C	 1.3900740369	-3.8176024902	 0.0086697193	-0.237268
C	 2.0517494177	-2.4151230312	 0.0217654062	-0.046946
C	 0.9946399453	-1.9953944888	 1.0899308221	 0.026348
C	 0.6963912522	-0.5071859098	 1.2638015948	-0.250102
H	 1.0268028691	 2.0221722896	 0.0222870161	 0.110694
H	-0.4933501793	 2.0007824071	-0.8829118537	 0.107862
H	-0.5165139591	 1.9951964422	 0.8872457617	 0.107861
H	-0.995579156	-0.279768386	-0.0114813713	 0.072638
H	 0.0974315976	-0.3346300004	-2.1246145685	 0.090387
H	 1.6715705209	 0.0332147889	-1.4400448034	 0.089453
H	 1.1537935244	-2.4987094717	-2.0315935643	 0.055377
H	-0.8524179383	-3.0426343395	-0.0182961421	 0.062281
H	 1.5055478421	-4.4223853165	 0.912826848	 0.08422
H	 1.5292689695	-4.4166861188	-0.8959406699	 0.08422
H	 3.1201283394	-2.1843647044	 0.0365017896	 0.058138
H	 1.1002659116	-2.511577048	 2.050302873	 0.055377
H	 1.6331201707	 0.0239892204	 1.4885572883	 0.089453
H	 0.0415854258	-0.3480727711	 2.1292168823	 0.090388
122.4509	224.167	252.0925	282.8125	352.9516	412.3267	414.9923	426.1639	592.8023	722.7306	767.0527	779.3314	783.5649	826.0642	866.3988	902.9203	903.6059	921.6231	953.9836	987.1991	1015.4686	1025.0328	1056.2905	1061.5978	1063.8152	1098.8649	1102.0516	1120.3406	1156.8751	1182.2274	1183.4871	1187.5378	1227.6753	1236.0004	1245.0835	1265.0216	1300.3511	1311.1096	1324.8719	1355.9973	1388.4871	1390.0795	1408.6477	1424.3417	1483.9821	1493.3141	1498.1036	1498.6285	1513.8638	2992.3929	2998.4002	3005.8481	3022.0799	3037.7427	3039.154	3042.8322	3049.4572	3053.3803	3075.5089	3086.108	3088.9471	3092.2636	3106.3735
CC1CC2C3CC2C3C1	C[C@H]1C[C@@H]2[C@H]3C[C@@H]2[C@H]3C1	
InChI=1S/C9H14/c1-5-2-6-8-4-9(6)7(8)3-5/h5-9H,2-4H2,1H3	InChI=1S/C9H14/c1-5-2-6-8-4-9(6)7(8)3-5/h5-9H,2-4H2,1H3/t5-,6-,7+,8-,9+
