14
gdb 132544	3.16535	1.4047	0.97882	2.9459	68.73	-0.2417	-0.0461	0.1956	1117.6217	0.100926	-478.037897	-478.030304	-478.02936	-478.070212	28.255	
C	 0.0205990576	 1.479183503	 0.0648843818	-0.470679
C	 0.0053731318	-0.0211817429	-0.003348321	 0.306495
C	-0.1800748406	-0.7156949886	-1.1895575498	-0.090255
N	-0.190968831	-2.0606918107	-1.2324034536	-0.285407
C	-0.0196922979	-2.6906940934	-0.1107098401	 0.258539
F	-0.0245167718	-4.0169795556	-0.1146158236	-0.051312
C	 0.1713174946	-2.0108871984	 1.1117586903	 0.280707
O	 0.3433113924	-2.7191947215	 2.2396698089	-0.401644
N	 0.1816837585	-0.6969840659	 1.1518006658	-0.382953
H	 0.9743786412	 1.8369938447	 0.4659310464	 0.142886
H	-0.1300054149	 1.9226500795	-0.9219751691	 0.128978
H	-0.7661225604	 1.8424247778	 0.7339749598	 0.142889
H	-0.3239095977	-0.1965468349	-2.1313199594	 0.117297
H	 0.4553627281	-2.072929133	 2.9516562037	 0.304461
97.4732	129.8681	228.4883	289.6805	309.32	392.0463	470.8975	495.2063	540.7801	551.9564	601.3644	642.81	718.4572	797.1471	804.9407	904.309	1001.7786	1029.6702	1061.1185	1170.1715	1250.4027	1290.2609	1319.9391	1356.8014	1413.1399	1465.2726	1475.5793	1493.2632	1528.006	1615.7218	1642.475	3041.4122	3100.0424	3129.1745	3183.2564	3759.165
CC1=CN=C(F)C(O)=N1	Cc1cnc(F)c(O)n1	
InChI=1S/C5H5FN2O/c1-3-2-7-4(6)5(9)8-3/h2H,1H3,(H,8,9)	InChI=1S/C5H5FN2O/c1-3-2-7-4(6)5(9)8-3/h2H,1H3,(H,8,9)
