19
gdb 105637	1.99978	1.41685	1.19827	2.2804	77.73	-0.2488	0.0232	0.272	1178.2717	0.15614	-422.97096	-422.961096	-422.960151	-423.005823	36.198	
C	 0.3071822661	 1.4312465132	 0.2015255347	-0.392859
C	 0.0754226433	-0.0559908523	-0.0755347375	-0.213913
C	 0.7087531946	-0.5156765733	-1.3920441488	 0.173803
O	 2.1576296039	-0.3306530067	-1.3760269613	-0.311342
C	 2.403366694	-1.7505883154	-1.3282401347	-0.088127
C	 0.919334964	-2.074361308	-1.5246868156	 0.005964
O	 0.3971333185	-2.906863532	-0.5262975788	-0.412278
C	 0.0988715691	 0.1127958643	-2.5566763186	 0.313667
C	-0.4257049372	 0.5913283806	-3.5275646339	-0.457742
H	 1.3777090145	 1.6532002622	 0.2095425606	 0.136252
H	-0.163089516	 2.0555638893	-0.5639968134	 0.125786
H	-0.109498744	 1.7116692107	 1.1732141543	 0.109816
H	 0.4975897506	-0.667401887	 0.7273145292	 0.1132
H	-0.9980543934	-0.2787404854	-0.1115781211	 0.093365
H	 3.0891958132	-2.0772765259	-2.1166332318	 0.110301
H	 2.7811257611	-2.0775607826	-0.3517970188	 0.111935
H	 0.6710337129	-2.4329012454	-2.528958161	 0.091227
H	-0.5079395166	-3.1380115304	-0.7578031213	 0.292798
H	-0.8791782187	 1.0287477039	-4.3827114923	 0.198149
55.4366	99.2451	144.2207	165.1987	181.4263	228.5136	292.5429	308.3195	376.1957	407.136	490.0811	531.6838	584.957	620.671	631.1974	662.4744	768.0107	791.8799	905.9484	942.3971	996.0396	1008.2952	1018.3833	1037.0668	1111.0548	1139.0558	1145.2778	1168.7814	1206.9494	1243.6259	1292.947	1320.3565	1337.335	1360.5348	1406.044	1446.6092	1474.9042	1496.1514	1510.5652	1517.2533	2226.4762	3026.2066	3036.7539	3044.4465	3048.1866	3081.0703	3088.327	3114.5094	3124.6923	3499.6849	3822.3201
CCC1(OCC1O)C#C	CC[C@]1(OC[C@H]1O)C#C	
InChI=1S/C7H10O2/c1-3-7(4-2)6(8)5-9-7/h1,6,8H,4-5H2,2H3	InChI=1S/C7H10O2/c1-3-7(4-2)6(8)5-9-7/h1,6,8H,4-5H2,2H3/t6-,7-/m1/s1
