17
gdb 81834	2.24435	1.63426	1.17739	1.211	73.92	-0.2464	0.0337	0.2802	1072.2356	0.133516	-421.75277	-421.743828	-421.742884	-421.786222	33.958	
O	 0.0554877294	 1.4015605839	 0.2210884475	-0.431148
C	-0.0421135846	 0.0174193982	 0.0470113972	 0.14116
C	-1.4103029437	-0.6662246127	 0.07173826	-0.174573
C	-2.2341568376	-0.2687332838	-1.1376220129	-0.329238
C	-1.1514996094	-1.2692864941	-1.3184747695	 0.421732
O	-1.438870429	-2.5089024918	-1.8451439782	-0.452792
C	 0.229124437	-0.5797982758	-1.4074397735	-0.344798
C	 0.440136045	 0.3878942176	-2.4637913994	 0.304154
C	 0.5706573464	 1.259017325	-3.2850236074	-0.431628
H	-0.1796906742	 1.8307121383	-0.6107056144	 0.285506
H	 0.6408279117	-0.4349824749	 0.7709933013	 0.094368
H	-1.8720072098	-1.1065512865	 0.9470846885	 0.093191
H	-3.2291886073	-0.7005599032	-1.1521919834	 0.126334
H	-2.1696624913	 0.7246547534	-1.5741104061	 0.111343
H	-0.8181682524	-3.1504528914	-1.4811800399	 0.286387
H	 1.0475428985	-1.3062147861	-1.3768367145	 0.098098
H	 0.7048240813	 1.9952500038	-4.0388270954	 0.201904
90.4653	101.6328	155.703	199.4083	256.811	346.5291	373.3533	380.6492	389.4761	517.6063	549.5622	571.7614	626.6243	650.7076	701.8067	726.1358	810.1307	843.1819	921.0134	956.3475	987.2511	1025.6353	1037.2004	1065.6	1092.2695	1123.8862	1133.1332	1187.1633	1245.7932	1281.9489	1299.9842	1323.1289	1331.8245	1426.7211	1440.3987	1507.7162	2220.3521	3052.0998	3075.4692	3116.6687	3187.9172	3210.4038	3500.0862	3774.9142	3790.3042
OC1C2CC2(O)C1C#C	O[C@H]1[C@H]2C[C@@]2(O)[C@H]1C#C	
InChI=1S/C7H8O2/c1-2-4-6(8)5-3-7(4,5)9/h1,4-6,8-9H,3H2	InChI=1S/C7H8O2/c1-2-4-6(8)5-3-7(4,5)9/h1,4-6,8-9H,3H2/t4-,5+,6+,7+/m0/s1
