17
gdb 107380	3.44017	1.1627	0.97869	3.9949	67.79	-0.2711	0.0059	0.277	1189.9838	0.136024	-458.986438	-458.978389	-458.977445	-459.019352	30.474	
O	 0.1207806346	 1.4045205144	 0.3277675556	-0.409055
C	 0.0852917115	 0.0182119558	 0.0290465636	-0.155469
C	-1.3201857491	-0.503709748	-0.1306377992	 0.275004
C	-2.0841325856	-1.0229229488	 1.0835845462	-0.369299
C	-1.6673862982	-1.9642330709	-0.0073635959	 0.052513
O	-2.6538547173	-2.3066935324	-0.9579690618	-0.218407
C	-3.0117780603	-1.2137349006	-1.7063861966	 0.424096
O	-3.8623481171	-1.2694083952	-2.5414842829	-0.321917
C	-2.1741117572	-0.0038876836	-1.2788514249	-0.438069
H	-0.3672494637	 1.5393955147	 1.1472342007	 0.28537
H	 0.6367681482	-0.0906254109	-0.9117311159	 0.117917
H	 0.6173998687	-0.5742840067	 0.7909076429	 0.088939
H	-1.5412144253	-1.082145042	 2.0218144357	 0.122664
H	-3.1422201384	-0.8009811141	 1.1809479528	 0.131897
H	-0.9473016818	-2.7576224645	 0.1495549723	 0.119616
H	-2.8409561496	 0.8258752808	-1.031585087	 0.147026
H	-1.5638860095	 0.3192554521	-2.1288248055	 0.147173
87.799	108.1968	159.6046	282.4147	306.0386	368.8925	390.9183	450.3508	485.0851	559.5719	650.3816	699.8569	747.4718	823.5478	897.4882	912.1069	924.2488	964.9624	1005.7677	1026.7702	1052.0607	1065.0368	1093.1136	1136.0688	1156.6422	1171.3205	1210.5286	1244.0839	1301.2369	1330.8445	1383.6052	1404.7997	1424.2061	1457.9581	1480.3878	1502.869	1892.7405	2973.1258	3061.9825	3065.0144	3107.0603	3124.0717	3194.4472	3215.275	3807.6576
OCC12CC1OC(=O)C2	OC[C@]12C[C@H]1OC(=O)C2	
InChI=1S/C6H8O3/c7-3-6-1-4(6)9-5(8)2-6/h4,7H,1-3H2	InChI=1S/C6H8O3/c7-3-6-1-4(6)9-5(8)2-6/h4,7H,1-3H2/t4-,6-/m1/s1
