14
gdb 128042	4.13368	1.02992	0.95531	2.6729	65.71	-0.2821	-0.0235	0.2586	1242.7406	0.100522	-469.990379	-469.982387	-469.981442	-470.024454	27.378	
C	 0.5258561227	 1.2703861941	-0.679503831	-0.319549
N	 0.6604161365	-0.0981759765	-1.1388160961	-0.194133
C	-0.1464511744	-0.9517480166	-0.7171104424	 0.108927
O	-0.1028308459	-2.274914795	-1.1060055631	-0.25728
C	 0.91084327	-2.6706754885	-1.8876967642	 0.565555
N	 0.834390078	-3.0597176039	-3.1190903587	-0.342807
C	 2.133475003	-3.4424684968	-3.3468382812	 0.060972
N	 2.9498441424	-3.3062785624	-2.3375018815	-0.112765
O	 2.1175049669	-2.7847937167	-1.3325999947	-0.191951
H	 0.3860069133	 1.9260609918	-1.5447873608	 0.144033
H	-0.3094730028	 1.4250647725	 0.0192211345	 0.110641
H	 1.4552836057	 1.576408146	-0.1888514721	 0.145296
H	-0.9826615457	-0.8203446997	-0.0271214474	 0.129194
H	 2.4781991704	-3.8340338281	-4.2928376712	 0.153867
32.2126	96.6218	126.6366	216.3266	277.4872	288.138	342.6591	476.9563	647.3808	663.9982	685.5856	819.7591	918.8415	932.586	969.8594	975.1837	1025.572	1061.5784	1130.3045	1142.1212	1179.1444	1212.979	1274.8397	1317.0005	1383.1539	1448.2213	1480.6842	1502.5574	1527.0393	1638.2289	1780.1904	2993.6053	3080.3544	3100.0089	3114.7837	3261.6033
CN=COC1=NC=NO1	CN=COc1ncno1	
InChI=1S/C4H5N3O2/c1-5-3-8-4-6-2-7-9-4/h2-3H,1H3	InChI=1S/C4H5N3O2/c1-5-3-8-4-6-2-7-9-4/h2-3H,1H3
