19
gdb 93708	3.3858	1.1308	1.08768	2.4559	77.69	-0.2437	0.0321	0.2758	1203.5192	0.157161	-422.996449	-422.987085	-422.986141	-423.030469	35.387	
C	 1.0131234276	 1.4979038122	-0.3018322484	-0.392546
C	 0.1349790382	 0.3182543981	 0.0980455413	 0.132809
C	-0.0312555666	-0.7585294473	-1.0003105253	-0.287967
C	 0.9335475508	-1.8823481044	-0.5520161415	 0.173692
O	 2.2844297623	-1.5746402094	-0.9026392084	-0.457916
C	 0.8369111486	-1.7323740906	 0.9773932002	-0.079946
O	 0.7443267295	-0.3449119858	 1.2180707332	-0.272655
C	 0.5560621269	-3.208880495	-1.0365946335	 0.273128
C	 0.2608891293	-4.2953619753	-1.4584021237	-0.442964
H	 1.9822889643	 1.1382917801	-0.6570870847	 0.131919
H	 0.5357478762	 2.0849690574	-1.0938951303	 0.105329
H	 1.1775922735	 2.152462093	 0.5586880377	 0.124023
H	-0.8524299011	 0.6857792226	 0.4106371223	 0.069086
H	-1.0543220323	-1.1420612611	-1.0293627708	 0.115341
H	 0.2223237764	-0.3924330536	-1.9981954935	 0.105927
H	 2.3784954036	-1.7180582546	-1.8506452027	 0.283897
H	-0.0464377459	-2.2741522772	 1.3476246651	 0.094294
H	 1.7315301483	-2.1208784081	 1.4698660872	 0.1261
H	 0.0015464405	-5.2593562409	-1.8214412342	 0.198449
57.8854	122.5788	139.8928	202.4065	254.2146	288.3421	324.5473	385.2503	388.1993	412.4858	508.0933	531.462	583.07	632.1675	670.7057	702.2875	807.7797	818.6548	889.0876	907.9977	953.4767	1002.3516	1051.1679	1066.5686	1116.1905	1121.7623	1140.4728	1179.1081	1214.5947	1263.6129	1301.0184	1328.4846	1357.6667	1383.6325	1403.0795	1406.6421	1476.7508	1488.0038	1500.2164	1506.9224	2232.8454	2990.9755	2997.5128	3038.4981	3066.984	3104.0083	3109.8798	3115.4819	3129.9199	3499.5962	3811.1999
CC1CC(O)(CO1)C#C	C[C@H]1C[C@@](O)(CO1)C#C	
InChI=1S/C7H10O2/c1-3-7(8)4-6(2)9-5-7/h1,6,8H,4-5H2,2H3	InChI=1S/C7H10O2/c1-3-7(8)4-6(2)9-5-7/h1,6,8H,4-5H2,2H3/t6-,7+/m0/s1
