21
gdb 91350	1.87821	1.62744	1.49503	1.5979	77.25	-0.2355	0.0611	0.2966	1082.8514	0.18153	-424.196588	-424.187363	-424.186419	-424.229974	35.917	
C	 0.5181829334	 1.4886529355	-0.4173041078	-0.435366
C	 0.0826436553	 0.0880528741	 0.0057025429	-0.028771
C	 0.5148482349	-1.1128964802	-0.8994887859	-0.250541
C	 1.2479474398	-1.7590342426	 0.2963833519	-0.054016
C	 2.6937441901	-1.2202914561	 0.5181401882	-0.29451
C	 2.1674190712	-0.3272143203	 1.6797060933	 0.074276
O	 2.6372528709	 0.983577219	 1.8824565686	-0.436125
C	 0.7120220594	-0.635683541	 1.2525616022	 0.350379
O	-0.1939198656	-0.9491269825	 2.2774675087	-0.484867
H	 1.5707046735	 1.5214767479	-0.7251768074	 0.104852
H	-0.0618065768	 1.8214117931	-1.2853461387	 0.12044
H	 0.369386636	 2.2238413087	 0.3807704607	 0.123153
H	-1.0001355109	 0.0839588318	 0.1595596744	 0.084194
H	-0.3318974024	-1.6970121098	-1.2679538223	 0.10346
H	 1.1515947252	-0.8571726812	-1.7526098245	 0.091747
H	 1.0861663356	-2.8154061908	 0.5060771777	 0.07388
H	 3.4527870538	-1.9527772204	 0.7994192899	 0.107708
H	 3.0732504614	-0.6485853906	-0.3355359881	 0.091851
H	 2.3220970985	-0.8424519234	 2.6336803114	 0.097646
H	 2.5943407927	 1.4538147249	 1.0451542089	 0.280789
H	-0.3031698263	-0.1641226761	 2.8268690859	 0.279822
84.9746	151.5193	175.2935	231.1849	261.5888	292.9448	317.1315	348.0546	363.6781	402.5258	461.1015	559.8045	574.0114	655.7942	720.1107	810.336	825.8917	876.9402	920.3612	946.9019	985.5012	1003.623	1024.6259	1048.3449	1097.2086	1109.2111	1126.7379	1152.5496	1164.4209	1198.6148	1206.0319	1244.8313	1249.2412	1269.1968	1288.9407	1306.4629	1317.1649	1350.038	1373.7137	1406.0865	1439.0367	1479.3939	1490.8676	1497.7061	1510.2279	3017.7778	3044.2593	3047.9583	3056.3047	3058.1964	3080.3311	3094.1944	3100.7493	3107.6107	3125.0913	3788.5931	3841.3754
CC1CC2CC(O)C12O	C[C@H]1C[C@H]2C[C@@H](O)[C@@]12O	
InChI=1S/C7H12O2/c1-4-2-5-3-6(8)7(4,5)9/h4-6,8-9H,2-3H2,1H3	InChI=1S/C7H12O2/c1-4-2-5-3-6(8)7(4,5)9/h4-6,8-9H,2-3H2,1H3/t4-,5-,6+,7+/m0/s1
