14
gdb 5405	5.39096	1.66577	1.28282	1.6581	67.31	-0.2413	-0.0421	0.1992	902.5318	0.109364	-378.768081	-378.761409	-378.760465	-378.799085	24.305	
C	-0.0287075453	 1.4069818928	-0.006805118	-0.235037
O	 0.0170973006	-0.0204391431	 0.0241092787	-0.259225
C	 0.6409736366	-0.5894899564	 1.0669962022	 0.421756
N	 1.1845458877	 0.1549138562	 2.0160017894	-0.336363
C	 1.7845573098	-0.5086200884	 3.0153451631	-0.021109
C	 1.835620325	-1.8911948351	 3.0573094944	-0.027675
N	 1.2816370646	-2.6421859303	 2.0903883826	-0.22633
C	 0.6878786227	-1.9987832279	 1.1010786264	-0.077678
H	 0.9788471239	 1.8317314903	-0.0313114283	 0.137816
H	-0.5701680669	 1.6606083645	-0.9186979338	 0.133062
H	-0.5511661595	 1.8021428878	 0.8690046171	 0.137837
H	 2.2341741326	 0.0945251614	 3.7998731116	 0.116164
H	 2.3250916078	-2.4136230834	 3.8731064016	 0.113356
H	 0.2301335805	-2.5771611383	 0.303545433	 0.123425
113.1468	165.838	230.3686	244.2139	440.6234	456.1035	556.1695	614.6122	649.5392	783.8576	853.6855	868.1458	951.404	978.5117	1018.9761	1048.6134	1089.4244	1177.5122	1185.7967	1215.1685	1256.4466	1323.0683	1344.9008	1433.8858	1477.6837	1480.0861	1498.4988	1515.1893	1585.2069	1622.5255	3043.5623	3114.6559	3152.2178	3159.547	3170.3941	3185.5838
COC1=NC=CN=C1	COc1nccnc1	
InChI=1S/C5H6N2O/c1-8-5-4-6-2-3-7-5/h2-4H,1H3	InChI=1S/C5H6N2O/c1-8-5-4-6-2-3-7-5/h2-4H,1H3
