22
gdb 9685	4.44949	1.09125	1.00142	1.6652	79.08	-0.2533	0.0892	0.3425	1301.8156	0.197569	-350.206091	-350.195998	-350.195054	-350.24137	36.224	
C	-0.3858800912	 1.4615475314	 0.5072479806	-0.371036
C	 0.2184041339	 0.197456115	-0.1182913859	-0.222223
C	 1.0403823826	-0.5788049215	 0.8834032603	 0.026238
O	 0.3327908005	-1.2885347787	 1.9116350282	-0.305841
C	 1.1446318677	-2.0479597422	 0.9930903436	 0.394753
C	 0.3862893525	-2.9748422256	 0.0660291549	-0.465411
C	 2.3971065422	-2.6347942166	 1.630865674	-0.242127
C	 2.1024505271	-3.7612930974	 2.6297412198	-0.38104
H	 0.3954414913	 2.1291024001	 0.8868135704	 0.114205
H	-0.9771496605	 2.0201487879	-0.2242828692	 0.111439
H	-1.037457081	 1.1984929648	 1.3457254347	 0.134526
H	-0.5815887335	-0.4285710135	-0.5227623567	 0.10233
H	 0.8673726282	 0.4706927055	-0.9609030611	 0.098465
H	 1.893891196	-0.0114742876	 1.2677556618	 0.07563
H	-0.5286767077	-2.5137580008	-0.3071066374	 0.127741
H	 1.0096592318	-3.2574900467	-0.7895710201	 0.117941
H	 0.1027954834	-3.893639414	 0.5886457187	 0.127521
H	 3.0646008597	-2.9977116094	 0.8384613414	 0.094574
H	 2.9302436738	-1.8302051845	 2.1484791124	 0.10102
H	 3.0203685439	-4.0840613134	 3.1299156475	 0.111771
H	 1.4013360855	-3.4150949676	 3.394947659	 0.134292
H	 1.6678647737	-4.6401898752	 2.1437949832	 0.115235
49.5004	66.4213	117.8657	160.6364	179.62	226.3493	248.2086	301.2929	328.5541	375.3578	411.9909	478.0391	593.6471	691.6605	758.8714	782.1759	830.4455	893.8019	916.8811	964.4031	999.8501	1024.3491	1053.3805	1062.5986	1123.0186	1124.4717	1151.0673	1161.8765	1245.534	1289.979	1294.3516	1343.2604	1350.1306	1386.6427	1405.6442	1406.995	1416.003	1464.4575	1473.8832	1474.2897	1490.7672	1498.5043	1503.5059	1505.7253	1508.7339	1515.8181	3024.5784	3026.5463	3035.7752	3039.6469	3042.9775	3052.8765	3069.0533	3086.7731	3100.5155	3107.6547	3109.1289	3116.8236	3117.227	3142.8447
CCC1OC1(C)CC	CC[C@H]1O[C@]1(C)CC	
InChI=1S/C7H14O/c1-4-6-7(3,5-2)8-6/h6H,4-5H2,1-3H3	InChI=1S/C7H14O/c1-4-6-7(3,5-2)8-6/h6H,4-5H2,1-3H3/t6-,7-/m1/s1
