17
gdb 43380	2.67728	1.81409	1.29754	3.9786	74.35	-0.2363	-0.057	0.1793	981.2546	0.138106	-421.837169	-421.830136	-421.829192	-421.868582	27.838	
O	 0.0120979026	 0.2891988209	-1.061649583	-0.328329
C	 0.0257973369	 1.1437616455	-0.1978066181	 0.383452
C	-1.2179122433	 1.5133065563	 0.5213398056	-0.147872
C	-1.4038242829	 2.4793925512	 1.4317540357	-0.038455
C	-0.4233450108	 3.4490579519	 2.0327795267	-0.273495
C	 1.0095694205	 3.3820495994	 1.519562667	 0.104732
C	 1.1869820243	 3.4187102894	-0.01376667	-0.298071
C	 1.3173494807	 1.8852169908	 0.1363707905	-0.005008
O	 1.5108795937	 2.0220669131	 1.5635109913	-0.28984
H	-2.0661331271	 0.90658618	 0.2163292653	 0.108161
H	-2.4142457201	 2.5926089398	 1.8227265308	 0.109471
H	-0.8072165896	 4.4715137854	 1.9000136192	 0.119739
H	-0.4168960958	 3.2840494077	 3.1202138002	 0.132314
H	 1.6461569065	 4.0592030414	 2.0988126076	 0.08369
H	 0.3647382388	 3.8048392444	-0.618043028	 0.118464
H	 2.1241543311	 3.8855831882	-0.31849148	 0.122395
H	 2.1524657946	 1.3832563346	-0.356730861	 0.098652
99.2935	218.5934	297.2902	319.2972	365.0964	393.223	437.0567	553.8813	648.3906	705.2195	786.9738	812.0062	846.8444	880.9691	896.4133	905.8109	948.1607	1006.5222	1007.8341	1039.736	1058.4494	1106.757	1118.8695	1203.0536	1210.3368	1246.4833	1259.6758	1292.147	1325.9722	1335.9502	1360.2197	1400.8457	1421.7685	1445.3537	1488.5155	1689.7262	1769.6226	3002.9952	3029.8125	3051.4854	3083.8385	3096.81	3135.2571	3143.6148	3175.4434
O=C1C=CCC2CC1O2	O=C1C=CC[C@@H]2C[C@H]1O2	
InChI=1S/C7H8O2/c8-6-3-1-2-5-4-7(6)9-5/h1,3,5,7H,2,4H2	InChI=1S/C7H8O2/c8-6-3-1-2-5-4-7(6)9-5/h1,3,5,7H,2,4H2/t5-,7-/m1/s1
