20
gdb 10921	3.01388	1.87704	1.45512	1.4825	74.34	-0.2288	0.0762	0.3051	953.4703	0.176161	-348.978652	-348.970202	-348.969258	-349.010747	32.919	
C	-0.4186334603	 1.5495300004	 0.3536765962	-0.401411
C	-0.1241906069	 0.0614012038	 0.1942303356	 0.013181
C	 0.2501057072	-0.4702560202	-1.1972641708	-0.160082
C	 1.5894882402	 0.0874252995	-1.638573396	-0.317141
C	 1.5728121061	-1.0198520361	-0.6433335534	 0.412709
O	 2.2724197518	-2.1805413665	-0.9259157408	-0.462407
C	 1.227911326	-0.5344386902	 0.7695212869	-0.070675
C	 2.224172357	 0.3460390156	 1.5153245071	-0.410862
H	 0.3716575321	 2.177245293	-0.0682980727	 0.114722
H	-1.3520725749	 1.8114705416	-0.1564217221	 0.113685
H	-0.5303025708	 1.8215388162	 1.4090687112	 0.11149
H	-0.9667954479	-0.5068553152	 0.6014086575	 0.06801
H	-0.4387881467	-0.9034230079	-1.9130715429	 0.082298
H	 1.8957066164	-0.2353912758	-2.6285264055	 0.117589
H	 1.9047696373	 1.0963022543	-1.3839912124	 0.102427
H	 1.8391328383	-2.9096518393	-0.4679422553	 0.279896
H	 0.9826267151	-1.4013761971	 1.3962282643	 0.059194
H	 2.5144184139	 1.224532106	 0.9316019552	 0.11603
H	 1.8095865932	 0.7000863927	 2.465514502	 0.11167
H	 3.1372480429	-0.2159632147	 1.7395393659	 0.119676
133.5486	200.7614	205.2439	227.9344	235.0618	266.7086	345.9046	386.4993	444.947	498.3368	556.979	624.6824	687.4503	751.1815	825.9146	867.2273	912.9549	945.7248	984.7646	999.3401	1020.1755	1049.6363	1069.5411	1089.4808	1106.7224	1148.3173	1161.8326	1201.0983	1211.1955	1263.3992	1295.8761	1318.1289	1361.3434	1380.5782	1404.977	1409.5622	1433.3376	1489.0875	1491.5137	1498.8405	1504.2396	1509.9176	3013.9723	3029.9115	3033.2521	3046.579	3091.1689	3095.3649	3103.0491	3107.8127	3114.2325	3177.9036	3202.7576	3789.5643
CC1C2CC2(O)C1C	C[C@H]1[C@H]2C[C@@]2(O)[C@H]1C	
InChI=1S/C7H12O/c1-4-5(2)7(8)3-6(4)7/h4-6,8H,3H2,1-2H3	InChI=1S/C7H12O/c1-4-5(2)7(8)3-6(4)7/h4-6,8H,3H2,1-2H3/t4-,5+,6-,7-/m1/s1
