13
gdb 11207	4.7141	1.51173	1.34494	2.6155	55.47	-0.2632	-0.0556	0.2076	888.6452	0.09537	-435.756849	-435.749838	-435.748894	-435.789019	24.431	
N	-0.1012589392	 1.1252547587	 0.775736279	-0.567163
C	-0.0276402278	 0.0460410572	 0.1413348391	 0.497672
O	 0.9214607369	-0.3249178345	-0.7641940333	-0.248792
C	 0.7321060416	-1.6962938797	-1.1249554542	-0.123243
C	-0.7083276293	-1.9613036462	-0.6748366205	-0.005934
O	-0.9540619547	-0.9429448774	 0.2905499945	-0.234027
C	-1.7335549711	-1.8619241085	-1.8066876423	 0.129394
O	-1.5180438434	-2.2566881238	-2.920861208	-0.224736
H	 0.6957601906	 1.7182636816	 0.5581745902	 0.237713
H	 0.8518923634	-1.8133305229	-2.2031362258	 0.156508
H	 1.4592596649	-2.3192856917	-0.5951294126	 0.129149
H	-0.8308134422	-2.9368832603	-0.1909043139	 0.136054
H	-2.6978330196	-1.4029159324	-1.5030866223	 0.117406
63.1649	112.719	134.3489	256.8011	380.9611	461.503	573.6773	713.6608	727.6676	750.6452	807.9538	851.3819	898.6743	945.9828	1002.2722	1038.0791	1099.1533	1108.5718	1129.432	1218.8797	1242.6957	1316.7331	1342.0918	1396.7809	1405.145	1524.0066	1808.0806	1838.4623	2925.4082	3051.2746	3062.2141	3132.2322	3542.1115
N=C1OCC(O1)C=O	[NH][C]1OC[C@@H](O1)C=O	
InChI=1S/C4H5NO3/c5-4-7-2-3(1-6)8-4/h1,3,5H,2H2	InChI=1S/C4H5NO3/c5-4-7-2-3(1-6)8-4/h1,3,5H,2H2/t3-/m0/s1
