17
gdb 78334	2.81399	1.38549	1.0546	3.6793	74.88	-0.2401	-0.0248	0.2153	1157.5478	0.13465	-421.792494	-421.78438	-421.783436	-421.825144	30.611	
C	-0.1216087443	 1.3864843464	 0.0062423406	-0.426228
C	 0.058242582	-0.1130881664	 0.112716397	-0.02
C	 1.4412226793	-0.6711570913	-0.2211045226	-0.195114
C	 0.8739291454	-0.6668968345	 1.2326958719	-0.177504
C	 0.8093816463	-2.1789126654	 1.2015511777	 0.343359
C	 1.0737483676	-3.1703259677	 2.2469069574	-0.268651
O	-0.237855726	-2.9865144843	 1.7028186814	-0.267638
C	 1.386418449	-2.1737582774	-0.2260133468	 0.350541
O	 1.7809478488	-3.0338889911	-0.9599889171	-0.322785
H	 0.7689414083	 1.921221725	 0.3516644448	 0.121027
H	-0.3139635025	 1.6858525312	-1.028682642	 0.132004
H	-0.9697102805	 1.7151722182	 0.6155183606	 0.13165
H	-0.8053605002	-0.6898307012	-0.2106286745	 0.1133
H	 2.2079954777	-0.0470187585	-0.6610378478	 0.114576
H	 1.2277192964	-0.0644200086	 2.0592487138	 0.109433
H	 1.5653714877	-4.1035965027	 1.9781379064	 0.138701
H	 1.205100495	-2.8389656016	 3.2760412393	 0.12333
111.6418	153.1832	205.9708	219.3179	247.7067	251.6471	365.2031	425.505	517.4116	643.6612	663.8715	754.8017	787.7295	859.0494	870.4498	891.0109	910.161	960.8948	979.1436	996.7919	1051.8817	1088.7752	1091.0765	1125.2489	1145.9231	1158.4488	1175.88	1213.2334	1243.6844	1273.1896	1408.8435	1418.4054	1436.9658	1492.5362	1501.222	1524.5621	1885.2259	3035.6348	3085.8479	3102.9392	3105.9841	3133.1223	3179.6368	3201.0573	3210.1212
CC1C2C1C1(CO1)C2=O	C[C@H]1[C@H]2[C@@H]1[C@]1(CO1)C2=O	
InChI=1S/C7H8O2/c1-3-4-5(3)7(2-9-7)6(4)8/h3-5H,2H2,1H3	InChI=1S/C7H8O2/c1-3-4-5(3)7(2-9-7)6(4)8/h3-5H,2H2,1H3/t3-,4-,5+,7+/m0/s1
