18
gdb 117144	4.29569	0.76143	0.65468	3.1442	71.02	-0.2577	-0.0309	0.2269	1637.6027	0.145357	-476.269483	-476.259221	-476.258277	-476.305715	35.001	
C	-0.0224396449	 1.4811268781	-0.0184459112	-0.35798
N	-0.0077574144	 0.0197019582	-0.0115825929	-0.149866
C	 0.0006290948	-0.6325410254	 1.2245009391	 0.171324
O	-0.0036686698	-0.0555067296	 2.2849542135	-0.316669
C	-0.0016272395	-0.7525446662	-1.1858913299	 0.437265
O	 0.0104099558	-1.9653649216	-1.150212629	-0.345122
C	-0.011038673	 0.0187347563	-2.4904231319	-0.320811
C	-0.0023171544	-0.9081055488	-3.6989014522	-0.079859
O	-0.0120892235	-0.0746097889	-4.8475566005	-0.425678
H	 0.8634581438	 1.8848889617	-0.5156665798	 0.141015
H	-0.9165535825	 1.8669408539	-0.5151682929	 0.141
H	-0.0253068298	 1.8001454852	 1.0232966554	 0.176739
H	 0.0114775757	-1.7228383013	 1.1070900983	 0.140745
H	-0.8919370924	 0.6704044899	-2.53470329	 0.140475
H	 0.8556215864	 0.6890984019	-2.5363772858	 0.14046
H	 0.8881344433	-1.5506174179	-3.6649500898	 0.108188
H	-0.8788873532	-1.5693077123	-3.663379626	 0.108222
H	-0.0098211524	-0.6390729831	-5.6258526646	 0.290553
49.8634	76.1884	112.5066	132.909	144.8094	186.8399	272.4202	295.5263	315.8076	320.0866	377.6882	432.702	559.0439	571.6272	745.7717	817.7199	852.6971	979.139	1040.8336	1060.1358	1069.7726	1081.6601	1120.612	1153.0042	1210.5019	1240.1894	1283.3227	1305.8941	1310.2848	1375.9507	1414.8017	1449.7478	1451.7962	1467.6877	1505.6855	1506.4875	1523.4533	1779.8853	1810.2804	3004.3147	3034.5862	3039.3841	3051.0007	3078.0263	3079.5573	3113.8341	3163.2068	3834.9535
CN(C=O)C(=O)CCO	CN(C=O)C(=O)CCO	
InChI=1S/C5H9NO3/c1-6(4-8)5(9)2-3-7/h4,7H,2-3H2,1H3	InChI=1S/C5H9NO3/c1-6(4-8)5(9)2-3-7/h4,7H,2-3H2,1H3
