17
gdb 69139	2.71709	1.74898	1.36582	3.1425	73.75	-0.24	-0.0144	0.2256	981.1352	0.136509	-417.966191	-417.958732	-417.957788	-417.99782	29.467	
C	-0.0636396588	 1.4896736619	-0.0208296929	-0.484017
C	-0.0640401737	-0.0179963479	 0.0152538642	 0.289293
C	-0.5219686922	-0.7976892375	 1.1956667523	-0.285389
N	 0.9251844716	-0.6883034538	 0.8868530599	-0.147335
C	 1.5222941548	-1.7693612126	 0.1656743025	 0.353306
N	 2.3979932003	-2.513861827	 0.6980287745	-0.493691
C	 0.9768962188	-1.7943933076	-1.2425735092	-0.072174
O	-0.4302892172	-2.1207407477	-1.250763924	-0.244499
C	-0.0530897807	-0.7473780613	-1.3188029984	-0.018921
H	 0.7283069301	 1.8682637286	-0.6765336551	 0.126792
H	-1.0224041091	 1.8694841495	-0.3905598948	 0.125113
H	 0.1070791089	 1.894029407	 0.9793979128	 0.139595
H	-0.8203180237	-0.2739463227	 2.0995252381	 0.123952
H	-1.0046121852	-1.7522135369	 1.0200189114	 0.146765
H	 2.7235088769	-3.2105143472	 0.0257024311	 0.223977
H	 1.5568642447	-2.1791744521	-2.07749817	 0.110599
H	-0.3116801053	-0.2228104228	-2.2341563224	 0.106634
131.9015	189.1103	210.552	287.1667	318.1332	374.505	455.4912	522.2906	585.0285	627.5506	729.8602	755.7038	796.5799	839.8904	858.8435	885.6899	913.2508	934.9478	960.8955	1004.0087	1035.2842	1061.3636	1101.6233	1109.9081	1135.4094	1147.2199	1238.702	1247.4623	1326.8113	1336.6014	1367.7243	1409.4008	1422.7453	1484.5468	1493.2006	1497.3781	1745.471	3033.7066	3095.6238	3121.7527	3128.2961	3148.2551	3162.9109	3224.0238	3463.8206
CC12CN1C(=N)C1OC21	C[C@]12CN1[C]([NH])[C@H]1O[C@@H]21	
InChI=1S/C6H8N2O/c1-6-2-8(6)5(7)3-4(6)9-3/h3-4,7H,2H2,1H3	InChI=1S/C6H8N2O/c1-6-2-8(6)5(7)3-4(6)9-3/h3-4,7H,2H2,1H3/t3-,4+,6+,8?/m0/s1
