19
gdb 62054	2.66156	1.04332	0.88765	3.3575	76.02	-0.2537	0.0238	0.2775	1374.2648	0.158748	-419.181738	-419.172092	-419.171147	-419.217107	34.74	
N	-0.4500077859	 1.6885593514	-1.1084338632	-0.498888
C	-0.8253627505	 0.7110946561	-0.0869910899	-0.148898
C	-2.0942282708	-0.0341942783	-0.5629157567	-0.059022
O	-2.5396384258	-1.0412496497	 0.3105782413	-0.236702
C	-3.1566976909	-0.5748486107	 1.4769178847	 0.136838
C	-3.3468996267	-1.5786398847	 2.5632972823	-0.293664
C	-2.3606044411	-0.4425799292	 2.7538464056	-0.296817
C	 0.2532154956	-0.2413078143	 0.251250887	 0.272113
N	 1.1338822611	-0.9539035416	 0.4836358969	-0.332341
H	 0.3089922661	 2.2734492101	-0.7733635571	 0.248205
H	-0.0999462189	 1.2099812386	-1.9340973913	 0.244372
H	-1.0735426617	 1.2581900225	 0.8280895198	 0.139365
H	-2.8661632233	 0.7278570316	-0.7394661338	 0.113181
H	-1.8797941309	-0.5302639877	-1.5153477343	 0.116524
H	-3.9530715814	 0.1467696818	 1.2914303615	 0.088177
H	-4.2773017386	-1.5697592539	 3.1191527219	 0.117599
H	-2.9301587372	-2.5628836218	 2.3834162482	 0.135537
H	-1.3088374871	-0.7015881944	 2.7102685929	 0.140759
H	-2.609979382	 0.3588841341	 3.4412065742	 0.113662
50.0275	71.8468	99.1347	155.3309	237.2786	262.5026	276.3073	287.1914	360.0484	413.0525	529.3895	571.711	621.2052	752.1088	788.305	811.1643	822.5758	877.5199	957.0173	969.6032	1003.3826	1056.1671	1058.4061	1079.2832	1115.1563	1128.2074	1135.2652	1175.2202	1197.3827	1226.3831	1241.8979	1294.0367	1341.6633	1386.0322	1389.9863	1417.6671	1453.7128	1488.2752	1499.7843	1665.4537	2344.718	3012.0498	3065.2454	3087.234	3095.7883	3134.3472	3143.9593	3222.5577	3237.2927	3496.3515	3575.915
NC(COC1CC1)C#N	N[C@@H](COC1CC1)C#N	
InChI=1S/C6H10N2O/c7-3-5(8)4-9-6-1-2-6/h5-6H,1-2,4,8H2	InChI=1S/C6H10N2O/c7-3-5(8)4-9-6-1-2-6/h5-6H,1-2,4,8H2/t5-/m1/s1
