18
gdb 96633	2.48306	1.20064	1.05	3.5751	75.15	-0.2577	-0.0108	0.2469	1239.0362	0.144928	-435.278107	-435.267677	-435.266733	-435.313335	37.66	
C	-0.0175860344	 1.4788990669	 0.1747204833	-0.344024
N	 0.027275599	 0.0278631164	 0.1523203807	-0.275104
C	-1.0510313594	-0.6138416098	-0.0339080031	 0.337385
N	-2.3370318182	-0.0977530791	-0.1514228182	-0.570527
C	-1.0356173759	-2.1544095831	 0.0305942949	 0.158786
C	 0.3740310478	-2.7369267143	 0.0374583018	-0.395751
O	-1.6781662261	-2.5783832053	 1.2274164588	-0.435987
C	-1.7979098623	-2.6788237933	-1.1384857413	 0.248466
N	-2.4304886493	-3.0462094093	-2.0340742403	-0.348364
H	 1.0015667027	 1.8717163901	 0.1652060972	 0.134852
H	-0.5465095081	 1.9065989211	-0.692889983	 0.108243
H	-0.5097226556	 1.8551994611	 1.0832729103	 0.125992
H	-2.4071979201	 0.9019829063	-0.2679616912	 0.261057
H	-2.9674475068	-0.6079468449	-0.7565784517	 0.272853
H	 0.9253866089	-2.3026009391	 0.8704854749	 0.152258
H	 0.3103814304	-3.8207810328	 0.1545104891	 0.134854
H	 0.8947812433	-2.4982901806	-0.890927202	 0.139455
H	-2.4530556661	-2.0182517304	 1.3604191199	 0.295556
51.2819	119.3345	139.4255	182.1756	190.2432	226.2952	239.0639	311.5062	334.8742	361.9635	389.7635	442.6216	449.7717	479.0195	587.0073	599.6151	635.2958	718.5116	769.3238	881.284	940.4638	997.0004	1079.598	1101.6606	1123.9395	1159.9682	1169.8301	1203.3438	1313.5588	1381.8615	1410.1149	1434.2856	1475.7382	1478.9785	1489.2325	1508.5875	1644.5041	1758.7869	2341.796	2966.396	3027.355	3070.4567	3107.9544	3151.6543	3171.4615	3552.2168	3661.253	3785.8423
CN=C(N)C(C)(O)C#N	CN=C(N)[C@@](C)(O)C#N	
InChI=1S/C5H9N3O/c1-5(9,3-6)4(7)8-2/h9H,1-2H3,(H2,7,8)	InChI=1S/C5H9N3O/c1-5(9,3-6)4(7)8-2/h9H,1-2H3,(H2,7,8)/t5-/m0/s1
