17
gdb 51587	5.11071	0.66726	0.64895	3.4275	75.02	-0.257	-0.04	0.217	1670.7684	0.133901	-417.985625	-417.976241	-417.975297	-418.021798	32.118	
O	 0.2363976656	 2.423191749	 2.0368704933	-0.226359
C	 0.0019960353	 2.408349023	 0.8579620642	 0.161879
C	 0.9131286514	 1.7946636786	-0.1902894034	-0.314659
C	 1.2166074789	 2.8025338455	-1.2882008148	 0.000574
C	 2.4136440956	 3.6895297845	-1.210315258	-0.245518
N	 2.3190768885	 2.656734626	-2.2409429078	-0.089487
C	 3.2116014437	 1.5090203384	-2.1348581575	-0.290974
C	 4.4583117808	 1.7716092844	-2.8635342319	 0.285374
N	 5.4502999833	 1.96869052	-3.4205883273	-0.294737
H	-0.9317924369	 2.8598792088	 0.4505563564	 0.08301
H	 1.8078556922	 1.4323252941	 0.3195442122	 0.128589
H	 0.3843833781	 0.9319528802	-0.622656796	 0.130925
H	 0.3218582958	 3.2021786114	-1.7639313894	 0.110485
H	 2.3798870141	 4.7150179405	-1.5651220658	 0.135407
H	 3.0972576649	 3.5165525083	-0.3796809237	 0.126628
H	 3.4824670558	 1.2314102537	-1.1039341092	 0.139365
H	 2.7242785829	 0.6381240436	-2.5882779413	 0.159497
35.4168	60.8523	67.7083	108.4653	187.7354	260.4435	310.9464	384.445	420.0043	453.3781	520.8448	576.8833	745.3857	797.0252	889.4394	904.0401	938.6338	979.8393	1001.5742	1046.2188	1067.9995	1112.3284	1127.6781	1160.4076	1177.0951	1217.6222	1271.8247	1290.3342	1336.8266	1374.3876	1423.212	1430.706	1461.5767	1472.8326	1511.2292	1839.9085	2370.4394	2869.6809	2981.1228	3007.7092	3063.4998	3096.6199	3107.4543	3122.3454	3191.7987
O=CCC1CN1CC#N	O=CC[C@H]1CN1CC#N	
InChI=1S/C6H8N2O/c7-2-3-8-5-6(8)1-4-9/h4,6H,1,3,5H2	InChI=1S/C6H8N2O/c7-2-3-8-5-6(8)1-4-9/h4,6H,1,3,5H2/t6-,8?/m0/s1
