18
gdb 26418	4.45776	0.91971	0.78898	1.2781	73.05	-0.2348	0.0094	0.2443	1424.7648	0.147725	-439.119093	-439.110402	-439.109457	-439.153131	31.969	
C	 0.1588037807	 1.5271000295	 0.1228239736	-0.399636
C	 0.0352496753	 0.0199960762	 0.3439039808	 0.127291
O	-0.0351921715	-0.2897171078	 1.737440332	-0.425817
C	-1.1457132914	-0.5815275446	-0.4304825135	-0.329852
C	-1.2695162035	-2.0697558155	-0.3179874026	 0.242434
C	-0.8602971232	-2.9217220695	 0.6555510233	-0.098341
O	-1.207744608	-4.1944973165	 0.2859210927	-0.142239
C	-1.8209940929	-4.037859547	-0.9057525326	 0.068812
N	-1.8923867105	-2.8170573106	-1.3213496486	-0.309312
H	 0.9930606061	 1.9258788864	 0.7056905964	 0.125972
H	 0.3269395708	 1.7610821168	-0.9331194579	 0.120713
H	-0.7571013029	 2.0433925048	 0.4370857947	 0.107833
H	 0.9564820306	-0.4712520154	 0.0094972249	 0.097059
H	-0.8262140649	 0.1336585007	 2.0905129846	 0.278282
H	-2.0754090452	-0.0994665074	-0.0896638681	 0.104472
H	-1.055104854	-0.3276745645	-1.4923729411	 0.123542
H	-0.3529933771	-2.8014307972	 1.594524454	 0.161431
H	-2.1825376583	-4.9323578783	-1.3884370026	 0.147355
52.6083	87.9619	144.0342	240.2812	284.9422	300.1307	313.1502	341.8692	457.4756	485.818	642.4404	681.5255	739.6217	802.894	846.2879	847.9493	906.8308	935.1062	947.1507	1000.4164	1058.5294	1079.6829	1094.8042	1133.4196	1155.2837	1190.3711	1229.3587	1240.7974	1322.1695	1329.3059	1347.0285	1392.3869	1404.1734	1423.8349	1470.5708	1492.6111	1495.369	1557.274	1622.078	2990.2182	3025.9835	3048.4978	3070.3753	3097.6719	3122.1669	3274.2477	3324.0341	3793.2359
CC(O)CC1=COC=N1	C[C@@H](O)Cc1cocn1	
InChI=1S/C6H9NO2/c1-5(8)2-6-3-9-4-7-6/h3-5,8H,2H2,1H3	InChI=1S/C6H9NO2/c1-5(8)2-6-3-9-4-7-6/h3-5,8H,2H2,1H3/t5-/m1/s1
