21
gdb 60552	2.87646	1.21263	0.9591	1.6741	78.24	-0.2586	0.0835	0.3421	1285.005	0.181004	-424.193211	-424.183782	-424.182838	-424.22752	35.91	
C	-0.0347011345	 1.4950161174	-0.3511657907	-0.464948
C	-0.0289189298	 0.0060615436	-0.0968905597	 0.389483
C	 1.1700264558	-0.7813356633	-0.4111487433	-0.234183
O	 0.8574290825	-0.4370829647	 0.9515060117	-0.293259
C	-1.3845649182	-0.7137569884	-0.0520550969	 0.0384
O	-1.2010840506	-2.0721574322	 0.3117608211	-0.43769
C	-2.3683833649	-0.0212475227	 0.8743680264	 0.0102
C	-3.3720139717	 0.9715351846	 0.3362100194	-0.267755
C	-3.8246109501	-0.3890974295	 0.7983664696	-0.274677
H	 0.9867543952	 1.8831110047	-0.3590903934	 0.124965
H	-0.4979546257	 1.7176042432	-1.3185325462	 0.121957
H	-0.6007245915	 2.0245956404	 0.4191800755	 0.136045
H	 1.070831952	-1.8361777787	-0.6508041645	 0.127635
H	 2.0447700629	-0.2774638199	-0.8189033219	 0.112092
H	-1.8054291894	-0.7270400371	-1.066645919	 0.084212
H	-0.6018673845	-2.0559133194	 1.071297174	 0.286659
H	-1.9709456475	 0.1809501594	 1.8665167294	 0.087799
H	-3.617587238	 1.8362622088	 0.9427970834	 0.111802
H	-3.3691907158	 1.1695905326	-0.7311053113	 0.10973
H	-4.117388123	-1.1136827775	 0.0458443	 0.119545
H	-4.3852162332	-0.4605651112	 1.7234786462	 0.111987
67.0927	80.3286	159.1324	193.9287	255.2645	283.6123	299.4592	354.7548	376.6454	452.6954	492.239	506.5802	578.6362	733.265	773.4072	829.6033	853.1857	858.4224	916.0361	931.2391	947.0037	981.4543	1015.0023	1057.6275	1077.6096	1083.2663	1097.0171	1136.8191	1138.5607	1169.8767	1178.4823	1196.7658	1225.5967	1244.319	1290.9188	1308.5922	1386.2282	1415.8514	1421.6795	1434.4314	1472.4251	1481.4618	1495.485	1507.0567	1519.3088	3021.5527	3043.0097	3098.2076	3111.3582	3127.7629	3128.8345	3131.9101	3137.3541	3196.8361	3206.1139	3223.0459	3747.319
CC1(CO1)C(O)C1CC1	C[C@]1(CO1)[C@@H](O)C1CC1	
InChI=1S/C7H12O2/c1-7(4-9-7)6(8)5-2-3-5/h5-6,8H,2-4H2,1H3	InChI=1S/C7H12O2/c1-7(4-9-7)6(8)5-2-3-5/h5-6,8H,2-4H2,1H3/t6-,7-/m0/s1
