17
gdb 89207	2.47353	1.66121	1.27759	4.0089	68.39	-0.257	-0.0061	0.2509	1040.8777	0.134422	-458.973467	-458.965108	-458.964163	-459.006277	31.079	
C	-0.5673297568	 1.3289923298	-0.1234391795	-0.414369
C	 0.0899653653	-0.0232501708	 0.0305632863	 0.121019
O	 1.3030955942	-0.1800919092	-0.7699703424	-0.343466
C	 2.0676842003	-0.634644517	 0.3745372511	 0.248898
C	 2.8660525902	-1.8817289386	 0.1401303839	-0.490647
C	 0.8716219769	-0.3579003633	 1.3113049887	-0.006557
O	 1.5617381701	 0.7929805322	 1.8774117722	-0.263776
C	 2.6873575781	 0.5850533105	 1.0950021431	 0.436809
O	 3.6903279368	 1.2173517956	 1.0857142022	-0.320087
H	 0.0968830962	 2.1276860981	 0.2126520974	 0.146163
H	-0.8201850185	 1.4992174934	-1.1739339991	 0.135647
H	-1.4916465701	 1.3699457235	 0.4623218513	 0.124588
H	-0.6070712307	-0.8348230182	-0.2186290485	 0.090617
H	 3.6373067522	-1.6827580863	-0.6105873248	 0.155639
H	 3.3615563641	-2.2075931035	 1.0594409844	 0.13625
H	 2.2248129852	-2.6868323126	-0.2281881727	 0.134023
H	 0.4635033864	-1.0073637835	 2.0819993364	 0.109249
103.6984	174.3758	187.5056	212.3744	233.0221	261.1719	278.0548	414.193	452.3533	603.597	648.0265	691.6225	753.4873	802.4089	843.5929	875.163	892.8429	934.9512	975.1634	1025.5203	1087.5505	1093.5427	1140.8821	1152.0303	1167.0633	1190.9935	1301.628	1318.1698	1345.5028	1382.4755	1411.4402	1413.1472	1477.0951	1484.6671	1486.0617	1493.4282	1942.3953	3015.7806	3043.9731	3046.1493	3114.5367	3117.5862	3125.5405	3140.5012	3149.3104
CC1OC2(C)C1OC2=O	C[C@H]1O[C@]2(C)[C@H]1OC2=O	
InChI=1S/C6H8O3/c1-3-4-6(2,9-3)5(7)8-4/h3-4H,1-2H3	InChI=1S/C6H8O3/c1-3-4-6(2,9-3)5(7)8-4/h3-4H,1-2H3/t3-,4+,6-/m1/s1
