18
gdb 6606	5.14268	1.37205	1.33118	1.1644	68.4	-0.2456	0.0766	0.3221	982.4476	0.153006	-384.881138	-384.873294	-384.872349	-384.913106	30.159	
C	 0.0030394167	 1.3416412481	 0.0017280722	-0.262328
O	 0.0470037194	-0.070683955	-0.073143276	-0.28751
C	 0.6729638138	-0.5562976464	-1.1941400521	 0.456991
C	 2.1631214292	-0.3624243685	-1.6423539498	-0.326472
C	 1.5046663833	-1.3170030643	-2.664426243	 0.406082
O	 2.1946288122	-1.8501685349	-3.7330311845	-0.470947
C	 0.8387863758	-2.0676680006	-1.4646721849	-0.348906
C	 0.262083182	-0.3706057051	-2.6937029451	-0.361589
H	 1.011690242	 1.7774402062	 0.022309743	 0.114699
H	-0.5488018665	 1.7747188346	-0.8442677892	 0.113638
H	-0.5127978522	 1.5947999442	 0.9302760508	 0.129528
H	 2.451031525	 0.6223000124	-2.0187161673	 0.092358
H	 2.9279772436	-0.7964494927	-0.9937449575	 0.096527
H	 1.5933305852	-2.4108553669	-4.234761762	 0.284113
H	 1.5086996766	-2.6125015886	-0.7951166667	 0.097087
H	-0.0783419145	-2.6251513774	-1.6754018882	 0.087447
H	-0.6916115286	-0.814751031	-2.9934764992	 0.086842
H	 0.416392637	 0.6149164258	-3.1401807106	 0.09244
80.8993	179.2543	183.0746	262.6413	303.6875	352.9035	447.0671	465.3351	555.8825	558.3329	614.0136	654.1702	742.753	778.5761	939.8051	956.1247	969.1701	1041.5918	1045.9974	1065.6253	1107.3186	1118.3808	1126.8153	1133.8294	1153.9116	1165.1761	1179.979	1181.8529	1237.3314	1298.4782	1336.742	1392.32	1483.8806	1487.5191	1491.1321	1493.8371	1506.2863	1569.5897	2993.7385	3044.6883	3047.985	3051.5216	3060.7712	3117.1248	3122.7843	3124.3226	3127.1719	3810.4413
COC12CC(O)(C1)C2	CO[C@@]12C[C@@](O)(C1)C2	
InChI=1S/C6H10O2/c1-8-6-2-5(7,3-6)4-6/h7H,2-4H2,1H3	InChI=1S/C6H10O2/c1-8-6-2-5(7,3-6)4-6/h7H,2-4H2,1H3/t5-,6+
