25
gdb 87121	2.4012	1.20471	1.14716	1.231	88.59	-0.2499	0.0677	0.3176	1305.0991	0.225416	-389.489275	-389.478145	-389.4772	-389.524446	43.033	
C	-0.104325988	 1.4905444963	-0.23871134	-0.406966
C	 0.1475354952	 0.001367202	-0.1556380438	-0.03905
C	 1.5634666631	-0.5479313405	-0.091721372	-0.377361
C	 0.6494445641	-0.6454411483	 1.108727716	 0.406139
O	 0.9097184156	 0.2803593287	 2.1430574628	-0.474218
C	 0.0914621571	-1.9838201944	 1.6348451324	 0.221474
C	 1.1007900108	-2.5799765551	 2.6390112214	-0.426997
C	-1.2423404762	-1.7001612776	 2.3539916361	-0.403316
C	-0.1443346361	-3.0150563069	 0.5175082206	-0.429869
H	 0.5719684667	 2.0373286457	 0.4209825201	 0.128666
H	 0.0386907383	 1.8520469628	-1.2629544472	 0.108978
H	-1.1291375952	 1.7352364729	 0.0617010069	 0.114705
H	-0.5447890122	-0.5978496847	-0.7397468798	 0.081602
H	 1.8080929214	-1.4340738832	-0.6660794685	 0.10717
H	 2.3667154697	 0.1794148452	-0.0215702499	 0.104348
H	 1.7516059996	 0.0433706787	 2.5444620077	 0.282129
H	 1.2374341097	-1.925884841	 3.505612822	 0.108731
H	 0.7465665202	-3.545841537	 3.013614101	 0.111122
H	 2.0779799256	-2.7427930752	 2.1698505462	 0.107913
H	-1.9991747024	-1.3442975748	 1.6468711867	 0.107714
H	-1.6284785619	-2.6069891461	 2.8320592053	 0.099864
H	-1.1102417415	-0.932941998	 3.1205699563	 0.126736
H	 0.7846506994	-3.2902304396	 0.0092576858	 0.112686
H	-0.563529989	-3.9303223876	 0.9483668508	 0.11168
H	-0.855129064	-2.6588053123	-0.2337322969	 0.116119
50.2363	149.9264	178.8177	216.4517	221.6156	256.9238	263.0949	288.2404	292.5366	310.5184	327.4237	362.3868	380.7608	452.675	460.1109	480.5024	566.8975	638.9958	790.1306	821.4422	887.2803	905.1862	928.4349	932.075	939.3891	955.5545	1005.1627	1028.266	1040.11	1049.9475	1097.8631	1129.1772	1181.0635	1196.8873	1230.8386	1235.8368	1266.8674	1294.7626	1330.2455	1389.8633	1396.7975	1404.095	1420.0115	1427.921	1479.072	1480.8335	1490.1464	1493.6833	1495.2631	1503.016	1505.1317	1510.8491	1524.1992	3025.5547	3030.8176	3033.4409	3039.0704	3088.2643	3092.7357	3093.4263	3100.0491	3102.3075	3110.2767	3123.649	3126.9919	3130.0084	3153.9796	3215.7233	3814.2028
CC1CC1(O)C(C)(C)C	C[C@H]1C[C@]1(O)C(C)(C)C	
InChI=1S/C8H16O/c1-6-5-8(6,9)7(2,3)4/h6,9H,5H2,1-4H3	InChI=1S/C8H16O/c1-6-5-8(6,9)7(2,3)4/h6,9H,5H2,1-4H3/t6-,8+/m0/s1
