16
gdb 54704	3.72993	1.4024	1.22948	3.5189	67.26	-0.231	0.0236	0.2546	1005.5971	0.12549	-437.845573	-437.838407	-437.837462	-437.877753	28.176	
N	 0.5113657242	 0.5022383839	 0.9162171237	-0.530582
C	 0.0175777566	 0.0194120729	-0.2537553094	 0.360854
O	 0.4411485252	 0.3423871287	-1.3496818222	-0.371999
C	-1.113589778	-1.0007072875	-0.1216657317	-0.071736
C	-0.8881422325	-2.3983144336	 0.4774724744	-0.129752
C	-1.2307430826	-2.2658655549	 1.9690640629	 0.086324
O	-1.5247058892	-0.8896166307	 2.2382917632	-0.29365
C	-2.2345356251	-0.8854516932	 0.9568511095	 0.023884
C	-2.3281265032	-2.4542166224	 0.98443135	-0.143319
H	 1.224005806	 1.2118608063	 0.8729347212	 0.252918
H	 0.0611043526	 0.263126156	 1.7882914017	 0.267796
H	-1.5644307542	-1.1005467878	-1.1106881666	 0.108154
H	-0.2817941584	-3.2033219831	 0.0838585128	 0.10713
H	-0.8335781741	-2.8833654553	 2.7628637339	 0.120975
H	-3.0317975133	-0.1478961943	 0.9114027816	 0.100415
H	-3.130374164	-3.167950765	 0.868376055	 0.112587
42.6477	181.1243	229.9196	353.8651	397.9501	414.6502	565.0332	618.2863	682.9509	756.2865	769.7987	778.7101	795.1077	815.7425	842.654	887.0517	917.8535	971.0936	973.4161	1001.0213	1030.6368	1037.0986	1060.5433	1088.6377	1131.5683	1157.7931	1174.8065	1219.6937	1234.7185	1302.5052	1335.6423	1366.8646	1378.4716	1608.272	1790.8865	3106.3868	3159.305	3208.0148	3215.2222	3230.9433	3544.5363	3705.8991
NC(=O)C1C2C3OC1C23	NC(=O)[C@H]1[C@H]2[C@H]3O[C@@H]1[C@@H]23	
InChI=1S/C6H7NO2/c7-6(8)3-1-2-4(1)9-5(2)3/h1-5H,(H2,7,8)	InChI=1S/C6H7NO2/c7-6(8)3-1-2-4(1)9-5(2)3/h1-5H,(H2,7,8)/t1-,2-,3-,4+,5+/m0/s1
