15
gdb 6696	7.21146	0.75747	0.70741	6.3619	76.06	-0.2771	-0.0362	0.2409	1522.5921	0.117059	-362.653537	-362.644638	-362.643694	-362.687592	30.985	
C	-0.0280659257	 1.563899026	 0.068960431	-0.408843
C	 0.0205601071	 0.0373982012	 0.0277250519	 0.144123
O	 0.7554868073	-0.5027277951	 1.1092329802	-0.414689
C	-1.409732743	-0.5615440443	-0.0385492865	-0.395877
C	-1.4199715933	-2.0101575301	-0.1280541205	 0.082017
C	-1.4240499463	-3.215208841	-0.213018553	 0.073776
C	-1.4314839026	-4.5767794038	-0.3069884385	 0.206103
N	-1.4415581989	-5.7358174469	-0.3879744638	-0.33984
H	 0.9865435313	 1.9651989124	 0.1273180637	 0.136586
H	-0.5142561343	 1.975005621	-0.8213224747	 0.124528
H	-0.5862687716	 1.9126976087	 0.9470070014	 0.112987
H	 0.5638252023	-0.2874059768	-0.8662540401	 0.112484
H	 0.381180074	-0.1642528422	 1.9306711847	 0.282297
H	-1.9703324609	-0.2476046949	 0.8534286011	 0.136582
H	-1.9419185453	-0.1407110741	-0.9013281369	 0.147766
56.7623	72.3569	160.6745	199.9116	239.703	292.0705	312.774	368.2454	379.1569	454.884	506.2329	578.2557	580.761	739.8561	829.6437	891.2791	937.4738	1061.5812	1091.0407	1143.6264	1175.0277	1198.7207	1304.055	1329.585	1366.918	1406.0801	1424.3545	1453.7013	1490.9065	1495.2157	2266.933	2402.8382	3010.9626	3026.5941	3050.0446	3063.857	3099.4081	3127.1962	3794.0862
CC(O)CC#CC#N	C[C@@H](O)CC#CC#N	
InChI=1S/C6H7NO/c1-6(8)4-2-3-5-7/h6,8H,4H2,1H3	InChI=1S/C6H7NO/c1-6(8)4-2-3-5-7/h6,8H,4H2,1H3/t6-/m1/s1
