18
gdb 34756	4.79856	1.19484	1.09177	4.3749	80.22	-0.3001	0.0298	0.3299	1118.3347	0.15082	-364.797341	-364.790472	-364.789528	-364.828609	27.647	
N	-0.0878820043	-1.194307758	-0.1493014253	-0.33998
C	-0.0518866247	-0.0405845412	-0.0765591836	 0.266972
C	-0.0173327182	 1.4118302766	 0.0042897614	-0.161818
C	 0.0365603027	 2.0819489595	 1.4076632803	-0.05629
C	 1.5332920562	 1.6509444468	 1.5568748086	-0.010792
C	 2.2824826403	 2.7296041585	 2.3378653518	-0.244629
C	 1.6290407569	 4.0025994365	 1.7273736105	-0.24987
C	 0.6605792199	 3.3510194211	 0.7416997863	-0.012629
C	 1.3641276243	 2.1245409962	 0.0752092719	-0.05629
H	-0.7362678945	 1.8426060548	-0.6982394266	 0.111411
H	-0.7430874592	 2.0472045197	 2.1700507217	 0.084736
H	 1.7625770429	 0.6031124626	 1.7518228348	 0.093268
H	 2.1173258962	 2.6439869677	 3.4161200194	 0.105789
H	 3.362258758	 2.68389307	 2.1669260571	 0.105788
H	 1.1074449688	 4.6109298543	 2.4725794212	 0.105064
H	 2.3523352144	 4.6506529177	 1.2230468063	 0.105064
H	 0.0235650006	 3.9906525459	 0.1274689827	 0.069472
H	 2.1239599297	 2.1392035013	-0.7075629786	 0.084736
132.0807	148.033	245.3007	351.4751	371.39	497.4793	560.7274	701.8478	719.9695	752.2201	804.9914	830.2609	845.3543	913.9585	922.3905	932.9991	960.27	976.6873	998.3336	1023.046	1045.1047	1056.1816	1086.6328	1110.7041	1113.5421	1176.3052	1199.2143	1217.2754	1241.1127	1252.6836	1253.5509	1259.6064	1287.9913	1317.0303	1357.9413	1393.0181	1489.2256	1509.7828	2350.6249	3048.2547	3057.3418	3073.3525	3082.269	3096.556	3101.3144	3103.576	3108.4508	3124.7829
N#CC1C2C3CCC2C13	N#C[C@H]1[C@H]2[C@@H]3CC[C@H]2[C@H]13	
InChI=1S/C8H9N/c9-3-6-7-4-1-2-5(7)8(4)6/h4-8H,1-2H2	InChI=1S/C8H9N/c9-3-6-7-4-1-2-5(7)8(4)6/h4-8H,1-2H2/t4-,5+,6-,7-,8+
