19
gdb 39749	3.15801	1.69322	1.51117	2.472	77.91	-0.2259	0.0738	0.2997	949.363	0.162488	-382.003687	-381.996898	-381.995954	-382.034591	28.297	
C	-0.0132699565	 1.4583101972	-0.0164110323	-0.333906
N	 1.2644436175	 0.7094397294	 0.0781109457	-0.377341
C	-0.0018548653	-0.0157040343	 0.0097942857	 0.403336
C	-0.5694446235	-0.9175111974	 1.0821267181	-0.125677
C	-1.3482001543	-1.6676474614	 0.0426667574	-0.055779
C	-0.5354600247	-0.9661910922	-1.0882726368	-0.171606
C	 0.5392174331	-1.9957337474	-1.4548843906	-0.222098
C	 0.8491806838	-2.6353805595	-0.0765468687	-0.158926
N	-0.3093097817	-2.3417575337	 0.8023118239	-0.104598
H	-0.2732856648	 2.0245300467	 0.8745900732	 0.120296
H	-0.2626028912	 1.9523093324	-0.95265472	 0.11077
H	 1.7279213742	 0.7013493043	-0.8284091203	 0.22789
H	-0.8229471765	-0.6401578348	 2.0993936122	 0.093291
H	-2.3699272962	-2.0255451836	 0.0264026064	 0.094165
H	-1.0666609974	-0.5074241039	-1.922543609	 0.072097
H	 0.1424635976	-2.7332813823	-2.1611347487	 0.10205
H	 1.4236056883	-1.5413712475	-1.9133797032	 0.096298
H	 0.9625552406	-3.7209161217	-0.1426787037	 0.105937
H	 1.758209757	-2.2266946101	 0.3725419607	 0.123802
139.6849	223.2644	249.6595	318.1175	424.7166	508.4235	573.2473	663.6813	730.3099	769.3768	823.3004	844.8949	856.1257	882.5101	894.1659	918.9148	929.9271	948.7442	958.5193	973.8909	1012.7361	1021.2387	1036.741	1066.61	1098.0068	1131.7156	1164.2852	1194.1586	1216.7366	1224.4849	1234.56	1252.8675	1271.5143	1285.6693	1316.5445	1330.2162	1360.9049	1430.6605	1489.6691	1507.0336	1516.0045	3039.5506	3061.0974	3079.6421	3099.034	3108.5946	3112.2742	3171.617	3182.4221	3193.2344	3482.7764
C1NC11C2C3C1CCN23	C1N[C@]21[C@H]1[C@H]3[C@@H]2CCN13	
InChI=1S/C7H10N2/c1-2-9-5-4(1)7(3-8-7)6(5)9/h4-6,8H,1-3H2	InChI=1S/C7H10N2/c1-2-9-5-4(1)7(3-8-7)6(5)9/h4-6,8H,1-3H2/t4-,5+,6+,7-,9?/m0/s1
