21
gdb 96066	2.64358	1.52397	1.19157	1.7608	78.04	-0.222	0.0679	0.2899	1119.6546	0.182956	-424.21685	-424.208252	-424.207308	-424.249524	34.317	
C	-0.0003028573	 1.4963113216	-0.0325618632	-0.445388
C	-0.0147775441	-0.0096999281	 0.0387473238	 0.427948
C	-0.875740919	-0.7059081681	 1.0519881024	-0.339306
C	 0.641304516	-0.7212731326	 1.205453779	-0.097133
C	 1.395595774	-2.0246608662	 0.96806331	 0.086035
O	 0.6199072753	-3.094794582	 1.5104879987	-0.432174
C	 1.6759394257	-2.2376580974	-0.5290159419	-0.230947
C	 0.450822787	-1.8994897043	-1.3700638527	-0.081693
O	 0.1180738169	-0.5243202368	-1.263670974	-0.29811
H	 0.9399450983	 1.8522824281	-0.4656969669	 0.118793
H	-0.8207280759	 1.8544396638	-0.6629613099	 0.124668
H	-0.1142356282	 1.9335283241	 0.9629450872	 0.112748
H	-1.4506156481	-0.0992121225	 1.7432033914	 0.105506
H	-1.3412037812	-1.648982726	 0.7945467204	 0.130511
H	 1.0517625139	-0.091050947	 1.9877455099	 0.082801
H	 2.3570218474	-1.9640339924	 1.498355602	 0.064655
H	 1.1201522051	-3.9086376482	 1.3873427772	 0.27766
H	 2.5072457667	-1.5931923021	-0.8392884722	 0.104637
H	 1.9821436392	-3.2761296956	-0.7070376594	 0.082766
H	 0.640126558	-2.0701622058	-2.433383125	 0.104827
H	-0.3959368395	-2.5379772224	-1.0759396367	 0.101196
97.6827	165.8077	214.6673	261.2376	297.6004	326.4952	364.9864	381.6761	423.3754	462.3361	501.7058	577.7407	689.4768	710.0448	768.0004	837.5878	879.4425	889.2278	913.602	945.7418	988.0527	1013.4444	1039.87	1049.1378	1095.2321	1108.9144	1121.8332	1124.3186	1150.901	1222.4965	1235.5994	1269.8003	1278.5825	1298.5844	1352.8488	1381.3098	1403.4126	1411.7044	1422.0088	1435.1683	1466.5712	1478.1403	1483.8346	1506.6193	1511.4038	2983.2397	2996.5177	3025.9742	3036.682	3070.2022	3086.7584	3102.7392	3118.6078	3140.2544	3152.4895	3232.0773	3804.5707
CC12CC1C(O)CCO2	C[C@]12C[C@H]1[C@@H](O)CCO2	
InChI=1S/C7H12O2/c1-7-4-5(7)6(8)2-3-9-7/h5-6,8H,2-4H2,1H3	InChI=1S/C7H12O2/c1-7-4-5(7)6(8)2-3-9-7/h5-6,8H,2-4H2,1H3/t5-,6-,7-/m0/s1
