13
gdb 133288	4.91171	1.08691	0.89491	1.4556	67.73	-0.256	-0.1063	0.1497	1189.5964	0.087031	-493.985025	-493.977201	-493.976257	-494.018593	27.674	
C	 0.0112736801	 1.4218009213	-0.035546979	-0.321615
N	 0.0040878677	-0.0298994218	-0.0030628376	-0.280914
C	 0.542995877	-0.6666412073	-0.9470139784	 0.489437
O	 1.1407539471	 0.0423472517	-2.0117805397	-0.284031
N	 1.7522948519	-0.5977993656	-3.079218352	-0.116244
C	 1.7322333417	-1.8703187686	-3.0244160763	 0.328559
F	 2.299870188	-2.5338255784	-4.0147776535	-0.042757
C	 1.1294188938	-2.6377936125	-1.9507570596	-0.089237
N	 0.5631691593	-2.0567140533	-0.9613993106	-0.23869
H	 1.0330620164	 1.8228004785	-0.0578770021	 0.133857
H	-0.5031414458	 1.8107778259	-0.9240554266	 0.133897
H	-0.4943654556	 1.7976405628	 0.8558591215	 0.129126
H	 1.1633180285	-3.7250940427	-1.9946474962	 0.158612
28.7184	116.5947	200.0357	215.1719	343.2742	375.3238	377.3956	485.5281	549.1457	570.3124	615.1861	760.7299	761.5374	787.481	907.5187	955.4101	1055.1148	1077.5973	1103.5258	1115.4451	1203.2543	1316.6207	1433.2406	1445.1387	1482.9412	1496.5573	1634.2571	1702.9262	1745.709	3007.7818	3059.6067	3119.9151	3153.2152
CN=C1ON=C(F)C=N1	C[N]C1=N[CH]C(=NO1)F	
InChI=1S/C4H4FN3O/c1-6-4-7-2-3(5)8-9-4/h2H,1H3	InChI=1S/C4H4FN3O/c1-6-4-7-2-3(5)8-9-4/h2H,1H3
