22
gdb 86456	1.78989	1.64796	0.9088	3.111	83.68	-0.2177	-0.0121	0.2056	1333.0462	0.194188	-404.37512	-404.365835	-404.364891	-404.408961	35.312	
C	-0.0194384286	 1.5592602674	 0.015471235	-0.401657
C	 0.0073990418	 0.0292830348	-0.0264169887	 0.001446
C	 0.7300961856	-0.4927375763	-1.2731626265	-0.133997
N	 0.7017087061	-1.9489817942	-1.326739999	-0.072553
C	 1.1905262851	-2.4677205572	-2.592718313	-0.317914
C	 1.3971167298	-2.5587522046	-0.1985052841	-0.241868
C	 0.8638398811	-2.0606953438	 1.142320565	 0.378174
O	 0.6665163496	-2.8129061924	 2.0666979188	-0.303674
C	 0.6627888045	-0.55888627	 1.2365721613	-0.300409
H	 0.9959724259	 1.9719138849	 0.0418950246	 0.115661
H	-0.5257251612	 1.9717224066	-0.863538349	 0.115208
H	-0.546692481	 1.9186733463	 0.9047859792	 0.119072
H	-1.0241123054	-0.3419579548	-0.0773397878	 0.092409
H	 0.2342205877	-0.1104159872	-2.1722905494	 0.099868
H	 1.7696692489	-0.0990328782	-1.2904406754	 0.069029
H	 2.2551703137	-2.2265164897	-2.7792010169	 0.092376
H	 1.0853087981	-3.5569805681	-2.6116800589	 0.122608
H	 0.5998107047	-2.0537339954	-3.4157292832	 0.119607
H	 1.2780205593	-3.6446646815	-0.2288521006	 0.123935
H	 2.4897223404	-2.3439422023	-0.2181906678	 0.087758
H	 1.6630662232	-0.1124813598	 1.3528439523	 0.115954
H	 0.0978418605	-0.3340842043	 2.144946194	 0.118967
94.7504	118.8795	154.508	231.6158	243.6734	263.6974	324.3747	359.26	397.8571	409.3445	437.7316	489.8654	527.3841	616.8306	824.4301	843.044	871.388	889.0102	946.437	970.7296	987.6789	1064.938	1088.0144	1109.315	1146.8051	1154.9728	1166.3024	1180.4401	1246.5627	1265.8684	1274.3726	1294.3906	1310.0772	1342.1528	1371.8805	1376.1709	1404.9301	1414.9905	1454.7255	1463.5673	1475.8479	1485.8786	1497.0263	1497.991	1503.4413	1507.0181	1824.5986	2851.4746	2870.8958	2921.8652	2996.5746	3026.1803	3030.6759	3056.8415	3061.355	3093.7827	3095.2153	3099.6918	3103.3976	3106.0946
CC1CN(C)CC(=O)C1	C[C@H]1CN(C)CC(=O)C1	
InChI=1S/C7H13NO/c1-6-3-7(9)5-8(2)4-6/h6H,3-5H2,1-2H3	InChI=1S/C7H13NO/c1-6-3-7(9)5-8(2)4-6/h6H,3-5H2,1-2H3/t6-/m1/s1
