18
gdb 103035	2.29891	1.78591	1.21386	5.1436	76.78	-0.2467	0.0124	0.2591	1054.6188	0.149308	-398.040814	-398.032638	-398.031694	-398.073567	31.322	
N	 0.2222300025	 1.4965242765	-0.0436637973	-0.496498
C	-0.0858041075	 0.0734215439	 0.0303536227	-0.259699
C	 0.7655302104	-0.5451958887	 1.1462318417	 0.221095
C	 0.3001897274	 0.0026627382	 2.4259563173	 0.28031
N	-0.1204458475	 0.3923826297	 3.4296094186	-0.351355
C	 1.2041071077	-2.0450468805	 1.1517368392	-0.112841
C	 2.1438514961	-1.6573724731	-0.0072263379	-0.188539
N	 2.3205587313	-0.4642515992	 0.9563093544	-0.171232
C	 2.373950028	-1.5656161654	 2.040308882	-0.188769
H	 1.1950130609	 1.6272373078	-0.3017141861	 0.244984
H	-0.3511568915	 1.9539671824	-0.7430654371	 0.234707
H	-1.1390980658	-0.0419036749	 0.3106581164	 0.127842
H	 0.0478408661	-0.4809222228	-0.9087970853	 0.094031
H	 0.5612728558	-2.9233873038	 1.2662720025	 0.08454
H	 3.061091468	-2.239274181	-0.1147138393	 0.114471
H	 1.7359547611	-1.4052151436	-0.9842490405	 0.111268
H	 2.1602869518	-1.208665856	 3.0477409981	 0.145467
H	 3.299175375	-2.1434768893	 2.0061842706	 0.110219
84.1109	143.2736	174.3333	194.1258	266.4026	379.6261	402.3138	497.5527	533.7914	548.7088	634.4946	662.1635	773.2935	787.511	810.2538	874.6361	903.3457	920.4063	956.2534	1011.77	1047.6018	1065.0629	1078.4102	1091.4652	1136.7168	1168.7618	1191.1619	1198.0383	1225.2907	1228.272	1242.3084	1273.6162	1320.4387	1419.6315	1503.0861	1530.4076	1562.8631	1650.829	2350.1592	2992.2362	3056.6402	3058.8141	3080.781	3091.1153	3153.7745	3157.3301	3508.9328	3596.4751
NCC1(C#N)C2CN1C2	NC[C@@]1(C#N)[C@H]2CN1C2	
InChI=1S/C6H9N3/c7-3-6(4-8)5-1-9(6)2-5/h5H,1-3,7H2	InChI=1S/C6H9N3/c7-3-6(4-8)5-1-9(6)2-5/h5H,1-3,7H2/t6-/m1/s1
