18
gdb 133623	2.84131	1.10155	1.00802	1.9798	64.58	-0.2795	0.0779	0.3574	1225.9486	0.14315	-533.459254	-533.450266	-533.449322	-533.493621	33.576	
C	 0.1832299636	 1.5138479432	-0.1929039035	-0.468617
C	 0.0443458966	 0.0169073314	 0.021722411	 0.378451
C	-1.2651968031	-0.6059684196	-0.4367251074	-0.416232
C	-2.4854562859	-0.2222474279	 0.3822150375	 0.284652
F	-2.7647940493	 1.0915811644	 0.3073020524	-0.08159
F	-3.5731624781	-0.8789840529	-0.0572013352	-0.078085
F	-2.3385445771	-0.5215438447	 1.6827886898	-0.078759
C	 1.2846256165	-0.8313211807	-0.1537701244	-0.322277
C	 0.7202676135	-0.5968412053	 1.2254095107	-0.288622
H	 1.1814743422	 1.8522501241	 0.1000401125	 0.113113
H	 0.0405209206	 1.7748370109	-1.2484097998	 0.114728
H	-0.5487269525	 2.0779097316	 0.3905223043	 0.133115
H	-1.4846896685	-0.3344578031	-1.4755275798	 0.12724
H	-1.2039196477	-1.6976212871	-0.3935939225	 0.125274
H	 1.1799292304	-1.8196388166	-0.589472205	 0.110649
H	 2.2045399203	-0.3249102786	-0.4256523098	 0.113962
H	 1.2584205469	 0.0655154374	 1.8947100363	 0.11485
H	 0.2265080318	-1.4218867067	 1.725429543	 0.118149
37.8086	109.9022	162.3924	228.7102	288.9164	295.3463	317.4242	376.5489	398.4986	437.771	538.0582	538.8865	662.0581	745.2987	781.479	840.1134	873.0199	906.399	947.8992	956.907	979.143	1038.7901	1064.7744	1079.9246	1112.56	1131.3284	1181.8909	1187.1768	1273.4558	1289.5975	1325.0251	1361.8424	1395.8249	1425.4893	1465.5477	1472.7344	1494.891	1503.72	1512.4795	3031.0621	3048.7069	3094.9664	3099.0357	3120.4692	3128.3249	3139.6422	3208.041	3225.7516
CC1(CC(F)(F)F)CC1	CC1(CC(F)(F)F)CC1	
InChI=1S/C6H9F3/c1-5(2-3-5)4-6(7,8)9/h2-4H2,1H3	InChI=1S/C6H9F3/c1-5(2-3-5)4-6(7,8)9/h2-4H2,1H3
