21
gdb 73289	2.78344	1.80482	1.27795	1.8976	82.04	-0.2288	0.0808	0.3096	1052.6868	0.182644	-387.051335	-387.043303	-387.042359	-387.083068	32.935	
C	 0.0176449281	 1.513083259	-0.0141129788	-0.502659
C	 0.0472918537	 0.0051771137	-0.040333243	 0.354237
C	 0.4524336314	-0.7228936503	-1.3200486639	-0.299591
C	 0.3336739161	-2.2043241769	-0.8672381301	-0.299594
C	-0.1157078618	-2.0298485673	 0.5817301299	 0.35424
C	-0.3634623825	-3.2450523253	 1.4403607801	-0.502659
C	 0.610650768	-0.7836354393	 1.1877850872	-0.03074
O	-0.5728025472	-0.4433856343	 1.9908639286	-0.32255
C	-1.0891928183	-0.8077956512	 0.6634501263	-0.03063
H	 1.0051459461	 1.9309967881	-0.2408655064	 0.112846
H	-0.6829705386	 1.9067585261	-0.759363689	 0.11286
H	-0.2907335151	 1.8667411148	 0.9731133125	 0.136078
H	-0.2155768635	-0.4799641966	-2.1532304652	 0.09967
H	 1.4672452202	-0.4561740324	-1.6338546392	 0.099673
H	-0.3992390556	-2.7687575507	-1.4535075855	 0.099671
H	 1.2836825026	-2.7450722531	-0.9344509489	 0.099672
H	 0.5413906986	-3.8572595135	 1.5279226536	 0.112843
H	-0.6752705172	-2.9408088091	 2.4428566696	 0.136079
H	-1.1468377192	-3.8791534809	 1.0096830028	 0.112863
H	 1.5886879574	-0.7142987594	 1.6708801571	 0.078846
H	-2.1708510731	-0.7676793216	 0.5112761523	 0.078844
197.9866	201.0707	244.8416	255.5627	258.4317	320.232	369.5564	388.8453	504.7732	576.3804	684.9484	697.6127	720.3183	734.9954	797.6813	819.8948	886.2134	890.7713	930.707	932.8986	984.6189	998.4989	1072.8406	1075.9847	1086.3539	1093.0441	1153.5895	1159.9657	1203.4496	1207.5985	1233.6564	1251.7627	1264.4655	1270.6722	1298.6472	1355.2574	1367.5276	1404.3381	1412.3768	1484.7559	1493.6921	1493.8459	1500.3843	1502.2608	1510.9805	3028.0953	3028.5626	3037.0324	3046.963	3068.1899	3081.062	3084.5308	3085.2469	3088.6566	3089.1346	3119.5795	3119.9344
CC12CCC3(C)C1OC23	C[C@@]12CC[C@@]3(C)[C@@H]1O[C@@H]23	
InChI=1S/C8H12O/c1-7-3-4-8(2)5(7)9-6(7)8/h5-6H,3-4H2,1-2H3	InChI=1S/C8H12O/c1-7-3-4-8(2)5(7)9-6(7)8/h5-6H,3-4H2,1-2H3/t5-,6+,7-,8+
