16
gdb 69179	2.22121	1.89139	1.2506	4.1759	70.01	-0.235	-0.0331	0.2019	1014.9885	0.122534	-437.826041	-437.817898	-437.816954	-437.858667	30.447	
C	-0.0959043157	 1.5282882673	 0.0636512294	-0.521121
C	 0.1229269061	 0.0535624896	-0.0040929547	 0.340369
O	-0.7652102073	-0.8327937439	 0.6854672367	-0.272827
C	 0.6446620877	-0.9055657004	 1.0071069666	-0.221498
C	 1.2525921927	-1.758837415	-0.1156301939	 0.404235
O	 1.982104048	-2.7010157345	-0.1615604453	-0.297305
C	 0.6723190045	-0.7877194958	-1.1602133529	 0.165951
C	 0.1399806789	-0.9849563164	-2.5232919413	-0.291053
N	 1.4544183766	-0.3505155903	-2.3169834884	-0.357751
H	 0.8154362986	 2.0703726212	-0.2077948169	 0.136887
H	-0.8942547615	 1.8360725732	-0.6210011829	 0.139023
H	-0.3872490541	 1.8210987066	 1.0751454376	 0.149754
H	 0.9375092055	-0.7666109713	 2.0411939941	 0.122767
H	 0.1802360923	-1.9735275631	-2.9711274944	 0.142329
H	-0.7032093548	-0.3710586419	-2.8306327219	 0.121891
H	 1.3793512025	 0.6595938647	-2.4239586718	 0.23835
99.8824	182.2126	186.477	201.4946	221.8225	271.8645	381.4923	463.8004	520.75	598.9441	643.0077	709.9608	755.0952	802.5459	838.4089	886.9211	939.5196	973.8862	984.1359	1009.3888	1030.0873	1039.6881	1097.7432	1122.3635	1190.322	1217.3496	1256.6995	1261.1415	1394.2986	1411.3865	1453.633	1482.7988	1491.8085	1506.0296	1908.7359	3037.04	3099.8813	3108.6725	3128.4359	3193.6613	3199.1782	3483.564
CC12OC1C(=O)C21CN1	C[C@]12O[C@H]1C(=O)[C@]12CN1	
InChI=1S/C6H7NO2/c1-5-4(9-5)3(8)6(5)2-7-6/h4,7H,2H2,1H3	InChI=1S/C6H7NO2/c1-5-4(9-5)3(8)6(5)2-7-6/h4,7H,2H2,1H3/t4-,5-,6-/m0/s1
