17
gdb 69249	2.65505	1.56499	1.18244	4.1362	74.08	-0.2285	-0.0155	0.213	1055.3045	0.135679	-421.841963	-421.834068	-421.833123	-421.874221	30.97	
O	-0.0578015804	 1.3858043405	 0.2025588267	-0.468645
C	 0.041790814	 0.0020535011	 0.0260600392	 0.366614
C	-0.5020560374	-0.5951084561	-1.2430484464	-0.353045
C	-1.2839799582	-0.738993094	 0.0632606742	-0.174298
C	-1.3596898266	-2.0337094517	 0.7924345731	 0.411875
O	-2.4055660604	-2.4520003	 1.2391228967	-0.331104
C	-0.0523361649	-2.8022250638	 0.9896080011	-0.393025
C	 1.1727846654	-1.9310160865	 1.0905641666	-0.074053
C	 1.2016756198	-0.6658233846	 0.675902289	-0.121483
H	 0.564679513	 1.8098083243	-0.3986353539	 0.286929
H	-0.940373346	 0.0846507099	-1.9652381108	 0.128671
H	-0.0093109368	-1.4666306546	-1.6592922443	 0.126706
H	-2.1737349477	-0.1271240232	 0.1478655133	 0.122018
H	-0.1774511929	-3.4323043664	 1.875015518	 0.139711
H	 0.0534282904	-3.5028653341	 0.1456652421	 0.138791
H	 2.063712807	-2.3846148164	 1.5152401123	 0.101939
H	 2.1020668917	-0.0656444444	 0.7749090333	 0.092397
91.5289	149.0048	243.316	267.7322	341.7005	378.1715	439.3032	452.7377	506.3879	541.3125	591.5681	670.4117	701.6903	742.7738	844.5894	895.3425	913.8498	935.4781	968.1274	980.9316	988.4462	1000.611	1056.5253	1092.1121	1177.203	1183.857	1213.0514	1242.4483	1282.2205	1320.5373	1334.9107	1388.0137	1418.2339	1443.207	1472.8278	1718.4165	1795.5037	2990.2468	3085.6917	3135.2791	3157.2263	3178.9456	3196.6126	3231.2543	3796.815
OC12CC1C(=O)CC=C2	O[C@]12C[C@H]1C(=O)CC=C2	
InChI=1S/C7H8O2/c8-6-2-1-3-7(9)4-5(6)7/h1,3,5,9H,2,4H2	InChI=1S/C7H8O2/c8-6-2-1-3-7(9)4-5(6)7/h1,3,5,9H,2,4H2/t5-,7+/m0/s1
