16
gdb 7963	3.36395	1.8964	1.39234	5.3549	60.51	-0.2857	0.0438	0.3295	903.328	0.130583	-420.942375	-420.934816	-420.933871	-420.9743	27.798	
C	 0.0656755189	 1.5186100089	-0.2507272242	-0.406682
C	-0.0210357537	 0.034011881	 0.0755295179	 0.089135
O	 0.5044478555	-0.7300250748	-1.0279705765	-0.251966
C	 1.756163776	-1.1655565306	-0.7304112348	 0.487971
O	 2.494726141	-1.6887800204	-1.5017780056	-0.374005
O	 2.0418321657	-0.915216381	 0.5726695029	-0.25679
C	 0.8489744093	-0.4741024417	 1.2478415563	 0.106239
C	 1.2080371378	 0.5070852214	 2.3460089513	-0.415841
H	 1.1041051127	 1.8373548214	-0.379583354	 0.138484
H	-0.4704278155	 1.7175983606	-1.1818525329	 0.141761
H	-0.3885704432	 2.1185996089	 0.5431551627	 0.125999
H	-1.0638741888	-0.2659859647	 0.206464145	 0.104955
H	 0.3760476274	-1.3627201056	 1.6856993747	 0.101338
H	 1.7220769415	 1.3842970695	 1.9469878892	 0.13764
H	 0.3046435902	 0.8353202929	 2.8693718702	 0.128262
H	 1.8652011152	 0.0246843743	 3.0736638179	 0.1435
94.1652	139.0902	231.5704	261.0339	265.2295	321.6794	417.1684	497.333	549.689	689.269	722.4961	778.0531	783.9132	896.9444	926.3958	994.846	1023.5505	1041.9193	1103.3875	1122.2018	1147.2562	1167.0128	1206.3761	1342.5855	1372.2986	1386.0399	1395.8504	1415.5296	1422.0163	1478.9694	1490.2277	1496.8631	1505.9757	1925.1537	3019.5209	3046.2272	3051.403	3078.335	3120.7962	3124.529	3129.0192	3137.1926
CC1OC(=O)OC1C	C[C@H]1OC(=O)O[C@H]1C	
InChI=1S/C5H8O3/c1-3-4(2)8-5(6)7-3/h3-4H,1-2H3	InChI=1S/C5H8O3/c1-3-4(2)8-5(6)7-3/h3-4H,1-2H3/t3-,4+
