17
gdb 130200	3.01076	1.35569	0.98598	1.8032	74.59	-0.204	0.0265	0.2305	1166.3001	0.139131	-414.175478	-414.167273	-414.166329	-414.20905	30.776	
N	 0.0189452444	 1.3564120967	-0.010043557	-0.589593
C	 0.0416835416	-0.0355783211	 0.0016687452	 0.297987
N	-1.0799848959	-0.7470745803	-0.0198055643	-0.307501
N	-0.6511378585	-2.0344088673	-0.0846433659	-0.194887
C	 0.693871686	-2.1434356758	-0.093461915	-0.119168
C	 1.2035731589	-0.8598546785	-0.031188602	 0.144151
C	 2.6179526548	-0.4231237002	-0.0458797888	-0.144319
C	 3.2526997357	 0.1481151999	 1.1781690052	-0.23869
N	 3.6489354313	-1.1826596661	 0.6871419954	-0.317817
H	 0.7760532308	 1.7702794105	 0.5170468604	 0.24724
H	-0.8760416892	 1.7257863258	 0.28294655	 0.25065
H	-1.3329590433	-2.7712234049	-0.1096111176	 0.273095
H	 1.1896357363	-3.1003434907	-0.1503744919	 0.135581
H	 2.9850237939	-0.0471503551	-1.0001179543	 0.106516
H	 4.0167242262	 0.9149757059	 1.0869127531	 0.118617
H	 2.6491216625	 0.2051462109	 2.0803647763	 0.110193
H	 3.1885195746	-1.8881363096	 1.2581387313	 0.227946
32.944	145.2758	151.5753	271.4029	295.35	329.6748	386.1169	438.0508	516.5609	603.9671	650.9742	694.9737	739.4739	777.4957	801.4782	847.2213	880.0509	943.924	967.1027	1001.8812	1062.9472	1088.1728	1110.8452	1147.037	1177.2616	1203.8421	1236.3464	1259.4784	1301.4238	1325.4782	1409.3634	1432.6806	1491.8203	1504.7423	1539.8629	1622.073	1646.4372	3105.5978	3107.6016	3194.4832	3253.6228	3491.8435	3544.2758	3643.9318	3694.8741
NC1=NNC=C1C1CN1	Nc1n[nH]cc1[C@H]1CN1	
InChI=1S/C5H8N4/c6-5-3(1-8-9-5)4-2-7-4/h1,4,7H,2H2,(H3,6,8,9)	InChI=1S/C5H8N4/c6-5-3(1-8-9-5)4-2-7-4/h1,4,7H,2H2,(H3,6,8,9)/t4-/m1/s1
