13
gdb 18844	4.16967	2.40228	1.97833	2.7532	61.4	-0.2261	-0.0356	0.1905	681.6177	0.097221	-361.43227	-361.426796	-361.425852	-361.461663	22.019	
O	-0.0089042668	 0.0497539774	 0.0151584433	-0.317986
C	-0.0278178686	 1.243350956	 0.0953024353	 0.462057
C	-1.1071553858	 2.2711530905	 0.0154959602	-0.199389
C	-0.7166645847	 3.5573987773	 0.7089483646	-0.053697
C	 0.3134407511	 3.5273480173	 1.795685176	-0.086904
C	 1.3798449038	 2.8725583646	 1.3387550543	-0.08085
C	 1.0529962824	 2.3522051152	-0.0382154304	-0.191532
N	-0.0741793904	 3.253460216	-0.5722883232	-0.12077
H	-2.0935176174	 2.1194635911	-0.4076743854	 0.125525
H	-1.4692627218	 4.340907777	 0.6786247405	 0.108804
H	 0.1694974914	 3.9664435589	 2.7730151205	 0.120148
H	 2.283716613	 2.6204650175	 1.8762345451	 0.126443
H	 1.8685248938	 2.1714358212	-0.7362948209	 0.108149
161.8391	345.1679	434.8108	490.8467	608.3134	682.8975	710.0964	733.5904	787.4162	807.6838	814.9476	867.9614	927.5999	948.237	976.5089	997.1087	1035.0243	1045.6913	1108.6663	1121.7848	1154.7669	1170.3942	1255.5675	1298.2558	1326.6703	1373.225	1657.6243	1886.0444	3139.8017	3148.57	3189.607	3222.0718	3246.1089
O=C1C2C3C=CC1N23	O=C1[C@H]2[C@H]3C=C[C@@H]1N23	
InChI=1S/C6H5NO/c8-6-4-2-1-3-5(6)7(3)4/h1-5H	InChI=1S/C6H5NO/c8-6-4-2-1-3-5(6)7(3)4/h1-5H/t3-,4+,5-,7?/m1/s1
