17
gdb 38641	2.99522	2.14728	1.82898	1.8627	69.75	-0.2418	0.0003	0.2422	812.9786	0.140561	-421.841751	-421.836071	-421.835127	-421.871469	24.778	
C	-0.0313341898	 1.5807941278	-0.0461277319	-0.241192
C	 1.4879047148	 1.8561054975	 0.0113744775	 0.17803
O	 2.007158897	 1.5159840158	 1.2957405079	-0.289628
C	 1.963002928	 0.0642713009	 1.3345716056	 0.050482
C	 0.8196590802	-0.455098909	 2.1740330164	-0.082556
C	-0.2946726021	-0.4900782163	 1.4414749778	-0.084144
C	-0.0304245743	 0.0158741525	 0.0418042086	-0.091376
C	 1.5079325682	-0.2340246175	-0.1241539331	 0.038602
O	 2.0118382398	 0.8677943026	-0.8577565711	-0.240646
H	-0.5726718	 2.0558546464	 0.773571679	 0.111678
H	-0.435606647	 1.9342556117	-0.9984718001	 0.106397
H	 1.8321190174	 2.8513816155	-0.269022565	 0.090697
H	 2.9556086255	-0.2976823557	 1.6119809882	 0.079557
H	 0.9142538567	-0.7102859385	 3.2219966737	 0.102995
H	-1.2783218661	-0.7857559256	 1.7882797824	 0.102689
H	-0.6468711977	-0.4442420063	-0.7318237608	 0.075202
H	 1.8173829694	-1.181734462	-0.5587344652	 0.093212
254.6972	308.579	428.114	519.6695	583.8526	587.7938	657.995	753.9336	776.1503	810.001	826.6789	843.6926	877.3731	884.0873	942.2973	961.9588	967.9305	984.2022	995.0793	1028.3732	1037.1475	1058.9425	1085.2391	1133.7724	1163.4824	1184.8891	1249.6406	1259.7613	1285.3804	1309.7846	1311.5414	1328.6433	1346.0971	1365.8412	1369.6447	1477.0444	1666.69	3066.064	3083.7266	3096.0417	3129.5944	3130.4515	3155.5467	3191.3176	3220.5974
C1C2OC3C=CC1C3O2	C1[C@H]2O[C@H]3C=C[C@@H]1[C@H]3O2	
InChI=1S/C7H8O2/c1-2-5-7-4(1)3-6(8-5)9-7/h1-2,4-7H,3H2	InChI=1S/C7H8O2/c1-2-5-7-4(1)3-6(8-5)9-7/h1-2,4-7H,3H2/t4-,5-,6-,7+/m0/s1
