13
gdb 53777	4.23007	0.73067	0.63962	4.6912	74.87	-0.2635	-0.0943	0.1693	1628.9326	0.086703	-452.73361	-452.724131	-452.723187	-452.769306	31.752	
N	-0.0425338299	 1.3087191242	 0.3063341508	-0.5516
C	 0.0855116978	-0.0371430435	 0.1597317811	 0.308286
N	 1.1210314236	-0.7884943316	 0.1743113935	-0.511425
C	-1.2512959005	-0.7218993741	-0.0312945225	 0.18694
O	-2.2832271076	-0.0896313741	-0.1295727419	-0.306401
C	-1.230831175	-2.1652781375	-0.1017750117	 0.150742
C	-1.3313493007	-3.3698927301	-0.1578394933	 0.050325
C	-1.4141362032	-4.8060326853	-0.2633927061	 0.023135
O	-1.6240052859	-5.5419404449	 0.6710903272	-0.216865
H	 0.7632188898	 1.9076519378	 0.2604824771	 0.260712
H	-0.9521352921	 1.7055396316	 0.1263872388	 0.276638
H	 1.9845956851	-0.256239604	 0.2990154407	 0.215588
H	-1.2662168715	-5.1874113185	-1.2934573637	 0.113925
54.9045	59.1296	93.1898	118.3037	233.3887	246.2773	284.3137	322.4757	381.6931	441.0799	470.2222	532.343	622.4008	637.8856	744.1347	823.253	886.6	973.1175	1015.2269	1080.5453	1132.211	1208.3509	1416.1677	1435.3211	1603.5288	1721.9627	1750.9786	1771.5028	2297.0777	2930.1506	3456.19	3589.3969	3725.0227
NC(=N)C(=O)C#CC=O	NC(=N)C(=O)C#CC=O	
InChI=1S/C5H4N2O2/c6-5(7)4(9)2-1-3-8/h3H,(H3,6,7)	InChI=1S/C5H4N2O2/c6-5(7)4(9)2-1-3-8/h3H,(H3,6,7)
