23
gdb 87142	2.58031	1.23793	1.11979	1.4023	85.39	-0.2429	0.069	0.3119	1261.9392	0.204557	-384.427678	-384.41741	-384.416465	-384.462848	38.695	
C	 0.0570087187	 1.7913095716	 0.7056665538	-0.402164
C	-0.2692126661	 0.3158319031	 0.6688215611	-0.040615
N	 0.3104282103	-0.4912884284	-0.4223454135	-0.380263
C	 0.6914987829	-0.7845384636	 0.9799499812	 0.25053
C	 2.1387795608	-0.4696520654	 1.3185899308	-0.452524
C	 0.2006862877	-2.0857291076	 1.593184466	 0.254299
C	 0.8346456106	-3.3390945945	 1.0131879364	-0.448388
C	-0.1994660546	-2.0875101646	 3.0252454438	-0.26887
N	-1.2131045474	-2.2815438553	 1.9709059041	-0.359808
H	 1.0823909118	 1.9884205497	 0.3893688419	 0.129721
H	-0.6077575577	 2.3385504847	 0.0287433527	 0.122674
H	-0.0816263296	 2.1985026282	 1.7133704941	 0.114562
H	-1.315927148	 0.1172799542	 0.8967141314	 0.069287
H	-0.3738527641	-1.173778778	-0.7426503085	 0.230004
H	 2.4874469699	 0.4134533307	 0.7821136608	 0.126919
H	 2.2596495938	-0.2989254757	 2.3937024518	 0.114706
H	 2.7934487036	-1.2990476476	 1.0349699624	 0.123345
H	 1.9090469226	-3.3803723453	 1.2158443822	 0.119469
H	 0.3660511101	-4.224442613	 1.4483519828	 0.128701
H	 0.6964986488	-3.3824739539	-0.0726678552	 0.119416
H	-0.0065241462	-2.9582524655	 3.6468486371	 0.113814
H	-0.1872281785	-1.1394663986	 3.5574012748	 0.108699
H	-1.7464885395	-1.423677875	 1.8636722882	 0.226483
35.4967	143.656	153.4559	159.3265	193.2436	226.4265	289.3582	300.3191	309.2641	362.7532	446.4846	470.1965	481.0974	523.5377	614.0841	786.7257	791.5772	837.5125	876.3871	917.5983	937.5879	968.8989	980.1803	1025.2412	1033.1338	1067.6106	1080.3112	1088.042	1108.1275	1115.6987	1124.9223	1141.2792	1250.0093	1254.6699	1266.7591	1330.3318	1341.1934	1364.6978	1407.3662	1413.5787	1421.1337	1453.5688	1479.2711	1485.5818	1491.0315	1494.7339	1501.1372	1512.1005	1514.2138	3036.9856	3038.2451	3044.3944	3094.9206	3099.5546	3100.7162	3103.6507	3106.4391	3128.7355	3135.4443	3146.5097	3185.5124	3484.1674	3513.9845
CC1NC1(C)C1(C)CN1	C[C@H]1N[C@]1(C)[C@@]1(C)CN1	
InChI=1S/C7H14N2/c1-5-7(3,9-5)6(2)4-8-6/h5,8-9H,4H2,1-3H3	InChI=1S/C7H14N2/c1-5-7(3,9-5)6(2)4-8-6/h5,8-9H,4H2,1-3H3/t5-,6-,7+/m1/s1
