21
gdb 105032	2.19747	1.12391	1.07947	1.9387	78.56	-0.2511	-0.0314	0.2197	1310.239	0.179025	-424.219719	-424.209285	-424.20834	-424.256307	37.116	
C	-0.2273606041	 1.5853329915	-0.0782461352	-0.400149
C	-0.2364849295	 0.0609941519	-0.2199565833	-0.260451
C	 0.6673048248	-0.4963243789	-1.3115881079	 0.405064
C	 1.0964131135	 0.3185384054	-2.4580086734	-0.229483
O	 1.9874930147	 0.0579727789	-1.3636222743	-0.285338
C	 0.6520786374	-2.0217927518	-1.5103249468	-0.116318
C	 0.9857932152	-2.7984247126	-0.2289341177	-0.433889
C	-0.6904792538	-2.4478944015	-2.0873971035	 0.156526
O	-0.920588227	-2.5515602665	-3.2643922689	-0.248455
H	 0.7977241412	 1.9572770107	-0.0012626892	 0.141545
H	-0.7098243339	 2.0766985926	-0.9283211363	 0.120575
H	-0.7684310096	 1.8850471135	 0.8234373221	 0.11605
H	 0.0742057603	-0.3865216775	 0.7317519463	 0.114436
H	-1.2605777819	-0.2920912684	-0.3998414266	 0.105823
H	 1.347270585	-0.1746103321	-3.3953798235	 0.123572
H	 0.7714117527	 1.3513043474	-2.5512887048	 0.117418
H	 1.4015725831	-2.2362603355	-2.2776315355	 0.10636
H	 0.1889571259	-2.7194438823	 0.5175277332	 0.124342
H	 1.1296843427	-3.860824176	-0.4472846595	 0.126437
H	 1.9086400204	-2.4157112941	 0.2152826696	 0.142775
H	-1.4834056371	-2.6575078845	-1.3306174348	 0.073162
37.4253	43.668	84.3165	190.8824	201.8672	225.1187	247.372	262.7504	302.7256	356.9854	429.0567	447.9951	481.8712	581.5189	682.2859	776.0554	854.0618	875.1016	905.8216	937.1174	969.5298	1010.6876	1041.3701	1088.6055	1099.7281	1129.1853	1142.7279	1147.7491	1165.8992	1226.1968	1266.3265	1308.6932	1325.3265	1386.316	1399.5915	1404.583	1422.7245	1427.3352	1478.5862	1497.4312	1500.1511	1501.3694	1511.627	1534.4141	1829.5952	2847.4045	3022.4157	3039.8769	3045.9556	3057.7766	3071.2663	3100.6249	3108.1025	3112.8114	3120.257	3126.6031	3190.2337
CCC1(CO1)C(C)C=O	CC[C@]1(CO1)[C@@H](C)C=O	
InChI=1S/C7H12O2/c1-3-7(5-9-7)6(2)4-8/h4,6H,3,5H2,1-2H3	InChI=1S/C7H12O2/c1-3-7(5-9-7)6(2)4-8/h4,6H,3,5H2,1-2H3/t6-,7-/m0/s1
