16
gdb 98580	4.36974	0.98137	0.81356	4.1262	68.35	-0.2636	-0.0751	0.1885	1353.7114	0.123804	-475.043494	-475.034798	-475.033854	-475.078165	30.08	
O	 0.1523643487	 1.359535296	-0.0566437934	-0.422905
C	 0.0848567936	-0.0355405603	-0.0390405408	-0.127271
C	-1.3514798415	-0.5044381905	 0.1047299484	 0.275221
O	-2.258952523	 0.2927912015	 0.1874787862	-0.31182
C	-1.5925157741	-1.983019414	 0.1391456024	 0.350157
N	-0.6617194032	-2.8467879927	 0.0538422251	-0.302733
C	-1.3185108387	-4.1613214447	 0.1272534426	-0.19349
C	-2.828807483	-3.8350764436	 0.2748414342	-0.115053
O	-2.8738012615	-2.3862555186	 0.2678881824	-0.240608
H	-0.762800879	 1.66797349	 0.0310379844	 0.29508
H	 0.5007783169	-0.4759946192	-0.9581020478	 0.133475
H	 0.6711819222	-0.4622828439	 0.7891034882	 0.133403
H	-1.0926761974	-4.7351320007	-0.7771920632	 0.132117
H	-0.9189396728	-4.7242557381	 0.9767581009	 0.132114
H	-3.4397374396	-4.196699537	-0.5558499649	 0.131177
H	-3.2634017277	-4.1826974543	 1.2152745753	 0.131134
47.7239	85.3639	104.9952	151.5368	174.0089	322.5589	362.4823	373.1634	490.6505	491.7967	677.5193	753.158	795.9971	823.208	912.2907	959.8067	982.399	1008.5422	1015.3619	1049.5803	1115.0803	1143.6102	1212.3149	1233.7357	1246.6423	1270.992	1308.3113	1355.1329	1402.5549	1451.5121	1479.2544	1494.8083	1525.4766	1703.0316	1794.0405	2997.8025	3014.4991	3049.5071	3066.0108	3079.6323	3116.0839	3701.2969
OCC(=O)C1=NCCO1	OCC(=O)C1=NCCO1	
InChI=1S/C5H7NO3/c7-3-4(8)5-6-1-2-9-5/h7H,1-3H2	InChI=1S/C5H7NO3/c7-3-4(8)5-6-1-2-9-5/h7H,1-3H2
