21
gdb 40698	3.24127	1.15959	0.99268	1.0433	82.5	-0.2161	0.0681	0.2842	1268.7593	0.183237	-383.181284	-383.172559	-383.171615	-383.215732	33.204	
C	-0.5591484097	 1.2865055875	-0.3320005542	-0.265629
C	 0.4380332048	 1.7024291731	 0.7288776821	-0.280014
C	 0.4460262911	 0.2949946829	 0.2104600145	 0.066533
N	 0.1778901059	-0.807822313	 1.1029478809	-0.100865
C	-1.160218914	-1.0430167493	 1.6250760765	-0.274126
C	-0.5720205033	-1.9741270303	 0.6183236737	-0.009186
C	-1.0863822965	-2.0895114439	-0.7889818397	-0.008681
C	-2.2832889498	-2.9256465962	-1.0659616843	-0.24655
N	-2.3285675701	-1.4680215118	-1.2716528056	-0.30527
H	-1.5987773462	 1.2128822238	-0.0363107473	 0.107183
H	-0.4230087443	 1.6349037948	-1.3498279367	 0.115968
H	 1.2548711612	 2.3635134818	 0.4614828826	 0.113414
H	 0.0537918689	 1.8521994215	 1.7326876757	 0.115688
H	 1.2616821091	 0.0430928763	-0.4616233857	 0.096151
H	-1.2159045717	-1.3270576028	 2.673002405	 0.117678
H	-1.9706830647	-0.3939580439	 1.2994077971	 0.105379
H	-0.151702147	-2.9099285638	 0.9875287988	 0.097176
H	-0.3006854281	-2.0847765853	-1.543172622	 0.099752
H	-2.3386093266	-3.5232201099	-1.9713696954	 0.118493
H	-2.8104188493	-3.3444010833	-0.2120428754	 0.112074
H	-2.8250163395	-1.0383019182	-0.4959965806	 0.224831
36.4696	73.898	111.6243	220.1028	258.8142	293.4089	359.8359	474.7187	537.1232	576.5472	682.5639	741.7508	775.3751	816.8926	840.514	869.0529	885.5237	929.0101	944.8821	956.0676	992.3827	1029.1681	1042.4555	1058.359	1075.2201	1099.6115	1118.3385	1135.0934	1142.8846	1151.5817	1158.3259	1174.1894	1193.1249	1198.2211	1231.9848	1254.8376	1301.0366	1345.1536	1391.1301	1399.5395	1417.6433	1461.5815	1499.5518	1510.3292	1514.055	3096.0904	3097.8598	3106.1054	3115.376	3131.6869	3141.437	3146.2272	3174.6469	3192.0566	3212.0068	3228.4764	3509.9671
C1CC1N1CC1C1CN1	C1CC1N1C[C@H]1[C@H]1CN1	
InChI=1S/C7H12N2/c1-2-5(1)9-4-7(9)6-3-8-6/h5-8H,1-4H2	InChI=1S/C7H12N2/c1-2-5(1)9-4-7(9)6-3-8-6/h5-8H,1-4H2/t6-,7+,9?/m1/s1
