17
gdb 53843	3.89936	0.88528	0.76577	0.3432	73.2	-0.2398	-0.0289	0.2109	1472.6867	0.136081	-455.199193	-455.190032	-455.189088	-455.23478	33.075	
N	-0.0111037547	 1.2501049813	 0.0720625229	-0.517202
C	 0.0292052853	-0.0917071871	-0.0114880274	 0.33469
O	 1.0286951285	-0.7855733019	-0.1005264705	-0.381973
C	-1.3899569799	-0.6996249915	 0.0177608063	 0.327953
O	-2.3918333818	-0.0032808933	 0.1068727976	-0.405597
N	-1.3453001356	-2.0406243221	-0.0659265436	-0.319386
C	-2.5065724744	-2.8723266827	-0.0626236693	 0.086118
C	-2.5456914104	-4.1235875807	-0.8987542942	-0.286354
C	-2.4732023706	-4.2184319825	 0.6104210177	-0.286538
H	 0.8371837677	 1.789418405	 0.0646174311	 0.269178
H	-0.9170840878	 1.6878871573	 0.1405577472	 0.283349
H	-0.4127848335	-2.4298551981	-0.1333116093	 0.268348
H	-3.4039336512	-2.2718684047	 0.0180867467	 0.133925
H	-3.4746817877	-4.3763020382	-1.3973492883	 0.126223
H	-1.6534398412	-4.3796795744	-1.4604549687	 0.120518
H	-1.5329543525	-4.5373634498	 1.0479529025	 0.120514
H	-3.3518124302	-4.5370625166	 1.1599661292	 0.126234
20.6366	82.4921	108.0367	125.5166	296.2889	319.6105	335.96	396.4701	411.9969	519.1366	537.2794	627.8107	649.3909	683.9671	761.8511	811.6756	831.795	851.3234	901.8613	939.8559	1000.9558	1061.0599	1073.3327	1099.1327	1139.1305	1193.1501	1196.2629	1228.2343	1252.6241	1357.2259	1402.2926	1464.5525	1501.3381	1570.6469	1585.9675	1774.7109	1804.6236	3132.8136	3136.6917	3202.6762	3213.8398	3229.7556	3574.4179	3587.8401	3736.2965
NC(=O)C(=O)NC1CC1	NC(=O)C(=O)NC1CC1	
InChI=1S/C5H8N2O2/c6-4(8)5(9)7-3-1-2-3/h3H,1-2H2,(H2,6,8)(H,7,9)	InChI=1S/C5H8N2O2/c6-4(8)5(9)7-3-1-2-3/h3H,1-2H2,(H2,6,8)(H,7,9)
