20
gdb 86563	2.31888	1.37313	1.07101	11.7327	76.15	-0.1751	0.0067	0.1817	1204.98	0.171469	-440.258389	-440.249205	-440.248261	-440.292999	33.959	
C	 0.3544941666	 1.7686727645	 0.1825412916	-0.43923
C	 0.1229038927	 0.3019719004	-0.1144097741	 0.06653
C	 1.1455436036	-0.4483480784	-1.0040168468	-0.145899
C	 1.6600492205	-1.168753327	 0.2562542364	-0.182956
N	 0.5034410391	-0.5997670336	 1.0890720996	-0.094467
H	 0.8240118791	-0.0523036195	 1.8857191766	 0.274735
C	-0.528587255	-1.5817011784	 1.5256519613	-0.378021
C	 0.408620323	-1.445642478	-1.9913079503	 0.347928
O	 0.6366098503	-1.2897101739	-3.1881825541	-0.444629
O	-0.3368044363	-2.2543596803	-1.3745834774	-0.491976
H	 1.3881677456	 1.9668444728	 0.4873656964	 0.126994
H	 0.1675780892	 2.3410610725	-0.7304142023	 0.169581
H	-0.3244101652	 2.1437914753	 0.9572549381	 0.126416
H	-0.9147135749	 0.0906113746	-0.3751624496	 0.142836
H	 1.8649423417	 0.1902960635	-1.5149565545	 0.087378
H	 1.5893765664	-2.254504573	 0.2182492606	 0.172402
H	 2.6104869638	-0.8366854795	 0.6779786655	 0.125229
H	-0.0900549138	-2.2355921641	 2.2828132407	 0.145089
H	-1.3739074361	-1.0334001607	 1.9478401821	 0.144003
H	-0.8050027803	-2.1337032472	 0.6194385301	 0.248056
28.5474	122.552	190.4421	202.9992	243.2817	274.8667	291.1618	321.9898	363.3946	411.7054	471.706	652.7885	710.0267	757.0718	798.3335	813.1934	852.321	912.585	941.6154	1021.9368	1027.9653	1041.1268	1074.5526	1099.2186	1119.8233	1185.6633	1226.3242	1241.7409	1265.7225	1275.3951	1288.7162	1322.9271	1354.294	1355.7639	1405.0473	1412.4503	1434.9227	1472.8736	1485.8856	1490.1902	1492.7643	1532.8538	1786.2726	3014.377	3027.0403	3082.3772	3090.5611	3115.3357	3121.297	3122.9898	3124.0458	3143.4974	3168.6022	3480.8824
CC1C(C[NH+]1C)C([O-])=O	C[C@H]1[C@@H](C[NH]1C)C(=O)[O]	
InChI=1S/C6H11NO2/c1-4-5(6(8)9)3-7(4)2/h4-5H,3H2,1-2H3,(H,8,9)	InChI=1S/C6H11NO2/c1-4-5(6(8)9)3-7(4)2/h4-5,7H,3H2,1-2H3/t4-,5+/m0/s1
