14
gdb 44996	3.77533	1.27368	1.07977	4.4736	68.76	-0.2513	0.0167	0.2679	1075.1992	0.100433	-436.678372	-436.670808	-436.669864	-436.710416	29.077	
O	 0.0595190084	-0.0162180708	 0.0781885154	-0.377395
C	 0.0000944239	 1.1749387358	-0.0092231266	 0.473028
N	-1.1155089345	 1.976816899	-0.1005507091	-0.429798
C	-0.8063561384	 3.3758651397	-0.0557107664	 0.131611
C	-0.044646502	 3.8401366715	 1.1909948645	-0.351442
C	 0.7134727871	 3.3421663779	-0.0033338388	 0.050908
O	 1.1127795749	 1.9957288384	-0.0262516157	-0.23711
C	-1.5851654964	 4.2756681536	-0.8489080238	 0.241436
C	-2.2562492933	 5.0391925054	-1.4906194806	-0.39282
H	-2.0249320907	 1.5967821403	 0.1005627965	 0.272153
H	-0.0151905695	 4.9093400748	 1.3661193301	 0.140958
H	-0.1010788908	 3.2128429677	 2.0737709338	 0.137885
H	 1.3418103757	 3.9900134308	-0.5995794882	 0.138917
H	-2.8437727243	 5.708515856	-2.069416731	 0.201669
101.5585	146.139	182.8828	329.0275	388.3776	447.9063	461.1665	483.2913	549.6572	591.4769	606.6361	684.9647	695.732	763.9615	793.0341	848.2212	895.4035	924.8009	963.5534	1031.3017	1041.5703	1090.3067	1156.6675	1210.1132	1260.3989	1280.3753	1374.9317	1410.7203	1459.652	1904.8511	2242.8199	3138.8647	3211.6484	3240.311	3500.6462	3671.9227
O=C1NC2(CC2O1)C#C	O=C1N[C@]2(C[C@H]2O1)C#C	
InChI=1S/C6H5NO2/c1-2-6-3-4(6)9-5(8)7-6/h1,4H,3H2,(H,7,8)	InChI=1S/C6H5NO2/c1-2-6-3-4(6)9-5(8)7-6/h1,4H,3H2,(H,7,8)/t4-,6+/m1/s1
