21
gdb 120313	3.26792	0.95037	0.84644	1.9258	80.2	-0.2316	0.0761	0.3078	1468.6061	0.18078	-424.16835	-424.158725	-424.15778	-424.203388	34.84	
C	 0.169850754	 1.3571802669	-0.1176497397	-0.223595
O	 0.2124314795	-0.0472772177	-0.06632455	-0.232636
C	 0.5332175026	-0.5368211864	 1.2218520223	-0.090795
C	 0.5778652526	-2.0399459585	 1.1475419102	-0.100477
C	 1.8280732597	-2.8132690009	 0.8479180535	 0.054786
O	 2.9808332251	-2.1640198411	 1.3941826632	-0.286149
C	 2.4659662497	-2.3628889261	 2.736323926	-0.13512
C	 1.1638329123	-2.9648785039	 2.2043412298	 0.230221
C	 0.4088580578	-4.0877767415	 2.8534325376	-0.49853
H	 1.1406693469	 1.8069198555	 0.1455658491	 0.104593
H	-0.0832426454	 1.6407280713	-1.1423612066	 0.124739
H	-0.592480836	 1.7707740487	 0.5629470905	 0.09886
H	 1.5067819918	-0.1418660065	 1.5480706875	 0.102326
H	-0.225255097	-0.2055173654	 1.9527102299	 0.0795
H	-0.3054294989	-2.4732789635	 0.6818424807	 0.094348
H	 1.9763375984	-3.4859889947	 0.0104886553	 0.101799
H	 3.0784951535	-3.0976958373	 3.2733601104	 0.105456
H	 2.4204761257	-1.432571416	 3.3149087372	 0.102684
H	-0.1682041092	-3.7358886134	 3.7173173845	 0.122845
H	-0.2980062742	-4.5446825049	 2.1537287061	 0.124472
H	 1.0879521914	-4.8732992545	 3.2041217826	 0.120672
57.3435	82.7644	128.1546	189.2738	207.3571	232.2115	255.6838	294.1905	315.5009	406.0367	467.9105	607.7668	642.8577	771.959	819.2148	916.4344	933.3176	953.1864	984.1474	994.8006	1009.3493	1015.3668	1072.7051	1089.3374	1130.386	1142.5406	1159.0845	1171.7519	1184.5065	1227.5168	1242.8698	1255.3829	1291.9153	1300.8102	1350.2925	1415.8659	1420.3857	1476.0613	1483.9226	1485.6927	1489.3712	1498.8547	1500.8027	1517.4256	1526.6013	2948.2247	2965.4955	3006.0818	3011.1776	3016.161	3022.2872	3063.2165	3078.9979	3099.4222	3110.5826	3135.6684	3177.1972
COCC1C2OCC12C	COC[C@H]1[C@H]2OC[C@@]12C	
InChI=1S/C7H12O2/c1-7-4-9-6(7)5(7)3-8-2/h5-6H,3-4H2,1-2H3	InChI=1S/C7H12O2/c1-7-4-9-6(7)5(7)3-8-2/h5-6H,3-4H2,1-2H3/t5-,6+,7-/m0/s1
