20
gdb 90350	3.08172	1.42109	1.12064	3.7027	79.83	-0.2379	0.0318	0.2697	1143.2742	0.17334	-403.158969	-403.151042	-403.150097	-403.191281	31.122	
C	-0.3439093577	 1.4646568098	-0.2185876509	-0.394933
C	 0.0226898348	 0.0117855247	-0.0079873896	 0.078915
O	 1.2477863495	-0.3445734	-0.7652012543	-0.284155
C	 1.9411102618	-0.4784431321	 0.4119588538	 0.441236
N	 3.1761327469	-0.4119905851	 0.611250787	-0.308505
C	 3.5454909646	-0.2865226528	 2.0298278873	-0.146738
C	 2.3911301435	-0.2357800697	 3.0714010082	-0.212017
C	 1.0975751761	 0.4232101833	 2.534357414	-0.247484
C	 0.7381499488	-0.4107779313	 1.308571929	-0.14488
H	 0.4815618116	 2.1268830172	 0.0566795377	 0.13279
H	-0.5883659016	 1.6442791224	-1.2694436651	 0.135814
H	-1.2186951962	 1.7250536576	 0.3865851785	 0.122752
H	-0.7932030544	-0.6525093029	-0.3060883004	 0.091308
H	 4.230929073	-1.1011305965	 2.2913897869	 0.110326
H	 4.1401059262	 0.6337163859	 2.1020143949	 0.111339
H	 2.1413340145	-1.2552714489	 3.3907642557	 0.103279
H	 2.7490031806	 0.2888112347	 3.963163184	 0.100172
H	 0.3148861821	 0.4235715645	 3.2990439189	 0.099518
H	 1.2878879489	 1.465615875	 2.2545959974	 0.107641
H	 0.399140737	-1.4049261559	 1.6164612867	 0.103621
92.707	177.0824	232.0964	236.855	266.7339	364.7833	414.1032	461.5417	500.8978	567.5351	660.958	737.936	785.2584	817.7792	850.5099	874.5029	884.6939	950.0223	994.698	1029.114	1052.9196	1063.1032	1096.3747	1145.8865	1152.0978	1176.4007	1183.1539	1227.0715	1237.7171	1285.7685	1321.7893	1343.3776	1363.8194	1370.1548	1374.0386	1385.8203	1413.3855	1482.6793	1486.5335	1490.853	1497.0075	1503.7833	1826.5085	3017.8117	3025.8478	3037.9429	3042.1253	3051.9425	3054.5193	3072.3108	3079.0054	3088.8566	3113.0657	3124.1736
CC1OC2=NCCCC12	C[C@H]1O[C]2[N]CCC[C@@H]12	
InChI=1S/C7H11NO/c1-5-6-3-2-4-8-7(6)9-5/h5-6H,2-4H2,1H3	InChI=1S/C7H11NO/c1-5-6-3-2-4-8-7(6)9-5/h5-6H,2-4H2,1H3/t5-,6+/m1/s1
