15
gdb 124319	4.76213	1.00158	0.98422	4.5654	67.47	-0.2693	-0.0347	0.2346	1227.3518	0.112304	-450.126254	-450.117916	-450.116972	-450.161037	28.293	
C	 0.0382495409	 1.4953313483	-0.0281280652	-0.483473
C	 0.0084452517	-0.0137929029	 0.0890123644	 0.38742
O	-0.0269989848	-0.6045230448	 1.1354569073	-0.260726
C	 0.024805546	-0.7650814928	-1.2569083348	-0.266777
N	 0.0568136791	-2.1953802683	-1.08480909	 0.175895
N	 1.1677217588	-2.8722509367	-0.8213229363	-0.24407
C	 0.6879563087	-4.098415455	-0.6637027169	 0.083697
N	-0.6544317496	-4.1610353588	-0.8214014387	-0.20628
N	-1.0438886431	-2.9401993306	-1.083001031	-0.122576
H	 0.9710442002	 1.8183120323	-0.5046739546	 0.150359
H	-0.784027675	 1.851343247	-0.6587594855	 0.146937
H	-0.0370852356	 1.9408448224	 0.9638625393	 0.158322
H	-0.8765935677	-0.5189231151	-1.8247429926	 0.170211
H	 0.895667709	-0.4621423076	-1.8445560793	 0.162072
H	 1.3067302013	-4.9520255975	-0.4407098261	 0.148988
42.5675	58.2445	94.2481	104.7983	285.1008	337.7317	346.7514	466.0657	569.8228	702.0747	727.2441	800.7495	809.7408	844.5818	902.3182	975.938	1027.8916	1046.7055	1051.4356	1154.1426	1167.4662	1182.3973	1255.343	1319.637	1349.5971	1360.4533	1385.9549	1423.2797	1439.3224	1463.1636	1474.8431	1496.5074	1843.152	3037.458	3073.8196	3098.0499	3127.1855	3159.6996	3290.4089
CC(=O)CN1N=CN=N1	CC(=O)Cn1ncnn1	
InChI=1S/C4H6N4O/c1-4(9)2-8-6-3-5-7-8/h3H,2H2,1H3	InChI=1S/C4H6N4O/c1-4(9)2-8-6-3-5-7-8/h3H,2H2,1H3
