20
gdb 40188	3.29105	1.42646	1.20079	2.4425	78.21	-0.2203	0.0822	0.3024	1086.2913	0.172906	-403.10813	-403.100539	-403.099595	-403.140086	30.63	
C	 0.0325989876	 1.4974625967	 0.0083596815	-0.244989
O	 1.2208455517	 0.7063965099	 0.0725643136	-0.27716
C	-0.0533730806	 0.0336918386	 0.016968478	 0.426032
C	-0.3894886694	-0.7361265587	 1.2745076047	-0.301527
C	 0.4243241809	-2.0388464392	 1.2771061493	-0.226316
C	 0.282003332	-2.8189670898	-0.0181033204	 0.011332
C	-1.0455890314	-3.0320714719	-0.6541071257	-0.248877
N	-0.0639285643	-2.1485369926	-1.2803255233	-0.093637
C	-0.3382255003	-0.7025179362	-1.2837147126	-0.222005
H	-0.2105465876	 2.0576294302	 0.9111013286	 0.108762
H	-0.1148927184	 2.0433299599	-0.92382931	 0.110548
H	-0.1444087707	-0.1345562921	 2.1543147732	 0.106591
H	-1.4660218708	-0.9428154338	 1.3108470836	 0.102573
H	 1.4801994636	-1.7772319987	 1.412208903	 0.123926
H	 0.1442244284	-2.6750757756	 2.124597314	 0.101772
H	 1.0310998215	-3.5993641966	-0.1454233946	 0.089485
H	-1.2619831776	-3.950950969	-1.1941266222	 0.109852
H	-1.9156038596	-2.5817665971	-0.1779989783	 0.101955
H	-1.3884407487	-0.5507637514	-1.5646394642	 0.104371
H	 0.2772534337	-0.2418226828	-2.0640570482	 0.117314
81.1788	179.2056	289.8791	305.3842	334.2403	394.2001	411.8236	486.8807	517.7269	612.944	725.4793	746.6347	780.9138	817.0857	895.1588	899.0068	942.0817	958.6834	973.7049	987.8562	1031.6481	1075.2539	1096.5088	1113.8013	1117.6236	1130.7673	1163.021	1169.4318	1196.678	1241.4481	1261.781	1298.7809	1330.3303	1335.8869	1353.3905	1375.9983	1417.8567	1436.9447	1478.9287	1482.4152	1490.9818	1517.9485	1531.6617	3019.2208	3033.0349	3035.2316	3066.3955	3070.2411	3072.9457	3086.8591	3091.9157	3109.3671	3155.7408	3166.8542
C1OC11CCC2CN2C1	C1O[C@]21CC[C@H]1CN1C2	
InChI=1S/C7H11NO/c1-2-7(5-9-7)4-8-3-6(1)8/h6H,1-5H2	InChI=1S/C7H11NO/c1-2-7(5-9-7)4-8-3-6(1)8/h6H,1-5H2/t6-,7+,8?/m0/s1
