21
gdb 90893	2.37951	1.99157	1.42878	1.5815	80.44	-0.2216	0.0808	0.3024	1009.0204	0.183136	-387.072279	-387.064294	-387.063349	-387.104111	32.673	
C	-0.0963138553	 1.5454967578	 0.0300934718	-0.417521
C	 0.0199786736	 0.0223890452	-0.0164628926	 0.019902
C	 0.8705862596	-0.5076083346	-1.2097757425	-0.252547
C	 1.6456903133	-1.6907159776	-0.6347942525	-0.092031
C	 2.5002960463	-1.3967697957	 0.5823423256	 0.096215
O	 2.1361100038	-0.1438693279	 1.1591722397	-0.343639
C	 0.7263506098	-0.599869912	 1.2011683822	 0.424247
C	 0.1226566563	-0.3939456257	 2.5666434108	-0.488576
C	 1.1560303327	-2.0219148202	 0.7618238788	-0.210965
H	 0.8924246243	 1.9921315742	 0.1728541224	 0.13468
H	-0.5158471006	 1.9341935223	-0.9033170696	 0.11062
H	-0.7452280032	 1.8797287115	 0.8462390744	 0.109158
H	-0.984354694	-0.4204888065	-0.0707648791	 0.066062
H	 0.2386604355	-0.8147140265	-2.0483062448	 0.095792
H	 1.547166633	 0.270669087	-1.5786840689	 0.105049
H	 1.9758683164	-2.5002461195	-1.2768354755	 0.084409
H	 3.5091686727	-1.7587268711	 0.7441761432	 0.097189
H	 0.0961336972	 0.6700098755	 2.8207094797	 0.130137
H	-0.90216329	-0.7802469435	 2.595302526	 0.115934
H	 0.7119051001	-0.9104921941	 3.3287834052	 0.126321
H	 0.8272796886	-2.9758316085	 1.1509303656	 0.089564
128.7561	213.0244	233.9496	259.8784	291.9245	320.7303	363.2682	492.637	510.773	573.7007	645.7989	735.4392	760.9283	802.3838	829.4168	835.5402	861.2574	901.369	931.0192	957.2648	1010.5766	1018.3681	1027.303	1042.6622	1049.4214	1080.8662	1106.6081	1130.9514	1147.3449	1196.5337	1211.7054	1230.3039	1287.0932	1302.9215	1306.232	1343.5116	1359.384	1400.7158	1402.7345	1411.9631	1481.0904	1488.6229	1494.0414	1501.6698	1505.5723	3006.4486	3033.8062	3037.7925	3045.0847	3085.8299	3097.5457	3107.2931	3113.4852	3119.4389	3170.8561	3178.7388	3203.9648
CC1CC2C3OC1(C)C23	C[C@H]1C[C@H]2[C@H]3O[C@]1(C)[C@@H]23	
InChI=1S/C8H12O/c1-4-3-5-6-7(5)9-8(4,6)2/h4-7H,3H2,1-2H3	InChI=1S/C8H12O/c1-4-3-5-6-7(5)9-8(4,6)2/h4-7H,3H2,1-2H3/t4-,5+,6-,7+,8-/m0/s1
