21
gdb 87967	2.54335	1.40202	1.11499	2.4547	78.83	-0.2378	0.0747	0.3125	1178.7283	0.182247	-424.216069	-424.206987	-424.206043	-424.250353	34.601	
C	 0.82709761	 1.3322993364	-0.4251274292	-0.391486
C	 0.0454712969	 0.1028954923	 0.023581548	 0.150895
C	-0.0752046828	-0.9913082379	-1.0660963008	-0.334135
C	 0.967025901	-2.0048751921	-0.6274541279	 0.324093
C	 1.2390442079	-3.2970601899	-1.3550653511	-0.409569
C	 2.2518038739	-2.172665026	-1.3840360409	 0.061093
O	 2.4091528454	-1.4073847169	-2.5429080773	-0.418063
C	 0.969322444	-1.8766739586	 0.8808295669	-0.136502
O	 0.7360812803	-0.5005390591	 1.1347934281	-0.276032
H	 1.7789694363	 1.0374122152	-0.8778375968	 0.13195
H	 0.2548366053	 1.9029352545	-1.1644729037	 0.106545
H	 1.0327106156	 1.9827390099	 0.429766181	 0.119332
H	-0.9506635696	 0.4102989756	 0.370506512	 0.066454
H	-1.0733325186	-1.4425288708	-1.0577375584	 0.097923
H	 0.1198519328	-0.6043433069	-2.067516714	 0.123343
H	 1.4675435436	-4.1887752935	-0.7787240731	 0.111263
H	 0.6803857891	-3.4767899551	-2.2683830149	 0.113881
H	 3.1616513153	-2.3001875237	-0.7957826831	 0.086517
H	 2.8675040257	-1.9430967709	-3.1985743677	 0.290033
H	 0.1748271723	-2.5003896843	 1.3260923027	 0.083057
H	 1.9208468456	-2.1609542184	 1.3445611302	 0.099408
34.6609	95.3378	191.9296	230.521	264.3592	281.3461	330.6326	366.7274	416.6988	442.0168	502.6451	530.9297	706.6524	793.864	810.8476	824.4407	879.1714	905.6563	917.6839	950.0239	1011.0735	1032.1008	1039.4762	1054.6138	1085.4686	1101.74	1128.1822	1143.9812	1174.7055	1213.1973	1224.8172	1261.9677	1290.027	1307.1892	1336.6823	1344.7914	1382.9884	1396.0767	1409.8344	1430.2508	1487.213	1492.4868	1494.533	1498.3539	1523.1979	2951.027	2999.1507	3035.1089	3047.1938	3053.045	3089.4904	3107.5028	3117.9017	3118.8153	3122.8886	3207.1636	3806.9128
CC1CC2(CC2O)CO1	C[C@H]1C[C@]2(C[C@H]2O)CO1	
InChI=1S/C7H12O2/c1-5-2-7(4-9-5)3-6(7)8/h5-6,8H,2-4H2,1H3	InChI=1S/C7H12O2/c1-5-2-7(4-9-5)3-6(7)8/h5-6,8H,2-4H2,1H3/t5-,6+,7-/m0/s1
