21
gdb 92330	2.05542	1.92518	1.23076	1.0971	76.98	-0.2427	0.0579	0.3006	1084.4911	0.183644	-424.21511	-424.206616	-424.205672	-424.248137	33.269	
C	-0.845177649	 1.2928504386	-0.0942427898	-0.395352
C	-0.0461785715	-0.0042247085	-0.0700156502	 0.037716
C	 1.2640976438	-0.071483289	-0.9104478686	-0.272761
C	 2.0110523291	-0.6953902189	 0.3001754635	 0.125114
O	 3.0852080059	 0.069228643	 0.833624048	-0.255693
C	 2.5144826041	 1.1306958946	 1.5783950354	-0.13495
C	 1.2579431057	 0.5304522873	 2.2448926373	 0.096421
O	 0.2752161845	 1.4811661248	 2.612068284	-0.425437
C	 0.752878666	-0.47615755	 1.1977099052	-0.092956
H	-0.227903237	 2.1587073272	 0.1559286541	 0.1183
H	-1.2637624981	 1.448562173	-1.0956978882	 0.10084
H	-1.6715902592	 1.2688879003	 0.6215753886	 0.120332
H	-0.7120806078	-0.8240040794	-0.3599773115	 0.072921
H	 1.2286917267	-0.6813468723	-1.8164144005	 0.096422
H	 1.6674007992	 0.9109615108	-1.1741189716	 0.104362
H	 2.3742746549	-1.7148499407	 0.157722962	 0.076728
H	 3.267182467	 1.4846051298	 2.2897017481	 0.099218
H	 2.2163248306	 1.9770243766	 0.9389593369	 0.096334
H	 1.5770839427	-0.046471585	 3.1260351077	 0.076026
H	 0.6146459193	 1.9907861976	 3.3541883637	 0.286714
H	 0.3269039231	-1.3562248199	 1.681759436	 0.0697
57.2221	191.995	209.8942	248.36	254.0654	297.2512	348.2814	400.5039	431.4884	526.8907	594.5632	650.1753	706.1155	747.2334	835.7329	899.4577	905.2089	924.9306	940.5694	987.0452	1025.9447	1043.0278	1068.7609	1100.04	1125.6513	1149.7165	1154.9188	1167.7633	1222.6746	1229.0572	1245.1005	1254.4488	1266.8966	1293.6568	1328.6102	1336.2869	1359.1317	1373.447	1377.3581	1416.2072	1437.7524	1476.3885	1490.6988	1491.0862	1519.1278	2973.7069	2986.2457	3031.0107	3038.0158	3053.9299	3078.1761	3084.8203	3095.4413	3100.8004	3110.7485	3125.4384	3821.2965
CC1CC2OCC(O)C12	C[C@H]1C[C@H]2OC[C@@H](O)[C@@H]12	
InChI=1S/C7H12O2/c1-4-2-6-7(4)5(8)3-9-6/h4-8H,2-3H2,1H3	InChI=1S/C7H12O2/c1-4-2-6-7(4)5(8)3-9-6/h4-8H,2-3H2,1H3/t4-,5+,6+,7+/m0/s1
