20
gdb 59318	2.79233	1.15481	0.88999	4.0492	76.09	-0.2433	0.0345	0.2778	1325.3965	0.169081	-440.311954	-440.301911	-440.300967	-440.346971	36.614	
C	-0.0158356897	 1.5670426027	-0.1354655054	-0.416358
C	 0.0455793673	 0.0602567888	 0.1127918928	 0.131017
O	 0.6660755968	-0.243255442	 1.358929611	-0.426267
C	-1.336417852	-0.5933211574	 0.0509240029	 0.025003
N	-2.0015876067	-0.5571955578	-1.2579424928	-0.344183
C	-2.1729333263	-1.9206706779	-1.3696096888	 0.432477
O	-2.704670933	-2.6071682557	-2.2000048815	-0.363635
C	-1.4336063436	-2.1584468547	-0.0290581759	-0.172689
C	-0.1694243378	-3.0073773511	-0.0803411598	-0.406818
H	 0.9824488	 2.0044197983	-0.0512999155	 0.132384
H	-0.4056119922	 1.788941462	-1.1339876457	 0.119976
H	-0.6688167	 2.0576998705	 0.5981324529	 0.107212
H	 0.6891803967	-0.3998771666	-0.6439200571	 0.096599
H	 0.1855517276	 0.2252854207	 2.0509084892	 0.279692
H	-1.9581354899	-0.1753847323	 0.8575568203	 0.066821
H	-2.4362404512	 0.1990623736	-1.7668615551	 0.246538
H	-2.1233120892	-2.5515971584	 0.7240127562	 0.101678
H	 0.497545475	-2.6970735102	-0.8899823611	 0.123196
H	 0.3836983704	-2.9397735865	 0.8594499345	 0.137208
H	-0.4371565123	-4.052434436	-0.2601424611	 0.130152
64.7482	87.3345	145.6308	187.6357	209.1126	237.3798	257.9752	282.0329	329.5434	370.8275	404.6309	475.6953	499.2828	568.4592	695.2638	756.0007	806.2185	848.4801	890.5371	961.6839	1009.9965	1027.5424	1069.1113	1077.1956	1101.3036	1155.1948	1167.5179	1183.984	1205.2378	1262.1129	1282.7307	1331.3856	1347.4677	1375.5588	1400.6756	1408.8668	1411.1432	1414.2338	1489.9918	1492.6646	1494.9074	1501.3977	1892.0957	2981.5508	3021.8269	3045.1088	3064.7312	3068.3323	3095.8531	3113.5481	3120.6311	3129.0387	3600.7561	3795.9057
CC(O)C1NC(=O)C1C	C[C@@H](O)[C@H]1NC(=O)[C@H]1C	
InChI=1S/C6H11NO2/c1-3-5(4(2)8)7-6(3)9/h3-5,8H,1-2H3,(H,7,9)	InChI=1S/C6H11NO2/c1-3-5(4(2)8)7-6(3)9/h3-5,8H,1-2H3,(H,7,9)/t3-,4+,5-/m0/s1
