23
gdb 119175	2.27157	1.07487	0.83713	1.3078	85.84	-0.2444	0.0784	0.3228	1473.8796	0.205221	-388.251986	-388.242112	-388.241167	-388.287169	37.332	
O	-0.1045345945	 1.5030029255	 0.1719494756	-0.420625
C	 0.0412437592	 0.1186401071	-0.1157376898	-0.10134
C	-1.3011505077	-0.5380351048	 0.1904482786	-0.268141
C	-1.3676495991	-2.0574370644	 0.0766768325	 0.363688
C	-0.3239954504	-2.825966684	-0.7102533841	-0.305407
C	-0.3338831047	-2.8953807937	 0.7981028831	-0.307898
C	-2.7559127165	-2.6518316729	 0.038667851	-0.033669
C	-3.9599587896	-2.0056706297	 0.6792041922	-0.280603
C	-3.8703358116	-2.111698659	-0.8246587175	-0.281916
H	 0.722011916	 1.9425635312	-0.0471832727	 0.284892
H	 0.306601303	-0.0362413905	-1.1723824681	 0.090139
H	 0.8438888075	-0.3247359562	 0.4943578953	 0.088261
H	-1.5855197699	-0.2379275067	 1.2063467348	 0.113889
H	-2.0361318856	-0.0791819526	-0.4812831161	 0.108678
H	-0.6566491398	-3.6960813043	-1.2666787073	 0.106653
H	 0.4859243739	-2.2878575164	-1.188936097	 0.107677
H	 0.4626146812	-2.3918793171	 1.3355704521	 0.108137
H	-0.6670479777	-3.8135812865	 1.2707750947	 0.10789
H	-2.7356012243	-3.7370026392	 0.1095523028	 0.07446
H	-4.6644704772	-2.6408267811	 1.2050288913	 0.106859
H	-3.8445203277	-1.0206945558	 1.1169617164	 0.116393
H	-3.6995218739	-1.1987004712	-1.3845071787	 0.114666
H	-4.5093975706	-2.8245968077	-1.334314549	 0.107319
69.7541	78.292	100.4387	153.2548	244.4866	254.0526	267.8343	334.444	345.5584	407.9495	459.6036	499.1931	690.1853	781.0728	785.3258	792.1543	821.6685	853.5316	888.4962	904.553	961.5814	975.6284	999.6222	1024.0231	1055.8865	1060.5838	1072.5383	1076.2961	1078.103	1100.1272	1127.2936	1143.1697	1187.0823	1198.3646	1216.6279	1239.8768	1245.5404	1282.2569	1317.5055	1325.8092	1379.8719	1422.9276	1463.0003	1468.749	1472.497	1495.7735	1506.3664	1512.0585	1531.4213	2971.1241	2999.7701	3028.6228	3068.0028	3122.6049	3127.0288	3132.4489	3134.3266	3138.2316	3203.3402	3208.9089	3219.2934	3224.1022	3831.1826
OCCC1(CC1)C1CC1	OCCC1(CC1)C1CC1	
InChI=1S/C8H14O/c9-6-5-8(3-4-8)7-1-2-7/h7,9H,1-6H2	InChI=1S/C8H14O/c9-6-5-8(3-4-8)7-1-2-7/h7,9H,1-6H2
