19
gdb 36957	3.81218	0.98689	0.8703	2.6787	78.38	-0.2352	0.0205	0.2557	1373.6464	0.16046	-419.1685	-419.159935	-419.158991	-419.202725	31.202	
C	-0.1516172908	 1.4457231189	-0.233293324	-0.211677
N	-0.1710983824	-0.0190864562	-0.1776276435	-0.324986
C	-0.3040324431	-0.565037737	 0.9376542705	 0.477519
C	-0.364363335	-1.9887970008	 1.4475429989	-0.372861
C	-0.5339035542	-1.3159615214	 2.8250347327	-0.078076
O	-0.4592980849	 0.0030380364	 2.2006719625	-0.269359
C	 1.259487345	 1.9825316225	-0.1166855741	 0.040883
C	 1.4967981911	 3.2987824206	 0.5240886196	-0.245024
N	 1.911169609	 2.0567145179	 1.2002743243	-0.318853
H	-0.5740605913	 1.7442339321	-1.1994207546	 0.108007
H	-0.7736284496	 1.8933953887	 0.5550133614	 0.100546
H	-1.2153547754	-2.5687839087	 1.0870550546	 0.140676
H	 0.553418131	-2.5614294248	 1.3053786594	 0.144675
H	-1.4974122862	-1.4589112329	 3.319791312	 0.125075
H	 0.2830810112	-1.4555416902	 3.5364404014	 0.128552
H	 1.9288942057	 1.6612092114	-0.9120641583	 0.095479
H	 2.3117846472	 3.9330999302	 0.1865730669	 0.11477
H	 0.634700051	 3.8401106136	 0.9070119246	 0.107637
H	 1.2363343618	 1.8111703797	 1.9217230056	 0.237019
59.5609	82.0348	114.5869	162.1788	217.989	290.8021	373.1835	434.6415	541.3373	609.5871	736.7036	790.306	797.8789	836.5252	901.8924	931.738	947.6342	956.032	997.3403	1011.5853	1056.1442	1059.7298	1070.0405	1114.5381	1132.1672	1159.0414	1160.6719	1201.0394	1218.8945	1243.1841	1258.464	1281.2824	1323.861	1347.4342	1351.141	1422.8246	1467.1205	1496.4817	1513.6752	1520.9937	1840.219	3000.5721	3057.9383	3067.2286	3090.156	3103.766	3121.5655	3130.3126	3146.4694	3187.1594	3495.9425
C(N=C1CCO1)C1CN1	C(N=C1CCO1)[C@H]1CN1	
InChI=1S/C6H10N2O/c1-2-9-6(1)8-4-5-3-7-5/h5,7H,1-4H2	InChI=1S/C6H10N2O/c1-2-9-6(1)8-4-5-3-7-5/h5,7H,1-4H2/t5-/m1/s1
