20
gdb 8411	3.32727	1.65268	1.48015	1.2169	75.66	-0.2417	0.0742	0.316	971.1997	0.175779	-348.981307	-348.972772	-348.971828	-349.013908	32.836	
C	-0.1311364481	 1.5148336495	 0.1768902588	-0.44444
C	-0.0075212107	 0.0104899971	 0.0957648196	 0.340995
O	-1.2130421219	-0.6470895802	-0.2078068785	-0.460962
C	 1.2739317693	-0.6216488009	-0.4070122322	-0.430358
C	 0.872723066	-0.7501786951	 1.0425900482	 0.338443
C	 1.5657613426	-0.2027491885	 2.2994226985	-0.298185
C	 0.864597309	-1.3264688403	 3.1195446224	-0.202578
C	 0.4431358877	-2.0197217415	 1.7896809839	-0.282943
H	 0.8185458748	 1.9805015001	 0.453769039	 0.118917
H	-0.4328180766	 1.931520449	-0.7922778391	 0.105689
H	-0.8870658828	 1.8015337496	 0.9156907806	 0.122585
H	-1.4322073834	-0.4535023992	-1.1258896245	 0.279435
H	 1.1792990492	-1.5086001599	-1.0265223562	 0.106797
H	 2.1085748355	 0.0266710303	-0.6597505374	 0.102994
H	 2.6538292321	-0.3192026059	 2.2640600396	 0.098234
H	 1.3395955997	 0.8283836085	 2.5849983512	 0.09567
H	 1.5002217697	-1.9046516704	 3.7935752124	 0.094937
H	 0.007125028	-0.9553881519	 3.6862884192	 0.103812
H	-0.6063553051	-2.3006584102	 1.6858879293	 0.116269
H	 1.0652356848	-2.8868546103	 1.5461718155	 0.094689
74.2353	162.8856	186.3519	216.0548	258.2843	283.8297	380.3043	410.4053	442.7712	479.2074	568.9158	689.0757	721.2798	784.456	849.8881	887.2772	893.2401	915.2354	939.5426	956.6158	985.1196	1031.2824	1051.8971	1085.5718	1142.4489	1169.1714	1175.8955	1220.5723	1233.3195	1253.6914	1259.662	1271.3087	1291.0589	1316.539	1403.5915	1418.5915	1475.1133	1477.383	1483.566	1486.9832	1506.9941	1508.1988	3023.0175	3042.7978	3052.3775	3064.8764	3083.9473	3088.2054	3109.7838	3110.8634	3115.4823	3124.6964	3200.1684	3794.1575
CC1(O)CC11CCC1	C[C@@]1(O)CC21CCC2	
InChI=1S/C7H12O/c1-6(8)5-7(6)3-2-4-7/h8H,2-5H2,1H3	InChI=1S/C7H12O/c1-6(8)5-7(6)3-2-4-7/h8H,2-5H2,1H3/t6-/m1/s1
