18
gdb 65533	2.82443	1.56639	1.32223	2.7727	74.91	-0.2663	0.0307	0.297	1012.5774	0.148938	-401.947487	-401.939819	-401.938875	-401.979328	30.306	
C	-0.0270847576	 1.5188654217	 0.019899506	-0.455528
C	 0.0104514306	-0.016562545	 0.005733794	 0.157004
C	 0.9894118428	-0.6096467103	-1.0818073512	-0.275037
C	 1.9766356027	-1.2907113284	-0.1142701438	 0.082062
C	 1.0694738143	-2.0585593187	 0.872174903	-0.247437
C	 0.7749031772	-0.5953209433	 1.2506691648	 0.051222
O	 2.1485264117	-0.2610242818	 0.9167414297	-0.29552
C	-1.3417601384	-0.5617970509	-0.098000055	 0.243206
N	-2.4122712738	-0.9946381633	-0.165038002	-0.352859
H	 0.9865607312	 1.8923196709	 0.1808175946	 0.144408
H	-0.4031918095	 1.9093478139	-0.9295440505	 0.133665
H	-0.6747233113	 1.8888921133	 0.8201287114	 0.131968
H	 0.502664212	-1.3071402334	-1.7662068508	 0.126505
H	 1.4648184496	 0.1850587967	-1.6599044371	 0.120972
H	 2.9108670015	-1.6854503348	-0.5112116498	 0.091747
H	 0.2634216263	-2.6868380526	 0.4880332427	 0.124209
H	 1.645505681	-2.5644758725	 1.6464395061	 0.122128
H	 0.4474308897	-0.2630183614	 2.235189028	 0.097285
136.4052	160.0664	224.3021	250.8615	296.2566	406.7815	440.5061	503.8347	548.3431	574.7534	618.4253	753.2597	815.9439	836.5909	879.3383	906.6218	919.4783	944.3452	958.4719	975.4224	1031.96	1045.8206	1070.424	1116.8736	1160.2341	1167.7846	1209.7996	1234.1402	1251.6937	1260.8336	1283.7057	1317.1073	1327.955	1404.0038	1481.8981	1493.476	1496.1532	1501.2015	2347.4321	3046.3795	3077.8898	3083.4906	3118.4404	3132.1657	3133.3053	3136.378	3137.5234	3158.2356
CC1(CC2CC1O2)C#N	C[C@]1(C[C@@H]2C[C@H]1O2)C#N	
InChI=1S/C7H9NO/c1-7(4-8)3-5-2-6(7)9-5/h5-6H,2-3H2,1H3	InChI=1S/C7H9NO/c1-7(4-8)3-5-2-6(7)9-5/h5-6H,2-3H2,1H3/t5-,6+,7-/m0/s1
