15
gdb 18451	6.81747	1.2052	1.10697	3.5999	64.02	-0.2445	0.0016	0.2461	1032.9593	0.117958	-399.761074	-399.753645	-399.752701	-399.792905	27.157	
O	-0.2609689323	 1.422055673	 0.05278734	-0.435903
C	 0.0058412947	 0.0409924642	 0.0041112509	 0.120947
C	 0.3426571352	-0.6110295368	 1.4013443234	-0.283279
C	-0.9874754718	-1.3724259431	 1.3313522397	-0.025807
C	-1.3175177865	-0.7365978431	 0.0045471964	-0.068098
N	-0.9651224474	-2.1470818299	 0.1024393837	-0.080138
C	-1.8376092149	-3.1879578812	-0.1621915113	 0.137003
O	-2.1599773712	-4.0413847945	 0.6285332942	-0.293925
H	 0.5722022552	 1.8867742507	 0.1807817829	 0.290058
H	 0.6870574821	-0.2207663593	-0.8155877527	 0.081816
H	 1.2432564742	-1.2241317657	 1.4781488084	 0.112288
H	 0.3366454724	 0.1614712141	 2.1733446079	 0.115389
H	-1.6455495	-1.6759245565	 2.1352595026	 0.125454
H	-2.2692501821	-0.4162470123	-0.4023376941	 0.119103
H	-2.1484456775	-3.1955764196	-1.224688292	 0.085089
91.2268	152.2735	200.9047	256.049	275.6354	358.2357	403.892	468.2093	673.9552	742.2379	783.2307	843.1341	879.1117	939.5982	960.6349	1001.1412	1017.6331	1033.6357	1045.3885	1123.2045	1146.7655	1184.2067	1203.1614	1223.4976	1259.7508	1266.6252	1316.7168	1415.6651	1418.4397	1430.505	1464.3907	1795.3848	2950.5629	3021.3153	3069.7057	3134.6142	3195.957	3211.3671	3819.4235
OC1CC2C1N2C=O	O[C@H]1C[C@H]2[C@@H]1N2C=O	
InChI=1S/C5H7NO2/c7-2-6-3-1-4(8)5(3)6/h2-5,8H,1H2	InChI=1S/C5H7NO2/c7-2-6-3-1-4(8)5(3)6/h2-5,8H,1H2/t3-,4-,5-,6?/m0/s1
