21
gdb 60645	2.78023	1.0609	0.90036	2.9646	78.22	-0.243	-0.0173	0.2257	1377.3621	0.18003	-424.226992	-424.216709	-424.215764	-424.263975	35.723	
C	 0.0449279383	 1.5611362325	 0.1255584405	-0.41041
C	 0.0377373986	 0.0252632275	-0.0262564623	-0.118877
C	 0.7432475732	-0.4085563157	-1.3073326898	 0.003638
C	 0.6199015412	-1.8918562869	-1.7184751449	-0.0902
O	-0.0392684716	-1.5438919304	-2.9543762265	-0.274124
C	 0.0142781388	-0.138231716	-2.6436896049	-0.1001
C	 0.7012253573	-0.6114544761	 1.2005467201	 0.395273
C	-0.15339461	-0.7550511871	 2.4469400816	-0.480643
O	 1.8519680369	-0.9860659668	 1.1709206686	-0.309006
H	 1.0716195869	 1.9355961678	 0.1892929372	 0.134989
H	-0.4351241335	 2.0303042843	-0.7385951914	 0.129288
H	-0.4927893501	 1.8884235764	 1.0200919975	 0.121489
H	-1.0093555357	-0.3088966251	-0.0557439091	 0.083109
H	 1.776428635	-0.0587663229	-1.2878842783	 0.094988
H	 1.5632533349	-2.4225229686	-1.8879803596	 0.110411
H	-0.0204047394	-2.5088440663	-1.0726704004	 0.090548
H	-0.9900869019	 0.3001738064	-2.5536871452	 0.091868
H	 0.5773823705	 0.4280670049	-3.3958323717	 0.10101
H	-0.8926860072	-1.5487077643	 2.2824600893	 0.146173
H	 0.4715613152	-1.0229167877	 3.2996690762	 0.144333
H	-0.7147032174	 0.159435284	 2.6616784732	 0.136241
31.9527	51.7347	79.2513	117.7701	142.847	216.5294	237.0482	248.3624	336.0206	406.1514	408.9447	583.6871	601.0019	763.2534	791.25	866.9301	890.9439	950.9069	963.6553	979.4863	990.8707	1005.6485	1042.5354	1078.4641	1098.7716	1123.4943	1153.7984	1165.9476	1169.953	1222.7104	1255.4475	1299.7582	1310.7077	1322.3331	1374.4857	1382.9587	1404.9577	1408.1669	1462.5296	1474.7273	1498.741	1500.3604	1511.7084	1536.9695	1804.8456	2991.4655	3002.72	3009.4826	3036.181	3038.0244	3041.1355	3058.9227	3099.3267	3102.887	3109.386	3113.0726	3152.9536
CC(C1COC1)C(C)=O	C[C@@H](C1COC1)C(=O)C	
InChI=1S/C7H12O2/c1-5(6(2)8)7-3-9-4-7/h5,7H,3-4H2,1-2H3	InChI=1S/C7H12O2/c1-5(6(2)8)7-3-9-4-7/h5,7H,3-4H2,1-2H3/t5-/m1/s1
