18
gdb 12573	3.25112	1.82903	1.28861	1.1584	64.04	-0.247	0.0637	0.3107	949.5747	0.154856	-422.05582	-422.048096	-422.047152	-422.087727	29.146	
O	-0.3313586397	 1.479835089	 0.5457380026	-0.426801
C	-0.0403204218	 0.1908597369	 0.019644989	 0.084126
C	 0.9588080007	-0.553085351	 0.9234523265	-0.110282
O	 1.4562434136	-1.7194844709	 0.302047053	-0.242826
C	 0.6957132637	-2.9056571095	 0.4412512177	-0.057193
C	-0.8270667158	-2.7245612471	 0.4883177375	-0.105892
O	-1.3239313089	-1.8559438961	-0.5085005995	-0.237322
C	-1.3999369622	-0.5048892519	-0.1021428566	-0.082928
H	 0.4594033568	 2.0225731672	 0.4697649364	 0.288831
H	 0.4145696611	 0.2531234536	-0.9802726974	 0.082551
H	 1.8270143924	 0.0976273862	 1.0874586606	 0.093879
H	 0.5156096344	-0.7504678851	 1.9111621527	 0.096044
H	 0.9653691884	-3.5189066957	-0.4249169948	 0.115365
H	 0.9948205356	-3.4580297661	 1.3487852588	 0.086732
H	-1.283923076	-3.7088016354	 0.3282802016	 0.107877
H	-1.1477810124	-2.3775388694	 1.482040878	 0.095569
H	-1.9191408265	-0.4165377371	 0.8665650338	 0.097019
H	-2.0025487734	 0.0137758225	-0.8524773399	 0.115252
100.9123	167.4473	254.2162	260.0943	313.4472	319.5482	368.2857	415.8508	469.6784	556.0278	607.7221	841.9094	855.4274	894.76	924.56	977.2411	1019.6193	1076.3341	1090.492	1118.6506	1135.6867	1175.6336	1199.4607	1239.6065	1263.543	1286.52	1306.6786	1332.7296	1343.0845	1367.9663	1406.9052	1417.3058	1418.8969	1444.4738	1486.8799	1493.9815	1498.8704	1510.1159	2960.1888	2973.3453	2985.1672	2995.5515	3004.3076	3048.1236	3051.5646	3074.7741	3095.8958	3824.3013
OC1COCCOC1	OC1COCCOC1	
InChI=1S/C5H10O3/c6-5-3-7-1-2-8-4-5/h5-6H,1-4H2	InChI=1S/C5H10O3/c6-5-3-7-1-2-8-4-5/h5-6H,1-4H2
