21
gdb 59414	2.99492	0.93934	0.88674	2.7781	80.75	-0.2529	-0.0331	0.2199	1441.9725	0.178228	-424.23245	-424.221788	-424.220844	-424.268621	37.955	
C	 1.0514957992	 0.660929486	-1.1390363812	-0.389967
C	 1.7873524897	-0.5041085149	-0.4590190545	-0.014159
C	 3.2874041444	-0.2180108618	-0.3017228619	-0.393744
C	 1.1635350482	-0.7746703799	 0.8952879824	 0.031103
O	-0.1095516513	-1.4048342917	 0.9472508987	-0.293416
C	 1.0119742641	-2.1235181194	 1.5041466525	 0.264696
C	 1.4326206591	-3.4136811085	 0.8499202592	-0.473724
C	 0.9718181094	-2.1295857714	 3.005074763	 0.126671
O	 1.4673842815	-2.9826615703	 3.6957035673	-0.254943
H	 1.1549616326	 1.5847712666	-0.557874045	 0.115415
H	 1.4607235316	 0.8472933573	-2.136765363	 0.116097
H	-0.0151942889	 0.4420235493	-1.2403447392	 0.133459
H	 1.6586750439	-1.3946618875	-1.0824432498	 0.083898
H	 3.4564636491	 0.655266185	 0.3390587273	 0.119071
H	 3.8161054096	-1.0669271931	 0.1428814633	 0.121969
H	 3.7432973418	-0.0066904925	-1.2736414154	 0.120983
H	 1.2570319274	 0.0668561573	 1.5903030716	 0.087978
H	 0.7321829648	-4.2106115359	 1.1166125007	 0.140491
H	 1.4597469441	-3.3281131093	-0.236369166	 0.130044
H	 2.4190665963	-3.7109914651	 1.215535491	 0.143369
H	 0.4267277234	-1.2581873801	 3.4323522391	 0.084709
49.7408	77.7269	96.3928	148.751	191.5144	218.6911	244.7684	257.7877	288.6586	358.6974	381.342	397.3765	467.7216	508.4601	595.6474	757.0164	800.01	868.7286	899.5127	930.3111	949.8073	970.3143	1007.7741	1048.377	1088.5068	1114.2796	1157.4005	1177.4752	1197.1351	1271.2849	1316.1303	1338.9736	1341.2453	1398.7679	1405.0193	1417.1127	1425.0808	1460.3842	1479.2017	1488.5389	1490.2405	1495.8936	1503.9943	1513.6484	1826.4248	2889.604	3029.5522	3032.3987	3045.9392	3055.8574	3060.319	3095.6441	3102.7815	3109.9464	3116.4425	3119.9941	3152.6116
CC(C)C1OC1(C)C=O	CC(C)[C@H]1O[C@]1(C)C=O	
InChI=1S/C7H12O2/c1-5(2)6-7(3,4-8)9-6/h4-6H,1-3H3	InChI=1S/C7H12O2/c1-5(2)6-7(3,4-8)9-6/h4-6H,1-3H3/t6-,7-/m1/s1
