14
gdb 127835	4.70549	1.13149	0.91998	5.8029	67.96	-0.2698	-0.0715	0.1983	1196.6942	0.100588	-462.308902	-462.300635	-462.29969	-462.342533	28.803	
C	-0.1141622677	 1.4306918401	-0.0061442509	-0.344241
N	-0.104355996	-0.0199461004	 0.0198288988	-0.257229
C	 0.5863288309	-0.5827220165	 0.911370834	 0.515709
N	 1.3814875153	-0.0562852802	 1.8939377069	-0.574867
N	 0.6191782473	-2.0266030196	 0.9186438745	 0.05937
N	 0.1252071612	-2.8170551381	-0.0270601622	-0.082848
N	 0.3627217807	-4.0200524442	 0.3850270206	-0.0706
N	 1.0010606639	-3.96893224	 1.5771927609	-0.079242
N	 1.1610717899	-2.7307420461	 1.9084856361	-0.124819
H	 0.8981177459	 1.849987414	-0.1037512825	 0.12854
H	-0.7061552854	 1.7698353833	-0.8578939032	 0.146023
H	-0.5675875171	 1.8563853292	 0.9028731217	 0.119882
H	 1.1990250744	 0.8987380868	 2.1538928067	 0.274249
H	 1.6908933566	-0.6716564283	 2.6307280287	 0.290073
56.0636	105.6358	134.266	179.3629	278.3854	304.0904	398.6705	411.4307	461.7129	501.3365	690.1354	731.4402	756.3577	759.3953	953.791	986.6065	1093.6149	1101.9792	1109.5892	1130.3484	1156.8672	1215.6852	1266.7144	1280.7185	1397.2608	1421.023	1437.0063	1489.4983	1506.6174	1624.2649	1785.9423	2976.2065	3028.0897	3121.219	3590.8931	3710.8309
CN=C(N)N1N=NN=N1	CN=C(N)n1nnnn1	
InChI=1S/C2H5N7/c1-4-2(3)9-7-5-6-8-9/h1H3,(H2,3,4)	InChI=1S/C2H5N7/c1-4-2(3)9-7-5-6-8-9/h1H3,(H2,3,4)
