25
gdb 101468	3.25412	0.8909	0.74017	1.3584	88.72	-0.2612	0.0787	0.3399	1609.5104	0.229721	-389.508528	-389.498254	-389.49731	-389.544268	38.311	
C	-0.1081394374	 1.5340531919	-0.0164461168	-0.403352
C	 0.014869116	 0.0037295477	-0.0471885075	 0.017878
C	 0.7653341495	-0.4407614167	-1.3059032204	-0.082155
O	 0.0362686649	-0.0009492435	-2.4452303404	-0.423495
C	 0.6807430661	-0.5604123741	 1.2192714237	 0.058795
C	 0.0024241951	-0.156446877	 2.5446764179	-0.218294
C	 0.5617617678	-1.1624037096	 3.5586550936	-0.204056
C	 0.5650657457	-2.4993128802	 2.7879953595	-0.209336
C	 0.7313077487	-2.1148231428	 1.2898191953	-0.219345
H	 0.8749754269	 2.0005079289	 0.1261582321	 0.102414
H	-0.5195480607	 1.899538213	-0.9596133841	 0.131786
H	-0.7576201132	 1.8699887604	 0.7963461074	 0.11001
H	-0.9966743135	-0.4236566428	-0.115637482	 0.07453
H	 1.7809797035	-0.0087083668	-1.294822495	 0.078364
H	 0.8737713289	-1.5351286347	-1.3158898385	 0.085775
H	 0.5289482141	-0.2513045838	-3.2316587458	 0.284742
H	 1.7132493454	-0.1806309853	 1.2539052805	 0.061106
H	 0.1915992842	 0.8833755694	 2.8243749658	 0.094819
H	-1.0862913539	-0.2782689383	 2.4554497886	 0.09171
H	 1.586423749	-0.8779211483	 3.828533399	 0.093914
H	-0.0143710355	-1.2073778238	 4.4874802774	 0.090275
H	 1.3490447868	-3.1774876963	 3.1361945091	 0.093228
H	-0.3870410503	-3.0187591145	 2.9390764471	 0.098002
H	-0.0801010111	-2.5469153034	 0.6931961179	 0.097281
H	 1.6637598331	-2.5043276594	 0.8715585357	 0.095402
47.4468	80.8906	118.9265	156.0325	193.0537	237.784	243.3431	282.1218	330.3514	375.77	398.0496	495.244	577.1386	628.7139	781.2885	827.7137	863.6798	877.1665	904.2715	926.628	938.4996	958.2775	976.5215	1011.6726	1040.1864	1056.4683	1076.2038	1100.2532	1129.4311	1173.7118	1193.0048	1198.1914	1226.9431	1252.8883	1272.1591	1277.7624	1296.4697	1304.4104	1323.6391	1344.2071	1345.4361	1349.0359	1365.7589	1389.0318	1401.2642	1458.1554	1489.5188	1490.6586	1494.7381	1496.4575	1507.2909	1517.5938	1520.9781	2953.6557	2979.7666	2997.2994	3011.0036	3015.0119	3029.1939	3029.992	3035.7058	3049.6742	3072.6343	3084.6164	3090.0548	3099.2083	3100.1359	3130.9578	3834.308
CC(CO)C1CCCC1	C[C@@H](CO)C1CCCC1	
InChI=1S/C8H16O/c1-7(6-9)8-4-2-3-5-8/h7-9H,2-6H2,1H3	InChI=1S/C8H16O/c1-7(6-9)8-4-2-3-5-8/h7-9H,2-6H2,1H3/t7-/m0/s1
