14
gdb 43345	3.17936	1.7764	1.28808	3.9666	66.84	-0.2442	-0.0648	0.1794	919.8849	0.103552	-436.725836	-436.719389	-436.718445	-436.756984	24.667	
O	 0.0047006162	 0.0223584652	 0.2184115917	-0.308609
C	-0.0404892561	 1.2140988816	 0.0581414877	 0.388246
C	-1.2552201811	 2.0578339694	-0.1019777948	-0.169363
C	-0.9285777919	 3.3255471041	-0.3695029496	-0.075405
C	 0.5670432038	 3.5374804097	-0.4280132138	 0.028184
O	 0.9994991222	 4.4342007716	 0.6302809427	-0.227749
C	 1.6097721154	 3.6304740083	 1.5374588938	 0.116533
N	 1.7769758686	 2.3979069126	 1.2890305605	-0.252549
C	 1.176334885	 2.1689464289	-0.0359735202	-0.13407
H	-2.2531242657	 1.6469709419	-0.0158425819	 0.130355
H	-1.6210044214	 4.1449022057	-0.5253123534	 0.131208
H	 0.9040108761	 3.9633149776	-1.3758011367	 0.110854
H	 1.9326406169	 4.1371956769	 2.4398726164	 0.150388
H	 1.9201045221	 1.7597785765	-0.7244492023	 0.111976
91.4278	209.3248	235.0752	376.9336	488.142	526.4048	567.4413	694.5264	707.3326	806.4647	847.5452	865.5055	887.661	928.6029	959.2359	982.7224	999.749	1010.3833	1035.7351	1103.9253	1109.2613	1180.7719	1245.9427	1273.2329	1293.4929	1326.5477	1342.4695	1362.9701	1651.2697	1688.0421	1835.8452	3078.1135	3090.2627	3201.1077	3220.7754	3230.0391
O=C1C=CC2OC=NC12	O=C1C=C[C@H]2OC=N[C@@H]12	
InChI=1S/C6H5NO2/c8-4-1-2-5-6(4)7-3-9-5/h1-3,5-6H	InChI=1S/C6H5NO2/c8-4-1-2-5-6(4)7-3-9-5/h1-3,5-6H/t5-,6+/m1/s1
