20
gdb 65723	3.90037	1.00937	0.95043	3.2888	79.12	-0.2398	-0.0233	0.2165	1291.2431	0.16912	-403.111952	-403.102938	-403.101993	-403.146084	33.777	
C	-0.169995383	 1.6069460511	 0.128897027	-0.448532
C	 0.0639669816	 0.1092682063	-0.0291306802	 0.314764
C	-1.2599369201	-0.618813479	-0.3121852886	-0.309193
C	-1.9090448846	-0.2140100465	-1.61570688	 0.153198
O	-3.0582343961	 0.1265561551	-1.7364465497	-0.242306
C	 1.2332732038	-0.3701203531	-0.9514359461	-0.313173
C	 1.8169066466	-1.0427743275	 0.2859632042	-0.010236
C	 2.0438489577	-0.0688091524	 1.3663383572	-0.246541
N	 0.6747322488	-0.5862912385	 1.1806842731	-0.15407
H	 0.7553754774	 2.1589408802	 0.3088983707	 0.117963
H	-0.6275265088	 2.0247882731	-0.7745592375	 0.129808
H	-0.8499838375	 1.7961835292	 0.9661469935	 0.134969
H	-1.0548428553	-1.6973973316	-0.3590964471	 0.123071
H	-1.967834912	-0.4513972028	 0.5043468375	 0.127603
H	-1.2379527485	-0.2583501777	-2.5057614401	 0.072296
H	 0.9139270919	-1.0698618116	-1.7259400887	 0.109019
H	 1.8543176755	 0.4021741215	-1.4151118978	 0.106275
H	 2.1944235445	-2.0592297472	 0.3277322331	 0.096486
H	 2.4924752709	-0.430609772	 2.2863962167	 0.125655
H	 2.2806025672	 0.9648096236	 1.1301208727	 0.112945
51.7427	93.1515	169.3555	183.9228	219.2587	285.683	342.9644	381.886	430.1884	465.9978	531.1428	656.7716	754.8442	763.7839	797.3837	840.5125	858.1068	923.3194	952.746	983.2245	999.5378	1010.5111	1056.3248	1064.8056	1107.6042	1122.8844	1136.6684	1151.3616	1169.3633	1221.5732	1255.4542	1273.4546	1300.1648	1308.7172	1368.5909	1414.0845	1436.4038	1456.6183	1482.0087	1488.3549	1499.3343	1509.9191	1830.7878	2851.6689	3022.563	3037.1007	3054.481	3099.9358	3103.0573	3113.3956	3113.6787	3122.8755	3163.6454	3201.9905
CC1(CC=O)CC2CN12	C[C@@]1(CC=O)C[C@H]2CN12	
InChI=1S/C7H11NO/c1-7(2-3-9)4-6-5-8(6)7/h3,6H,2,4-5H2,1H3	InChI=1S/C7H11NO/c1-7(2-3-9)4-6-5-8(6)7/h3,6H,2,4-5H2,1H3/t6-,7+,8?/m0/s1
