16
gdb 98492	2.84148	1.25289	0.9558	4.3121	71.83	-0.2433	-0.0211	0.2222	1218.811	0.123426	-434.054086	-434.044867	-434.043923	-434.088483	32.644	
C	 0.7302288636	 1.4331315628	-0.0144715365	-0.31401
N	 0.8996734161	 0.0016573994	-0.1850155694	-0.317582
C	 0.2075819748	-0.6603968363	-1.1567083425	 0.304585
N	-0.5000422121	-0.0546442983	-2.0300560329	-0.543874
C	 0.4361207099	-2.1614733063	-1.1188211194	 0.184552
C	 1.8150715467	-2.7085391772	-1.1055792328	-0.190563
O	 1.0159668289	-2.7058444318	 0.074102449	-0.260587
C	-0.6160127303	-2.9654720524	-1.7131534514	 0.260232
N	-1.4504773556	-3.5986663912	-2.2003253295	-0.32605
H	 0.948887249	 1.9416630217	-0.9559457538	 0.154851
H	-0.2945964509	 1.6981169757	 0.2744822385	 0.135592
H	 1.4245809811	 1.7807639671	 0.7531614763	 0.122579
H	 1.1482365074	-0.5499044813	 0.6213870972	 0.260975
H	-0.9051767228	-0.7035970005	-2.7017598407	 0.231413
H	 2.0007036549	-3.6875070152	-1.5408151073	 0.151188
H	 2.6384233594	-1.9987313463	-1.116334825	 0.146699
61.0246	121.3046	125.2203	153.14	212.5242	247.844	289.5045	321.9584	438.2525	459.3021	531.2246	559.5965	595.1039	717.6459	768.4492	825.2248	884.9519	890.0336	943.9657	1015.5654	1135.8148	1153.3953	1166.7709	1176.6035	1186.3279	1213.8226	1330.0077	1350.3348	1453.2968	1476.2901	1505.0226	1509.9332	1554.1766	1717.165	2364.7248	3026.4241	3101.0269	3105.2756	3140.6729	3209.2291	3509.7042	3630.0416
CNC(=N)C1(CO1)C#N	CNC(=N)[C@]1(CO1)C#N	
InChI=1S/C5H7N3O/c1-8-4(7)5(2-6)3-9-5/h3H2,1H3,(H2,7,8)	InChI=1S/C5H7N3O/c1-8-4(7)5(2-6)3-9-5/h3H2,1H3,(H2,7,8)/t5-/m1/s1
