23
gdb 119879	2.89767	0.97321	0.75919	1.1219	89.48	-0.224	0.0354	0.2595	1578.6696	0.20513	-388.299733	-388.289715	-388.288771	-388.33517	36.483	
C	-0.0021690885	 1.4052488594	-0.0028386323	-0.222937
O	-0.0007846437	-0.0000132384	 0.041867086	-0.226502
C	 0.5599989644	-0.5831120154	-1.1109916665	-0.165178
C	 0.5084378496	-2.0745076521	-1.0231322481	 0.298358
C	-0.0249420507	-2.7958408529	-0.0370893427	-0.162483
C	 0.1755754084	-4.2776397878	-0.2396815968	-0.257532
C	 0.6347125172	-4.3638464166	-1.7149774179	-0.21432
C	 1.1691750989	-2.9525919791	-2.0760029471	-0.061742
C	 0.8986742006	-2.5526303267	-3.5320069264	-0.403156
H	 1.0181049855	 1.8143083951	-0.0817555085	 0.102398
H	-0.5893415511	 1.7884702461	-0.8530331165	 0.102676
H	-0.4534305955	 1.7619412279	 0.92622443	 0.126732
H	 0.0253934149	-0.2333055492	-2.0139007956	 0.093223
H	 1.6094496968	-0.2525077934	-1.240353268	 0.08824
H	-0.5019210063	-2.3713246733	 0.8374071583	 0.099806
H	 0.94158534	-4.6619013254	 0.4497930553	 0.101694
H	-0.7287074909	-4.8661653064	-0.0461127043	 0.098428
H	 1.3729744186	-5.1507165136	-1.892753202	 0.092099
H	-0.230562678	-4.58357309	-2.3511914659	 0.098097
H	 2.2599413053	-2.9172590995	-1.9205031238	 0.07295
H	-0.177587883	-2.5301406232	-3.7375754386	 0.115108
H	 1.3084543878	-1.5647481726	-3.7682366681	 0.111103
H	 1.3561147897	-3.2700312128	-4.2216501804	 0.112939
74.6395	78.0322	106.5823	130.0921	219.706	238.1907	248.8553	261.3727	344.1162	358.1858	416.4177	546.319	605.3874	709.1572	808.3466	824.9826	856.3652	907.8759	931.1503	969.7476	995.8187	1022.2621	1026.5125	1063.0669	1099.2779	1113.1286	1156.2743	1175.1186	1185.5342	1207.8494	1221.7651	1241.1351	1257.9864	1275.027	1315.5344	1328.5113	1330.587	1362.5178	1406.5208	1428.5183	1478.7568	1484.379	1484.6901	1496.1631	1498.3134	1499.0802	1502.6702	1521.705	1723.0358	2912.285	2932.7767	2963.764	2966.1477	3000.1987	3007.6623	3025.0426	3034.5681	3052.3775	3090.05	3094.6271	3096.1423	3113.5536	3215.1561
COCC1=CCCC1C	COCC1=CCC[C@H]1C	
InChI=1S/C8H14O/c1-7-4-3-5-8(7)6-9-2/h5,7H,3-4,6H2,1-2H3	InChI=1S/C8H14O/c1-7-4-3-5-8(7)6-9-2/h5,7H,3-4,6H2,1-2H3/t7-/m1/s1
