12
gdb 132417	3.79813	1.19675	0.91002	3.6926	64.89	-0.2676	-0.0915	0.1762	1134.7884	0.077904	-476.831549	-476.824655	-476.823711	-476.863472	24.801	
F	-0.0560409465	 0.0654387277	 0.0039244066	-0.051207
C	-0.0257127758	 1.3859596778	 0.0106627182	 0.347729
N	-1.1838746897	 2.0046037309	 0.029492727	-0.319394
C	-1.1282438115	 3.3444246622	 0.0358816485	 0.248265
C	-2.4742481455	 4.0230172629	 0.0576211846	 0.120969
O	-2.6317905647	 5.2134344628	 0.0661113418	-0.227701
N	-0.0295483587	 4.0961858421	 0.0252567798	-0.260308
C	 1.1280008538	 3.4305961475	 0.0061814193	 0.02425
C	 1.2001582266	 2.0428876746	-0.002261553	-0.265167
H	-3.3134326553	 3.297652677	 0.0650459887	 0.103303
H	 2.0349713944	 4.0297628966	-0.0027605785	 0.139642
H	 2.1363972431	 1.5010001078	-0.017722183	 0.139619
89.6514	194.4579	202.9922	247.2061	391.3845	444.0007	496.9667	551.8277	647.2884	696.9381	800.1363	820.2819	868.4762	975.1418	1008.6964	1010.9844	1045.4427	1103.2105	1272.8378	1304.4718	1346.1762	1371.0783	1424.0044	1492.521	1604.0601	1617.3768	1834.7516	2935.458	3169.9246	3228.1665
FC1=NC(C=O)=NC=C1	Fc1nc(C=O)ncc1	
InChI=1S/C5H3FN2O/c6-4-1-2-7-5(3-9)8-4/h1-3H	InChI=1S/C5H3FN2O/c6-4-1-2-7-5(3-9)8-4/h1-3H
