20
gdb 58699	1.91877	1.73163	1.14156	4.1328	78.75	-0.2748	0.0087	0.2834	1161.0491	0.169574	-403.150017	-403.140356	-403.139411	-403.184687	35.273	
C	-0.079841756	 1.5564575877	 0.1863727648	-0.406883
C	-0.0260452148	 0.0274817006	 0.0351324141	-0.024733
C	 0.76625862	-0.5987285308	 1.1901977275	-0.421127
C	-1.4549476867	-0.5468542408	-0.0624338911	 0.280005
C	-1.6801855702	-2.0881615104	 0.0111221905	-0.344173
C	-2.5364734481	-1.7607882476	 1.2480842471	-0.066948
O	-2.2077834842	-0.3531661965	 1.1592805186	-0.306293
C	-2.169706788	 0.050055018	-1.2091249027	 0.2755
N	-2.7279114255	 0.4903414363	-2.1205699591	-0.34801
H	 0.9320223514	 1.9662589379	 0.2509192465	 0.11564
H	-0.5841639234	 2.0303077365	-0.6599128239	 0.141751
H	-0.6170580052	 1.8294944592	 1.0999571758	 0.138651
H	 0.4694510011	-0.2175604331	-0.9142726234	 0.093014
H	 0.2471079139	-0.4428334488	 2.1402218732	 0.137061
H	 0.9329065751	-1.6714408587	 1.0581621042	 0.114473
H	 1.7495765851	-0.1254030409	 1.2617410357	 0.12153
H	-2.208863427	-2.5186235775	-0.8382463358	 0.136778
H	-0.7762479859	-2.6623230367	 0.2076394425	 0.125945
H	-3.6119086101	-1.9306525671	 1.1285611384	 0.121745
H	-2.2039748413	-2.1900990372	 2.1984186674	 0.116072
60.6455	83.68	150.6863	191.1015	199.6997	230.1848	259.9488	308.661	370.2296	401.4526	485.6878	549.7728	575.9086	629.5466	777.8011	854.2138	869.942	921.6709	933.697	957.0292	969.0559	992.2543	1014.9677	1084.8618	1131.8717	1158.915	1171.4003	1194.7082	1205.9652	1230.4568	1262.1486	1330.3701	1346.2807	1362.284	1400.6248	1421.8755	1480.3874	1492.9548	1495.1732	1508.189	1516.0139	1529.4954	2348.1999	3019.1749	3038.1364	3042.9432	3046.8122	3085.1537	3104.7173	3111.62	3115.7279	3122.0936	3123.4136	3164.4716
CC(C)C1(CCO1)C#N	CC(C)[C@]1(CCO1)C#N	
InChI=1S/C7H11NO/c1-6(2)7(5-8)3-4-9-7/h6H,3-4H2,1-2H3	InChI=1S/C7H11NO/c1-6(2)7(5-8)3-4-9-7/h6H,3-4H2,1-2H3/t7-/m0/s1
