19
gdb 94025	4.34892	0.9577	0.83313	1.2282	83.52	-0.249	0.0047	0.2537	1369.7108	0.159342	-385.868495	-385.859789	-385.858844	-385.901747	33.852	
O	 0.0909450712	 1.4445909113	 0.1162825563	-0.437085
C	 0.0422132246	 0.0216828673	 0.0370299784	 0.111449
C	-1.3951288693	-0.5115704866	 0.0689543017	-0.241768
C	-1.4316197571	-2.0087835869	-0.2513169676	-0.218407
C	-0.9035303286	-2.276667641	-1.6809243165	-0.199176
C	 0.3636910848	-1.4812031629	-1.9521122723	-0.050624
C	 0.7822269273	-0.4821008847	-1.1779753562	-0.115421
C	-0.6921174297	-3.7041036715	-1.919042601	 0.302861
C	-0.5124545732	-4.8781666055	-2.1041845567	-0.451839
H	-0.2952672335	 1.7902846739	-0.6964793082	 0.274625
H	 0.5697878455	-0.3088875136	 0.942354054	 0.100124
H	-1.8442879332	-0.3064297661	 1.045267066	 0.103734
H	-1.9868656539	 0.0392334644	-0.6760590812	 0.087701
H	-0.8045644794	-2.5580640831	 0.4604816142	 0.115778
H	-2.4455237773	-2.4079849165	-0.1541775714	 0.107939
H	-1.6705840584	-1.9369128568	-2.3960534905	 0.113935
H	 0.93585555	-1.7789308151	-2.8263636838	 0.103891
H	 1.7047304809	 0.0444351258	-1.411837785	 0.097825
H	-0.3567671209	-5.9149944524	-2.2717627402	 0.194457
66.4639	134.6247	178.0935	260.7378	297.9806	334.6152	362.9342	394.5066	451.9993	504.5105	548.6884	608.3939	623.1364	639.5285	678.8945	753.2397	796.2444	880.4606	946.8911	954.214	1009.9057	1029.5087	1052.9725	1069.5421	1083.5503	1094.6661	1185.9051	1206.345	1237.8338	1270.2896	1298.6585	1317.7318	1336.2309	1364.3182	1374.1153	1400.4862	1426.1228	1487.7936	1493.1556	1716.0633	2235.8229	2966.675	3006.4137	3018.2853	3043.3717	3084.6324	3089.5626	3150.9622	3175.8682	3505.1518	3794.9299
OC1CCC(C=C1)C#C	O[C@H]1CC[C@@H](C=C1)C#C	
InChI=1S/C8H10O/c1-2-7-3-5-8(9)6-4-7/h1,3,5,7-9H,4,6H2	InChI=1S/C8H10O/c1-2-7-3-5-8(9)6-4-7/h1,3,5,7-9H,4,6H2/t7-,8-/m1/s1
