17
gdb 37581	2.92234	2.51462	1.92774	1.409	71.99	-0.2139	0.0733	0.2872	776.0901	0.1399	-384.612346	-384.606997	-384.606053	-384.641622	24.374	
O	-0.0019764051	 1.4058249021	 0.057144644	-0.272854
C	 1.2381957297	 2.0501086355	-0.0305456942	 0.116678
C	 2.3394217951	 1.6052419359	-0.9394472862	-0.135784
C	 2.4849373132	 1.5369478923	 0.6167645532	-0.135783
C	 2.5107204047	-0.0087414631	 0.5362066316	-0.051896
C	 1.1745175459	-0.7837424276	 0.6374546382	-0.135784
C	 0.0862374784	 0.0100442101	-0.0123578745	 0.116678
C	 1.0290046405	-0.715449104	-0.918757253	-0.135784
C	 2.3671142301	 0.0586554861	-0.9995917769	-0.051896
H	 1.0828926561	 3.1216257532	 0.0309994306	 0.102103
H	 2.8064647999	 2.274242068	-1.6527477232	 0.084117
H	 3.0813173758	 2.1452483835	 1.2866817478	 0.084117
H	 3.3842576696	-0.4981992465	 0.9626568286	 0.072876
H	 0.9668083	-1.5994535926	 1.3200674761	 0.084117
H	-0.9109954601	-0.4094581882	 0.0624766046	 0.102103
H	 0.6919533549	-1.4704580037	-1.6193612259	 0.084117
H	 3.1426552514	-0.384807911	-1.6211804609	 0.072876
330.326	447.3795	489.1754	578.0225	608.1211	682.7008	685.1666	701.5025	770.8	805.2173	814.4139	836.0467	871.0527	947.5259	948.0501	952.2379	961.4219	970.9922	1008.5988	1017.5834	1017.8814	1031.5271	1064.2338	1071.9311	1113.8709	1150.9458	1173.6912	1188.4423	1213.5815	1250.698	1279.6277	1282.2715	1293.1104	1331.0094	1347.5199	1412.3337	1462.1426	3119.0257	3128.5416	3169.0432	3169.1095	3170.9109	3171.5747	3183.0737	3186.429
O1C2C3C2C2C4C1C4C32	O1[C@@H]2[C@H]3[C@@H]2[C@H]2[C@H]4[C@@H]1[C@H]4[C@@H]32	
InChI=1S/C8H8O/c9-7-3-1-2(5(3)7)6-4(1)8(6)9/h1-8H	InChI=1S/C8H8O/c9-7-3-1-2(5(3)7)6-4(1)8(6)9/h1-8H/t1-,2+,3-,4+,5+,6-,7-,8+
