22
gdb 109616	2.52451	1.05778	0.96918	1.7848	90.62	-0.2199	0.0486	0.2686	1395.1454	0.190416	-367.151831	-367.140925	-367.139981	-367.187494	40.035	
C	-1.6278289882	 0.1604680986	-3.5746398987	-0.378899
C	-0.8539210376	-0.316526742	-2.3377517779	-0.211174
C	-1.7821107815	-0.7362529027	-1.2137390962	-0.022588
N	-2.3645751948	-2.0676231088	-1.0708516861	-0.11993
C	-2.0558409234	-3.1407130574	-2.0027505694	-0.319433
C	-1.3617911824	-1.6355930589	-0.0735658709	 0.052483
C	 0.0353167865	-2.2401933884	-0.014250298	-0.463775
C	-1.913233235	-1.3749810459	 1.2392236393	 0.304014
C	-2.3346530795	-1.149730482	 2.3428809778	-0.427253
H	-0.9443825585	 0.5047859464	-4.3566834873	 0.114032
H	-2.2423958527	-0.6423696887	-3.9941667823	 0.123461
H	-2.2962326176	 0.9909008301	-3.3237140373	 0.121642
H	-0.1739939361	-1.1241154243	-2.6210892626	 0.099241
H	-0.2201067478	 0.4996202177	-1.9677858277	 0.107549
H	-2.4929269032	 0.048297388	-0.9502488238	 0.091403
H	-1.0450770958	-3.1344617061	-2.4335171542	 0.100423
H	-2.1972211811	-4.098321719	-1.4919321543	 0.12881
H	-2.7728211444	-3.0957938448	-2.8291258819	 0.127155
H	 0.471983662	-2.4023375233	-0.9999128155	 0.118255
H	 0.7002009616	-1.5753748042	 0.5448738618	 0.133771
H	 0.0094196767	-3.1996752638	 0.5116529084	 0.13161
H	-2.7241312472	-0.9540096203	 3.3109854469	 0.189203
61.2058	120.2619	131.5973	152.5743	167.6311	193.9502	221.7241	261.2536	292.5492	312.6374	392.1275	422.4852	507.3568	544.7812	586.4011	605.3496	640.4904	680.6529	750.375	764.9452	847.4457	923.3552	979.4773	1034.7975	1057.328	1091.1777	1123.2398	1133.4972	1146.1845	1171.5315	1186.6421	1252.4441	1287.5256	1337.9272	1354.4833	1409.7136	1412.2514	1429.3822	1455.3024	1473.9472	1484.1347	1494.0427	1500.0501	1501.9805	1506.0991	1511.3043	2233.7174	2997.886	3030.4356	3035.8212	3049.1637	3068.2636	3080.3047	3093.4104	3100.044	3108.6482	3109.0198	3110.775	3146.4519	3503.4378
CCC1N(C)C1(C)C#C	CC[C@H]1N(C)[C@]1(C)C#C	
InChI=1S/C8H13N/c1-5-7-8(3,6-2)9(7)4/h2,7H,5H2,1,3-4H3	InChI=1S/C8H13N/c1-5-7-8(3,6-2)9(7)4/h2,7H,5H2,1,3-4H3/t7-,8-,9?/m1/s1
