17
gdb 45435	2.62182	1.68043	1.66142	1.1687	66.57	-0.2486	-0.0249	0.2237	913.245	0.138193	-458.989236	-458.982192	-458.981247	-459.021059	27.414	
O	 0.0010690778	-0.0403559894	 0.0039863242	-0.320793
C	-0.0105285084	 1.1639949218	 0.0111978822	 0.41704
C	-1.269565109	 2.0301325414	 0.0314196835	-0.354779
C	-0.8128863918	 3.4960263658	 0.0320861111	 0.191316
O	-0.0479721871	 3.7637181707	 1.1899092157	-0.266101
C	 1.1422482976	 2.9670866061	 1.2413560206	-0.07971
C	 1.2208849339	 2.0601673538	-0.0021305788	-0.184824
C	 1.1082057994	 2.9780993276	-1.2349332052	-0.079766
O	-0.0798753119	 3.774343947	-1.1436891749	-0.266052
H	-1.885190007	 1.8097746218	-0.8466994915	 0.141865
H	-1.8621061997	 1.8017117786	 0.9232394874	 0.141776
H	-1.6457659395	 4.2001559214	 0.0466507104	 0.099799
H	 2.0114670682	 3.6371259598	 1.2653624362	 0.114287
H	 1.139872297	 2.3785211704	 2.1672031887	 0.116644
H	 2.1375994828	 1.4683682276	-0.0173887872	 0.09827
H	 1.9766099228	 3.6483090977	-1.2769793005	 0.114354
H	 1.0801533348	 2.3977904379	-2.1655568218	 0.116674
64.0716	152.8011	285.6484	351.6935	384.6228	450.5572	506.2452	579.5367	611.7657	657.2511	756.4546	848.7461	863.322	876.9997	924.4266	964.0577	968.6492	1010.8193	1018.1679	1058.2406	1071.851	1148.1336	1179.807	1206.399	1222.3394	1222.4468	1286.585	1290.1416	1323.3714	1358.3784	1365.8804	1405.758	1412.7395	1430.8946	1520.0376	1531.5976	1844.4992	3011.1786	3012.3924	3048.7751	3051.0075	3055.3169	3103.3517	3108.6403	3114.2539
O=C1CC2OCC1CO2	O=C1C[C@H]2OC[C@@H]1CO2	
InChI=1S/C6H8O3/c7-5-1-6-8-2-4(5)3-9-6/h4,6H,1-3H2	InChI=1S/C6H8O3/c7-5-1-6-8-2-4(5)3-9-6/h4,6H,1-3H2/t4-,6+
