17
gdb 17487	3.48167	2.509	1.95583	0.7078	66.46	-0.2307	0.0875	0.3182	749.8138	0.143533	-363.819291	-363.812852	-363.811907	-363.849362	26.131	
C	 0.0356004389	 1.4912103571	 0.118238939	-0.483392
C	-0.022276184	-0.0083391346	-0.0099488156	 0.392764
C	 0.2385622241	-0.7009552876	-1.375944388	-0.203572
N	-0.9168374913	-1.6423396942	-1.1700775978	-0.156153
C	-0.8244336122	-2.138388673	 0.2365406724	-0.048233
C	 0.4949544772	-2.0090773911	 0.9826364207	-0.112537
O	 0.7857726755	-0.6094547799	 1.0013418511	-0.295281
C	-1.3635751992	-0.7927345287	-0.0054430893	-0.101961
H	 1.0614075153	 1.8457989053	-0.0206603361	 0.13097
H	-0.6011727931	 1.9680903298	-0.6318948792	 0.121944
H	-0.2995697583	 1.8009374296	 1.1126565797	 0.129345
H	 0.0112797083	-0.0639649124	-2.2344534734	 0.109662
H	 1.2176244705	-1.1707765178	-1.5175471101	 0.102726
H	-1.472066933	-2.9857559984	 0.4303713164	 0.104337
H	 0.4046983256	-2.3685653415	 2.0142242829	 0.111472
H	 1.3067355722	-2.5692007634	 0.4978228895	 0.104487
H	-2.3792947464	-0.4433581892	 0.1347521477	 0.093422
211.4041	230.4383	278.3295	321.7144	421.3802	453.0271	604.3037	661.2809	717.5752	770.1384	789.9149	854.7278	872.8159	902.4013	931.9178	970.547	989.1352	990.7536	1041.2456	1065.5035	1100.9785	1152.9419	1160.7091	1199.818	1204.5343	1222.55	1244.5369	1272.4584	1339.8757	1364.1752	1395.7198	1418.2064	1481.4954	1492.3591	1494.8752	1522.286	3003.9256	3041.4788	3045.2051	3055.1839	3105.275	3114.1071	3121.7044	3179.6079	3191.2963
CC12CN3C(CO1)C23	C[C@@]12CN3[C@@H](CO1)[C@@H]23	
InChI=1S/C6H9NO/c1-6-3-7-4(2-8-6)5(6)7/h4-5H,2-3H2,1H3	InChI=1S/C6H9NO/c1-6-3-7-4(2-8-6)5(6)7/h4-5H,2-3H2,1H3/t4-,5-,6-,7?/m0/s1
