18
gdb 61005	2.86148	1.01092	0.88655	3.3779	75.44	-0.2505	-0.0323	0.2183	1337.3509	0.145919	-439.100574	-439.09119	-439.090246	-439.135444	33.126	
C	-0.6462674369	 1.1526124923	 0.1213251095	-0.354783
N	 0.0000297477	-0.1501687854	 0.20160499	-0.052911
C	 0.7164855259	-0.4809812596	 1.3249500139	 0.154628
O	 0.7792680241	 0.185714069	 2.333866514	-0.331252
C	 0.1058563023	-0.9172275998	-0.9997756404	 0.005757
C	-0.0103480393	-2.4029190849	-0.9740042717	-0.32552
C	-1.1298445625	-1.5886613664	-1.6095225887	-0.116306
C	-2.4356329626	-1.5428052864	-0.9091484996	 0.161645
O	-3.501345152	-1.4916725068	-1.4720277591	-0.266746
H	-0.1514753709	 1.7894780542	-0.622198919	 0.128794
H	-1.6983963858	 1.0450866076	-0.1617236361	 0.138993
H	-0.574009036	 1.6205039347	 1.1026901162	 0.172932
H	 1.2333176101	-1.4506449927	 1.2093259006	 0.084015
H	 0.7751312061	-0.4947450612	-1.7492338093	 0.116001
H	 0.6246745575	-2.9864112137	-1.6294127536	 0.14209
H	-0.243625704	-2.8782640248	-0.0276399231	 0.142132
H	-1.2037853862	-1.5740003998	-2.6907897403	 0.116886
H	-2.3682257677	-1.5701783563	 0.2014518767	 0.083645
62.3512	82.4416	137.3192	161.0269	188.2895	245.6041	307.2842	322.9861	344.2878	429.3805	448.4863	569.798	656.4057	807.1524	851.017	865.1866	901.6708	989.8674	1035.0206	1046.2362	1057.3871	1085.1614	1124.7026	1139.0495	1162.6344	1183.2333	1189.8865	1292.7736	1342.6555	1373.3366	1410.8386	1439.2574	1443.856	1445.7289	1482.8302	1497.8185	1513.8065	1799.2621	1817.4852	2884.0156	2972.2844	3025.9954	3084.1444	3099.25	3145.6245	3163.4381	3187.5996	3235.258
CN(C=O)C1CC1C=O	CN(C=O)[C@H]1C[C@H]1C=O	
InChI=1S/C6H9NO2/c1-7(4-9)6-2-5(6)3-8/h3-6H,2H2,1H3	InChI=1S/C6H9NO2/c1-7(4-9)6-2-5(6)3-8/h3-6H,2H2,1H3/t5-,6-/m0/s1
