20
gdb 102023	2.40779	1.10548	0.80156	1.2764	78.15	-0.251	-0.0446	0.2065	1468.8075	0.168272	-440.335012	-440.324225	-440.323281	-440.372021	36.891	
C	-0.2276965331	 1.5965508921	 0.028895882	-0.399724
C	 0.0163594709	 0.0861122758	 0.098254399	-0.187254
C	 0.715058025	-0.4650078719	-1.1478510963	-0.193993
C	 2.1728315874	-0.0431599791	-1.2291589969	 0.149741
O	 2.8911945219	-0.2345504904	-2.182402592	-0.265595
C	 0.5686784357	-2.0141302095	-1.2581881752	 0.392034
O	-0.12302534	-2.6396116021	-0.4764145168	-0.368427
N	 1.2242400643	-2.55819048	-2.3121776927	-0.30708
C	 1.2203606169	-3.9841156187	-2.5775437589	-0.334324
H	 0.7043470277	 2.163448829	-0.0792753806	 0.114358
H	-0.8669419474	 1.853328033	-0.8233780992	 0.119626
H	-0.7236817075	 1.9532705069	 0.9362099646	 0.123123
H	 0.618151238	-0.160330749	 0.9821675727	 0.106785
H	-0.9253196081	-0.4512581596	 0.2258362864	 0.132877
H	 0.239502319	-0.0660610491	-2.0554452482	 0.129415
H	 2.5683127697	 0.4602092661	-0.3202982994	 0.100223
H	 1.8551845088	-1.9568468923	-2.8240723127	 0.263772
H	 2.2005893644	-4.433993557	-2.3809678319	 0.129416
H	 0.4830234348	-4.4433339834	-1.9185393611	 0.167548
H	 0.9480882116	-4.1837375108	-3.6189532727	 0.12748
57.0432	65.5239	74.8162	106.7407	152.6622	164.0303	212.2148	242.6824	306.2157	338.3734	360.3601	408.7662	555.9849	610.3609	679.9468	722.5876	772.2515	854.5443	926.1231	974.6252	998.7447	1049.4978	1077.6085	1143.4261	1151.7938	1157.5906	1181.0025	1221.9818	1248.0744	1268.9744	1324.3891	1373.7792	1415.0744	1419.739	1440.1941	1488.2596	1496.6359	1500.9499	1501.148	1506.2569	1582.8561	1785.9864	1801.0506	2898.114	3014.6834	3028.1625	3029.0902	3039.4214	3083.816	3083.9892	3107.8678	3118.0011	3155.2339	3583.5917
CCC(C=O)C(=O)NC	CC[C@@H](C=O)C(=O)NC	
InChI=1S/C6H11NO2/c1-3-5(4-8)6(9)7-2/h4-5H,3H2,1-2H3,(H,7,9)	InChI=1S/C6H11NO2/c1-3-5(4-8)6(9)7-2/h4-5H,3H2,1-2H3,(H,7,9)/t5-/m0/s1
