20
gdb 100436	3.77569	0.64095	0.57849	2.6688	80.79	-0.2428	-0.0208	0.2221	1898.7606	0.167263	-440.299377	-440.288445	-440.287501	-440.337671	36.662	
C	 0.059545557	 1.4101502474	 0.011253676	-0.226134
O	 0.0235790484	-0.0163362345	-0.0048122313	-0.239453
C	 0.5377417982	-0.6205704766	-1.0982436099	 0.410289
C	 0.4358543263	-2.1231716714	-0.9615374688	-0.490578
N	 1.0190552639	 0.0705906032	-2.0464590531	-0.300076
C	 1.5647808059	-0.5703872516	-3.2237038597	-0.1734
C	 0.788112935	-0.1219931688	-4.4775982863	-0.256405
C	 1.4731564191	-0.5558225405	-5.7505096585	 0.156609
O	 0.9663562949	-1.211586744	-6.6240736044	-0.237493
H	 1.0886438339	 1.7748792916	-0.0521381162	 0.132432
H	-0.5028546178	 1.8240302588	-0.8303545781	 0.132026
H	-0.3945391674	 1.7049507884	 0.9583663115	 0.125008
H	-0.0893906534	-2.3741833214	-0.0403498424	 0.145745
H	-0.1045210731	-2.5580192317	-1.8068731761	 0.147916
H	 1.4300582834	-2.5788770812	-0.9345149988	 0.147435
H	 2.611711632	-0.2534279625	-3.3305831565	 0.108896
H	 1.5713491278	-1.6690582204	-3.1771011947	 0.099922
H	-0.2356949671	-0.5054883143	-4.4706352624	 0.118553
H	 0.7455858414	 0.9756790959	-4.4672095484	 0.129577
H	 2.5337264415	-0.2166080764	-5.835132872	 0.069131
27.1834	61.0878	69.7167	88.3376	113.4724	174.547	194.7494	242.2642	271.6406	331.4683	404.3845	476.245	529.0622	584.3353	631.7977	781.0182	813.5479	867.2463	966.063	997.3799	1054.1026	1069.5957	1089.7719	1117.5855	1133.2201	1180.2304	1214.7483	1220.9991	1267.1179	1302.8213	1319.6069	1384.6208	1402.6796	1431.404	1464.5601	1469.2791	1475.8451	1484.8553	1488.3985	1499.3239	1511.3596	1744.7242	1835.908	2843.2981	2992.1229	3024.0804	3030.8952	3044.0345	3055.2333	3107.1883	3114.7295	3115.8437	3147.5396	3156.7622
COC(C)=NCCC=O	COC(=NCCC=O)C	
InChI=1S/C6H11NO2/c1-6(9-2)7-4-3-5-8/h5H,3-4H2,1-2H3	InChI=1S/C6H11NO2/c1-6(9-2)7-4-3-5-8/h5H,3-4H2,1-2H3
