18
gdb 7653	5.01531	1.26021	1.07182	3.7661	69.56	-0.2322	0.0564	0.2886	1116.6467	0.154573	-381.151475	-381.14301	-381.142066	-381.18477	30.805	
C	 0.210425645	 1.5267536278	 0.082443117	-0.40131
C	-0.0574782991	 0.0338727238	-0.0427457565	 0.011818
C	 0.9558154214	-0.7695646182	-0.9150598634	-0.173468
N	 1.4282885596	-1.4376049263	 0.3017199203	-0.096272
C	 0.3979578561	-0.8398394098	 1.1650480396	-0.197359
C	 1.9501596193	-2.7076097159	 0.3226628711	 0.40541
N	 1.9426366042	-3.3029963362	 1.5794313413	-0.557667
O	 2.3562990094	-3.2687937907	-0.6789963977	-0.394913
H	 1.2514594647	 1.7157802166	 0.3675938842	 0.123186
H	 0.0254371362	 2.0402614559	-0.8669970178	 0.121932
H	-0.4345270086	 1.9837338072	 0.8407489167	 0.117752
H	-1.0974486957	-0.1439951753	-0.3246319153	 0.08498
H	 0.5146136686	-1.462595732	-1.6386028574	 0.120517
H	 1.7215359821	-0.1725424159	-1.4222374098	 0.110547
H	 0.7939462335	-0.2803660491	 2.0223858572	 0.100158
H	-0.3441919684	-1.5621368296	 1.5253515289	 0.115567
H	 2.0161381562	-2.6975659279	 2.3832970795	 0.25017
H	 2.5326651854	-4.1201361943	 1.6228535323	 0.258951
53.8225	115.2382	163.239	168.817	246.0049	341.3426	372.1369	412.8511	453.9883	551.0895	568.9842	676.6102	776.2784	790.7352	890.5382	909.5268	914.4061	937.5098	1062.8998	1086.0533	1124.6447	1149.368	1153.5794	1188.2336	1195.7849	1217.7201	1273.7758	1295.6714	1335.3529	1371.2418	1414.3854	1437.3339	1495.3909	1497.3545	1511.884	1531.3144	1622.358	1791.1126	3008.0453	3027.6531	3037.6674	3053.3696	3075.1957	3085.2249	3098.44	3103.8938	3573.1439	3688.6817
CC1CN(C1)C(N)=O	CC1CN(C1)C(=O)N	
InChI=1S/C5H10N2O/c1-4-2-7(3-4)5(6)8/h4H,2-3H2,1H3,(H2,6,8)	InChI=1S/C5H10N2O/c1-4-2-7(3-4)5(6)8/h4H,2-3H2,1H3,(H2,6,8)
