20
gdb 80181	2.25027	1.66098	1.38649	2.8047	79.13	-0.2461	0.0269	0.273	1060.5563	0.171781	-403.160283	-403.151756	-403.150811	-403.193128	32.968	
C	-0.4363898334	 1.4000401998	-0.1286219992	-0.423971
C	-0.0497595994	-0.057114474	 0.0120471643	-0.045809
C	 1.3151471716	-0.5824981841	-0.3398933441	 0.053044
O	 2.3555842665	 0.376197857	-0.4409175159	-0.236021
C	 2.6110470623	 0.9406348999	 0.7830244305	 0.394201
N	 3.3923337727	 1.9141924881	 0.9690763862	-0.541242
C	 1.822499306	 0.2239081507	 1.8734213186	-0.085679
C	 1.2490850059	 1.1668965217	 2.9345690625	-0.396755
C	 0.8542582447	-0.6504038286	 1.0904316104	-0.110836
H	 0.3944173527	 2.0783993392	 0.0740326242	 0.143926
H	-0.7802474409	 1.6004740205	-1.1490540499	 0.12147
H	-1.2529729849	 1.655551476	 0.5543088565	 0.12287
H	-0.8469330141	-0.7438450216	-0.2657450969	 0.093131
H	 1.4774078462	-1.4295135353	-0.9949746698	 0.105707
H	 3.8028416748	 2.2230768124	 0.0864658211	 0.222584
H	 2.5344550294	-0.4490717574	 2.3716261827	 0.109387
H	 0.4930417315	 1.833340548	 2.5131368794	 0.123284
H	 0.7863796568	 0.5964320518	 3.7454297315	 0.110661
H	 2.0500769597	 1.7833651688	 3.349246945	 0.145661
H	 0.5532346219	-1.5919682529	 1.5342965029	 0.094387
97.2159	161.054	189.341	212.5617	231.1593	263.8957	312.0547	448.4886	517.2435	552.5901	603.0735	692.4033	729.1821	762.3378	775.3356	803.9112	891.7518	900.168	943.3252	984.8763	1023.8835	1044.6825	1057.842	1081.7785	1092.7024	1128.9844	1135.705	1150.6197	1165.6347	1227.3591	1263.9921	1299.4808	1332.8604	1364.6659	1375.3696	1406.4322	1425.4539	1437.4902	1488.7119	1498.536	1499.4421	1506.9682	1771.1588	3009.816	3039.1775	3050.1352	3095.5747	3120.5538	3121.8006	3135.6463	3138.4109	3175.0378	3189.8601	3475.3563
CC1C2OC(=N)C(C)C12	C[C@H]1[C@H]2O[C]([NH])[C@@H](C)[C@@H]12	
InChI=1S/C7H11NO/c1-3-5-4(2)7(8)9-6(3)5/h3-6,8H,1-2H3	InChI=1S/C7H11NO/c1-3-5-4(2)7(8)9-6(3)5/h3-6,8H,1-2H3/t3-,4+,5-,6-/m1/s1
