25
gdb 57421	2.44681	1.09154	1.04941	1.2724	89.25	-0.2435	0.0731	0.3167	1372.7792	0.225582	-389.484806	-389.473773	-389.472829	-389.520048	42.812	
C	 0.6143740882	 2.2240396315	-0.807483677	-0.423547
C	-0.0181782235	 0.8479221218	-0.5338875072	 0.226767
C	 0.1875342899	 0.4858351843	 0.9506648729	-0.398165
C	-1.5308731499	 0.9475882405	-0.8270017776	-0.390789
C	 0.5261562376	-0.3018399385	-1.390603349	 0.002796
C	 0.936869404	-0.2184062189	-2.8513793286	-0.384696
C	 1.934132706	-0.6455426335	-1.7942260139	 0.372309
C	 3.1692576738	 0.1827740572	-1.517342928	-0.454951
O	 2.1788683645	-2.0313977196	-1.6801623003	-0.466934
H	 1.6535067747	 2.276151515	-0.4745273686	 0.115679
H	 0.5770864958	 2.4900933632	-1.8687041275	 0.110046
H	 0.0621967678	 2.9958325385	-0.2605058103	 0.10907
H	-0.2456351138	 1.2512027918	 1.6044351243	 0.103808
H	-0.2885966903	-0.470194271	 1.1931065247	 0.110919
H	 1.2517728843	 0.3982345369	 1.1918729893	 0.114354
H	-1.711828906	 1.2059906322	-1.8756553425	 0.112342
H	-2.0362158855	-0.0030270187	-0.6254758114	 0.107914
H	-1.9999387665	 1.7158778006	-0.2026612794	 0.103454
H	-0.0167090456	-1.2209164347	-1.1779647684	 0.093851
H	 0.5553448563	-0.9740528206	-3.5297691942	 0.10662
H	 1.0729224711	 0.7626257212	-3.2960840173	 0.105735
H	 3.0097737166	 1.2460602186	-1.6989662709	 0.122459
H	 3.5136222609	 0.0477923824	-0.4868117957	 0.123617
H	 3.9814703929	-0.1408142556	-2.1815174805	 0.102123
H	 2.817831617	-2.2707493047	-2.3614607331	 0.275218
44.8366	140.0663	179.7633	215.3555	249.9865	262.0257	274.4957	286.1393	308.0682	321.3528	354.516	366.1808	383.2447	432.0788	439.3918	509.053	550.3612	703.0775	722.7957	836.2961	903.9452	929.2207	932.4522	934.6382	955.549	959.4067	980.5595	1038.18	1042.9894	1064.7223	1081.7863	1107.1441	1135.5512	1214.8994	1239.1072	1244.8358	1286.0737	1301.3855	1368.0333	1395.4385	1397.6781	1408.5185	1420.8377	1435.7987	1476.0874	1481.2577	1485.494	1486.1755	1494.9696	1502.8711	1510.1253	1513.4997	1524.1737	3022.1022	3023.5066	3027.3962	3038.5801	3083.0273	3091.3356	3092.8212	3097.5445	3099.3981	3101.8481	3119.2567	3123.9292	3124.2942	3146.448	3211.498	3783.7388
CC(C)(C)C1CC1(C)O	CC(C)(C)[C@H]1C[C@]1(C)O	
InChI=1S/C8H16O/c1-7(2,3)6-5-8(6,4)9/h6,9H,5H2,1-4H3	InChI=1S/C8H16O/c1-7(2,3)6-5-8(6,4)9/h6,9H,5H2,1-4H3/t6-,8+/m1/s1
