25
gdb 59756	2.41713	1.22722	0.9435	1.4666	87.94	-0.2554	0.0607	0.3161	1383.0982	0.22909	-389.514058	-389.503739	-389.502795	-389.549582	39.049	
C	-0.0203362574	 1.571531149	 0.0534506782	-0.395578
C	 0.0511649714	 0.0376667915	 0.0912764088	 0.040305
C	 0.7335450736	-0.435918997	 1.3832798835	-0.40062
C	-1.3380347466	-0.5993631916	-0.0831879556	 0.030393
C	-2.0801981775	-0.2633731947	-1.3927201092	-0.236414
C	-3.2571119183	-1.259197692	-1.4234205138	-0.213463
C	-2.7526434172	-2.5165530548	-0.6600385687	-0.242077
C	-1.3683153849	-2.1489209132	-0.0698283276	 0.116355
O	-0.2919386672	-2.7278256846	-0.8083729033	-0.437236
H	 0.9754812199	 2.0088627172	 0.1814423049	 0.108018
H	-0.4250297071	 1.9425667464	-0.8928059035	 0.110283
H	-0.6549825932	 1.9560871362	 0.8614692267	 0.107838
H	 0.6732495154	-0.2949817332	-0.7500109852	 0.066182
H	 0.1249228475	-0.1936918598	 2.2634536823	 0.103561
H	 0.90499862	-1.5150028453	 1.3706979902	 0.130768
H	 1.7043309604	 0.0545619145	 1.5110770407	 0.104485
H	-1.9752442362	-0.2674068034	 0.7523306575	 0.063734
H	-2.4103418482	 0.7764497621	-1.4497510031	 0.100092
H	-1.4097749365	-0.4242334237	-2.2500777455	 0.082391
H	-4.1187788497	-0.8246978092	-0.9062923449	 0.101439
H	-3.5869352292	-1.4869381777	-2.4407757542	 0.096138
H	-3.4507961685	-2.8014669662	 0.1325260426	 0.101208
H	-2.640912717	-3.3910651013	-1.3074897923	 0.103421
H	-1.2412840862	-2.5483401391	 0.9389495965	 0.081716
H	-0.3727387873	-2.4496339499	-1.7267566152	 0.277062
46.8961	67.2717	140.7758	172.6469	235.2272	238.2492	267.6446	283.3729	318.3267	376.8251	416.4486	440.5692	513.0654	606.0861	703.7995	785.4953	810.7776	866.2475	887.6753	898.4497	926.0844	933.7629	967.3981	983.4628	998.9643	1036.5442	1049.6374	1080.3349	1127.7184	1162.0029	1168.1449	1194.5078	1215.8042	1239.2238	1261.6582	1274.0938	1299.0456	1316.9846	1334.4265	1335.72	1351.2426	1356.854	1394.8248	1397.8837	1419.3195	1435.6666	1484.4222	1488.6947	1495.0585	1498.3582	1505.2264	1513.3737	1513.8988	2976.7504	3000.7946	3019.4001	3022.6951	3029.1049	3045.003	3056.8103	3078.6395	3084.236	3086.7824	3091.3433	3093.5326	3103.7198	3105.9958	3119.5647	3808.3956
CC(C)C1CCCC1O	CC(C)[C@H]1CCC[C@H]1O	
InChI=1S/C8H16O/c1-6(2)7-4-3-5-8(7)9/h6-9H,3-5H2,1-2H3	InChI=1S/C8H16O/c1-6(2)7-4-3-5-8(7)9/h6-9H,3-5H2,1-2H3/t7-,8-/m1/s1
