16
gdb 125362	3.26979	1.63273	1.09637	2.6945	77.9	-0.1965	0.0159	0.2125	1053.4803	0.127827	-396.963816	-396.956247	-396.955303	-396.995593	28.971	
C	-0.0183123958	 1.5366762069	 0.0172270242	-0.515289
C	-0.0067847331	 0.0397402579	 0.0159977161	 0.107131
C	-0.0302989079	-0.790851806	-1.0871719036	-0.132785
N	-0.0097384467	-2.1222880817	-0.712750694	-0.429814
C	 0.0281654085	-2.1735055846	 0.6627385782	 0.253192
C	 0.0304784503	-0.857811984	 1.1264316749	 0.327865
N	 0.0682455806	-0.9514260413	 2.485581227	-0.371029
N	 0.0897664417	-2.2424166381	 2.9072784871	-0.223406
C	 0.065753901	-2.9956725787	 1.8072440292	-0.137216
H	 0.8748897521	 1.9533586337	 0.4990300867	 0.12381
H	-0.0517177466	 1.9268063353	-1.0039770138	 0.124169
H	-0.8876836488	 1.9396208156	 0.5514232925	 0.123749
H	-0.0609544149	-0.5201313486	-2.1321581982	 0.118577
H	-0.0207243832	-2.9004347133	-1.3456308358	 0.261081
H	 0.0811332199	-0.2227914684	 3.1758698302	 0.265581
H	 0.076644513	-4.0709770347	 1.8979867093	 0.104384
135.9834	180.8067	234.0941	259.4455	266.7194	347.578	418.6754	515.6707	601.6713	612.9333	660.3658	689.6429	750.1185	755.7087	815.2918	840.4388	971.9298	1001.7439	1065.6928	1088.0359	1100.1907	1118.1704	1234.1081	1256.7257	1295.6983	1347.332	1386.1308	1419.2976	1423.2627	1482.216	1493.5211	1513.8014	1521.5818	1596.985	1628.5829	3017.3507	3061.4011	3105.4184	3244.7857	3250.2113	3696.2924	3703.9156
CC1=CNC2=C1NN=C2	Cc1c[nH]c2c1[nH]nc2	
InChI=1S/C6H7N3/c1-4-2-7-5-3-8-9-6(4)5/h2-3,7H,1H3,(H,8,9)	InChI=1S/C6H7N3/c1-4-2-7-5-3-8-9-6(4)5/h2-3,7H,1H3,(H,8,9)
