21
gdb 118010	1.92176	1.1566	0.87951	3.1327	79.88	-0.2621	0.0339	0.296	1442.3245	0.180771	-420.414133	-420.403168	-420.402224	-420.451033	38.534	
C	 0.0021669356	 1.5155404824	 0.1241289873	-0.388162
C	 0.0856180885	 0.004688851	-0.0077972231	-0.040106
O	 0.6978545782	-0.5090046166	 1.1638495665	-0.268784
C	 0.7848136371	-1.9218285744	 1.2409830548	 0.150142
C	 1.9907467601	-2.473557938	 0.4796014569	-0.412705
C	 0.8613800476	-2.244420279	 2.7501276207	-0.139141
N	 2.0140956511	-1.5720462982	 3.3449353418	-0.500502
C	-0.4230952078	-1.8955187522	 3.400277757	 0.266628
N	-1.4057815816	-1.6230614069	 3.9451940616	-0.329612
H	 1.001393022	 1.9480201356	 0.2281113861	 0.126484
H	-0.4717549399	 1.9475044967	-0.7621702512	 0.118605
H	-0.5863233893	 1.7903430207	 1.0037106184	 0.135669
H	-0.9195184703	-0.4312382549	-0.1221695834	 0.098748
H	 0.6663572656	-0.269694269	-0.90174452	 0.092907
H	-0.1407594575	-2.3709794609	 0.8492258846	 0.08343
H	 2.9166505178	-2.0921750483	 0.9137194119	 0.1482
H	 2.0060007611	-3.5673921727	 0.5250177474	 0.116264
H	 1.943482773	-2.1859396531	-0.5739925935	 0.120161
H	 0.9959175522	-3.3270059022	 2.8589135924	 0.125355
H	 1.9107328126	-0.5717989893	 3.1999161805	 0.2531
H	 2.0393948338	-1.7343454608	 4.3462208435	 0.24332
43.8269	57.3309	97.7568	144.1538	168.8086	205.7018	247.731	250.5519	288.7475	308.4763	338.7189	384.5774	442.2512	518.6132	588.7585	682.7591	808.8695	822.0833	866.1446	893.2394	949.525	971.9084	1026.8471	1072.909	1112.224	1127.5489	1145.8416	1176.116	1187.6174	1223.9559	1297.6604	1314.6144	1364.6632	1373.5982	1394.1006	1403.6154	1407.0264	1436.634	1483.3793	1489.8473	1495.6545	1500.511	1528.0488	1650.3674	2346.1233	2973.7776	2989.8129	3005.6157	3046.0969	3046.302	3051.024	3113.6665	3120.6549	3125.4808	3146.1268	3504.3174	3587.1847
CCOC(C)C(N)C#N	CCO[C@@H](C)[C@@H](N)C#N	
InChI=1S/C6H12N2O/c1-3-9-5(2)6(8)4-7/h5-6H,3,8H2,1-2H3	InChI=1S/C6H12N2O/c1-3-9-5(2)6(8)4-7/h5-6H,3,8H2,1-2H3/t5-,6-/m0/s1
