17
gdb 18703	3.30818	2.28935	1.56833	1.9667	68.07	-0.244	0.0264	0.2704	835.2929	0.143934	-363.861954	-363.855039	-363.854094	-363.89296	26.939	
C	 0.2123037076	 1.5241266972	-0.0615582853	-0.374863
C	-0.0107216259	 0.0111672255	 0.0249568164	 0.023867
N	 0.34987159	-0.6016344734	-1.2535100581	-0.275644
C	 0.9982528961	-1.6839697394	-1.2863385759	 0.118772
O	 1.5052000416	-2.4320456116	-0.2732516627	-0.224143
C	 1.4031674206	-1.9019768665	 1.030058752	 0.105263
C	 2.1732757444	-0.6539227603	 1.3571633131	-0.321084
C	 0.6608336738	-0.6186299416	 1.2395052616	-0.070414
H	 1.2757617677	 1.7532179667	-0.179827236	 0.116653
H	-0.3220046744	 1.9319881818	-0.9234279052	 0.125508
H	-0.1458082618	 2.02089078	 0.8460738418	 0.106515
H	-1.0911435913	-0.1574864583	 0.1391131099	 0.093605
H	 1.2345394752	-2.1614743729	-2.2354916117	 0.123573
H	 1.3398048947	-2.7105078825	 1.7482260408	 0.109573
H	 2.624998825	-0.5659835505	 2.3387505395	 0.119013
H	 2.7524070215	-0.2168521897	 0.5500989513	 0.131183
H	 0.1056703952	-0.5240852744	 2.1682155886	 0.092624
91.4185	220.5644	240.3738	325.4619	367.3202	418.045	543.4319	577.9928	628.2537	731.0965	790.717	828.8752	862.903	890.716	958.4151	961.0116	1015.9526	1021.8289	1056.3162	1076.5751	1113.1795	1121.7121	1133.9432	1168.041	1206.7269	1235.8095	1334.022	1346.2379	1365.3027	1398.3898	1407.8112	1425.3375	1480.7045	1487.8593	1496.2897	1733.9063	2998.287	3038.7692	3109.5326	3123.6618	3134.6272	3146.5665	3158.1762	3183.7042	3223.7596
CC1N=COC2CC12	C[C@H]1N=CO[C@H]2C[C@@H]12	
InChI=1S/C6H9NO/c1-4-5-2-6(5)8-3-7-4/h3-6H,2H2,1H3	InChI=1S/C6H9NO/c1-4-5-2-6(5)8-3-7-4/h3-6H,2H2,1H3/t4-,5+,6+/m1/s1
