25
gdb 77933	2.5512	1.3972	1.03532	0.0503	94.15	-0.2739	0.0914	0.3653	1299.8671	0.227774	-352.296163	-352.28582	-352.284876	-352.331	39.517	
C	 1.207508694	 1.7652729948	 0.0564427275	-0.455592
C	 0.8015134343	 0.2915211012	-0.0590906057	 0.068529
C	 1.6616213051	-0.8553821839	-0.6999958656	-0.135568
C	 2.5578529017	-0.8568602597	 0.5821839309	 0.068519
C	 3.6661271537	 0.177425726	 0.8105353932	-0.455591
C	 1.0731912277	-0.7443575969	 1.0812402678	-0.13557
C	 0.7132173101	-1.8833550922	 0.0420432422	 0.383464
C	-0.7521593618	-2.0396962382	-0.4026982195	-0.474171
C	 1.216520489	-3.3203777957	 0.2682934964	-0.474173
H	 1.6398665637	 2.141116817	-0.8783069329	 0.115062
H	 0.3129060082	 2.3652573174	 0.2551634759	 0.107497
H	 1.9116778458	 1.9772360259	 0.8599803722	 0.124469
H	-0.2202679787	 0.2852388603	-0.4313530713	 0.06135
H	 2.0008869387	-0.917785483	-1.7386476647	 0.053263
H	 2.9910675934	-1.8253932133	 0.8207572916	 0.06135
H	 3.6775623071	 0.5374608718	 1.8460006875	 0.11507
H	 4.6367906341	-0.2967382728	 0.6295301532	 0.107494
H	 3.6145049352	 1.0456490755	 0.1548004771	 0.124472
H	 0.7339206763	-0.6819726295	 2.1198920969	 0.053264
H	-1.3395978171	-1.1231142455	-0.4306646787	 0.117426
H	-0.7978068215	-2.4925420581	-1.4000769574	 0.114323
H	-1.2672915042	-2.7255869675	 0.2794245716	 0.111682
H	 0.7232942492	-3.7598205909	 1.1432412997	 0.114323
H	 0.9431696381	-3.9405419199	-0.5929737139	 0.111683
H	 2.2910825581	-3.430166773	 0.4070282058	 0.117425
84.3468	94.3845	140.6567	157.9641	167.8451	247.8153	248.6979	269.1969	367.858	414.029	439.6322	443.4732	500.6946	565.7154	704.1128	709.8714	795.8787	805.846	815.7085	853.4249	950.5914	955.7296	1007.319	1008.9957	1011.065	1047.2099	1060.5769	1067.4827	1095.1544	1101.5871	1113.3163	1150.3441	1163.9695	1201.5299	1217.9622	1218.8212	1236.4222	1277.2848	1292.6666	1392.871	1409.3382	1417.8551	1425.3206	1432.6158	1464.0905	1486.9655	1490.4764	1495.1467	1495.2868	1507.9267	1517.5984	1522.38	1530.7365	3028.834	3033.2124	3033.588	3035.6124	3057.5649	3063.0995	3079.3049	3081.347	3081.5319	3084.6985	3109.9256	3113.7903	3135.9719	3144.3836	3147.7738	3156.9707
CC1C2C(C)C1C2(C)C	C[C@H]1[C@H]2[C@@H](C)[C@@H]1C2(C)C	
InChI=1S/C9H16/c1-5-7-6(2)8(5)9(7,3)4/h5-8H,1-4H3	InChI=1S/C9H16/c1-5-7-6(2)8(5)9(7,3)4/h5-8H,1-4H3/t5-,6+,7-,8+
