20
gdb 6605	5.05932	1.35372	1.31365	1.1684	76.15	-0.2452	0.0926	0.3378	1039.7476	0.176439	-348.957454	-348.949252	-348.948308	-348.989813	31.387	
C	-0.0167683589	 1.3420844921	 0.0138508645	-0.261962
O	 0.0392103286	-0.0685851876	-0.0637222923	-0.285262
C	 0.6782162008	-0.5475408087	-1.1849311394	 0.447982
C	 2.1656806504	-0.3468149545	-1.6197036207	-0.321999
C	 1.5249378806	-1.3094858586	-2.6685550465	 0.329532
C	 2.2035492295	-1.931561604	-3.8574448884	-0.504713
C	 0.8524952488	-2.0523064886	-1.4682572046	-0.311178
C	 0.2825342599	-0.3642357252	-2.6854968392	-0.321991
H	 0.9877870777	 1.7874644927	 0.0436169232	 0.111579
H	-0.5651118881	 1.7741940522	-0.8352617113	 0.111568
H	-0.5421640483	 1.5909028172	 0.9384099805	 0.127368
H	 2.4549925358	 0.6429292117	-1.9848824602	 0.084328
H	 2.9290034576	-0.7764782092	-0.9645589422	 0.088422
H	 3.0511258871	-2.5525171363	-3.5475450872	 0.119025
H	 1.5105409327	-2.5674047243	-4.4190973332	 0.119028
H	 2.5830593745	-1.1644480378	-4.5413859657	 0.117825
H	 1.5187118255	-2.602019594	-0.7973852273	 0.08885
H	-0.057800434	-2.6166124755	-1.689653802	 0.088852
H	-0.6659649309	-0.8097120865	-2.9991580882	 0.088423
H	 0.4328281108	 0.6242167349	-3.1293757896	 0.084323
76.1903	173.0489	174.6105	209.8247	259.5429	299.9363	418.5508	443.3719	550.3739	554.5599	601.42	643.1896	755.9672	780.5514	932.4123	954.5173	961.7783	978.6878	983.5612	1043.8263	1080.2877	1086.1158	1129.1804	1130.6416	1137.7925	1158.5293	1171.0472	1181.0767	1204.2963	1209.8049	1244.2477	1303.6191	1352.075	1413.6066	1482.6556	1487.6471	1490.3463	1490.8883	1493.5221	1495.8547	1506.641	1564.3636	2990.5881	3026.2653	3038.3644	3042.6979	3044.6522	3053.5293	3092.8321	3093.9031	3106.4738	3112.0919	3115.1065	3121.2942
COC12CC(C)(C1)C2	CO[C@@]12C[C@@](C)(C1)C2	
InChI=1S/C7H12O/c1-6-3-7(4-6,5-6)8-2/h3-5H2,1-2H3	InChI=1S/C7H12O/c1-6-3-7(4-6,5-6)8-2/h3-5H2,1-2H3/t6-,7-
