23
gdb 83610	2.25088	1.83712	1.20101	0.0284	89.32	-0.2464	0.0896	0.336	1135.9803	0.207065	-351.119188	-351.110859	-351.109915	-351.152038	33.536	
C	-0.236746664	 1.5343224061	-0.007304179	-0.418311
C	 0.038708312	 0.0358390715	 0.0094310247	 0.032488
C	 1.170642227	-0.5130494413	-0.9139033614	-0.087502
C	 0.9127068426	-1.9108566502	-1.5526369146	-0.227144
C	 1.7157069799	-2.5999613846	-0.4029033073	-0.336953
C	 1.8489800622	-1.2426597693	 0.2998861568	 0.410616
C	 2.979959421	-0.6418856872	 1.1366701628	-0.327031
C	 1.9208082888	 0.2098593634	 1.9040069363	-0.22871
C	 0.7645453139	-0.6009744553	 1.2336799522	-0.091555
H	 0.6773964802	 2.1243730174	 0.1141065539	 0.114473
H	-0.6894537681	 1.8311320624	-0.9601263122	 0.112102
H	-0.9270384671	 1.8222402095	 0.793835623	 0.111288
H	-0.9041204951	-0.4899946997	-0.1859810399	 0.06348
H	 1.7015478286	 0.2128480661	-1.5355710649	 0.051523
H	-0.1440096713	-2.1882471254	-1.6098930599	 0.094925
H	 1.3513427166	-2.0432786639	-2.5444900063	 0.098054
H	 1.2085081355	-3.3924571534	 0.1565960377	 0.091938
H	 2.6789884159	-2.9926342559	-0.7451255516	 0.098597
H	 3.4545832561	-1.3858103331	 1.7859635139	 0.096937
H	 3.7695861678	-0.1065982663	 0.5991027897	 0.090017
H	 1.9610955039	 0.1220146736	 2.9918624076	 0.09921
H	 1.9339484089	 1.2729872531	 1.6548378286	 0.099493
H	 0.1588934446	-1.1901760475	 1.92715684	 0.052064
55.2143	181.9614	203.0669	249.8032	270.395	308.2983	344.9977	480.1251	504.1894	615.9974	690.4737	728.7068	774.0373	788.3842	816.5889	859.9542	882.918	930.1174	936.9838	946.2332	962.4728	985.386	1011.6732	1033.5396	1087.4371	1105.1111	1121.0946	1152.2821	1167.0019	1174.3771	1203.2258	1214.5568	1218.8191	1241.4539	1253.2742	1267.2556	1273.1441	1281.25	1287.4966	1315.5779	1325.001	1369.7583	1407.0086	1471.7043	1474.0231	1487.35	1490.1455	1495.1175	1505.7087	3016.302	3025.8473	3033.1172	3037.7148	3051.4248	3063.664	3067.185	3073.7968	3077.5452	3080.3099	3088.6074	3096.3059	3107.7811	3120.7623
CC1C2CCC22CCC12	C[C@H]1[C@@H]2CC[C@]32CC[C@@H]13	
InChI=1S/C9H14/c1-6-7-2-4-9(7)5-3-8(6)9/h6-8H,2-5H2,1H3	InChI=1S/C9H14/c1-6-7-2-4-9(7)5-3-8(6)9/h6-8H,2-5H2,1H3/t7-,8-,9+/m0/s1
