18
gdb 18108	3.53465	2.24321	1.70393	1.6299	71.14	-0.2427	0.0198	0.2625	812.443	0.157324	-347.824893	-347.818446	-347.817502	-347.855701	25.57	
C	 0.0790193634	 1.1596835538	 0.2820270704	-0.083244
C	 1.4174716249	 1.839647118	-0.0328282218	-0.225933
C	 2.2541809004	 0.6881363501	-0.6352495992	-0.041607
C	 3.154370616	-0.0816964791	 0.3715284723	-0.270197
C	 2.5056088516	-1.4376140677	 0.4954557434	-0.061463
C	 1.446698481	-1.5773381028	-0.2980148097	-0.083493
C	 1.1558125134	-0.3303567904	-1.0972258108	 0.074132
O	-0.1191391241	 0.2462721944	-0.787438194	-0.260498
H	 0.1235909072	 0.6346152851	 1.2493936855	 0.090154
H	-0.7745790118	 1.842449553	 0.3001766877	 0.105335
H	 1.2616169559	 2.6248062828	-0.7788574959	 0.104492
H	 1.8852532625	 2.2953684267	 0.8439401957	 0.096994
H	 2.8471363392	 1.0437186113	-1.479237497	 0.076195
H	 4.1855198014	-0.1660049465	 0.0052955504	 0.107513
H	 3.2242271283	 0.4233950692	 1.3438616153	 0.103153
H	 2.8906166259	-2.2006685628	 1.1646830088	 0.094243
H	 0.8222597468	-2.4600487301	-0.3767931205	 0.09665
H	 1.144964228	-0.5185200353	-2.1763136408	 0.077576
72.0195	185.3686	299.0003	388.1603	487.2379	566.6065	628.6239	728.3929	753.7908	800.2333	842.3851	867.4029	913.2945	946.3028	948.3291	958.0825	984.6424	1003.3334	1032.5862	1056.1497	1092.4703	1112.4144	1128.7016	1191.8057	1200.7216	1237.104	1253.215	1298.217	1307.1725	1323.321	1341.7062	1351.3451	1377.7289	1390.1686	1482.6298	1494.6361	1514.8482	1691.133	2978.715	3017.2168	3039.7398	3043.8777	3053.5273	3090.4283	3092.5386	3106.167	3176.5556	3207.121
C1CC2CC=CC2O1	C1C[C@H]2CC=C[C@H]2O1	
InChI=1S/C7H10O/c1-2-6-4-5-8-7(6)3-1/h1,3,6-7H,2,4-5H2	InChI=1S/C7H10O/c1-2-6-4-5-8-7(6)3-1/h1,3,6-7H,2,4-5H2/t6-,7-/m1/s1
