17
gdb 23141	2.11129	1.3428	0.95303	3.4955	76.58	-0.2522	-0.0128	0.2394	1242.1509	0.135105	-417.965548	-417.956462	-417.955517	-418.000329	32.949	
O	-0.3154726707	 1.7184980449	 1.1656582878	-0.392039
N	-0.0466153705	 0.3477116756	 1.1367870231	-0.17501
C	-0.8847665487	-0.3063443606	 0.420510934	 0.361421
C	-0.6131285651	-1.8021201142	 0.4214846831	-0.416739
C	-0.3089759956	-2.3632600815	-0.8968043947	 0.274207
N	-0.0716218411	-2.8100603434	-1.935855592	-0.31759
C	-2.0466113692	 0.2881681301	-0.2759213382	-0.07939
C	-2.2751547544	 0.1294940873	-1.7758773552	-0.266019
C	-3.2010768609	-0.5382393543	-0.8080317514	-0.283438
H	 0.371199553	 2.0472628459	 1.7555222045	 0.311517
H	 0.2379809643	-1.9825593108	 1.0835031059	 0.173937
H	-1.4738862801	-2.3430188294	 0.8325432351	 0.161956
H	-2.3018489971	 1.263061053	 0.1184332259	 0.120732
H	-2.6159509696	 1.012745059	-2.3036249087	 0.124032
H	-1.5897322594	-0.4953583044	-2.3343413051	 0.155026
H	-3.1477901851	-1.6184478873	-0.7294115125	 0.1233
H	-4.1975184197	-0.13524126	-0.6667053213	 0.124098
38.2768	73.7196	130.2638	218.3952	252.2262	289.8399	315.1678	393.4849	418.0534	435.8482	480.3207	609.0034	662.5386	749.5418	806.8346	838.2436	890.7766	918.9505	944.937	959.1312	1025.4972	1062.4445	1074.7109	1090.9998	1141.8473	1203.599	1214.7556	1227.6108	1294.4021	1322.5406	1372.0499	1423.5856	1449.5432	1474.9207	1504.5271	1710.9489	2359.9085	3043.9318	3106.0053	3139.143	3150.6276	3199.111	3220.505	3245.2097	3820.1739
ON=C(CC#N)C1CC1	ON=C(CC#N)C1CC1	
InChI=1S/C6H8N2O/c7-4-3-6(8-9)5-1-2-5/h5,9H,1-3H2	InChI=1S/C6H8N2O/c7-4-3-6(8-9)5-1-2-5/h5,9H,1-3H2
