19
gdb 106214	2.80806	1.71011	1.2809	1.3789	79.66	-0.2163	0.0112	0.2275	1021.1395	0.160192	-385.823692	-385.81621	-385.815266	-385.855581	30.386	
O	-0.0609490256	 1.4135717433	 0.2494325652	-0.423112
C	 0.0154166703	 0.0215714069	-0.0409256804	-0.214571
C	-1.3895142225	-0.5243045806	-0.0212188436	 0.364528
C	-2.3911691181	 0.0404352648	-1.0248322707	-0.154033
C	-3.5187994767	-0.6253940769	-0.7776962781	-0.123572
C	-3.1440965412	-1.5544832854	 0.3639855057	-0.061252
C	-1.6849720914	-2.0743123397	 0.086036296	-0.096281
C	-1.3986099457	-2.0463779106	 1.6066917065	-0.267821
C	-2.1924340596	-0.7498056367	 1.3260910768	-0.065301
H	 0.8260452374	 1.7806419399	 0.190220348	 0.287285
H	 0.4550643564	-0.1501485818	-1.0374641563	 0.085196
H	 0.6524890551	-0.5002906185	 0.6883253267	 0.086174
H	-2.182861994	 0.8206663777	-1.7429065136	 0.104243
H	-4.4878987859	-0.5448306002	-1.2495701692	 0.100759
H	-3.8795091027	-2.2386424997	 0.7891386125	 0.061402
H	-1.398693792	-2.8367589008	-0.6450169233	 0.063449
H	-1.9086156321	-2.8051472413	 2.2069635814	 0.088401
H	-0.358845135	-1.9444672911	 1.9253376862	 0.090727
H	-2.4911342767	 0.029546841	 2.0312892703	 0.073777
75.4764	169.6041	253.3328	323.3907	349.5472	414.825	478.4565	506.6778	638.5397	682.7471	702.5285	768.4573	792.6172	832.4033	878.419	902.3405	905.8685	918.6252	946.6842	972.8928	1033.3921	1046.4355	1054.8043	1072.5912	1080.3323	1096.8542	1130.8712	1158.6642	1179.7616	1196.4577	1217.6673	1233.5853	1251.7164	1267.7863	1292.3022	1311.0907	1343.1834	1464.0762	1508.9969	1527.9304	1640.066	2963.5027	3002.6434	3052.6557	3067.6952	3088.5236	3110.8508	3112.1426	3221.0964	3248.6043	3826.3479
OCC12C=CC3C1CC23	OC[C@@]12C=C[C@H]3[C@@H]1C[C@@H]23	
InChI=1S/C8H10O/c9-4-8-2-1-5-6(8)3-7(5)8/h1-2,5-7,9H,3-4H2	InChI=1S/C8H10O/c9-4-8-2-1-5-6(8)3-7(5)8/h1-2,5-7,9H,3-4H2/t5-,6-,7+,8-
