20
gdb 103660	2.96871	1.03649	0.9313	1.088	78.72	-0.2502	0.0277	0.2779	1363.1343	0.168872	-440.287635	-440.277717	-440.276773	-440.322718	36.04	
C	-0.2401373859	 1.4959815822	 0.3291367585	-0.3391
N	-0.2815846841	 0.0409464199	 0.2937085882	-0.327377
C	 0.6101562419	-0.6102525934	 0.8783693558	 0.4669
C	 0.9081479356	-2.0797001953	 1.0653882549	-0.450192
C	 2.1442081674	-1.5782810104	 1.8496050001	 0.384255
C	 2.1959858829	-1.8722310591	 3.3354058292	-0.4405
C	 3.4846398866	-1.766426842	 1.1450735094	-0.096463
O	 4.4633888783	-0.8853089975	 1.6563522803	-0.41713
O	 1.7100881114	-0.1774966085	 1.6110158073	-0.315853
H	 0.6190143856	 1.9084500416	 0.8711838256	 0.121174
H	-0.2254416859	 1.8782794525	-0.6974157948	 0.127484
H	-1.1593044817	 1.8689829386	 0.7943143578	 0.128652
H	 0.1682041636	-2.6225521194	 1.6563676514	 0.133944
H	 1.1142642926	-2.6310391769	 0.1452559611	 0.132216
H	 2.3703318769	-2.9408102987	 3.5004658955	 0.123515
H	 3.014305063	-1.3165721449	 3.7994289658	 0.143132
H	 1.255619848	-1.5948966339	 3.8187838616	 0.125044
H	 3.8541075012	-2.784732722	 1.3088480037	 0.114548
H	 3.3439793148	-1.6282656151	 0.0616752215	 0.091654
H	 4.1066949477	 0.0050693323	 1.5497575871	 0.294096
63.6545	88.6294	112.4158	188.4633	196.248	234.605	253.0792	328.1805	340.2342	405.0275	455.1932	463.2792	562.7935	569.846	658.0891	802.4096	868.1774	889.1956	941.3206	951.8373	978.7425	1041.9764	1069.1597	1078.9795	1091.4177	1134.7672	1155.9244	1176.0631	1226.2071	1241.644	1271.5118	1302.0402	1387.2584	1411.1365	1428.5674	1439.7537	1466.4282	1481.2911	1494.8708	1496.4725	1497.6431	1498.5082	1848.2723	2984.2777	3016.5217	3042.8929	3073.8214	3078.2007	3082.9818	3086.1173	3114.5824	3131.4991	3134.9401	3788.8822
CN=C1CC(C)(CO)O1	CN=C1C[C@@](C)(CO)O1	
InChI=1S/C6H11NO2/c1-6(4-8)3-5(7-2)9-6/h8H,3-4H2,1-2H3	InChI=1S/C6H11NO2/c1-6(4-8)3-5(7-2)9-6/h8H,3-4H2,1-2H3/t6-/m0/s1
