17
gdb 22987	2.63655	1.21694	0.93106	2.5014	72.73	-0.2431	-0.0239	0.2192	1259.3687	0.133344	-455.089862	-455.080368	-455.079424	-455.125642	33.427	
C	 0.1939004037	 1.4929191468	-0.0244571937	-0.493171
C	-0.0121499814	 0.0087221508	 0.0700512873	 0.398297
N	-0.0719402236	-0.6898749158	 1.1370393421	-0.155788
O	 0.0469601789	 0.0785641021	 2.2993035824	-0.397916
C	-0.136165976	-0.7536995028	-1.2264931353	-0.222618
N	 1.122240611	-0.7185672461	-2.0449671143	-0.324832
C	 1.2646499547	-2.2041505625	-2.0306134103	-0.284066
C	-0.0148250046	-2.2969865959	-1.1843496613	 0.410262
O	-0.6865697929	-3.1880302022	-0.769459915	-0.27727
H	 0.9823731414	 1.7013171617	-0.7543538625	 0.146538
H	-0.7216944	 1.9835531543	-0.3773436549	 0.132275
H	 0.4669787118	 1.916985396	 0.9405136561	 0.157668
H	-0.0111111914	-0.591980124	 2.9881876023	 0.309283
H	-1.0325119209	-0.4188445944	-1.7698632042	 0.104098
H	 0.9610841535	-0.3608111159	-2.9790973283	 0.227804
H	 1.1813896517	-2.7070738686	-3.0016799878	 0.128008
H	 2.1788706043	-2.5497230434	-1.5353367826	 0.14143
34.2255	62.9336	87.9145	126.6053	192.6934	302.7259	318.5962	364.1761	421.8404	437.5827	520.5129	547.4276	628.0094	692.2901	752.1813	819.8593	876.3535	955.1448	982.117	1006.5193	1011.0916	1040.9457	1069.8739	1078.9502	1110.9896	1208.9014	1244.6218	1289.5842	1318.7732	1371.9948	1390.7273	1402.2934	1470.3635	1479.5287	1489.2317	1737.3155	1920.6785	2996.2696	3030.1042	3034.9682	3076.4152	3095.4123	3166.907	3545.2634	3820.1659
CC(=NO)C1NCC1=O	CC(=NO)[C@H]1NCC1=O	
InChI=1S/C5H8N2O2/c1-3(7-9)5-4(8)2-6-5/h5-6,9H,2H2,1H3	InChI=1S/C5H8N2O2/c1-3(7-9)5-4(8)2-6-5/h5-6,9H,2H2,1H3/t5-/m1/s1
