17
gdb 65974	2.42918	1.47468	1.29426	2.5961	69.17	-0.2588	-0.0401	0.2187	1053.1535	0.133801	-458.938058	-458.929663	-458.928719	-458.971093	31.669	
O	 0.0518044717	 1.3982832845	-0.4668910757	-0.480836
C	-0.0356959741	 0.0727386067	-0.0649718012	 0.241131
C	 0.0436500471	-0.2401911421	 1.4761369939	-0.291569
C	-1.1752959366	-1.1980005556	 1.3454027301	-0.335095
C	-1.4415011911	-0.57124439	-0.022003857	 0.399272
C	-2.656139973	 0.0284225106	-0.5661839824	-0.251404
O	-2.0897102497	-1.1720151142	-1.1233584374	-0.277104
C	 0.9362436871	-0.7763816518	-0.8538044642	 0.132359
O	 1.6617040385	-0.2923687738	-1.6888530477	-0.280335
H	 0.7390378565	 1.4219928521	-1.1539640593	 0.294313
H	 0.9779218468	-0.6617567891	 1.8520083709	 0.113365
H	-0.1902687658	 0.6717294173	 2.0274726585	 0.134001
H	-0.8830633349	-2.2488704386	 1.2633420542	 0.121124
H	-1.9627720999	-1.1110462094	 2.0959674224	 0.119476
H	-3.6010022831	-0.1058463983	-0.0417201217	 0.119763
H	-2.5728420806	 0.9158777684	-1.1889868238	 0.136322
H	 0.9552454512	-1.8588799367	-0.6208578698	 0.105218
80.6005	119.8418	184.8118	239.1087	296.4333	311.9364	344.6555	430.846	467.7261	508.4695	561.4429	595.3284	746.1367	833.3559	856.4052	873.8924	899.1325	911.7498	928.4994	962.2426	1067.3297	1099.0088	1114.2071	1136.6877	1150.5361	1162.3405	1213.8872	1226.8267	1255.9467	1305.3508	1384.0566	1416.8219	1447.3306	1473.2869	1491.9543	1529.1319	1808.4836	2947.516	3064.4364	3078.4882	3091.7353	3118.0954	3142.0861	3189.5923	3664.2372
OC1(CCC11CO1)C=O	O[C@]1(CC[C@]21CO2)C=O	
InChI=1S/C6H8O3/c7-3-5(8)1-2-6(5)4-9-6/h3,8H,1-2,4H2	InChI=1S/C6H8O3/c7-3-5(8)1-2-6(5)4-9-6/h3,8H,1-2,4H2/t5-,6-/m1/s1
