20
gdb 84998	2.52869	1.38006	1.11079	1.978	76.17	-0.2197	-0.0274	0.1923	1187.117	0.168962	-440.300661	-440.291171	-440.290227	-440.3347	35.582	
C	 0.0818078145	 1.4367467723	-0.0620446896	-0.316816
N	-0.0119353926	 0.0047622042	 0.113074188	-0.068445
C	-1.3610831351	-0.533197501	 0.0823122756	-0.273843
C	-1.212851087	-1.9083801722	 0.7167368413	 0.364873
O	-1.9801957081	-2.8337492723	 0.6526397455	-0.330513
C	 0.1566647827	-1.9538267865	 1.441093642	 0.298034
C	 0.0512823825	-2.5004158375	 2.8594120903	-0.448067
O	 1.0149956804	-2.7631304823	 0.6358348605	-0.466949
C	 0.6325678598	-0.5053818489	 1.3249917959	-0.190064
H	 1.13372199	 1.7397217206	-0.0710642573	 0.123667
H	-0.3616338406	 1.7274674942	-1.0197161512	 0.122929
H	-0.4314513362	 2.0059540008	 0.7384125117	 0.090406
H	-2.0840265652	 0.0434952666	 0.6998247476	 0.100995
H	-1.7712576097	-0.5909805675	-0.9307387256	 0.13485
H	-0.4127772458	-3.4915424383	 2.8386509019	 0.129554
H	 1.0475504929	-2.5861062152	 3.3025672272	 0.126758
H	-0.5633454418	-1.8558940213	 3.4958020367	 0.117463
H	 0.5775255429	-3.6167572884	 0.5279672547	 0.287639
H	 1.7211353871	-0.4449199366	 1.2374446217	 0.121314
H	 0.3260146091	 0.0579546496	 2.227746833	 0.076215
60.2204	120.253	204.0438	226.103	252.8739	278.1698	292.8138	317.9352	364.8021	373.0047	390.4986	513.4386	540.1943	602.9048	638.7175	723.417	883.3586	888.7302	956.3431	968.2338	987.9265	1055.298	1090.0097	1136.9905	1138.6071	1151.2589	1173.4991	1200.1828	1235.378	1270.5362	1286.1936	1338.9981	1362.5864	1400.7075	1407.4644	1457.6218	1475.156	1486.8234	1487.7645	1493.918	1502.4873	1508.3416	1852.3266	2871.7879	2910.7402	2918.7348	3037.0088	3059.3331	3073.1182	3082.1912	3103.8492	3109.6393	3118.9311	3784.0753
CN1CC(=O)C(C)(O)C1	CN1CC(=O)[C@@](C)(O)C1	
InChI=1S/C6H11NO2/c1-6(9)4-7(2)3-5(6)8/h9H,3-4H2,1-2H3	InChI=1S/C6H11NO2/c1-6(9)4-7(2)3-5(6)8/h9H,3-4H2,1-2H3/t6-/m0/s1
