16
gdb 24711	3.76585	1.55344	1.11536	2.4484	77.56	-0.2393	-0.0309	0.2084	1032.787	0.127961	-400.8107	-400.803926	-400.802982	-400.842937	25.698	
C	-0.0341293783	 1.5153237358	 0.0873688482	-0.176343
O	 1.2510707656	 1.9283801141	-0.3842864065	-0.274196
C	 2.1058389761	 0.8100212334	-0.618485572	-0.161116
C	 1.2457947874	-0.4016949504	-0.379002196	 0.263655
N	 1.6264434881	-1.6643158339	-0.5317820516	-0.337568
C	 0.6929832441	-2.5858895275	-0.2578971266	-0.025341
C	-0.6009201974	-2.2820117299	 0.16345384	-0.103846
C	-0.973799282	-0.9466431467	 0.3186552798	-0.22205
C	-0.0169642117	 0.0153741566	 0.036159998	 0.242998
H	-0.1981257171	 1.8945948526	 1.1079792758	 0.112943
H	-0.8114094129	 1.9547296592	-0.5538454941	 0.116365
H	 2.492848951	 0.8477994905	-1.6455243813	 0.122698
H	 2.9688974354	 0.8366732066	 0.0631584502	 0.118135
H	 0.9957283215	-3.6225074561	-0.3820703538	 0.110133
H	-1.3037309265	-3.0821742446	 0.3662268947	 0.104511
H	-1.9743691032	-0.6819972097	 0.646719825	 0.109024
30.1691	182.0979	234.4279	398.1155	427.6797	512.7552	529.2952	620.1567	703.8441	750.1097	811.2136	842.6257	876.731	929.6577	961.6821	984.01	1021.6034	1066.4457	1067.9622	1090.2109	1129.5066	1173.366	1193.8654	1218.4248	1264.6737	1281.0501	1315.2902	1350.1465	1396.9583	1459.8711	1498.3927	1510.2889	1522.8564	1623.501	1639.9133	2979.7735	2995.0686	3010.6681	3029.4503	3159.6576	3174.4027	3200.4242
C1OCC2=NC=CC=C12	C1OCc2ncccc12	
InChI=1S/C7H7NO/c1-2-6-4-9-5-7(6)8-3-1/h1-3H,4-5H2	InChI=1S/C7H7NO/c1-2-6-4-9-5-7(6)8-3-1/h1-3H,4-5H2
