16
gdb 29805	3.13305	1.29533	0.92287	3.2467	85.54	-0.186	-0.0101	0.1759	1220.9895	0.12451	-396.935863	-396.92697	-396.926026	-396.969301	32.838	
C	 0.0137307699	 1.4454114694	 0.035447593	-0.347762
N	 0.0012613694	-0.0023864685	-0.0050844869	-0.04222
C	-0.0040506936	-0.7804196035	-1.1427808669	-0.194349
C	-0.0133929529	-2.0887178543	-0.6981654649	 0.273595
N	-0.0837842424	-3.2663393106	-1.4423920017	-0.609006
N	-0.0154216614	-2.1306664416	 0.6622519875	-0.363313
C	-0.0102227412	-0.8606118403	 1.0610490098	 0.202372
C	-0.0109770787	-0.4136313702	 2.4007954303	 0.251166
C	-0.0105068086	-0.0190342384	 3.5393959967	-0.420179
H	 0.9084062328	 1.8379813365	-0.4580851944	 0.141102
H	-0.8720138565	 1.8533895909	-0.4615357434	 0.142863
H	 0.0143744202	 1.7643448013	 1.078016074	 0.160744
H	-0.0093890396	-0.34423098	-2.1275017506	 0.118782
H	 0.4519966073	-3.241807404	-2.2991726502	 0.241727
H	 0.1837456824	-4.0624676843	-0.8780462402	 0.251123
H	-0.0106474269	 0.3123238775	 4.5481684479	 0.193355
91.5507	143.9078	148.4964	168.9206	234.3118	290.0565	333.0204	403.0431	459.6275	535.9656	563.6253	582.4468	637.206	647.5523	678.2389	686.1327	719.9896	766.1147	829.0527	1036.1473	1076.4679	1103.7944	1152.2155	1199.8109	1223.4736	1360.3527	1418.4319	1442.1999	1481.2817	1487.2129	1498.3305	1524.981	1604.8547	1646.1521	2225.9154	3038.9609	3097.6412	3153.3752	3272.1584	3501.7628	3546.0729	3642.887
CN1C=C(N)N=C1C#C	Cn1cc(N)nc1C#C	
InChI=1S/C6H7N3/c1-3-6-8-5(7)4-9(6)2/h1,4H,7H2,2H3	InChI=1S/C6H7N3/c1-3-6-8-5(7)4-9(6)2/h1,4H,7H2,2H3
