20
gdb 79900	3.79637	1.38564	1.18799	1.1046	78.66	-0.2091	0.0759	0.2849	1083.3318	0.1736	-403.082642	-403.075357	-403.074413	-403.113893	30.224	
O	 0.0629454894	 1.4726430405	-0.1158003776	-0.43431
C	 0.056401956	 0.0758483003	-0.0149455151	 0.143399
C	-0.0919643313	-0.6196481722	 1.3731325558	-0.08472
C	-1.5314812584	-0.0369613603	 1.4760029485	 0.011073
C	-2.5160680493	-0.7654881717	 2.3845131488	-0.246394
C	-2.7345785253	-2.1945213499	 1.8717885725	-0.203405
C	-1.4090479899	-2.7665685062	 1.351828285	-0.150673
N	-0.5959178806	-1.8095527298	 0.5804034138	-0.129587
C	-1.3309642386	-0.5924206253	 0.0194012395	-0.080722
H	 0.9674054016	 1.7762654513	 0.006031047	 0.288187
H	 0.7730967729	-0.414777267	-0.6813426499	 0.079778
H	 0.653147256	-0.7447063603	 2.1641140743	 0.065491
H	-1.5868954308	 1.049969242	 1.5600136871	 0.084063
H	-2.1216842919	-0.772857436	 3.4097618859	 0.095544
H	-3.4683674966	-0.2252991351	 2.425715187	 0.096599
H	-3.1690368822	-2.8447534117	 2.6382013942	 0.089963
H	-3.452817968	-2.1654132431	 1.0433174028	 0.100825
H	-0.7835689795	-3.1181522326	 2.1828847251	 0.097845
H	-1.5963507056	-3.6377266372	 0.7132511858	 0.099388
H	-2.050600628	-0.6745066658	-0.7974796106	 0.077657
187.8169	232.7386	240.0423	270.5823	304.081	435.0249	462.7692	514.961	585.3553	691.4116	754.3705	776.1805	786.8508	815.2185	887.6007	893.3776	912.4557	927.9811	989.0159	999.6847	1052.1962	1079.4945	1092.4497	1097.9215	1125.6004	1149.3741	1176.3	1178.2585	1197.7541	1226.5989	1237.0774	1255.8659	1260.48	1294.6224	1308.6406	1351.4967	1365.395	1376.2804	1399.5235	1427.9782	1486.2953	1490.5923	1503.3622	3015.1549	3018.0539	3026.0573	3054.4757	3058.236	3059.3511	3072.2782	3077.557	3091.7396	3099.5637	3828.1272
OC1C2C3CCCN2C13	O[C@H]1[C@H]2[C@@H]3CCCN2[C@H]13	
InChI=1S/C7H11NO/c9-7-5-4-2-1-3-8(5)6(4)7/h4-7,9H,1-3H2	InChI=1S/C7H11NO/c9-7-5-4-2-1-3-8(5)6(4)7/h4-7,9H,1-3H2/t4-,5+,6-,7-
