19
gdb 88108	3.53415	1.24669	1.0695	2.3113	76.18	-0.2442	0.026	0.2703	1168.8819	0.161103	-419.194944	-419.186701	-419.185756	-419.227786	31.239	
C	-0.0764841129	 1.5247024687	-0.1492613485	-0.40503
C	 0.0153903528	 0.0303379941	 0.0587864527	-0.050302
N	 1.3400923015	-0.6001609631	-0.0856697102	-0.366411
C	 0.6570212067	-0.6344014776	 1.2223981931	 0.254757
C	 1.3557082031	 0.1218571785	 2.3252338716	-0.11684
O	 2.3275674857	-0.7145139735	 2.9814767982	-0.225166
C	 2.0267543294	-2.0298977072	 3.07173859	 0.14184
N	 1.0567258801	-2.6763514632	 2.5807670101	-0.274983
C	 0.1037981919	-1.9458874255	 1.7477474237	-0.225656
H	 0.8087143309	 2.0382719471	 0.2319534589	 0.127974
H	-0.1553183806	 1.7532004595	-1.2172915836	 0.126153
H	-0.9616290019	 1.9361186555	 0.3478824945	 0.118846
H	-0.8304446302	-0.5215040478	-0.3543224602	 0.082033
H	 1.2628022843	-1.5028139148	-0.5488595888	 0.230815
H	 1.9129603555	 0.9767045307	 1.9438350489	 0.127754
H	 0.6362442111	 0.4663126514	 3.0798517672	 0.110533
H	 2.7841202147	-2.5367094578	 3.6673968399	 0.124918
H	-0.8100967631	-1.7702857677	 2.3333616216	 0.115621
H	-0.1917676489	-2.5932767973	 0.9124446406	 0.103142
99.7043	137.0928	168.2924	190.328	245.0997	370.0893	389.4411	453.0129	492.8079	533.0291	543.4025	723.3787	782.899	880.5992	906.5468	926.7987	960.6141	964.9269	972.5601	999.8316	1015.8607	1044.1442	1097.9425	1112.1293	1141.1266	1173.608	1233.5243	1242.4888	1272.5654	1307.4188	1348.0995	1358.8505	1406.5246	1412.794	1422.1498	1469.0597	1479.1093	1489.7434	1499.2326	1506.159	1735.6682	3001.6446	3023.0917	3038.1392	3039.7469	3089.7967	3098.3643	3128.6567	3139.4423	3158.0421	3490.5482
CC1NC11COC=NC1	C[C@H]1N[C@]21COC=NC2	
InChI=1S/C6H10N2O/c1-5-6(8-5)2-7-4-9-3-6/h4-5,8H,2-3H2,1H3	InChI=1S/C6H10N2O/c1-5-6(8-5)2-7-4-9-3-6/h4-5,8H,2-3H2,1H3/t5-,6+/m1/s1
