20
gdb 107347	3.31151	1.26729	1.06075	2.1358	79.55	-0.2273	0.0027	0.23	1176.967	0.173405	-403.136829	-403.128644	-403.1277	-403.169556	32.254	
O	 0.1461797833	 1.2177221591	-0.5374298608	-0.42262
C	 0.0038989902	 0.0654164733	 0.2771564118	-0.113234
C	-1.4047151758	-0.490358707	 0.1910959082	 0.285031
C	-2.4758152086	 0.3410940873	 0.8764888314	-0.271861
C	-3.8995383865	-0.2357177049	 0.7562779215	-0.296836
C	-3.932334528	-1.7302025151	 0.9562747731	-0.084412
C	-2.8858123322	-2.5083577708	 0.6690903315	-0.04131
C	-1.617639917	-1.9638042847	 0.1208897015	-0.10394
N	-1.6498828202	-1.125109851	-1.1164086061	-0.385842
H	-0.0880671707	 0.9336253602	-1.4295168375	 0.28964
H	 0.7223609658	-0.7162560108	-0.010469081	 0.088813
H	 0.2360912603	 0.3796303987	 1.3004262461	 0.104612
H	-2.2071870142	 0.3995130424	 1.9393731933	 0.108267
H	-2.442008921	 1.3651733999	 0.4909537382	 0.117339
H	-4.552451631	 0.257927853	 1.4842533452	 0.110116
H	-4.3285276492	 0.0166833	-0.2248030102	 0.112967
H	-4.8523672154	-2.1718442467	 1.3284445479	 0.093957
H	-2.9386375265	-3.582565776	 0.8203765124	 0.092056
H	-0.7553955616	-2.6242330202	 0.1593706265	 0.086797
H	-2.6195713515	-1.0093857565	-1.4025335029	 0.230459
73.0983	140.7669	204.4452	256.8065	308.4076	382.9966	386.6282	453.7152	468.7769	547.2959	622.3508	694.3019	717.0361	759.9812	835.5832	858.3106	900.9405	941.0925	952.873	989.2229	1006.4966	1030.2082	1054.185	1059.9537	1076.7696	1134.6247	1180.5955	1184.3908	1191.3037	1228.6183	1267.3235	1293.2705	1330.7248	1353.5838	1372.0276	1401.0464	1416.4232	1425.6055	1445.3787	1486.5047	1494.8549	1495.5833	1705.2251	2993.9925	2997.174	3024.7612	3061.3894	3073.4531	3078.5308	3138.2025	3159.1716	3181.2757	3495.565	3783.2159
OCC12CCC=CC1N2	OC[C@]12CCC=C[C@H]1N2	
InChI=1S/C7H11NO/c9-5-7-4-2-1-3-6(7)8-7/h1,3,6,8-9H,2,4-5H2	InChI=1S/C7H11NO/c9-5-7-4-2-1-3-6(7)8-7/h1,3,6,8-9H,2,4-5H2/t6-,7-/m1/s1
