15
gdb 131842	2.77838	1.35642	1.08053	2.9661	64.54	-0.2437	-0.0358	0.2079	1108.3356	0.111903	-487.208006	-487.199504	-487.19856	-487.242498	29.799	
O	 0.0734513	 1.3347674155	-0.2134606261	-0.415221
C	-0.0195279358	-0.0665474117	-0.0438537668	-0.083505
C	-1.5003492596	-0.4237260801	 0.01962814	-0.150575
N	-2.1927593255	-0.1293099558	-1.2209890783	-0.052373
N	-2.9821505245	 0.9435368193	-1.3859029357	-0.025832
N	-3.4062336867	 1.0008198169	-2.5558541817	-0.005031
O	-2.8598835361	-0.1155596097	-3.2800263517	-0.243868
C	-2.077844064	-0.8212729242	-2.4153053676	 0.514331
N	-1.3891210941	-1.8675097051	-2.5994267209	-0.600533
H	 0.9742927329	 1.5538175504	-0.4671337029	 0.296224
H	 0.4450566972	-0.6175647414	-0.8718255179	 0.131024
H	 0.4495069313	-0.4022136925	 0.89469576	 0.097738
H	-1.6157102577	-1.491958489	 0.2231680366	 0.146596
H	-1.9977330843	 0.1529912727	 0.8017393458	 0.151397
H	-1.4709222831	-2.2008303154	-3.5561754129	 0.239628
35.5168	66.5338	154.2301	211.7825	227.8563	253.9677	333.8526	466.6198	489.2856	648.6928	666.0197	724.0165	736.3338	760.3826	779.2771	881.6629	961.3772	1000.3029	1051.8518	1068.1114	1103.1259	1174.071	1229.7711	1264.8135	1286.6473	1373.9001	1396.5028	1413.1507	1450.2255	1458.5366	1521.1776	1528.7869	1777.2666	2981.7639	3043.8578	3075.445	3138.9615	3542.8237	3841.4063
OCCN1N=NOC1=N	OCCN1N=NO[C@@H]1[NH]	
InChI=1S/C3H6N4O2/c4-3-7(1-2-8)5-6-9-3/h4,8H,1-2H2	InChI=1S/C3H7N4O2/c4-3-7(1-2-8)5-6-9-3/h3-4,8H,1-2H2/t3-/m1/s1
