20
gdb 95690	3.14264	1.21236	0.93398	4.6852	75.9	-0.2472	0.0397	0.2869	1271.2326	0.173105	-440.33855	-440.329928	-440.328984	-440.371888	32.795	
C	-0.0811011266	 1.5718806659	 0.0575310798	-0.405889
C	 0.0066790447	 0.0414082401	 0.0051890023	 0.016899
C	 0.544276039	-0.4374117225	-1.3486967956	-0.176607
C	 0.6929593746	-1.9555200212	-1.4534269043	-0.180691
N	 1.735636867	-2.5104406757	-0.5856959855	-0.339844
C	 1.5683846964	-2.7505162317	 0.7613865185	 0.406408
O	 2.0982068096	-3.6592650491	 1.3488815552	-0.369393
O	 0.7401692582	-1.8826052837	 1.4073011985	-0.239059
C	 0.8597267914	-0.4715504112	 1.1671525662	-0.071348
H	 0.9112126334	 2.0291042317	-0.0337183645	 0.119468
H	-0.6971501123	 1.955767623	-0.7613182181	 0.119356
H	-0.5218774174	 1.9150818886	 0.9989596732	 0.119269
H	-1.0010291545	-0.3735024315	 0.1461827054	 0.086394
H	-0.1321849657	-0.1029891887	-2.1445901201	 0.098133
H	 1.5199589039	 0.0274935001	-1.5424170213	 0.101912
H	-0.2745961074	-2.4375368194	-1.2546576888	 0.117307
H	 0.975112802	-2.2171433346	-2.4768233915	 0.112217
H	 2.3061249763	-3.2317011168	-1.0013373756	 0.253522
H	 1.9150780584	-0.2118234265	 1.0159470929	 0.113727
H	 0.5292475992	-0.0104141468	 2.1020624232	 0.118221
67.3498	140.6815	213.9509	230.6185	266.8172	291.4402	316.9601	373.7867	424.2647	492.6781	576.495	610.5881	698.6087	777.7801	805.6346	847.2917	898.8557	902.7867	963.1113	984.0221	1010.3451	1069.0906	1107.7879	1137.2976	1154.1858	1186.1512	1242.4817	1269.9831	1301.8257	1319.7022	1332.1164	1372.6167	1397.4596	1406.8435	1416.7318	1430.0732	1461.7444	1477.0399	1492.546	1498.3577	1500.5981	1503.6433	1839.1936	3007.6965	3012.7847	3021.1677	3027.5189	3034.0892	3066.403	3089.4402	3091.4438	3097.8656	3106.7692	3617.7122
CC1CCNC(=O)OC1	C[C@H]1CCNC(=O)OC1	
InChI=1S/C6H11NO2/c1-5-2-3-7-6(8)9-4-5/h5H,2-4H2,1H3,(H,7,8)	InChI=1S/C6H11NO2/c1-5-2-3-7-6(8)9-4-5/h5H,2-4H2,1H3,(H,7,8)/t5-/m0/s1
