17
gdb 54333	2.34013	1.48211	1.04184	2.1797	69.66	-0.2554	-0.0472	0.2082	1140.746	0.135955	-455.163889	-455.155068	-455.154124	-455.197756	32.426	
N	 0.8394454998	-0.1335895756	-0.9990105984	-0.54742
C	 0.2585723438	-0.5624444689	 0.1544144244	 0.346199
O	 0.8855834535	-0.7519940687	 1.1850344938	-0.379694
C	-1.2335767979	-0.8488157974	 0.1135264953	 0.220813
C	-2.0535038954	-0.5173218473	-1.1317762303	-0.38037
C	-2.1206614092	 0.973631984	-1.3855839349	 0.153999
O	-1.3395711836	 1.5645763385	-2.095885515	-0.245272
C	-1.6455578857	-2.0130907139	 0.9576172942	-0.255185
N	-1.9271807261	-0.6506781226	 1.4011503787	-0.343937
H	 1.8074014799	 0.1385767691	-0.9147999523	 0.261617
H	 0.2954021419	 0.3267170715	-1.7176964276	 0.277718
H	-1.6191385715	-1.0069464968	-2.0093898013	 0.133116
H	-3.0673181147	-0.8979221212	-0.9792519479	 0.129082
H	-2.9245837783	 1.5206447869	-0.8529600707	 0.11507
H	-2.5116828522	-2.5951127656	 0.6543872405	 0.117976
H	-0.8489505042	-2.5577000038	 1.4531516784	 0.144484
H	-1.2139743301	-0.391317368	 2.0833488729	 0.251802
72.0741	94.5466	133.6123	199.0143	262.0451	306.1897	323.6698	401.6421	456.3046	530.4507	557.4104	585.7121	621.2615	687.4222	781.1533	845.0299	885.3669	889.7218	977.9243	1006.5412	1016.2548	1079.6509	1104.3536	1136.206	1144.9401	1201.7631	1276.6968	1300.292	1314.1827	1364.7937	1406.9298	1419.3432	1471.4353	1489.9336	1654.024	1771.9616	1806.6671	2936.7223	3052.5194	3110.4483	3115.92	3216.9812	3470.1315	3528.476	3669.428
NC(=O)C1(CC=O)CN1	NC(=O)[C@@]1(CC=O)CN1	
InChI=1S/C5H8N2O2/c6-4(9)5(1-2-8)3-7-5/h2,7H,1,3H2,(H2,6,9)	InChI=1S/C5H8N2O2/c6-4(9)5(1-2-8)3-7-5/h2,7H,1,3H2,(H2,6,9)/t5-/m1/s1
