12
gdb 25055	5.87731	1.05343	0.89331	5.0017	74.44	-0.2532	-0.089	0.1642	1179.7963	0.076988	-435.501888	-435.49455	-435.493605	-435.534156	27.039	
O	-0.0419745834	-0.0462439606	 0.0036304161	-0.311409
C	 0.0486463585	 1.1401118442	 0.0084805267	 0.45857
O	-1.196741336	 1.8685385005	 0.0290018751	-0.196918
C	-1.2214264582	 3.1891762833	 0.0363362592	 0.046924
C	-0.085714657	 3.9430046208	 0.0251895625	-0.014102
C	 1.1366686867	 3.1824279812	 0.0048872229	-0.009677
N	 1.206558799	 1.8884362365	-0.0028773967	-0.311014
C	-0.1001734365	 5.3596391078	 0.0328963325	 0.220246
C	-0.0829469296	 6.5631659296	 0.0391072842	-0.398363
H	-2.2257956447	 3.6003019307	 0.0519110993	 0.162797
H	 2.080735579	 3.7266345347	-0.0047361598	 0.146059
H	-0.0752880777	 7.6252887411	 0.044788978	 0.206888
59.6995	141.0172	187.7095	372.0727	443.2406	451.2965	468.8398	524.4206	533.4452	588.1416	633.2276	678.3977	699.9124	730.3994	801.4972	945.5994	951.9927	1015.3631	1043.1776	1242.2252	1285.9161	1369.1283	1425.9627	1544.0074	1690.251	1892.3897	2234.8646	3141.8841	3196.5596	3501.3174
O=C1OC=C(C=N1)C#C	O=c1occ(cn1)C#C	
InChI=1S/C6H3NO2/c1-2-5-3-7-6(8)9-4-5/h1,3-4H	InChI=1S/C6H3NO2/c1-2-5-3-7-6(8)9-4-5/h1,3-4H
