19
gdb 10297	2.55695	1.58532	1.03734	3.4494	71.68	-0.2813	0.0282	0.3095	1146.594	0.163984	-365.082627	-365.073051	-365.072107	-365.116929	34.258	
C	-0.0822634421	 1.5559920844	 0.0808445794	-0.406312
C	-0.0242076179	 0.0238885097	-0.0005557435	 0.023157
C	-1.4382240809	-0.5721576937	 0.0228699327	-0.403927
C	 0.7584525241	-0.4443100427	-1.2588701839	-0.142178
C	 2.2123020206	 0.0922568845	-1.3395919079	-0.076311
O	 2.9011350031	-0.3757223938	-2.4753187155	-0.417132
C	 0.8243339681	-1.9079418547	-1.3290328701	 0.264213
N	 0.9412182484	-3.0575315318	-1.3822974304	-0.340388
H	 0.9047964786	 2.0094058529	 0.2038323668	 0.124903
H	-0.5410044297	 1.9805551567	-0.8199642875	 0.120892
H	-0.691610508	 1.861868112	 0.9365027215	 0.122791
H	 0.5200436922	-0.3500412672	 0.8768108082	 0.093829
H	-2.0270967467	-0.2158053241	-0.8305171648	 0.118413
H	-1.4181431694	-1.6647378276	-0.0137961127	 0.142765
H	-1.9626624497	-0.2741040421	 0.9356632626	 0.119616
H	 0.2289554761	-0.1002938069	-2.1573186213	 0.129325
H	 2.1837466937	 1.179792486	-1.4320425587	 0.123454
H	 2.7376122528	-0.1552549341	-0.4041125085	 0.104408
H	 2.9965785867	-1.3323346775	-2.3979563065	 0.298483
60.2533	108.2208	149.0559	176.9712	224.0124	236.9376	261.3344	337.4189	370.7035	394.7221	425.6731	442.645	539.733	602.6272	806.9348	869.2292	934.2821	946.9282	968.4181	1028.0848	1040.6654	1087.3025	1143.4999	1157.8853	1188.7281	1208.2752	1267.8231	1328.3971	1351.4397	1372.6236	1388.9924	1404.6228	1423.1592	1428.5681	1487.9151	1494.7353	1502.9719	1508.5287	1513.4837	2346.0253	2987.6556	3016.9783	3031.424	3034.2238	3039.3545	3098.1918	3104.4614	3107.6682	3118.3218	3119.495	3793.0914
CC(C)C(CO)C#N	CC(C)[C@@H](CO)C#N	
InChI=1S/C6H11NO/c1-5(2)6(3-7)4-8/h5-6,8H,4H2,1-2H3	InChI=1S/C6H11NO/c1-5(2)6(3-7)4-8/h5-6,8H,4H2,1-2H3/t6-/m1/s1
