15
gdb 9440	2.90546	1.76585	1.66338	2.3103	68.11	-0.2664	0.0151	0.2815	876.2656	0.117301	-362.62575	-362.617777	-362.616833	-362.65791	29.362	
C	-0.0947735959	 1.5448556018	 0.1074442506	-0.443003
C	-0.0296001519	 0.0134742313	 0.0160348124	-0.018299
C	 0.8422318297	-0.5547424999	-1.145938376	-0.108564
O	 1.8223925397	-1.0472060383	-0.1844958502	-0.254693
C	 1.0791417525	-0.5993025504	 0.8835393421	 0.423707
N	 1.2810034848	-0.6577497327	 2.1157658485	-0.541643
C	-1.3375027342	-0.6014329724	 0.161846927	 0.299829
C	-2.4257746115	-1.1003407461	 0.2636126949	-0.459339
H	 0.9003647663	 1.9791045508	-0.0254685218	 0.126455
H	-0.7630174736	 1.9452921683	-0.6597815359	 0.131161
H	-0.4723665283	 1.8406557889	 1.088639416	 0.154116
H	 0.397799985	-1.3748116499	-1.7117850673	 0.133087
H	 1.2834811433	 0.1906410442	-1.8120189162	 0.12246
H	 2.1573276548	-1.1341210237	 2.33485851	 0.232442
H	-3.3838681406	-1.5464110118	 0.369140016	 0.202285
104.9727	130.7763	184.9148	217.7845	241.9693	338.7013	392.5804	512.2673	553.7342	629.3828	634.8251	645.8227	690.6059	765.3075	858.3269	892.7919	936.4422	970.9424	988.481	1010.5882	1142.5117	1153.9381	1186.1512	1227.1236	1258.4982	1356.9652	1409.9684	1486.4503	1493.4446	1513.0489	1828.4377	2240.5991	3045.7578	3067.5166	3121.3395	3135.4727	3137.9522	3481.0116	3501.6037
CC1(COC1=N)C#C	C[C@]1(CO[C]1[NH])C#C	
InChI=1S/C6H7NO/c1-3-6(2)4-8-5(6)7/h1,7H,4H2,2H3	InChI=1S/C6H7NO/c1-3-6(2)4-8-5(6)7/h1,7H,4H2,2H3/t6-/m1/s1
