15
gdb 26557	2.40798	1.89417	1.06166	2.9831	75.78	-0.1874	-0.0195	0.1678	1052.5693	0.114451	-453.978023	-453.970312	-453.969368	-454.009872	30.161	
N	 0.0823214956	 1.3878263687	 0.1624614234	-0.574488
C	-0.0142913357	 0.0122844245	 0.0549877284	 0.301103
C	-1.1661737588	-0.6980908593	 0.02884349	 0.230425
O	-2.3714428007	-0.0723895251	 0.0235495324	-0.465126
C	-1.1699250561	-2.1442038751	 0.0019467807	 0.233728
N	-2.3329541683	-2.7127043959	-0.0253362655	-0.60711
C	 0.1585072023	-2.7334440267	-0.0071702904	-0.246201
C	 1.2488572958	-1.9498327023	 0.0058392804	 0.053807
O	 1.2041296688	-0.5987073912	 0.0422880425	-0.218562
H	 0.8398914256	 1.7861292209	-0.3776227291	 0.25661
H	-0.801862055	 1.8409698135	-0.0268799741	 0.274061
H	-3.0062261358	-0.8173021142	-0.008347114	 0.302896
H	-2.2677990338	-3.7281769992	-0.0559226882	 0.209412
H	 0.2807630889	-3.8099770221	-0.0326855553	 0.110059
H	 2.2714238671	-2.3032947366	-0.0079721313	 0.139387
134.9081	192.7825	258.49	280.0744	309.9921	334.5197	499.7875	504.7691	526.2269	551.9485	565.5448	610.2258	696.0941	717.4813	735.6088	779.5045	833.936	858.9147	927.02	987.1258	1047.0873	1134.4552	1171.5168	1281.0898	1292.1337	1348.3828	1397.6411	1432.2575	1493.155	1605.4083	1628.3114	1685.4379	1751.1245	3199.0368	3231.1266	3496.9859	3542.0939	3547.3054	3648.7415
NC1=C(O)C(=N)C=CO1	N[C@@H]1C(=C([NH])C=CO1)O	
InChI=1S/C5H6N2O2/c6-3-1-2-9-5(7)4(3)8/h1-2,6,8H,7H2	InChI=1S/C5H7N2O2/c6-3-1-2-9-5(7)4(3)8/h1-2,5-6,8H,7H2/t5-/m0/s1
