19
gdb 70629	2.38396	1.84492	1.31718	1.071	74.48	-0.2199	0.0693	0.2892	1016.4565	0.159384	-422.989538	-422.98161	-422.980666	-423.021542	31.985	
O	-0.5844448415	 1.2218289825	 0.0816213966	-0.462126
C	-0.0721028327	-0.0712581708	 0.0164055592	 0.284902
C	-0.3090116585	-0.9708671392	 1.2044787235	-0.364995
C	 1.1028780394	-0.571726897	 0.8087180657	 0.03411
O	 1.8791159609	-1.455682646	 0.0451840416	-0.260428
C	 1.112389651	-1.8439871714	-1.1007397087	-0.1729
C	 0.0641878417	-0.755066431	-1.3259303842	 0.28327
C	-1.077624182	-0.9410813291	-2.2808867338	-0.314871
C	 0.013199549	 0.0586256755	-2.5939321514	-0.327997
H	 0.0645241213	 1.817246059	-0.3106666406	 0.284422
H	-0.7022714464	-0.4783423743	 2.087092538	 0.123001
H	-0.6541466622	-1.9878375651	 1.0517125541	 0.11883
H	 1.6978415684	 0.0500054896	 1.4672938565	 0.105344
H	 1.8007081246	-1.9653852353	-1.9427082509	 0.112063
H	 0.6309793472	-2.8150399651	-0.9131453217	 0.100971
H	-1.1182070691	-1.857211209	-2.8623486155	 0.110952
H	-2.046485159	-0.5501444616	-1.9884572626	 0.12489
H	-0.2461869701	 1.1097251658	-2.5213114071	 0.107677
H	 0.7227009781	-0.1779056973	-3.3801975288	 0.112885
103.7066	214.3994	225.0007	272.081	334.6919	347.3278	391.619	453.6523	470.3261	540.6672	625.0072	697.8762	782.9327	809.6467	854.1798	886.8319	919.9725	929.4114	957.6143	986.7075	993.4887	1001.4361	1026.6873	1057.8316	1075.3266	1080.4895	1089.4112	1155.258	1187.2181	1192.459	1227.1659	1253.4174	1304.2538	1324.1241	1347.9233	1399.469	1413.3315	1457.3667	1475.5012	1500.5969	1523.7865	2990.9806	3073.0019	3122.8807	3126.1486	3134.0968	3186.1004	3203.3323	3217.738	3226.6931	3790.3577
OC12CC1OCC21CC1	O[C@]12C[C@H]1OCC12CC1	
InChI=1S/C7H10O2/c8-7-3-5(7)9-4-6(7)1-2-6/h5,8H,1-4H2	InChI=1S/C7H10O2/c8-7-3-5(7)9-4-6(7)1-2-6/h5,8H,1-4H2/t5-,7-/m1/s1
