17
gdb 119443	3.68326	0.95438	0.85564	3.9274	70.23	-0.244	-0.027	0.2169	1369.5594	0.133183	-458.920599	-458.911763	-458.910819	-458.955059	31.509	
C	-0.2396082578	 1.3381928593	-0.3928137406	-0.224154
O	-0.5041292995	-0.0259705879	-0.633755801	-0.237824
C	-0.988354392	-0.6989399712	 0.5049173041	-0.190489
C	-1.1507494485	-2.1430379501	 0.1521255443	 0.416273
C	-0.1323691457	-3.0934875955	-0.4990742484	-0.415704
C	-1.3611945264	-3.8044958621	-1.1443047545	 0.433023
O	-1.4873611851	-4.6468757816	-1.9801226876	-0.294342
C	-2.3212171843	-2.8496842924	-0.4374314299	-0.172489
O	-1.985517307	-2.9539292883	 0.9681190375	-0.283827
H	 0.135014545	 1.7650116532	-1.3255601259	 0.134956
H	-1.1482769251	 1.8813789727	-0.0908611923	 0.110801
H	 0.5197061634	 1.4723856568	 0.3930731522	 0.110457
H	-0.2830441031	-0.5983385001	 1.348404449	 0.10239
H	-1.9574574583	-0.2956592033	 0.8401244869	 0.107389
H	 0.4839053307	-2.626065862	-1.2716497501	 0.149435
H	 0.4868289197	-3.6728834921	 0.1884401443	 0.131369
H	-3.318989196	-2.5111454353	-0.6902089979	 0.122735
66.6002	82.3073	91.9723	179.578	229.2613	289.6634	334.3354	417.2401	454.5087	472.9554	577.6808	650.2176	713.1021	789.4915	832.5439	951.0663	968.3928	991.9359	1011.4558	1036.6971	1056.7455	1115.7162	1159.5199	1176.3692	1189.0961	1210.2759	1221.5211	1236.4266	1284.3468	1382.2049	1436.9872	1467.725	1483.9768	1486.7125	1502.7341	1522.1903	1904.1269	2953.3219	2977.7328	2994.5959	3024.4882	3074.1543	3123.7233	3137.2382	3197.8374
COCC12CC(=O)C1O2	COC[C@]12CC(=O)[C@H]1O2	
InChI=1S/C6H8O3/c1-8-3-6-2-4(7)5(6)9-6/h5H,2-3H2,1H3	InChI=1S/C6H8O3/c1-8-3-6-2-4(7)5(6)9-6/h5H,2-3H2,1H3/t5-,6-/m1/s1
