23
gdb 95769	2.01817	1.65133	0.9975	1.2757	89.77	-0.2236	0.0291	0.2527	1282.1675	0.205093	-388.315368	-388.305535	-388.30459	-388.349604	37.287	
C	 0.1453638583	 1.564152505	-0.1207814185	-0.39612
C	 0.0473420469	 0.0445754106	 0.0379841925	 0.066128
O	 0.564425156	-0.4941363151	-1.1681240271	-0.261282
C	 0.8356070986	-1.878315256	-1.090277079	-0.087432
C	 1.9487442292	-2.1377670202	-0.083525535	-0.284076
C	 1.6479470237	-1.4547410758	 1.2332720588	 0.190791
C	 2.4307166634	-1.9891478516	 2.4041871905	-0.482277
C	 0.740067178	-0.4697495922	 1.2937928458	 0.200793
C	 0.2811276421	 0.1994665697	 2.5670220752	-0.491587
H	 1.1939188397	 1.8760122989	-0.1393042134	 0.120586
H	-0.3182515709	 1.8558547944	-1.0667427556	 0.123815
H	-0.365074501	 2.0876764271	 0.690786064	 0.113851
H	-1.025538964	-0.2238504828	 0.1181031126	 0.064127
H	-0.0714387849	-2.4347439344	-0.7994500267	 0.08364
H	 1.1168217213	-2.1959273604	-2.0988510426	 0.100551
H	 2.0611746305	-3.2186704185	 0.078589025	 0.094393
H	 2.9093348137	-1.7876811172	-0.4873235921	 0.109084
H	 3.5043510248	-1.9776988385	 2.1747133121	 0.123337
H	 2.2873109032	-1.4216683968	 3.3244241615	 0.119281
H	 2.1721552636	-3.0374622534	 2.6054379749	 0.120761
H	 0.5196513734	-0.3824007228	 3.4582778078	 0.122204
H	 0.7217749556	 1.1963227435	 2.6910638719	 0.12854
H	-0.8070122614	 0.3400918065	 2.5520906274	 0.120892
87.8671	136.9835	139.1385	167.0694	217.9628	246.0438	302.7448	335.4408	352.5444	400.9506	432.8393	468.1199	477.1702	592.8685	645.2105	692.2582	832.7213	882.1467	897.7574	970.5894	999.0578	1004.6329	1023.607	1055.2465	1095.0083	1101.962	1122.0603	1149.964	1156.6035	1171.6369	1241.869	1253.5457	1302.7224	1346.9056	1355.2399	1375.2965	1401.5002	1406.868	1414.6815	1420.0403	1469.3014	1478.0066	1482.6865	1484.5592	1494.9936	1497.934	1501.0734	1506.9011	1739.2039	2891.4089	2963.6348	3003.2773	3014.6306	3022.4328	3035.7097	3047.2805	3055.2322	3065.866	3079.3275	3121.5279	3123.558	3131.2618	3138.9176
CC1OCCC(C)=C1C	C[C@H]1OCCC(=C1C)C	
InChI=1S/C8H14O/c1-6-4-5-9-8(3)7(6)2/h8H,4-5H2,1-3H3	InChI=1S/C8H14O/c1-6-4-5-9-8(3)7(6)2/h8H,4-5H2,1-3H3/t8-/m1/s1
