21
gdb 112701	2.47417	1.25139	1.07863	2.2701	81.57	-0.2452	0.0077	0.2529	1259.0661	0.181805	-424.232403	-424.222815	-424.221871	-424.26689	35.636	
C	-0.5518683604	 0.7225600411	 0.1055807943	-0.236677
O	 0.1893960251	-0.464184532	-0.067823968	-0.253761
C	 0.9701608078	-0.499847342	-1.2734993649	 0.074678
C	 1.7332297079	-1.8323598949	-1.2707435684	-0.268123
C	 0.7673976181	-2.8111842526	-1.9676300885	 0.052079
O	-0.1136287284	-3.47440754	-1.0621670211	-0.442011
C	-0.0172060199	-1.8959596566	-2.9026200067	 0.318437
C	-0.8590630386	-2.4571950739	-4.0006373656	-0.501633
C	 0.1029327412	-0.6236042774	-2.5122809676	-0.199046
H	 0.0981479481	 1.61112653	 0.0772900032	 0.10381
H	-1.3348477379	 0.8432643843	-0.6568695688	 0.107575
H	-1.0266319238	 0.6669384555	 1.0884203083	 0.127423
H	 1.6296243158	 0.3805351895	-1.2882667716	 0.061749
H	 2.6505741858	-1.7276963142	-1.8578775494	 0.101955
H	 1.9957230673	-2.1560488195	-0.2615554565	 0.11269
H	 1.2887135277	-3.614753194	-2.4977539454	 0.075469
H	-0.4987254343	-2.7792847235	-0.5119173994	 0.281789
H	-1.5435448987	-3.2116224813	-3.5954261558	 0.145184
H	-1.4469995072	-1.6860202063	-4.5054236453	 0.120344
H	-0.2416178414	-2.9658718496	-4.7518967167	 0.12714
H	-0.4048752343	 0.2186998174	-2.9699713461	 0.09093
66.785	103.089	141.2601	181.7581	212.7551	233.8936	281.3673	319.0562	410.956	421.9471	484.2904	491.1017	592.0929	649.0315	791.8326	809.295	859.5512	878.7204	928.4152	935.1592	995.9211	1030.1303	1036.7371	1062.5031	1081.1986	1125.6651	1162.9921	1182.4765	1190.1445	1228.0973	1272.0696	1283.3486	1320.7106	1328.8057	1347.194	1371.5573	1405.5923	1445.5423	1469.1148	1476.648	1477.4171	1487.2317	1489.0337	1510.9248	1711.1676	2977.743	2993.1486	3022.3448	3029.5648	3055.9549	3069.1729	3075.4599	3111.5518	3113.5148	3123.1617	3185.2721	3761.7643
COC1CC(O)C(C)=C1	CO[C@H]1C[C@@H](O)C(=C1)C	
InChI=1S/C7H12O2/c1-5-3-6(9-2)4-7(5)8/h3,6-8H,4H2,1-2H3	InChI=1S/C7H12O2/c1-5-3-6(9-2)4-7(5)8/h3,6-8H,4H2,1-2H3/t6-,7-/m1/s1
