14
gdb 67541	2.55621	1.89735	1.5398	5.8509	60.44	-0.2502	-0.0045	0.2457	880.6626	0.100616	-473.772397	-473.765303	-473.764359	-473.803769	27.474	
N	-0.0202622351	 1.4945431652	 0.1239102301	-0.603607
C	 0.0460491297	 0.0845107238	-0.0363015958	 0.099543
C	 1.2295129029	-0.6362705461	 0.6856791515	-0.001903
O	 0.9736969327	-2.0361707548	 0.679634217	-0.21193
C	 1.5312781321	-1.4587771075	-0.5006655631	-0.007996
C	 0.362025683	-0.8027384061	-1.2916814372	 0.010652
O	-0.9117780717	-1.4805916767	-1.1483115639	-0.248275
C	-1.2733551801	-0.7286673149	-0.043308489	 0.443259
O	-2.2979121562	-0.7618269939	 0.5507378728	-0.315183
H	 0.877146861	 1.9409604155	-0.0321441893	 0.241569
H	-0.704140444	 1.9224433056	-0.4905101317	 0.249703
H	 1.852078124	-0.2274237007	 1.4739715123	 0.120588
H	 2.4608923361	-1.871469324	-0.8736079809	 0.121087
H	 0.5415512458	-0.4263515355	-2.2967449128	 0.102492
129.9848	193.7136	269.1418	277.437	320.3282	371.7874	495.6706	600.0202	694.0096	702.2596	743.5256	773.2557	815.9665	841.889	865.2987	896.2106	937.6829	967.1912	988.5852	1015.6195	1043.4814	1083.7807	1145.7755	1197.9941	1239.321	1289.1985	1303.9368	1346.3893	1386.5455	1656.782	1946.5115	3143.9375	3180.3861	3197.5756	3508.9174	3595.1902
NC12C3OC3C1OC2=O	N[C@]12[C@H]3O[C@H]3[C@H]1OC2=O	
InChI=1S/C5H5NO3/c6-5-2-1(8-2)3(5)9-4(5)7/h1-3H,6H2	InChI=1S/C5H5NO3/c6-5-2-1(8-2)3(5)9-4(5)7/h1-3H,6H2/t1-,2+,3-,5-/m1/s1
