18
gdb 11731	4.78071	1.331	1.20187	3.5535	73.17	-0.2376	-0.0049	0.2327	1048.0338	0.153201	-347.80507	-347.797202	-347.796257	-347.83739	29.715	
C	 0.0876518039	 1.5076086254	-0.1758533944	-0.375244
C	-0.0980877123	 0.0040081164	 0.0725797911	-0.293488
C	 0.6579569309	-0.4837662036	 1.277621868	 0.377188
C	 2.079844329	-0.9166523706	 1.2585243801	-0.323466
C	 1.0274600258	-1.9522389871	 1.6542654225	-0.236266
C	 0.5634311029	-1.6782061384	 3.0483495611	 0.432027
O	 0.3192664759	-2.3752925689	 3.9926983453	-0.321435
C	 0.2644183054	-0.1854812492	 2.7397046985	-0.420139
H	 1.1415830521	 1.751627308	-0.3432934518	 0.120747
H	-0.4788777589	 1.8318030488	-1.0538369651	 0.116975
H	-0.2582049654	 2.0952691485	 0.6809699601	 0.122838
H	-1.165780858	-0.216832576	 0.1996449603	 0.104558
H	 0.2314871482	-0.5580665516	-0.809928781	 0.101776
H	 2.5131459689	-1.1003917466	 0.2796304757	 0.122595
H	 2.79052534	-0.5530659381	 1.9961176706	 0.120112
H	 0.9154613554	-2.8764895158	 1.0999605996	 0.10653
H	 0.8438079429	 0.5767343263	 3.2689985749	 0.116724
H	-0.802991687	 0.0123699124	 2.8807628244	 0.127968
83.3945	103.6572	191.7811	223.9981	343.6464	377.4022	395.235	465.9457	553.9598	617.0586	676.0952	777.0009	790.9975	820.6343	911.7992	956.6431	961.0599	968.4657	1006.4616	1031.749	1063.8164	1080.4381	1101.325	1107.2203	1141.6763	1205.7578	1238.1909	1244.1687	1327.6398	1354.9785	1400.1674	1413.4064	1457.3219	1481.9884	1498.0694	1503.7318	1508.2719	1879.7331	3020.31	3036.211	3051.3762	3054.9423	3105.0165	3105.8405	3110.5124	3111.0252	3189.0915	3198.2016
CCC12CC1C(=O)C2	CC[C@]12C[C@H]1C(=O)C2	
InChI=1S/C7H10O/c1-2-7-3-5(7)6(8)4-7/h5H,2-4H2,1H3	InChI=1S/C7H10O/c1-2-7-3-5(7)6(8)4-7/h5H,2-4H2,1H3/t5-,7+/m0/s1
