17
gdb 65014	1.88638	1.49436	1.06221	3.7181	74.8	-0.2534	-0.0372	0.2162	1188.6472	0.131381	-421.774879	-421.765151	-421.764207	-421.810393	34.57	
C	-0.1298748009	 1.4504012631	-0.5402079435	-0.474705
C	 0.0226169618	 0.0011766191	-0.135410646	 0.405168
C	 1.051154749	-0.8433421333	-0.7584073049	-0.221707
O	 1.223967905	-0.3213814233	 0.5644319934	-0.268757
C	-1.2203353575	-0.7079615835	 0.4419244439	-0.318179
C	-1.6792535596	-0.0364117713	 1.7486786783	 0.167478
O	-1.5428170673	-0.5357589352	 2.8302143504	-0.231149
C	-2.3288693224	-0.7237147404	-0.5050168189	 0.30789
C	-3.2638200307	-0.7025787495	-1.2605294843	-0.448766
H	 0.8010750354	 1.8155124394	-0.9794575537	 0.133427
H	-0.9360558052	 1.5647312145	-1.2700817002	 0.141709
H	-0.3601294987	 2.0795995704	 0.3255272485	 0.13327
H	 0.9056679367	-1.9206179764	-0.8216576829	 0.121123
H	 1.7051655924	-0.4163692743	-1.5170758915	 0.119656
H	-0.925566271	-1.7264501625	 0.7137305081	 0.131459
H	-2.1624103046	 0.9547417099	 1.6138406887	 0.094897
H	-4.0850901522	-0.7042543768	-1.9343243354	 0.207186
38.736	58.7758	128.2953	163.7668	187.7403	238.7704	331.859	347.687	368.5881	445.8237	468.219	512.3107	519.6332	647.0413	653.0365	755.8126	836.3317	920.9766	922.8687	955.8225	1021.5602	1047.0553	1061.0826	1117.9978	1134.7963	1163.5197	1236.2228	1259.7455	1274.983	1397.5761	1418.1843	1423.2444	1484.8581	1496.7591	1529.694	1842.0237	2232.765	2904.0333	3046.3249	3067.7118	3085.3735	3113.5487	3133.646	3173.8688	3500.9055
CC1(CO1)C(C=O)C#C	C[C@]1(CO1)[C@@H](C=O)C#C	
InChI=1S/C7H8O2/c1-3-6(4-8)7(2)5-9-7/h1,4,6H,5H2,2H3	InChI=1S/C7H8O2/c1-3-6(4-8)7(2)5-9-7/h1,4,6H,5H2,2H3/t6-,7+/m1/s1
