17
gdb 48429	2.3036	1.31437	1.03407	3.2563	73.45	-0.2465	-0.0296	0.2169	1188.9254	0.134936	-418.001869	-417.992873	-417.991929	-418.036162	32.686	
O	-0.6020468046	 0.35062248	 0.2623052	-0.274673
C	 0.2819791951	 0.8878693339	-0.3580928852	 0.155977
C	 1.1309965322	 1.9982448632	 0.1475017399	 0.241711
C	 2.6008714714	 1.930475156	-0.3203780966	-0.302842
C	 1.6745386305	 2.9449195836	-0.903701107	-0.320718
N	 0.7477171476	 2.5383898667	 1.4212389451	-0.337688
C	 0.9166199485	 1.6719285666	 2.5817739322	-0.30785
C	 2.3208614234	 1.3744007626	 2.9376755562	 0.253431
N	 3.4334996512	 1.1865966443	 3.1904546922	-0.318366
H	 0.5519649749	 0.5565474708	-1.387092485	 0.077352
H	 3.3360959982	 2.2499225357	 0.4075162029	 0.154696
H	 2.9074034026	 1.0899350226	-0.9335124397	 0.132222
H	 1.3288953462	 2.8170158752	-1.9238728787	 0.134377
H	 1.7800779232	 3.9815249291	-0.6007044803	 0.132741
H	 1.1719675633	 3.4437036891	 1.5788571723	 0.234561
H	 0.4408292766	 2.1471850044	 3.4456440995	 0.155467
H	 0.3824371099	 0.7370260962	 2.3973915723	 0.189603
47.6714	99.6502	147.0719	192.5226	235.3231	292.0942	342.158	350.9435	391.6188	465.7327	541.6939	622.2989	658.1409	766.7388	793.8053	831.4028	891.6363	912.9188	954.1389	989.1563	1036.2488	1046.4033	1059.9632	1091.2403	1122.5336	1193.7057	1242.6328	1290.2465	1347.7933	1386.5461	1431.5596	1464.9364	1467.4604	1493.8443	1512.0358	1815.7285	2345.6791	2870.4083	3064.6017	3120.4393	3133.8019	3145.344	3215.7901	3241.6463	3562.7093
O=CC1(CC1)NCC#N	O=CC1(CC1)NCC#N	
InChI=1S/C6H8N2O/c7-3-4-8-6(5-9)1-2-6/h5,8H,1-2,4H2	InChI=1S/C6H8N2O/c7-3-4-8-6(5-9)1-2-6/h5,8H,1-2,4H2
