14
gdb 20647	7.32871	1.24217	1.06923	5.9522	67.61	-0.2445	-0.0442	0.2004	1049.4036	0.107999	-378.759471	-378.752027	-378.751083	-378.791851	26.001	
C	-0.0296013431	 1.5216686827	 0.050546662	-0.504215
C	-0.0004189796	 0.0325500626	-0.056827331	 0.392637
C	-0.0411943097	-0.8224669878	-1.1365327321	-0.373144
C	 0.0221310946	-2.1280330229	-0.5854213955	 0.245815
C	 0.009823184	-3.3927874266	-1.3371027339	 0.09766
O	 0.0645778425	-4.5006435711	-0.8614655594	-0.261242
N	 0.0976541762	-2.0881004935	 0.7504694665	-0.259655
N	 0.0820288686	-0.7836021816	 1.0346129008	-0.231909
H	 0.8811149256	 1.9137635933	 0.517307986	 0.143011
H	-0.1118807776	 1.9653559306	-0.9433811224	 0.149478
H	-0.8826234997	 1.8698842892	 0.6438297582	 0.142534
H	-0.107523618	-0.5477402447	-2.177368063	 0.115155
H	-0.0572665507	-3.2401244283	-2.4390199579	 0.065849
H	 0.1300681668	-0.5008718419	 2.0010626617	 0.278026
58.4586	102.3247	183.2278	223.3463	325.0768	330.8012	467.5223	587.3401	666.7167	685.8841	713.8375	800.7334	822.0083	990.3396	1012.6831	1035.5205	1043.4775	1064.8501	1148.6609	1228.761	1292.8357	1402.7093	1413.6053	1437.2098	1451.2688	1478.3695	1482.4896	1505.4568	1614.2845	1812.5878	2865.0995	3033.1862	3084.6037	3133.894	3262.2277	3644.6974
CC1=CC(C=O)=NN1	Cc1cc(C=O)n[nH]1	
InChI=1S/C5H6N2O/c1-4-2-5(3-8)7-6-4/h2-3H,1H3,(H,6,7)	InChI=1S/C5H6N2O/c1-4-2-5(3-8)7-6-4/h2-3H,1H3,(H,6,7)
