23
gdb 90450	2.88509	1.25305	1.16612	1.4697	85.2	-0.2499	0.0716	0.3216	1210.417	0.20611	-388.295651	-388.286368	-388.285424	-388.329028	36.647	
C	 0.1638531646	 1.5870202818	 0.1296770054	-0.48804
C	 0.1151413799	 0.0720193059	 0.0583110864	 0.342254
C	-1.2238507711	-0.4531865588	-0.4361952307	-0.447792
C	 1.3182882161	-0.7577067195	-0.3483357087	-0.088145
C	 2.7152104643	-0.1496606006	-0.3515730266	-0.24338
C	 3.0609430489	 0.2494193459	 1.1067758824	 0.107702
O	 3.2698665721	 1.6619644551	 1.1456284052	-0.41633
C	 1.8778623217	-0.2325516864	 2.0011492844	-0.272182
C	 0.8082180844	-0.8079454801	 1.0815416327	-0.082715
H	 1.1231536043	 1.971681119	 0.4776241941	 0.148368
H	-0.0318267956	 2.0198938923	-0.8591522841	 0.106916
H	-0.6165671321	 1.9605331495	 0.8045586656	 0.103397
H	-1.4462176486	-0.0770067841	-1.441992837	 0.111008
H	-1.2394068443	-1.5469751048	-0.4792722304	 0.107555
H	-2.0397072675	-0.1339744755	 0.2235251098	 0.109902
H	 1.1377890921	-1.5853061111	-1.027562496	 0.071696
H	 3.4323281978	-0.8876686242	-0.723980131	 0.097291
H	 2.8076358625	 0.7341959919	-0.990810311	 0.117074
H	 3.9893254279	-0.2462979084	 1.4231712797	 0.071629
H	 3.4600107515	 1.9072065102	 2.0567459493	 0.280344
H	 2.217327182	-1.0107918713	 2.6931871767	 0.095953
H	 1.5133674913	 0.6001097503	 2.6151987089	 0.095706
H	 0.2573362477	-1.671137687	 1.4427632849	 0.071789
85.6839	156.9644	209.8542	215.5201	224.5588	281.8705	324.2993	357.2699	409.3392	410.5301	439.427	483.1997	652.932	671.7982	714.059	782.3645	806.6038	862.3481	914.7128	974.1597	981.0327	989.4334	991.8529	998.2453	1029.3927	1077.7075	1084.3027	1096.6922	1135.0616	1159.2224	1189.2095	1215.0736	1234.0513	1252.9647	1282.3219	1322.179	1323.4363	1326.7351	1367.4654	1411.3555	1417.3527	1430.0677	1443.6578	1477.475	1487.7737	1488.8491	1494.8328	1514.9137	1518.8699	2988.3943	3016.3709	3020.8089	3028.2805	3049.8515	3067.4787	3068.5949	3077.4723	3087.1877	3094.5931	3141.2506	3142.7165	3153.2499	3816.6678
CC1(C)C2CC(O)CC12	CC1(C)[C@H]2C[C@@H](O)C[C@@H]12	
InChI=1S/C8H14O/c1-8(2)6-3-5(9)4-7(6)8/h5-7,9H,3-4H2,1-2H3	InChI=1S/C8H14O/c1-8(2)6-3-5(9)4-7(6)8/h5-7,9H,3-4H2,1-2H3/t5-,6+,7-
