13
gdb 129310	3.51804	1.452	1.10883	1.3796	76.45	-0.2681	-0.1093	0.1589	1022.8021	0.08827	-448.86089	-448.853365	-448.852421	-448.89323	27.822	
N	 0.1440799179	 0.9089537944	-1.085966352	-0.472519
C	-0.0169239889	 0.1890981626	-0.0498173137	 0.341357
O	 0.9158000029	 0.1415347239	 0.9576465008	-0.30523
N	 1.4680078579	-1.261440441	 1.2926713784	 0.007433
N	 0.7110259515	-1.9889830567	 1.8741735438	-0.068344
C	-0.658507295	-1.6918974164	 2.2642856862	 0.343827
N	-1.0262958908	-1.9505969937	 3.4489777044	-0.454175
C	-1.5919979205	-1.2763055102	 1.2148178835	-0.101772
C	-1.2914477424	-0.5040689052	 0.1638146491	-0.06651
H	 1.0736896775	 1.3341676263	-1.0702949949	 0.23824
H	-0.2500822684	-2.3153808561	 4.0060708493	 0.250015
H	-2.5999110934	-1.6545197209	 1.3482696895	 0.144896
H	-2.0428359382	-0.288911037	-0.5872468845	 0.142781
72.9426	115.3201	257.8587	301.801	315.1854	373.6986	417.5444	511.9559	578.0709	613.4188	706.287	718.7857	774.9274	830.4918	839.0175	885.8196	930.7208	942.7405	1022.706	1033.3361	1094.2904	1201.4154	1295.0309	1348.1877	1402.155	1658.6723	1687.0485	1716.5496	1757.985	3192.3547	3213.9796	3462.8821	3472.7733
N=C1ON=NC(=N)C=C1	[NH]C1=C[CH][C](N=NO1)[NH]	
InChI=1S/C4H4N4O/c5-3-1-2-4(6)9-8-7-3/h1-2,5-6H	InChI=1S/C4H4N4O/c5-3-1-2-4(6)9-8-7-3/h1-2,5-6H
