22
gdb 109836	3.09777	0.83137	0.76445	3.1327	83.78	-0.2289	-0.0202	0.2087	1595.4039	0.191029	-404.328386	-404.317683	-404.316738	-404.365424	37.678	
C	 0.2031160024	 1.4861602438	 0.1508243754	-0.384549
C	-0.5967494884	 0.3661822711	-0.526448438	-0.199497
C	 0.2647084355	-0.4458012687	-1.4737789787	 0.000411
C	 0.9879887267	-1.6967042797	-1.0770100191	-0.002117
C	 0.9396304841	-2.2886932969	 0.3152591928	-0.42277
N	-0.1408044731	-1.7444366963	-2.0186403336	-0.133743
C	-1.4039221974	-2.3507389529	-1.6371197185	-0.231189
C	-1.5166224628	-3.7326141574	-2.2660822048	 0.159053
O	-2.1565122882	-4.6383217443	-1.7994835288	-0.242761
H	 1.0074812588	 1.0784285072	 0.7714989162	 0.121751
H	 0.6613601734	 2.1480528278	-0.5919587043	 0.120364
H	-0.4397149866	 2.09794029	 0.7905433046	 0.116686
H	-1.0573567971	-0.2690139508	 0.2354117946	 0.10049
H	-1.4257951097	 0.8061100612	-1.0966893116	 0.104254
H	 0.7520121297	 0.1796239791	-2.2242362706	 0.086023
H	 1.9381458979	-1.8872318159	-1.5761345337	 0.090528
H	 0.049797085	-2.0087092064	 0.8820615334	 0.125471
H	 0.9776860068	-3.3830955379	 0.2740778863	 0.132416
H	 1.8119839484	-1.9521154082	 0.8850353645	 0.126589
H	-1.6072797097	-2.4481839626	-0.5629439477	 0.11415
H	-2.2195934848	-1.7483304977	-2.064515635	 0.130908
H	-0.9539315511	-3.8311638145	-3.2208743034	 0.087532
40.6135	67.2771	71.0207	109.6754	157.5387	201.3926	248.2248	256.4439	292.1998	304.4716	444.6973	508.8604	534.6042	561.5304	705.0813	756.7733	781.1295	812.1096	867.6859	968.7319	995.1207	1035.6744	1054.6556	1059.5071	1073.8274	1103.8828	1139.2392	1164.643	1185.1711	1201.779	1245.1115	1287.7325	1325.1267	1343.5185	1350.8	1394.2747	1402.9202	1411.5196	1418.6106	1446.4595	1457.8752	1486.2057	1498.4565	1499.6492	1500.2574	1511.3697	1837.7289	2894.6564	2999.6205	3023.0957	3035.0274	3037.8156	3044.0803	3071.8781	3084.6331	3094.9765	3097.2613	3106.6994	3109.6117	3131.482
CCC1C(C)N1CC=O	CC[C@H]1[C@@H](C)N1CC=O	
InChI=1S/C7H13NO/c1-3-7-6(2)8(7)4-5-9/h5-7H,3-4H2,1-2H3	InChI=1S/C7H13NO/c1-3-7-6(2)8(7)4-5-9/h5-7H,3-4H2,1-2H3/t6-,7+,8?/m1/s1
