17
gdb 10946	4.05973	1.53244	1.35105	2.7055	68.8	-0.2432	-0.0272	0.216	956.0798	0.140951	-363.829937	-363.822183	-363.821238	-363.862219	28.725	
C	 0.180688814	 1.4742005433	-0.1212337303	-0.48865
C	-0.0125559671	-0.0115872171	-0.0696803259	 0.360826
C	-0.9168150174	-0.692383445	 0.8805421913	-0.275472
N	 0.5393139145	-0.8786040216	 1.0633771186	-0.187495
C	 0.940105107	-1.8875559688	 0.0163669563	-0.028029
C	 0.4588611163	-0.9953543372	-1.1457866125	-0.330587
C	 2.4324392728	-2.1250914318	 0.1058604796	 0.146784
O	 3.2045007035	-2.0048074745	-0.809678951	-0.237543
H	 1.1986168827	 1.7293792241	-0.433835829	 0.129478
H	-0.515170077	 1.9285655615	-0.8365173146	 0.124795
H	 0.0015160394	 1.9247299939	 0.8592641499	 0.129725
H	-1.3636890357	-0.0919791282	 1.667502064	 0.121908
H	-1.5187863433	-1.5424129047	 0.5631462958	 0.109704
H	 0.4388416607	-2.8575417776	 0.1497808572	 0.094234
H	-0.306683879	-1.3934088447	-1.8165512357	 0.104335
H	 1.3013821078	-0.6324848961	-1.7374192059	 0.135268
H	 2.7710971208	-2.4213951555	 1.1230224023	 0.090719
65.3021	143.3665	184.9275	229.3421	323.9046	349.9557	381.7671	446.7971	611.6019	644.5172	713.5512	781.5479	846.9863	859.8723	935.9048	950.9705	967.9802	1028.8821	1039.4705	1076.8342	1105.7763	1127.2591	1140.4294	1153.5314	1226.0629	1245.6521	1307.3894	1350.7993	1374.6251	1410.2148	1421.2855	1481.6546	1489.5442	1493.4964	1511.7628	1832.6499	2897.8734	3002.9989	3029.2949	3066.2094	3092.3948	3095.1003	3113.0886	3127.5143	3190.3923
CC12CN1C(C2)C=O	C[C@]12CN1[C@@H](C2)C=O	
InChI=1S/C6H9NO/c1-6-2-5(3-8)7(6)4-6/h3,5H,2,4H2,1H3	InChI=1S/C6H9NO/c1-6-2-5(3-8)7(6)4-6/h3,5H,2,4H2,1H3/t5-,6-,7?/m0/s1
