17
gdb 55501	3.43853	1.01127	0.78535	4.4901	74.07	-0.2502	-0.0467	0.2035	1410.3843	0.135953	-451.385815	-451.376057	-451.375113	-451.421099	34.627	
C	-0.0409084559	 1.520117637	-0.0466337344	-0.464763
C	 0.1637597596	 0.0290815508	 0.0283871987	 0.377849
N	 1.3244014636	-0.4804213025	 0.0792599552	-0.4904
N	-1.0566470534	-0.6843651046	 0.0339660585	-0.379996
C	-1.2219344686	-2.0310124865	 0.0899116314	 0.436322
O	-0.3355938795	-2.8695904208	 0.147711726	-0.389898
C	-2.6941320233	-2.4466694255	 0.0701534599	 0.286198
N	-2.8271497743	-3.7899818532	 0.1690805182	-0.531964
N	-3.5790582559	-1.5246208074	-0.0215860498	-0.54721
H	 0.9314230037	 2.0105525169	-0.0458568747	 0.155442
H	-0.584363617	 1.7955259569	-0.9577691228	 0.136104
H	-0.6277653787	 1.8784094047	 0.806902519	 0.136056
H	 1.2700912403	-1.4986416725	 0.1257354859	 0.246951
H	-1.9373101605	-0.1811515279	-0.0149116279	 0.274939
H	-1.9794481662	-4.3362296054	 0.1645725387	 0.280575
H	-3.7188307079	-4.2417648894	 0.075176393	 0.260431
H	-4.532020906	-1.8877574005	-0.028123245	 0.213366
58.9903	86.1819	105.5242	154.4783	165.0864	193.6153	307.9994	340.79	396.0354	470.3098	528.9959	544.9155	559.8641	580.9484	644.9902	747.0809	821.2394	852.6	895.027	923.446	964.3652	1030.5683	1078.3619	1081.8552	1127.2467	1144.9317	1222.8049	1355.6188	1408.6342	1434.3385	1475.0024	1483.5161	1537.7473	1597.2761	1725.8931	1729.3787	1788.6822	3035.1891	3090.3831	3166.802	3477.8235	3484.3604	3528.1041	3592.2515	3737.3997
CC(=N)NC(=O)C(N)=N	CC(=N)NC(=O)C(=N)N	
InChI=1S/C4H8N4O/c1-2(5)8-4(9)3(6)7/h1H3,(H3,6,7)(H2,5,8,9)	InChI=1S/C4H8N4O/c1-2(5)8-4(9)3(6)7/h1H3,(H3,6,7)(H2,5,8,9)
