18
gdb 65542	2.92016	1.55141	1.32396	2.6459	75.47	-0.2423	0.0278	0.2701	1006.0819	0.150855	-398.098142	-398.0906	-398.089656	-398.129828	30.182	
N	-0.0560432201	 1.4630503088	 0.0152159697	-0.545599
C	-0.04770274	-0.0015782455	-0.0077011649	 0.121092
C	 0.4140550585	-0.5997538916	 1.3900538941	-0.205022
N	-0.7915870855	-1.3207473039	 1.8614086698	-0.117665
C	-1.1931905549	-2.0198122486	 0.5744548722	-0.193674
C	-1.4779865564	-0.599532416	 0.0270135247	-0.049866
C	-1.8647979815	-0.3117991579	 1.4970752372	-0.186861
C	 0.7408164165	-0.5289378974	-1.1341123828	 0.231882
N	 1.3728722108	-0.9035979118	-2.0283396806	-0.350393
H	 0.8901588295	 1.8118455419	 0.1430045581	 0.243017
H	-0.3723871641	 1.8249793151	-0.8808207667	 0.241559
H	 1.2576860455	-1.2855848837	 1.2961855736	 0.128879
H	 0.6726502592	 0.209204424	 2.0770190925	 0.121351
H	-0.4131593037	-2.6278322902	 0.108386111	 0.124068
H	-2.094519372	-2.61438517	 0.732816776	 0.118284
H	-2.1177564495	-0.3926811821	-0.8326003708	 0.079313
H	-2.848612094	-0.6982774952	 1.7693200262	 0.1132
H	-1.714138598	 0.695008934	 1.8879101508	 0.126433
138.7717	155.0365	248.1802	259.9728	333.4583	443.4503	477.9085	492.1656	535.5498	583.3633	635.764	746.2132	822.1996	845.4979	852.6682	876.5435	890.3941	927.6468	965.8	986.8913	1032.9681	1036.1626	1065.2717	1106.5185	1144.0401	1175.4535	1210.5356	1219.2467	1239.5861	1266.2986	1274.1888	1280.9569	1307.8663	1339.8607	1490.3806	1499.1281	1533.3087	1659.7305	2333.9292	3064.8085	3073.7201	3080.2915	3105.0096	3130.6369	3134.4889	3148.7834	3485.2912	3561.6566
NC1(CN2CC1C2)C#N	N[C@]1(CN2C[C@H]1C2)C#N	
InChI=1S/C6H9N3/c7-3-6(8)4-9-1-5(6)2-9/h5H,1-2,4,8H2	InChI=1S/C6H9N3/c7-3-6(8)4-9-1-5(6)2-9/h5H,1-2,4,8H2/t6-/m0/s1
