16
gdb 37341	3.38754	1.89101	1.81827	3.6095	64.85	-0.2364	0.0685	0.3049	808.8818	0.127391	-437.813864	-437.808172	-437.807228	-437.843598	24.74	
N	-0.0298443077	 1.483458653	 0.022456049	-0.33364
C	 1.2862153778	 0.8034490538	-0.0044674628	-0.046011
C	 0.0370114677	 0.0034824477	 0.0035295664	-0.046015
C	 0.0520391565	-0.6529341335	-1.4048672768	-0.006545
O	 1.4606272031	-0.8602153635	-1.6017052865	-0.239932
C	 1.8633360153	 0.5070218388	-1.416469731	-0.006543
C	 0.9820494591	 1.2329436866	-2.448609815	 0.054077
O	 0.6311608724	 0.4153678148	-3.5668693408	-0.248281
C	-0.2480463519	 0.44517992	-2.4407411829	 0.054079
H	-0.2212111438	 1.7918425634	 0.9744109182	 0.233383
H	 1.9464911302	 0.8689888113	 0.8522458053	 0.09925
H	-0.2909375695	-0.563816787	 0.866569526	 0.099251
H	-0.4780540627	-1.5996015774	-1.4939221393	 0.084684
H	 2.9440871864	 0.5919428764	-1.5158380422	 0.084685
H	 1.0147675089	 2.3058727681	-2.5942704553	 0.108779
H	-1.2375683018	 0.8634557974	-2.5798646624	 0.108779
283.9094	292.4651	414.6746	450.9863	579.3539	634.0188	663.1144	765.1225	787.9353	819.7842	859.3707	864.1084	882.6696	901.2199	909.5664	925.7339	943.1847	967.6786	986.3672	1011.0529	1026.1835	1063.5681	1086.5586	1140.2336	1145.2195	1194.966	1242.7274	1244.8698	1254.0393	1295.3558	1305.7732	1321.896	1339.292	1389.5582	1419.9318	3137.1627	3139.4041	3178.2887	3185.8965	3187.9924	3198.0917	3479.0426
N1C2C1C1OC2C2OC12	N1[C@H]2[C@@H]1[C@@H]1O[C@H]2[C@H]2O[C@@H]12	
InChI=1S/C6H7NO2/c7-1-2(7)4-6-5(9-6)3(1)8-4/h1-7H	InChI=1S/C6H7NO2/c7-1-2(7)4-6-5(9-6)3(1)8-4/h1-7H/t1-,2+,3+,4-,5+,6-
