21
gdb 114752	2.27077	1.66052	1.22886	0.5195	77.87	-0.2379	0.0844	0.3224	1121.6682	0.182657	-424.215228	-424.206428	-424.205484	-424.248466	33.706	
C	-0.5951314569	 1.1158115412	 0.4625219544	-0.242671
O	-0.4084570476	-0.2873499993	 0.4936559526	-0.230906
C	 0.8194551881	-0.6769607642	 1.0546966352	 0.175731
O	 0.9064676353	-0.3340900502	 2.4283579636	-0.261287
C	 0.5321295096	-1.452513602	 3.206111892	 0.099524
C	-0.7814666442	-2.126637211	 2.9110099605	-0.324402
C	 0.5216389976	-2.6810571249	 2.35301426	-0.086022
C	 0.9588328772	-2.2187512133	 0.9673236094	-0.029011
C	 0.2420500104	-2.8643498143	-0.2193059978	-0.391394
H	 0.1983036174	 1.6084363806	-0.1203556448	 0.104843
H	-1.5570935228	 1.2999926105	-0.020761961	 0.124159
H	-0.6039027078	 1.5423606209	 1.4718767352	 0.128445
H	 1.6320558886	-0.1329711821	 0.5508201118	 0.071421
H	 0.9358774063	-1.3972375924	 4.2097046908	 0.097695
H	-1.2430651331	-2.6852942115	 3.7188342614	 0.106344
H	-1.4685758826	-1.6289651423	 2.238030762	 0.135315
H	 0.88881651	-3.6344268626	 2.7149617441	 0.086843
H	 2.0329840178	-2.4286306613	 0.8853427988	 0.081606
H	-0.8362550391	-2.7052438703	-0.1637425428	 0.13272
H	 0.5930546171	-2.4481977374	-1.1687413059	 0.113419
H	 0.4332981387	-3.9419954943	-0.2332300096	 0.107629
101.0903	134.3108	181.4834	206.2069	222.9182	235.9975	306.7638	392.8001	453.3467	501.9426	567.4345	660.483	743.4866	760.907	804.1517	869.0897	924.9914	957.6914	965.1292	994.3658	1006.5774	1036.7269	1064.8376	1083.562	1098.3225	1113.5645	1136.1598	1151.174	1179.0824	1180.5442	1206.1985	1219.7368	1303.0186	1327.9334	1346.8089	1381.7301	1391.9376	1398.7608	1415.1545	1466.9038	1478.209	1483.4759	1495.6206	1497.3599	1514.252	2987.9346	2995.0685	3025.558	3043.6188	3067.2758	3103.8162	3124.3347	3135.2049	3137.4494	3172.024	3188.6503	3234.0493
COC1OC2CC2C1C	CO[C@H]1O[C@H]2C[C@H]2[C@H]1C	
InChI=1S/C7H12O2/c1-4-5-3-6(5)9-7(4)8-2/h4-7H,3H2,1-2H3	InChI=1S/C7H12O2/c1-4-5-3-6(5)9-7(4)8-2/h4-7H,3H2,1-2H3/t4-,5+,6+,7+/m1/s1
