17
gdb 30849	2.8055	1.24406	0.91008	1.5667	72.21	-0.1697	0.0553	0.225	1263.3005	0.137111	-451.352172	-451.342787	-451.341843	-451.38639	34.224	
C	 0.2614684125	 0.9692967159	-0.6316515681	-0.323718
N	-0.3397388939	 0.3857251593	 0.5693897203	-0.395487
C	 0.4387652672	-0.5244170563	 1.295501526	 0.18679
C	 0.8031748257	-1.8377378639	 1.1354995067	 0.240302
N	 0.4337478291	-2.7317867465	 0.1212056558	-0.604666
N	 1.5665481047	-2.2794942663	 2.2005904063	-0.417358
C	 1.6634908985	-1.2399890141	 2.9937057975	 0.441449
O	 2.3285172251	-1.1963931558	 4.1626463183	-0.42895
N	 1.0255071796	-0.1531908577	 2.5282557975	-0.332192
H	 0.532028672	 0.2354853587	-1.4085605844	 0.096087
H	-0.4371883703	 1.6880715801	-1.0720202832	 0.116027
H	 1.1722343303	 1.5086045013	-0.3554118326	 0.12742
H	-1.2650086245	 0.0228819038	 0.3740305968	 0.232063
H	 1.0338584264	-3.5468802403	 0.1403282263	 0.24635
H	 0.4556686682	-2.3156962428	-0.8009751467	 0.239672
H	 2.7016104395	-2.0779405572	 4.2881743254	 0.309746
H	 0.9355327499	 0.7425578917	 2.9755822083	 0.266465
65.8516	120.242	162.5498	170.4448	244.6019	267.4492	291.2903	327.0275	397.8648	417.2832	460.6076	536.7652	609.0794	649.4857	662.9231	725.5813	737.1389	793.8542	832.7533	1035.7867	1057.2307	1103.1218	1136.2615	1165.5844	1187.9227	1210.8533	1270.2489	1348.2385	1430.1104	1465.9473	1470.7498	1494.3974	1514.1707	1569.6501	1616.7029	1639.0057	1676.0429	2966.0601	3064.6062	3109.0862	3532.6428	3534.6728	3628.3309	3680.2052	3804.2457
CNC1=C(N)N=C(O)N1	CNc1c(N)nc(O)[nH]1	
InChI=1S/C4H8N4O/c1-6-3-2(5)7-4(9)8-3/h6H,5H2,1H3,(H2,7,8,9)	InChI=1S/C4H8N4O/c1-6-3-2(5)7-4(9)8-3/h6H,5H2,1H3,(H2,7,8,9)
