20
gdb 62602	3.3663	1.73132	1.51372	1.7149	80.46	-0.2186	0.0812	0.2998	955.8643	0.171734	-365.927206	-365.919851	-365.918907	-365.958311	30.669	
C	-0.0373358632	 1.5870847754	 0.0298305144	-0.465956
C	 0.0010636052	 0.0652097194	 0.008668534	 0.317926
C	-1.3833032442	-0.5412758879	-0.2420893375	-0.448652
C	 1.0898684682	-0.6363503446	-0.8439017873	-0.03892
C	 2.4778834253	-0.2021830194	-0.3521554722	-0.10691
C	 2.2141154408	-0.2299545766	 1.1711685352	-0.106919
C	 2.6253166247	-1.467326266	 0.4350613395	-0.035879
N	 1.1620901841	-1.7958425249	 0.1756796833	-0.192129
C	 0.7442816261	-0.6728129871	 1.1521185667	-0.038915
H	 0.9542406499	 2.0127044113	 0.2091964082	 0.118057
H	-0.4080552534	 1.9818784427	-0.9230969271	 0.113587
H	-0.7090345764	 1.9500964443	 0.8162207287	 0.113588
H	-1.7869450402	-0.2022813027	-1.2029177244	 0.108747
H	-1.3402872477	-1.6332544167	-0.2545763006	 0.141414
H	-2.0884716973	-0.2340720464	 0.5385505683	 0.108747
H	 0.9409570103	-0.8829283994	-1.8967894673	 0.068007
H	 3.2289915269	 0.4295071191	-0.8076902899	 0.0899
H	 2.7645221797	 0.3806143279	 1.8747068481	 0.0899
H	 3.4280774352	-2.1822907865	 0.5610267853	 0.0964
H	 0.2516924159	-0.955651792	 2.0842704348	 0.068009
207.0449	213.4817	225.6883	249.3607	329.2475	337.3343	521.8757	570.4801	600.7973	757.0711	795.437	806.9303	813.2678	818.4408	858.1652	912.9322	914.2849	927.0086	929.0853	955.6479	970.9303	993.9587	1014.2231	1026.1912	1029.4174	1059.6024	1090.5206	1152.5596	1182.4864	1188.1497	1207.6469	1211.4282	1220.4304	1276.3095	1278.6241	1321.7354	1367.1963	1396.8667	1417.9211	1486.5842	1489.7394	1503.5217	1511.8339	3024.8136	3029.3102	3084.1191	3088.2378	3095.4287	3097.9901	3107.5178	3120.8219	3188.1544	3195.279	3209.5927
CC1(C)C2C3C4C3N2C14	CC1(C)[C@H]2[C@H]3[C@@H]4[C@H]3N2[C@H]14	
InChI=1S/C8H11N/c1-8(2)6-3-4-5(3)9(6)7(4)8/h3-7H,1-2H3	InChI=1S/C8H11N/c1-8(2)6-3-4-5(3)9(6)7(4)8/h3-7H,1-2H3/t3-,4+,5-,6+,7-
