21
gdb 73399	2.58827	1.97007	1.47489	1.5898	80.87	-0.2275	0.0898	0.3173	978.4917	0.185511	-387.089532	-387.082277	-387.081332	-387.120632	30.382	
C	-0.0037725863	 1.5498676503	-0.0413826268	-0.508288
C	 0.0407207443	 0.0399627687	-0.000454553	 0.346897
C	 0.4884692247	-0.7028383228	-1.2649715473	-0.277068
C	 0.3461928431	-2.1795188666	-0.7903437678	-0.247017
C	-0.1429758927	-1.9353961815	 0.635956751	-0.033785
C	 0.7251497157	-0.7521915304	 1.1841836664	-0.11086
C	-0.0675358215	-0.3014718006	 2.4058791343	-0.107393
O	-1.4076549344	-0.3232219789	 1.8680707816	-0.28426
C	-1.178657522	-0.7816912234	 0.5359735631	 0.082849
H	 1.0017066303	 1.978087573	-0.1277385997	 0.11263
H	-0.5825730931	 1.8965133539	-0.905270564	 0.114853
H	-0.4758405341	 1.9591615631	 0.856175374	 0.130866
H	-0.1539162249	-0.4683397581	-2.1205672445	 0.095241
H	 1.5140080891	-0.4447896878	-1.5490016186	 0.0958
H	-0.3764461239	-2.7464846461	-1.3854871095	 0.098218
H	 1.293541589	-2.7261901579	-0.8163460918	 0.098314
H	-0.3565460064	-2.798317536	 1.2687218357	 0.062699
H	 1.8108767485	-0.8266099815	 1.2707019283	 0.062051
H	 0.0092157436	-0.9923515334	 3.2546369058	 0.098102
H	 0.1843119543	 0.7080215217	 2.752091581	 0.098316
H	-2.1267006434	-0.8652795657	 0.0026221917	 0.071836
194.8081	218.1547	264.1045	284.8963	324.9945	379.8674	420.5084	597.6095	638.6819	671.751	710.4754	760.8307	825.6647	912.2344	918.1611	931.3619	941.4715	953.5512	961.9485	988.1986	1002.792	1014.8081	1025.3465	1069.0036	1099.6531	1112.0191	1150.277	1173.4627	1193.9861	1227.402	1234.894	1248.68	1259.4706	1264.9556	1277.1817	1300.9851	1337.6756	1346.1263	1387.4507	1413.2528	1488.6836	1494.6029	1499.6613	1515.0856	1531.5415	3017.874	3026.9797	3037.3854	3050.3537	3053.7196	3069.8074	3084.1721	3092.2308	3098.0548	3104.2978	3110.4968	3116.1511
CC12CCC3C1COC23	C[C@@]12CC[C@H]3[C@@H]1CO[C@@H]23	
InChI=1S/C8H12O/c1-8-3-2-5-6(8)4-9-7(5)8/h5-7H,2-4H2,1H3	InChI=1S/C8H12O/c1-8-3-2-5-6(8)4-9-7(5)8/h5-7H,2-4H2,1H3/t5-,6-,7+,8+/m0/s1
