16
gdb 71097	2.66956	1.57552	1.32405	4.2325	75.66	-0.2546	0.0015	0.2561	1000.1815	0.126169	-396.874468	-396.8671	-396.866156	-396.906124	29.139	
N	 0.2217546793	 1.4700524215	-0.1081676879	-0.609064
C	 0.0188425531	 0.0812777326	-0.0523723015	 0.263652
C	 0.4338149315	-0.8159322134	-1.2420021069	-0.270579
C	-0.5264834428	-1.8607126137	-0.6815041709	-0.082662
N	-0.496397043	-1.8302065118	 0.8155212467	-0.170709
C	 0.4849038055	-0.7469930053	 1.152011624	-0.170054
C	-1.3339395937	-0.8538187414	 0.0557548162	 0.212465
C	-2.7160094718	-0.6087694403	 0.2173202191	 0.109861
N	-3.834874846	-0.3289308263	 0.3308211482	-0.359043
H	-0.1467015114	 1.9572716279	 0.7006790412	 0.247096
H	-0.152502667	 1.896070955	-0.9478516377	 0.245281
H	 0.0668529235	-0.4285105908	-2.1965925021	 0.116167
H	 1.4973372541	-1.0619192646	-1.3218786625	 0.112489
H	-0.870080767	-2.7797172181	-1.1363417676	 0.124679
H	 1.5344342761	-1.0602920489	 1.1741516832	 0.111324
H	 0.2010318798	-0.3145644525	 2.1150434786	 0.119097
117.8158	142.6082	300.6855	307.6662	378.8752	421.4028	446.91	541.4724	561.3896	576.2962	640.8048	720.4686	757.7108	770.5546	870.963	887.1019	920.401	938.6897	983.6584	1028.4349	1049.5985	1056.3619	1103.9688	1142.3962	1157.7581	1240.8031	1245.0624	1286.3682	1335.9621	1387.45	1403.1755	1490.0816	1516.0033	1660.4759	2333.7094	3043.2047	3052.3259	3107.3863	3110.8966	3218.8349	3521.414	3604.6357
NC12CC3N(C1)C23C#N	N[C@@]12C[C@H]3N(C1)[C@@]23C#N	
InChI=1S/C6H7N3/c7-2-6-4-1-5(6,8)3-9(4)6/h4H,1,3,8H2	InChI=1S/C6H7N3/c7-2-6-4-1-5(6,8)3-9(4)6/h4H,1,3,8H2/t4-,5+,6-,9?/m1/s1
