21
gdb 81023	2.20822	1.71802	1.60321	2.4905	77.86	-0.2289	0.064	0.2929	1016.8548	0.183309	-424.21756	-424.209053	-424.208108	-424.249902	33.816	
C	 0.0370951663	 1.5120763615	 0.046170088	-0.466812
C	 0.0210656223	 0.0084291821	-0.1103708245	 0.411268
C	 0.0927417733	-0.6598384717	-1.5179259119	-0.26771
C	-0.690051931	-1.8452956387	-0.8825864905	-0.094668
C	 0.3013574965	-2.7333095693	-0.1186540234	-0.226462
C	 1.0214755561	-1.9099470668	 0.9740353465	-0.055117
O	 1.0725169219	-0.5067582446	 0.697741428	-0.317127
C	-1.3058262107	-0.7812507609	 0.0754674111	 0.08801
O	-1.6763135757	-1.0945951584	 1.3964865969	-0.435687
H	 1.0261026502	 1.9086115753	-0.2025463666	 0.123752
H	-0.7019808905	 1.9780938437	-0.6123513681	 0.104654
H	-0.1892943543	 1.7866871642	 1.0807259478	 0.130062
H	-0.4837584494	-0.1218250372	-2.2749790009	 0.092857
H	 1.0986068081	-0.8663923932	-1.8892148792	 0.099247
H	-1.3625521652	-2.4269102217	-1.5183074336	 0.055476
H	-0.216412202	-3.5719097821	 0.3592314997	 0.095568
H	 1.0148077445	-3.1608032166	-0.8326250128	 0.0991
H	 0.5068133095	-2.0560491215	 1.9281868157	 0.11384
H	 2.0606201203	-2.232914911	 1.0912840324	 0.095804
H	-2.1087883067	-0.2370527697	-0.4414983167	 0.068786
H	-2.5472149835	-1.5031741132	 1.3807150922	 0.285159
170.2961	193.6382	214.4707	224.9706	232.8785	248.8926	315.0633	411.8641	430.7734	524.098	569.4331	626.285	707.6404	784.1906	819.3356	826.3771	854.3206	871.6727	916.4306	953.9682	982.5574	1038.3637	1071.343	1075.9354	1118.8015	1132.4494	1148.4246	1155.9695	1195.2481	1228.0678	1243.7025	1260.0038	1272.1602	1292.189	1313.3168	1353.9894	1368.1049	1408.4517	1422.0008	1437.3667	1480.0746	1483.3257	1493.0968	1494.4934	1517.8349	2999.8047	3029.9936	3039.7286	3045.9963	3058.9481	3065.9626	3073.8182	3091.011	3114.2312	3115.6898	3123.9474	3820.4142
CC12CC(CCO1)C2O	C[C@@]12C[C@@H](CCO1)[C@H]2O	
InChI=1S/C7H12O2/c1-7-4-5(6(7)8)2-3-9-7/h5-6,8H,2-4H2,1H3	InChI=1S/C7H12O2/c1-7-4-5(6(7)8)2-3-9-7/h5-6,8H,2-4H2,1H3/t5-,6-,7+/m1/s1
