16
gdb 94518	2.79043	1.23018	1.04596	2.3984	70.24	-0.2687	-0.0959	0.1728	1161.2904	0.122633	-437.883589	-437.874625	-437.87368	-437.918701	31.042	
C	-0.9101751807	 1.1358789074	 0.4660157307	-0.421605
C	-0.1522957511	-0.142357008	 0.1744857623	 0.15451
O	 0.7983309604	 0.0101443132	-0.8961922301	-0.278336
C	 1.8904850069	-0.4774020277	-0.0918954049	-0.096342
C	 0.9931375502	-0.6193835864	 1.1487810978	-0.192049
C	 1.2963768016	 0.3007357435	 2.2978131179	 0.289547
O	 2.1192580178	 1.1820279151	 2.293132602	-0.265555
C	 0.458927249	 0.0749499316	 3.4984395181	 0.229814
N	-0.2065731056	-0.1195988388	 4.4240328037	-0.298064
H	-0.2282126682	 1.9549675153	 0.7110993394	 0.141019
H	-1.4797091721	 1.4233308246	-0.4228350194	 0.140916
H	-1.6150027366	 0.9952389767	 1.2921888776	 0.135083
H	-0.8510726262	-0.9622429223	-0.0367330485	 0.09509
H	 2.2954129874	-1.4219977871	-0.4715404137	 0.111561
H	 2.6917917671	 0.2605957325	 0.0070425136	 0.135393
H	 0.8387983901	-1.6326647295	 1.5249601133	 0.119017
32.6858	61.5951	123.9025	161.5447	244.173	277.4491	282.3878	357.6596	433.2724	474.1108	589.8287	697.0445	736.6012	786.751	887.4472	889.9762	954.0967	1006.7377	1037.2004	1097.0431	1101.8824	1124.4057	1142.3255	1176.4762	1203.6133	1282.4388	1357.3724	1363.2369	1387.8527	1411.891	1483.0146	1496.6991	1519.8994	1789.7179	2335.4203	3016.6026	3036.5368	3040.3286	3090.5814	3100.0868	3114.7065	3122.9506
CC1OCC1C(=O)C#N	C[C@H]1OC[C@H]1C(=O)C#N	
InChI=1S/C6H7NO2/c1-4-5(3-9-4)6(8)2-7/h4-5H,3H2,1H3	InChI=1S/C6H7NO2/c1-4-5(3-9-4)6(8)2-7/h4-5H,3H2,1H3/t4-,5-/m1/s1
