19
gdb 38601	3.54353	1.69783	1.44369	1.7657	77.91	-0.2581	0.0838	0.3419	945.2898	0.162904	-385.836469	-385.830248	-385.829303	-385.866737	26.849	
C	-0.0698147459	 1.6277999727	-0.0028285737	-0.24113
C	 1.4393187284	 1.2697932465	 0.004401085	-0.07084
C	 1.10255623	 0.1863355871	 1.0827542484	 0.029727
C	 2.0640314519	-0.977587768	 1.31219158	-0.292414
C	 2.5312995105	-1.5987546318	 0.0145950634	 0.050546
O	 1.5332881757	-2.2521592745	-0.7785115728	-0.260043
C	 2.0441442682	-0.9832558733	-1.2238796888	 0.004825
C	 1.1065214458	 0.1880964592	-1.0838382972	-0.000619
C	-0.015691857	 0.0751924417	-0.0067343736	-0.053303
H	-0.4665625617	 2.0998042933	 0.9001508221	 0.089068
H	-0.4531232431	 2.1059878568	-0.9085370953	 0.088578
H	 2.2853733986	 1.9604098835	 0.0042499687	 0.066113
H	 0.7580570665	 0.5999404487	 2.0365173941	 0.061905
H	 2.94100991	-0.6183181722	 1.8666679078	 0.101011
H	 1.5900911829	-1.7417757801	 1.9411790448	 0.112717
H	 3.4924983806	-2.1114053001	 0.0249594406	 0.088686
H	 2.6467706989	-1.0360520334	-2.1296224382	 0.084921
H	 0.7832106705	 0.5856989598	-2.0506137832	 0.061737
H	-0.8534859608	-0.6216522358	-0.0213788123	 0.078513
187.551	266.3084	367.1808	437.1855	442.2716	524.6988	620.1033	742.333	766.9115	786.5876	809.9025	842.9284	871.0705	878.928	902.5721	939.2092	977.5483	995.2672	1015.3761	1028.1959	1052.3648	1067.7496	1088.0185	1099.2628	1108.0573	1132.3273	1152.7258	1176.5688	1208.854	1223.7459	1236.4084	1260.3792	1270.8226	1293.1673	1316.0467	1364.9613	1382.7301	1424.0307	1467.1818	1478.798	1519.0235	3018.7028	3046.3787	3049.8157	3054.8852	3058.9441	3088.4803	3110.3085	3112.6725	3117.3075	3123.8364
C1C2C3CC4OC4C2C13	C1[C@H]2[C@@H]3C[C@H]4O[C@H]4[C@H]2[C@H]13	
InChI=1S/C8H10O/c1-4-3-2-6-8(9-6)7(4)5(1)3/h3-8H,1-2H2	InChI=1S/C8H10O/c1-4-3-2-6-8(9-6)7(4)5(1)3/h3-8H,1-2H2/t3-,4-,5+,6-,7+,8-/m1/s1
