21
gdb 73290	2.78483	1.80387	1.29008	1.4097	81.99	-0.251	0.0784	0.3294	1036.2259	0.183557	-387.063373	-387.055462	-387.054518	-387.09495	32.917	
C	 0.0084539785	 1.5118862281	-0.0488048194	-0.495138
C	 0.0362778157	 0.0002192984	 0.0119681969	 0.370421
C	 0.4661882259	-0.7191496056	-1.2797194495	-0.282096
C	 0.3565859146	-2.195709748	-0.8395361802	-0.313539
C	-0.1093819485	-1.9874100138	 0.6008533271	 0.460391
O	-0.4066744556	-3.1211019187	 1.3600778428	-0.491377
C	 0.6610325617	-0.7659699933	 1.2306169274	-0.165112
C	-0.6023702836	-0.4656161958	 2.0735785418	-0.264263
C	-1.1371336408	-0.8213860567	 0.6627749985	-0.130391
H	 1.00189284	 1.9060764361	-0.2931349943	 0.113883
H	-0.6781628388	 1.8537448849	-0.8322439721	 0.114488
H	-0.3074639494	 1.9705974236	 0.8917592828	 0.118468
H	-0.1981163989	-0.4759786762	-2.1159368269	 0.095912
H	 1.4812216482	-0.4355646114	-1.5784555564	 0.093571
H	-0.3735496977	-2.7715250097	-1.4163043529	 0.102859
H	 1.3125681397	-2.7307777964	-0.8859858146	 0.085356
H	 0.3713320867	-3.6884210102	 1.3690911014	 0.27921
H	 1.707647454	-0.7418468989	 1.5468346472	 0.054058
H	-0.8319178583	-1.1835337687	 2.8617179681	 0.105911
H	-0.7429670129	 0.5595980631	 2.4208480918	 0.086086
H	-2.1749924204	-0.8597692707	 0.3230876705	 0.061302
204.5448	204.6611	224.529	271.0657	309.1544	370.0075	370.3347	429.5571	472.6881	576.5264	661.2722	684.5731	701.8636	719.0832	821.7362	851.2644	901.8892	911.1557	922.3982	993.0952	1007.066	1011.9896	1038.0707	1054.4157	1096.7721	1108.7777	1119.3412	1142.3826	1160.3045	1194.185	1201.4058	1221.7126	1246.8578	1251.7781	1256.5532	1272.2077	1319.4094	1342.2079	1388.1313	1417.3692	1484.9013	1493.1482	1493.2497	1509.6884	1515.2697	3026.3584	3030.7201	3042.165	3066.4345	3069.8228	3074.3363	3080.8038	3087.5011	3089.6635	3110.0498	3136.9747	3808.8901
CC12CCC3(O)C1CC23	C[C@@]12CC[C@@]3(O)[C@@H]1C[C@@H]23	
InChI=1S/C8H12O/c1-7-2-3-8(9)5(7)4-6(7)8/h5-6,9H,2-4H2,1H3	InChI=1S/C8H12O/c1-7-2-3-8(9)5(7)4-6(7)8/h5-6,9H,2-4H2,1H3/t5-,6+,7-,8-
