19
gdb 64886	1.96975	1.68579	1.08155	1.0365	88.87	-0.2359	0.0388	0.2747	1183.3864	0.154784	-348.680528	-348.670344	-348.6694	-348.71477	38.55	
C	-0.0540776565	 1.5200854444	-0.0612508033	-0.461005
C	 0.0029019776	-0.0020687159	-0.013613773	 0.09644
C	 1.3322061813	-0.7045545433	-0.2145556779	-0.348331
C	 0.7134786986	-0.7169264534	 1.1703405618	 0.09644
C	 1.3530702973	 0.104472079	 2.2833094197	-0.461004
C	 0.1469338537	-1.9560439563	 1.6342382024	 0.301218
C	-0.3023696174	-2.9810804691	 2.0743251937	-0.462979
C	-1.170529201	-0.6306482576	-0.5609122322	 0.301216
C	-2.169163827	-1.103037279	-1.0361254157	-0.462975
H	 0.8783659636	 1.9765248045	 0.2758704483	 0.117362
H	-0.2342769864	 1.8474223041	-1.0895965638	 0.134152
H	-0.8707344923	 1.9007230293	 0.5594607429	 0.132678
H	 1.3359424038	-1.6304994851	-0.7758762465	 0.135021
H	 2.2046512147	-0.0747860765	-0.3579226882	 0.116471
H	 1.853262492	 0.9957784508	 1.9001388657	 0.117362
H	 0.6054809453	 0.4156682343	 3.0190835214	 0.132678
H	 2.1013280712	-0.5022851466	 2.8020307536	 0.134152
H	-0.7109036512	-3.8885639704	 2.4438213257	 0.190552
H	-3.0455559772	-1.5397842232	-1.4461775247	 0.190552
106.8417	115.4247	171.1974	178.89	186.12	190.1317	299.4374	302.8966	370.0613	398.58	450.4492	532.178	559.0218	588.1589	595.298	610.2783	642.9697	644.2288	646.4294	698.8283	831.5513	924.1802	943.3529	946.3775	1009.4086	1075.072	1087.6696	1107.4745	1158.274	1221.8345	1306.1386	1342.124	1406.4901	1419.7721	1478.7819	1480.0371	1490.1492	1495.8596	1509.4407	2235.048	2235.5559	3042.8405	3047.7534	3109.3135	3110.5774	3123.9805	3133.1666	3139.1259	3234.1369	3504.4039	3505.0856
CC1(CC1(C)C#C)C#C	C[C@]1(C[C@]1(C)C#C)C#C	
InChI=1S/C9H10/c1-5-8(3)7-9(8,4)6-2/h1-2H,7H2,3-4H3	InChI=1S/C9H10/c1-5-8(3)7-9(8,4)6-2/h1-2H,7H2,3-4H3/t8-,9+
