14
gdb 66881	3.16397	2.00324	1.79259	2.4139	64.19	-0.209	-0.0581	0.1509	786.1884	0.100321	-436.539114	-436.532978	-436.532034	-436.569119	25.952	
O	-0.0789006398	 1.4011248273	 0.0912983611	-0.458263
C	-0.0222736737	 0.0331057559	 0.0417340109	 0.343112
C	-0.2223656578	-0.8014420357	-1.2559369685	-0.111715
N	 0.8244351841	-1.7875048918	-1.3549688998	-0.19474
C	 0.8207416302	-2.2452898024	-0.1628307388	 0.22163
O	 1.8060892071	-1.8315921037	 0.7531378365	-0.285733
C	 0.6679191898	-0.9121158766	 1.1461117767	 0.015036
C	-0.3972658134	-1.9383162225	 0.7678333161	-0.131992
C	-1.183997568	-0.9435652953	-0.0568944654	-0.154509
H	 0.6582476481	 1.7570580751	-0.4195902783	 0.298615
H	-0.5513329972	-0.2806697141	-2.1485223211	 0.11149
H	 0.8264077276	-0.4903877706	 2.1369083828	 0.126791
H	-0.7780566033	-2.6990191953	 1.4397627421	 0.106341
H	-2.2492029938	-0.7753283902	-0.1047223743	 0.113936
241.3918	291.3268	369.7568	409.1325	506.1811	543.8642	592.7245	658.0261	671.5042	689.1013	722.3995	742.843	820.1288	865.9685	891.6443	896.1664	932.2032	963.7442	1001.1819	1037.7159	1055.2864	1095.6147	1108.5028	1160.9008	1187.7686	1213.8271	1256.4282	1289.5018	1297.88	1434.3439	1559.1989	3147.9446	3183.2257	3185.7877	3237.346	3775.3574
OC12C3N=C4OC1C4C23	O[C@@]12[C@H]3[N][C]4O[C@@H]1[C@H]4[C@@H]23	
InChI=1S/C6H5NO2/c8-6-2-1-4(6)9-5(1)7-3(2)6/h1-4,8H	InChI=1S/C6H5NO2/c8-6-2-1-4(6)9-5(1)7-3(2)6/h1-4,8H/t1-,2-,3+,4-,6+/m1/s1
