19
gdb 41577	2.86456	1.80135	1.7563	1.2146	71.96	-0.2467	0.0745	0.3211	893.9479	0.163679	-423.014105	-423.007732	-423.006788	-423.044773	26.802	
C	-0.0010795307	 1.5574079648	 0.1469928873	-0.102301
O	 1.4450187192	 1.5738702271	 0.1321781168	-0.293682
C	 1.5002046114	 0.1277075444	 0.1086506115	 0.121513
C	-0.0374932953	 0.0252096364	-0.0335081974	-0.071671
C	-0.1505027044	-0.6486006062	-1.4253162093	 0.056619
C	 0.2425526879	 0.2853276031	-2.589543552	-0.225712
C	 1.789154978	 0.3772456538	-2.405198883	-0.221627
C	 1.992538711	-0.5561211589	-1.1975704417	 0.042527
O	 0.97034828	-1.5538549365	-1.372120589	-0.265663
H	-0.3885112065	 1.8928391865	 1.1166539612	 0.103193
H	-0.4331451049	 2.1831178722	-0.6411621786	 0.105805
H	 1.9798828386	-0.2718173885	 1.0071158986	 0.080799
H	-0.5864275247	-0.5329269779	 0.7244569819	 0.085762
H	-1.0651015803	-1.2209462397	-1.580157785	 0.076183
H	-0.016436071	-0.1911421373	-3.5376234872	 0.106574
H	-0.2551871913	 1.2562687904	-2.5619270381	 0.102753
H	 2.3203953596	-0.0093557551	-3.2770860484	 0.100382
H	 2.1333287619	 1.3908833485	-2.1999173969	 0.123205
H	 2.9638417614	-1.045066747	-1.1286873406	 0.075341
110.6587	282.0648	309.0276	400.2058	495.6291	548.8415	590.5716	728.0712	735.7159	814.9912	826.5043	858.4392	869.4477	892.5382	914.5685	950.2203	969.276	978.5826	1011.1142	1022.8975	1028.5419	1068.7038	1082.514	1094.6066	1124.8869	1164.8155	1197.9376	1230.1115	1246.1851	1249.3685	1263.432	1303.4726	1310.5655	1326.5159	1342.0881	1349.2877	1354.7934	1365.9365	1477.7716	1500.6722	1529.2623	3022.4666	3061.3793	3065.8777	3073.8178	3083.7409	3109.523	3115.5763	3122.3485	3127.7325	3143.3229
C1OC2C1C1CCC2O1	C1O[C@H]2[C@@H]1[C@H]1CC[C@@H]2O1	
InChI=1S/C7H10O2/c1-2-6-7-4(3-8-7)5(1)9-6/h4-7H,1-3H2	InChI=1S/C7H10O2/c1-2-6-7-4(3-8-7)5(1)9-6/h4-7H,1-3H2/t4-,5+,6-,7-/m0/s1
