21
gdb 108635	2.00743	1.35071	0.95188	2.2992	81.95	-0.2363	0.0133	0.2496	1316.201	0.181666	-424.240023	-424.230212	-424.229268	-424.274837	36.526	
C	 0.2241703361	 1.5150875011	 0.0923433125	-0.503371
C	 0.1392233071	 0.023451627	-0.0104372218	 0.203113
C	-0.072988817	-0.7372271875	-1.0976361944	 0.184859
C	-0.2685761595	-0.2965724867	-2.5166372516	-0.178902
O	 0.6699011135	-0.8991043149	-3.4097776901	-0.41219
C	-0.1383597775	-2.2094154405	-0.7359168429	-0.318293
C	 0.4800163193	-2.2589951488	 0.6793160019	 0.124827
O	 1.867644669	-2.571899981	 0.6375093931	-0.435631
C	 0.2362825728	-0.8368121118	 1.2355399511	-0.313399
H	 1.155829941	 1.8197723629	 0.5856404116	 0.125644
H	 0.1753881053	 2.0127617533	-0.8790462883	 0.124269
H	-0.592734779	 1.9101092646	 0.7103385356	 0.131121
H	-1.2496466259	-0.625642321	-2.8815037588	 0.114673
H	-0.2457846813	 0.7989843389	-2.600566209	 0.090659
H	 1.548448202	-0.6315819569	-3.1205697341	 0.27702
H	-1.18103209	-2.5594752125	-0.7323127676	 0.102015
H	 0.4103910087	-2.8522570179	-1.4305419794	 0.118063
H	 0.0377901995	-3.0366056831	 1.3062865604	 0.082403
H	 2.2887483584	-1.9213736363	 0.0641431979	 0.273188
H	 1.0444039193	-0.5411669566	 1.914683171	 0.10495
H	-0.6981063016	-0.7816816023	 1.8130904329	 0.104983
68.1738	86.7692	131.6038	169.8229	229.3444	271.1112	313.2427	329.175	358.3294	385.8341	407.1592	465.5593	552.6811	602.1278	691.7828	813.7029	840.5098	874.239	913.316	935.534	964.2156	1011.3133	1028.1125	1045.2417	1082.7805	1086.6099	1157.532	1170.1949	1179.872	1210.4905	1247.7693	1280.6111	1297.2229	1320.0328	1355.351	1368.3023	1411.607	1417.0796	1432.1344	1468.9263	1480.0077	1482.5485	1485.6653	1501.7332	1721.4254	3002.087	3003.5336	3004.5135	3018.6881	3048.8071	3059.5855	3061.5603	3085.0969	3089.814	3116.2644	3794.4287	3810.9939
CC1=C(CO)CC(O)C1	CC1=C(CO)C[C@@H](O)C1	
InChI=1S/C7H12O2/c1-5-2-7(9)3-6(5)4-8/h7-9H,2-4H2,1H3	InChI=1S/C7H12O2/c1-5-2-7(9)3-6(5)4-8/h7-9H,2-4H2,1H3/t7-/m0/s1
