15
gdb 5388	5.00277	1.57711	1.32549	0.8764	67.56	-0.2661	-0.0474	0.2187	930.0967	0.121407	-358.902931	-358.895903	-358.894959	-358.935059	24.994	
C	-0.01711883	 1.5369953046	 0.0100535076	-0.381587
C	-0.015750322	-0.0032191584	 0.0025089176	-0.253662
C	-1.4166955878	-0.5446589436	 0.0128414867	 0.359285
N	-1.9978794669	-0.7583863035	 1.2022025271	-0.269992
C	-3.2472979809	-1.2120417756	 1.1423021323	 0.080655
N	-3.9427063768	-1.4617693921	 0.0318875774	-0.240762
C	-3.2660743245	-1.2066925327	-1.0888276748	 0.080679
N	-2.0177623501	-0.7527591903	-1.1675722268	-0.270051
H	 1.0075868232	 1.918304272	 0.0026578425	 0.122889
H	-0.5348570404	 1.92863942	-0.8704940238	 0.132923
H	-0.5188534067	 1.9199035467	 0.9036050498	 0.13303
H	 0.4913658244	-0.36837291	-0.8944514426	 0.122454
H	 0.5077865954	-0.3768575935	 0.8864757789	 0.122474
H	-3.7485535262	-1.3998774673	 2.0898777708	 0.130831
H	-3.7831990007	-1.3899389863	-2.0287440627	 0.130834
39.786	124.163	227.2601	276.7566	354.4146	381.1671	539.2432	607.5514	706.9531	802.4748	820.123	853.744	983.5316	985.0576	1011.2542	1049.0926	1065.7852	1083.7614	1185.2159	1193.7817	1263.8386	1303.4754	1319.289	1363.7819	1404.6752	1424.342	1462.0915	1481.049	1497.9312	1511.0323	1579.5602	1607.9344	3043.0091	3063.8869	3107.2982	3120.058	3129.244	3156.9663	3160.7749
CCC1=NC=NC=N1	CCc1ncncn1	
InChI=1S/C5H7N3/c1-2-5-7-3-6-4-8-5/h3-4H,2H2,1H3	InChI=1S/C5H7N3/c1-2-5-7-3-6-4-8-5/h3-4H,2H2,1H3
