17
gdb 39765	2.84525	1.90211	1.67155	1.6893	75.3	-0.2282	-0.0042	0.224	881.3994	0.137466	-384.651654	-384.645172	-384.644228	-384.682018	27.655	
C	 0.0173837921	 1.4609897951	 0.0099414649	-0.297127
O	 1.1728011916	 0.5857569065	-0.0064662579	-0.297463
C	-0.1017603853	 0.0107430245	 0.0030398914	 0.544743
C	-0.599927705	-0.9268876633	 1.1355188818	-0.213873
C	-2.067080207	-0.9787834548	 0.6851321783	-0.079771
C	-2.0804058196	-0.9713499399	-0.6507011104	-0.079772
C	-0.6225248644	-0.9142512711	-1.1296646236	-0.213874
C	 0.0848686252	-2.2027712868	-0.6780839259	-0.071989
C	 0.0981542617	-2.2102215256	 0.6555663217	-0.071989
H	-0.1248968384	 2.0189242269	 0.9342785405	 0.116133
H	-0.1432439187	 2.0291852282	-0.9050920927	 0.116133
H	-0.411578223	-0.6221254812	 2.1639602	 0.068983
H	-2.9101223774	-1.0197098451	 1.361198051	 0.102614
H	-2.9367727423	-1.0048386708	-1.3102269724	 0.102614
H	-0.4547014891	-0.5980113317	-2.1581949627	 0.068983
H	 0.463543224	-2.9555399728	-1.3554512004	 0.102827
H	 0.4901676455	-2.9704666281	 1.3168033664	 0.102827
184.1467	281.9362	326.6621	387.3572	455.3019	534.1243	551.5378	595.1779	684.1977	740.6603	748.8806	804.2692	835.5	882.119	891.1138	920.5618	923.8285	928.3618	940.2941	950.4984	951.4722	1014.7583	1080.6132	1112.0845	1132.7307	1153.8485	1155.2944	1199.5027	1206.5379	1225.0654	1254.9608	1290.1872	1335.9396	1436.779	1543.1032	1610.0065	1651.6794	3084.0362	3128.2238	3130.0248	3170.3631	3211.9045	3216.1774	3236.8924	3241.7654
C1OC11C2C=CC1C=C2	C1O[C@]21[C@H]1C=C[C@@H]2C=C1	
InChI=1S/C8H8O/c1-2-7-4-3-6(1)8(7)5-9-8/h1-4,6-7H,5H2	InChI=1S/C8H8O/c1-2-7-4-3-6(1)8(7)5-9-8/h1-4,6-7H,5H2/t6-,7+,8-
