20
gdb 86051	3.55592	0.97487	0.94729	3.2438	76.5	-0.2101	-0.0379	0.1723	1341.0383	0.168249	-440.266461	-440.256967	-440.256022	-440.300979	35.015	
C	-0.0162672746	 1.487669905	 0.1204388601	-0.319603
N	 0.0909411285	 0.0533542291	 0.0116251226	-0.059109
C	 1.1169622267	-0.517290463	-0.877713374	-0.20579
C	 1.3889239098	-1.6233912951	 0.168892356	 0.418151
O	 0.7044408143	-2.7999460017	-0.194594493	-0.494577
C	 2.8489067771	-1.9252929009	 0.5055499989	-0.367614
C	 3.0196128177	-2.9036074892	 1.6427870358	 0.163325
O	 2.1184484653	-3.5295969235	 2.1515516777	-0.255354
C	 0.6032341766	-0.7107440049	 1.1619280827	-0.216739
H	 0.9362166408	 1.9793317738	 0.4043567308	 0.080827
H	-0.3413051686	 1.9109722552	-0.8361048572	 0.121402
H	-0.767506529	 1.7488786537	 0.8734323334	 0.121766
H	 0.7498353805	-0.8667299898	-1.8479918459	 0.113588
H	 1.988952202	 0.1413505218	-1.0302848455	 0.072599
H	 0.7271824322	-3.371755802	 0.5852244158	 0.289523
H	 3.3545260299	-2.363053857	-0.3690895695	 0.140836
H	 3.4137661816	-1.0163900164	 0.7509018092	 0.12218
H	 4.0639214971	-3.0343118711	 2.0022216474	 0.095709
H	 1.2694077217	-0.1257986865	 1.8194307521	 0.070017
H	-0.1625490598	-1.2011234976	 1.7715445325	 0.108865
66.14	81.7853	148.4424	192.7483	224.5761	293.4315	300.246	302.7307	346.7502	413.4505	466.5465	551.7032	559.9225	693.3717	738.7174	820.7826	896.3355	928.3149	937.5759	964.4663	986.9338	1005.5686	1056.2407	1115.802	1131.4723	1136.4517	1183.2466	1216.5059	1230.1357	1268.0196	1293.2338	1304.5832	1331.0959	1348.4452	1411.9511	1425.4609	1438.9749	1451.6805	1483.909	1486.0739	1497.7179	1513.9608	1808.1636	2894.5053	2901.451	2948.2508	2959.9972	3009.0114	3051.6842	3053.2814	3066.2107	3070.0456	3096.6861	3748.0199
CN1CC(O)(CC=O)C1	CN1CC(O)(CC=O)C1	
InChI=1S/C6H11NO2/c1-7-4-6(9,5-7)2-3-8/h3,9H,2,4-5H2,1H3	InChI=1S/C6H11NO2/c1-7-4-6(9,5-7)2-3-8/h3,9H,2,4-5H2,1H3
