21
gdb 90869	3.26449	1.51408	1.29215	1.3523	81.01	-0.2358	0.0861	0.3219	1066.508	0.18493	-387.07106	-387.06359	-387.062646	-387.1026	30.944	
C	-0.8327337591	 1.2942554133	 0.1351699036	-0.404561
C	 0.0758166447	 0.0844745281	-0.0066032045	 0.163609
C	 0.58512612	-0.1356236507	-1.445115249	-0.2404
C	 1.9181543688	-0.9028722442	-1.4418314042	-0.018499
C	 3.1964200152	-0.0809350034	-1.0449978742	-0.237256
C	 3.316598219	-0.8977093689	 0.2400991842	-0.09129
C	 2.0076997046	-0.8519354346	 0.9763723017	 0.1081
O	 1.1754992121	 0.2727666359	 0.8928439719	-0.273578
C	 2.132567184	-1.7805644214	-0.191310837	-0.131629
H	-0.2874491284	 2.2088919274	-0.118202213	 0.122696
H	-1.6922917302	 1.2072104996	-0.5368645598	 0.112599
H	-1.1991641107	 1.3863533668	 1.1612527747	 0.120062
H	-0.4707417491	-0.8183660442	 0.3089574644	 0.065379
H	-0.1795011041	-0.6810306111	-2.0110498861	 0.092946
H	 0.7226555702	 0.8294387268	-1.9492336751	 0.095997
H	 2.0653190952	-1.4387906022	-2.3808910895	 0.071691
H	 4.0207625013	-0.2637879894	-1.737629029	 0.097817
H	 3.0640492275	 0.9975580254	-0.917404267	 0.099692
H	 4.2375959547	-1.1796373206	 0.7363091384	 0.08135
H	 2.0068204221	-1.3115000262	 1.9630218181	 0.084692
H	 1.9877061821	-2.8518875462	-0.1197114686	 0.080581
116.3755	209.5677	247.0235	296.8616	337.8478	440.4819	453.9756	468.1329	559.4237	702.5228	747.9706	755.1636	799.2404	826.4387	857.302	872.9656	928.3822	953.6663	960.1045	1004.9732	1011.9077	1027.1473	1046.6953	1071.6833	1079.5847	1108.1863	1130.9971	1159.2168	1168.852	1195.3193	1221.5158	1251.5521	1265.0307	1288.9283	1311.4348	1327.5602	1353.8208	1380.0054	1393.5881	1409.3532	1424.9258	1480.4953	1482.5314	1487.878	1500.7322	2970.3943	3020.073	3039.7549	3054.5599	3061.1053	3086.6132	3112.0626	3112.9552	3118.4164	3122.5466	3173.3144	3185.6703
CC1CC2CC3C(O1)C23	C[C@H]1C[C@H]2C[C@H]3[C@@H](O1)[C@@H]23	
InChI=1S/C8H12O/c1-4-2-5-3-6-7(5)8(6)9-4/h4-8H,2-3H2,1H3	InChI=1S/C8H12O/c1-4-2-5-3-6-7(5)8(6)9-4/h4-8H,2-3H2,1H3/t4-,5-,6+,7-,8+/m0/s1
