19
gdb 111455	2.55768	1.50849	1.0533	0.9997	76.62	-0.2319	0.0082	0.24	1152.1864	0.15869	-423.01119	-423.002464	-423.00152	-423.044501	32.911	
C	 0.0110701677	 1.5056892828	-0.0364973734	-0.473855
C	-0.0127940896	 0.0104222124	-0.0481941523	 0.310111
C	-0.0989067178	-0.7780617216	-1.1283222443	-0.19898
C	-0.0341191422	-2.2162478387	-0.7475373243	 0.004853
O	 1.2081362212	-2.5917267574	-0.0931325242	-0.265707
C	 0.0744978427	-2.2591524402	 0.7160163308	 0.009278
C	 0.0739563868	-0.8213864188	 1.2349603515	-0.117041
C	 1.2980443705	-0.5409240659	 2.1124599729	-0.082915
O	 1.1576535804	 0.749855247	 2.6919108411	-0.421501
H	 0.9362075311	 1.8838708362	 0.4086646404	 0.138957
H	-0.0892855184	 1.9093471856	-1.0478467587	 0.112985
H	-0.8018854508	 1.9052807972	 0.5819548677	 0.12745
H	-0.1756044515	-0.4311262488	-2.1520697536	 0.092555
H	-0.4870565633	-3.0030890369	-1.3426318436	 0.094958
H	-0.3134722825	-3.0680608505	 1.3302312362	 0.09264
H	-0.8166434667	-0.6492339142	 1.8562090699	 0.089002
H	 1.3592418971	-1.3148230274	 2.8940671718	 0.089437
H	 2.204224221	-0.6169938033	 1.4971072074	 0.109535
H	 1.9656792241	 0.9512334226	 3.1727745747	 0.288238
91.0281	129.6249	185.5951	195.5454	225.4352	266.866	331.0344	368.508	462.8078	474.1487	589.2375	665.2526	724.2218	801.3097	808.8132	852.8287	877.854	928.2872	975.6205	1006.3237	1036.0102	1045.4042	1063.9842	1074.5636	1108.1495	1118.7691	1193.3893	1229.8619	1247.6896	1253.7975	1284.965	1310.4195	1324.9623	1358.5523	1412.4417	1419.1364	1449.975	1472.6576	1481.7561	1524.4119	1690.735	2973.7918	3009.9852	3030.3997	3037.8353	3087.8087	3117.8348	3140.0659	3165.5627	3200.8492	3830.7693
CC1=CC2OC2C1CO	CC1=C[C@H]2O[C@H]2[C@H]1CO	
InChI=1S/C7H10O2/c1-4-2-6-7(9-6)5(4)3-8/h2,5-8H,3H2,1H3	InChI=1S/C7H10O2/c1-4-2-6-7(9-6)5(4)3-8/h2,5-8H,3H2,1H3/t5-,6+,7-/m0/s1
