14
gdb 24816	3.09873	1.51471	1.01739	5.9761	82.72	-0.2097	-0.0414	0.1683	1084.3976	0.102774	-395.732216	-395.724626	-395.723682	-395.764378	28.91	
N	-0.0475436241	 1.3239089809	 0.0104922324	-0.526431
C	-0.0066111844	 0.0473742978	 0.0033734462	 0.271558
N	 1.2123952105	-0.6733364616	-0.0080205054	-0.310189
C	 1.1964900898	-1.9531998555	-0.0148189166	 0.096321
N	 0.061272885	-2.7212503968	-0.0119728703	-0.311698
C	-1.1689320938	-2.1038087048	-0.0010503399	-0.077924
C	-1.2562579523	-0.7511675736	 0.0067768833	 0.020346
C	-2.5217845387	-0.1127355235	 0.0180233671	 0.272312
C	-3.6053360267	 0.4119668915	 0.0275300313	-0.387938
H	 0.9115722544	 1.6773900182	 0.006481541	 0.213512
H	 2.1304400254	-2.5125531145	-0.0235853618	 0.132567
H	 0.1285185857	-3.7252331466	-0.0177484274	 0.272468
H	-2.0371051884	-2.7491677812	 0.0008257691	 0.142623
H	-4.5487622025	 0.8985800598	 0.0359566511	 0.192474
81.2101	146.8906	193.0798	389.9136	393.7145	398.2469	464.2035	491.6196	566.068	572.234	583.4184	593.168	649.8782	728.5307	801.0708	893.9976	907.7695	918.0619	958.7429	1006.4778	1072.7058	1199.4038	1226.5561	1299.3697	1383.5957	1425.9557	1508.1403	1636.0086	1683.9928	1708.4584	2228.6374	3149.3478	3227.6911	3460.6211	3505.5947	3658.082
N=C1N=CNC=C1C#C	[NH]C1=NCNC=C1C#C	
InChI=1S/C6H5N3/c1-2-5-3-8-4-9-6(5)7/h1,3-4H,(H2,7,8,9)	InChI=1S/C6H6N3/c1-2-5-3-8-4-9-6(5)7/h1,3,7-8H,4H2
