21
gdb 90148	3.3005	1.42116	1.28407	1.36	81.13	-0.21	0.0814	0.2914	1090.5516	0.183861	-387.053257	-387.045339	-387.044395	-387.085159	32.148	
C	-0.0933486799	 1.5870746544	 0.0249171751	-0.402849
C	 0.0483436306	 0.0715780387	-0.0011180509	-0.024208
C	 1.1245651085	-0.5807493973	-0.9503335867	-0.320308
C	 1.7255532511	-1.2620942806	 0.2814274511	 0.391099
C	 2.1812094563	-0.308732141	 1.341252335	-0.404021
C	 0.7036388736	-0.6452709806	 1.2089171115	 0.200086
C	 0.1507956758	-1.8058665188	 2.0069734187	-0.325876
C	 1.1763839824	-2.9504132453	 1.7045629597	-0.09658
O	 1.8276446586	-2.6389510035	 0.4602470679	-0.295162
H	 0.8638091092	 2.0806546812	 0.2246394998	 0.114607
H	-0.4626581839	 1.9622678067	-0.9360173574	 0.112692
H	-0.7975091767	 1.9019936947	 0.8027421531	 0.115277
H	-0.929554537	-0.3800930027	-0.1964035911	 0.075689
H	 0.6909684745	-1.295570246	-1.6515740728	 0.111541
H	 1.7875002997	 0.0978691161	-1.4966559851	 0.095623
H	 2.6926628738	-0.7472968818	 2.1908374514	 0.118083
H	 2.5398300047	 0.6821092362	 1.0773415262	 0.110358
H	 0.0591601434	-1.6432008307	 3.0856367074	 0.104368
H	-0.8420929408	-2.0700203662	 1.6272442507	 0.106142
H	 1.9236321069	-3.0139631741	 2.5071181979	 0.102476
H	 0.7118669793	-3.9354958495	 1.6021060884	 0.110965
140.1207	185.779	220.4636	235.6816	278.0648	362.6435	411.3629	449.8949	562.2115	617.1497	651.7893	708.4461	791.441	814.0367	846.9351	858.7222	880.0654	910.1485	923.9787	939.6593	984.9259	1018.8299	1041.2945	1062.4288	1078.5592	1096.2796	1158.5012	1178.1923	1209.72	1219.9831	1233.2114	1248.1699	1267.232	1293.6946	1323.6878	1352.7365	1379.7235	1392.7423	1413.0742	1473.1787	1487.6075	1494.5494	1495.4838	1498.7496	1526.2919	3010.0811	3027.3582	3041.4079	3047.3415	3049.2332	3076.3783	3090.2577	3093.5934	3097.225	3121.0165	3122.3404	3212.1807
CC1CC23CC12CCO3	C[C@H]1C[C@@]23C[C@@]12CCO3	
InChI=1S/C8H12O/c1-6-4-8-5-7(6,8)2-3-9-8/h6H,2-5H2,1H3	InChI=1S/C8H12O/c1-6-4-8-5-7(6,8)2-3-9-8/h6H,2-5H2,1H3/t6-,7-,8+/m0/s1
