25
gdb 74279	2.31445	1.30005	1.04278	0.31	96.05	-0.2264	0.0346	0.261	1338.1326	0.229072	-352.394828	-352.385003	-352.384059	-352.428585	38.905	
C	-0.0101665779	 1.5462533736	 0.0573676092	-0.473185
C	-0.0101543033	 0.0423052912	-0.0049528937	 0.286883
C	-0.0628025	-0.6223523532	-1.1621756172	-0.144108
C	-0.0294543285	-2.1279444054	-1.329328535	 0.253017
C	-1.4195915078	-2.6241981452	-1.7880455251	-0.407173
C	 1.0001658874	-2.4886919171	-2.4195076804	-0.418631
C	 0.3808785296	-2.7993486859	 0.0013909884	-0.219224
C	-0.2982105628	-2.1605333941	 1.216336698	-0.225806
C	 0.068254638	-0.6756484806	 1.3239165424	-0.278243
H	 0.8820523117	 1.9189770924	 0.5780265754	 0.118862
H	-0.032467656	 1.9948170488	-0.9395528838	 0.116687
H	-0.8746667913	 1.9211867377	 0.6209699765	 0.118566
H	-0.1303884743	-0.0536743297	-2.0901946801	 0.065073
H	-1.7359272639	-2.1088733679	-2.7014630747	 0.108043
H	-1.3977309893	-3.699557027	-2.0007007379	 0.105159
H	-2.1842665541	-2.4410800992	-1.0278002391	 0.1127
H	 1.9966813533	-2.1176107646	-2.159064497	 0.111153
H	 1.0648908465	-3.5751953213	-2.5488117053	 0.106283
H	 0.7213686295	-2.0537391448	-3.3859068959	 0.105994
H	 0.1598684996	-3.8724450053	-0.0458184131	 0.084562
H	 1.4689393525	-2.7099100039	 0.1203861546	 0.087813
H	-1.3869933132	-2.2599602115	 1.1294980395	 0.099384
H	-0.0119328173	-2.6879830824	 2.1328989558	 0.088706
H	 1.085863633	-0.5658014286	 1.7302982539	 0.102366
H	-0.5861096215	-0.1740349159	 2.0493796948	 0.095118
103.8824	133.0989	198.4334	231.8049	249.2448	261.6753	288.8179	328.186	348.4983	405.7048	406.9849	457.7706	479.9015	520.4537	586.7866	734.5879	810.4852	859.6198	879.4795	895.2411	932.178	939.4027	949.2038	988.0419	1008.0012	1043.4156	1048.5027	1065.7246	1074.4583	1147.5386	1154.6023	1199.3296	1227.2191	1232.804	1288.274	1303.3394	1342.1958	1372.5739	1378.8592	1394.1142	1394.6693	1412.2489	1420.6593	1473.0285	1478.1968	1479.9105	1484.1797	1490.5573	1494.2945	1498.8285	1502.1389	1510.8249	1736.4679	2988.2666	3010.5755	3012.073	3020.0855	3022.6432	3026.4112	3035.8244	3055.1063	3056.3263	3070.2816	3085.9718	3091.7099	3098.4826	3106.5008	3107.7705	3116.3482
CC1=CC(C)(C)CCC1	CC1=CC(C)(C)CCC1	
InChI=1S/C9H16/c1-8-5-4-6-9(2,3)7-8/h7H,4-6H2,1-3H3	InChI=1S/C9H16/c1-8-5-4-6-9(2,3)7-8/h7H,4-6H2,1-3H3
