19
gdb 114914	2.95322	1.27969	0.93543	2.5665	79.69	-0.2212	-0.0455	0.1758	1274.7884	0.157945	-423.057946	-423.048528	-423.047584	-423.092864	33.575	
C	-0.067983224	 1.4329287596	-0.0738819046	-0.244912
O	 0.1520455848	 0.0402167219	 0.0828787105	-0.245263
C	 0.6375226672	-0.6042588751	-1.070977196	 0.022885
C	 1.1731481012	-2.0025487761	-0.7183547911	-0.303249
C	 0.5397842944	-2.9101342992	-1.7406138303	-0.159219
C	-0.3664073165	-2.3044729886	-2.5236959963	 0.222783
C	-1.2234483792	-2.8766028826	-3.6048758158	-0.492716
C	-0.4533751369	-0.8753167412	-2.13821471	 0.308797
O	-1.2383180698	-0.0597768296	-2.5718354753	-0.334367
H	 0.8618179402	 1.9475733781	-0.3646155303	 0.099409
H	-0.8366305575	 1.6429274938	-0.8235472375	 0.145079
H	-0.3897035342	 1.8092092824	 0.9002310462	 0.122401
H	 1.4248073443	 0.0047151095	-1.5476728389	 0.085739
H	 2.2668588137	-2.0608530953	-0.7328747391	 0.115784
H	 0.8558075374	-2.2626898106	 0.2982279583	 0.139365
H	 0.8017757187	-3.9620526321	-1.8067214627	 0.10862
H	-1.0608039141	-3.9502355578	-3.7277768097	 0.121318
H	-2.2820659266	-2.7030346476	-3.3838797639	 0.146604
H	-1.0247532731	-2.3802124793	-4.5612099336	 0.140943
39.1962	103.6614	120.7739	181.9311	218.6442	250.9977	263.8535	284.9597	373.8681	416.8544	530.9499	572.7088	681.3317	709.5205	827.6173	842.2144	918.9771	940.7914	1015.7218	1034.983	1057.2486	1067.709	1071.127	1156.3382	1174.5421	1182.8089	1221.3266	1243.3981	1286.6059	1311.9297	1343.9959	1375.7244	1413.8054	1472.904	1473.4683	1477.7372	1481.2814	1484.9649	1519.2299	1696.6174	1799.804	2955.6555	2981.1427	3036.7742	3041.0834	3074.6838	3080.863	3091.2427	3121.9647	3125.9226	3178.4226
COC1CC=C(C)C1=O	CO[C@H]1CC=C(C)C1=O	
InChI=1S/C7H10O2/c1-5-3-4-6(9-2)7(5)8/h3,6H,4H2,1-2H3	InChI=1S/C7H10O2/c1-5-3-4-6(9-2)7(5)8/h3,6H,4H2,1-2H3/t6-/m0/s1
