13
gdb 25119	3.39399	1.3962	1.03949	2.8656	69.44	-0.2672	-0.0846	0.1827	1056.4855	0.091313	-452.807409	-452.800311	-452.799367	-452.839539	26.135	
O	 0.0119384223	-0.0233064232	-0.4031163653	-0.340478
C	 0.0235502041	 1.1661847442	-0.1660743954	 0.400072
N	-1.2044268923	 1.8472535934	-0.1028485538	-0.345283
C	-1.522781451	 3.1410980964	 0.2379758916	 0.10949
N	-0.8209833277	 4.2042078945	 0.2430014967	-0.272858
C	 0.515831148	 4.2974947345	-0.1510049843	 0.348061
O	 0.9233273689	 5.281299645	-0.7264828871	-0.305349
C	 1.4816571981	 3.2134130454	 0.1890132011	-0.158472
C	 1.2719299891	 1.8933058	 0.1274965225	-0.136461
H	-1.9804306131	 1.2021617949	-0.1900626803	 0.269851
H	-2.5725228204	 3.231593718	 0.5234387244	 0.142425
H	 2.4884637045	 3.5786576284	 0.3702982165	 0.146119
H	 2.1038606395	 1.2088156684	 0.2577693234	 0.142884
66.7551	131.8688	261.3167	344.7614	355.7047	430.3661	455.1941	568.7268	625.0695	694.9271	726.0269	762.9693	784.0922	857.5182	878.7313	893.6052	987.5986	1029.1042	1096.7919	1202.2565	1215.393	1343.772	1391.9375	1466.3476	1482.9874	1677.6207	1718.9709	1778.123	1786.891	3115.6986	3176.082	3197.265	3577.4853
O=C1NC=NC(=O)C=C1	O=c1[nH]cnc(=O)cc1	
InChI=1S/C5H4N2O2/c8-4-1-2-5(9)7-3-6-4/h1-3H,(H,6,7,8,9)	InChI=1S/C5H4N2O2/c8-4-1-2-5(9)7-3-6-4/h1-3H,(H,6,7,8,9)
