19
gdb 111188	2.67715	1.19443	0.94773	1.8123	82.99	-0.2526	0.0454	0.2981	1276.4416	0.158795	-385.791911	-385.783311	-385.782367	-385.82538	33.116	
O	-0.0547783067	 1.4689977236	-0.2555951849	-0.419991
C	 0.0843167147	 0.0873054663	 0.0568891822	-0.144007
C	-1.3027225167	-0.5193935013	-0.0109339631	 0.067897
C	-2.0161120093	-0.7819901819	-1.3769904984	-0.04874
C	-1.0900813341	-2.0144888395	-1.5823157697	-0.250981
C	-1.5230907056	-2.063703448	-0.088063933	-0.079032
C	-2.9767846112	-1.7564416489	-0.6024793182	-0.169528
C	-3.982201734	-1.2364345224	 0.3011814116	 0.307041
C	-4.8470856459	-0.834281609	 1.0345962542	-0.444878
H	 0.8058860857	 1.8866691366	-0.1579890728	 0.286603
H	 0.7905777906	-0.4000612842	-0.6296260444	 0.085149
H	 0.4791877265	-0.0508137857	 1.0770318425	 0.085871
H	-1.9383427402	-0.0133370311	 0.7201843514	 0.091439
H	-2.3172728644	-0.0408477175	-2.1169460005	 0.084895
H	-1.4764714218	-2.8101464713	-2.2253054281	 0.091955
H	-0.039435813	-1.8232518881	-1.7960680297	 0.097525
H	-1.25767906	-2.8118206413	 0.660802583	 0.075765
H	-3.397432042	-2.5504253996	-1.2276536035	 0.092587
H	-5.6048228328	-0.4711330668	 1.6836492915	 0.19043
66.6121	126.1946	157.0016	200.568	254.0581	327.3671	400.0674	474.428	499.3375	511.6636	612.865	614.653	640.4057	771.1358	785.676	856.7778	880.3887	900.6191	901.1463	1011.6589	1023.429	1033.3836	1061.7729	1074.7764	1090.7262	1106.1442	1120.855	1149.1145	1186.0695	1200.2679	1218.3571	1227.1559	1256.8536	1263.68	1276.1112	1377.2213	1412.7953	1472.8382	1513.0289	1539.0521	2229.2071	2966.5384	3011.3854	3055.0484	3064.9027	3082.6788	3100.4135	3120.3171	3143.0853	3504.3447	3828.665
OCC1C2CC1C2C#C	OC[C@H]1[C@H]2C[C@@H]1[C@H]2C#C	
InChI=1S/C8H10O/c1-2-5-6-3-7(5)8(6)4-9/h1,5-9H,3-4H2	InChI=1S/C8H10O/c1-2-5-6-3-7(5)8(6)4-9/h1,5-9H,3-4H2/t5-,6-,7+,8-
