20
gdb 19159	3.27802	1.53012	1.26128	1.4159	75.11	-0.2404	0.0735	0.3139	1044.5309	0.17668	-348.967213	-348.958556	-348.957612	-349.001292	32.497	
O	-0.0726351091	 1.5054607287	 0.0096824984	-0.420943
C	 0.0095168113	 0.0867287173	 0.0022749214	-0.174721
C	-1.3918817821	-0.4980657323	 0.0126057728	 0.370415
C	-2.4575666022	 0.249838871	 0.7808854052	-0.301626
C	-2.4710308904	 0.2560094472	-0.730433823	-0.301741
C	-1.4948889862	-2.0007581225	 0.0075568917	-0.046158
C	-0.5641023131	-2.9114443153	-0.7579948631	-0.280416
C	-0.5536758962	-2.9170102807	 0.7534744816	-0.280364
H	 0.82239997	 1.8546757905	 0.0031782535	 0.289994
H	 0.549539382	-0.2605634218	-0.8929660141	 0.088836
H	 0.5662750084	-0.2688876889	 0.8839025741	 0.088798
H	-3.2062507064	-0.3362122839	 1.3035535609	 0.100809
H	-2.1670258669	 1.168800395	 1.2750250593	 0.124148
H	-2.1892339085	 1.1790103277	-1.2221179274	 0.124126
H	-3.2289926678	-0.3257172611	-1.2444920935	 0.100813
H	-2.5317901825	-2.3283657442	 0.0135623534	 0.078242
H	-0.9948542615	-3.7611416399	-1.2765232688	 0.109053
H	 0.2911439549	-2.4793453251	-1.2652035578	 0.110835
H	 0.3084555327	-2.4885275277	 1.2520180099	 0.11085
H	-0.9772956963	-3.7705156242	 1.2716214755	 0.109051
19.5142	115.3325	201.6089	210.1911	244.8645	281.4355	336.5564	371.5382	491.4664	508.883	661.9779	781.5898	787.4079	821.7475	852.6734	861.8269	898.693	958.567	980.0487	993.9425	1056.2688	1060.9884	1062.9368	1074.1838	1078.6798	1107.0009	1114.3103	1145.2079	1196.4034	1199.099	1204.0305	1231.1704	1283.7837	1304.8521	1337.8855	1428.7804	1456.18	1466.8105	1474.4259	1498.1418	1512.3495	1524.7067	2963.8702	2990.7085	3127.3467	3132.2266	3133.5823	3136.7994	3138.8837	3207.6522	3222.0129	3223.4062	3234.7787	3844.3674
OCC1(CC1)C1CC1	OCC1(CC1)C1CC1	
InChI=1S/C7H12O/c8-5-7(3-4-7)6-1-2-6/h6,8H,1-5H2	InChI=1S/C7H12O/c8-5-7(3-4-7)6-1-2-6/h6,8H,1-5H2
