12
gdb 46247	2.98749	1.36837	1.0769	5.7078	60.31	-0.2998	-0.0486	0.2513	1053.4116	0.076606	-472.614584	-472.607108	-472.606163	-472.647149	26.377	
O	-0.1188045812	 0.0723539595	-0.2315518733	-0.306792
C	-0.0371314979	 1.2273500161	 0.007344414	 0.433773
O	-0.9924424042	 2.0796199257	 0.5210289728	-0.240657
C	-0.087882045	 3.2291457093	 0.5554909854	-0.156882
C	 0.989904871	 2.3558575074	-0.0788420489	 0.22441
O	 2.3452984612	 2.2821044842	 0.2593646212	-0.23084
C	 2.0234209284	 2.6375642478	-1.0917944442	-0.212422
C	 2.3567406155	 1.6819173666	-2.1244537329	 0.337927
N	 2.634200084	 0.958842068	-2.981241381	-0.307217
H	-0.4768633239	 4.0543057437	-0.0432071497	 0.146058
H	 0.1184931347	 3.5417198396	 1.5808996367	 0.153594
H	 2.2198825874	 3.6758995821	-1.3523980301	 0.159047
95.6046	107.7659	183.4006	258.8599	261.1817	342.1419	485.1059	513.291	574.0279	671.8411	746.6883	778.6522	847.9349	933.3789	944.444	1006.7751	1036.6371	1084.656	1090.3212	1149.8508	1165.0929	1307.7123	1347.3199	1489.4169	1507.4411	1961.5629	2369.9895	3080.1316	3139.177	3145.9314
O=C1OCC11OC1C#N	O=C1OC[C@]21O[C@H]2C#N	
InChI=1S/C5H3NO3/c6-1-3-5(9-3)2-8-4(5)7/h3H,2H2	InChI=1S/C5H3NO3/c6-1-3-5(9-3)2-8-4(5)7/h3H,2H2/t3-,5-/m0/s1
