17
gdb 78105	2.79465	1.15607	0.95688	3.3049	69.76	-0.2448	-0.0212	0.2237	1227.5281	0.133579	-458.927391	-458.91852	-458.917576	-458.961199	32.802	
O	-0.2768759518	 1.4493211937	-0.0079719625	-0.419857
C	-0.192308535	 0.0552175636	-0.0165836089	 0.0193
C	-0.4596433907	-0.8090069747	 1.1971130648	-0.197871
C	-1.5241069391	-0.1391278092	 2.0874620128	-0.06791
C	-2.5134122282	-0.1459809201	 0.8654413378	-0.325112
C	-1.4251990155	-0.7775071158	-0.0053775642	 0.365378
O	-1.6637036116	-1.7797536666	-0.9257820521	-0.457833
C	-1.9946389759	-1.0235043526	 3.2100045693	 0.156325
O	-2.0360802714	-0.7031842141	 4.3700157543	-0.258439
H	 0.4804434384	 1.7957530112	 0.4763248125	 0.292429
H	 0.5871923624	-0.3581399676	-0.6587376645	 0.097164
H	 0.2440428254	-1.5678434678	 1.5192170814	 0.102678
H	-1.2623073072	 0.8438712784	 2.4825610753	 0.088201
H	-3.3440987015	-0.8397307977	 1.020014466	 0.117629
H	-2.8972188088	 0.8281135207	 0.5558956324	 0.119824
H	-1.7520273769	-1.3801690404	-1.798387244	 0.291354
H	-2.3180710925	-2.0398734409	 2.8810434296	 0.076738
76.4601	89.3259	187.9783	220.8338	251.8348	313.4094	329.8303	347.6833	379.3628	442.9112	501.5715	597.4961	647.3462	790.5331	811.1826	857.7672	908.1896	939.3233	988.366	1012.7265	1022.6832	1069.7695	1091.437	1144.0217	1170.3206	1217.6669	1225.6086	1232.6217	1271.8369	1278.7009	1296.0414	1328.3338	1356.3947	1429.3064	1463.2115	1500.0031	1830.27	2850.4352	3063.8753	3097.4495	3099.3256	3123.9039	3180.9418	3794.3033	3801.9842
OC1C2C(CC12O)C=O	O[C@H]1[C@H]2[C@@H](C[C@@]12O)C=O	
InChI=1S/C6H8O3/c7-2-3-1-6(9)4(3)5(6)8/h2-5,8-9H,1H2	InChI=1S/C6H8O3/c7-2-3-1-6(9)4(3)5(6)8/h2-5,8-9H,1H2/t3-,4+,5-,6-/m0/s1
