19
gdb 61172	3.43276	0.84256	0.77627	1.8748	83.84	-0.2531	0.0359	0.289	1514.4664	0.154517	-385.818391	-385.807571	-385.806627	-385.854532	39.117	
C	 0.0944999626	 1.6049744439	 0.0496197749	-0.414536
C	 0.0038173715	 0.0654104575	 0.0521742159	-0.168757
C	 0.7448316543	-0.4907462057	 1.1821457469	 0.317217
C	 1.3551351677	-0.9435526482	 2.1132103574	-0.447469
C	-1.464545393	-0.4607191717	 0.0641389896	 0.133094
O	-2.200590294	 0.0353790284	 1.1624465848	-0.419984
C	-2.1780594362	-0.192556499	-1.2816597199	-0.413714
C	-3.5096129184	-0.7796570099	-1.3454798732	 0.308018
C	-4.6046822326	-1.2709878214	-1.3984459952	-0.427838
H	 1.1398134868	 1.9214695143	 0.0412722462	 0.135612
H	-0.3941483676	 2.034834467	-0.8298953635	 0.116911
H	-0.3679604587	 2.0164853645	 0.9510512516	 0.130906
H	 0.4672375408	-0.3088747626	-0.8716745174	 0.103572
H	 1.8898541126	-1.3487418681	 2.9361626542	 0.193977
H	-1.4246952908	-1.5434434651	 0.216531921	 0.113787
H	-2.4381218386	 0.9517237359	 0.9856211386	 0.284202
H	-2.2482085412	 0.890779601	-1.4515486961	 0.125168
H	-1.5599773865	-0.5876847514	-2.0981134311	 0.133787
H	-5.5729600388	-1.7043979994	-1.4407589047	 0.196047
55.3274	60.4191	102.337	168.6711	191.8399	218.973	259.3724	268.7803	316.578	342.2722	361.5379	431.5597	502.7122	563.5097	620.9491	622.6858	638.1784	639.143	674.5591	811.9163	867.0177	922.5805	961.3794	1002.5937	1026.9324	1090.4127	1107.5275	1134.7339	1190.5315	1278.6736	1289.1489	1340.2306	1347.591	1373.2041	1405.8933	1427.8625	1467.4988	1495.2184	1507.3889	2237.4111	2242.6851	3005.7921	3013.1907	3044.0128	3048.6215	3076.1164	3118.3634	3128.1839	3505.2183	3507.1938	3810.6237
CC(C#C)C(O)CC#C	C[C@@H](C#C)[C@@H](O)CC#C	
InChI=1S/C8H10O/c1-4-6-8(9)7(3)5-2/h1-2,7-9H,6H2,3H3	InChI=1S/C8H10O/c1-4-6-8(9)7(3)5-2/h1-2,7-9H,6H2,3H3/t7-,8-/m0/s1
