21
gdb 107400	3.11918	1.15975	1.0807	1.5381	77.86	-0.2535	0.0641	0.3176	1237.6495	0.18236	-424.224351	-424.215254	-424.21431	-424.258101	34.59	
C	 0.7142963077	 1.4443675622	 0.138472126	-0.393211
C	-0.0946573892	 0.176610492	-0.1633934569	 0.017719
C	 0.5133472186	-0.6496742967	-1.3373885714	-0.254639
C	 1.2950418491	-1.7620838659	-0.6737566538	-0.001912
O	 2.1884023422	-1.3088615593	 0.3613145345	-0.309169
C	 0.9147416512	-1.86008061	 0.7409591661	 0.435507
C	 0.9908257818	-3.1288795088	 1.5476426913	-0.187946
O	-0.2628247641	-3.790721669	 1.4416191263	-0.420063
C	-0.1333653834	-0.8060025961	 1.0429691091	-0.297331
H	 1.7437177221	 1.1916966652	 0.4045229551	 0.138016
H	 0.7376097189	 2.1103190178	-0.7313741961	 0.104204
H	 0.2707714119	 2.0019294397	 0.9709060419	 0.104522
H	-1.1142601975	 0.4794087156	-0.4216896197	 0.071028
H	-0.2708535727	-1.0989995265	-1.9586102946	 0.102426
H	 1.1366757674	-0.0343227493	-1.9948757128	 0.104812
H	 1.6499836528	-2.616431048	-1.2458789863	 0.088496
H	 1.8175943282	-3.743614057	 1.1625508333	 0.097823
H	 1.2232896541	-2.8797996699	 2.5954148847	 0.092672
H	-0.2732191401	-4.5156069279	 2.0729932181	 0.292128
H	 0.0579361196	-0.296700598	 1.9942845542	 0.096987
H	-1.1022136785	-1.30860081	 1.1277956407	 0.117931
72.0039	117.5365	175.5426	211.8747	232.231	247.9464	344.3094	378.2729	379.6274	423.8219	494.8893	592.2078	697.3997	742.6079	803.4132	864.5242	882.7468	922.5118	929.3071	940.0735	995.4459	1020.5678	1046.293	1061.3851	1081.0312	1122.9673	1148.0376	1191.6989	1202.577	1226.4748	1247.0824	1265.8174	1280.0683	1319.1291	1331.9827	1359.4375	1368.0624	1402.2135	1444.2293	1476.114	1481.5437	1491.7838	1501.5998	1510.7949	1520.651	2973.9117	3013.7583	3028.3497	3032.2474	3040.5272	3052.5318	3077.1848	3087.7385	3090.9023	3125.1918	3139.8215	3834.8085
CC1CC2OC2(CO)C1	C[C@H]1C[C@H]2O[C@@]2(CO)C1	
InChI=1S/C7H12O2/c1-5-2-6-7(3-5,4-8)9-6/h5-6,8H,2-4H2,1H3	InChI=1S/C7H12O2/c1-5-2-6-7(3-5,4-8)9-6/h5-6,8H,2-4H2,1H3/t5-,6+,7+/m0/s1
