24
gdb 36962	6.3629	0.52948	0.52382	1.0564	91.21	-0.2293	0.0916	0.3209	2195.2833	0.21731	-368.368794	-368.358902	-368.357957	-368.404921	36.516	
C	 0.1624467069	 1.4086932913	-0.0156740901	-0.16998
C	 0.1040312463	-0.1166221549	 0.1340897984	-0.207108
C	-1.3090029248	-0.6473804853	 0.2565829726	 0.037822
C	-2.1327939402	-0.9173259398	-0.978046616	-0.253226
C	-1.6359071137	-2.0659213142	-0.1328517141	-0.277968
C	 1.5896396753	 1.942382901	-0.1334292631	-0.142683
N	 1.5960956613	 3.3901812825	-0.3180255739	-0.0588
C	 1.6245672698	 4.1949379348	 0.898818523	-0.218599
C	 2.8301413791	 4.082150911	 0.0320691367	-0.22049
H	-0.4052532559	 1.7191518854	-0.9001406082	 0.110052
H	-0.3272860493	 1.8811544007	 0.8463075437	 0.093272
H	 0.5907984684	-0.5883273896	-0.7309089407	 0.089683
H	 0.6878777503	-0.4222709312	 1.0138159179	 0.092487
H	-1.858047468	-0.2552645179	 1.1099761773	 0.078233
H	-3.1916388786	-0.6838153261	-0.9604662405	 0.108881
H	-1.6616553037	-0.7600521585	-1.9432767249	 0.108642
H	-0.8336995315	-2.6780144505	-0.5326821439	 0.107698
H	-2.3553046838	-2.6156314421	 0.4642323549	 0.108338
H	 2.177090995	 1.6401998137	 0.7551306673	 0.072989
H	 2.0834545285	 1.4947228211	-1.0055723176	 0.099313
H	 1.0168955992	 5.0952825714	 0.8899330501	 0.114883
H	 1.6526065474	 3.6733978964	 1.8551112546	 0.105839
H	 3.6595001959	 3.4873166163	 0.4128410691	 0.1061
H	 3.1196692064	 4.8980509243	-0.6242867026	 0.114624
48.1421	55.6237	97.1636	122.9106	149.7822	227.9214	280.3818	364.8488	377.952	415.0079	502.1449	750.5393	761.8568	778.7411	810.8423	833.8347	834.8712	876.7727	900.9589	924.4711	970.5744	1012.8255	1032.2083	1045.0276	1059.3302	1065.4738	1076.3234	1090.259	1113.5864	1116.5793	1139.2945	1158.5088	1178.1565	1198.0017	1205.9523	1229.2636	1248.4322	1274.3844	1312.5131	1321.2242	1327.1326	1363.5139	1406.8718	1419.6028	1468.9885	1482.2043	1486.7299	1493.7355	1506.5367	1509.5392	1523.7243	2914.5521	3001.3424	3020.5609	3032.7917	3037.7702	3076.4495	3088.9297	3094.1159	3126.6112	3127.5045	3132.7052	3172.8632	3187.2141	3204.0897	3219.3785
C(CC1CC1)CN1CC1	C(CC1CC1)CN1CC1	
InChI=1S/C8H15N/c1(2-8-3-4-8)5-9-6-7-9/h8H,1-7H2	InChI=1S/C8H15N/c1(2-8-3-4-8)5-9-6-7-9/h8H,1-7H2
