18
gdb 115127	3.06192	1.28339	0.93686	5.7905	75.79	-0.2261	-0.0534	0.1727	1238.1616	0.148761	-435.274695	-435.26584	-435.264896	-435.308546	32.548	
C	-0.0151522728	 1.539959076	-0.0492045185	-0.329291
N	 0.1395061636	 0.0922195684	 0.1025831851	-0.290608
C	 0.5737383436	-0.5875355846	-1.1021381073	-0.073024
C	 1.0046903269	-2.0424793865	-0.8420513433	-0.213741
N	 0.6591257097	-2.7243000482	-2.0851633432	-0.340479
C	-0.3452025894	-2.113050204	-2.8046523279	 0.286129
N	-1.026857085	-2.502048698	-3.8070396974	-0.516517
C	-0.5285951133	-0.7415851326	-2.1635797892	 0.386426
O	-1.384367129	 0.0523897604	-2.4408936282	-0.287607
H	 0.8992502391	 2.0455464326	-0.4077790886	 0.092242
H	-0.8168429343	 1.7435456146	-0.7600408546	 0.165493
H	-0.2899096036	 1.9705858369	 0.9174625062	 0.117729
H	 0.813331312	-0.0935063452	 0.8387447621	 0.221275
H	 1.4058416824	-0.0697123322	-1.6246524835	 0.091292
H	 2.0750788805	-2.1337122712	-0.6339556959	 0.116081
H	 0.4464189125	-2.4334286574	 0.0206355668	 0.12209
H	 0.834619928	-3.7109893059	-2.1904141446	 0.246493
H	-0.7800181208	-3.4549634931	-4.0856286079	 0.206017
57.937	120.6668	156.8043	199.0794	234.5547	286.6947	335.5734	384.6808	439.0626	459.3198	561.4226	572.39	675.9166	718.1412	770.3798	834.0483	865.697	953.342	1011.413	1038.2346	1062.5814	1078.411	1138.4122	1147.0999	1181.3319	1205.0238	1228.7927	1277.1035	1302.7933	1366.8897	1379.0778	1439.9818	1455.5031	1483.6593	1500.929	1526.0172	1532.1603	1741.412	1862.8251	2877.1491	2947.9765	3002.7401	3071.7249	3087.5257	3148.5302	3438.2388	3508.0052	3631.2459
CNC1CNC(=N)C1=O	CN[C@H]1CN[C]([NH])C1=O	
InChI=1S/C5H9N3O/c1-7-3-2-8-5(6)4(3)9/h3,7H,2H2,1H3,(H2,6,8)	InChI=1S/C5H9N3O/c1-7-3-2-8-5(6)4(3)9/h3,7H,2H2,1H3,(H2,6,8)/t3-/m0/s1
