20
gdb 82138	3.24555	1.09988	0.94797	2.9402	79.56	-0.2171	-0.022	0.1951	1283.0538	0.169296	-403.105623	-403.096624	-403.09568	-403.140017	33.467	
C	-0.1939953962	 1.6701294274	 0.1154968127	-0.419356
C	-0.0332872433	 0.1573184874	 0.0630812198	 0.046902
C	 0.3383090912	-0.5104818146	-1.268436322	-0.092261
C	 1.7276495034	-0.1107405712	-1.7036058155	-0.301321
C	 1.556152942	-1.0938138274	-0.5754408497	 0.000737
N	 1.186770304	-0.4727551094	 0.6898718345	-0.111575
C	 2.1638114526	 0.3073586287	 1.4209905835	-0.24115
C	 1.7219830674	 0.5053382446	 2.8628564247	 0.163131
O	 1.8991866114	 1.5085796325	 3.50351516	-0.243197
H	 0.6221256865	 2.1971953498	-0.3859996069	 0.122157
H	-1.1286179713	 1.9516308253	-0.3804179568	 0.123135
H	-0.2449734399	 2.0305832634	 1.1484395158	 0.135049
H	-0.9247092062	-0.3100107139	 0.4985938645	 0.086074
H	-0.3607912309	-1.0022484512	-1.9312740805	 0.094323
H	 2.0461212203	-0.5453947152	-2.6462467949	 0.115145
H	 2.1121421861	 0.8889537414	-1.5244906611	 0.110123
H	 1.9601208308	-2.1006489624	-0.5971850515	 0.094292
H	 3.0897045046	-0.2860435921	 1.4615552401	 0.127733
H	 2.4282513671	 1.2870815616	 0.9955911737	 0.108427
H	 1.2071256004	-0.3858651047	 3.2882925296	 0.08163
55.7928	67.7415	134.5849	221.0459	234.1356	261.8208	304.4919	395.0215	452.7553	536.2796	545.8911	662.6535	729.2247	781.0019	800.1036	821.9424	909.0379	933.1364	967.7912	992.7949	1038.917	1058.9772	1068.9063	1070.8765	1084.5551	1105.2108	1136.4372	1148.5566	1184.8036	1233.1243	1255.7471	1288.0183	1301.3653	1331.1995	1363.1053	1381.1992	1403.0548	1412.6071	1455.4853	1481.3174	1495.0388	1498.6745	1835.4454	2882.2821	2986.9675	3023.0879	3030.9285	3039.0936	3104.2061	3115.6294	3121.6654	3159.9631	3199.8948	3208.5888
CC1C2CC2N1CC=O	C[C@H]1[C@H]2C[C@H]2N1CC=O	
InChI=1S/C7H11NO/c1-5-6-4-7(6)8(5)2-3-9/h3,5-7H,2,4H2,1H3	InChI=1S/C7H11NO/c1-5-6-4-7(6)8(5)2-3-9/h3,5-7H,2,4H2,1H3/t5-,6+,7+/m0/s1
