21
gdb 90768	2.66711	1.44535	1.23809	2.5515	77.36	-0.2377	0.066	0.3037	1117.8103	0.183533	-424.217868	-424.209335	-424.20839	-424.251141	33.206	
C	 0.0253925423	 1.5824299584	-0.1059392979	-0.412141
C	 0.1454293607	 0.0620907799	-0.0280772585	 0.014533
C	 1.075346988	-0.570447718	-1.0788834145	-0.095489
O	 1.3593303296	-1.8792706508	-0.5974648724	-0.245888
C	 1.4188330029	-1.835720087	 0.8112471349	 0.087865
C	 2.7617754511	-1.3284948644	 1.4284119546	 0.105372
O	 3.8138643499	-1.3112216096	 0.4941801223	-0.418381
C	 2.0864458438	 0.0298286707	 1.7792273508	-0.290216
C	 0.7154302398	-0.5214581764	 1.2783281442	-0.05442
H	 0.9946513545	 2.0743805908	 0.0232922647	 0.118023
H	-0.3740421749	 1.8938824529	-1.0771085205	 0.116879
H	-0.6490362567	 1.9660078265	 0.6663182116	 0.115888
H	-0.850916275	-0.3769322433	-0.16655096	 0.078798
H	 0.6135125052	-0.6706731585	-2.0653108126	 0.103345
H	 2.0027807844	 0.012322105	-1.1872135194	 0.096779
H	 1.0694093901	-2.7990715035	 1.1904120538	 0.074337
H	 3.0306151059	-1.9041791545	 2.326250635	 0.061087
H	 4.5857472326	-0.9285143194	 0.9236640368	 0.28331
H	 2.1193319099	 0.3181279475	 2.832716798	 0.09595
H	 2.4856462906	 0.8530711161	 1.1805326351	 0.098481
H	-0.0406976547	-0.6232301328	 2.0583124642	 0.06589
47.0936	168.996	221.9564	238.8714	266.5307	269.7219	317.8588	406.8528	497.4835	525.6193	598.2027	633.2227	739.4656	786.4758	840.2004	880.12	905.6594	922.557	964.8341	972.1577	994.6818	1019.5524	1086.327	1091.9559	1129.8412	1137.7321	1158.4353	1175.5084	1201.7948	1229.2669	1234.6865	1246.9496	1270.5252	1304.8115	1323.8463	1328.8038	1356.3681	1363.4255	1398.0312	1412.9704	1422.5545	1471.9374	1499.3	1501.7935	1520.9643	2985.4764	2991.5431	3022.1923	3033.6465	3057.6307	3075.7084	3085.0785	3093.9208	3097.3981	3104.4456	3114.8138	3813.6764
CC1COC2C(O)CC12	C[C@H]1CO[C@H]2[C@@H](O)C[C@@H]12	
InChI=1S/C7H12O2/c1-4-3-9-7-5(4)2-6(7)8/h4-8H,2-3H2,1H3	InChI=1S/C7H12O2/c1-4-3-9-7-5(4)2-6(7)8/h4-8H,2-3H2,1H3/t4-,5-,6-,7+/m0/s1
