20
gdb 82529	2.28697	1.57602	1.35587	1.0554	79.21	-0.23	0.0771	0.3071	1079.6874	0.170385	-403.086761	-403.077951	-403.077007	-403.11968	34.318	
C	-0.0261492676	 1.5425292425	 0.0088447667	-0.412843
C	 0.1136881674	 0.03521229	 0.0649645491	-0.081669
C	 1.3834544532	-0.7516993684	-0.203079141	-0.133611
C	 2.6197507961	-0.0337908961	 0.3632936197	-0.338953
C	 1.9579997093	-0.096809813	 1.757239255	 0.29207
C	 2.6200226972	-0.4358539794	 3.0292292145	-0.308146
N	 1.9480033809	 0.8745285757	 2.8537564028	-0.384067
C	 0.7269599714	-0.7645541287	 1.1832740394	 0.33269
O	 0.0696867564	-1.8094909695	 1.8098067886	-0.458131
H	 0.8224127693	 2.0553087086	 0.4665497616	 0.123892
H	-0.1111244096	 1.8887653916	-1.0273551408	 0.114033
H	-0.9249276614	 1.8684273802	 0.5433522478	 0.117349
H	-0.7474660204	-0.4976401998	-0.3373063874	 0.087144
H	 1.413735047	-1.5430316708	-0.9411273236	 0.093403
H	 3.5329682125	-0.6310089734	 0.2998725741	 0.109585
H	 2.8226578977	 0.9648524377	-0.0377333614	 0.098188
H	 2.1285349984	-1.1084930031	 3.7263441544	 0.123671
H	 3.7067642628	-0.4690181897	 3.0492643562	 0.108056
H	 2.645648799	 1.5965011789	 2.6858963734	 0.226973
H	-0.7011990298	-1.4498909135	 2.261883611	 0.290366
109.7763	159.6478	203.4152	218.1011	229.9469	274.7227	303.9806	367.4025	425.4163	508.7693	524.0141	600.5041	676.4454	751.6721	800.1126	845.312	890.9746	908.9041	946.2234	957.7291	961.8322	979.691	995.8103	1041.9813	1081.1383	1117.2681	1122.1779	1135.5465	1165.27	1203.2334	1229.8127	1241.608	1265.4896	1294.2327	1311.6539	1344.1016	1418.7888	1424.1911	1461.4659	1487.6111	1500.0714	1504.9273	1513.9881	3034.2547	3043.356	3089.6843	3096.4592	3104.1413	3112.516	3131.2686	3192.0273	3195.2748	3485.834	3800.3915
CC1C2CC3(CN3)C12O	C[C@H]1[C@H]2C[C@]3(CN3)[C@@]12O	
InChI=1S/C7H11NO/c1-4-5-2-6(3-8-6)7(4,5)9/h4-5,8-9H,2-3H2,1H3	InChI=1S/C7H11NO/c1-4-5-2-6(3-8-6)7(4,5)9/h4-5,8-9H,2-3H2,1H3/t4-,5+,6-,7+/m0/s1
