15
gdb 69720	4.0338	1.3434	1.23788	3.3925	63.85	-0.2571	0.0025	0.2596	992.8089	0.11238	-457.735253	-457.72813	-457.727186	-457.766684	27.994	
O	-0.0183928721	 1.3965358449	 0.0252111442	-0.456709
C	-0.0147041076	 0.0182737072	 0.0293821338	 0.380786
C	-0.301632124	-0.8233854922	-1.1769042207	-0.370207
C	-1.2133737445	-0.9343659659	 0.0244503227	-0.117828
C	-0.5676135739	-1.7688110398	 1.1646792013	-0.222081
C	 0.6305428548	-0.8142454826	 1.1629193636	 0.026844
O	 1.5251764844	-1.9043335649	 0.753936343	-0.265263
C	 0.4822465464	-2.8192160735	 0.7686503529	 0.438752
O	 0.5478857438	-3.982919293	 0.5438164056	-0.318627
H	 0.676406296	 1.7046962845	-0.5678201343	 0.294469
H	-0.7395800698	-0.2574109329	-1.9932508275	 0.125823
H	 0.3491285611	-1.6358401205	-1.4862839896	 0.144804
H	-2.2715262225	-0.7205962025	-0.0399218792	 0.113645
H	-1.1790170451	-1.9674521626	 2.0416647403	 0.114791
H	 0.995725723	-0.2771202661	 2.0358546639	 0.110802
120.1096	184.5977	269.479	301.5084	347.3294	444.4397	470.2367	502.7441	634.4554	706.6744	734.8616	792.3529	815.5726	881.5399	891.176	918.0151	925.7276	965.307	980.2939	1033.9155	1069.0582	1080.3026	1082.1221	1175.551	1194.7656	1214.7616	1237.7454	1255.7236	1299.3943	1317.9299	1412.0325	1497.8527	1936.3507	3123.6729	3145.0458	3153.7202	3208.	3214.8145	3789.7215
OC12CC1C1C2OC1=O	O[C@]12C[C@H]1[C@@H]1[C@H]2OC1=O	
InChI=1S/C6H6O3/c7-5-3-2-1-6(2,8)4(3)9-5/h2-4,8H,1H2	InChI=1S/C6H6O3/c7-5-3-2-1-6(2,8)4(3)9-5/h2-4,8H,1H2/t2-,3+,4+,6+/m0/s1
