20
gdb 37086	2.13902	1.97636	1.30454	1.6152	83.63	-0.2222	0.0821	0.3043	1050.9088	0.171353	-365.928149	-365.920311	-365.919367	-365.960154	31.944	
C	-0.0368750771	 1.5018972071	 0.0737386869	-0.316071
C	 1.2857565731	 0.7684886361	-0.0144576331	-0.341415
C	-0.0060606512	 0.0083676308	-0.0008062018	 0.345409
C	-0.4428841946	-0.9936994576	 1.0529915884	-0.163
N	-1.9113842362	-1.1770259114	 0.8907453516	-0.348555
C	-0.9677551394	-1.9068380758	-0.0000430638	-0.163021
C	-0.5466911845	-0.933397621	-1.0866352342	 0.34536
C	-1.2516018436	-0.6145185079	-2.3666667721	-0.316071
C	 0.1036226596	-1.2911966941	-2.3889016916	-0.341356
H	-0.3138985372	 1.9641705416	 1.0153208639	 0.114283
H	-0.3736198988	 2.0449569921	-0.8039056145	 0.111369
H	 1.8415776204	 0.8209756544	-0.945579992	 0.110306
H	 1.9123566442	 0.7282066005	 0.8712710687	 0.110328
H	 0.0536846112	-1.2225216838	 1.9883398287	 0.091403
H	-2.20100042	-1.8407670548	 1.6109190274	 0.223332
H	-0.961810029	-2.9891489793	-0.0488851733	 0.091402
H	-2.128447601	-1.1967362287	-2.6296883637	 0.114275
H	-1.3021649145	 0.4266246648	-2.6700357791	 0.11136
H	 0.9627295006	-0.7108735407	-2.7111525743	 0.110325
H	 0.1511132179	-2.3399234722	-2.6658148622	 0.110336
107.852	194.4609	196.1888	247.0877	283.5042	348.3327	507.6385	510.5544	585.9367	606.2828	766.992	768.8257	827.4127	828.4566	830.1623	872.8797	888.5325	926.3534	929.3965	961.9447	966.6259	994.798	995.2573	1029.8717	1043.9794	1060.5526	1071.4313	1074.233	1098.4712	1119.8235	1181.3743	1186.239	1187.2601	1208.5229	1279.6828	1301.2896	1338.3641	1383.5394	1429.2811	1459.4979	1468.2608	1499.1034	1514.471	3118.9531	3120.5064	3125.9678	3126.2378	3178.3346	3190.9794	3196.6211	3197.6144	3213.0356	3214.2771	3451.8902
C1CC11C2NC2C11CC1	C1CC21[C@H]1N[C@H]1C12CC1	
InChI=1S/C8H11N/c1-2-7(1)5-6(9-5)8(7)3-4-8/h5-6,9H,1-4H2	InChI=1S/C8H11N/c1-2-7(1)5-6(9-5)8(7)3-4-8/h5-6,9H,1-4H2/t5-,6+
