19
gdb 77554	2.81357	1.28007	1.0741	2.2373	77.57	-0.2493	-0.0273	0.222	1171.6498	0.157468	-422.989032	-422.980024	-422.97908	-423.022775	33.818	
C	-0.1266977892	 1.5670203292	-0.0049032735	-0.446497
C	 0.0452075967	 0.057568263	 0.0141561572	-0.032255
C	 1.2089047878	-0.6465451083	-0.7355510015	 0.388629
O	 1.3527308201	-0.5739723204	-2.105788659	-0.470061
C	 2.2006541076	-0.171710655	 0.3747068653	-0.346875
C	 0.927974084	-0.6710524945	 1.1067791303	 0.243396
C	 0.9252190214	-1.9066541889	 0.1448827433	-0.337474
C	 0.6696621214	-0.7089822112	 2.5672620023	 0.033986
O	 1.4376717705	-0.3182574456	 3.4118249504	-0.250483
H	 0.797040444	 2.1138426389	 0.19570219	 0.126759
H	-0.4924197991	 1.8830109888	-0.9875033231	 0.133319
H	-0.8668742965	 1.8801871122	 0.7386531617	 0.122402
H	-0.9205896385	-0.4348765749	-0.1454809497	 0.074035
H	 2.1939992102	-0.9735904126	-2.3519416226	 0.285617
H	 3.0972187854	-0.7797624865	 0.5196672138	 0.097116
H	 2.4324981962	 0.8906359065	 0.4344899177	 0.108925
H	-0.0319132905	-2.410225029	-0.0101324634	 0.101731
H	 1.7476398992	-2.6128150503	 0.2850685045	 0.098091
H	-0.3215577706	-1.1371774315	 2.8455180762	 0.06964
63.6648	147.6767	163.5342	191.1492	225.261	241.9464	318.2859	396.0699	437.8163	472.3266	545.3367	588.1239	646.337	698.0132	736.1705	812.7454	848.8786	947.5656	988.3094	1003.3314	1020.0421	1074.656	1086.4299	1097.7043	1116.9409	1135.6035	1145.4526	1150.0454	1169.3149	1175.6822	1280.3738	1329.4016	1366.3857	1407.118	1423.4688	1427.2927	1487.4196	1493.3311	1509.3592	1550.0434	1813.1492	2858.5962	3039.9212	3044.8615	3056.631	3073.2129	3100.3347	3124.7504	3129.8896	3151.4492	3808.8541
CC1C2(O)CC1(C2)C=O	C[C@H]1[C@@]2(O)C[C@@]1(C2)C=O	
InChI=1S/C7H10O2/c1-5-6(4-8)2-7(5,9)3-6/h4-5,9H,2-3H2,1H3	InChI=1S/C7H10O2/c1-5-6(4-8)2-7(5,9)3-6/h4-5,9H,2-3H2,1H3/t5-,6-,7-/m1/s1
