17
gdb 51273	3.63324	0.90884	0.77848	3.5008	76.23	-0.2477	-0.0389	0.2089	1420.7739	0.133935	-421.869967	-421.861212	-421.860268	-421.905464	30.996	
O	 0.1943623843	-0.1951263987	-0.4311001162	-0.228806
C	 0.0843089725	 0.9838594508	-0.2245360792	 0.158009
C	 1.2514078029	 1.9478507551	-0.043892015	-0.374302
C	 1.2885739507	 2.9426574872	-1.1699323817	 0.298422
C	 0.9578827348	 4.2373011721	-1.1001640874	-0.178292
C	 1.0791616496	 4.950285989	-2.4172575615	-0.365503
C	 1.5573403984	 3.8441716658	-3.374623097	 0.396885
O	 1.7861082426	 3.9761811456	-4.5464742857	-0.296052
C	 1.6921129135	 2.5418333846	-2.5688507995	-0.415634
H	-0.9146712607	 1.4742443719	-0.1718518165	 0.082508
H	 1.1099500354	 2.4738054439	 0.9086151266	 0.122282
H	 2.1719263828	 1.3571127274	 0.0058758733	 0.127484
H	 0.6427410782	 4.7377313585	-0.1906887827	 0.100309
H	 0.1346143483	 5.3766782834	-2.7796150787	 0.141404
H	 1.8009304145	 5.7773688906	-2.4090556917	 0.141207
H	 2.7210156494	 2.163616437	-2.6320302034	 0.142104
H	 1.0587682528	 1.7584514658	-3.0053003635	 0.147976
32.0202	51.4855	67.6345	168.2337	276.2356	298.8984	443.5519	465.0802	486.4811	508.9072	572.0781	674.0219	783.4678	803.7862	835.5791	851.9324	895.5597	975.1162	1000.9017	1025.2703	1059.0045	1123.7986	1127.1348	1162.9063	1182.8092	1205.6447	1272.7164	1282.0555	1298.1236	1358.2919	1417.3971	1439.8429	1444.4807	1459.822	1701.7771	1835.6304	1857.8991	2873.1257	3025.2333	3027.8911	3029.6198	3053.5074	3054.8372	3092.623	3188.0727
O=CCC1=CCC(=O)C1	O=CCC1=CCC(=O)C1	
InChI=1S/C7H8O2/c8-4-3-6-1-2-7(9)5-6/h1,4H,2-3,5H2	InChI=1S/C7H8O2/c8-4-3-6-1-2-7(9)5-6/h1,4H,2-3,5H2
