18
gdb 66739	2.49436	2.37815	1.85717	0.7157	81.24	-0.1989	-0.0411	0.1578	847.0353	0.147623	-364.668476	-364.661557	-364.660613	-364.699062	29.202	
C	-0.1787092613	 1.6071103845	-0.2213079358	-0.523499
C	-0.0343822763	 0.1205072223	-0.0756967127	 0.336473
C	 0.4450009956	-0.8910819005	-1.1586685158	-0.18231
C	-0.4334468325	-1.8148369128	-0.380651013	-0.014627
C	 1.1730031171	-1.6040155336	-0.0617248846	-0.136793
C	 0.9292393344	-0.5442742925	 0.9712367038	 0.017619
C	 0.2914183495	-0.7369729854	 2.1418853917	-0.146085
C	-1.2036775129	-0.6559764201	 1.7870670497	-0.206513
N	-1.2145133858	-0.7388691606	 0.276507879	-0.147883
H	 0.7782684295	 2.0552867984	-0.5073891555	 0.127392
H	-0.9216847064	 1.8550117298	-0.9853857711	 0.128408
H	-0.487428799	 2.0634254238	 0.7250971514	 0.127801
H	 0.6252058816	-0.7806796894	-2.2192011762	 0.094689
H	-0.8283178637	-2.7956895495	-0.6131776324	 0.097953
H	 1.8335804068	-2.4608843585	-0.1024316395	 0.096052
H	 0.6387159491	-1.4213117103	 2.9104387313	 0.097283
H	-1.7205012967	-1.5030942186	 2.2525069762	 0.115914
H	-1.755865919	 0.250246193	 2.0591705237	 0.118126
204.2388	226.786	251.837	324.3084	399.8578	488.5472	526.9259	594.8936	659.5332	690.6991	750.8775	763.197	792.1607	832.947	848.9774	874.3997	885.3968	889.5316	927.2876	970.9995	988.9805	1015.2857	1042.3429	1056.9315	1111.5077	1132.2616	1150.8975	1174.996	1217.0754	1218.1299	1267.5352	1290.8572	1325.4924	1344.5008	1409.3396	1466.9661	1485.459	1487.0677	1580.2235	3033.3068	3038.0653	3076.9043	3104.3111	3110.6006	3162.9711	3194.7613	3195.9066	3212.8835
CC12C3C4C3C1=CCN24	C[C@@]12[C@@H]3[C@H]4[C@@H]3[C]1[CH]CN24	
InChI=1S/C8H9N/c1-8-4-2-3-9(8)7-5(4)6(7)8/h2,5-7H,3H2,1H3	InChI=1S/C8H9N/c1-8-4-2-3-9(8)7-5(4)6(7)8/h2,5-7H,3H2,1H3/t5-,6+,7-,8+/m1/s1
