15
gdb 18652	3.3611	2.29136	1.54042	3.9341	67.66	-0.2346	-0.0472	0.1874	810.3607	0.121276	-362.670734	-362.664375	-362.663431	-362.701197	24.806	
O	 0.0442763864	 0.0350563529	 0.4486624222	-0.347212
C	-0.0200134428	 1.1934725811	 0.083583968	 0.43417
C	-1.3031340163	 1.8714091023	-0.1863401283	-0.159813
C	-1.3855376226	 3.0228806344	-0.8633550487	-0.032273
C	-0.2105870944	 3.7737044294	-1.4215178741	-0.275297
C	 1.1273346309	 3.2980890358	-0.8954985319	-0.033846
N	 1.2713653743	 3.3079040597	 0.5592886257	-0.328603
C	 1.2202292275	 2.0041126739	-0.1529323367	-0.163028
H	-2.1906720653	 1.3470137498	 0.1527379889	 0.109071
H	-2.3639165626	 3.4540196944	-1.0648002771	 0.108367
H	-0.22844377	 3.6903302646	-2.5179146372	 0.124456
H	-0.3264120284	 4.8446471682	-1.2061592301	 0.126863
H	 1.9913211478	 3.5819677682	-1.4921488911	 0.094368
H	 2.2358623577	 3.5006953645	 0.816969414	 0.24139
H	 2.1295764578	 1.4139708909	-0.2129695336	 0.101389
110.1609	240.7859	319.073	370.3092	437.3022	499.1535	531.4085	655.7617	730.3572	767.4841	831.443	869.3082	892.9866	922.2311	926.3255	996.2787	1011.5021	1033.305	1076.1248	1149.4304	1160.3338	1200.6294	1231.612	1255.2993	1276.4022	1379.8578	1394.4211	1409.5636	1445.6582	1457.608	1688.7572	1773.7823	3007.9803	3036.3902	3131.2059	3151.1979	3164.8678	3191.8063	3505.9883
O=C1C=CCC2NC12	O=C1C=CC[C@H]2N[C@@H]12	
InChI=1S/C6H7NO/c8-5-3-1-2-4-6(5)7-4/h1,3-4,6-7H,2H2	InChI=1S/C6H7NO/c8-5-3-1-2-4-6(5)7-4/h1,3-4,6-7H,2H2/t4-,6-/m1/s1
