22
gdb 78767	2.48416	1.57384	1.2605	1.6307	85.96	-0.234	0.0843	0.3184	1140.2899	0.193421	-367.179761	-367.170715	-367.169771	-367.212684	35.466	
C	-0.0968311298	 1.6060609741	 0.010577606	-0.431667
C	 0.1022424552	 0.0960011707	 0.030606861	-0.003731
C	 1.2031914426	-0.5805040308	-0.7655362057	-0.106483
N	 1.3556124986	-1.6932541616	 0.2388776029	-0.232295
C	 2.447223112	-0.6684394874	 0.0653829808	 0.345506
C	 3.7872980264	-1.0223846711	-0.5023405978	-0.498412
C	 2.1551676844	-0.0315167022	 1.4134829736	-0.34146
C	 0.7482640242	-0.6414488037	 1.2368924271	 0.330627
C	-0.0680593982	-1.1108036796	 2.4063699854	-0.500485
H	 0.8353650291	 2.1481374966	 0.1928502281	 0.118096
H	-0.4805240389	 1.9305827313	-0.9629002191	 0.11795
H	-0.8236756932	 1.9179939133	 0.7690274467	 0.115864
H	-0.8445812134	-0.4097866782	-0.1957743656	 0.078014
H	 1.220331032	-0.7906565724	-1.8304971495	 0.083003
H	 3.6790455664	-1.6787654634	-1.3713462907	 0.127687
H	 4.3281262478	-0.1236613578	-0.8207152896	 0.118887
H	 4.402235824	-1.5439331423	 0.2388452235	 0.1222
H	 2.7036961294	-0.5504219927	 2.2063353298	 0.100349
H	 2.2606565524	 1.0500041568	 1.5474348332	 0.090327
H	-0.4177755974	-0.2577731375	 3.0001120192	 0.118472
H	-0.9443368987	-1.6747778739	 2.0706555133	 0.124035
H	 0.5220795652	-1.7598527582	 3.0613283074	 0.123516
154.276	180.6964	188.5873	192.6389	206.136	249.8232	285.4096	350.4688	379.1872	476.1174	556.8706	588.114	629.831	704.7498	767.0429	779.6071	812.7441	876.2965	907.0881	940.7476	988.6967	1002.8024	1022.9212	1040.4469	1063.5346	1101.1671	1113.5704	1132.8238	1145.3359	1182.9611	1216.7338	1235.6121	1279.8238	1307.84	1340.8418	1391.3931	1402.0676	1407.9946	1416.5993	1431.0895	1481.0404	1483.8813	1490.681	1492.827	1493.8266	1495.575	1511.4333	3026.6071	3027.7314	3029.8767	3032.4737	3038.7313	3085.9946	3091.2477	3091.6663	3094.4912	3104.1671	3106.2707	3111.0252	3161.6001
CC1C2N3C2(C)CC13C	C[C@H]1[C@@H]2N3[C@]2(C)C[C@@]13C	
InChI=1S/C8H13N/c1-5-6-8(3)4-7(5,2)9(6)8/h5-6H,4H2,1-3H3	InChI=1S/C8H13N/c1-5-6-8(3)4-7(5,2)9(6)8/h5-6H,4H2,1-3H3/t5-,6-,7-,8+,9?/m0/s1
