14
gdb 15928	3.67138	1.95659	1.57255	3.9289	62.15	-0.2514	-0.0084	0.2431	811.0674	0.108361	-378.675049	-378.668358	-378.667414	-378.706013	24.934	
N	-0.0595204837	-1.1666110562	-0.1314463518	-0.335943
C	-0.0253123404	-0.0154812906	-0.0288473505	 0.232936
C	 0.0423812448	 1.4296194348	 0.0630278872	 0.305995
C	-0.4667658262	 2.2857229057	-1.1250482568	-0.216256
N	 0.702374881	 3.2001256223	-0.9732863691	-0.319704
C	 1.331955366	 2.311425281	 0.0276269395	-0.109109
C	 0.9387465346	 2.689123381	 1.4639690776	-0.069289
O	-0.3110015356	 1.9467033407	 1.3544554216	-0.321868
H	-0.4847287147	 1.7240122201	-2.0654410445	 0.123007
H	-1.4378128867	 2.7597803961	-0.9576248864	 0.132077
H	 1.245179364	 3.2945023448	-1.8225170428	 0.233896
H	 2.3389376952	 1.9492471322	-0.1770015655	 0.103364
H	 1.5746277637	 2.2629408102	 2.2484229396	 0.116674
H	 0.771690868	 3.7557071079	 1.6347878518	 0.124219
117.4157	161.3091	200.8417	353.5379	387.2235	498.5816	550.1343	576.1048	670.9762	740.3468	847.1808	880.7096	934.3626	986.2584	1002.4506	1029.0084	1047.2536	1086.7907	1093.2344	1143.3835	1160.2178	1176.0351	1236.69	1288.0701	1334.2294	1354.6319	1396.7459	1491.9863	1503.4101	2351.8871	3034.9338	3038.8525	3101.2859	3107.8089	3121.7502	3559.1716
N#CC12CNC1CO2	N#C[C@]12CN[C@H]1CO2	
InChI=1S/C5H6N2O/c6-2-5-3-7-4(5)1-8-5/h4,7H,1,3H2	InChI=1S/C5H6N2O/c6-2-5-3-7-4(5)1-8-5/h4,7H,1,3H2/t4-,5-/m0/s1
