18
gdb 100622	2.15542	1.28159	0.85207	4.8327	77.81	-0.2591	-0.0243	0.2348	1345.6467	0.145691	-398.125465	-398.115368	-398.114424	-398.161117	35.176	
C	 0.0481591722	 1.539886278	 0.0459410529	-0.400776
C	-0.0176582469	 0.0159614738	-0.0285063872	-0.135193
N	-1.3975542119	-0.4967021386	-0.0074760516	-0.081466
C	-2.1359689987	-0.1577551032	-1.2242117485	-0.350583
C	-1.419495032	-1.9419745452	 0.2309577891	-0.217234
C	-0.7525864081	-2.2942505772	 1.5015004956	 0.313784
N	-0.2154733627	-2.5924900049	 2.4784478081	-0.309756
C	-2.8007421021	-2.4634316957	 0.2774257175	 0.309531
N	-3.8722034502	-2.8917792801	 0.2904466296	-0.308054
H	 1.0895884927	 1.8526402576	 0.1639845218	 0.12843
H	-0.3361732415	 2.0222375816	-0.8565385823	 0.125704
H	-0.522079283	 1.9049840791	 0.9044527007	 0.138937
H	 0.5209973823	-0.3442690049	-0.9258122764	 0.088041
H	 0.5025146246	-0.3953252107	 0.8408570634	 0.141288
H	-1.6736881813	-0.5802017917	-2.1352801696	 0.104716
H	-3.1636270817	-0.51965149	-1.1551317433	 0.159802
H	-2.1732287188	 0.9265997085	-1.329986919	 0.142336
H	-0.8976871629	-2.5106374962	-0.567567421	 0.150494
51.5799	68.4733	144.1012	152.4569	176.664	212.207	257.8314	297.3247	367.9704	379.3531	387.1468	420.6065	513.6144	585.0482	598.4947	809.577	835.2909	891.3548	985.4894	1024.3537	1056.3076	1079.9565	1122.8371	1155.8097	1217.0678	1252.5356	1302.7116	1332.4932	1343.91	1403.3783	1423.8948	1462.3753	1486.601	1489.7873	1502.0426	1506.7052	1515.1125	2370.8414	2375.2055	2884.1267	2925.2584	2944.9157	3049.0914	3085.2789	3105.6773	3119.9812	3128.033	3150.2385
CCN(C)C(C#N)C#N	CCN(C)C(C#N)C#N	
InChI=1S/C6H9N3/c1-3-9(2)6(4-7)5-8/h6H,3H2,1-2H3	InChI=1S/C6H9N3/c1-3-9(2)6(4-7)5-8/h6H,3H2,1-2H3
