27
gdb 58294	3.2105	0.79499	0.67368	0.0824	96.62	-0.2671	0.0865	0.3536	1801.5357	0.250679	-353.554708	-353.543495	-353.54255	-353.591581	42.037	
C	 0.0573531193	 1.5333734594	-0.1139034074	-0.39824
C	 0.0201048941	 0.0045293961	 0.0494085079	 0.048764
C	 0.7636731411	-0.3763727233	 1.3413456935	-0.396063
C	-1.4262452767	-0.5600263888	 0.0019322528	 0.048278
C	-2.1903765339	-0.0892871133	-1.2462897577	-0.404482
C	-1.4455381301	-2.1015968657	 0.1054513376	-0.212952
C	-2.8277350406	-2.7172406724	 0.2219842749	 0.030357
C	-3.5675335559	-3.2534558031	-0.9800249355	-0.250269
C	-3.0089290946	-4.204484766	 0.0487802313	-0.283628
H	 1.0831385109	 1.9037646566	-0.0162923199	 0.106607
H	-0.316875054	 1.86094551	-1.0864905848	 0.114268
H	-0.5443342425	 2.0253340695	 0.660554567	 0.108728
H	 0.5697933325	-0.434136103	-0.7977352878	 0.065933
H	 0.2153147549	-0.0263839082	 2.2247815092	 0.109255
H	 0.911139445	-1.4538434548	 1.4458064157	 0.11509
H	 1.7540945842	 0.0899961021	 1.3645662235	 0.106921
H	-1.9533987333	-0.166058544	 0.8858465675	 0.062369
H	-3.1866266558	-0.5353706825	-1.285163391	 0.122657
H	-2.315072902	 0.9958961468	-1.2663791546	 0.111211
H	-1.660628424	-0.3820318	-2.1617968239	 0.104699
H	-0.9335174689	-2.5292054722	-0.7690720796	 0.084143
H	-0.8641206081	-2.4126671657	 0.9797713929	 0.096753
H	-3.4509091906	-2.2607456725	 0.9885727076	 0.077599
H	-4.6431322209	-3.1221356513	-1.0316769096	 0.107754
H	-3.0702856383	-3.2040311524	-1.9433768833	 0.109393
H	-2.1364585666	-4.7893433037	-0.225288642	 0.107519
H	-3.7010304654	-4.7235744573	 0.7027658557	 0.107333
37.6105	63.8749	100.6117	139.7496	199.2046	211.1108	232.5059	268.515	318.2568	352.1773	360.6003	393.7388	424.8376	461.9956	510.6308	774.4718	784.5621	803.6549	836.8623	877.9245	881.1813	926.0515	931.2277	948.6974	965.8285	975.6845	997.3101	1053.6604	1072.3174	1080.0082	1090.6549	1136.5269	1146.032	1177.1527	1190.7361	1199.8121	1206.6634	1229.1743	1261.8388	1300.8896	1342.3422	1348.9746	1363.3986	1380.3334	1400.2325	1406.6948	1416.3021	1421.3964	1468.8215	1481.7742	1488.4776	1492.1247	1500.1346	1504.9468	1506.7372	1509.9391	1521.8365	2971.8396	2988.9083	3007.7433	3024.8088	3029.6307	3030.8747	3064.4779	3085.8082	3093.0422	3101.8537	3114.1796	3116.1013	3122.9423	3125.3773	3127.2266	3131.2018	3202.6041	3218.0773
CC(C)C(C)CC1CC1	CC(C)[C@@H](C)CC1CC1	
InChI=1S/C9H18/c1-7(2)8(3)6-9-4-5-9/h7-9H,4-6H2,1-3H3	InChI=1S/C9H18/c1-7(2)8(3)6-9-4-5-9/h7-9H,4-6H2,1-3H3/t8-/m0/s1
