17
gdb 17332	3.53264	2.20023	1.85377	1.1705	66.89	-0.2233	0.0709	0.2943	787.8408	0.143036	-363.824207	-363.817513	-363.816569	-363.854606	26.801	
C	 0.0964867763	 1.5081323562	 0.0259774204	-0.487213
C	-0.0209541353	 0.0043087625	 0.0024215334	 0.311106
C	-0.7012460112	-0.7786636077	 1.0689226036	-0.28169
N	 0.7678317935	-0.7876139651	 0.9799262675	-0.145144
C	 1.3782943251	-1.9351306364	 0.2726192439	-0.199245
C	 0.9529456446	-1.8673699603	-1.1861616134	 0.037349
O	-0.4593718294	-2.0124979957	-1.3896049177	-0.251759
C	 0.0875940823	-0.6883658902	-1.3425653324	-0.022861
H	 0.9837939483	 1.8466610229	-0.5213126151	 0.119473
H	-0.7818148893	 1.9774083838	-0.431275299	 0.120642
H	 0.1816854062	 1.8644298552	 1.0551341007	 0.133204
H	-1.0890398454	-0.2654884943	 1.9459632483	 0.107472
H	-1.2494827678	-1.6643639158	 0.7649192677	 0.131703
H	 2.4684413085	-1.8386470459	 0.3398962823	 0.111913
H	 1.0961192574	-2.8818510226	 0.7451291002	 0.119956
H	 1.5845844817	-2.2702935733	-1.9756653936	 0.099122
H	 0.0078644642	-0.1108337035	-2.2596599068	 0.095971
183.7843	207.1336	268.0482	322.1931	369.6107	449.6046	524.7883	591.3253	722.9211	754.4541	766.4703	813.2019	864.2976	899.0211	935.6616	950.0313	971.0257	1002.7368	1049.4683	1069.5383	1111.1612	1117.8318	1135.8225	1165.5618	1231.5291	1245.5954	1265.7427	1320.0327	1344.481	1366.9659	1412.8328	1430.6627	1482.5481	1486.6393	1494.303	1502.7058	3029.6137	3036.1014	3081.0073	3089.5287	3105.4379	3124.5088	3131.0438	3154.8046	3203.8709
CC12CN1CC1OC21	C[C@]12CN1C[C@H]1O[C@@H]21	
InChI=1S/C6H9NO/c1-6-3-7(6)2-4-5(6)8-4/h4-5H,2-3H2,1H3	InChI=1S/C6H9NO/c1-6-3-7(6)2-4-5(6)8-4/h4-5H,2-3H2,1H3/t4-,5-,6-,7?/m1/s1
