16
gdb 34049	3.43668	1.32308	1.10609	3.4131	69.3	-0.278	-0.0031	0.2749	1080.349	0.125375	-437.878664	-437.87116	-437.870215	-437.910716	28.474	
N	 0.0170332831	-1.1390646551	 0.1307404368	-0.331011
C	 0.0249665423	 0.0156121527	 0.0788069091	 0.245606
C	 0.013332308	 1.4630999869	-0.0214518002	 0.245484
C	-1.1910059649	 2.0921111207	-0.7163154802	-0.297684
C	-0.7533462807	 3.25609308	-1.6128678848	-0.085707
O	 0.1461864922	 4.1218119645	-0.9443713342	-0.234259
C	 1.4013497902	 3.5211527547	-0.7234736072	-0.120783
C	 1.3062722807	 2.1917272768	-0.005595042	-0.013297
O	 0.4827254785	 2.1428740599	 1.1515733282	-0.257413
H	-1.7163895217	 1.3401286998	-1.3122057745	 0.128527
H	-1.8783668231	 2.4427592986	 0.0596741543	 0.142512
H	-0.2890900568	 2.8662893198	-2.53383287	 0.098063
H	-1.6142953739	 3.8644751444	-1.900156154	 0.123348
H	 1.9373233964	 3.3565792497	-1.6746551758	 0.103309
H	 1.9848668661	 4.2258144885	-0.1224307643	 0.134025
H	 2.2317982435	 1.619737028	 0.0608951389	 0.11928
111.6344	148.7912	192.121	290.9679	368.8998	380.5252	395.6823	500.3216	555.354	603.4136	651.0237	727.4715	814.0002	857.7178	909.6123	946.2137	960.4833	1015.4391	1035.1619	1100.4259	1123.5052	1161.9801	1190.9797	1261.6325	1273.8929	1303.8835	1320.8953	1368.622	1385.1463	1419.4825	1449.1104	1468.6558	1478.8352	1500.0823	2357.5715	2961.5322	2973.5	3058.5201	3081.5002	3099.7516	3108.9914	3119.9299
N#CC12CCOCC1O2	N#C[C@]12CCOC[C@H]1O2	
InChI=1S/C6H7NO2/c7-4-6-1-2-8-3-5(6)9-6/h5H,1-3H2	InChI=1S/C6H7NO2/c7-4-6-1-2-8-3-5(6)9-6/h5H,1-3H2/t5-,6-/m1/s1
