20
gdb 100478	3.96622	0.63221	0.57795	1.8641	88.03	-0.2336	0.0289	0.2625	1968.9901	0.168982	-403.077352	-403.06692	-403.065976	-403.114746	36.191	
C	-0.0234687569	 1.4539370624	-0.4497887339	-0.230917
O	-0.2237847745	 0.0608717849	-0.5300347072	-0.241426
C	 0.8477813298	-0.6465159783	-1.1495155409	-0.041016
C	 2.0365949419	-0.8462272587	-0.1943166565	-0.391263
C	 0.3300703731	-1.9315654689	-1.6176439884	 0.0424
C	-0.0711085039	-3.0028108359	-1.9979744818	 0.13498
C	-0.5452249224	-4.2726528123	-2.4691692405	-0.163626
C	-2.0065112971	-4.473928938	-2.7099929756	-0.224778
N	-1.0851855499	-4.4036957405	-3.847017645	-0.307975
H	 0.8047762735	 1.7297110412	 0.2192407015	 0.107288
H	 0.1724138606	 1.8946282292	-1.4402060389	 0.104727
H	-0.9455468466	 1.8834306294	-0.0508242858	 0.130746
H	 1.1933855215	-0.0696471819	-2.0253287747	 0.090409
H	 1.7133465993	-1.4049506313	 0.6873324151	 0.135499
H	 2.8330570325	-1.4048905328	-0.6931957987	 0.127964
H	 2.4429750826	 0.1171536186	 0.1254916323	 0.117318
H	 0.0412768099	-5.1344332428	-2.1611048666	 0.116457
H	-2.4395132421	-5.4535970058	-2.5290243145	 0.12514
H	-2.6630228553	-3.6330481082	-2.5082792383	 0.128152
H	-1.131697396	-3.4773609404	-4.2653489816	 0.239921
23.6776	63.4041	78.1947	107.8438	181.9549	208.8905	214.2967	250.7807	348.4355	377.2446	448.8003	526.1818	533.4327	571.2417	732.1275	812.0123	835.8302	878.4636	957.5088	979.2255	1014.5374	1055.0726	1091.5863	1109.6142	1122.3633	1141.7325	1165.1254	1179.8981	1216.275	1223.8849	1257.2916	1299.7407	1342.7889	1370.3659	1397.6183	1397.9871	1474.8916	1481.9701	1491.319	1501.021	1504.914	1511.448	2359.7092	2945.328	2975.8872	3025.2325	3049.8961	3114.9216	3115.8489	3123.7478	3134.6789	3138.4237	3207.259	3502.7728
COC(C)C#CC1CN1	CO[C@@H](C)C#C[C@H]1CN1	
InChI=1S/C7H11NO/c1-6(9-2)3-4-7-5-8-7/h6-8H,5H2,1-2H3	InChI=1S/C7H11NO/c1-6(9-2)3-4-7-5-8-7/h6-8H,5H2,1-2H3/t6-,7-/m0/s1
