18
gdb 8554	2.89423	2.62899	1.70513	1.3277	71.54	-0.2261	0.0764	0.3025	817.2771	0.153846	-347.755493	-347.748272	-347.747328	-347.78623	29.163	
C	-0.0642198657	 1.4627305698	 0.0485878152	-0.502462
C	 0.03195299	-0.0323862197	 0.0042690915	 0.308406
C	 0.8900991344	-0.8900569381	-0.9272449877	-0.274736
C	 0.0342749762	-2.090176948	-0.4402670429	-0.065592
C	 0.4262553335	-2.2446351834	 1.059341531	-0.291479
C	-0.2580150584	-0.8946666037	 1.241658048	 0.352191
O	-0.5719191364	-0.2561373068	 2.424657213	-0.462652
C	-1.0921378021	-1.0642382019	-0.0145181412	-0.216614
H	 0.8934376765	 1.9096634971	 0.3411246561	 0.118832
H	-0.3384641546	 1.872893128	-0.9298393011	 0.111219
H	-0.8116738258	 1.7835266455	 0.7793494507	 0.129578
H	 0.6939091696	-0.6454108418	-1.9760497366	 0.093156
H	 1.9733532641	-0.9383855375	-0.7582035786	 0.083259
H	-0.1137856961	-2.9701902746	-1.0615156253	 0.070721
H	-0.14187057	-3.0469919132	 1.5427812315	 0.085814
H	 1.4909359355	-2.3446636333	 1.3021106976	 0.088929
H	-1.2115146797	-0.7979659597	 2.8994299063	 0.284838
H	-2.1502401912	-0.9783582188	-0.2167854677	 0.086592
178.6694	215.9984	238.2907	297.679	362.1786	402.3208	432.8574	457.8705	611.7394	651.1178	709.3108	763.1195	807.4239	865.8807	882.2386	901.4958	943.1264	978.9798	984.099	1033.1038	1065.5744	1098.6703	1106.3701	1112.1277	1164.1685	1177.2172	1213.973	1250.0162	1258.3805	1276.1497	1298.6406	1365.6792	1417.3348	1439.2447	1487.6338	1493.869	1495.9802	1513.7486	3017.3747	3024.239	3027.0846	3078.3449	3080.1201	3081.9574	3113.072	3141.1707	3218.3384	3796.4204
CC12CC3CC1(O)C23	C[C@@]12C[C@H]3C[C@]1(O)[C@@H]23	
InChI=1S/C7H10O/c1-6-2-4-3-7(6,8)5(4)6/h4-5,8H,2-3H2,1H3	InChI=1S/C7H10O/c1-6-2-4-3-7(6,8)5(4)6/h4-5,8H,2-3H2,1H3/t4-,5+,6-,7-/m0/s1
