13
gdb 129203	3.32864	1.4537	1.0499	1.087	73.92	-0.2567	-0.1099	0.1468	1048.2822	0.091142	-448.914364	-448.907199	-448.906255	-448.946635	26.447	
N	-0.0932811914	 1.2391888881	 0.4193632631	-0.488226
C	 0.0111282065	 0.0473314433	-0.0112758568	 0.405787
N	-1.2072676485	-0.6022633856	-0.3241983014	-0.224124
N	-1.6069160806	-1.8567845069	-0.1454816875	-0.152564
C	-0.8328347478	-2.8615707964	 0.0894025447	-0.079207
C	 0.6333332896	-2.9625184367	 0.1290872345	 0.306362
O	 1.183578754	-4.0180508848	 0.3872396689	-0.308111
C	 1.5045560178	-1.7927737936	-0.2438004019	-0.049263
N	 1.2427928539	-0.5500443521	-0.2940795148	-0.232069
H	 0.8325082359	 1.6625246334	 0.475648433	 0.243652
H	-1.9815146606	 0.0495887485	-0.3314184302	 0.284657
H	-1.3417535545	-3.8109777485	 0.2304002797	 0.14262
H	 2.5282491457	-2.1021685786	-0.4660267913	 0.150486
58.0482	120.6564	281.7893	341.9661	387.4797	413.4634	450.5046	522.4061	641.6999	674.1641	695.1407	755.4212	771.3478	851.7719	888.5464	900.4233	923.4362	989.2881	1078.0846	1174.4685	1287.9384	1334.3219	1386.5747	1397.8638	1480.4657	1647.9394	1701.4575	1729.5428	1738.7287	3116.3703	3176.4016	3506.5452	3582.3371
N=C1NN=CC(=O)C=N1	[NH][C]1NN=CC(=O)C=N1	
InChI=1S/C4H4N4O/c5-4-6-1-3(9)2-7-8-4/h1-2H,(H2,5,8)	InChI=1S/C4H4N4O/c5-4-6-1-3(9)2-7-8-4/h1-2H,(H2,5,8)
