19
gdb 115197	4.09275	0.94808	0.80461	4.4319	79.5	-0.2337	-0.0453	0.1884	1395.3822	0.159947	-423.060896	-423.052235	-423.051291	-423.094471	32.511	
O	-0.068354414	 1.4642187605	 0.0051101777	-0.420589
C	 0.0316319116	 0.0498432157	-0.0433810667	-0.098316
C	-1.3855180123	-0.5273615732	 0.0248157829	-0.026181
C	-1.3879554995	-2.0473938912	-0.1913367417	-0.239136
C	-2.773758505	-2.6467887948	 0.073986738	-0.325919
C	-3.3041940892	-2.2898178799	 1.4592867321	 0.386264
O	-4.0412972015	-3.0296394023	 2.0801472783	-0.334962
C	-2.8999020676	-0.966752826	 1.9805716393	-0.178408
C	-2.0574250873	-0.1599556778	 1.3220367011	-0.024944
H	 0.8178310058	 1.8312655627	 0.0702252988	 0.291876
H	 0.512588839	-0.2855892564	-0.9757497867	 0.092283
H	 0.628150772	-0.33976687	 0.7969151095	 0.093136
H	-1.948043819	-0.0457809561	-0.7913567742	 0.10501
H	-1.0565615728	-2.2865909106	-1.207674136	 0.102481
H	-0.6614782603	-2.5039501758	 0.4943119991	 0.10732
H	-3.4940567219	-2.2529079808	-0.6578813286	 0.123397
H	-2.7815591752	-3.7349208807	-0.0270416581	 0.121072
H	-3.3470396121	-0.6771438053	 2.9268056425	 0.104295
H	-1.8167741008	 0.8241687521	 1.7155839526	 0.12132
69.3487	114.5972	181.441	206.6417	263.5698	280.9384	350.4851	399.0101	473.6162	492.5438	523.1699	631.8965	715.3418	756.7063	782.2668	860.2036	930.6726	943.1242	1006.8741	1034.8947	1060.6074	1073.6095	1083.4406	1103.9051	1155.2477	1183.8522	1231.8358	1242.3364	1255.4749	1267.95	1310.6502	1341.5376	1363.5604	1378.5645	1404.6167	1453.928	1461.3885	1494.3881	1521.6108	1678.0348	1779.423	2967.5402	2978.5478	3003.7295	3012.3347	3023.0615	3069.2432	3101.5921	3166.1868	3187.5131	3835.5843
OCC1CCC(=O)C=C1	OC[C@H]1CCC(=O)C=C1	
InChI=1S/C7H10O2/c8-5-6-1-3-7(9)4-2-6/h1,3,6,8H,2,4-5H2	InChI=1S/C7H10O2/c8-5-6-1-3-7(9)4-2-6/h1,3,6,8H,2,4-5H2/t6-/m1/s1
