17
gdb 70400	2.46712	1.53873	1.33453	3.8359	72.62	-0.2644	0.0303	0.2947	1027.9872	0.135553	-417.97733	-417.968652	-417.967708	-418.010184	33.148	
N	-0.0819381553	 1.4887851061	-0.0186905735	-0.546702
C	-0.0390988858	 0.0287205827	-0.0041469455	 0.029944
C	 0.224672203	-0.6148930588	 1.4106329354	-0.260145
C	-1.1332637732	-1.3173197823	 1.3368142527	-0.09126
C	-2.2252119517	-0.2815709798	 1.1795168144	-0.3515
C	-1.4163948756	-0.6902759503	-0.0162453206	 0.393334
O	-1.9505404264	-1.2906772988	-1.1347788742	-0.449644
C	 0.8649142663	-0.5213224547	-1.0262707849	 0.250502
N	 1.6008214582	-0.8914255897	-1.838166377	-0.345902
H	 0.8488921508	 1.8603680615	 0.1544954791	 0.243071
H	-0.3489891408	 1.8201394953	-0.9426913531	 0.23806
H	 1.0787782165	-1.2924197968	 1.4058976105	 0.132374
H	 0.3406325639	 0.124412296	 2.2080932765	 0.112194
H	-1.3399104357	-2.3242847596	 1.6738229705	 0.104674
H	-3.2314389978	-0.6881488289	 1.1739377684	 0.119693
H	-2.1205419605	 0.7081168008	 1.613515998	 0.128738
H	-2.5702760159	-0.6816631625	-1.5515992566	 0.29257
108.0968	133.9028	209.4629	212.7342	268.7109	297.946	344.1911	383.901	432.7498	469.7066	537.0661	559.7934	656.7185	674.4011	795.4651	860.3163	877.6182	887.3108	925.4152	934.3458	973.6849	1023.5176	1034.9354	1079.784	1133.0675	1170.5672	1211.1305	1221.0924	1249.5531	1274.4064	1304.9182	1320.0933	1400.7383	1470.38	1497.4568	1653.7205	2342.5657	3063.4716	3122.3398	3135.2347	3205.3569	3217.4768	3478.0061	3554.9207	3792.8238
NC1(CC2CC12O)C#N	N[C@]1(C[C@H]2C[C@@]12O)C#N	
InChI=1S/C6H8N2O/c7-3-5(8)1-4-2-6(4,5)9/h4,9H,1-2,8H2	InChI=1S/C6H8N2O/c7-3-5(8)1-4-2-6(4,5)9/h4,9H,1-2,8H2/t4-,5+,6-/m0/s1
