16
gdb 28710	6.65822	0.84924	0.75673	2.6677	76.57	-0.2093	0.0071	0.2164	1459.9641	0.12503	-434.109852	-434.101218	-434.100274	-434.144073	30.509	
C	-0.002446291	 1.4825940331	 0.1395889332	-0.505313
C	-0.002718101	 0.0030071836	-0.0287897391	 0.302166
C	-0.0557673847	-0.8068916206	-1.127523544	-0.172757
N	-0.0287368141	-2.148777367	-0.7725261157	-0.358569
C	 0.0399119307	-2.1323481238	 0.5268861122	 0.497129
N	 0.0598171064	-0.8793546871	 1.0481908016	-0.392802
O	 0.0921396508	-3.1748424992	 1.389932472	-0.22964
C	 0.0668121303	-4.4375810042	 0.8607770576	 0.111449
N	 0.116426401	-5.4099121129	 1.6575888899	-0.433373
H	 0.908810565	 1.8441732853	 0.6319555352	 0.131929
H	-0.0609228032	 1.9620481831	-0.8402523757	 0.144616
H	-0.8568244806	 1.8330084915	 0.7318431391	 0.131817
H	-0.1124174485	-0.5084738292	-2.1631761752	 0.110531
H	 0.1102549804	-0.6519106534	 2.0271905954	 0.271994
H	 0.0045587269	-4.4358918696	-0.2283149794	 0.152817
H	 0.0898020714	-6.2827597695	 1.1336693628	 0.238004
43.4178	93.4251	145.4423	156.4302	207.0279	300.3845	345.2952	445.3843	489.9231	515.3795	643.8838	672.9718	719.9375	821.7219	823.9774	838.6888	988.0828	994.3589	1043.6425	1063.7688	1066.4921	1078.2467	1192.0616	1216.0466	1270.7162	1285.817	1381.5719	1394.5833	1421.4666	1478.577	1494.1711	1508.4986	1580.396	1636.9221	1748.0252	3019.1484	3064.4307	3124.0382	3132.2024	3252.529	3516.7187	3666.1645
CC1=CN=C(N1)OC=N	Cc1cnc([nH]1)O[CH][NH]	
InChI=1S/C5H7N3O/c1-4-2-7-5(8-4)9-3-6/h2-3,6H,1H3,(H,7,8)	InChI=1S/C5H7N3O/c1-4-2-7-5(8-4)9-3-6/h2-3,6H,1H3,(H,7,8)
