16
gdb 28607	5.35698	1.01339	0.90618	1.6627	72.84	-0.1887	0.0466	0.2354	1255.9044	0.125728	-434.067018	-434.059011	-434.058067	-434.100333	29.863	
O	 0.7210742645	 1.2366722525	 0.1855558425	-0.437701
C	 0.2033768298	-0.0001166428	-0.0125112433	 0.362107
C	-0.3998451212	-0.6480603994	-1.0539992228	-0.241766
N	-0.7353562628	-1.9385698422	-0.666093632	-0.302645
C	-0.3432477151	-2.0518680947	 0.5751509344	 0.415158
N	 0.2403325749	-0.8949133817	 1.0288167459	-0.354784
N	-0.4553228107	-3.145666934	 1.4456611984	-0.202316
C	-1.1681515573	-4.3112557998	 0.9184397647	-0.213841
C	 0.3047599287	-4.3650991052	 1.0797408236	-0.227819
H	 0.6161169598	 1.7420426582	-0.6264523487	 0.309884
H	-0.6165957446	-0.274464785	-2.0427136766	 0.097569
H	 0.5857180342	-0.7225425412	 1.9579901875	 0.27237
H	-1.8124745654	-4.8077048446	 1.6377679381	 0.117614
H	-1.5560170391	-4.2239529864	-0.0911247848	 0.154625
H	 0.9051358941	-4.3126627915	 0.1761487468	 0.132553
H	 0.7518972003	-4.8927378122	 1.9166999364	 0.118993
33.1247	143.1282	199.0396	227.4661	290.1698	352.1104	434.947	496.1792	502.9394	614.0074	663.7177	706.2714	744.6467	757.6084	822.7472	849.8086	909.6988	1010.6621	1042.3157	1055.1222	1110.8966	1138.1981	1146.4016	1153.7487	1185.7569	1201.0655	1220.5076	1281.9695	1313.6521	1454.6934	1480.6425	1505.9604	1506.8124	1569.4673	1637.4714	3114.6364	3121.8604	3205.8161	3222.5489	3246.2751	3670.6591	3843.4715
OC1=CN=C(N1)N1CC1	Oc1cnc([nH]1)N1CC1	
InChI=1S/C5H7N3O/c9-4-3-6-5(7-4)8-1-2-8/h3,9H,1-2H2,(H,6,7)	InChI=1S/C5H7N3O/c9-4-3-6-5(7-4)8-1-2-8/h3,9H,1-2H2,(H,6,7)
