18
gdb 30208	3.74702	1.32737	1.12977	2.0838	77.97	-0.1885	0.0283	0.2168	1105.2664	0.15052	-401.972335	-401.964942	-401.963998	-402.004071	29.638	
C	 0.2453595649	 1.4781515268	 0.0666635373	-0.39353
C	-0.070480809	-0.0172319238	-0.039139936	 0.034103
C	 0.6068549106	-0.6727242551	-1.2908951462	-0.370871
C	 1.8529658051	-1.2593477852	-0.6955061443	 0.241401
C	 3.0636523353	-1.7992745034	-0.9714392226	-0.16269
O	 3.6884121284	-2.1536441438	 0.1859458924	-0.164556
C	 2.846834982	-1.8352082119	 1.234110144	-0.150997
C	 1.7151579711	-1.285238371	 0.7258349769	 0.23248
N	 0.4671403812	-0.7891544516	 1.1180816318	-0.417606
H	 1.3276996718	 1.6461988335	 0.0684622653	 0.130134
H	-0.1868920342	 2.028498097	-0.7758326259	 0.117276
H	-0.1694000935	 1.9032298172	 0.9875162405	 0.110668
H	-1.1563174277	-0.1525883869	-0.0772317781	 0.080396
H	-0.0395043107	-1.4522978563	-1.7108441195	 0.119368
H	 0.7804486932	 0.0659710588	-2.0786172717	 0.112593
H	 3.6166011478	-1.9940303862	-1.8756105737	 0.13096
H	 3.2215818937	-2.0556039072	 2.2178734762	 0.122786
H	 0.44370196	-0.2802069308	 1.9921125436	 0.228085
85.7157	215.5034	265.827	300.7648	347.1981	395.5014	471.2974	586.6284	598.2916	649.8519	653.4021	707.9293	724.1656	754.742	816.5152	841.385	915.5709	929.916	949.8139	1032.6168	1046.6781	1093.2045	1126.9841	1135.6403	1149.5129	1210.1622	1244.8802	1279.9044	1311.5987	1318.7957	1370.1892	1387.8105	1405.9297	1446.9847	1485.454	1495.4793	1497.9403	1610.5911	1690.1978	3026.4649	3031.4133	3049.2672	3082.8161	3095.2825	3106.5905	3270.8704	3289.9946	3567.493
CC1CC2=COC=C2N1	C[C@H]1Cc2cocc2N1	
InChI=1S/C7H9NO/c1-5-2-6-3-9-4-7(6)8-5/h3-5,8H,2H2,1H3	InChI=1S/C7H9NO/c1-5-2-6-3-9-4-7(6)8-5/h3-5,8H,2H2,1H3/t5-/m0/s1
