16
gdb 54927	5.13778	0.8915	0.81154	2.5263	71.83	-0.2407	0.0077	0.2484	1363.315	0.122934	-437.863767	-437.854804	-437.85386	-437.898483	32.485	
N	 0.2898667279	-0.1160288251	 0.9778388896	-0.515724
C	-0.2074055308	 0.5317696583	-0.1042475569	 0.357405
O	 0.1854045259	 1.6029274373	-0.5249825021	-0.371156
C	-1.340289822	-0.2126782712	-0.8070243038	 0.047462
C	-0.9804211881	-0.8169874885	-2.1798366742	-0.299176
C	-1.2132909187	-2.1865577454	-1.4846517934	-0.041091
O	-1.6249460318	-1.5210753438	-0.2528420663	-0.308375
C	-2.234522585	-3.0565045133	-2.0361279973	 0.328018
C	-3.0729612305	-3.776068395	-2.5089580949	-0.4421
H	 1.003178228	 0.3257280868	 1.5331157135	 0.263429
H	-0.1346196742	-0.9798717976	 1.2731777442	 0.273772
H	-2.2255952943	 0.4314399378	-0.796495896	 0.119488
H	-1.6920798474	-0.5976779082	-2.9740906146	 0.132567
H	 0.0346211797	-0.6275918176	-2.5272783079	 0.13572
H	-0.2905474538	-2.7556666706	-1.3158080152	 0.112356
H	-3.8149153348	-4.4138760139	-2.9226307346	 0.207403
39.4527	60.9726	120.5218	198.1928	247.4839	300.0751	339.5319	434.4194	497.2594	513.4819	588.4633	624.8835	641.8214	680.0097	714.4849	757.4801	797.8892	891.6944	957.3041	1008.3546	1009.4766	1045.588	1088.4215	1095.5353	1140.5627	1244.6667	1252.0924	1285.0914	1326.4709	1365.2146	1382.2297	1493.4805	1591.5349	1804.6612	2237.9341	3024.8313	3060.7956	3103.5524	3165.0164	3501.8112	3593.6668	3735.4418
NC(=O)C1CC(O1)C#C	NC(=O)[C@H]1C[C@@H](O1)C#C	
InChI=1S/C6H7NO2/c1-2-4-3-5(9-4)6(7)8/h1,4-5H,3H2,(H2,7,8)	InChI=1S/C6H7NO2/c1-2-4-3-5(9-4)6(7)8/h1,4-5H,3H2,(H2,7,8)/t4-,5+/m0/s1
