19
gdb 93519	2.43263	1.51113	1.11488	3.1325	72.01	-0.244	0.0491	0.2931	1130.8947	0.161279	-456.400045	-456.391212	-456.390268	-456.433607	33.546	
C	 0.0642889087	 1.5761223876	-0.0034918368	-0.402864
C	 0.0586019994	 0.0497448162	 0.0291626884	 0.041733
N	 0.7405620181	-0.4824195591	-1.1488788391	-0.345487
C	 1.4196589258	-1.6732808621	-1.2463289802	 0.416803
O	 1.840794659	-2.1110321843	-2.3016733674	-0.408783
N	 1.6637946375	-2.3029710866	-0.0311828458	-0.357068
C	 0.8527818933	-2.0354302095	 1.149696378	-0.198111
C	 0.7370770685	-0.5162131048	 1.2927059658	 0.124655
O	 2.002050812	 0.0647192914	 1.5431464319	-0.434256
H	 1.0869010591	 1.951208361	 0.0692614033	 0.141621
H	-0.3880121013	 1.946606876	-0.9295046893	 0.111659
H	-0.5147112458	 1.9771576023	 0.834034138	 0.120028
H	-0.988059943	-0.2970086715	 0.0486858547	 0.077819
H	 0.559737152	-0.0555443237	-2.0439195334	 0.248692
H	 2.0332235268	-3.2328510019	-0.1566013953	 0.252699
H	-0.1490304988	-2.4877865964	 1.089591173	 0.105699
H	 1.3595155467	-2.4487636372	 2.0260680484	 0.120066
H	 0.1094244985	-0.2732127882	 2.1557714127	 0.090801
H	 2.6262850234	-0.3524407991	 0.9357752631	 0.294295
62.4952	109.967	193.2293	239.6987	254.5492	319.0081	365.0443	380.6734	441.0771	500.0401	510.9405	542.7204	604.273	648.9854	743.8157	766.8324	868.2466	903.7274	920.9817	990.4379	997.7296	1042.4243	1093.2727	1130.175	1145.8157	1196.86	1242.0981	1258.0313	1306.8513	1337.8197	1363.7569	1383.1155	1407.5554	1421.353	1433.6636	1457.6763	1465.417	1493.0075	1498.9519	1515.1656	1808.6388	2953.5846	2986.1116	3040.8786	3070.0197	3087.104	3105.6657	3140.5059	3630.9655	3636.7608	3775.4785
CC1NC(=O)NCC1O	C[C@H]1NC(=O)NC[C@H]1O	
InChI=1S/C5H10N2O2/c1-3-4(8)2-6-5(9)7-3/h3-4,8H,2H2,1H3,(H2,6,7,9)	InChI=1S/C5H10N2O2/c1-3-4(8)2-6-5(9)7-3/h3-4,8H,2H2,1H3,(H2,6,7,9)/t3-,4-/m1/s1
