18
gdb 9927	2.98516	1.52179	1.39224	3.4622	73.72	-0.2659	0.0317	0.2975	1004.9472	0.153128	-343.989904	-343.980743	-343.979798	-344.023168	33.238	
C	-0.053989347	 1.5556884486	 0.1212007363	-0.419935
C	 0.0397960178	 0.0530041849	-0.02479823	-0.040492
C	 0.685621744	-0.6266142628	-1.2016222179	-0.040492
C	 1.3070966436	 0.1233892578	-2.3589632157	-0.419932
C	 1.37797061	-0.6710918757	 0.1658569525	 0.113593
N	 2.5564948946	 0.1397497348	 0.3441924269	-0.558271
C	 1.3483119974	-1.9316638391	 0.877559575	 0.237289
N	 1.3586305361	-2.9320629752	 1.4610459667	-0.352927
H	 0.8691276347	 2.0526918527	-0.1786476155	 0.142637
H	-0.8732144175	 1.9463526316	-0.4918805551	 0.124135
H	-0.2613300046	 1.8296628783	 1.1610547505	 0.122446
H	-0.8059192739	-0.4842104103	 0.3948668378	 0.106687
H	 0.2250438969	-1.569095216	-1.4836632584	 0.106682
H	 1.8814319692	 0.9874146668	-2.023302258	 0.142639
H	 1.9806067145	-0.5295390202	-2.9241344281	 0.122442
H	 0.5295798991	 0.4701520692	-3.0480493563	 0.124132
H	 2.6840892853	 0.3729398124	 1.3242303371	 0.244681
H	 3.3854619397	-0.365281438	 0.0460411619	 0.244686
130.5964	138.0071	146.2635	163.937	211.5299	217.3638	287.9416	294.705	410.9383	431.164	545.0471	574.1464	590.7114	684.5641	786.4064	788.8941	849.8693	956.6265	1025.9331	1034.273	1036.5768	1079.7619	1138.7112	1140.4472	1184.0743	1234.4726	1262.3367	1313.9509	1375.5453	1411.9172	1415.1601	1436.472	1485.2075	1496.1027	1501.2693	1513.2477	1662.9146	2332.4604	3038.4554	3040.9337	3093.7295	3095.1667	3134.668	3143.4369	3150.139	3160.2806	3496.6227	3572.4807
CC1C(C)C1(N)C#N	C[C@H]1[C@@H](C)[C@]1(N)C#N	
InChI=1S/C6H10N2/c1-4-5(2)6(4,8)3-7/h4-5H,8H2,1-2H3	InChI=1S/C6H10N2/c1-4-5(2)6(4,8)3-7/h4-5H,8H2,1-2H3/t4-,5+,6-
