25
gdb 86186	2.1388	1.40756	1.14035	1.4149	87.76	-0.2564	0.0738	0.3301	1257.2608	0.228324	-389.51624	-389.506067	-389.505123	-389.550363	40.073	
C	-0.3080358009	 1.4685634051	-0.0281204338	-0.422645
C	-0.0561236162	-0.0387871569	 0.0032310784	 0.043169
C	 0.7095771966	-0.5703323487	-1.2301129415	-0.264963
C	 1.4279557959	-1.8717215871	-0.7752250559	 0.114143
O	 2.8493879518	-1.7856944389	-0.8965812867	-0.43316
C	 1.0853921297	-2.0161708289	 0.7181509746	-0.231562
C	 0.7311879347	-0.5988298262	 1.2279397903	 0.288631
C	 2.0139035476	 0.2025807453	 1.5213496101	-0.426037
C	-0.1371462059	-0.6503797259	 2.4906363679	-0.444242
H	 0.6278763783	 2.0316961684	-0.1019146568	 0.117359
H	-0.9228964495	 1.7403529202	-0.8930593883	 0.109618
H	-0.8362957078	 1.8099521988	 0.8685338607	 0.112706
H	-1.0358617827	-0.5379908414	 0.0228341642	 0.062187
H	 0.0432261233	-0.7335146453	-2.083054919	 0.091694
H	 1.4692484969	 0.1526955546	-1.5497313357	 0.094633
H	 1.0715566165	-2.7431089081	-1.3423148992	 0.059959
H	 3.0551105143	-1.6236823993	-1.8228268833	 0.278196
H	 0.2091603984	-2.6668700258	 0.8238944806	 0.085832
H	 1.9112311945	-2.4838275003	 1.2616625824	 0.10312
H	 2.680674529	 0.233935035	 0.6568920496	 0.127923
H	 1.7852376816	 1.2284883779	 1.8277011402	 0.103584
H	 2.5690381668	-0.2673163688	 2.3407059311	 0.107235
H	 0.3982756641	-1.1301656804	 3.3175934808	 0.109325
H	-0.4177686985	 0.3545184636	 2.8254586552	 0.109365
H	-1.0597529385	-1.2160965869	 2.3173235241	 0.103932
80.326	134.9087	220.3125	231.222	232.8331	266.9629	284.1768	312.1913	317.62	349.3089	399.2031	419.2661	450.7136	503.1945	550.3784	648.7705	727.0525	818.8843	847.477	901.3181	917.9855	937.9464	952.6389	971.1206	1005.9157	1009.7538	1039.2365	1082.3728	1107.604	1111.0778	1145.7532	1200.8744	1228.6818	1237.7656	1253.8578	1271.6877	1306.4109	1329.5957	1345.6974	1366.3307	1376.8139	1400.7017	1407.981	1422.4841	1424.2811	1472.9156	1483.2224	1487.7275	1491.4644	1498.4867	1503.9468	1509.6002	1512.5033	2988.7387	2989.6699	3019.631	3028.2538	3033.525	3034.6627	3039.6687	3080.4456	3085.6269	3087.0855	3090.3949	3094.2783	3096.5317	3101.9068	3127.2563	3814.4108
CC1CC(O)CC1(C)C	C[C@H]1C[C@@H](O)CC1(C)C	
InChI=1S/C8H16O/c1-6-4-7(9)5-8(6,2)3/h6-7,9H,4-5H2,1-3H3	InChI=1S/C8H16O/c1-6-4-7(9)5-8(6,2)3/h6-7,9H,4-5H2,1-3H3/t6-,7+/m0/s1
