21
gdb 80359	2.22675	1.66502	1.16696	0.7249	88.33	-0.2495	0.0517	0.3012	1148.1308	0.180965	-349.896542	-349.887316	-349.886372	-349.929722	36.319	
C	-0.0887878117	 1.5126219528	-0.1826155083	-0.420905
C	 0.0705533753	 0.0203750707	 0.0206375136	-0.006425
C	 1.3343038079	-0.7714350876	-0.1803444921	-0.072291
C	 2.5654134957	-0.0151285578	 0.3330974512	-0.290932
C	 1.9466048719	-0.01301853	 1.7854479626	 0.139105
C	 2.6964607304	-0.9885155397	 2.7082976663	-0.437522
C	 1.7952590366	 1.2739718091	 2.4539949925	 0.292262
C	 1.6988463829	 2.322226812	 3.037200049	-0.472287
C	 0.6773087828	-0.6849392515	 1.204729566	-0.101275
H	 0.775702573	 2.0821258343	 0.1610511721	 0.133177
H	-0.2427261417	 1.7350075032	-1.2446847158	 0.108953
H	-0.9593665896	 1.8864445299	 0.3667090618	 0.118076
H	-0.7935015809	-0.5396599747	-0.3365379565	 0.08498
H	 1.3766465212	-1.61903875	-0.8540014356	 0.082625
H	 3.4887968031	-0.5969148378	 0.2948799613	 0.105316
H	 2.7518970686	 0.9650548127	-0.1127787889	 0.104717
H	 3.6899006333	-0.6018223699	 2.9539338076	 0.122972
H	 2.1470923245	-1.1354544512	 3.6432891174	 0.123329
H	 2.8089509179	-1.9606061411	 2.2177972784	 0.114571
H	 1.5989378266	 3.2521799273	 3.5399751497	 0.189574
H	 0.1300547021	-1.445820231	 1.7513508378	 0.081983
119.5297	134.753	187.8095	203.0864	243.1626	268.7175	283.6772	363.6835	442.5379	485.9982	518.7008	585.518	617.8119	625.4506	631.0342	719.9679	777.6816	821.563	876.9166	916.1808	946.1367	954.2141	982.1869	1006.6567	1009.3781	1059.1513	1073.4945	1115.2804	1146.2622	1162.4888	1177.882	1216.6417	1248.7612	1261.7204	1295.5212	1343.8812	1403.7221	1418.6579	1445.141	1483.5124	1489.4362	1494.9004	1498.242	1506.8454	2223.8957	3033.4101	3034.4024	3063.2587	3090.3807	3107.4768	3108.2588	3112.9701	3115.9685	3139.9909	3159.9007	3179.6667	3501.0322
CC1C2CC(C)(C#C)C12	C[C@H]1[C@H]2C[C@@](C)(C#C)[C@@H]12	
InChI=1S/C9H12/c1-4-9(3)5-7-6(2)8(7)9/h1,6-8H,5H2,2-3H3	InChI=1S/C9H12/c1-4-9(3)5-7-6(2)8(7)9/h1,6-8H,5H2,2-3H3/t6-,7+,8-,9+/m0/s1
