23
gdb 107916	3.58839	1.11108	1.04154	0.2632	89.71	-0.2381	0.0915	0.3295	1309.2162	0.205998	-351.117533	-351.108711	-351.107767	-351.150759	34.881	
C	 0.0173476959	 1.4843968271	-0.2611983962	-0.372574
C	-0.0791928363	 0.0048077887	 0.1358266114	-0.303138
C	-1.4887455101	-0.5158826979	 0.1276616369	 0.362701
C	-2.6197211261	-0.1583227654	 1.0981986416	-0.295732
C	-3.3699372254	-1.3846846127	 0.5163233293	-0.06537
C	-1.9728297301	-1.9445354683	 0.0229147203	-0.148345
C	-2.1657908305	-1.022309436	-1.1612673179	-0.101288
C	-3.6815115666	-0.9751244615	-0.9544012941	 0.020574
C	-4.4471166049	-2.0284514419	-1.7456653195	-0.407233
H	 1.0531937147	 1.8363521362	-0.2308202509	 0.108318
H	-0.3659888387	 1.6449305678	-1.2741772115	 0.116945
H	-0.5686736981	 2.1131696902	 0.417455855	 0.117944
H	 0.5327665817	-0.6001158777	-0.5461513683	 0.094158
H	 0.3536225315	-0.1337390678	 1.1358915451	 0.094557
H	-2.3070328352	-0.3217738515	 2.1347161446	 0.090152
H	-3.1123179273	 0.8187485437	 1.0142445843	 0.082465
H	-4.1096957608	-1.9247794512	 1.1056671034	 0.062854
H	-1.4577444047	-2.8882084307	 0.1332852321	 0.082221
H	-1.6232007945	-1.0320343323	-2.0999848544	 0.074064
H	-4.1634990255	 0.0056519169	-1.0688975836	 0.054564
H	-3.9907886555	-3.0174127601	-1.6262990301	 0.114601
H	-5.4882233942	-2.0925396864	-1.409923022	 0.108255
H	-4.4571688292	-1.7928944492	-2.8157232156	 0.109305
79.5665	132.9025	186.5237	228.3933	246.6402	262.7982	341.9374	372.4488	458.7634	471.3355	626.9209	745.9344	760.857	782.1001	798.3855	831.388	855.8214	906.6803	924.355	934.3214	966.3178	985.9226	1004.9077	1020.3287	1041.3787	1069.4279	1080.5505	1092.7294	1119.2965	1135.6995	1153.4928	1180.6387	1194.2488	1233.2558	1253.4376	1274.577	1283.1659	1328.979	1348.6004	1376.8367	1406.5846	1409.4061	1424.2519	1481.0181	1494.9866	1497.4839	1499.3114	1502.3767	1507.4194	3002.0706	3009.3422	3018.5718	3024.149	3033.4596	3041.3054	3078.1105	3088.5223	3095.1213	3102.0886	3104.9312	3122.2154	3174.0843	3214.0465
CCC12CC3C1C2C3C	CC[C@]12C[C@@H]3[C@H]1[C@H]2[C@H]3C	
InChI=1S/C9H14/c1-3-9-4-6-5(2)7(9)8(6)9/h5-8H,3-4H2,1-2H3	InChI=1S/C9H14/c1-3-9-4-6-5(2)7(9)8(6)9/h5-8H,3-4H2,1-2H3/t5-,6-,7+,8-,9+/m0/s1
