21
gdb 54092	2.65666	1.43837	1.31371	2.5645	82.44	-0.2341	-0.0087	0.2255	1105.8262	0.181277	-387.057157	-387.04812	-387.047175	-387.090904	34.459	
C	 0.0824453408	 1.1746239869	 0.3685859191	-0.482593
C	-0.3895719335	-0.237180492	 0.0611679707	 0.304406
O	-1.0167631619	-0.8890386944	 0.8656885642	-0.313889
C	-0.0858670078	-0.7877182456	-1.3348049489	 0.294035
C	-1.2489410523	-0.3596287582	-2.2375314666	-0.494687
C	 1.4017641821	-0.7041256038	-1.8432727098	-0.096981
C	 1.7596475413	-1.7374855703	-0.7316046455	-0.232386
C	 0.4437462007	-2.2627540851	-1.3821850273	-0.065602
C	 1.1083304173	-1.9338828513	-2.7517857868	-0.245093
H	 1.1764055291	 1.1873570541	 0.4380492182	 0.143583
H	-0.1893871351	 1.8689725805	-0.4331153407	 0.135104
H	-0.3433186255	 1.5107631064	 1.3149904738	 0.139215
H	-1.3496778934	 0.7312766649	-2.2606656343	 0.11886
H	-1.1357174618	-0.696758491	-3.2688304468	 0.124746
H	-2.1877544864	-0.7677787367	-1.8494277432	 0.139165
H	 1.9568382521	 0.1964693581	-2.1137393547	 0.067959
H	 2.6559518162	-2.3367925593	-0.9083912655	 0.0901
H	 1.7074532327	-1.4118571521	 0.3093676617	 0.105046
H	-0.1132872878	-3.1584553899	-1.1086766715	 0.08176
H	 0.4666481954	-1.7955141228	-3.6213683541	 0.093649
H	 1.9782684576	-2.5426252484	-3.0112067019	 0.093606
63.7859	122.4681	162.7346	164.3579	204.0739	269.4061	320.5805	401.4026	475.433	532.0555	579.3499	620.6268	644.94	781.6837	800.7847	862.5303	876.7881	898.9776	900.5723	967.1411	1005.5778	1011.1464	1014.3892	1024.3111	1071.7213	1092.5701	1110.396	1127.7779	1135.6513	1181.578	1183.8497	1192.9897	1237.2604	1246.778	1259.177	1295.5209	1380.2746	1406.406	1461.8173	1474.7484	1489.6756	1493.0714	1518.5075	1549.7154	1800.2452	3036.8694	3039.8057	3061.3849	3068.229	3091.4389	3095.7635	3100.2522	3120.1717	3123.599	3127.7508	3142.1754	3149.2839
CC(=O)C1(C)C2CC1C2	CC(=O)[C@@]1(C)[C@H]2C[C@@H]1C2	
InChI=1S/C8H12O/c1-5(9)8(2)6-3-7(8)4-6/h6-7H,3-4H2,1-2H3	InChI=1S/C8H12O/c1-5(9)8(2)6-3-7(8)4-6/h6-7H,3-4H2,1-2H3/t6-,7+,8-
