17
gdb 68341	2.93554	1.52008	1.18376	4.851	80.2	-0.2467	-0.0522	0.1945	1054.0868	0.137332	-380.842952	-380.835317	-380.834373	-380.874925	29.877	
C	-0.0166305495	 1.5429962004	 0.0713416027	-0.515509
C	 0.0177288568	 0.0404140898	 0.0038801409	 0.202812
C	 0.6106911376	-0.793365727	-1.185043672	-0.254062
C	 0.6443924596	-1.8550961012	-0.0402911185	-0.05987
N	 0.9336133027	-0.7338594218	 0.9512631676	-0.337791
C	-0.8478922842	-2.0368352639	 0.2305847149	-0.169756
C	-1.2827447746	-0.7687811496	 0.2627146764	 0.275953
C	-2.5673654521	-0.2318394323	 0.475953602	 0.168313
N	-3.6087607893	 0.2512303672	 0.6397343531	-0.357191
H	 0.964933253	 1.9672222489	-0.1607171884	 0.119856
H	-0.7396711088	 1.9473988015	-0.6437031169	 0.140998
H	-0.3074069593	 1.8748879715	 1.0726023364	 0.147786
H	-0.0110672148	-0.9793647453	-2.0657272698	 0.106045
H	 1.6094337735	-0.4515217935	-1.4762807073	 0.100035
H	 1.2914906368	-2.7299208799	-0.0401897853	 0.083467
H	 1.8883610429	-0.4101051497	 0.7660517105	 0.210491
H	-1.3903467104	-2.9603337052	 0.3649778238	 0.138422
122.6523	136.0833	194.8141	295.0089	308.9723	447.3447	480.1284	499.8005	542.9127	608.1439	657.474	669.3364	766.1338	819.4243	825.0697	875.4582	898.2706	914.3556	938.7231	1023.8239	1037.3216	1088.5963	1114.0917	1117.7475	1193.0246	1213.8872	1220.6917	1244.8789	1267.1671	1317.5585	1357.1548	1418.8079	1484.4714	1491.2357	1500.5243	1649.8136	2331.4842	3039.0415	3041.9216	3105.6839	3112.5438	3116.5793	3144.1506	3253.9834	3395.4298
CC12CC(N1)C=C2C#N	C[C@@]12C[C@@H](N1)C=C2C#N	
InChI=1S/C7H8N2/c1-7-3-6(9-7)2-5(7)4-8/h2,6,9H,3H2,1H3	InChI=1S/C7H8N2/c1-7-3-6(9-7)2-5(7)4-8/h2,6,9H,3H2,1H3/t6-,7-/m0/s1
