18
gdb 75590	2.44314	1.63556	1.03958	2.7685	76.51	-0.2218	-0.022	0.1998	1137.1896	0.150797	-435.311437	-435.303171	-435.302227	-435.344473	31.837	
N	 0.0315079039	 1.3330733891	 0.4647199359	-0.507067
C	-0.0401650822	 0.0027499372	 0.1246008375	 0.252202
N	-1.1816872468	-0.5542757747	 0.0280992643	-0.317562
C	-1.5058324048	-1.9274665293	-0.2496013796	-0.140512
C	-0.432290281	-2.8921318356	-0.7614317642	-0.217448
C	 0.7777300479	-2.9753623274	 0.1656182698	-0.15608
N	 1.6765212578	-1.8425655783	 0.0093266903	-0.321646
C	 1.4031091646	-0.5177168224	-0.0643266979	 0.364372
O	 2.2985372505	 0.2951679199	-0.2556397675	-0.386616
H	 0.8949417482	 1.790493761	 0.2133488472	 0.268972
H	-0.8290887909	 1.8481874817	 0.37406799	 0.249238
H	-1.9390983538	-2.3522010243	 0.6700316445	 0.106572
H	-2.334779459	-1.9219324625	-0.9707804316	 0.108303
H	-0.8882621352	-3.8855815127	-0.8483988675	 0.102024
H	-0.0920909309	-2.6038353527	-1.762988285	 0.109561
H	 0.4466563312	-3.0726960432	 1.2092678926	 0.119674
H	 1.3689985349	-3.8662925799	-0.0624938394	 0.114884
H	 2.6602081756	-2.0333176762	-0.1135987894	 0.251129
56.4274	123.4166	212.7093	298.6685	342.6302	370.3785	396.31	420.0254	508.2346	530.1289	573.6958	581.0425	617.7888	661.7473	698.8405	812.0389	831.798	883.7555	920.8948	999.0838	1048.8967	1109.2755	1134.9652	1212.7192	1237.8119	1272.9702	1311.4138	1315.9112	1366.6359	1383.4897	1404.1346	1428.6256	1469.2654	1477.8847	1487.563	1516.3054	1579.2601	1738.6603	1760.2535	2979.2541	3006.9468	3015.3313	3033.9684	3076.7721	3087.4796	3575.8086	3612.4137	3708.6631
NC1=NCCCNC1=O	NC1=NCCCNC1=O	
InChI=1S/C5H9N3O/c6-4-5(9)8-3-1-2-7-4/h1-3H2,(H2,6,7)(H,8,9)	InChI=1S/C5H9N3O/c6-4-5(9)8-3-1-2-7-4/h1-3H2,(H2,6,7)(H,8,9)
