20
gdb 22413	4.36178	0.84588	0.79979	0.9826	84.63	-0.2398	0.0071	0.2469	1492.197	0.168902	-403.086187	-403.076885	-403.075941	-403.120577	35.188	
C	 0.2131747308	 1.5316289985	-0.3182399485	-0.406097
C	 0.1426770911	 0.0343142354	-0.1189314101	-0.050249
C	 1.4090136301	-0.7857413856	 0.0090691129	-0.3525
C	 0.5086245986	-0.5947686068	 1.1950118022	 0.355468
C	 0.8527236956	 0.1321334377	 2.5168009698	-0.395256
C	 0.07522067	-0.9619420229	 3.225587037	 0.421696
C	-0.273473577	-1.6952510572	 1.9430168269	-0.397688
N	-0.1526507757	-1.1277265967	 4.4590287063	-0.232908
O	-0.9247109361	-2.2872439707	 4.6741564512	-0.395126
H	 1.0545262235	 1.9660590612	 0.2317378958	 0.11708
H	 0.3467458912	 1.7825879006	-1.3761998728	 0.119336
H	-0.7008201206	 2.0273439106	 0.028434962	 0.117645
H	-0.6753893612	-0.4514156065	-0.6475522768	 0.083544
H	 1.4450467114	-1.7661966548	-0.4558560235	 0.110543
H	 2.3564032637	-0.2535839378	 0.000626028	 0.108993
H	 1.9170580836	 0.1745503616	 2.7701073002	 0.120648
H	 0.4308150448	 1.1366295786	 2.6283050739	 0.12145
H	-1.3469095279	-1.7517014827	 1.7318550057	 0.123447
H	 0.1417376854	-2.7067878985	 1.8781804542	 0.124646
H	-1.0212468614	-2.2893917039	 5.6324324858	 0.305327
36.2776	144.7772	176.0824	200.204	216.9745	265.5756	332.9387	370.1399	408.068	435.6	468.6124	473.3705	607.8227	747.0863	770.8188	813.0702	861.0549	889.6306	913.7868	930.1306	969.7386	996.3078	1040.7223	1065.5109	1078.831	1104.5632	1126.6458	1158.4864	1181.3775	1192.0251	1214.8484	1229.7226	1244.1503	1331.4802	1400.6965	1408.181	1427.3437	1452.0897	1470.1105	1487.7409	1492.3569	1504.8791	1787.7047	3025.819	3038.0038	3042.7089	3082.3537	3084.7534	3087.4026	3094.0853	3114.4986	3125.2833	3199.2558	3817.8835
CC1CC11CC(C1)=NO	C[C@H]1C[C@]21CC(=NO)C2	
InChI=1S/C7H11NO/c1-5-2-7(5)3-6(4-7)8-9/h5,9H,2-4H2,1H3	InChI=1S/C7H11NO/c1-5-2-7(5)3-6(4-7)8-9/h5,9H,2-4H2,1H3/t5-,7-/m0/s1
