15
gdb 72060	2.51792	1.65958	1.29608	4.3355	71.58	-0.2357	0.0088	0.2445	986.7762	0.113678	-416.741443	-416.734063	-416.733119	-416.773244	28.521	
O	-0.1570907225	 1.2920730929	-0.1352548324	-0.44683
C	 0.0393908274	-0.0610290234	-0.0765142243	 0.338264
C	 0.9689677469	-0.9213089698	-0.9330765007	-0.269674
C	 0.1306240243	-2.1124000254	-0.4087843601	-0.110924
N	 0.491381241	-2.1372736056	 1.0535336483	-0.31471
C	-0.2941518938	-0.8955986822	 1.1573597721	-0.163257
C	-1.0789618828	-1.1086883524	-0.1367881058	 0.224625
C	-2.4419279668	-1.0445443677	-0.4887151567	 0.119115
N	-3.5640058157	-1.0162255228	-0.7787715668	-0.368307
H	 0.4202573064	 1.7228792624	 0.5054157474	 0.299397
H	 0.8008450291	-0.7350725916	-1.995743169	 0.124558
H	 2.0357557324	-0.9441249945	-0.69505792	 0.111401
H	 0.0729934217	-3.0597622132	-0.9366279768	 0.105485
H	-0.0539706217	-2.8785821116	 1.4931682319	 0.229148
H	-0.6299272057	-0.4534319052	 2.0867149028	 0.121707
116.0486	148.7106	212.9878	316.2715	352.492	428.6722	467.4073	515.5566	559.3772	623.6244	640.07	722.8647	784.3775	831.376	906.4245	921.2421	951.0256	997.0675	1008.8727	1032.9247	1066.9765	1121.1392	1150.0995	1178.7095	1183.1564	1240.749	1278.7002	1313.7392	1337.3244	1379.1984	1448.8416	1499.0054	2332.6165	3064.1077	3132.8707	3170.3827	3209.4888	3458.4873	3796.0865
OC12CC3NC1C23C#N	O[C@@]12C[C@H]3N[C@@H]1[C@@]23C#N	
InChI=1S/C6H6N2O/c7-2-5-3-1-6(5,9)4(5)8-3/h3-4,8-9H,1H2	InChI=1S/C6H6N2O/c7-2-5-3-1-6(5,9)4(5)8-3/h3-4,8-9H,1H2/t3-,4-,5+,6+/m1/s1
