19
gdb 107543	1.94822	1.63435	1.04588	3.1767	76.12	-0.2396	-0.0243	0.2153	1192.8794	0.157099	-423.003917	-422.994819	-422.993874	-423.038463	33.107	
C	-0.0171909418	 1.5152829407	 0.2674534905	-0.389604
C	 0.0231262677	 0.023621778	-0.094646996	-0.302377
C	-1.3418585791	-0.583993286	-0.1787806847	 0.410629
O	-2.0554978842	-0.84578526	 1.03984542	-0.287512
C	-1.8820155375	-1.9239111383	 0.1083577817	-0.051132
C	-2.9827293028	-1.7807097645	-0.9470583179	-0.275905
C	-2.4263525412	-0.3420548702	-1.2751588842	-0.151213
C	-3.3428647503	 0.8281085408	-1.041080351	 0.160357
O	-3.567689526	 1.6915256388	-1.8535850761	-0.265165
H	 0.9940927368	 1.9275808262	 0.3228094686	 0.118917
H	-0.5728915997	 2.0914611653	-0.4793679778	 0.135572
H	-0.5000413898	 1.6642763165	 1.2376137679	 0.135561
H	 0.529997101	-0.115621954	-1.0574211465	 0.108742
H	 0.5981212571	-0.5314487519	 0.6549778775	 0.115311
H	-1.3979354237	-2.8195932494	 0.4804900507	 0.109626
H	-2.8758975528	-2.4554719641	-1.7985509627	 0.120041
H	-4.0035882861	-1.8374317455	-0.5604844972	 0.119663
H	-2.0030111556	-0.278156816	-2.279636528	 0.095622
H	-3.807773322	 0.8468698836	-0.0321157849	 0.092866
53.536	80.6842	129.6801	173.1445	211.1889	277.2638	311.6194	357.5649	438.0147	479.569	535.4376	654.5629	735.6326	783.9245	828.8638	871.6019	920.2111	923.0895	961.8614	998.2152	1008.7902	1063.4819	1069.6126	1099.9542	1114.5473	1173.5044	1183.5829	1205.2241	1251.1555	1263.6573	1295.6467	1309.1928	1352.0292	1409.7165	1418.9687	1457.9628	1471.5526	1482.554	1499.5636	1510.7443	1817.3586	2908.3033	3032.2284	3042.0801	3068.5026	3073.111	3099.2712	3113.5655	3119.8917	3129.7236	3187.4297
CCC12OC1CC2C=O	CC[C@]12O[C@H]1C[C@H]2C=O	
InChI=1S/C7H10O2/c1-2-7-5(4-8)3-6(7)9-7/h4-6H,2-3H2,1H3	InChI=1S/C7H10O2/c1-2-7-5(4-8)3-6(7)9-7/h4-6H,2-3H2,1H3/t5-,6-,7+/m0/s1
