20
gdb 82076	2.4466	1.52043	1.1308	3.2888	78.79	-0.2251	-0.0049	0.2202	1147.5764	0.169631	-403.120703	-403.111555	-403.110611	-403.154948	34.121	
C	-0.3312024967	 1.4551442934	 0.0459528474	-0.412881
C	 0.0003954016	-0.0307439291	 0.0543582038	-0.00342
C	 0.6397491565	-0.6082367443	-1.2184672128	-0.055069
N	 1.952218144	 0.0622835111	-1.3561419573	-0.326199
C	 1.8191209413	-1.1191043517	-0.4721126549	-0.049239
C	 1.2657062603	-0.6010004887	 0.8516357751	-0.138525
C	 2.1986429075	 0.2512970389	 1.6990724461	 0.38923
C	 1.5790447899	 1.0638971921	 2.8235581781	-0.481115
O	 3.3935857546	 0.2334239007	 1.5144449221	-0.29957
H	 0.5444411527	 2.0461651205	-0.2337249251	 0.144006
H	-1.1214553504	 1.6557876868	-0.6865796461	 0.113016
H	-0.6961424428	 1.7979381316	 1.0190861152	 0.111475
H	-0.8818908907	-0.6131320895	 0.335656508	 0.075535
H	 0.1258941513	-1.0181700879	-2.0794812298	 0.09134
H	 2.3737488264	-0.2603237177	-2.2260427242	 0.230294
H	 2.4195646306	-2.0043682656	-0.6343017803	 0.098282
H	 0.9215780364	-1.4208214098	 1.494628206	 0.098469
H	 0.7753657545	 0.514583507	 3.3247784831	 0.123692
H	 2.3519753851	 1.3428751718	 3.5414872255	 0.139747
H	 1.1368582678	 1.9772540804	 2.4115560702	 0.150933
53.2143	100.0618	132.1702	176.8905	232.0431	267.8629	278.7366	389.8436	438.6252	504.798	574.497	627.2166	682.2362	738.2693	819.2323	841.3864	871.5231	906.8844	937.6298	949.6665	1008.0944	1012.0807	1032.0479	1060.4456	1093.7288	1107.0606	1112.6894	1139.2034	1173.7129	1198.986	1250.2138	1267.9671	1321.4245	1355.6731	1368.902	1381.8485	1384.1627	1407.9915	1462.8831	1473.7637	1497.9897	1505.7356	1805.0725	3031.2386	3034.1369	3041.0394	3063.266	3093.8037	3106.0116	3126.7007	3146.5559	3184.6106	3205.0243	3482.5994
CC1C2NC2C1C(C)=O	C[C@H]1[C@H]2N[C@H]2[C@H]1C(=O)C	
InChI=1S/C7H11NO/c1-3-5(4(2)9)7-6(3)8-7/h3,5-8H,1-2H3	InChI=1S/C7H11NO/c1-3-5(4(2)9)7-6(3)8-7/h3,5-8H,1-2H3/t3-,5-,6-,7+/m1/s1
