21
gdb 115835	4.27875	0.89558	0.81236	1.6813	78.68	-0.2545	0.0732	0.3277	1444.1675	0.182617	-424.216509	-424.207522	-424.206578	-424.251022	34.004	
O	-0.0843979761	 1.4445393861	-0.0822724445	-0.424334
C	 0.0099494641	 0.0324330283	 0.0404414232	-0.098018
C	-1.3948501682	-0.5425975149	-0.0339486324	 0.047028
C	-2.1205932789	-0.2865075635	-1.3712298215	-0.212643
C	-3.2727213722	-1.3033016828	-1.3482781208	-0.294321
C	-2.6530179987	-2.5359821113	-0.6946851789	 0.449978
C	-3.3949033375	-3.7743901117	-0.4422344278	-0.25619
O	-2.4616236672	-3.6930014517	-1.5228389413	-0.27431
C	-1.4406132988	-2.0794178069	 0.1266023904	-0.326609
H	 0.8044133119	 1.8101720262	-0.0557213039	 0.286851
H	 0.6222883367	-0.3989555774	-0.7695577014	 0.084516
H	 0.4820166245	-0.2527788363	 0.9949895542	 0.083877
H	-1.9839257408	-0.0798452365	 0.7688930546	 0.079513
H	-2.446951829	 0.7490392356	-1.4810389441	 0.110053
H	-1.4412715385	-0.5098424919	-2.2044938529	 0.099744
H	-4.0921546967	-0.9254489845	-0.7235967581	 0.101466
H	-3.6838051195	-1.543694312	-2.3315704899	 0.110433
H	-3.1016506623	-4.4244636359	 0.3823263779	 0.106877
H	-4.4433233426	-3.8484799231	-0.7330282713	 0.107324
H	-0.5462332367	-2.5447791037	-0.3046857171	 0.115147
H	-1.4965365635	-2.3923451721	 1.1731039158	 0.103618
28.3356	117.8684	154.0546	202.5423	267.8562	303.4781	345.8482	391.226	413.6748	425.0965	531.6243	586.6316	726.0457	803.2447	823.1201	869.3175	910.0442	919.7505	957.2975	981.5646	992.0677	1042.7936	1065.4004	1079.3266	1104.2089	1129.7606	1160.6462	1182.2936	1193.0375	1219.4506	1236.6723	1257.7093	1275.8594	1286.4841	1310.4329	1326.9062	1342.2949	1384.7609	1421.8925	1462.6079	1476.7326	1480.4814	1499.9319	1520.3802	1532.9593	2954.1366	2981.7057	3018.5075	3025.8545	3034.7038	3040.5476	3068.4215	3087.7606	3104.7621	3116.529	3151.0787	3831.9966
OCC1CCC2(CO2)C1	OC[C@H]1CC[C@]2(CO2)C1	
InChI=1S/C7H12O2/c8-4-6-1-2-7(3-6)5-9-7/h6,8H,1-5H2	InChI=1S/C7H12O2/c8-4-6-1-2-7(3-6)5-9-7/h6,8H,1-5H2/t6-,7+/m0/s1
