21
gdb 65105	3.09825	1.3118	1.15778	1.2687	82.55	-0.2387	0.0785	0.3172	1160.9718	0.182498	-387.045141	-387.036652	-387.035708	-387.078064	34.047	
O	 0.1950388718	 1.1723127007	 0.7201392962	-0.462948
C	 0.109555821	-0.1058999183	 0.1294656713	 0.282682
C	 1.0934434028	-0.3959823924	-0.9805550986	-0.335525
C	 1.3121993314	-0.9588498776	 0.4094381382	-0.292708
C	-1.2618454833	-0.6816562926	 0.1579579786	 0.336526
C	-1.8357892559	-1.6293626573	-0.8549138246	-0.335093
C	-2.5161125225	-0.3012197148	-0.6563437532	-0.115319
C	-3.3791196465	-0.3352439981	 0.6080543866	-0.220648
C	-2.115523353	-0.7325720058	 1.4397168448	-0.288652
H	-0.359119314	 1.7628400661	 0.1967563358	 0.276824
H	 0.8266820373	-1.0790653221	-1.7784916472	 0.110005
H	 1.7236579082	 0.4338684645	-1.2796508859	 0.114154
H	 2.0921109496	-0.5130336751	 1.0157227555	 0.122297
H	 1.1576429305	-2.0209917649	 0.561292024	 0.11481
H	-1.2848928657	-1.726531741	-1.7841433629	 0.111443
H	-2.3197483209	-2.547930714	-0.5274228159	 0.101145
H	-2.6119079993	 0.4023915889	-1.4759414736	 0.080077
H	-3.7713697937	 0.6436757161	 0.893288665	 0.100157
H	-4.2084168286	-1.0506236887	 0.597688938	 0.094676
H	-2.1436735169	-1.6974976039	 1.9565640141	 0.090075
H	-1.8255421123	 0.0427845003	 2.150410964	 0.11602
64.3169	141.6006	204.718	263.1473	306.602	336.9294	354.8621	428.0852	469.6868	513.832	558.6866	705.9931	774.9259	788.8437	817.6262	847.8133	888.7573	917.135	924.3045	933.0506	949.9861	970.7364	986.4126	1021.2247	1025.9301	1053.0205	1079.2946	1090.3909	1104.729	1141.2934	1183.285	1193.3303	1222.4365	1228.3203	1243.9129	1249.4106	1285.0892	1306.696	1365.7981	1432.31	1449.6779	1481.075	1485.491	1496.1505	1513.353	3041.4477	3050.5644	3096.9154	3100.0748	3125.0294	3136.7733	3140.6616	3168.4545	3201.7777	3221.8242	3236.1343	3787.4739
OC1(CC1)C12CC1CC2	OC1(CC1)[C@]12C[C@H]1CC2	
InChI=1S/C8H12O/c9-8(3-4-8)7-2-1-6(7)5-7/h6,9H,1-5H2	InChI=1S/C8H12O/c9-8(3-4-8)7-2-1-6(7)5-7/h6,9H,1-5H2/t6-,7-/m1/s1
