17
gdb 66021	2.35321	1.33478	1.12239	3.1362	79.21	-0.2544	0.0063	0.2607	1152.2944	0.134961	-380.826234	-380.817228	-380.816284	-380.859785	33.461	
C	-0.1106642133	 1.5794651133	-0.0511896048	-0.443359
C	-0.0582549663	 0.0502051285	-0.0065589666	 0.137462
C	 1.1105145051	-0.5577869873	-0.8460047509	-0.205496
N	 1.9381621487	-0.5838715936	 0.3780354096	-0.307399
C	 0.7297462128	-0.5358278616	 1.2375881926	-0.222464
C	 0.8229109219	 0.2531192852	 2.4514689768	 0.355958
C	 0.8833616419	 0.9002778777	 3.4625125089	-0.423695
C	-1.3702353132	-0.5395919389	-0.2287171472	 0.236723
N	-2.4098720664	-1.0134838409	-0.4068341906	-0.34114
H	 0.8914169054	 1.9826914572	 0.1098054942	 0.14898
H	-0.4793872745	 1.9166031915	-1.0238709254	 0.133063
H	-0.7715269921	 1.9692910061	 0.7265194251	 0.144664
H	 0.8522411831	-1.5427628335	-1.2548447732	 0.11613
H	 1.5026782809	 0.0766365667	-1.6464089494	 0.120837
H	 2.51751197	-1.4062973129	 0.504709591	 0.231575
H	 0.3257574732	-1.5295433433	 1.4783387097	 0.112999
H	 0.9432496527	 1.4716969358	 4.3560739001	 0.205162
87.4973	133.2017	154.271	198.6289	232.8418	252.8586	320.8981	351.3613	457.3363	517.3358	561.0508	580.3024	600.0594	638.6064	668.1476	710.1129	875.5712	903.9555	929.4874	957.4408	1002.144	1030.5119	1080.4555	1138.0641	1143.9193	1182.1443	1226.9822	1264.6835	1332.1312	1361.642	1387.9233	1411.6912	1489.565	1491.9886	1519.348	2236.9228	2352.29	2996.71	3020.1167	3051.9899	3082.7433	3128.1208	3140.8306	3500.5597	3536.5438
CC1(CNC1C#C)C#N	C[C@]1(CN[C@H]1C#C)C#N	
InChI=1S/C7H8N2/c1-3-6-7(2,4-8)5-9-6/h1,6,9H,5H2,2H3	InChI=1S/C7H8N2/c1-3-6-7(2,4-8)5-9-6/h1,6,9H,5H2,2H3/t6-,7+/m0/s1
