17
gdb 87940	3.50845	1.15974	1.04436	4.4835	69.11	-0.259	0.0153	0.2743	1166.1948	0.135644	-458.990869	-458.982785	-458.981841	-459.023679	30.803	
O	-0.2708981488	 1.3190082254	-0.3810121204	-0.418372
C	-0.1647328578	-0.0589004434	-0.1880852392	 0.027554
C	-0.2525810048	-0.6427537648	 1.214109969	-0.397655
C	-1.4020364116	-0.7735091454	 0.2633572856	 0.422065
C	-2.7487759192	-0.0869762047	 0.4136845128	-0.308348
C	-3.5779615052	-0.796282658	-0.6642980545	-0.358796
C	-2.8687481672	-2.1331919695	-0.8580972152	 0.413554
O	-3.2609094478	-3.1188625573	-1.4079757939	-0.331015
O	-1.6265318946	-2.0641190396	-0.2895680499	-0.25273
H	 0.5332243809	 1.7328606398	-0.0499706961	 0.294431
H	 0.4646839748	-0.5915735183	-0.9002442518	 0.107547
H	 0.3313916589	-1.5306825217	 1.4289363554	 0.134511
H	-0.3761311827	 0.0502685098	 2.0405257783	 0.122958
H	-3.1642765201	-0.2752207888	 1.4088958962	 0.11755
H	-2.661366501	 0.9902350167	 0.2715639987	 0.138897
H	-4.6256752791	-0.9593800106	-0.4096027335	 0.139808
H	-3.5490884146	-0.2643951994	-1.6217574214	 0.14804
85.2985	116.9816	216.2083	219.6025	282.3421	357.83	448.4178	476.2536	516.5717	525.537	559.2521	679.0735	769.1769	809.7082	826.3965	892.2985	924.3357	957.8205	993.7911	1013.0921	1037.1304	1074.9029	1090.9931	1157.4902	1170.0872	1174.7687	1198.9903	1270.2286	1296.1175	1296.3101	1320.1244	1359.8335	1416.9328	1463.2856	1492.7767	1500.5203	1889.8613	3055.2946	3061.8278	3113.6181	3129.7956	3130.7461	3137.8262	3227.0821	3804.3667
OC1CC11CCC(=O)O1	O[C@H]1C[C@]21CCC(=O)O2	
InChI=1S/C6H8O3/c7-4-3-6(4)2-1-5(8)9-6/h4,7H,1-3H2	InChI=1S/C6H8O3/c7-4-3-6(4)2-1-5(8)9-6/h4,7H,1-3H2/t4-,6-/m0/s1
