17
gdb 22956	2.78069	0.89124	0.71203	0.8034	82.49	-0.2346	0.001	0.2356	1586.3564	0.133867	-417.9062	-417.896432	-417.895488	-417.942572	33.909	
C	 0.0532119332	 1.5242271542	-0.2867320058	-0.499719
C	 0.0109695076	 0.0822897338	-0.0971150518	 0.089204
C	-0.0322862131	-1.1093476894	 0.0671302856	 0.130251
C	-0.0795521488	-2.549315827	 0.2483144767	-0.292065
N	-0.0567570561	-3.0432509195	 1.6705177381	-0.30928
C	-1.2025003949	-3.9668159251	 1.4277134128	-0.263373
C	-1.4081671436	-3.286144679	 0.0954856858	 0.4174
N	-2.281942851	-3.2376572551	-0.8124918177	-0.230292
O	-3.3575788163	-4.0947941715	-0.5221176275	-0.389613
H	 0.9640149704	 1.8336400224	-0.8110731826	 0.147249
H	-0.8037138486	 1.8698626453	-0.8753701377	 0.151797
H	 0.027581438	 2.0489155797	 0.6746532737	 0.151718
H	 0.689530305	-3.0252515194	-0.3804270608	 0.108851
H	 0.8093546058	-3.5109243018	 1.9132136768	 0.223744
H	-0.9487234128	-5.0315971043	 1.3304633771	 0.118146
H	-2.017644142	-3.8692277188	 2.1523909165	 0.136195
H	-3.946729173	-3.9409388145	-1.2686276393	 0.309788
27.2191	65.8961	85.1501	141.4261	198.6786	224.1822	296.6699	337.7567	373.2193	427.703	479.4731	487.1418	587.8502	679.3765	765.4659	809.4543	926.6595	960.5272	979.7575	1002.4936	1042.8954	1051.4808	1055.1303	1108.8774	1150.7243	1198.7563	1216.5661	1299.0335	1344.3734	1377.0012	1408.5608	1413.5726	1476.7384	1478.1944	1492.7961	1807.3539	2373.8329	2971.6788	3008.9192	3027.8304	3067.2645	3088.8944	3090.2076	3537.7709	3816.2498
CC#CC1NCC1=NO	CC#C[C@H]1NCC1=NO	
InChI=1S/C6H8N2O/c1-2-3-5-6(8-9)4-7-5/h5,7,9H,4H2,1H3	InChI=1S/C6H8N2O/c1-2-3-5-6(8-9)4-7-5/h5,7,9H,4H2,1H3/t5-/m1/s1
