19
gdb 69671	3.24714	1.26985	1.16783	1.0258	86.1	-0.2091	0.0425	0.2516	1145.2873	0.157746	-348.646911	-348.638568	-348.637623	-348.679335	33.468	
C	 0.1000236877	 1.5954269817	 0.0321898621	-0.490857
C	 0.0286870633	 0.0971059118	 0.0621403393	 0.351388
C	-0.8769104434	-0.6888714883	 0.9683362424	-0.36495
C	 0.6153447748	-0.8927931266	 1.0608566922	-0.108827
C	 1.2362224212	-1.7076049745	-0.1022818557	-0.086743
C	 0.2895128279	-2.2236097625	-1.1728946673	-0.194552
C	-0.976493744	-2.8970889262	-1.0517697575	 0.283528
C	-1.9964103194	-3.5367130256	-1.0451326152	-0.419895
C	 0.6325138245	-0.7435567443	-1.1050616167	-0.148741
H	 1.0965371732	 1.9452960997	-0.2634751638	 0.115275
H	-0.6217426846	 2.0150311624	-0.6801868059	 0.120539
H	-0.123147425	 2.0171516646	 1.0174677166	 0.117564
H	-1.278032135	-0.0997399863	 1.7895762523	 0.104756
H	-1.5474905171	-1.4576197045	 0.6119994062	 0.140148
H	 1.1691740424	-0.6835058406	 1.967445276	 0.086855
H	 2.2521485486	-2.0809363246	-0.0609949136	 0.092754
H	 0.8801640856	-2.6770423494	-1.9702240502	 0.120289
H	-2.9087056255	-4.0785378445	-1.0093685578	 0.19135
H	 1.1135690547	-0.2661980223	-1.9509057734	 0.090117
94.9358	167.4702	212.0107	243.8497	278.4828	356.2099	366.39	435.4792	575.0304	591.7813	612.7774	634.0014	644.9104	700.3457	732.0495	774.959	833.4666	889.1474	907.3357	933.2575	950.5032	968.3963	987.0149	1011.6555	1040.0925	1067.3214	1085.6231	1102.3826	1127.2079	1192.366	1222.4298	1259.443	1293.5909	1321.0856	1386.8838	1412.9176	1431.2317	1483.2746	1497.3538	1502.5581	2224.4414	3014.3529	3068.7468	3096.0687	3096.7326	3128.6576	3171.5534	3181.7072	3191.5942	3238.2862	3503.242
CC12CC1C1C(C#C)C21	C[C@]12C[C@H]1[C@H]1[C@@H](C#C)[C@@H]21	
InChI=1S/C9H10/c1-3-5-7-6-4-9(6,2)8(5)7/h1,5-8H,4H2,2H3	InChI=1S/C9H10/c1-3-5-7-6-4-9(6,2)8(5)7/h1,5-8H,4H2,2H3/t5-,6+,7-,8-,9+/m1/s1
