13
gdb 28402	3.18643	1.42925	0.9878	10.3493	71.7	-0.1755	-0.0293	0.1461	1089.3368	0.088424	-489.90663	-489.898524	-489.89758	-489.939316	30.079	
N	 0.0631252563	 1.3923740024	 0.1265924041	-0.575739
C	 0.0050647262	 0.0241256179	 0.0334749043	 0.511015
N	-1.120460344	-0.6482161653	 0.0217971042	-0.286708
H	-1.9849416562	-0.1302674805	 0.0823216005	 0.28119
C	-1.2003925752	-2.0488530904	-0.026194112	-0.252617
C	-0.0655085384	-2.8643424659	-0.0197179422	 0.228828
O	-0.012143224	-4.0953955807	-0.0591880747	-0.410203
C	 1.2575829355	-2.1133552732	 0.0441382283	 0.324794
O	 2.3665349227	-2.5082874803	 0.0871939028	-0.253717
O	 1.1462323843	-0.6114637485	 0.0282143109	-0.254633
H	 0.9930698091	 1.7552400244	-0.0268358286	 0.288509
H	-0.6538356852	 1.9163294927	-0.3544568616	 0.274067
H	-2.1988690411	-2.4540115825	-0.0673172859	 0.125214
82.2051	136.4783	210.4383	293.5084	322.5729	328.3022	393.7152	436.3799	453.0673	557.9213	599.1543	634.5772	652.7652	655.2483	675.0148	756.7488	793.5247	853.5625	991.5919	1101.243	1173.6889	1266.4567	1359.2785	1433.5	1547.0825	1641.8471	1701.4471	1715.9787	1927.9968	3257.9531	3567.6197	3617.382	3675.3639
NC1=[NH+]C=C([O-])C(=O)O1	N[C]1N[CH]C(=O)C(=O)O1	
InChI=1S/C4H4N2O3/c5-4-6-1-2(7)3(8)9-4/h1,7H,(H2,5,6)	InChI=1S/C4H4N2O3/c5-4-6-1-2(7)3(8)9-4/h1,6H,5H2
