18
gdb 9141	3.80811	0.86477	0.7412	2.833	78.95	-0.2421	-0.0254	0.2168	1552.4201	0.150587	-347.796123	-347.786131	-347.785186	-347.834325	33.493	
C	 0.0647694875	 1.5570306612	-0.1282897303	-0.364656
C	-0.0016797711	 0.0424009668	 0.1402874426	-0.314331
C	-1.3613596459	-0.4869002736	 0.1040886787	 0.060697
C	-2.4925945796	-0.899661828	 0.0501611171	 0.05075
C	-3.8633551271	-1.401103104	 0.0480493394	-0.209315
C	-3.9202440613	-2.9425619827	-0.0772189963	-0.396869
C	-4.554436622	-0.9886251762	 1.3509283427	 0.173714
O	-5.6330962373	-0.4639135502	 1.4098137311	-0.243884
H	 1.101186024	 1.9050776449	-0.0900538112	 0.116093
H	-0.3431308243	 1.794841371	-1.1143204107	 0.130063
H	-0.512833076	 2.1096163027	 0.6174973643	 0.130495
H	 0.6135661094	-0.4891296168	-0.597067403	 0.13122
H	 0.4459956293	-0.177329322	 1.1180020068	 0.130945
H	-4.4385006501	-0.9503424454	-0.7684705651	 0.121545
H	-4.9590223447	-3.2823418614	-0.1159090259	 0.131638
H	-3.4090483009	-3.2623440177	-0.9881838707	 0.13691
H	-3.4248004231	-3.4194450688	 0.7738278283	 0.130665
H	-3.9691964967	-1.2378051598	 2.2647881323	 0.084318
4.4749	48.9965	104.0818	111.6486	187.1428	216.5882	226.0886	305.3375	331.5578	418.0807	480.0997	508.9723	537.1036	744.9925	784.3896	881.0952	922.1875	962.01	1050.4317	1081.5666	1085.0458	1104.0205	1128.0406	1178.8659	1270.2303	1285.7309	1325.3705	1350.5559	1397.9395	1409.3771	1416.965	1474.1411	1491.9607	1494.7239	1497.4438	1505.3546	1838.6463	2359.3256	2880.5842	3020.2311	3043.1711	3045.1784	3047.4187	3050.4447	3118.8862	3119.7619	3124.9219	3129.0245
CCC#CC(C)C=O	CCC#C[C@@H](C)C=O	
InChI=1S/C7H10O/c1-3-4-5-7(2)6-8/h6-7H,3H2,1-2H3	InChI=1S/C7H10O/c1-3-4-5-7(2)6-8/h6-7H,3H2,1-2H3/t7-/m1/s1
