20
gdb 112166	2.42068	1.20608	1.01121	4.0228	76.06	-0.2399	0.041	0.2809	1269.9268	0.168955	-440.309941	-440.299753	-440.298809	-440.345035	36.919	
C	-0.0885659743	 1.5816443022	 0.143809798	-0.446137
C	-0.0310974005	 0.0620858822	-0.0063401654	 0.099225
C	-1.3998101413	-0.577420388	 0.227086629	-0.440875
C	 0.7477133861	-0.5249993153	-1.2439741403	 0.040219
C	 1.3401191881	 0.4075964458	-2.2832288472	-0.095768
O	 2.1335709325	-0.4014578319	-3.1423027315	-0.427444
N	 1.7165852982	-1.0687055467	-0.2889552545	-0.341228
C	 1.0925324885	-0.6065807857	 0.8404116394	 0.428399
O	 1.3331442152	-0.7025856261	 2.0153446971	-0.378639
H	 0.8900648659	 2.051319722	 0.0132905309	 0.122474
H	-0.7841711692	 2.0272540975	-0.5759025729	 0.114977
H	-0.4390801852	 1.8337255587	 1.1493174323	 0.136256
H	-2.1401099941	-0.1910011833	-0.4823200326	 0.114589
H	-1.3582881428	-1.665612356	 0.1177293421	 0.123274
H	-1.7509761959	-0.3558947287	 1.2396239499	 0.134731
H	 0.1848472673	-1.3082729905	-1.7665195401	 0.088177
H	 0.5273291507	 0.9065235857	-2.8350099621	 0.091379
H	 1.9481793926	 1.1820357099	-1.7956158638	 0.092074
H	 2.5741382327	 0.1708628681	-3.7772010476	 0.291179
H	 2.5245945255	-1.6572289399	-0.4274431306	 0.253139
60.3763	100.7798	163.0044	174.5805	210.6491	218.5437	258.182	273.0752	300.0555	321.199	400.2792	436.7886	507.4485	586.9037	670.2085	743.5709	760.2882	837.8747	919.7858	961.3505	994.0627	1015.7344	1059.9862	1069.3235	1107.6778	1152.7182	1169.5253	1214.4951	1240.4512	1264.1642	1273.5767	1299.3374	1374.4488	1392.8677	1400.0783	1421.9324	1462.3187	1481.691	1487.4057	1502.4315	1506.0607	1513.6952	1887.6039	2975.1441	3017.34	3029.1073	3035.6668	3038.8375	3098.0735	3102.3307	3109.6766	3115.0625	3614.553	3830.4489
CC1(C)C(CO)NC1=O	CC1(C)[C@@H](CO)NC1=O	
InChI=1S/C6H11NO2/c1-6(2)4(3-8)7-5(6)9/h4,8H,3H2,1-2H3,(H,7,9)	InChI=1S/C6H11NO2/c1-6(2)4(3-8)7-5(6)9/h4,8H,3H2,1-2H3,(H,7,9)/t4-/m1/s1
