27
gdb 122951	5.25263	0.47009	0.44852	0.9902	94.7	-0.2495	0.0841	0.3336	2568.9915	0.249518	-390.694513	-390.68226	-390.681316	-390.733358	42.88	
C	 0.1210166567	 1.5269442668	 0.1319230978	-0.391372
C	-0.0290156698	 0.007590549	 0.003538684	-0.166024
C	-1.4818629879	-0.5006168608	-0.0772816979	 0.044754
C	-2.1936561634	 0.0002427647	-1.3425812695	-0.390741
C	-1.5073954912	-2.0380304452	 0.0257387113	-0.182588
C	-2.9027561849	-2.6567147975	 0.1675683439	-0.2109
C	-2.8487338295	-4.1603503422	 0.4036415974	-0.048303
O	-4.1680060904	-4.6529703388	 0.5004195128	-0.230541
C	-4.2203304379	-6.0400284009	 0.721173463	-0.226309
H	 1.1719289815	 1.8051104941	 0.2603113297	 0.110756
H	-0.2494897515	 2.0550057937	-0.7518578797	 0.117758
H	-0.4300175621	 1.9061786961	 1.0002200042	 0.112287
H	 0.5206759781	-0.3415610637	-0.8819720326	 0.090189
H	 0.4567566285	-0.4672820831	 0.8658022727	 0.089111
H	-2.0208906771	-0.1017506832	 0.7958953786	 0.066986
H	-1.692753497	-0.3755411669	-2.2436165635	 0.108594
H	-3.2353754243	-0.3303314398	-1.3793075041	 0.11704
H	-2.1997901249	 1.0924253946	-1.397480959	 0.113344
H	-1.0053018418	-2.4632080107	-0.855600057	 0.090185
H	-0.9002368002	-2.3365987282	 0.8914439361	 0.087928
H	-3.4375365799	-2.1923577642	 1.0055752873	 0.102495
H	-3.5062926306	-2.4757565367	-0.7281095604	 0.108929
H	-2.3131715579	-4.6608562494	-0.4229545586	 0.080726
H	-2.2872907053	-4.3849310197	 1.328157341	 0.080516
H	-5.2739483137	-6.3250607561	 0.7786672602	 0.124392
H	-3.7446124076	-6.60474092	-0.0971966784	 0.100386
H	-3.724290416	-6.3255640719	 1.6631856205	 0.100404
50.4224	50.5759	81.137	95.7469	122.0781	129.417	205.4946	220.6402	236.9785	254.7737	261.5457	319.8255	385.6736	422.218	499.8659	509.814	753.2425	775.3998	821.2204	865.2587	912.0633	970.3612	984.379	996.8796	1035.7588	1039.0036	1061.4601	1070.7091	1151.4146	1167.4387	1172.676	1180.573	1199.8921	1225.4661	1232.8132	1272.7739	1297.361	1305.1553	1317.5132	1329.7193	1378.8142	1382.2247	1391.0267	1415.0184	1417.3789	1425.9517	1477.0662	1481.816	1485.2613	1487.9841	1496.962	1498.9184	1499.6589	1507.177	1509.168	1514.9546	1532.7146	2936.7058	2961.8088	2965.2561	2984.2462	2998.1394	3005.1081	3010.0777	3028.8534	3029.6401	3032.7787	3035.1518	3044.8118	3083.5704	3096.3709	3097.1865	3105.5777	3109.7399	3113.7495
CCC(C)CCCOC	CC[C@@H](C)CCCOC	
InChI=1S/C8H18O/c1-4-8(2)6-5-7-9-3/h8H,4-7H2,1-3H3	InChI=1S/C8H18O/c1-4-8(2)6-5-7-9-3/h8H,4-7H2,1-3H3/t8-/m1/s1
