17
gdb 7571	3.11134	1.9645	1.49097	3.0754	64.26	-0.24	0.0359	0.2758	885.1276	0.141559	-401.026064	-401.017594	-401.01665	-401.060919	31.356	
N	 0.0326273191	 1.3116796612	 0.2259097373	-0.534432
C	 0.0716516539	 0.0010027983	-0.114555361	 0.390281
O	 1.0927506208	-0.5875660211	-0.4274306394	-0.385867
C	-1.2821649739	-0.7159604631	-0.0933337084	 0.30069
O	-2.2624734516	 0.1969887146	 0.3594976552	-0.499248
C	-1.5447834883	-1.4705747362	-1.4359294987	-0.260026
C	-1.0200775617	-2.7720724136	-0.7739705026	-0.20423
C	-1.1837661487	-2.1031466488	 0.6163551318	-0.257733
H	 0.8934381613	 1.8319506488	 0.2375937943	 0.258909
H	-0.8359237112	 1.741008426	 0.4933111081	 0.275491
H	-3.1181418711	-0.2413067214	 0.3406599719	 0.280538
H	-2.6210176489	-1.5089473916	-1.6370740311	 0.086077
H	-1.0290783019	-1.1019706002	-2.3241732791	 0.116688
H	-1.5899982873	-3.6852790383	-0.956292767	 0.091734
H	 0.0302509703	-2.9395469653	-1.0095152974	 0.137666
H	-0.3806324286	-2.2321287141	 1.3433693721	 0.117468
H	-2.140860412	-2.3482487853	 1.089076744	 0.085995
4.8807	158.4791	210.9261	231.7641	276.2978	277.1783	382.5909	400.1307	435.3481	546.8317	627.7253	633.777	700.0056	764.4271	792.0721	836.3829	902.9371	939.631	977.4508	1044.2044	1048.8205	1089.6053	1108.6345	1193.5315	1211.2147	1219.5826	1248.8657	1283.21	1284.3315	1309.5027	1430.7889	1462.111	1474.5773	1494.5886	1594.3964	1786.5322	3044.3484	3050.2353	3079.6097	3118.7702	3123.2404	3153.0292	3606.2125	3748.5339	3830.0702
NC(=O)C1(O)CCC1	NC(=O)C1(O)CCC1	
InChI=1S/C5H9NO2/c6-4(7)5(8)2-1-3-5/h8H,1-3H2,(H2,6,7)	InChI=1S/C5H9NO2/c6-4(7)5(8)2-1-3-5/h8H,1-3H2,(H2,6,7)
