16
gdb 66844	2.73559	1.9705	1.47766	1.1725	67.23	-0.2107	0.0634	0.2741	896.6169	0.124331	-437.76791	-437.7609	-437.759955	-437.798807	28.733	
O	-0.1098934174	 1.2898422646	 0.0223388055	-0.461149
C	 0.0052386026	-0.075328739	 0.0905942164	 0.336529
C	 0.233549009	-1.0069617234	-1.1370039652	-0.21692
N	 0.9126028576	-2.1971351849	-0.5497924086	-0.150621
C	 1.8916486288	-1.6129443123	 0.446302836	-0.185387
C	 0.6900691121	-0.9629178571	 1.1611855813	-0.140461
C	-0.1786189251	-2.1151071402	 0.5439731272	-0.099352
C	-1.0186453337	-1.1121475264	-0.298686899	 0.330205
O	-2.3513143685	-0.9880144692	-0.5685003725	-0.454163
H	 0.7076081025	 1.6556252433	-0.3346220038	 0.2881
H	 0.3990403329	-0.6358912104	-2.1414591761	 0.093711
H	 2.3486151901	-2.4250146983	 1.0184571602	 0.109819
H	 2.671978775	-0.9762239407	 0.0161314328	 0.093889
H	 0.6697630211	-0.6508507723	 2.204619724	 0.077954
H	-0.4944664794	-3.025157029	 1.0510620014	 0.08372
H	-2.5907493877	-1.6361215947	-1.2412586295	 0.294128
198.4482	255.2958	284.4068	310.0549	314.0895	374.389	484.7225	583.7566	631.2349	655.5814	735.3218	765.3446	816.5416	833.7006	859.8505	886.6848	915.4638	937.6278	987.4229	1006.3304	1030.2213	1058.9683	1107.8849	1144.219	1157.7914	1185.4919	1192.2988	1202.0323	1217.5567	1274.5454	1286.5925	1304.2986	1379.1829	1503.071	1531.3957	3043.2292	3104.9489	3124.32	3133.9547	3188.6529	3781.5095	3786.6488
OC12C3N4CC1C4C23O	O[C@@]12[C@H]3N4C[C@@H]1[C@H]4[C@@]23O	
InChI=1S/C6H7NO2/c8-5-2-1-7-3(2)6(5,9)4(5)7/h2-4,8-9H,1H2	InChI=1S/C6H7NO2/c8-5-2-1-7-3(2)6(5,9)4(5)7/h2-4,8-9H,1H2/t2-,3+,4-,5-,6+/m1/s1
