19
gdb 95430	2.62963	1.19175	0.8482	2.6785	80.44	-0.2493	-0.0522	0.1971	1328.875	0.159689	-423.062676	-423.054106	-423.053162	-423.095938	32.502	
O	-0.0687004215	 1.4461664208	 0.0145494722	-0.438195
C	 0.0170824327	 0.0295621805	-0.0063918369	 0.124971
C	-1.4079128927	-0.5126441512	 0.0827745821	-0.203628
C	-1.4126418938	-2.0472683147	 0.1484348246	-0.277333
C	-0.4258659612	-2.6658448298	-0.7970354852	-0.112914
C	 0.5265340216	-1.9747507488	-1.442035684	 0.209587
C	 0.7057335415	-0.4864592521	-1.2758002721	-0.337317
C	 1.4461967841	-2.6977984633	-2.3372763203	 0.09052
O	 2.3589108884	-2.182558541	-2.9436469564	-0.276868
H	 0.8200952513	 1.8011331314	-0.0899740781	 0.282869
H	 0.582728665	-0.3309349709	 0.8706584055	 0.066197
H	-1.9090801412	-0.0852474587	 0.9559124393	 0.108857
H	-1.9592764067	-0.1727219248	-0.8019922356	 0.110962
H	-1.1786443492	-2.3916663002	 1.1673258056	 0.124607
H	-2.4168547929	-2.4380389591	-0.0584989001	 0.119633
H	-0.4878312408	-3.742529558	-0.9506618677	 0.100162
H	 0.2864531292	 0.0429684817	-2.1417689752	 0.125468
H	 1.7769789292	-0.2530769632	-1.2717402818	 0.115912
H	 1.242524007	-3.7894833487	-2.4220187858	 0.066508
93.0525	138.7194	182.7207	199.1021	295.0956	315.8748	347.8164	414.4397	425.8516	477.378	478.771	579.7801	700.1332	792.6944	854.9032	871.1912	906.8514	953.0259	966.7276	1035.0028	1045.3197	1086.1617	1096.1708	1100.7008	1152.1744	1190.9615	1210.8572	1254.072	1286.743	1308.2896	1343.6557	1364.6859	1385.6044	1395.0309	1426.0228	1441.9265	1466.296	1477.2104	1501.1166	1703.3356	1788.295	2872.4445	2945.1455	2999.8802	3025.3983	3036.8767	3049.9591	3064.7539	3094.672	3138.6258	3813.8395
OC1CCC=C(C1)C=O	O[C@H]1CCC=C(C1)C=O	
InChI=1S/C7H10O2/c8-5-6-2-1-3-7(9)4-6/h2,5,7,9H,1,3-4H2	InChI=1S/C7H10O2/c8-5-6-2-1-3-7(9)4-6/h2,5,7,9H,1,3-4H2/t7-/m0/s1
