18
gdb 7288	4.08295	1.07214	0.90018	2.949	65.28	-0.2492	-0.0188	0.2304	1260.2499	0.149824	-422.082301	-422.072482	-422.071538	-422.117361	34.34	
C	 0.0479748778	 1.5622372018	 0.0673109838	-0.411507
C	 0.0090854133	 0.0375235356	 0.0452420383	 0.111858
O	 0.6749406736	-0.5300576507	 1.1697443528	-0.425503
C	-1.4330455335	-0.5049632138	-0.0577240581	 0.100166
O	-2.1218133781	 0.0463100147	-1.1738771389	-0.425792
C	-1.4676978845	-2.0374046379	-0.0789092839	-0.300775
C	-2.8830160078	-2.5654798953	-0.067448781	 0.165538
O	-3.3294591372	-3.3566850496	-0.8566216692	-0.24131
H	 1.081644651	 1.9171473449	 0.0881117881	 0.124661
H	-0.4588050359	 1.9735495895	-0.8079306685	 0.138821
H	-0.4667694594	 1.9464040382	 0.9580599472	 0.106922
H	 0.5690567556	-0.3282502365	-0.8269705096	 0.083705
H	 0.3854733237	-0.0506498808	 1.9539844254	 0.282069
H	-1.9917411065	-0.1456234409	 0.81921267	 0.082664
H	-1.791306414	-0.3823526603	-1.9716762789	 0.287802
H	-0.9501330804	-2.4313370764	-0.961859429	 0.109807
H	-0.9403331249	-2.404211532	 0.8103840737	 0.139959
H	-3.5141095726	-2.1609257406	 0.7587384079	 0.070916
59.6799	83.7897	86.2756	167.2232	229.057	248.6767	281.5404	296.0537	312.7005	391.8173	437.4614	469.4692	497.8108	577.5118	778.108	869.205	922.3442	959.376	1026.4817	1047.2518	1069.0249	1101.0735	1128.3886	1163.6045	1183.5977	1234.9031	1281.2735	1311.8384	1353.4171	1393.3778	1398.6867	1410.6848	1414.8726	1431.0262	1459.6936	1489.6472	1496.0495	1837.7597	2855.2764	3001.5128	3016.8211	3027.4588	3034.1696	3086.2685	3102.6812	3141.0077	3798.0189	3801.0548
CC(O)C(O)CC=O	C[C@@H](O)[C@@H](O)CC=O	
InChI=1S/C5H10O3/c1-4(7)5(8)2-3-6/h3-5,7-8H,2H2,1H3	InChI=1S/C5H10O3/c1-4(7)5(8)2-3-6/h3-5,7-8H,2H2,1H3/t4-,5+/m1/s1
