17
gdb 78716	4.76623	1.16773	1.07109	2.0457	80.43	-0.2267	0.0165	0.2433	1149.2783	0.134412	-384.587843	-384.580044	-384.5791	-384.619792	30.922	
C	-0.1343071954	 1.4659112816	 0.0657929535	-0.41083
C	 0.0390065233	-0.0464219884	 0.0000685221	 0.002417
C	 0.8785182674	-0.5316902488	-1.186263348	-0.163401
C	 2.1647761179	-0.4561950873	-0.3809233189	-0.207965
C	 1.211309026	-0.5972945269	 0.8627574287	 0.035533
O	 1.1264035717	-2.0373453317	 0.6798789298	-0.334126
C	 1.5848833999	-1.81280379	-0.6607176509	 0.366653
C	 2.0259382691	-2.8852648216	-1.4757227554	 0.159842
C	 2.4013727545	-3.7896465672	-2.1744004793	-0.376291
H	 0.8213774445	 1.9828966365	-0.074070848	 0.118177
H	-0.8202269556	 1.8183243785	-0.7110993604	 0.121782
H	-0.5463089381	 1.7682247464	 1.0347295727	 0.11809
H	-0.9112195446	-0.5637710544	 0.172283582	 0.080123
H	 0.736733155	-0.3615863533	-2.245909815	 0.101345
H	 3.1429874216	-0.0353975757	-0.5643411814	 0.11064
H	 1.387462528	-0.2967829321	 1.8935423467	 0.090658
H	 2.7323614449	-4.5912288556	-2.7870791981	 0.187353
127.1408	137.847	233.8756	249.4706	278.2272	433.7788	481.3952	494.4035	561.0281	569.7449	629.2677	696.2766	765.8493	780.4219	792.6945	836.2185	880.2842	903.5999	938.6992	954.199	997.4484	1030.2139	1050.1397	1074.7825	1106.672	1130.3158	1146.5677	1178.8731	1237.1619	1267.4353	1280.6517	1365.9879	1392.2138	1414.5458	1495.3327	1500.8706	2238.3789	3029.6244	3049.4273	3097.0128	3101.7579	3145.5082	3201.8243	3219.9689	3502.9907
CC1C2C3C1OC23C#C	C[C@H]1[C@H]2[C@H]3[C@@H]1O[C@@]23C#C	
InChI=1S/C8H8O/c1-3-8-5-4(2)7(9-8)6(5)8/h1,4-7H,2H3	InChI=1S/C8H8O/c1-3-8-5-4(2)7(9-8)6(5)8/h1,4-7H,2H3/t4-,5-,6-,7+,8-/m0/s1
