18
gdb 126444	1.94215	1.68385	1.00391	1.0473	73.8	-0.2548	-0.0037	0.251	1194.6676	0.149251	-435.276152	-435.267217	-435.266273	-435.310359	32.213	
C	 0.1435003991	 1.5591761585	 0.129243085	-0.387921
C	-0.082775159	 0.052546097	-0.0914776205	-0.297252
C	 0.7001321507	-0.4913545722	-1.2455851028	 0.252185
N	 0.1354330001	-0.7613914448	-2.4244109935	-0.263578
N	 1.1524064092	-1.187818639	-3.1661550296	-0.084691
N	 2.3376831691	-1.227192274	-2.5786038113	-0.260972
C	 2.0829853075	-0.7863899105	-1.3428387227	 0.205803
C	 3.1736742377	-0.6388505935	-0.3288756787	-0.177991
O	 3.5153458025	 0.7222085624	-0.0679488621	-0.403037
H	 1.2044472864	 1.7638245195	 0.2950264647	 0.144189
H	-0.1851125906	 2.1309945941	-0.7442326657	 0.12012
H	-0.4214229215	 1.9102323586	 0.9981272979	 0.111349
H	 0.1964693497	-0.4905604644	 0.819760471	 0.108639
H	-1.1429443552	-0.1495942719	-0.2704486006	 0.120553
H	 1.0226554617	-1.4863644872	-4.1190239552	 0.291272
H	 2.8560891423	-1.0430801786	 0.6374364607	 0.120007
H	 4.0466635387	-1.2140374465	-0.6643095859	 0.115094
H	 3.7734843617	 1.1171337327	-0.9078182106	 0.28623
65.216	84.403	161.4388	167.1379	212.0308	279.7924	345.7376	361.6784	420.2433	486.3484	513.6949	642.6864	711.7214	732.609	798.5779	817.0942	953.6672	973.9387	1006.8655	1044.1172	1075.8285	1090.8787	1172.568	1192.7285	1214.9226	1258.0012	1284.3303	1351.1163	1357.4675	1396.2783	1410.433	1420.9593	1452.5383	1480.4701	1495.5373	1499.0068	1510.4672	1526.3357	1560.336	3021.9274	3033.3429	3039.8616	3082.679	3086.5439	3110.4443	3129.3427	3669.9777	3810.3259
CCC1=NNN=C1CO	CCc1n[nH]nc1CO	
InChI=1S/C5H9N3O/c1-2-4-5(3-9)7-8-6-4/h9H,2-3H2,1H3,(H,6,7,8)	InChI=1S/C5H9N3O/c1-2-4-5(3-9)7-8-6-4/h9H,2-3H2,1H3,(H,6,7,8)
