17
gdb 27688	2.89964	1.2612	0.88476	1.6842	90.79	-0.1719	0.0129	0.1849	1287.5345	0.135407	-380.885996	-380.876536	-380.875592	-380.920003	35.135	
C	 0.0049867329	 1.492854212	 0.0912845861	-0.511949
C	-0.0052579429	 0.0054600437	-0.0360258966	 0.317998
C	-0.0650335302	-0.7945623808	-1.1632086195	-0.278372
C	-0.0476539602	-2.1494624203	-0.7413132091	 0.167885
N	-0.1627908956	-3.2791680732	-1.5534633227	-0.621291
C	 0.0278343257	-2.1507266131	 0.6498871223	 0.124359
N	 0.0442865549	-0.8144871397	 1.0503716746	-0.38347
C	 0.081441095	-3.2281613831	 1.5430664932	 0.219885
C	 0.1404651506	-4.1716116611	 2.2965318112	-0.451979
H	 0.9161081246	 1.8576484148	 0.5816271662	 0.130176
H	-0.0459691724	 1.9528926104	-0.8978421461	 0.138876
H	-0.8487600045	 1.8607836012	 0.6736127049	 0.131646
H	-0.1262950573	-0.439806477	-2.1811633717	 0.08802
H	 0.3215749937	-3.190149436	-2.4365315986	 0.242135
H	 0.1230077402	-4.127805608	-1.0815291169	 0.246813
H	 0.0964135361	-0.518318776	 2.0090837839	 0.259172
H	 0.1687871294	-4.9991501739	 2.9601476586	 0.180096
74.8114	124.2609	129.1861	205.6603	252.1761	275.6407	307.4279	373.5474	383.397	411.4734	483.1486	530.8729	571.0664	627.4118	646.0554	675.9967	692.1822	737.9752	780.1338	809.2195	1002.2239	1022.2022	1058.7657	1072.3274	1186.5986	1221.6012	1249.4477	1339.4836	1415.6278	1452.2386	1480.0009	1500.7917	1512.2291	1539.2063	1624.0625	1655.3675	2203.4889	3019.4537	3064.8442	3126.1395	3241.8508	3504.4655	3536.6549	3631.2595	3684.7392
CC1=CC(N)=C(N1)C#C	Cc1cc(N)c([nH]1)C#C	
InChI=1S/C7H8N2/c1-3-7-6(8)4-5(2)9-7/h1,4,9H,8H2,2H3	InChI=1S/C7H8N2/c1-3-7-6(8)4-5(2)9-7/h1,4,9H,8H2,2H3
