16
gdb 51781	2.71361	1.18656	0.90774	2.281	67.04	-0.2582	-0.0546	0.2036	1241.6535	0.123186	-475.025429	-475.016699	-475.015755	-475.060567	30.116	
O	-0.1107264002	-0.0827318697	-0.1587476902	-0.321311
C	-0.0729059721	 1.1138223777	 0.0352861037	 0.148179
N	 1.0633145209	 1.8653705911	 0.062154937	-0.297109
C	 2.3633817212	 1.2694734558	-0.0454934498	 0.000482
C	 3.2514199534	 1.4993388112	-1.2936754378	-0.09824
O	 4.3981010775	 1.7904891794	-0.4495002313	-0.291084
C	 3.5529234892	 1.8981570994	 0.7209461436	-0.004797
C	 3.4987888632	 3.3730578359	 1.0847194146	 0.154387
O	 2.5045589449	 4.0526077585	 1.1718099624	-0.251988
H	-0.9766813864	 1.7292481688	 0.2075938502	 0.083923
H	 1.016468331	 2.8419621825	 0.3163378758	 0.272392
H	 2.2578855666	 0.2056154929	 0.1684239104	 0.138527
H	 3.4350566341	 0.6368116902	-1.9395703669	 0.129097
H	 2.9584780667	 2.3662795519	-1.8987032473	 0.112947
H	 3.9500298091	 1.3293063348	 1.5727801407	 0.111841
H	 4.5108163909	 3.8116785397	 1.2203238048	 0.112753
31.4408	62.187	129.7968	169.235	221.3162	246.7269	343.3671	379.5081	431.1096	623.6804	662.2865	701.3125	757.2588	878.2188	920.2167	946.1749	995.7915	1022.1499	1034.8421	1074.7749	1084.6612	1136.7981	1156.5317	1237.8469	1254.5783	1263.0976	1327.0073	1348.7069	1378.9954	1419.0613	1428.4868	1518.9321	1535.9813	1802.3619	1815.1805	2912.3384	2952.4044	3017.5214	3028.8883	3099.6893	3122.5373	3599.5676
O=CNC1COC1C=O	O=CN[C@H]1CO[C@H]1C=O	
InChI=1S/C5H7NO3/c7-1-5-4(2-9-5)6-3-8/h1,3-5H,2H2,(H,6,8)	InChI=1S/C5H7NO3/c7-1-5-4(2-9-5)6-3-8/h1,3-5H,2H2,(H,6,8)/t4-,5-/m0/s1
