13
gdb 133348	3.21895	1.39847	0.97492	4.326	67.62	-0.2237	-0.053	0.1707	1081.6591	0.088674	-494.021522	-494.013781	-494.012837	-494.054037	28.814	
N	 0.0525022363	 1.321458839	-0.1092574561	-0.577686
C	-0.0307385456	-0.0182788427	-0.0491223133	 0.348042
C	-1.1598388002	-0.7797324192	-0.0083725247	-0.3788
C	-0.9846675377	-2.188367855	 0.0534520272	 0.370282
F	-2.0893502523	-2.9240221245	 0.0928667302	-0.060723
N	 0.1090963794	-2.8629618391	 0.0769629517	-0.183677
O	 1.2742907367	-2.0699467079	 0.0345303893	-0.28354
C	 1.271847144	-0.7116787358	-0.0260843589	 0.410322
N	 2.3490596941	-0.034381389	-0.0629025621	-0.555671
H	 0.9797993525	 1.7190894902	-0.1330773655	 0.288911
H	-0.761954346	 1.9075387906	-0.131136707	 0.269239
H	-2.1602609345	-0.3677274051	-0.0207374782	 0.116688
H	 3.1717466533	-0.6359482216	-0.0410775027	 0.236613
81.4096	134.8425	192.4192	327.1519	343.5978	377.1772	431.0304	470.0958	508.1302	580.388	584.2383	664.5385	700.7261	769.4907	801.2069	819.5058	848.6759	934.9542	1053.1396	1081.8456	1107.744	1230.1333	1290.3233	1445.8603	1459.4334	1592.189	1643.8389	1685.7439	1721.2422	3217.0992	3504.624	3582.44	3738.3311
NC1=CC(F)=NOC1=N	NC1=C(ON=C([CH]1)F)[NH]	
InChI=1S/C4H4FN3O/c5-3-1-2(6)4(7)9-8-3/h1,7H,6H2	InChI=1S/C4H4FN3O/c5-3-1-2(6)4(7)9-8-3/h1,7H,6H2
