15
gdb 62468	2.33961	1.80077	1.28777	2.6542	68.45	-0.2522	-0.1007	0.1515	983.5014	0.11088	-457.806952	-457.798507	-457.797563	-457.8401	30.978	
C	 0.0113913384	 1.5686025918	 0.0341791729	-0.435214
C	-0.0579390812	 0.0380475962	 0.0109463978	 0.153204
O	-1.3913194005	-0.4297997143	-0.0207250409	-0.45622
C	 0.7405302576	-0.5491906116	-1.1659568496	 0.343387
O	 0.3961753802	-0.4853145616	-2.3229327865	-0.332137
C	 1.9345042844	-1.244488719	-0.6186365002	-0.166704
C	 1.8858128542	-1.2657668095	 0.7233431043	-0.164626
C	 0.6690580812	-0.5639504135	 1.2306795581	 0.376514
O	 0.3340952073	-0.4658411986	 2.383133468	-0.306991
H	 1.0426938925	 1.9307170409	 0.1024582732	 0.121864
H	-0.4326711744	 1.9678486256	-0.8827285068	 0.132022
H	-0.5485202588	 1.9326252015	 0.8988352214	 0.150903
H	-1.6894897492	-0.3414237912	-0.9359445697	 0.294714
H	 2.6936703235	-1.6819701294	-1.2560252585	 0.144563
H	 2.601490855	-1.7209326372	 1.3977681964	 0.144721
52.4761	174.0768	227.7044	233.8949	259.8193	281.4267	305.7547	355.567	414.0477	552.3662	583.2734	665.954	695.0169	699.2212	776.8029	850.5278	885.5284	956.1286	1020.6851	1049.727	1084.6933	1112.2513	1140.8781	1154.9097	1289.8822	1342.3146	1380.2277	1397.5608	1485.1495	1488.647	1620.1293	1806.936	1847.6892	3037.4687	3110.1877	3134.1118	3205.4603	3226.8173	3765.2285
CC1(O)C(=O)C=CC1=O	C[C@@]1(O)C(=O)C=CC1=O	
InChI=1S/C6H6O3/c1-6(9)4(7)2-3-5(6)8/h2-3,9H,1H3	InChI=1S/C6H6O3/c1-6(9)4(7)2-3-5(6)8/h2-3,9H,1H3
