19
gdb 38826	2.9582	1.74625	1.23316	1.6708	79.83	-0.2288	0.028	0.2568	1025.699	0.161147	-385.86146	-385.85419	-385.853246	-385.893747	29.199	
C	-0.0074603539	 1.4972939171	 0.1644144339	-0.368845
C	 1.2681347215	 0.7422890262	-0.0510013809	 0.05869
O	 1.7149774351	 0.1520131963	 1.1708618896	-0.306445
C	 0.5181642285	-0.6870107051	 1.2116102254	 0.062979
C	 0.8633740244	-2.1696170286	 1.0084685043	-0.278244
C	 0.0985546913	-2.8380435415	-0.1055036553	-0.062066
C	-0.6425240433	-2.2154493535	-1.0203121428	-0.041743
C	-0.8545768058	-0.7257376513	-1.0775389836	-0.389328
C	-0.0482800223	-0.0028581752	-0.0361570804	 0.292698
H	-0.2070969669	 1.9404351303	 1.1370697062	 0.111224
H	-0.3622069008	 2.0724239121	-0.6869079048	 0.110063
H	 2.003824093	 0.9418699422	-0.8226969123	 0.100722
H	-0.0346462934	-0.5280579792	 2.1451880308	 0.077986
H	 1.9405426515	-2.2340604102	 0.8082344514	 0.129066
H	 0.7032149064	-2.7236163454	 1.9415513562	 0.107938
H	 0.1853458583	-3.9215689325	-0.1472358179	 0.085827
H	-1.1517924374	-2.8008472927	-1.7819685473	 0.085525
H	-0.6078383432	-0.3489012824	-2.0801562259	 0.110671
H	-1.9267222932	-0.5108760965	-0.9487687967	 0.113283
35.8265	164.3683	306.6518	377.7922	381.3071	451.5921	475.9446	495.5789	625.4435	673.276	776.4669	793.4939	825.5579	881.2513	917.7533	920.2035	949.9945	990.4713	997.4428	1005.8259	1017.6564	1023.3431	1028.4523	1059.3334	1084.9793	1115.3103	1175.5765	1196.8977	1215.5356	1248.7226	1280.9739	1295.1444	1337.4508	1354.8729	1371.3119	1411.3749	1419.8989	1472.7726	1474.9325	1485.9978	1731.8135	2987.5511	3017.2129	3020.9045	3029.4631	3055.4036	3104.2549	3140.8693	3165.0977	3170.1749	3195.7142
C1C2OC3CC=CCC123	C1[C@H]2O[C@@H]3CC=CC[C@]123	
InChI=1S/C8H10O/c1-2-4-8-5-7(8)9-6(8)3-1/h1-2,6-7H,3-5H2	InChI=1S/C8H10O/c1-2-4-8-5-7(8)9-6(8)3-1/h1-2,6-7H,3-5H2/t6-,7-,8-/m1/s1
