20
gdb 127152	4.19768	0.93353	0.85323	2.1366	82.49	-0.2035	0.0212	0.2246	1418.1576	0.172282	-399.332968	-399.323961	-399.323016	-399.367526	33.221	
C	-0.0402931605	 1.4539064043	-0.0385967522	-0.309941
N	 0.0411153776	 0.0055468397	 0.0365053665	-0.043433
C	 0.8375674726	-0.4212987059	 1.1740812467	-0.316221
C	-1.2930686948	-0.598359207	 0.0179689452	-0.252296
C	-1.2816158336	-2.0869959511	-0.1822082505	 0.341465
N	-1.2050346786	-2.6014514614	-1.4103035055	-0.277738
N	-1.2244179551	-3.9326404703	-1.2225486246	-0.178494
C	-1.318767177	-4.2886992764	 0.0811455563	-0.023619
C	-1.3616706102	-3.1102895898	 0.7938943447	-0.274391
H	 0.9679364308	 1.8773329171	-0.0890029232	 0.114443
H	-0.5797899528	 1.7507738659	-0.9436734995	 0.117048
H	-0.5549190785	 1.9116007903	 0.8302426776	 0.084484
H	 0.403876981	-0.1145847997	 2.1478136953	 0.079689
H	 0.9372005482	-1.5094861785	 1.1763494123	 0.125885
H	 1.839952841	 0.0125761132	 1.1027145174	 0.114119
H	-1.8552453965	-0.3671679128	 0.9454447501	 0.074546
H	-1.8438195599	-0.1467347477	-0.8127619693	 0.115318
H	-1.1853812471	-4.5370586027	-2.0255290607	 0.274588
H	-1.3511531177	-5.3222318639	 0.3876265424	 0.131598
H	-1.441635289	-2.997555313	 1.863125461	 0.102948
39.2577	78.085	121.2516	255.798	256.6934	315.7731	327.046	353.4567	369.6532	467.9592	522.9631	660.0881	694.878	766.6535	800.347	844.1271	864.5126	946.643	970.5932	996.0126	1050.5985	1067.7596	1072.5849	1109.2419	1122.4095	1165.9322	1200.1569	1224.8757	1280.7668	1300.5474	1317.4004	1395.5435	1406.0876	1441.1731	1466.7893	1477.9917	1482.052	1484.1116	1493.9059	1500.1809	1500.9672	1512.5535	1570.1232	2895.9768	2898.4077	2912.9496	3056.2755	3066.414	3075.2222	3102.126	3116.8264	3254.9698	3273.7774	3674.6035
CN(C)CC1=NNC=C1	CN(C)Cc1n[nH]cc1	
InChI=1S/C6H11N3/c1-9(2)5-6-3-4-7-8-6/h3-4H,5H2,1-2H3,(H,7,8)	InChI=1S/C6H11N3/c1-9(2)5-6-3-4-7-8-6/h3-4H,5H2,1-2H3,(H,7,8)
