19
gdb 97302	4.00918	0.91064	0.78056	2.896	85.04	-0.2254	-0.01	0.2154	1493.1456	0.159732	-415.377175	-415.367554	-415.366609	-415.412065	34.238	
C	 0.0507807057	 1.4777747767	 0.4636007567	-0.309652
N	 0.0991958476	 0.0595439847	 0.1813018148	-0.21919
C	-1.0072491524	-0.5588128432	 0.0906419016	 0.085459
N	-1.0715879856	-1.9042744479	-0.1628586311	-0.109017
C	-2.1995386812	-2.8139977872	-0.4068960856	-0.189891
C	-1.1529312807	-3.9598421931	-0.602347603	-0.062378
N	-1.2450025931	-4.706234837	-1.8392648463	-0.509635
C	-0.0801506987	-2.8695626056	-0.4201612692	 0.358132
N	 1.1760660201	-2.8557334187	-0.515908138	-0.555962
H	 0.5930784332	 1.6906514125	 1.3925847088	 0.128496
H	 0.5591141997	 2.0328001916	-0.3337560965	 0.127903
H	-0.9730348906	 1.8747737306	 0.5626987841	 0.095258
H	-1.9935282636	-0.0856897326	 0.2082762356	 0.087445
H	-2.8864138276	-2.9230595288	 0.4374403089	 0.120459
H	-2.7647441622	-2.5848031356	-1.3166324919	 0.119329
H	-1.1581426859	-4.6643617066	 0.2338194848	 0.110983
H	-1.0452490172	-4.0955169824	-2.6277421132	 0.232744
H	-0.5219387719	-5.4196029786	-1.8544428726	 0.245649
H	 1.5303143943	-1.9111133787	-0.3512162178	 0.243868
59.8478	113.4763	126.754	145.2905	202.2862	237.4662	241.1952	313.8277	347.0207	385.2719	448.4703	522.2913	674.7635	758.3781	805.3079	866.0525	912.5928	913.8259	981.0429	991.4746	1003.5093	1030.6215	1137.4125	1138.6251	1149.0416	1152.6711	1184.9051	1233.5766	1247.9426	1262.455	1303.1282	1391.4046	1419.3793	1440.0943	1452.1626	1477.7883	1504.458	1518.3601	1668.6214	1726.6666	1792.9777	2966.128	3007.1025	3039.7936	3054.109	3070.9148	3077.9656	3095.6044	3469.0907	3486.6406	3564.2464
CN=CN1CC(N)C1=N	CN=CN1C[C@@H](N)[C]1[NH]	
InChI=1S/C5H10N4/c1-8-3-9-2-4(6)5(9)7/h3-4,7H,2,6H2,1H3	InChI=1S/C5H10N4/c1-8-3-9-2-4(6)5(9)7/h3-4,7H,2,6H2,1H3/t4-/m1/s1
