20
gdb 38364	2.47714	1.96511	1.39451	0.5244	80.45	-0.208	-0.0165	0.1915	978.4426	0.173409	-403.064851	-403.057559	-403.056615	-403.096055	30.38	
C	-0.0170626268	 1.6013125516	-0.0964309314	-0.214961
C	 1.5342874896	 1.5165950965	 0.090012783	 0.139937
C	 1.2526980871	 0.0407550885	 0.5074358945	-0.196477
N	-0.1705262651	 0.1055347421	 0.046718916	-0.097688
C	-0.4339986792	-0.6587685813	-1.2128670068	-0.211263
C	 0.3378844842	 0.0502967139	-2.2896032168	-0.068498
C	 1.6753763353	 0.0523945408	-2.3427184456	-0.096792
C	 2.3542482202	 1.3844402133	-2.3134059339	-0.093084
O	 2.4772240088	 1.8184838777	-0.9320503279	-0.287752
H	-0.4839712727	 2.0947837382	 0.7630353261	 0.105769
H	-0.4076640763	 2.0607131722	-1.00323447	 0.108528
H	 1.8954688223	 2.1357466321	 0.9156766073	 0.089737
H	 1.8717510258	-0.7309779749	 0.0491546697	 0.103752
H	 1.2861754487	-0.0946630273	 1.5949641507	 0.103893
H	-0.1048829101	-1.6875282521	-1.0398800458	 0.115182
H	-1.5123856893	-0.6712333856	-1.396240945	 0.106952
H	-0.1622802419	 0.9322395084	-2.6879402971	 0.093478
H	 2.2505065565	-0.7985225284	-1.9850266889	 0.094003
H	 3.384850051	 1.3929783107	-2.6800758147	 0.107822
H	 1.7750575419	 2.1244344337	-2.8828803134	 0.097461
140.8415	266.9173	291.4989	326.3024	360.8817	365.7861	444.1105	492.2583	528.7599	621.0337	690.1057	732.2909	788.0931	857.0834	888.2526	901.2819	928.5807	937.3571	993.563	1001.1677	1018.915	1049.6999	1058.7427	1073.9534	1112.1352	1153.1318	1165.1454	1226.1811	1240.5418	1244.68	1261.4492	1276.84	1309.5646	1318.8566	1326.4063	1361.4381	1386.7585	1412.4153	1475.7104	1484.7659	1499.2247	1507.6238	1683.3087	3005.605	3033.6525	3042.813	3051.5193	3072.4781	3080.3741	3097.2104	3117.5805	3119.0734	3139.6076	3154.2415
C1C2CN1CC=CCO2	C1[C@H]2CN1C[CH][CH]CO2	
InChI=1S/C7H11NO/c1-2-4-9-7-5-8(3-1)6-7/h1-2,7H,3-6H2/b2-1-	InChI=1S/C7H11NO/c1-2-4-9-7-5-8(3-1)6-7/h1-2,7H,3-6H2
