18
gdb 47613	2.34107	1.99435	1.2067	3.4255	71.53	-0.2218	0.0097	0.2314	1022.8077	0.150017	-439.097769	-439.090367	-439.089423	-439.129912	28.523	
O	-0.2403562401	 0.5313634282	 1.139623638	-0.3299
C	-0.1444771808	 1.398362925	 0.3151121562	 0.412727
O	-1.2545614932	 1.9016932534	-0.2805729766	-0.226012
C	-1.0773736846	 2.9605893573	-1.2391095328	-0.081813
C	-0.1745594806	 4.044093536	-0.6709805828	-0.176181
N	 1.135538231	 3.4613901029	-0.4376923741	-0.081409
C	 1.8724514928	 3.7609263418	 0.8103367255	-0.167076
C	 2.2125348177	 2.2559005779	 0.9631969911	-0.249972
C	 1.1734544008	 2.0035628295	-0.153153496	-0.134265
H	-0.6576837224	 2.5536770154	-2.167887072	 0.123704
H	-2.0800421993	 3.3363865103	-1.4484927978	 0.130898
H	-0.1173763465	 4.8866497188	-1.3728364047	 0.110374
H	-0.6317411353	 4.4202951857	 0.2609685523	 0.099594
H	 2.7097892683	 4.4540731137	 0.6820329069	 0.10852
H	 1.2235824822	 4.1409232109	 1.6145088161	 0.098277
H	 3.2306381661	 1.9991977455	 0.67002465	 0.115501
H	 1.977097437	 1.7904807576	 1.9191635765	 0.136402
H	 1.5193319569	 1.40316468	-1.0059380758	 0.110631
92.2139	109.3922	248.5094	285.5199	349.8142	418.9448	471.6031	515.5289	576.1366	679.4488	700.3675	759.2753	826.548	915.2669	929.6191	946.8436	999.111	1006.3882	1065.3188	1083.8525	1106.7552	1126.8769	1161.133	1183.8396	1211.7386	1231.0029	1236.6962	1251.3344	1265.7335	1295.766	1324.6093	1346.3142	1387.6484	1411.8752	1489.1199	1505.5134	1508.3765	1526.81	1848.7035	2952.3864	2984.1947	3003.9523	3024.1867	3038.3003	3065.4586	3098.9167	3123.193	3159.7581
O=C1OCCN2CCC12	O=C1OCCN2CC[C@@H]12	
InChI=1S/C6H9NO2/c8-6-5-1-2-7(5)3-4-9-6/h5H,1-4H2	InChI=1S/C6H9NO2/c8-6-5-1-2-7(5)3-4-9-6/h5H,1-4H2/t5-/m0/s1
