15
gdb 123762	4.82186	1.06903	0.95667	3.5025	66.59	-0.2637	-0.0403	0.2235	1189.184	0.113108	-453.896649	-453.889262	-453.888317	-453.92991	26.372	
C	-0.2433870128	 0.9769840817	 0.2269492835	-0.063665
C	 1.0544279539	 1.2486900042	-0.5579221167	-0.285821
C	 1.7311877576	 0.4194298484	 0.567403845	 0.036565
O	 0.4505413265	 0.1132259569	 1.1597737074	-0.290308
C	 2.4608485506	-0.8233025957	 0.1995782353	 0.238758
C	 2.0440902911	-2.116189928	 0.1935855865	-0.03693
O	 3.0480646247	-2.8915026398	-0.209529331	-0.161443
N	 4.1488406107	-2.0175591953	-0.4684549103	-0.004349
N	 3.7746354934	-0.8434663636	-0.2179125673	-0.187207
H	-0.6735687002	 1.8498558832	 0.7319496657	 0.111551
H	-1.0388862318	 0.4440182964	-0.3045344362	 0.112843
H	 1.1017105446	 0.780961429	-1.5417454452	 0.123196
H	 1.3704033043	 2.2891449105	-0.6322325692	 0.123262
H	 2.3529951173	 1.0291558326	 1.2362548816	 0.102547
H	 1.1129026101	-2.5884212807	 0.4549089508	 0.181001
44.3681	85.4892	144.1214	198.8175	375.1901	432.7473	629.436	639.055	664.7918	727.2083	790.9337	842.0734	863.4816	931.8294	954.6262	987.0186	1024.9204	1037.2545	1069.5262	1094.0134	1140.6398	1167.5819	1213.9163	1239.6584	1256.1185	1264.9116	1316.5637	1355.4987	1386.2484	1463.2631	1489.5812	1532.3809	1621.7042	3015.7951	3029.1677	3073.0491	3092.3977	3151.2607	3302.1153
C1CC(O1)C1=CON=N1	C1C[C@@H](O1)c1conn1	
InChI=1S/C5H6N2O2/c1-2-8-5(1)4-3-9-7-6-4/h3,5H,1-2H2	InChI=1S/C5H6N2O2/c1-2-8-5(1)4-3-9-7-6-4/h3,5H,1-2H2/t5-/m1/s1
