17
gdb 130119	4.86782	1.02815	0.88916	2.1399	77.02	-0.1914	0.0418	0.2332	1288.1614	0.138325	-414.172977	-414.164737	-414.163793	-414.206211	31.017	
N	-0.0073489311	 1.324881407	 0.5157775523	-0.591529
C	 0.0267500378	-0.0232906016	 0.1522328269	 0.383436
N	-1.0237961495	-0.5975027634	-0.4200495602	-0.31228
N	-0.6574127554	-1.9094009445	-0.5360722226	-0.272145
C	 0.5925856466	-2.1487356774	-0.0749825384	 0.432152
C	 1.0804831692	-0.9435177836	 0.394945986	-0.381288
N	 1.1733781316	-3.4140944307	-0.1940725411	-0.166605
C	 2.062653131	-3.8689603483	 0.8675021052	-0.219137
C	 0.7202335179	-4.4891904604	 0.7007280946	-0.23401
H	 0.8647954703	 1.8046044262	 0.3363032427	 0.242075
H	-0.7716585149	 1.8053808137	 0.0572013597	 0.246912
H	-1.2670109435	-2.5545235022	-1.0060687246	 0.267122
H	 2.0411092132	-0.7583962198	 0.8458098976	 0.091365
H	 2.954269266	-4.3897650871	 0.5325567601	 0.125885
H	 2.2001187677	-3.2120623153	 1.7224173301	 0.130856
H	-0.0389372032	-4.2400335775	 1.4376293481	 0.131316
H	 0.6184650363	-5.4642844249	 0.2348613335	 0.125876
47.5987	134.2408	180.6106	258.2241	287.7648	307.5309	374.7317	457.3993	509.9663	548.3626	676.6566	704.0306	728.1845	744.7533	796.5872	825.5689	889.697	921.9936	996.7841	1041.0994	1043.6757	1088.8506	1114.6344	1135.9433	1157.9786	1176.804	1191.771	1196.9261	1281.1842	1345.1705	1445.0187	1489.881	1514.684	1517.7103	1554.0754	1615.9624	1647.4754	3112.3736	3115.9008	3197.7346	3211.4794	3268.2749	3537.2774	3632.415	3692.7888
NC1=NNC(=C1)N1CC1	Nc1n[nH]c(c1)N1CC1	
InChI=1S/C5H8N4/c6-4-3-5(8-7-4)9-1-2-9/h3H,1-2H2,(H3,6,7,8)	InChI=1S/C5H8N4/c6-4-3-5(8-7-4)9-1-2-9/h3H,1-2H2,(H3,6,7,8)
