16
gdb 11310	4.51693	1.41385	1.26191	1.147	60.22	-0.2506	-0.0374	0.2133	960.2733	0.130049	-420.882142	-420.874465	-420.873521	-420.914892	27.751	
O	-0.1943278272	 1.3769399828	 0.4782691864	-0.437915
C	 0.1500691071	 0.0817978577	 0.0147752057	 0.145042
C	 0.7217555287	-0.7785955516	 1.1437652331	-0.129179
O	-0.4437705846	-1.2070770242	 1.8568557467	-0.2733
C	-1.4083225353	-1.5696423443	 0.8616448877	 0.014227
C	-1.0880353207	-0.7450076602	-0.4047261905	-0.28672
C	-1.350781453	-3.0828225857	 0.6476633715	 0.132641
O	-1.5127741874	-3.6347235927	-0.4086156707	-0.229538
H	-0.6932872082	 1.2616095029	 1.2958592992	 0.285477
H	 0.8528971667	 0.2313182178	-0.8077106686	 0.095651
H	 1.286345612	-1.6386433856	 0.7509284465	 0.099538
H	 1.3527658589	-0.2150505267	 1.8335934592	 0.123587
H	-2.399249766	-1.3513762751	 1.2818948702	 0.110637
H	-1.9011377208	-0.0797315039	-0.6973217553	 0.121335
H	-0.8769259123	-1.4169025836	-1.2404247077	 0.133081
H	-1.1398546479	-3.6455707074	 1.5840318365	 0.095435
57.5572	89.4288	157.3764	226.7462	380.0133	402.5869	405.2947	450.4662	595.7294	701.6557	764.164	822.8441	866.5713	879.6936	921.4114	959.5542	991.4026	1050.5194	1072.5334	1085.3712	1120.3397	1182.8695	1230.5001	1248.8023	1286.7819	1308.4893	1326.8727	1341.0556	1369.4061	1399.3194	1433.7336	1488.8572	1506.4415	1834.4054	2895.6423	2986.1168	3023.0254	3078.7079	3099.6825	3118.8027	3134.7002	3789.2996
OC1COC(C1)C=O	O[C@H]1CO[C@@H](C1)C=O	
InChI=1S/C5H8O3/c6-2-5-1-4(7)3-8-5/h2,4-5,7H,1,3H2	InChI=1S/C5H8O3/c6-2-5-1-4(7)3-8-5/h2,4-5,7H,1,3H2/t4-,5+/m1/s1
