21
gdb 118198	2.2386	1.20183	0.89915	2.7736	76.11	-0.2302	0.0236	0.2538	1348.3927	0.182327	-457.555694	-457.545461	-457.544516	-457.591478	37.269	
C	 0.676785307	 1.5085833428	-0.1278260744	-0.33646
N	 0.1878509946	 0.1451292904	 0.0413240555	-0.08427
C	 0.8192942936	-0.5917638099	 1.1343729305	-0.176682
C	 0.6802160333	-2.1031562237	 0.8806884255	-0.061699
O	 0.8922024104	-2.3943442298	-0.4930801195	-0.423067
C	-1.2798905483	 0.0855036029	 0.0421741698	-0.254568
C	-1.8233094932	 0.0120708183	-1.3925164838	 0.386121
N	-1.6581293549	-1.205660983	-1.9871356381	-0.516047
O	-2.3599830105	 0.958047917	-1.9363344034	-0.360803
H	 1.7589111922	 1.4987591405	-0.2875613646	 0.121615
H	 0.1999088192	 1.9566978682	-1.0034293164	 0.151707
H	 0.4582782277	 2.1511515457	 0.7429548364	 0.104531
H	 1.8817241335	-0.3248400553	 1.1286683789	 0.112702
H	 0.4209177978	-0.3327935562	 2.1306575597	 0.09522
H	 1.4135837148	-2.6471943026	 1.4883478636	 0.106954
H	-0.3146447964	-2.4587372281	 1.1870783981	 0.097299
H	 0.894223065	-1.5188170126	-0.9173509767	 0.280526
H	-1.605581568	-0.8007797061	 0.5933760024	 0.11644
H	-1.7260822932	 0.9669919909	 0.5214975231	 0.114816
H	-1.0431995053	-1.9012944397	-1.5873069732	 0.267852
H	-1.8696824493	-1.2694768299	-2.9704310732	 0.257813
50.3503	71.0947	103.5312	158.4932	191.8892	235.9672	251.1524	337.9895	375.3535	395.136	434.0619	458.5048	538.616	570.0522	596.649	667.9354	736.6074	833.1156	882.2631	889.9452	946.649	980.6013	1057.9336	1081.3952	1098.5724	1118.4867	1159.1063	1176.0172	1225.1389	1243.7962	1287.1488	1317.7287	1342.4417	1354.1455	1385.5145	1400.6905	1457.8044	1463.8945	1485.1375	1492.2485	1500.8703	1511.7341	1533.815	1640.7042	1802.1766	2954.7187	2960.4914	2993.2409	3018.2342	3043.8716	3068.1303	3074.6914	3096.5105	3122.4351	3542.8207	3626.3124	3688.3513
CN(CCO)CC(N)=O	CN(CCO)CC(=O)N	
InChI=1S/C5H12N2O2/c1-7(2-3-8)4-5(6)9/h8H,2-4H2,1H3,(H2,6,9)	InChI=1S/C5H12N2O2/c1-7(2-3-8)4-5(6)9/h8H,2-4H2,1H3,(H2,6,9)
