20
gdb 41429	3.60498	1.84669	1.46265	1.6335	81.45	-0.2221	0.0926	0.3148	938.2524	0.17535	-365.9674	-365.961126	-365.960182	-365.997601	27.343	
C	-0.0387188367	 1.5565155694	-0.029867992	-0.238239
C	 1.492530226	 1.9019695	-0.0212041285	-0.349161
C	 2.0489271457	 0.4921584251	 0.0352821734	 0.390702
C	 3.4468095757	-0.0865442273	 0.0742584023	-0.367744
C	 3.0236293642	-1.5975402425	 0.1210198035	-0.156752
N	 1.5325610449	-1.57942602	 0.100249474	-0.146303
C	 1.1493311702	-0.3949411926	 0.9634836374	-0.051974
C	-0.0011381893	 0.0203389841	 0.0239773015	-0.03767
C	 1.1738676342	-0.4580252075	-0.8530858407	-0.051973
H	-0.5647646838	 1.9833525342	 0.8300135545	 0.100781
H	-0.5410149883	 1.9222201626	-0.9311260448	 0.100781
H	 1.803278071	 2.4458606228	-0.9190127625	 0.100293
H	 1.7794819879	 2.5071598864	 0.8447299668	 0.100293
H	 4.0399261607	 0.161156321	-0.8118589271	 0.098531
H	 4.0160471937	 0.2225810769	 0.9567295172	 0.098531
H	 3.3903943631	-2.1651780566	-0.7393583794	 0.102504
H	 3.3665153823	-2.1037852271	 1.0282827267	 0.102504
H	 1.164423336	-0.4464839909	 2.0558333457	 0.066429
H	-0.9397425887	-0.533101897	 0.0305204485	 0.072038
H	 1.2183785814	-0.585193361	-1.9384241465	 0.066429
221.2305	238.1662	353.9438	400.0833	403.9459	636.6792	707.8894	738.7577	742.2637	759.9481	816.5691	829.1072	832.9859	870.2925	907.0276	914.8574	917.8206	948.1539	984.1793	1011.6137	1019.794	1044.4844	1071.3318	1101.9658	1131.0988	1147.9546	1166.1822	1185.6794	1200.0312	1225.7333	1244.0686	1256.6402	1257.011	1259.8448	1270.2031	1300.3501	1325.584	1349.1488	1362.2535	1488.7551	1491.9859	1509.5588	1511.0814	3041.1136	3043.9656	3051.2442	3055.4148	3068.66	3074.7223	3075.2536	3080.0931	3094.4948	3103.1531	3125.477
C1CC23CCN4C2C1C34	C1C[C@@]23CCN4[C@@H]2[C@@H]1[C@@H]34	
InChI=1S/C8H11N/c1-2-8-3-4-9-6(8)5(1)7(8)9/h5-7H,1-4H2	InChI=1S/C8H11N/c1-2-8-3-4-9-6(8)5(1)7(8)9/h5-7H,1-4H2/t5-,6-,7+,8-
