12
gdb 23765	3.32077	2.36446	1.38109	3.8306	62.24	-0.2178	-0.0487	0.169	799.7288	0.084458	-422.64868	-422.642516	-422.641571	-422.679067	23.483	
F	 0.0129151324	 0.0255112123	 0.0036480412	-0.047033
C	-0.041898107	 1.3488931973	 0.0110089661	 0.206624
C	-1.2130808533	 2.011134429	 0.0300186896	-0.210708
C	-1.1980574255	 3.4506467045	 0.0370145581	-0.180936
C	-0.0126616849	 4.0782941618	 0.0242555609	 0.07192
O	 1.171086569	 3.4179589629	 0.0050795588	-0.237203
C	 1.2484925276	 2.0285287676	-0.0028814431	 0.306842
N	 2.3603067872	 1.4222830197	-0.020817485	-0.52854
H	-2.1442578409	 1.4575148722	 0.0397292063	 0.1288
H	-2.1160382114	 4.0216698572	 0.0521810456	 0.121473
H	 0.1341148974	 5.150291234	 0.0276450671	 0.140383
H	 3.1343947293	 2.0865346516	-0.0278759857	 0.228378
121.6483	260.3462	317.6738	407.8057	479.2728	522.3867	557.5066	559.4975	747.5366	750.932	775.8868	845.6644	906.3489	914.3099	923.7964	985.9859	1040.5509	1107.1159	1218.4315	1269.5909	1294.5396	1395.9008	1433.3679	1629.008	1696.5218	1742.9708	3209.0215	3221.7036	3240.8522	3496.7504
FC1=CC=COC1=N	FC1=C(OC=CC1)[NH]	
InChI=1S/C5H4FNO/c6-4-2-1-3-8-5(4)7/h1-3,7H	InChI=1S/C5H5FNO/c6-4-2-1-3-8-5(4)7/h1,3,7H,2H2
