17
gdb 72974	2.67651	1.51178	1.23259	4.2827	73.55	-0.2482	0.017	0.2652	1051.2965	0.135351	-417.97285	-417.964241	-417.963297	-418.005577	32.675	
C	-0.1319475472	 1.5002601512	 0.01099439	-0.49965
C	 0.0567199935	 0.023487859	 0.1072461017	 0.432609
O	-1.0945722329	-0.8069554252	-0.0762145336	-0.320995
C	-0.6159168698	-1.725817131	 0.9500445976	-0.120819
C	 0.6732012072	-0.9392336104	 1.0952293903	-0.220762
C	 1.2830703754	-0.776883745	-0.3238604242	 0.085101
N	 1.1904395865	-1.7298247676	-1.3894809937	-0.579039
C	 2.5226798236	-0.0311522787	-0.2981518355	 0.277943
N	 3.5139175483	 0.5641160634	-0.2533057264	-0.349219
H	 0.8174701661	 2.0194595284	 0.1592531199	 0.158701
H	-0.5160245634	 1.7632020881	-0.9804279047	 0.144771
H	-0.8499582373	 1.8457888093	 0.7601356592	 0.135339
H	-1.262332996	-1.68028048	 1.8314036902	 0.128702
H	-0.5483890079	-2.7564263103	 0.5846307321	 0.107796
H	 1.2489407902	-0.7698311601	 1.9947752842	 0.125419
H	 1.5863786041	-2.6285095862	-1.1362354538	 0.240736
H	 0.2160192596	-1.8571108549	-1.6426239334	 0.253367
129.2242	151.8798	188.2959	228.7982	260.1398	291.6476	313.0724	345.043	456.902	483.8403	554.7925	569.973	675.2998	702.9139	762.5035	817.0239	884.4043	925.4092	955.8081	971.0872	988.6125	1055.3175	1070.5687	1118.2474	1159.2724	1172.3036	1234.1946	1256.8587	1306.6647	1334.3488	1400.8016	1440.7844	1476.4589	1493.579	1509.6732	1649.0985	2346.6499	3038.2758	3043.607	3093.7022	3110.1656	3136.9831	3211.7473	3505.1797	3590.9724
CC12OCC1C2(N)C#N	C[C@]12OC[C@H]1[C@]2(N)C#N	
InChI=1S/C6H8N2O/c1-5-4(2-9-5)6(5,8)3-7/h4H,2,8H2,1H3	InChI=1S/C6H8N2O/c1-5-4(2-9-5)6(5,8)3-7/h4H,2,8H2,1H3/t4-,5+,6-/m1/s1
