18
gdb 45271	2.90066	1.69423	1.27872	2.8176	77.31	-0.253	0.0213	0.2743	1011.3871	0.149475	-401.916563	-401.909423	-401.908479	-401.94807	28.649	
N	 0.077334563	 1.2126125396	 0.0669459754	-0.559372
C	-0.0027559368	-0.0367592471	-0.0111427708	 0.339726
O	 0.9998523368	-1.0051350229	-0.0425720336	-0.283105
C	 0.0351078669	-2.0775420303	-0.2922521183	 0.072226
C	-0.3506728653	-2.8571050477	 0.9837350749	-0.265472
C	-1.5236648585	-1.8662391084	 1.1957691049	-0.058549
C	-2.8560349076	-2.1839270738	 0.4428018552	-0.235413
C	-2.5212658871	-1.1055596385	-0.6376716619	-0.344145
C	-1.1043422131	-1.0399170679	-0.0856505258	 0.249571
H	 1.0493892477	 1.5215229221	 0.1202044743	 0.226759
H	 0.2598491808	-2.5920719	-1.2275969891	 0.091767
H	-0.649468509	-3.8961885046	 0.8175702932	 0.106476
H	 0.4324725845	-2.8304655499	 1.744784017	 0.120902
H	-1.6360840559	-1.3855666819	 2.1671948898	 0.084841
H	-2.8932003956	-3.2042002993	 0.0507024663	 0.104818
H	-3.767308535	-2.0049242639	 1.0159936921	 0.112811
H	-2.6380150547	-1.3763440035	-1.6902441402	 0.106672
H	-3.0558911513	-0.1688178719	-0.4581480533	 0.129485
127.8692	146.1069	240.5065	283.4781	397.1137	431.195	556.3071	617.8816	674.0684	705.7797	757.9346	790.4001	847.2173	856.7306	869.5072	892.4116	931.5501	958.7757	960.6216	1003.6196	1020.3753	1046.7771	1095.0453	1116.6151	1157.3832	1196.2677	1207.3651	1224.3083	1229.799	1259.3212	1268.0197	1279.5754	1294.8205	1323.1244	1369.0166	1463.1294	1477.2406	1493.058	1819.4288	3058.3346	3058.6026	3063.3557	3101.9228	3104.3203	3111.4761	3118.8855	3127.8181	3477.4167
N=C1OC2CC3CCC123	[NH][C]1O[C@H]2C[C@@H]3CC[C@]123	
InChI=1S/C7H9NO/c8-6-7-2-1-4(7)3-5(7)9-6/h4-5,8H,1-3H2	InChI=1S/C7H9NO/c8-6-7-2-1-4(7)3-5(7)9-6/h4-5,8H,1-3H2/t4-,5-,7+/m0/s1
