18
gdb 11398	3.48923	1.58931	1.45536	2.4911	69.35	-0.252	-0.0001	0.2519	953.4529	0.15411	-384.934488	-384.926495	-384.925551	-384.967145	29.781	
C	-0.5496114626	 0.7514036888	 0.0978719183	-0.237682
O	 0.1575722261	-0.456960542	-0.0721684822	-0.252351
C	 0.9871573962	-0.4951125564	-1.2407376713	 0.076261
C	 1.7288976288	-1.840372372	-1.2283210795	-0.265472
C	 0.791958563	-2.7997826511	-1.9958133607	 0.103647
O	-0.1254988274	-3.4878491117	-1.149786981	-0.438683
C	 0.0629325278	-1.849219888	-2.9297897031	-0.089023
C	 0.1636606548	-0.5861249418	-2.5167638233	-0.086859
H	 0.1302911476	 1.617560903	 0.1088741325	 0.104913
H	-1.301474896	 0.9118729329	-0.6881968683	 0.108196
H	-1.060113177	 0.6939774292	 1.0624043103	 0.129247
H	 1.6629307245	 0.3727492276	-1.2228912749	 0.06439
H	 2.6778555923	-1.7361370996	-1.7629500953	 0.102917
H	 1.9324578808	-2.1869383345	-0.2134654122	 0.115171
H	 1.3396590735	-3.5865077816	-2.5224372899	 0.081663
H	-0.5673362734	-2.8068863925	-0.625945168	 0.281157
H	-0.5252991404	-2.2010541735	-3.7700198291	 0.10288
H	-0.3181011485	 0.2703200231	-2.9746881123	 0.099627
60.0697	107.8745	188.6859	244.6282	274.7465	382.6888	416.077	439.1352	467.5359	578.1689	764.2396	793.4552	796.2108	822.6114	885.9218	934.0704	968.6591	985.1913	1005.8383	1047.9869	1081.8721	1119.5297	1138.1382	1181.4954	1190.6555	1219.1396	1255.6552	1299.3871	1319.8704	1333.3496	1355.5716	1379.2574	1445.1051	1468.474	1477.4847	1489.8684	1510.0265	1671.9634	2978.1587	2994.2551	3029.5185	3061.1103	3076.7605	3113.0196	3126.6274	3185.1368	3210.5204	3770.5064
COC1CC(O)C=C1	CO[C@H]1C[C@@H](O)C=C1	
InChI=1S/C6H10O2/c1-8-6-3-2-5(7)4-6/h2-3,5-7H,4H2,1H3	InChI=1S/C6H10O2/c1-8-6-3-2-5(7)4-6/h2-3,5-7H,4H2,1H3/t5-,6+/m0/s1
