19
gdb 11857	6.24588	1.11262	1.04843	2.2823	73.3	-0.2151	0.082	0.2971	1178.0965	0.164348	-365.01215	-365.003954	-365.00301	-365.044948	30.369	
C	-0.0286914	 1.537088124	 0.0835337035	-0.379422
C	-0.0751971783	 0.0131938709	 0.001831233	-0.121037
N	 0.5752650743	-0.4802710749	-1.1959987729	-0.073804
C	-0.0924379936	-0.2575272943	-2.5021479158	-0.252422
C	 0.2401090275	-1.7045108568	-2.8664156017	 0.432019
C	-0.2660239674	-2.5928546438	-3.9063768366	-0.265356
O	 1.0680351569	-2.0605912593	-3.955213919	-0.263142
C	 0.6216409209	-1.9459816482	-1.4059743887	-0.249244
H	 1.0061029912	 1.8907819851	 0.0682574176	 0.126967
H	-0.554440927	 1.9944415037	-0.7614932125	 0.118682
H	-0.5072730207	 1.8896082623	 1.0022103449	 0.112718
H	 0.4454723714	-0.4191290093	 0.8651155974	 0.102922
H	-1.1288313244	-0.3307407928	 0.0635722375	 0.068525
H	-1.1770943694	-0.0748134454	-2.422578375	 0.088863
H	 0.3595500197	 0.5183702419	-3.1283927654	 0.117433
H	-0.3344827809	-3.664258678	-3.7202381612	 0.115803
H	-0.9494691597	-2.2096247325	-4.6635324548	 0.115706
H	 1.5992460339	-2.405679843	-1.2255942419	 0.115998
H	-0.1504051144	-2.5014308194	-0.8486786384	 0.08879
67.6379	104.6268	186.4058	231.0976	295.0068	317.0475	351.4614	394.3832	444.7766	548.3455	724.0454	809.1677	825.7564	867.0712	919.0588	949.6432	960.3048	987.1459	1034.5336	1096.716	1113.0548	1121.5597	1126.643	1157.3006	1180.2823	1188.0775	1206.3521	1223.5218	1276.6308	1311.6704	1327.5393	1393.2993	1413.8112	1456.633	1485.1999	1488.6567	1491.3243	1504.8858	1517.4077	1547.1186	2884.7033	2961.743	2971.6755	3037.7614	3043.4515	3063.6318	3067.8005	3077.7505	3105.1305	3119.0383	3162.7429
CCN1CC2(CO2)C1	CCN1CC2(CO2)C1	
InChI=1S/C6H11NO/c1-2-7-3-6(4-7)5-8-6/h2-5H2,1H3	InChI=1S/C6H11NO/c1-2-7-3-6(4-7)5-8-6/h2-5H2,1H3
