19
gdb 127005	6.40636	0.78707	0.7104	1.145	80.99	-0.2031	0.0253	0.2284	1616.4916	0.159304	-419.218909	-419.209491	-419.208547	-419.254455	33.027	
C	-0.05318735	 1.5269377701	-0.0237148727	-0.391323
C	-0.0056134814	 0.0108721791	 0.0248479764	-0.047854
O	-1.3414931206	-0.472980727	-0.0487120333	-0.275807
C	-1.4826580091	-1.8205580758	-0.0144978539	 0.264006
C	-2.6971143551	-2.4798239671	-0.0777751133	-0.162725
N	-2.4095770088	-3.8083667456	-0.0254469421	 0.067107
C	-3.3480135542	-4.9086661185	 0.0012406164	-0.321217
N	-1.0950926068	-4.0506939057	 0.0739789515	-0.268796
C	-0.5160389798	-2.8464028132	 0.0787612616	-0.120757
H	 0.9592214543	 1.9377377241	 0.0305082611	 0.118511
H	-0.5173528319	 1.8678189514	-0.9533319134	 0.130161
H	-0.6336207146	 1.920853095	 0.8151901769	 0.130127
H	 0.5814387239	-0.3908986911	-0.814127272	 0.103093
H	 0.4647471501	-0.3379131019	 0.9559870211	 0.103135
H	-3.7041997753	-2.1057544389	-0.1570837667	 0.128112
H	-4.108502488	-4.7771974244	-0.7735185443	 0.137344
H	-2.7865237746	-5.8225671639	-0.1909571333	 0.160061
H	-3.8427864508	-4.9884892392	 0.9755561542	 0.138633
H	 0.5577919726	-2.7684287875	 0.1406988656	 0.108189
43.6586	55.7536	92.9666	141.3769	175.8329	246.6872	324.7804	344.3764	356.5844	483.9005	639.2635	666.2865	672.2183	750.1389	757.1059	821.7034	839.2443	919.7914	1003.318	1034.6363	1071.9513	1082.9008	1138.3539	1148.948	1186.8488	1206.8703	1222.6734	1296.5624	1367.7128	1382.0792	1404.011	1424.2325	1428.0396	1445.9398	1477.1742	1483.6373	1489.4768	1500.7793	1515.8339	1527.598	1628.8823	2986.775	3020.454	3035.9443	3046.5183	3099.9659	3121.6488	3124.0935	3161.4673	3258.7006	3270.6172
CCOC1=CN(C)N=C1	CCOc1cn(C)nc1	
InChI=1S/C6H10N2O/c1-3-9-6-4-7-8(2)5-6/h4-5H,3H2,1-2H3	InChI=1S/C6H10N2O/c1-3-9-6-4-7-8(2)5-6/h4-5H,3H2,1-2H3
