18
gdb 32745	3.14014	1.05839	0.81926	0.859	77.28	-0.1758	0.0339	0.2097	1405.2934	0.147137	-439.098236	-439.088924	-439.08798	-439.133276	33.592	
C	 0.1305261488	 1.4476602676	-0.0382071728	-0.391467
C	-0.1454993759	-0.0020065113	 0.3430326473	-0.122513
N	-1.2998426803	-0.5186186254	-0.4072729283	-0.408405
C	-1.6285107047	-1.8537570441	-0.2411230286	 0.353404
C	-2.7951868533	-2.4818803662	 0.0894240808	 0.146199
O	-3.936425362	-1.8245735636	 0.4832317863	-0.455289
C	-2.5414946571	-3.8925677387	 0.0110438397	-0.283422
C	-1.238734883	-4.0143931468	-0.3465522652	-0.017293
O	-0.6683515553	-2.7805972723	-0.5056299589	-0.178342
H	 1.0039010216	 1.8268921911	 0.5001912489	 0.118859
H	 0.3145406439	 1.5365158686	-1.1125798315	 0.129561
H	-0.7196782876	 2.0920183616	 0.2142556121	 0.113959
H	 0.7144485765	-0.6282771001	 0.0893828833	 0.127334
H	-0.2949686059	-0.0880772453	 1.431935134	 0.093809
H	-2.1287527487	 0.0443912664	-0.2536363037	 0.238881
H	-4.6830880338	-2.1730493537	-0.0143588035	 0.297307
H	-3.2350946599	-4.6940860791	 0.2136885386	 0.1071
H	-0.5843326833	-4.8531279584	-0.5102545485	 0.130318
48.5086	62.4098	121.1423	178.7528	244.6408	272.6819	279.848	335.7806	365.2776	510.2069	612.1486	645.2717	663.3581	696.572	713.2183	796.1908	798.5495	826.5826	896.7268	928.9514	1061.0752	1064.6709	1077.6946	1134.7301	1162.8963	1185.7237	1253.7636	1290.0019	1301.438	1325.6226	1379.945	1413.9171	1467.5256	1473.7887	1494.6618	1499.4589	1521.1885	1561.1856	1705.0447	2967.1535	3034.4506	3081.5412	3105.5771	3122.168	3249.6736	3291.9262	3553.447	3808.5696
CCNC1=C(O)C=CO1	CCNc1c(O)cco1	
InChI=1S/C6H9NO2/c1-2-7-6-5(8)3-4-9-6/h3-4,7-8H,2H2,1H3	InChI=1S/C6H9NO2/c1-2-7-6-5(8)3-4-9-6/h3-4,7-8H,2H2,1H3
