21
gdb 86078	2.47994	1.327	1.06328	2.8036	81.	-0.2483	0.0071	0.2554	1238.4836	0.181013	-424.251062	-424.241471	-424.240527	-424.284782	37.205	
C	-0.1010053507	 1.5923017471	-0.0262012983	-0.488781
C	 0.0113873253	 0.1010068166	-0.034741979	 0.309487
C	-0.3890329344	-0.7315996838	-1.0035408153	-0.247946
C	-0.0772141226	-2.1721868673	-0.6937732526	 0.316628
C	-1.1476985284	-3.1865494316	-1.0712858771	-0.426382
O	 1.1262353097	-2.6003894577	-1.3844476423	-0.478666
C	 0.2228253973	-2.1282627293	 0.8418752088	 0.116183
O	 1.1603442498	-3.1010252083	 1.2274247958	-0.446401
C	 0.6322144319	-0.6588477555	 1.1187650763	-0.348369
H	 0.8853473565	 2.0607952092	 0.0827218066	 0.129599
H	-0.5625541708	 1.9721208144	-0.9416542259	 0.125272
H	-0.6992822662	 1.9332119273	 0.8280885066	 0.132019
H	-0.8480882726	-0.4273495157	-1.9391911745	 0.09006
H	-1.2898090298	-3.210428283	-2.1554357077	 0.11708
H	-0.8463258586	-4.1854499771	-0.7414045821	 0.13125
H	-2.1001696984	-2.9363507619	-0.5958666054	 0.116539
H	 1.6630172532	-1.8140539922	-1.5329863071	 0.279193
H	-0.7091197476	-2.3357444257	 1.3812603595	 0.082114
H	 1.6785224385	-3.2734024055	 0.4257875423	 0.280052
H	 1.7258806049	-0.5568007318	 1.124914682	 0.105696
H	 0.2854916929	-0.3024453781	 2.0954769894	 0.105373
93.5345	132.1393	187.7262	219.8117	259.0355	270.2555	312.9555	315.7424	367.5271	401.1634	460.4679	511.0612	522.9293	568.1732	598.362	640.5701	751.5821	851.9261	882.1146	902.3377	944.13	956.3879	1013.4977	1032.9277	1049.0041	1091.8	1123.4312	1130.4287	1171.0008	1175.795	1226.7627	1253.1499	1288.15	1335.596	1350.5006	1386.8274	1410.5071	1413.5078	1446.2711	1478.5469	1483.8121	1485.7866	1486.4628	1492.9327	1704.5226	3017.934	3021.7633	3031.7282	3042.0228	3063.1413	3067.8731	3112.4117	3116.087	3120.6464	3178.5781	3695.4697	3806.7002
CC1=CC(C)(O)C(O)C1	CC1=C[C@@](C)(O)[C@@H](O)C1	
InChI=1S/C7H12O2/c1-5-3-6(8)7(2,9)4-5/h4,6,8-9H,3H2,1-2H3	InChI=1S/C7H12O2/c1-5-3-6(8)7(2,9)4-5/h4,6,8-9H,3H2,1-2H3/t6-,7+/m0/s1
