16
gdb 20228	4.45113	2.67559	2.30485	1.1698	73.7	-0.1936	-0.0311	0.1625	658.8927	0.13215	-309.340905	-309.33559	-309.334645	-309.36973	23.352	
C	-0.0540688651	 1.6572563912	-0.0421332913	-0.262835
C	 1.4415516725	 1.9870217022	 0.0090666017	-0.121946
C	 2.0940651158	 0.8554412818	-0.3204191989	 0.073573
C	 2.4788558828	-0.2360103173	 0.6558721863	-0.113781
C	 0.9774425043	-0.6671598307	 0.9963953862	-0.07808
C	 1.7834253652	-1.3142934877	-0.1112610279	-0.091943
C	 1.1761523455	-0.19540667	-1.0093883041	-0.09326
C	 0.0334848877	 0.0892040869	-0.0118370918	-0.015538
H	-0.5506222352	 2.1189307384	 0.819818893	 0.105667
H	-0.6199469786	 1.9672992041	-0.9327589744	 0.106726
H	 1.8214385872	 2.7048658132	 0.7298504373	 0.091577
H	 3.2392396528	-0.3074723471	 1.4241555439	 0.091777
H	 0.7368787747	-1.0660005052	 1.9748942717	 0.085054
H	 2.0367787556	-2.3473445209	-0.3012068686	 0.089018
H	 1.0522691919	-0.2218750472	-2.0901490751	 0.072465
H	-0.915224897	-0.4413522617	-0.1451067481	 0.061526
293.2371	366.3306	493.614	559.059	658.551	679.2427	738.5418	776.0051	777.4039	812.1481	837.578	866.5198	882.1135	897.7335	923.9908	942.3206	987.3646	994.9359	1022.0519	1041.2216	1044.1228	1071.6881	1111.5903	1147.7827	1169.937	1192.8351	1227.0427	1231.5402	1261.8867	1283.2979	1316.2865	1340.6224	1465.8165	1591.7651	2997.705	3055.6068	3060.1376	3133.8594	3165.1982	3181.4078	3188.2826	3218.7373
C1C=C2C3C4C3C2C14	C1[CH][C]2[C@H]3[C@@H]4[C@H]3[C@H]2[C@H]14	
InChI=1S/C8H8/c1-2-4-5-3(1)6-7(4)8(5)6/h1,4-8H,2H2	InChI=1S/C8H8/c1-2-4-5-3(1)6-7(4)8(5)6/h1,4-8H,2H2/t4-,5+,6-,7+,8-/m0/s1
