20
gdb 110015	2.32405	1.48616	1.0352	4.9931	74.77	-0.2501	0.0234	0.2734	1192.0724	0.17281	-440.336159	-440.327356	-440.326412	-440.369551	33.553	
C	-0.0653911073	 1.5867738606	-0.1615769903	-0.397906
C	 0.0109092428	 0.060786009	-0.017140453	-0.025043
C	 0.8810944271	-0.5643929363	-1.1414603997	-0.17939
N	 2.2008939684	-0.6232524275	-0.5314426241	-0.307554
C	 2.1918418983	-0.5759043324	 0.8273768845	 0.436096
O	 3.1684716662	-0.645984084	 1.5567574048	-0.411263
C	 0.7334405782	-0.4179111473	 1.2667557182	-0.134798
C	 0.6289961076	 0.4225200923	 2.5479036613	-0.080299
O	 1.2879733735	-0.2141149655	 3.6193657601	-0.429782
H	 0.9315441985	 2.0403099319	-0.1672958522	 0.129085
H	-0.5598231278	 1.8539403541	-1.1010830507	 0.115242
H	-0.6361007091	 2.0407969954	 0.6531193365	 0.128934
H	-1.0026082305	-0.347203976	-0.0627135959	 0.084326
H	 0.5227489949	-1.5650695679	-1.4206845069	 0.109159
H	 0.8915384924	 0.0536136111	-2.0449770781	 0.113863
H	 3.0474550716	-0.8295299228	-1.0377567964	 0.254305
H	 0.3858495129	-1.4282141623	 1.5239563578	 0.109853
H	 1.0334406647	 1.4309360846	 2.367900903	 0.088326
H	-0.421894148	 0.5397090888	 2.8364549122	 0.100516
H	 2.1856684156	-0.3961463557	 3.297975999	 0.296331
79.7546	160.5113	168.1367	200.3198	255.2911	267.7512	332.0973	404.5089	426.4868	494.0734	538.3581	618.7776	649.9413	710.7499	731.9132	805.9959	832.4089	940.3048	953.4197	1006.3102	1045.4859	1056.7023	1076.5963	1097.6625	1129.1089	1164.6249	1219.9677	1230.8993	1263.7123	1280.3409	1285.6623	1332.5301	1371.3897	1376.9556	1396.4229	1416.6715	1449.9367	1477.7584	1499.3327	1502.2761	1515.4031	1529.1793	1792.9296	2977.9746	3002.6362	3018.3772	3036.0476	3056.4932	3065.0609	3068.9486	3102.8977	3114.9436	3640.3779	3682.388
CC1CNC(=O)C1CO	C[C@H]1CNC(=O)[C@H]1CO	
InChI=1S/C6H11NO2/c1-4-2-7-6(9)5(4)3-8/h4-5,8H,2-3H2,1H3,(H,7,9)	InChI=1S/C6H11NO2/c1-4-2-7-6(9)5(4)3-8/h4-5,8H,2-3H2,1H3,(H,7,9)/t4-,5-/m0/s1
