18
gdb 115059	2.59456	1.30956	0.94019	3.2017	68.93	-0.2533	0.0106	0.2639	1242.2752	0.147816	-476.224178	-476.215287	-476.214343	-476.258345	31.841	
C	 0.0943635302	 1.4646790492	-0.0146069243	-0.246585
O	-0.0834757029	 0.057413848	-0.0837576923	-0.224578
C	 0.6188014162	-0.5573891829	-1.1029497094	 0.188783
O	 2.0505212319	-0.5201889017	-0.8313307063	-0.234255
C	 2.3836259885	-1.7900662744	-0.490818805	 0.110039
N	 1.5319809053	-2.7173408839	-0.621468319	-0.285857
C	 0.3127494775	-2.0724521841	-1.1530684831	-0.048207
C	-0.9059557915	-2.5467917865	-0.3541771917	-0.057364
O	-1.03995209	-3.9483665268	-0.4675577556	-0.426984
H	 1.1305513263	 1.7231954951	 0.2297272006	 0.133832
H	-0.1787169008	 1.9438277687	-0.9658848551	 0.114442
H	-0.5674845101	 1.8282021278	 0.7732406176	 0.137485
H	 0.478485002	-0.0270731779	-2.0532782399	 0.085657
H	 3.3991480737	-1.909331706	-0.1294505883	 0.144497
H	 0.1840754016	-2.3981073247	-2.1918474743	 0.10156
H	-0.8034955282	-2.2251299723	 0.6904238632	 0.103244
H	-1.8215880986	-2.1009762242	-0.7538807198	 0.109639
H	-0.1748573112	-4.3156503232	-0.2464197772	 0.294653
83.2799	102.6796	133.7367	150.0252	186.0508	264.953	329.0341	369.5381	462.8209	472.5916	553.0495	603.2202	807.3163	834.2916	880.5516	918.7282	935.5779	963.0938	1045.3998	1061.4585	1086.3939	1103.4111	1121.9058	1173.3438	1180.3835	1222.1802	1227.6297	1306.1106	1314.4998	1323.6518	1360.4367	1387.3038	1400.717	1436.3405	1480.8974	1486.3546	1504.5112	1510.3843	1707.6826	3001.2736	3019.8237	3027.3965	3048.0942	3076.2625	3090.2135	3136.5909	3213.6001	3779.1375
COC1OC=NC1CO	CO[C@H]1O[CH][N][C@H]1CO	
InChI=1S/C5H9NO3/c1-8-5-4(2-7)6-3-9-5/h3-5,7H,2H2,1H3	InChI=1S/C5H9NO3/c1-8-5-4(2-7)6-3-9-5/h3-5,7H,2H2,1H3/t4-,5-/m0/s1
