21
gdb 91423	2.50286	1.70618	1.30999	1.4956	77.46	-0.2354	0.0694	0.3048	1056.653	0.183865	-424.213772	-424.205598	-424.204654	-424.245976	33.094	
C	 0.1540999616	 1.5822885674	-0.1079576469	-0.387989
C	 0.0627670407	 0.0698619688	 0.002121476	 0.098498
O	 0.5792492813	-0.4827991789	-1.2186246438	-0.296514
C	 0.9925277576	-1.8373397918	-1.1177873417	 0.143539
C	 0.2241083423	-2.6204140126	-0.0161204442	-0.267155
C	 1.2215141414	-1.9522314145	 0.9767958022	-0.052409
C	 2.2396328586	-1.9282956151	-0.2047605711	-0.248249
C	 0.756515523	-0.5170965621	 1.2704628971	 0.116307
O	 1.8058946798	 0.2808624914	 1.7977162634	-0.434503
H	 1.1953619006	 1.9083516122	-0.1553221311	 0.114683
H	-0.3603236073	 1.9177253798	-1.0123763385	 0.119307
H	-0.3106589571	 2.0578443061	 0.7603142156	 0.117741
H	-0.9998935387	-0.2082535181	 0.0727624001	 0.072248
H	 1.032831814	-2.2311393632	-2.1352489663	 0.074821
H	-0.8482046767	-2.452156349	 0.1052497039	 0.103101
H	 0.4106202779	-3.6929610693	-0.1086360725	 0.103374
H	 1.4993523868	-2.4740529456	 1.8945195298	 0.071151
H	 2.7656621781	-2.8815210217	-0.300517069	 0.101757
H	 2.9624525099	-1.1104533652	-0.2897654402	 0.083741
H	 0.0044096244	-0.5307088537	 2.0681696559	 0.085308
H	 2.5630196019	 0.212004085	 1.2068440213	 0.281243
100.967	214.1427	234.579	270.1637	277.433	355.1498	397.2701	416.358	442.7858	508.355	536.3931	691.777	735.9824	807.7717	821.0238	874.1268	903.252	909.5225	931.4637	983.0321	999.4386	1003.6196	1053.3076	1072.8749	1093.8179	1103.279	1136.3873	1156.0206	1164.29	1211.0903	1238.7196	1251.3377	1267.699	1282.8739	1320.5524	1348.3824	1367.2659	1379.9444	1390.0933	1410.1278	1433.516	1475.006	1481.4724	1491.3769	1505.5934	2974.2245	3041.8726	3046.2899	3051.0634	3066.6762	3089.2541	3092.3456	3105.9406	3121.0841	3124.3283	3132.1706	3812.7057
CC1OC2CC(C2)C1O	C[C@H]1O[C@@H]2C[C@@H](C2)[C@H]1O	
InChI=1S/C7H12O2/c1-4-7(8)5-2-6(3-5)9-4/h4-8H,2-3H2,1H3	InChI=1S/C7H12O2/c1-4-7(8)5-2-6(3-5)9-4/h4-8H,2-3H2,1H3/t4-,5-,6+,7+/m1/s1
