21
gdb 9958	2.97475	1.49785	1.36349	2.2157	74.99	-0.2207	0.0766	0.2973	1055.2476	0.186533	-366.233222	-366.223319	-366.222374	-366.267537	35.935	
C	 1.71544169	-3.9653186821	 1.5959214462	-0.423335
C	 1.0556342494	-2.8042822359	 0.8825676402	-0.042189
N	 0.2480457814	-1.7833240247	 1.5695195429	-0.144521
C	 0.0637315931	-1.8413887757	 3.0124972554	-0.31695
C	 1.539778699	-1.3906343686	 0.9755380851	 0.279484
C	 2.7253878842	-0.985162084	 1.8293492466	-0.469499
C	 1.314343402	-0.4693236348	-0.2158109387	-0.102489
O	 0.8014121439	 0.7843921606	 0.2042159085	-0.423762
H	 2.266446794	-3.6735129424	 2.4910983573	 0.120917
H	 0.9710598937	-4.7148760195	 1.8873038987	 0.124711
H	 2.4240091989	-4.4541254464	 0.9189134581	 0.124938
H	 0.6119931666	-3.1037835356	-0.0683196528	 0.081291
H	 0.8967678927	-2.2668743451	 3.5876964683	 0.102829
H	-0.1176142166	-0.8292804797	 3.3886347455	 0.121874
H	-0.8278116506	-2.4403622803	 3.2263424615	 0.123281
H	 3.6598758683	-1.1490682684	 1.2813834314	 0.120363
H	 2.6563883289	 0.0837241975	 2.0551991814	 0.137388
H	 2.7954864272	-1.5286116454	 2.7725267303	 0.114491
H	 2.2580410901	-0.2604098171	-0.7322143968	 0.100074
H	 0.634748655	-0.954428775	-0.931751729	 0.084913
H	-0.0110803213	 0.5750229426	 0.6815803899	 0.28619
69.9083	111.5815	151.3736	161.2755	184.6199	242.8345	248.4477	299.554	327.4136	360.888	461.2422	484.2935	533.09	565.1421	702.8761	769.3235	807.5259	935.3237	962.6992	1001.5818	1046.2891	1058.9607	1077.6551	1118.0995	1146.7813	1159.7518	1173.7498	1191.6029	1214.7685	1296.5248	1349.1787	1387.7541	1411.7252	1414.6037	1424.7631	1434.1774	1463.2559	1480.5822	1489.908	1492.2407	1498.2103	1504.1889	1506.8434	1521.0158	2993.051	3004.7123	3038.0546	3041.3657	3067.5002	3068.3741	3081.49	3092.7344	3095.5246	3099.982	3131.5982	3142.0137	3778.4822
CC1N(C)C1(C)CO	C[C@H]1N(C)[C@]1(C)CO	
InChI=1S/C6H13NO/c1-5-6(2,4-8)7(5)3/h5,8H,4H2,1-3H3	InChI=1S/C6H13NO/c1-5-6(2,4-8)7(5)3/h5,8H,4H2,1-3H3/t5-,6-,7?/m1/s1
