21
gdb 13725	4.73931	0.84827	0.77925	2.5075	75.84	-0.2209	0.078	0.2989	1496.0404	0.187449	-366.222988	-366.213391	-366.212447	-366.257898	34.287	
C	-0.332054288	 1.3912570601	 0.1103932299	-0.313106
N	 0.0167342996	-0.0204569644	 0.1178675217	-0.076477
C	 1.3821115314	-0.3798758252	-0.2463916499	-0.2656
C	 0.9022646191	-0.5614181114	 1.153980775	 0.029536
C	 1.4722118191	 0.2559702128	 2.297101409	-0.225195
C	 0.5061790703	 0.379673692	 3.4825451687	-0.163138
C	 1.1043111547	 1.1448705678	 4.6552824079	-0.074111
O	 0.1308780941	 1.1970071114	 5.6870059935	-0.420879
H	 0.4817461474	 2.0717340378	 0.4066304435	 0.097102
H	-0.6408721508	 1.6666078569	-0.9033940791	 0.122831
H	-1.1827009547	 1.5615355365	 0.7784171304	 0.124668
H	 1.4959330009	-1.226250964	-0.9194978234	 0.110737
H	 2.0915142887	 0.4308243159	-0.417484705	 0.09931
H	 0.6092275852	-1.5678807026	 1.4552007446	 0.086485
H	 2.3981606562	-0.2326007021	 2.6309416098	 0.100438
H	 1.7687420587	 1.2514797141	 1.9477511865	 0.09691
H	-0.4160562119	 0.8838223907	 3.1719135241	 0.112621
H	 0.2115519191	-0.6176116081	 3.831513969	 0.107817
H	 2.0232669311	 0.640565876	 4.9981578329	 0.08275
H	 1.3944060481	 2.1578667674	 4.329296446	 0.082193
H	 0.5051785717	 1.6783078981	 6.4304438253	 0.285108
63.6984	77.2606	117.2278	139.434	204.5874	260.5395	270.5872	306.5423	334.0073	390.1498	494.6082	522.3871	734.6802	762.6256	791.9342	879.5755	924.3309	1001.1901	1034.3555	1046.1622	1060.7246	1086.0583	1096.4582	1116.5146	1132.776	1164.7206	1189.6829	1204.3912	1224.5256	1233.6885	1295.6386	1306.4377	1316.3672	1340.2102	1373.3653	1426.8761	1446.0981	1463.3835	1478.8526	1489.4964	1499.189	1505.2514	1513.7749	1528.4844	2954.0737	2976.1053	2978.6309	3015.3331	3035.8366	3055.7445	3065.1404	3077.6559	3081.9973	3097.243	3098.8139	3164.7957	3830.511
CN1CC1CCCO	CN1C[C@H]1CCCO	
InChI=1S/C6H13NO/c1-7-5-6(7)3-2-4-8/h6,8H,2-5H2,1H3	InChI=1S/C6H13NO/c1-7-5-6(7)3-2-4-8/h6,8H,2-5H2,1H3/t6-,7?/m1/s1
