20
gdb 68471	2.83286	1.6952	1.29486	2.2738	79.79	-0.2396	0.0299	0.2695	1036.6717	0.172653	-403.150587	-403.142719	-403.141775	-403.182664	31.361	
C	-0.0416831111	 1.5749331705	 0.0544278336	-0.443802
C	 0.033954698	 0.0594846266	-0.0486789664	 0.320427
C	 1.2027540058	-0.5511781066	-0.8885685727	-0.257064
C	 1.3288104239	-1.6573666275	 0.1905753043	-0.039747
C	 0.59228289	-0.7226976327	 1.1845778634	-0.257115
C	 0.5768610987	-2.9322919271	-0.1363265644	-0.069198
O	-0.8016904425	-2.8183001964	-0.5317130035	-0.243173
C	-1.51792248	-1.6712315828	-0.6484366234	 0.123844
N	-1.2596928626	-0.4487536584	-0.471738479	-0.296969
H	 0.9175535274	 1.9965619527	 0.3717737108	 0.09857
H	-0.3113484956	 2.0100790516	-0.9130457928	 0.119523
H	-0.808998902	 1.8702675951	 0.776980818	 0.119517
H	 0.9622915606	-0.8534323991	-1.91140517	 0.102641
H	 2.0777399754	 0.1044755692	-0.9032283034	 0.096984
H	 2.3458697946	-1.9546651662	 0.4654312401	 0.075003
H	 1.291395251	-0.1164516694	 1.7671615687	 0.096991
H	-0.1474115598	-1.1652252444	 1.8571769844	 0.102673
H	 1.077173444	-3.4573235901	-0.9594686198	 0.115119
H	 0.5791577103	-3.5982321067	 0.7354629849	 0.115142
H	-2.5202978661	-1.9574350083	-0.9672416928	 0.120633
85.8912	208.5144	242.4328	254.6732	345.4141	357.8317	375.8203	387.6443	527.2379	583.6791	650.3166	764.7411	815.1158	824.9227	862.2891	899.3995	910.4754	912.4708	923.7143	966.3568	987.7408	1039.5493	1064.638	1114.09	1117.0741	1149.9637	1180.8722	1214.7565	1219.099	1247.7604	1264.272	1311.1461	1312.2521	1364.9564	1411.1615	1415.0482	1436.6368	1470.3207	1485.4482	1489.741	1497.4219	1505.0979	1735.2231	3020.5717	3032.9944	3050.4336	3050.9948	3059.6214	3064.2567	3105.1535	3107.5642	3109.6296	3112.8728	3138.7861
CC12CC(C1)COC=N2	C[C@@]12C[C@@H](C1)COC=N2	
InChI=1S/C7H11NO/c1-7-2-6(3-7)4-9-5-8-7/h5-6H,2-4H2,1H3	InChI=1S/C7H11NO/c1-7-2-6(3-7)4-9-5-8-7/h5-6H,2-4H2,1H3/t6-,7+
