15
gdb 15096	8.50975	0.75952	0.71844	1.8663	83.23	-0.2446	-0.0149	0.2297	1510.6245	0.117799	-325.441407	-325.433193	-325.432248	-325.474696	29.588	
C	 0.0773689749	-3.6859668237	 0.2628762196	-0.548585
C	 0.0533700465	-2.4857687309	 0.1322939143	 0.29486
C	 0.0249286274	-1.133280605	-0.0151795887	-0.262735
C	-0.0008523039	 0.0694370623	-0.1452792162	 0.404122
C	-0.0175262839	 1.5172013819	-0.3088386752	-0.42689
C	 1.368309826	 2.1461159305	-0.2465655426	 0.046921
C	 1.5241430026	 3.5227024926	 0.2815635621	-0.247546
N	 2.0319172299	 2.3659489918	 1.0417850186	-0.30241
H	 0.1005616466	-4.7411152622	 0.3772890574	 0.191412
H	-0.4852808415	 1.7681038422	-1.2710664447	 0.145018
H	-0.6549537267	 1.9676061117	 0.4651393324	 0.130236
H	 2.0434530645	 1.8051092944	-1.0280072789	 0.107798
H	 2.2894741916	 4.180923202	-0.1191333977	 0.124019
H	 0.6317842334	 4.032917041	 0.637105069	 0.111223
H	 1.3982407927	 2.1411586314	 1.8056721006	 0.232557
53.7488	84.1341	156.2774	206.2912	336.1929	351.4652	369.9381	474.4582	535.8561	540.1393	592.0939	597.1149	738.023	786.8658	828.4631	922.8328	934.3581	974.8082	1049.7192	1123.8491	1147.8746	1175.511	1177.0388	1244.1934	1264.5026	1310.5826	1319.7692	1416.7437	1455.9783	1513.6863	2183.0852	2366.2074	3004.2182	3036.869	3106.0937	3137.4856	3191.8722	3493.3535	3505.9379
C#CC#CCC1CN1	C#CC#CC[C@H]1CN1	
InChI=1S/C7H7N/c1-2-3-4-5-7-6-8-7/h1,7-8H,5-6H2	InChI=1S/C7H7N/c1-2-3-4-5-7-6-8-7/h1,7-8H,5-6H2/t7-/m0/s1
