24
gdb 88975	3.50473	0.77499	0.75796	1.3169	90.81	-0.2195	0.0835	0.303	1675.3635	0.216578	-368.368579	-368.358449	-368.357505	-368.40427	37.851	
C	 0.4476289169	 1.5261479079	-0.6198640948	-0.403716
C	-0.0302381899	 0.2259535357	-0.0093983857	-0.007959
C	 0.8956334121	-0.9592855637	 0.1312290544	-0.290309
C	 0.3870366185	-0.2482144218	 1.3655921772	 0.018444
C	 1.3323547481	 0.5295927126	 2.262945931	-0.258158
C	 2.0514668869	-0.3629653551	 3.259219818	 0.040626
C	 2.5978752395	 0.1780564874	 4.5366521623	-0.266964
N	 1.4925897148	-0.7735914027	 4.5520743437	-0.078846
C	 0.1933785978	-0.2826688027	 4.9836826229	-0.313116
H	 1.4950957413	 1.732372286	-0.3820820396	 0.115532
H	 0.3643369616	 1.4923574346	-1.71184846	 0.116409
H	-0.1463959364	 2.3777230616	-0.2687169859	 0.114811
H	-1.056029772	-0.0205216874	-0.2733812327	 0.08093
H	 0.5257230378	-1.95275472	-0.0977089221	 0.108485
H	 1.9377946934	-0.8048699178	-0.1350199149	 0.105212
H	-0.3859580936	-0.7787850896	 1.9164329266	 0.083746
H	 2.0965501203	 1.0314485607	 1.657735971	 0.09908
H	 0.7904080581	 1.3275271528	 2.7831098277	 0.096961
H	 2.6034090159	-1.1715673424	 2.7799442784	 0.088263
H	 3.5444228704	-0.1730043995	 4.9407536671	 0.109548
H	 2.3702024828	 1.2206773611	 4.7621697408	 0.099095
H	-0.0156854067	 0.7678628616	 4.7264718353	 0.098603
H	-0.5961635322	-0.9057798377	 4.5505843856	 0.12109
H	 0.1329438842	-0.3739615915	 6.0732420638	 0.122236
45.4672	69.8365	116.1318	176.913	200.0874	211.7272	284.3094	302.8464	349.7094	400.2389	444.4825	473.9595	533.9091	741.79	762.484	784.7988	822.9003	869.4316	881.0419	913.2545	945.6294	977.1325	1032.3545	1046.8793	1069.6919	1081.9574	1110.6195	1116.3141	1127.2345	1133.6948	1152.8178	1168.09	1189.6679	1199.755	1204.8723	1245.998	1262.3962	1305.1904	1338.2482	1391.9625	1417.086	1423.5648	1429.0528	1447.7714	1473.4933	1489.8274	1493.4283	1494.8681	1505.5031	1506.9531	1515.5277	2973.5162	3026.8541	3035.3075	3060.3095	3066.9328	3078.21	3085.3521	3095.5705	3101.5229	3103.6163	3121.2552	3126.7589	3138.1842	3164.3924	3205.9906
CC1CC1CC1CN1C	C[C@H]1C[C@H]1C[C@H]1CN1C	
InChI=1S/C8H15N/c1-6-3-7(6)4-8-5-9(8)2/h6-8H,3-5H2,1-2H3	InChI=1S/C8H15N/c1-6-3-7(6)4-8-5-9(8)2/h6-8H,3-5H2,1-2H3/t6-,7-,8-,9?/m0/s1
