18
gdb 46518	3.65633	1.2612	1.0943	3.6842	72.42	-0.2364	0.0296	0.266	1126.5435	0.149104	-439.104618	-439.096732	-439.095788	-439.137087	30.648	
O	 0.0448448192	-0.0523860712	 0.1207764152	-0.375215
C	-0.0147426994	 1.1600895967	 0.0420356382	 0.383172
N	-1.1885094599	 1.8526142432	 0.0573251995	-0.323864
C	-1.3181701839	 3.2954907368	-0.1046051782	-0.211605
C	-0.0013129558	 3.9513618287	 0.2342603921	 0.434938
C	 0.096202016	 5.4265836479	 0.4246305333	-0.331761
C	 0.2686697065	 4.4997613906	 1.6147297267	-0.321835
O	 1.0608417376	 3.3505196812	-0.4523799279	-0.286437
C	 1.2554736378	 2.0075441757	-0.0324271547	-0.205443
H	-2.0187470655	 1.2777285178	 0.053791624	 0.249154
H	-1.5974579581	 3.5470726671	-1.1381224678	 0.117438
H	-2.1091912109	 3.6682231251	 0.5552502989	 0.11234
H	 0.9861021185	 5.9030609953	 0.0303790367	 0.13286
H	-0.8095301478	 6.0191023619	 0.3513716725	 0.117153
H	-0.5184846603	 4.4556909678	 2.3594508666	 0.118336
H	 1.2730929461	 4.3790109243	 2.0043460229	 0.126276
H	 1.7336504957	 1.9680737398	 0.9584418745	 0.121866
H	 1.930073484	 1.5376262915	-0.7504614625	 0.142628
76.5892	150.6288	195.3147	273.5384	332.6579	396.8685	443.1448	465.8367	510.03	538.151	639.172	674.1457	765.6007	773.7531	832.8523	891.2708	928.9397	949.0759	993.023	1035.6828	1053.2145	1067.9537	1082.7393	1088.8723	1112.1873	1188.4971	1236.1691	1263.7308	1278.1454	1322.8785	1370.8482	1379.9206	1395.378	1454.401	1469.5815	1487.0711	1501.2321	1518.3175	1797.383	2996.0563	2997.3452	3060.6977	3120.9524	3136.3851	3139.7293	3221.1638	3234.5159	3607.472
O=C1NCC2(CC2)OC1	O=C1NCC2(CC2)OC1	
InChI=1S/C6H9NO2/c8-5-3-9-6(1-2-6)4-7-5/h1-4H2,(H,7,8)	InChI=1S/C6H9NO2/c8-5-3-9-6(1-2-6)4-7-5/h1-4H2,(H,7,8)
