16
gdb 17251	4.56014	1.67811	1.63051	1.9913	63.61	-0.2356	0.0664	0.302	842.3963	0.130826	-383.663135	-383.656336	-383.655392	-383.69428	26.307	
O	 0.0028132548	 1.3523742829	-0.3753074222	-0.412209
C	-0.0768015199	 0.0359977109	 0.148134578	-0.194639
C	-1.4513002196	-0.5309411587	 0.0397151507	 0.4698
O	-2.4831331012	 0.0552920667	 0.8476674797	-0.339954
C	-3.304017975	-1.089939762	 0.4785327788	 0.067948
C	-3.6161721094	-0.8455693284	-1.0205013996	-0.231776
C	-2.1217207867	-1.0868140862	-1.2307189142	-0.14924
C	-2.0239482711	-1.9071740089	 0.057446679	-0.215068
H	-0.6730694986	 1.872441841	 0.0732839947	 0.29431
H	 0.6187595545	-0.5788671007	-0.432734121	 0.115581
H	 0.2464418031	 0.0044447375	 1.2001615163	 0.100426
H	-4.0596321262	-1.3399521808	 1.2199081506	 0.088855
H	-4.2166223208	-1.6536034544	-1.4463249727	 0.105482
H	-4.0431276896	 0.1296062089	-1.2743789302	 0.102059
H	-1.5753470656	-1.224587959	-2.1548346352	 0.097131
H	-1.6289737788	-2.8865029087	 0.2892222974	 0.101294
82.2737	138.8634	279.5468	356.8569	401.5962	454.3436	547.7543	677.971	756.0295	786.4022	803.581	831.7734	882.1208	919.8997	928.2254	960.7915	977.4995	1011.0071	1039.6139	1064.8266	1075.162	1097.0484	1129.1508	1157.5784	1171.7783	1231.9864	1251.7494	1272.5644	1315.3836	1375.5824	1402.9788	1466.4031	1487.9333	1490.5159	2987.9054	3050.136	3077.6914	3112.7517	3147.5428	3201.1326	3212.7235	3809.3427
OCC12OC3CC1C23	OC[C@@]12O[C@H]3C[C@@H]1[C@@H]23	
InChI=1S/C6H8O2/c7-2-6-3-1-4(8-6)5(3)6/h3-5,7H,1-2H2	InChI=1S/C6H8O2/c7-2-6-3-1-4(8-6)5(3)6/h3-5,7H,1-2H2/t3-,4+,5-,6-/m1/s1
