20
gdb 31152	1.96008	1.76746	0.99024	2.0228	83.84	-0.1879	0.0503	0.2382	1239.7005	0.169683	-403.182544	-403.172388	-403.171444	-403.217701	36.192	
C	 0.1319776261	 1.4105673303	 0.1048327607	-0.246972
O	-0.0675548761	 0.0098926064	-0.0186634354	-0.277637
C	 0.5814053512	-0.5662097744	-1.0831493071	 0.157382
C	-0.0360319531	-0.9600476928	-2.2519482356	 0.226559
C	-1.4604485972	-0.8433736882	-2.6738354169	-0.509024
N	 0.9407986455	-1.5529777303	-3.0187996268	-0.313473
C	 2.1444835674	-1.5390706061	-2.354891815	-0.179018
C	 1.9646735259	-0.9280464235	-1.1354133033	 0.188612
C	 2.9891957499	-0.7087069689	-0.0649541761	-0.507971
H	 1.1898970428	 1.6602965235	 0.2589208315	 0.113928
H	-0.2254918688	 1.9451902788	-0.7857396813	 0.107221
H	-0.440798366	 1.7372850254	 0.9766222118	 0.121504
H	-1.5889629587	-0.204642141	-3.5572100395	 0.120877
H	-1.9065254847	-1.8184706615	-2.9076113587	 0.122333
H	-2.0347821632	-0.4044024108	-1.8547753011	 0.145609
H	 0.7862460079	-1.9623254938	-3.9229129388	 0.254814
H	 3.0290443971	-1.9705331276	-2.7963379655	 0.110597
H	 3.3218207512	 0.3358352351	-0.0095504561	 0.118509
H	 2.5887381336	-0.9674437436	 0.921180932	 0.130006
H	 3.8781234992	-1.3224436073	-0.2384345489	 0.116146
66.7734	115.2754	133.726	145.2296	163.6263	191.7714	242.7355	257.9263	290.2763	406.8753	438.1029	505.827	561.5631	638.5105	685.0755	703.3996	746.2957	753.6449	971.7933	999.6758	1047.8172	1053.3186	1062.1505	1066.0417	1123.5915	1177.4669	1205.4427	1243.8906	1264.0863	1342.9764	1403.3617	1417.4847	1424.1734	1455.8655	1481.1061	1485.7205	1486.522	1493.418	1497.3308	1507.1276	1512.3553	1574.0051	1649.1127	2998.0821	3011.9003	3017.9424	3054.0433	3055.5539	3069.9732	3104.1048	3113.8393	3124.6671	3254.8465	3684.7432
COC1=C(C)NC=C1C	COc1c(C)[nH]cc1C	
InChI=1S/C7H11NO/c1-5-4-8-6(2)7(5)9-3/h4,8H,1-3H3	InChI=1S/C7H11NO/c1-5-4-8-6(2)7(5)9-3/h4,8H,1-3H3
