18
gdb 23434	2.7195	1.23126	1.02616	1.292	76.75	-0.2258	0.0156	0.2414	1215.4323	0.146098	-438.996978	-438.988148	-438.987204	-439.030829	32.71	
C	 0.2484357439	 0.8478942648	 0.4669934709	-0.240619
O	-0.1122117057	-0.1157262567	-0.50660105	-0.238374
C	-1.3406748456	-0.7086762305	-0.2554665356	 0.136346
C	-1.6004389673	-2.0899187341	-0.7193858244	-0.125872
C	-0.3266747421	-2.9507924484	-0.5935616886	-0.326241
C	-0.3354851186	-2.6317295506	 0.8953272446	 0.467822
N	 0.2911987977	-3.04285149	 1.9170707644	-0.275076
O	 1.3311582737	-3.9200583549	 1.5433771975	-0.394776
C	-1.5410636392	-1.7669646695	 0.8168510502	-0.227251
H	 1.2198104587	 1.2502732745	 0.1720651383	 0.130179
H	-0.4811404671	 1.670551734	 0.5085995955	 0.10526
H	 0.3296789511	 0.3972367673	 1.4649966533	 0.126483
H	-2.1907701485	-0.0259074338	-0.3323194114	 0.091627
H	-2.4680486886	-2.3519287408	-1.3110559794	 0.101624
H	-0.5017780817	-4.0158493801	-0.7672530399	 0.128086
H	 0.5404528761	-2.6234730945	-1.1696852548	 0.134351
H	 1.6983556125	-4.1689683755	 2.3979739459	 0.304652
H	-2.3284566693	-1.6981147612	 1.5569139936	 0.101779
62.1187	112.8396	178.4896	188.4631	211.7018	287.2696	319.0107	375.0958	473.5946	506.7134	535.5513	629.8139	717.8319	740.2714	820.9629	886.3145	931.5448	945.1311	957.3766	984.2191	1021.2576	1047.42	1084.0223	1090.684	1141.0303	1177.9654	1180.2162	1196.738	1236.9077	1251.3845	1292.4188	1327.6074	1411.2543	1419.7625	1462.9118	1486.9877	1490.0297	1506.2326	1785.9759	2988.8787	3049.9257	3072.6835	3074.961	3125.244	3127.3809	3192.6064	3201.637	3821.1362
COC1C2CC(=NO)C12	CO[C@H]1[C@H]2CC(=NO)[C@@H]12	
InChI=1S/C6H9NO2/c1-9-6-3-2-4(7-8)5(3)6/h3,5-6,8H,2H2,1H3	InChI=1S/C6H9NO2/c1-9-6-3-2-4(7-8)5(3)6/h3,5-6,8H,2H2,1H3/t3-,5-,6-/m0/s1
