19
gdb 121217	2.39391	1.08662	0.80498	1.6017	72.59	-0.247	-0.0363	0.2107	1428.1404	0.156454	-460.130551	-460.1207	-460.119756	-460.167001	33.318	
C	-0.071953488	 1.3438986499	 0.356204734	-0.230341
O	-0.088829466	-0.0492085871	 0.1444335712	-0.239163
C	-1.3887725076	-0.5944335248	 0.1720735765	-0.080535
C	-1.2516171294	-2.0845485457	-0.0760384252	-0.070607
C	-0.6805666248	-2.9266873954	 1.0848366385	-0.071869
O	-1.9175516791	-3.6678840104	 1.2226595118	-0.290579
C	-2.5145055604	-2.9716883055	 0.1173218533	 0.029636
C	-3.8127385324	-2.2909665086	 0.5045424634	 0.119636
O	-4.4071058311	-1.5280966553	-0.213828818	-0.244865
H	 0.9702916054	 1.668196677	 0.310653467	 0.129565
H	-0.6470178672	 1.8796961274	-0.4147281284	 0.109947
H	-0.485924985	 1.6119075787	 1.3409200262	 0.107217
H	-1.8664230296	-0.4047807108	 1.1501650721	 0.087156
H	-2.0331665842	-0.132556241	-0.5926035148	 0.113946
H	-0.7477173252	-2.2430264062	-1.0306686543	 0.099069
H	 0.1575491243	-3.5826389443	 0.8263803636	 0.111106
H	-0.4343705413	-2.3672817665	 1.9945903341	 0.113064
H	-2.7214869009	-3.6389589516	-0.7321364843	 0.111029
H	-4.1714533075	-2.5607386599	 1.5236089534	 0.096586
46.5777	73.2392	89.0664	102.7282	119.5596	203.7749	228.6136	313.1637	345.5175	423.9809	464.9499	566.2076	776.4967	857.1873	904.2214	927.3836	956.3462	996.028	1006.7054	1053.598	1092.3099	1125.7934	1148.9809	1158.8747	1172.6468	1192.2572	1215.4361	1237.5455	1250.166	1276.4343	1326.9709	1338.1676	1364.4166	1392.6132	1429.5388	1481.3772	1485.5832	1502.769	1520.834	1529.6307	1823.6587	2886.585	2944.6311	2975.208	2997.9695	3000.7044	3020.7806	3030.5424	3075.7938	3104.1834	3117.5995
COCC1COC1C=O	COC[C@H]1CO[C@H]1C=O	
InChI=1S/C6H10O3/c1-8-3-5-4-9-6(5)2-7/h2,5-6H,3-4H2,1H3	InChI=1S/C6H10O3/c1-8-3-5-4-9-6(5)2-7/h2,5-6H,3-4H2,1H3/t5-,6-/m0/s1
