21
gdb 118653	1.79729	0.97511	0.66297	1.5962	82.16	-0.2571	0.0357	0.2927	1714.932	0.1787	-424.179115	-424.167911	-424.166967	-424.216415	39.239	
C	-0.0032157675	 1.5053709581	-0.0079560409	-0.385265
C	 0.2133104433	 0.0049131728	 0.0839913401	-0.039421
O	 0.472938901	-0.4862039873	-1.2223537202	-0.245834
C	 0.6693717403	-1.8898316651	-1.2961540909	-0.075585
C	 0.6724023018	-2.2729382705	-2.782295611	-0.215656
C	-0.6555648304	-1.9593445857	-3.4762863328	-0.071313
O	-0.6626687616	-2.376022175	-4.8331574665	-0.419886
C	 1.9097258486	-2.3122930823	-0.6297189376	 0.33704
C	 2.9298647964	-2.6569161476	-0.0950796162	-0.45716
H	 0.8876769042	 1.9973397219	-0.4083229109	 0.128825
H	-0.8466910713	 1.7352112268	-0.6653644959	 0.124875
H	-0.2124585121	 1.91920385	 0.9829550621	 0.116752
H	 1.0572355619	-0.2274336868	 0.7494633238	 0.103879
H	-0.678998548	-0.492941382	 0.499011556	 0.08602
H	-0.1753793845	-2.4003139184	-0.799233286	 0.092108
H	 1.4900016989	-1.7295862852	-3.2714277172	 0.106977
H	 0.8877721965	-3.3416703085	-2.8754974693	 0.118191
H	-1.4681143762	-2.514763464	-2.9934017126	 0.106726
H	-0.8848976228	-0.8907253249	-3.3762254122	 0.108437
H	-0.0340306134	-1.8263113446	-5.3115617031	 0.28168
H	 3.8292139752	-2.9638498118	 0.3794700111	 0.19861
64.0251	77.3251	88.9961	93.6425	121.2933	180.6533	227.1476	255.5795	281.8171	305.0178	348.622	399.587	442.4343	577.3442	607.0568	626.7647	673.7796	775.6174	822.9158	870.3848	935.0625	981.9103	1035.2119	1068.4608	1075.7025	1098.26	1126.2682	1147.5943	1188.9891	1199.9621	1278.0523	1298.1497	1310.6145	1347.7803	1361.3716	1400.7617	1401.9554	1420.294	1434.247	1475.1479	1483.7045	1500.4225	1515.4591	1528.9175	2229.6335	2938.8971	2966.7734	3017.649	3021.2646	3040.1542	3044.932	3065.1792	3100.8678	3119.3094	3121.7793	3502.1391	3817.4362
CCOC(CCO)C#C	CCO[C@@H](CCO)C#C	
InChI=1S/C7H12O2/c1-3-7(5-6-8)9-4-2/h1,7-8H,4-6H2,2H3	InChI=1S/C7H12O2/c1-3-7(5-6-8)9-4-2/h1,7-8H,4-6H2,2H3/t7-/m1/s1
