17
gdb 42928	3.20061	1.19373	0.95584	3.4824	78.34	-0.2372	-0.0138	0.2234	1222.9591	0.134521	-384.642725	-384.634304	-384.63336	-384.676317	31.623	
O	-0.0083604611	 0.0454588402	-0.1649849258	-0.307023
C	-0.0579707098	 1.2319614054	-0.0166182226	 0.405228
C	-1.1677491875	 2.2422272232	-0.0581064738	-0.167355
C	-1.0548928657	 3.1488143922	 1.1619392365	-0.285567
C	-0.1077834333	 3.3683679955	 0.0350356568	-0.078107
C	 1.0380130038	 2.3409059247	 0.0724635158	-0.115561
C	 2.0547909182	 2.3789434709	 1.2248773804	-0.378999
C	 3.0347359764	 1.3021666858	 1.1535858938	 0.310683
C	 3.8459826044	 0.4194079455	 1.0773412667	-0.440162
H	-2.0827892064	 2.1817747565	-0.6333139179	 0.113381
H	-1.8671405714	 3.8629198194	 1.2503924783	 0.129862
H	-0.7212889603	 2.7467546303	 2.1137101059	 0.126997
H	-0.0944766814	 4.2821612736	-0.5442711231	 0.105695
H	 1.5766195165	 2.3225730211	-0.882030627	 0.117451
H	 2.5736744013	 3.3467169587	 1.2017981858	 0.134389
H	 1.5350108943	 2.3380307101	 2.1892055718	 0.131157
H	 4.552923552	-0.370239333	 1.0153075784	 0.19793
53.8019	94.0914	158.0561	221.3537	245.1035	337.2773	454.4961	473.8841	484.0985	606.7783	623.8929	642.3597	719.6982	743.0799	787.7908	862.8555	911.7914	916.6294	955.8191	992.5164	995.2312	1023.2459	1066.7786	1088.3307	1106.8617	1118.9951	1156.1986	1188.8194	1236.5971	1289.1883	1307.0048	1339.9797	1366.5392	1470.6095	1499.921	1887.4945	2242.9837	3017.8582	3048.0397	3063.5393	3126.0962	3198.4632	3202.3309	3213.3462	3507.9865
O=C1C2CC2C1CC#C	O=C1[C@H]2C[C@H]2[C@H]1CC#C	
InChI=1S/C8H8O/c1-2-3-5-6-4-7(6)8(5)9/h1,5-7H,3-4H2	InChI=1S/C8H8O/c1-2-3-5-6-4-7(6)8(5)9/h1,5-7H,3-4H2/t5-,6+,7+/m1/s1
