21
gdb 83581	2.50588	1.66021	1.58616	1.8783	76.1	-0.249	0.0723	0.3213	1000.021	0.185959	-424.24205	-424.234556	-424.233612	-424.273445	30.916	
C	-0.0582769871	 1.5332590748	 0.009806977	-0.430533
C	 0.0407644395	 0.0070177794	 0.0071546978	 0.014927
C	 0.9345210703	-0.584360054	-1.1015849111	 0.110911
C	 2.3701709118	-0.2547884669	-0.6278794494	-0.247567
C	 2.2723956199	-0.2638579997	 0.9260870393	-0.247567
C	 0.7889268944	-0.5978234235	 1.2122501441	 0.110913
O	 0.5428258173	-2.0116113274	 1.2084442002	-0.271521
C	 1.0374763285	-2.6475318065	 0.0544359872	 0.013136
O	 0.6909213683	-1.9979222977	-1.1450300311	-0.271524
H	 0.9185390146	 2.0222064288	 0.0739633081	 0.118098
H	-0.5450611736	 1.890176143	-0.9039680768	 0.119936
H	-0.6557641749	 1.8799303094	 0.8596093043	 0.119934
H	-0.9600978928	-0.4280292701	-0.0583578555	 0.082907
H	 0.7151085672	-0.2203543888	-2.1078113637	 0.073612
H	 3.0861109231	-0.9811888184	-1.0202667736	 0.112193
H	 2.6688919204	 0.7262764696	-1.0064278164	 0.104247
H	 2.9340315873	-0.9953001048	 1.3966470952	 0.112196
H	 2.5206027375	 0.7125226873	 1.3504634551	 0.104244
H	 0.4448532921	-0.2453382625	 2.1871867915	 0.073612
H	 2.1334725915	-2.7559887127	 0.122774918	 0.080397
H	 0.5814899448	-3.6398676695	 0.01996984	 0.117449
186.368	221.6367	238.3846	269.1441	329.6837	375.4246	453.1695	455.811	473.5771	648.085	744.2642	757.3225	783.1102	822.4485	892.4962	909.0558	929.5187	944.2167	951.8231	1005.4491	1017.6288	1058.7038	1083.7715	1092.9501	1113.6338	1122.6756	1191.653	1200.4717	1203.5527	1254.563	1260.7072	1286.2119	1303.5944	1325.6982	1333.5996	1350.6251	1374.0001	1397.349	1417.1115	1441.5346	1479.997	1494.531	1503.6992	1504.2176	1531.7617	2953.6314	3034.4626	3060.9036	3068.2907	3073.507	3087.0333	3092.5796	3096.984	3098.6261	3099.7277	3107.895	3117.5307
CC1C2CCC1OCO2	C[C@H]1[C@H]2CC[C@@H]1OCO2	
InChI=1S/C7H12O2/c1-5-6-2-3-7(5)9-4-8-6/h5-7H,2-4H2,1H3	InChI=1S/C7H12O2/c1-5-6-2-3-7(5)9-4-8-6/h5-7H,2-4H2,1H3/t5-,6+,7-
