19
gdb 14960	4.18442	1.51936	1.18928	2.6447	75.08	-0.2388	0.0258	0.2646	1049.9905	0.166903	-365.084709	-365.076687	-365.075742	-365.117403	29.615	
C	 0.0293971198	 1.4630843901	 0.1440438795	-0.324862
N	 0.0143484298	 0.0105727511	 0.1168100898	-0.28354
C	-1.0727900941	-0.6091865692	-0.0591135628	 0.390151
C	-1.1171475947	-2.1208401623	-0.0318772401	-0.270461
C	-2.1123871136	-2.7111585453	-1.0400121723	-0.211562
C	-3.463521979	-2.0100985874	-0.877124907	-0.204397
C	-3.2748007432	-0.5080441388	-1.0442888544	-0.066436
O	-2.2803813043	 0.0372364686	-0.1649296656	-0.262394
H	 0.920831286	 1.8154691951	-0.3852014334	 0.117322
H	-0.8602911644	 1.9312009839	-0.291323024	 0.115045
H	 0.1209278982	 1.8069829922	 1.1821668588	 0.123256
H	-0.1011217186	-2.4887287638	-0.1813566037	 0.125269
H	-1.4252248609	-2.4195032399	 0.9802704364	 0.118416
H	-1.7422503342	-2.5611292065	-2.0626498423	 0.104457
H	-2.2057706778	-3.7912832237	-0.8908585858	 0.101442
H	-4.1927468221	-2.3613378768	-1.6154536949	 0.101868
H	-3.8771547936	-2.2192571933	 0.1172134075	 0.107389
H	-2.9897980408	-0.2794086823	-2.081857955	 0.103931
H	-4.1899784126	 0.0451612982	-0.8181343608	 0.115106
71.7632	103.3898	159.913	241.785	273.2169	328.2098	409.5085	453.5901	525.1283	580.3363	678.6609	767.2744	834.7661	870.1135	932.6939	935.003	970.19	1046.0257	1060.7662	1095.8426	1111.5302	1131.25	1148.3512	1198.2589	1201.1659	1246.5592	1280.0096	1303.7738	1358.5179	1369.5822	1381.2043	1421.4311	1434.6652	1469.5473	1482.2486	1491.2413	1495.3472	1496.8524	1512.061	1767.7348	2998.295	3013.0078	3015.1478	3026.1612	3032.0185	3071.1798	3076.4931	3082.0223	3091.5901	3094.5139	3122.0492
CN=C1CCCCO1	CN=C1CCCCO1	
InChI=1S/C6H11NO/c1-7-6-4-2-3-5-8-6/h2-5H2,1H3	InChI=1S/C6H11NO/c1-7-6-4-2-3-5-8-6/h2-5H2,1H3
