18
gdb 65955	2.26781	1.48272	1.37937	3.0654	76.47	-0.2794	0.0118	0.2912	1062.7872	0.1467	-401.934406	-401.925665	-401.924721	-401.967753	33.144	
O	-0.0327085233	 1.2711438324	-0.5787210609	-0.456054
C	-0.0003571005	-0.0341414148	-0.0501991824	 0.198639
C	 0.0755845442	-0.1954665286	 1.5076056656	-0.279226
C	-1.148203956	-1.1549197241	 1.4553638181	-0.309839
C	-1.3842298815	-0.7096051347	 0.0082355426	 0.338519
C	-2.6222100239	-0.0676526838	-0.5464868721	-0.314341
C	-2.1254328316	-1.3777394038	-1.1073119989	-0.332749
C	 1.0057886125	-0.8475535856	-0.7534875537	 0.228417
N	 1.8124824556	-1.466525416	-1.3043149862	-0.343903
H	 0.8701874563	 1.5995525161	-0.6580125292	 0.294072
H	 1.0080967387	-0.5828248996	 1.9201442874	 0.11868
H	-0.1638858679	 0.7655468329	 1.9669611958	 0.123836
H	-0.8632353398	-2.2073139954	 1.5394374336	 0.119273
H	-1.9521420296	-0.9501177081	 2.1654075615	 0.111403
H	-3.509284379	-0.0755720677	 0.0788374914	 0.115631
H	-2.4927578404	 0.8267507714	-1.1445234743	 0.138327
H	-1.6691466581	-1.3729932685	-2.0920641558	 0.130506
H	-2.6732484156	-2.284252822	-0.8716091825	 0.11881
64.2156	125.9953	186.9861	232.61	254.1367	279.3814	327.0209	388.7108	467.6058	492.2873	544.6822	634.3188	664.4333	746.4373	778.0874	865.2756	889.0623	920.8576	938.3728	947.5075	982.2294	1001.0698	1058.4571	1080.0753	1109.0893	1149.4953	1185.3641	1192.9721	1210.6643	1236.7158	1265.5166	1269.7555	1334.9656	1394.6124	1462.1233	1469.7795	1496.49	1500.8352	2344.8387	3061.4512	3078.3392	3111.2268	3128.2521	3134.0982	3143.72	3210.302	3228.8937	3804.7422
OC1(CCC11CC1)C#N	O[C@]1(CCC21CC2)C#N	
InChI=1S/C7H9NO/c8-5-7(9)4-3-6(7)1-2-6/h9H,1-4H2	InChI=1S/C7H9NO/c8-5-7(9)4-3-6(7)1-2-6/h9H,1-4H2/t7-/m1/s1
