23
gdb 114383	3.22613	1.02222	0.94579	1.2032	86.28	-0.2461	0.0779	0.324	1376.688	0.204865	-388.257779	-388.248	-388.247055	-388.29199	37.575	
C	 0.4284541315	 1.7475460311	-0.6512388102	-0.466066
C	 0.4148531243	 0.245387082	-0.4259251322	 0.345855
C	-0.8187538669	-0.4130867411	-1.0313295692	-0.446723
C	 1.6473258352	-0.6166293604	-0.4970856365	-0.091197
C	 2.8818291017	 0.0544463595	 0.1244337567	-0.277189
C	 2.1397003665	 0.1051043904	 1.500839572	 0.039872
C	 2.0820740164	 1.3790076866	 2.325435291	-0.107182
O	 3.3907165754	 1.6092541163	 2.8356949669	-0.423219
C	 0.8791531452	-0.460398059	 0.8321744387	-0.141098
H	 1.3695530575	 2.2180437339	-0.3649404881	 0.120238
H	 0.2662768006	 1.9685514554	-1.7132527195	 0.109138
H	-0.3762088692	 2.2367953022	-0.0895452006	 0.110442
H	-0.8639223616	-0.2378388244	-2.1123838854	 0.112679
H	-0.819488782	-1.4952623394	-0.8675606172	 0.112755
H	-1.7371096249	-0.007171076	-0.59119129	 0.112277
H	 1.6864615697	-1.4832902209	-1.1478187871	 0.077557
H	 3.7603751229	-0.5923504765	 0.149084892	 0.104405
H	 3.1821480871	 1.0137498351	-0.3081974435	 0.097295
H	 2.5686928386	-0.6661844934	 2.1492209841	 0.085268
H	 1.7399484189	 2.2322398088	 1.7246858641	 0.084856
H	 1.3526461933	 1.2436288381	 3.1421721869	 0.080731
H	 3.3839130057	 2.4411183532	 3.3177423802	 0.284844
H	 0.2218793241	-1.1776651814	 1.3133270669	 0.074461
75.8945	120.3444	162.2286	226.5106	242.5199	254.8466	274.3492	291.9749	349.6694	373.4459	412.617	459.2192	553.3628	651.7588	723.5016	807.2393	836.3975	858.8117	900.7903	949.4013	965.0443	997.4301	1003.1857	1031.4841	1044.3138	1056.0387	1072.2264	1090.2487	1107.7658	1151.9487	1165.7666	1195.1484	1237.5276	1256.0384	1261.2491	1280.7487	1292.3952	1302.6009	1374.4721	1405.5644	1415.4842	1428.0811	1457.9022	1483.3647	1488.2075	1498.7717	1509.3505	1512.41	1523.4176	2958.9215	3020.255	3022.1538	3026.503	3052.1318	3056.6185	3075.1201	3082.6463	3099.5963	3113.2789	3133.5667	3152.8044	3169.0346	3829.4864
CC1(C)C2CC(CO)C12	CC1(C)[C@H]2C[C@@H](CO)[C@@H]12	
InChI=1S/C8H14O/c1-8(2)6-3-5(4-9)7(6)8/h5-7,9H,3-4H2,1-2H3	InChI=1S/C8H14O/c1-8(2)6-3-5(4-9)7(6)8/h5-7,9H,3-4H2,1-2H3/t5-,6-,7+/m0/s1
