18
gdb 117072	4.318	0.81821	0.72301	3.6329	71.35	-0.2387	-0.0595	0.1792	1578.2106	0.144499	-476.215162	-476.204924	-476.20398	-476.251497	34.878	
C	-0.5076605033	 0.7008377846	 0.0312460188	-0.241454
O	 0.8678371637	 0.3731726705	-0.0337905489	-0.215361
C	 1.3270175712	-0.396896609	 1.0370774413	-0.17284
C	 0.9299360503	-1.870440593	 0.9351713569	 0.302653
O	 0.2304930979	-2.3094745363	 0.0586151053	-0.281812
C	 1.4833374009	-2.7747824052	 2.033500195	 0.327892
N	 2.192508409	-2.2616220269	 2.9543468224	-0.524592
O	 1.1104116226	-4.0524504236	 1.8434978225	-0.203621
C	 1.5568869239	-5.0120881777	 2.7921583078	-0.267955
H	-0.7448335644	 1.2353085423	 0.9648368006	 0.099208
H	-0.7141080525	 1.3620979692	-0.8134339137	 0.128434
H	-1.1445978462	-0.1872407813	-0.0461274156	 0.130165
H	 2.4205657755	-0.3370469587	 1.0497103009	 0.145671
H	 0.9892559868	-0.0110968922	 2.012890014	 0.122804
H	 2.5170101992	-2.9383158172	 3.6444318628	 0.227569
H	 2.6520425306	-5.0649904537	 2.8188871848	 0.135312
H	 1.1801316315	-4.7836519725	 3.7965662418	 0.134556
H	 1.1549717032	-5.9700748193	 2.4628063034	 0.153372
42.3101	61.7489	128.0867	135.0076	145.6487	207.4517	216.3673	296.1155	317.2823	356.9652	404.5592	439.8233	505.0072	670.9582	725.3637	834.4426	876.7876	925.2219	975.0594	1021.7971	1093.5269	1130.9668	1171.5491	1174.8669	1181.284	1219.8032	1231.5	1298.147	1350.0794	1392.7133	1436.4016	1473.003	1480.2757	1486.0828	1493.2523	1502.3417	1513.1961	1709.7655	1824.0309	2980.2269	2986.203	3016.1052	3068.8611	3078.8542	3080.1968	3122.3776	3153.2336	3492.8305
COCC(=O)C(=N)OC	COCC(=O)[C]([NH])OC	
InChI=1S/C5H9NO3/c1-8-3-4(7)5(6)9-2/h6H,3H2,1-2H3	InChI=1S/C5H9NO3/c1-8-3-4(7)5(6)9-2/h6H,3H2,1-2H3
