18
gdb 9641	4.29173	1.17009	1.08496	1.041	75.86	-0.2387	0.0365	0.2752	1163.4486	0.150839	-347.756699	-347.747565	-347.746621	-347.790222	33.88	
C	-0.3204062719	 1.4416976443	 0.0798959677	-0.375524
C	 0.245318529	 0.0303771356	-0.1166954381	-0.19749
C	 0.8903075658	-0.5106190715	 1.1428858693	-0.028941
C	 0.0625335175	-1.1594518558	 2.2267014598	-0.34426
C	 1.0060448261	-2.0018734012	 1.3772992561	 0.182555
O	 0.4384035907	-2.8069427495	 0.3761417417	-0.44797
C	 2.2002970172	-2.5341760473	 1.9822909336	 0.303786
C	 3.1819242364	-3.0080238645	 2.4918842438	-0.472401
H	 0.4643204051	 2.14853265	 0.3713241302	 0.113427
H	-0.7771827806	 1.8132989727	-0.8425658211	 0.112468
H	-1.0847912378	 1.4550458956	 0.8640079211	 0.116553
H	-0.5453019542	-0.6531888137	-0.438655987	 0.114429
H	 0.9880791582	 0.0400013138	-0.9239958345	 0.10349
H	 1.7467116792	 0.0592173787	 1.4935016607	 0.098917
H	 0.315295832	-0.9893136492	 3.2667455154	 0.120541
H	-0.9926362056	-1.3085298513	 2.0203914186	 0.11758
H	 0.1814307794	-3.6408874029	 0.7850865779	 0.287494
H	 4.0568042035	-3.4178363938	 2.9323847947	 0.195346
69.2548	128.7367	132.0024	206.9732	230.8941	285.3551	301.045	354.478	421.7702	457.8186	554.0419	574.0019	602.7222	673.5285	702.5565	778.1674	805.8667	894.8121	917.0595	949.2993	977.9263	1048.0498	1056.3574	1090.6306	1126.562	1195.812	1236.9155	1251.9763	1292.2691	1332.5542	1363.8954	1408.1092	1422.3886	1477.1185	1489.9794	1497.7277	1508.6197	2229.5546	3031.179	3034.4307	3081.9817	3104.3847	3105.0421	3130.9225	3146.46	3226.5619	3502.8309	3799.8977
CCC1CC1(O)C#C	CC[C@H]1C[C@]1(O)C#C	
InChI=1S/C7H10O/c1-3-6-5-7(6,8)4-2/h2,6,8H,3,5H2,1H3	InChI=1S/C7H10O/c1-3-6-5-7(6,8)4-2/h2,6,8H,3,5H2,1H3/t6-,7+/m0/s1
