16
gdb 10935	4.25131	1.54532	1.3697	1.7281	71.06	-0.2387	0.0246	0.2633	943.8038	0.128441	-346.528377	-346.520683	-346.519739	-346.560109	29.372	
C	 0.0374296029	 1.5063469045	-0.0124247583	-0.487819
C	 0.057412119	 0.0171567018	 0.080699638	 0.476078
C	-0.8969957219	-0.8659454889	 0.8244903738	-0.34442
C	 0.594330633	-0.9814414302	 1.0811355744	-0.177037
C	 1.2416876819	-1.6642103401	-0.1285635199	-0.09047
O	 0.6084826825	-0.7082792373	-1.0357315704	-0.322158
C	 2.6924486982	-1.594516983	-0.1790197118	 0.34114
C	 3.8932801737	-1.552486049	-0.2008452245	-0.433998
H	 1.0386196972	 1.8979690765	-0.2152728968	 0.134656
H	-0.6269422107	 1.8296509709	-0.8217481744	 0.133863
H	-0.3301776715	 1.9430006304	 0.92065636	 0.123707
H	-1.4521049851	-0.3911985528	 1.628075083	 0.115173
H	-1.4301779028	-1.6536092781	 0.2984272583	 0.114178
H	 1.0596238827	-0.8490202068	 2.0478535815	 0.109894
H	 0.9024883236	-2.686456559	-0.3396527948	 0.106716
H	 4.9542970572	-1.5141858389	-0.230516858	 0.200496
96.8252	156.7531	202.7093	262.0589	312.8579	384.0007	437.5959	480.5722	523.5152	625.6118	658.4955	667.3657	806.8899	830.3904	871.1522	917.8476	929.6815	972.415	974.642	1025.7061	1049.3027	1067.3855	1100.8447	1125.0509	1199.6002	1248.8636	1267.4816	1358.9839	1385.1996	1427.9635	1473.6543	1488.5016	1502.7282	2238.095	3023.5831	3034.9907	3100.3065	3111.4237	3119.009	3202.3555	3213.5614	3503.025
CC12CC1C(O2)C#C	C[C@]12C[C@H]1[C@@H](O2)C#C	
InChI=1S/C7H8O/c1-3-6-5-4-7(5,2)8-6/h1,5-6H,4H2,2H3	InChI=1S/C7H8O/c1-3-6-5-4-7(5,2)8-6/h1,5-6H,4H2,2H3/t5-,6-,7-/m0/s1
