19
gdb 85822	2.62099	1.30625	1.09177	2.8007	76.29	-0.2668	0.0203	0.2871	1181.9506	0.158621	-419.206179	-419.1966	-419.195656	-419.240115	35.902	
C	-0.9761145005	 0.9859209404	-0.0772774531	-0.413988
C	 0.0908355357	-0.0898275418	 0.0308051345	 0.030191
C	 1.408628555	 0.0729585149	-0.7773708753	-0.262829
C	 2.1908957854	-0.5168412015	 0.434148736	 0.106548
N	 2.3326061036	-1.9619300211	 0.3062666187	-0.545456
C	 3.423374229	 0.1683046589	 0.8387816738	 0.211169
N	 4.3920590017	 0.6808702449	 1.2114686456	-0.349741
C	 0.9388763578	-0.1699709779	 1.3316025726	 0.097716
O	 1.0158987791	 1.0968407903	 1.9298067123	-0.421068
H	-0.5706298899	 1.9674320431	 0.1791020708	 0.13639
H	-1.3713215087	 1.0295735535	-1.0979210263	 0.113365
H	-1.8147366286	 0.7821679711	 0.5966999634	 0.118593
H	-0.3332198545	-1.0774956736	-0.1643272558	 0.095119
H	 1.5117945188	-0.4818299664	-1.7121753085	 0.107909
H	 1.6596842702	 1.1221518546	-0.9430471386	 0.126719
H	 2.9813948641	-2.1867182635	-0.4428530864	 0.242618
H	 2.7192811772	-2.3574306058	 1.1591667437	 0.239997
H	 0.6812069427	-0.9576121486	 2.0526345383	 0.069858
H	 1.7600451918	 1.1101086587	 2.5428990843	 0.296889
78.6679	126.1058	185.2906	217.0138	244.4821	254.2961	284.3602	317.7764	341.7305	388.6215	414.4942	475.101	579.3131	599.8921	636.656	734.3547	837.3392	878.4976	895.2396	913.2257	955.2663	991.6131	1025.8748	1096.2354	1147.355	1161.2553	1176.1187	1196.7875	1249.1089	1260.1963	1293.9248	1300.6286	1324.5229	1362.3343	1403.729	1414.9099	1469.6834	1491.5801	1501.5858	1657.0158	2331.5468	3007.4981	3036.8574	3074.0075	3083.1068	3098.0184	3127.5939	3136.8328	3486.2024	3566.188	3796.5483
CC1CC(N)(C#N)C1O	C[C@H]1C[C@@](N)(C#N)[C@H]1O	
InChI=1S/C6H10N2O/c1-4-2-6(8,3-7)5(4)9/h4-5,9H,2,8H2,1H3	InChI=1S/C6H10N2O/c1-4-2-6(8,3-7)5(4)9/h4-5,9H,2,8H2,1H3/t4-,5-,6+/m0/s1
