23
gdb 113100	4.93404	0.63885	0.60761	2.8161	87.66	-0.2459	-0.0186	0.2273	1895.5442	0.204109	-388.299826	-388.289632	-388.288688	-388.336396	36.732	
C	 0.2142026871	 1.4063221102	-0.1842386867	-0.378549
C	 0.1082472761	-0.1127107969	-0.0140693726	-0.195716
C	-1.3294503706	-0.6092270583	 0.0624888271	 0.066528
C	-2.2257753513	-0.539524095	-1.2093872275	-0.256696
C	-2.8255215217	-1.9173690141	-0.816149988	 0.029388
C	-3.1190917342	-2.9331381485	-1.9226134903	-0.298829
C	-3.639463787	-4.2366704823	-1.3623791239	 0.165799
O	-3.1297999268	-5.3155797939	-1.5237530513	-0.240484
C	-1.5969138019	-2.1395104132	 0.1101010308	-0.259843
H	 1.2580172501	 1.7297358313	-0.242317139	 0.112863
H	-0.2879208551	 1.738905858	-1.0993322057	 0.117829
H	-0.2511336488	 1.9318304033	 0.6572283248	 0.113518
H	 0.6153351649	-0.6136819332	-0.8499194527	 0.090606
H	 0.643250744	-0.4198465023	 0.894505227	 0.095883
H	-1.8428285357	-0.1180665114	 0.898535565	 0.067765
H	-2.9139273624	 0.3024009706	-1.3188026156	 0.097052
H	-1.6212685145	-0.616995473	-2.1206984599	 0.097413
H	-3.726524729	-1.7682964744	-0.2089787733	 0.075075
H	-3.8942686281	-2.5238861795	-2.587799315	 0.115322
H	-2.226846875	-3.1390203104	-2.5221053277	 0.114748
H	-4.5658108834	-4.1295292063	-0.7478673064	 0.067149
H	-0.8070853581	-2.6964709246	-0.406782697	 0.104018
H	-1.7649767288	-2.6039067163	 1.0850999681	 0.099163
39.3894	57.2749	86.9983	106.0565	190.0971	201.2929	241.8292	346.2684	374.4593	405.4067	425.6963	506.733	605.1847	746.8043	786.5307	813.6381	835.224	919.0886	927.5246	950.9517	973.3054	985.773	1015.8193	1024.4571	1069.2455	1097.8126	1126.5275	1144.6647	1171.1691	1210.7328	1231.9263	1249.4392	1265.9609	1267.0899	1282.521	1305.4251	1312.0194	1347.3787	1375.3413	1402.1257	1411.5769	1429.1787	1461.0582	1476.7925	1484.6401	1499.9101	1502.7553	1507.5278	1834.1886	2842.0749	3005.8825	3009.8986	3022.6876	3030.384	3030.6454	3037.3609	3043.8335	3047.5712	3088.8239	3096.3373	3098.2188	3102.9637	3104.0025
CCC1CC(CC=O)C1	CC[C@H]1C[C@@H](CC=O)C1	
InChI=1S/C8H14O/c1-2-7-5-8(6-7)3-4-9/h4,7-8H,2-3,5-6H2,1H3	InChI=1S/C8H14O/c1-2-7-5-8(6-7)3-4-9/h4,7-8H,2-3,5-6H2,1H3/t7-,8+
