16
gdb 12995	2.80584	2.55586	1.59097	2.6721	64.8	-0.2422	-0.0213	0.2209	814.9319	0.131006	-383.760597	-383.75357	-383.752626	-383.79155	27.49	
O	 0.1592143516	 1.3363507766	-0.3698007424	-0.476642
C	 0.0090500196	-0.0038384794	-0.0765015753	 0.356626
C	-0.3829426406	-0.9841019408	-1.1644567403	-0.345431
C	-1.3140203151	-0.7591752232	-0.0041950958	-0.105357
C	-1.2336759642	-1.7774783966	 1.1352132105	-0.223983
C	 0.2650433273	-1.8557562886	 1.520151277	-0.343089
C	 0.846506381	-0.530901632	 1.0355447999	 0.345023
O	 1.7595666799	 0.1018080374	 1.5182208797	-0.352417
H	 0.9036162207	 1.6275508852	 0.1798114017	 0.29485
H	-0.6475687616	-0.4973393882	-2.0967483675	 0.135154
H	 0.1391708588	-1.9297958394	-1.2771085995	 0.115084
H	-2.2450138145	-0.2354160003	-0.1869109094	 0.106083
H	-1.8163349761	-1.4189079593	 1.9898783223	 0.116536
H	-1.6425959733	-2.7513140707	 0.8468087074	 0.10826
H	 0.4414001341	-1.9786377145	 2.5899379101	 0.13493
H	 0.7802103223	-2.6803872161	 1.0132187118	 0.134373
111.9715	201.8584	284.8817	323.31	351.9509	435.7239	467.1625	529.4594	596.6094	673.9025	687.7903	805.1577	826.3205	886.0269	894.1206	936.1726	975.0272	1040.9296	1046.241	1066.4381	1079.7919	1109.9263	1179.0169	1206.5255	1235.7602	1274.8246	1319.911	1333.0828	1399.5985	1431.637	1462.1475	1486.5294	1502.7897	1812.3106	3044.1647	3048.3894	3084.3813	3121.4882	3123.4233	3184.6862	3217.3224	3706.3913
OC12CC1CCC2=O	O[C@]12C[C@H]1CCC2=O	
InChI=1S/C6H8O2/c7-5-2-1-4-3-6(4,5)8/h4,8H,1-3H2	InChI=1S/C6H8O2/c7-5-2-1-4-3-6(4,5)8/h4,8H,1-3H2/t4-,6-/m1/s1
