12
gdb 129099	2.36425	1.84436	1.22479	1.0431	74.01	-0.2497	-0.1022	0.1475	961.3822	0.074717	-464.852549	-464.844648	-464.843704	-464.885481	28.109	
N	-0.1353516174	 1.3707544619	 0.3038022765	-0.450882
C	 0.0101082375	 0.1376032165	 0.0235738965	 0.229278
C	 1.2802676578	-0.5677627314	-0.2081386749	-0.045931
N	 1.5235566119	-1.6796307344	-0.8081903589	 0.027828
O	 0.6723446334	-2.4434110055	-1.430472105	-0.296149
N	-0.9231734144	-1.9710899384	-1.9937191487	 0.006737
N	-1.5669433843	-1.2446600269	-1.3237953398	-0.035137
C	-1.2393578092	-0.7006789699	-0.0088074424	 0.342311
N	-1.9851977523	-0.8955090522	 0.9792451857	-0.41467
H	 0.7687538985	 1.851261189	 0.3100701827	 0.239347
H	 2.1649566041	-0.0938043301	 0.2106634451	 0.137509
H	-2.8164721056	-1.4403993985	 0.7394173335	 0.259759
69.2775	91.7913	225.016	238.845	281.4837	346.4016	375.187	466.0384	485.7381	582.9405	652.1042	742.739	775.2655	823.2711	853.7533	887.6816	940.2062	952.4845	1027.7437	1097.5243	1217.9222	1346.762	1377.2411	1602.443	1677.3045	1747.3992	1844.4003	3161.7728	3437.8514	3468.3259
N=C1C=NON=NC1=N	[NH][C]1C=NON=N[C]1[NH]	
InChI=1S/C3H3N5O/c4-2-1-6-9-8-7-3(2)5/h1,4-5H	InChI=1S/C3H3N5O/c4-2-1-6-9-8-7-3(2)5/h1,4-5H
