19
gdb 76270	2.31726	1.60203	1.05091	0.6454	77.9	-0.2544	-0.0052	0.2492	1160.2591	0.160506	-419.278264	-419.269469	-419.268525	-419.311823	33.303	
C	 0.1367596016	 1.6188192286	 0.2215423633	-0.395389
C	 0.0447769522	 0.0969191098	 0.0261411163	-0.07143
C	 0.8582135096	-0.4717188153	-1.1693726186	-0.128176
C	 1.1748490292	 0.4454576807	-2.3492816081	-0.407743
C	 2.1195248711	-1.0522805779	-0.5227864871	 0.41629
O	 3.1420540231	-1.3975873779	-1.0618963954	-0.361033
N	 1.8603278733	-1.1493365911	 0.8370033013	-0.364589
C	 0.6424825003	-0.6051453494	 1.24234763	 0.376952
N	 0.1028769128	-0.6191875151	 2.3902149897	-0.530795
H	 1.1750736624	 1.9493606004	 0.3314644279	 0.121106
H	-0.3013454635	 2.1516136291	-0.6266654775	 0.121267
H	-0.4040776804	 1.8992309489	 1.1281172208	 0.144518
H	-1.0102888251	-0.1773063589	-0.0474059746	 0.106556
H	 0.3217872189	-1.3492642876	-1.5565001974	 0.116794
H	 1.7002230384	 1.3503575632	-2.0332233223	 0.126937
H	 1.8209892032	-0.0837761251	-3.0538010694	 0.143014
H	 0.2618610177	 0.74481228	-2.8717375703	 0.117722
H	 2.5219795282	-1.5813250313	 1.4658984296	 0.258334
H	 0.6725718669	-1.1151045911	 3.0781304617	 0.209663
53.8887	133.3987	214.2313	249.85	252.6368	271.7995	284.0833	367.4394	440.9015	538.8152	600.3858	619.0539	628.386	691.6802	724.8407	768.9499	845.4044	874.2315	875.6759	997.724	1033.9444	1067.6987	1068.2783	1112.17	1148.0823	1166.2973	1227.25	1261.1054	1311.5954	1346.5233	1351.4503	1362.2836	1381.2455	1402.8844	1417.7792	1489.7957	1493.8605	1506.3413	1507.7902	1760.3857	1848.7363	3013.8337	3041.3812	3051.0208	3080.3301	3113.194	3121.7911	3129.5225	3133.1895	3454.3585	3616.5413
CC1C(C)C(=O)NC1=N	C[C@H]1[C@@H](C)C(=O)N[C]1[NH]	
InChI=1S/C6H10N2O/c1-3-4(2)6(9)8-5(3)7/h3-4H,1-2H3,(H2,7,8,9)	InChI=1S/C6H10N2O/c1-3-4(2)6(9)8-5(3)7/h3-4H,1-2H3,(H2,7,8,9)/t3-,4+/m0/s1
