15
gdb 110179	2.85149	1.1482	0.89662	2.5138	68.25	-0.2858	-0.0217	0.2641	1243.1513	0.112588	-453.942327	-453.933948	-453.933004	-453.975936	30.027	
O	-0.0249386304	 1.3922857992	 0.0972269475	-0.412327
C	-0.0366715558	 0.009177865	-0.1547016808	-0.077111
C	-1.4612870757	-0.5361961337	-0.0088234916	-0.182555
C	-1.6810500934	-2.0677427332	 0.1585399175	-0.047779
O	-2.2118448728	-1.8464031799	 1.5056645975	-0.250313
C	-1.9739650722	-0.4869554145	 1.4111356424	 0.463319
N	-2.0627477058	 0.4313668092	 2.2575647412	-0.548535
C	-2.6484453234	-2.7068182133	-0.7238954425	 0.293198
N	-3.4011339066	-3.2051449126	-1.4445672691	-0.303224
H	-0.4291006252	 1.5343879959	 0.9656402996	 0.306069
H	 0.3268781436	-0.1365014931	-1.1768363032	 0.125533
H	 0.6369803422	-0.5436742504	 0.5216167969	 0.095401
H	-2.1291274491	-0.0691536667	-0.734497306	 0.1453
H	-0.7647614136	-2.6627647416	 0.2090644914	 0.147839
H	-2.3892149917	 0.1075254198	 3.1683942193	 0.245185
82.1826	106.3746	147.18	173.0045	232.4744	312.5099	386.7465	431.1707	506.6817	518.9839	584.5267	679.2356	743.8033	825.1345	863.6037	930.8605	970.7039	1015.5944	1043.9363	1056.8394	1090.8135	1103.9531	1189.1297	1197.342	1241.0799	1276.0114	1339.337	1364.5994	1390.4268	1447.6014	1512.5174	1830.4404	2365.8031	2963.288	3077.3845	3079.6532	3113.7753	3493.7788	3731.9496
OCC1C(OC1=N)C#N	OC[C@H]1[C@@H](O[C]1[NH])C#N	
InChI=1S/C5H6N2O2/c6-1-4-3(2-8)5(7)9-4/h3-4,7-8H,2H2	InChI=1S/C5H6N2O2/c6-1-4-3(2-8)5(7)9-4/h3-4,7-8H,2H2/t3-,4-/m0/s1
