25
gdb 111283	2.62638	1.17993	0.96606	0.2924	92.95	-0.2404	0.0842	0.3246	1391.9744	0.228117	-352.343486	-352.333298	-352.332354	-352.378073	39.049	
C	 0.1453506592	 0.8660818976	-1.545982684	-0.379814
C	-0.1737760338	 0.5602770903	-0.0785012267	-0.189217
C	-1.4545948188	-0.2564753408	 0.0811638171	 0.018949
C	-1.4707835491	-1.7129623321	-0.4097431207	-0.111314
C	-0.5642083147	-2.5747967755	 0.4304003286	-0.336655
C	-1.9206058811	-2.2094285029	 0.9684095378	 0.367417
C	-2.9554984731	-3.2354535011	 1.3355456657	-0.499456
C	-1.9115086077	-0.7644641222	 1.5066499439	-0.070449
C	-1.086995612	-0.4455863198	 2.7501229884	-0.410647
H	 1.061030948	 1.4579145176	-1.6419359858	 0.10825
H	 0.2834235508	-0.0568712866	-2.1193922629	 0.120418
H	-0.6672752452	 1.4300660344	-2.0181897355	 0.11019
H	 0.6735460191	 0.0311854495	 0.3728844666	 0.091844
H	-0.2750020426	 1.5013066638	 0.4782233457	 0.090578
H	-2.2776896388	 0.3022749931	-0.3786643218	 0.063906
H	-1.8130608262	-2.0414385178	-1.3850017672	 0.076205
H	-0.4712765039	-3.603454703	 0.0946869506	 0.104157
H	 0.3510239285	-2.1779115421	 0.8616508194	 0.101465
H	-2.8998657688	-4.1100346297	 0.6784276422	 0.114314
H	-2.820654348	-3.59136948	 2.3647621231	 0.116812
H	-3.9695464936	-2.8249209098	 1.2597626983	 0.112035
H	-2.943209225	-0.4386503718	 1.6808108541	 0.065288
H	-0.0480126717	-0.7754751919	 2.6570656917	 0.113166
H	-1.0758808915	 0.6306862231	 2.9546047282	 0.111713
H	-1.51112942	-0.9422372724	 3.630125033	 0.110846
84.0645	123.335	157.2404	191.368	206.2906	209.6538	237.0285	273.4599	307.7173	348.1923	435.9479	515.6041	528.5533	642.1018	681.5642	749.2857	798.2004	817.1849	882.4105	900.5684	943.1938	970.9427	974.8591	1015.0797	1026.1019	1043.2067	1063.1723	1067.9517	1082.4682	1107.7953	1133.7691	1144.8425	1178.7494	1215.7065	1252.1404	1270.7578	1284.3212	1309.1375	1343.8113	1368.1916	1387.4571	1403.4304	1408.8041	1410.5405	1426.2648	1484.4436	1486.4716	1491.8807	1498.2476	1499.2115	1499.8544	1504.5905	1510.0798	3014.7826	3019.4706	3022.7994	3028.4017	3029.9106	3041.3921	3057.6417	3070.6302	3089.0526	3089.8493	3095.518	3101.1897	3104.2605	3112.3552	3165.4984	3191.6793
CCC1C2CC2(C)C1C	CC[C@H]1[C@H]2C[C@@]2(C)[C@H]1C	
InChI=1S/C9H16/c1-4-7-6(2)9(3)5-8(7)9/h6-8H,4-5H2,1-3H3	InChI=1S/C9H16/c1-4-7-6(2)9(3)5-8(7)9/h6-8H,4-5H2,1-3H3/t6-,7+,8+,9-/m0/s1
