21
gdb 113448	3.08543	0.9754	0.85386	1.6674	79.74	-0.2345	0.0726	0.3071	1422.8302	0.180812	-424.180823	-424.171324	-424.17038	-424.21533	35.607	
C	-0.024839869	 1.1895376476	-0.0058290601	-0.233922
O	-0.5083163616	-0.0579613323	 0.4488620847	-0.233424
C	 0.3479000777	-0.668523579	 1.3647416715	 0.048749
C	 0.1407343204	-2.1346065068	 1.5943482933	-0.38688
C	 1.3768327129	-1.6449103708	 0.8749920239	 0.336621
C	 1.7302637858	-2.0054296585	-0.5737932424	-0.336686
C	 3.0461464222	-2.6293223278	-0.0211515543	 0.1779
O	 4.2468182769	-2.4752991046	-0.731670268	-0.433144
C	 2.8299384192	-1.8607803753	 1.3167350948	-0.354121
H	 0.9454339717	 1.0971482083	-0.5140647326	 0.104865
H	-0.7601340172	 1.5826876791	-0.7118403379	 0.127984
H	 0.0879976406	 1.9045688354	 0.8238709128	 0.105909
H	 0.6041344105	-0.0433628218	 2.2237387576	 0.077528
H	 0.233192315	-2.5148645503	 2.6068943632	 0.111806
H	-0.6263919667	-2.6123611485	 0.9931099878	 0.124371
H	 1.0509800971	-2.6577183356	-1.127113433	 0.107134
H	 1.9396709272	-1.1200045102	-1.1863431586	 0.090519
H	 2.9306005038	-3.7060190194	 0.1293708724	 0.097877
H	 4.3805371165	-1.5346463064	-0.8898560108	 0.274965
H	 3.4024845752	-0.9246129414	 1.3334298365	 0.088754
H	 3.0159386917	-2.4025232416	 2.2477726492	 0.103195
63.5755	119.1849	140.0083	157.4499	209.1898	275.6809	322.5747	340.7563	388.2954	427.6311	455.4179	474.0557	607.2571	723.9694	791.739	828.4542	873.1564	896.0523	920.095	1003.6804	1010.2097	1036.8097	1063.7021	1072.6651	1078.4518	1111.389	1134.2586	1167.0012	1182.4652	1184.5996	1204.2491	1213.9609	1240.1671	1251.4624	1280.2189	1330.994	1340.3557	1410.3517	1435.8681	1469.0298	1471.1732	1485.1835	1492.031	1497.0681	1510.4966	2980.5666	3024.844	3029.8692	3036.7515	3067.9874	3075.1611	3096.5324	3105.592	3117.632	3122.9892	3212.6355	3804.3222
COC1CC11CC(O)C1	CO[C@H]1C[C@]21C[C@@H](O)C2	
InChI=1S/C7H12O2/c1-9-6-4-7(6)2-5(8)3-7/h5-6,8H,2-4H2,1H3	InChI=1S/C7H12O2/c1-9-6-4-7(6)2-5(8)3-7/h5-6,8H,2-4H2,1H3/t5-,6-,7+/m0/s1
