14
gdb 25986	5.12524	1.01154	0.86222	4.4529	66.39	-0.2204	0.0063	0.2266	1259.921	0.102538	-470.067552	-470.059653	-470.058708	-470.10115	28.713	
N	-0.2104675603	 1.3816614182	-0.0547522793	-0.569203
C	 0.1469027392	 0.0445100205	 0.0545526507	 0.453659
O	 1.2591483787	-0.3400120183	 0.3106551662	-0.33295
N	-0.9651212223	-0.7946285141	-0.1199141414	-0.472686
C	-0.9357770843	-2.1720425481	-0.0877087846	 0.525721
N	 0.0184949407	-2.9990245915	-0.358638766	-0.308564
C	-0.5734424633	-4.2480995011	-0.1795414731	-0.10364
C	-1.8659306378	-4.0969603715	 0.1754329615	-0.049766
O	-2.1210270209	-2.7423708916	 0.2457011636	-0.200903
H	 0.5934345151	 1.9907533753	-0.0838089398	 0.268889
H	-0.9335603109	 1.6246514491	-0.7155204688	 0.253798
H	-1.880783262	-0.393290588	 0.0103732571	 0.26429
H	-0.0152828791	-5.1584415696	-0.3297421257	 0.1265
H	-2.691136533	-4.7496052193	 0.3972304795	 0.144854
37.1442	81.8528	147.918	303.4116	372.3653	390.9884	408.2786	468.6394	562.105	616.7747	628.471	706.7055	743.0012	763.4978	837.0578	867.2178	923.1398	965.4378	1018.3164	1087.7295	1107.0868	1140.1861	1179.8509	1237.6243	1306.2622	1374.9811	1548.0526	1578.7916	1626.3514	1655.7003	1851.9506	3265.7587	3309.8677	3573.7036	3634.9294	3687.9253
NC(=O)NC1=NC=CO1	NC(=O)Nc1ncco1	
InChI=1S/C4H5N3O2/c5-3(8)7-4-6-1-2-9-4/h1-2H,(H3,5,6,7,8)	InChI=1S/C4H5N3O2/c5-3(8)7-4-6-1-2-9-4/h1-2H,(H3,5,6,7,8)
