15
gdb 126114	6.85314	0.67412	0.61844	1.436	79.82	-0.2579	-0.0413	0.2166	1750.1951	0.112651	-416.785275	-416.77689	-416.775946	-416.820158	28.959	
C	-0.0405123466	 1.5365090259	 0.0626684874	-0.36875
C	 0.0145454183	 0.0003232325	-0.0265951959	-0.334515
C	 0.6958927275	-0.4784210303	-1.2211993916	 0.310773
C	 1.2624017538	-0.8580180754	-2.214829047	-0.090886
C	 1.9252061594	-1.3158815787	-3.3771660757	 0.192016
N	 2.4219954678	-0.4921525495	-4.2770992114	-0.181131
O	 2.9720840589	-1.3501118459	-5.2305411981	-0.144759
C	 2.7436144654	-2.5913004427	-4.7966269048	 0.070967
N	 2.1105147023	-2.6598029491	-3.6730243739	-0.297827
H	 0.9663211583	 1.961441144	 0.0800537031	 0.136215
H	-0.5706221153	 1.9571886348	-0.7955711459	 0.136262
H	-0.5609724613	 1.8414335867	 0.9747769075	 0.121058
H	 0.5199835904	-0.4070817599	 0.8583618636	 0.141794
H	-1.0027975024	-0.4111784717	-0.008653956	 0.141799
H	 3.1027313735	-3.4023549606	-5.4132636513	 0.166984
27.7825	71.6136	102.2965	188.4434	219.1449	322.6895	425.0911	474.8655	507.7833	573.6471	628.0374	775.6094	785.0222	889.9365	900.7051	925.6744	981.7339	989.9761	1058.303	1093.3765	1102.5178	1141.5559	1282.922	1301.9171	1337.1824	1353.8525	1412.5421	1468.7202	1495.5484	1503.1877	1515.3586	1576.0721	2368.1352	3024.0235	3049.6403	3052.5199	3124.7127	3129.7422	3266.3602
CCC#CC1=NOC=N1	CCC#Cc1nocn1	
InChI=1S/C6H6N2O/c1-2-3-4-6-7-5-9-8-6/h5H,2H2,1H3	InChI=1S/C6H6N2O/c1-2-3-4-6-7-5-9-8-6/h5H,2H2,1H3
