25
gdb 102409	1.65123	1.5441	1.00643	0.2914	84.59	-0.2468	0.0667	0.3135	1356.6802	0.225392	-426.617889	-426.605804	-426.604859	-426.655347	43.103	
C	-0.0183576302	 1.4993741514	 0.2354826084	-0.399625
C	-0.0911295943	-0.0100480608	-0.0172835041	-0.208119
C	 0.6685471076	-0.5071430235	-1.267541379	 0.362555
C	 0.5693818464	-2.0471832099	-1.3437755333	-0.20813
C	 1.3430742605	-2.6965665541	-2.495821986	-0.399587
C	 0.1043945141	 0.1405071034	-2.5429956181	-0.11754
O	-1.2640076312	-0.2225664672	-2.6663135224	-0.42451
O	 2.0302962554	-0.0526504229	-1.2875229584	-0.288605
C	 2.8728136423	-0.4644597218	-0.2345771875	-0.247097
H	 1.0153428888	 1.8566593256	 0.2311412906	 0.123749
H	-0.5678983901	 2.0628479523	-0.524452334	 0.119215
H	-0.4603552674	 1.7468300466	 1.2055871397	 0.107186
H	 0.2878101999	-0.5478443713	 0.8599971164	 0.088162
H	-1.1358776249	-0.314728085	-0.1314163143	 0.117315
H	 0.9094960213	-2.467997509	-0.3900057598	 0.088157
H	-0.492385619	-2.299128164	-1.4245778452	 0.117325
H	 0.8996933646	-2.4552841503	-3.46649084	 0.119187
H	 2.3852361341	-2.3653224604	-2.5151515488	 0.123738
H	 1.3337069295	-3.7864391671	-2.396862125	 0.10719
H	 0.2313173702	 1.2286235373	-2.471951598	 0.094682
H	 0.6946634046	-0.2014221298	-3.4031288391	 0.094671
H	-1.6110431388	 0.1845004144	-3.4645065111	 0.290649
H	 2.5279625983	-0.1136562054	 0.7476321414	 0.107869
H	 2.993642039	-1.5553406935	-0.1887838773	 0.107867
H	 3.8517207293	-0.0194645549	-0.4328759851	 0.123693
47.0221	80.9119	97.0102	128.0667	157.761	180.8503	194.1357	225.7723	248.6403	262.2863	314.3943	323.2868	348.3443	399.5725	430.3507	538.7026	560.2615	710.3435	769.1629	781.1795	888.1731	925.6034	981.3641	998.0489	1047.5542	1066.5625	1076.7875	1090.4875	1121.0132	1161.7835	1162.0649	1181.357	1206.3937	1230.0671	1255.189	1282.7973	1289.0321	1351.6011	1375.6746	1375.7245	1405.3905	1410.4837	1453.6368	1469.7654	1473.1482	1492.601	1494.3676	1496.319	1497.6362	1502.4226	1509.0334	1514.8728	1534.2876	2994.9338	3010.5131	3030.2917	3040.1941	3041.3023	3043.3634	3044.3086	3047.7998	3080.2349	3087.8432	3104.3513	3105.7234	3106.3664	3117.734	3119.5347	3841.8577
CCC(CC)(CO)OC	CCC(CC)(CO)OC	
InChI=1S/C7H16O2/c1-4-7(5-2,6-8)9-3/h8H,4-6H2,1-3H3	InChI=1S/C7H16O2/c1-4-7(5-2,6-8)9-3/h8H,4-6H2,1-3H3
