16
gdb 131743	2.27419	1.6156	1.02084	2.6104	66.44	-0.262	-0.0116	0.2505	1121.402	0.126644	-471.198694	-471.190492	-471.189547	-471.231736	30.051	
O	 0.0154506928	 1.3221368779	-0.6796409573	-0.402971
C	-0.048971425	 0.0749146099	 0.0252068029	-0.197115
C	-1.4220353501	-0.5182573891	 0.0129957323	 0.209722
N	-2.0703356437	-0.8317210596	 1.1366388995	-0.261071
N	-3.2277999108	-1.3021529642	 0.6958534647	-0.083447
N	-3.4042740341	-1.309611866	-0.6205889558	-0.256072
C	-2.2596441182	-0.8139161134	-1.0908684382	 0.234845
C	-1.9975466813	-0.6049316714	-2.5554181967	-0.185
O	-1.7721397854	 0.7522196904	-2.887838202	-0.425353
H	-0.5803618004	 1.9374917664	-0.2365981521	 0.296333
H	 0.6633916777	-0.5742484147	-0.4939943428	 0.132746
H	 0.2895299454	 0.1852790102	 1.0619026498	 0.129019
H	-3.9410764242	-1.6298237904	 1.3270384174	 0.295075
H	-1.1502654581	-1.2386316112	-2.8676527854	 0.093594
H	-2.8749085848	-0.9351528466	-3.117387245	 0.130666
H	-1.0287877998	 1.0612099116	-2.3472919812	 0.289028
104.9213	113.2868	182.532	201.5259	240.614	343.2204	375.6576	422.3212	495.1852	524.0578	635.7069	667.1729	722.423	736.2938	819.591	953.5521	998.6506	1010.8985	1032.9223	1071.1072	1168.94	1188.4918	1198.3941	1233.814	1261.943	1347.1338	1377.2916	1404.7299	1417.4061	1450.0768	1471.8727	1494.7727	1500.8386	1515.6069	1562.3203	2959.2238	3040.1417	3087.4691	3099.5052	3667.9255	3689.0333	3801.7445
OCC1=NNN=C1CO	OCc1n[nH]nc1CO	
InChI=1S/C4H7N3O2/c8-1-3-4(2-9)6-7-5-3/h8-9H,1-2H2,(H,5,6,7)	InChI=1S/C4H7N3O2/c8-1-3-4(2-9)6-7-5-3/h8-9H,1-2H2,(H,5,6,7)
