21
gdb 110701	2.39287	1.52022	1.3132	0.9697	83.75	-0.2174	0.0219	0.2393	1116.417	0.182703	-387.074344	-387.065589	-387.064645	-387.107533	33.651	
C	-0.5274398336	 1.1416802575	 0.2999757614	-0.23293
O	 0.4100855079	 0.152502346	-0.0745815005	-0.223994
C	 0.9270852955	-0.5421115818	 1.0102797522	 0.127203
C	 0.1478085166	-1.6480387607	 1.7130380803	-0.163655
C	-1.0016061517	-2.218461581	 0.9544754572	-0.075522
C	-0.6115916679	-2.7939431837	-0.1837187053	-0.07773
C	 0.8969352092	-2.7915418086	-0.3512997616	-0.01808
C	 1.392787817	-2.3123713123	-1.7254881315	-0.401568
C	 1.3776939575	-1.9602221389	 0.8478147817	-0.133939
H	-0.0829673486	 1.8797480907	 0.9849446014	 0.103552
H	-0.8418666748	 1.6509426897	-0.613902241	 0.125518
H	-1.4058709846	 0.6975152983	 0.7881475333	 0.110959
H	 1.5386439937	 0.077114241	 1.6710401158	 0.08153
H	 0.1636464811	-1.6833830922	 2.7974915221	 0.0819
H	-2.0271197103	-2.1247699704	 1.294071841	 0.090044
H	-1.2707432384	-3.2202377495	-0.9324658437	 0.087743
H	 1.262126906	-3.8211053471	-0.2125507378	 0.078762
H	 1.0656633734	-1.2899850376	-1.9200101151	 0.145693
H	 2.4863336209	-2.3396331542	-1.7732828799	 0.107557
H	 1.0108549125	-2.9622613641	-2.5204836623	 0.1035
H	 2.3268604987	-2.2271553113	 1.2989772121	 0.083457
93.1128	136.5998	167.32	208.661	238.609	250.3106	301.348	369.319	466.1244	578.3843	629.1223	702.9568	750.3627	765.9385	781.3338	799.224	869.7012	910.5707	954.0569	993.9528	1014.8386	1030.2459	1043.5219	1058.475	1096.8803	1108.9144	1118.7331	1132.1524	1148.5344	1179.9633	1209.4505	1261.2157	1301.525	1306.4229	1333.3648	1360.9019	1376.3419	1406.4351	1419.9745	1484.1532	1486.4516	1496.4987	1504.4837	1509.8262	1671.0021	2974.3933	2984.372	3036.0383	3039.7015	3068.0722	3094.1401	3119.3286	3145.7965	3156.4343	3169.1597	3178.685	3203.8445
COC1C2C=CC(C)C12	CO[C@H]1[C@H]2C=C[C@@H](C)[C@@H]12	
InChI=1S/C8H12O/c1-5-3-4-6-7(5)8(6)9-2/h3-8H,1-2H3	InChI=1S/C8H12O/c1-5-3-4-6-7(5)8(6)9-2/h3-8H,1-2H3/t5-,6+,7-,8+/m1/s1
