15
gdb 66984	2.66762	1.60704	1.20886	2.5595	64.77	-0.2357	-0.0316	0.2042	1003.2615	0.110883	-457.684834	-457.6773	-457.676355	-457.717346	28.559	
O	-0.1907224664	 1.364862901	 0.1311111203	-0.445054
C	-0.002697192	 0.0094413764	 0.0789993111	 0.314424
C	-0.1731352972	-0.8458064816	-1.1953845348	 0.010327
O	 0.5389064351	-2.0673425724	-1.001307334	-0.285048
C	 0.0307748272	-2.0396992128	 0.3654267441	 0.030484
C	-1.1018989858	-1.0299793021	-0.0361372631	-0.186846
C	 0.8205940203	-0.8787874178	 1.0473116545	-0.149509
C	 2.3234145952	-0.8732189893	 0.960105442	 0.120646
O	 3.042425236	-0.3704040919	 1.7900143587	-0.254398
H	 0.5594269867	 1.8039168266	-0.2867307604	 0.299254
H	-0.3123939613	-0.4496635059	-2.192502603	 0.122232
H	-0.0700501064	-3.0216685022	 0.8200159459	 0.103422
H	-2.1739423377	-0.9955297766	 0.0923274784	 0.118684
H	 0.490247671	-0.7037575715	 2.0739670868	 0.106317
H	 2.7361595854	-1.3535611198	 0.0478765235	 0.095063
51.6896	165.4919	209.5226	286.1887	350.6867	365.0549	435.1321	536.0925	554.9686	638.2519	763.7241	795.3899	806.5955	836.9981	903.6128	921.6276	939.9921	965.2974	1019.2309	1036.9574	1078.8782	1107.4219	1120.7696	1146.37	1191.2539	1194.4579	1266.4888	1273.3139	1311.5187	1316.7289	1422.3498	1446.4354	1813.7375	2914.9004	3098.7448	3159.1882	3210.8554	3227.4085	3788.6813
OC12C3OC(C13)C2C=O	O[C@]12[C@H]3O[C@H]([C@@H]13)[C@H]2C=O	
InChI=1S/C6H6O3/c7-1-2-4-3-5(9-4)6(2,3)8/h1-5,8H	InChI=1S/C6H6O3/c7-1-2-4-3-5(9-4)6(2,3)8/h1-5,8H/t2-,3-,4+,5+,6+/m1/s1
