16
gdb 34079	3.59638	1.55186	1.33074	1.1249	79.29	-0.2334	-0.0056	0.2279	965.702	0.12485	-363.526673	-363.519773	-363.518829	-363.557615	28.526	
C	 0.0102191841	-1.2149548114	-0.0058614472	-0.324445
C	 0.0218717403	-0.0126234685	-0.0300672657	 0.056661
C	 0.0187796089	 1.4271228236	-0.0494426173	 0.146714
C	-0.8927066503	 2.2087916216	 0.9908107698	-0.171197
N	-1.3894352153	 3.1422767214	-0.048845219	-0.160729
C	-0.2143569523	 3.5642489035	-0.9546257736	-0.068453
C	 1.1796415191	 3.3969720656	-0.4783420127	-0.09469
C	 1.3487443385	 2.1534508666	-0.0149787274	-0.152743
C	-0.8367364143	 2.2329247119	-1.092525537	-0.086605
H	 0.0039404508	-2.2766532554	 0.0116431037	 0.185199
H	-1.7342732301	 1.5919479883	 1.3103150175	 0.130645
H	-0.3882241196	 2.6567701907	 1.8520867928	 0.106455
H	-0.5107588539	 4.388783431	-1.590649935	 0.103922
H	 1.9084531492	 4.1966529013	-0.4635699377	 0.109428
H	 2.2182782529	 1.7462126136	 0.4843863052	 0.115306
H	-1.410310638	 1.8408035064	-1.9259574265	 0.104533
146.5109	153.823	366.9865	381.2835	468.8417	507.8845	540.126	559.5102	622.6214	647.0278	663.7954	714.9042	748.6265	789.3828	812.2189	854.4827	912.2797	921.8133	969.1392	976.5405	999.2317	1030.3064	1075.5001	1085.9278	1133.5403	1170.0997	1191.7967	1238.8084	1259.7631	1274.2777	1360.5069	1368.2199	1487.9492	1637.7563	2238.4993	3054.1995	3129.808	3165.813	3197.7134	3210.277	3233.2902	3501.8822
C#CC12CN3C(C=C1)C23	C#C[C@@]12CN3[C@@H](C=C1)[C@@H]23	
InChI=1S/C8H7N/c1-2-8-4-3-6-7(8)9(6)5-8/h1,3-4,6-7H,5H2	InChI=1S/C8H7N/c1-2-8-4-3-6-7(8)9(6)5-8/h1,3-4,6-7H,5H2/t6-,7-,8-,9?/m0/s1
