17
gdb 35779	3.86395	1.22039	1.02201	0.3506	74.43	-0.2335	0.027	0.2605	1154.0893	0.135304	-421.753814	-421.745907	-421.744963	-421.786246	30.686	
C	 0.018409892	-1.1891678665	-0.0290374495	-0.414262
C	 0.0381579474	 0.011353838	-0.007715168	 0.306667
C	 0.0069858454	 1.4658762529	 0.0473436371	-0.080769
C	-0.7884240237	 1.9598731989	 1.2638569846	-0.0922
O	-0.88419367	 3.373899202	 1.2687032807	-0.258498
C	 0.2753018588	 4.0624768223	 0.8993131679	 0.096063
C	 1.5964294099	 3.9291238691	 1.6184379381	-0.345391
C	 1.4147174024	 3.3500987331	 0.2269116973	 0.056725
O	 1.3502144999	 1.9516807154	 0.1320069107	-0.266796
H	 0.0119745511	-2.2509239286	-0.059666833	 0.201773
H	-0.4740474315	 1.8611369009	-0.8617674686	 0.107363
H	-1.81322695	 1.5821364502	 1.2335864964	 0.124954
H	-0.3014947247	 1.5832750336	 2.1749246323	 0.111636
H	 0.0046416403	 5.047821812	 0.5351245979	 0.109152
H	 2.1977140703	 4.8224068327	 1.747482419	 0.115966
H	 1.6824934889	 3.1988012246	 2.4148325419	 0.129219
H	 1.9178779436	 3.8097888593	-0.6208854348	 0.098397
90.929	144.8397	163.9309	278.7261	335.98	394.0326	476.4364	477.1426	521.4953	540.1641	631.5375	678.3373	699.2221	750.5071	803.1592	852.6834	914.6815	986.4927	1001.4591	1028.3968	1054.6386	1063.6512	1079.7908	1110.6993	1123.3339	1168.3031	1186.9807	1255.1545	1266.8104	1314.48	1345.4098	1370.6154	1393.3564	1419.8263	1472.9771	1497.9629	2246.3436	2976.3035	3007.8902	3104.9608	3122.823	3138.5463	3166.1991	3231.1054	3503.4707
C#CC1COC2CC2O1	C#C[C@H]1CO[C@H]2C[C@H]2O1	
InChI=1S/C7H8O2/c1-2-5-4-8-6-3-7(6)9-5/h1,5-7H,3-4H2	InChI=1S/C7H8O2/c1-2-5-4-8-6-3-7(6)9-5/h1,5-7H,3-4H2/t5-,6-,7+/m0/s1
