25
gdb 80475	2.06735	1.50988	1.31398	0.2161	91.11	-0.2545	0.0696	0.324	1194.2274	0.230378	-352.359314	-352.349858	-352.348913	-352.393239	37.48	
C	 0.0056840085	 1.5808128766	-0.0442564839	-0.422746
C	 0.0680155148	 0.0690623692	 0.0096636343	 0.008931
C	 1.3174746318	-0.7367120618	-0.2683605372	-0.069563
C	 2.661319665	-0.0250406865	-0.1461477251	-0.250158
C	 2.9521968676	 0.1706622475	 1.374949904	 0.035356
C	 3.5453443702	 1.5448612257	 1.6996659383	-0.408752
C	 1.643102654	-0.2387294115	 2.1546279066	-0.003632
C	 1.0338286123	 0.8086695449	 3.0996551689	-0.399103
C	 0.6766973486	-0.7877937609	 1.1028862338	-0.066767
H	 0.9191034786	 2.0634161026	 0.3093222416	 0.123939
H	-0.1565226702	 1.9160659882	-1.0756295419	 0.111254
H	-0.8244780974	 1.9646712981	 0.5587520141	 0.115554
H	-0.830786252	-0.3853597307	-0.4038496402	 0.077401
H	 1.2464262338	-1.5738572464	-0.9548618129	 0.073894
H	 3.4496180862	-0.6212907066	-0.6158203504	 0.093844
H	 2.6598027638	 0.9392582312	-0.669267565	 0.093795
H	 3.7131179626	-0.5676834686	 1.652131771	 0.072649
H	 2.8628052885	 2.3626187923	 1.4450644534	 0.118239
H	 3.7964884441	 1.6412336357	 2.7607787162	 0.11096
H	 4.4673091283	 1.7021452452	 1.1294724166	 0.109997
H	 1.909222733	-1.0931175265	 2.789444003	 0.070204
H	 0.743663832	 1.7276929716	 2.5858777551	 0.11656
H	 0.134437483	 0.4021728534	 3.5744091482	 0.10785
H	 1.7311321964	 1.0789268176	 3.8993731394	 0.107251
H	 0.0930406966	-1.6546959904	 1.3986024522	 0.073042
42.6058	170.4053	209.8499	232.1818	253.1266	270.9467	285.1695	295.8124	359.9803	444.8393	483.2874	528.5361	648.6093	672.0592	709.4056	750.3988	772.035	861.9354	903.0509	919.8079	947.6078	971.2	1003.7458	1020.6905	1048.8121	1058.9426	1092.7429	1099.9647	1108.4492	1121.7993	1141.9628	1167.1373	1177.418	1226.2096	1246.3931	1305.8193	1313.3794	1331.2532	1357.8351	1363.1814	1368.2932	1377.6834	1407.9242	1417.126	1420.4741	1443.8556	1486.1292	1492.7201	1494.1362	1501.2558	1508.8791	1511.3763	1514.8041	3002.5421	3024.569	3028.8742	3029.2333	3031.4569	3039.9474	3072.2098	3081.0191	3092.3042	3095.6366	3101.3111	3107.6929	3125.1669	3130.257	3140.7682	3158.1848
CC1C2CC(C)C(C)C12	C[C@H]1[C@H]2C[C@@H](C)[C@@H](C)[C@@H]12	
InChI=1S/C9H16/c1-5-4-8-7(3)9(8)6(5)2/h5-9H,4H2,1-3H3	InChI=1S/C9H16/c1-5-4-8-7(3)9(8)6(5)2/h5-9H,4H2,1-3H3/t5-,6-,7+,8-,9+/m1/s1
