20
gdb 69524	2.40461	1.64589	1.27444	3.3888	79.55	-0.2099	0.0701	0.2801	1100.4651	0.167763	-403.069535	-403.060261	-403.059316	-403.102737	35.638	
C	-0.1045789322	 1.5822355827	 0.1229416536	-0.51293
C	 0.080773616	 0.0988564898	 0.056647847	 0.276269
N	-0.8305213531	-0.8677459197	 0.7137217213	-0.354338
C	 0.6218217407	-0.8724006168	 1.0344845848	-0.223721
C	 1.3797630394	-1.6258812135	-0.1206574674	 0.357878
C	 2.6633863127	-2.3768578306	 0.0056833125	-0.509369
O	 0.4094605857	-2.0467052847	-1.0870045974	-0.301954
C	 0.8371335258	-0.6791047074	-1.1039620675	 0.314762
C	 1.3486577412	-0.0971213492	-2.3811760717	-0.511246
H	 0.810858921	 2.1124674449	-0.1623973657	 0.124134
H	-0.9044255849	 1.9169821662	-0.5483382858	 0.130846
H	-0.3661871926	 1.8980765496	 1.1388408312	 0.119043
H	-1.2849689514	-0.3568972086	 1.4732444782	 0.221769
H	 0.9884423499	-0.7131149883	 2.0411411217	 0.090413
H	 2.5040045518	-3.3321718292	 0.5189698104	 0.134801
H	 3.0858711894	-2.5875780911	-0.9803683062	 0.132217
H	 3.3944775559	-1.8026053934	 0.5850565309	 0.121747
H	 0.5236694235	 0.1093075487	-3.072786402	 0.134111
H	 1.8802584612	 0.8433078427	-2.202412517	 0.121934
H	 2.0325799699	-0.7953952721	-2.8710659708	 0.133636
143.3372	174.1145	182.749	188.6776	194.	226.0902	288.2191	337.7117	372.8311	456.3611	519.2511	562.2711	583.9124	616.547	734.3518	759.1693	806.5141	848.015	858.985	919.281	935.9985	991.769	1031.8219	1064.58	1091.3207	1101.6051	1115.4599	1124.8154	1176.2315	1230.7	1279.2026	1322.5113	1402.5704	1408.1835	1410.5121	1433.3244	1470.815	1475.2894	1481.3586	1487.4424	1492.083	1499.4424	1530.8242	3020.2699	3030.0867	3032.3454	3080.6659	3090.8423	3091.0682	3093.6601	3116.4114	3118.6285	3188.7117	3446.5269
CC12NC1C1(C)OC21C	C[C@]12N[C@H]1[C@@]1(C)O[C@@]21C	
InChI=1S/C7H11NO/c1-5-4(8-5)6(2)7(5,3)9-6/h4,8H,1-3H3	InChI=1S/C7H11NO/c1-5-4(8-5)6(2)7(5,3)9-6/h4,8H,1-3H3/t4-,5+,6-,7+/m1/s1
