16
gdb 77060	3.2816	1.05638	0.87192	0.8761	72.26	-0.2651	0.0072	0.2723	1298.0319	0.122112	-437.841687	-437.832552	-437.831608	-437.876292	32.748	
O	 0.1841668708	 1.389758033	 0.1947115069	-0.421101
C	 0.1382494959	-0.0104658295	 0.1065503523	-0.023539
C	-1.2668254979	-0.6618744095	 0.2127785305	 0.09628
C	-2.4557789243	 0.2899937211	 0.2507556042	-0.360471
C	-3.7313453038	-0.4009165038	 0.1148608732	 0.285724
C	-4.773756603	-0.9884371418	 0.0092391288	-0.42182
O	-1.0713883086	-1.2616617097	-1.1197255344	-0.256119
C	 0.1215755828	-0.6030687539	-1.2887456733	 0.398256
N	 0.8846103659	-0.4807383404	-2.27564923	-0.551267
H	 0.7208995753	 1.7048243461	-0.5419400081	 0.307205
H	 0.8764401785	-0.4785740502	 0.7701395523	 0.109785
H	-1.3628371045	-1.4546139916	 0.9575320058	 0.109048
H	-2.4171496768	 0.8349128392	 1.2026838146	 0.148821
H	-2.334397221	 1.0436043006	-0.5340205912	 0.144394
H	-5.7001340241	-1.4976867552	-0.0900730469	 0.19885
H	 0.5336603849	-0.9751520643	-3.0974333447	 0.235954
56.1563	84.1486	117.9575	164.0804	227.6999	250.1084	334.7731	361.1187	433.8363	516.9569	541.8278	627.2745	650.7991	675.802	771.1966	836.5447	863.4231	884.1488	938.394	977.2718	998.4245	1032.1391	1102.7685	1151.5464	1196.5078	1225.1232	1241.8052	1286.39	1343.7783	1373.3524	1382.1222	1396.4099	1451.2173	1827.4835	2244.691	3027.1467	3036.998	3078.6559	3101.5067	3480.7542	3507.211	3801.3889
OC1C(CC#C)OC1=N	O[C@H]1[C@@H](CC#C)O[C]1[NH]	
InChI=1S/C6H7NO2/c1-2-3-4-5(8)6(7)9-4/h1,4-5,7-8H,3H2	InChI=1S/C6H7NO2/c1-2-3-4-5(8)6(7)9-4/h1,4-5,7-8H,3H2/t4-,5+/m1/s1
