18
gdb 121523	2.63475	0.9272	0.70528	7.1199	78.02	-0.2563	-0.0275	0.2288	1564.2314	0.146735	-439.074002	-439.064018	-439.063074	-439.111494	34.324	
C	-1.0612698384	 1.2401625435	 0.2787236851	-0.320323
N	-1.1378443228	-0.1770335954	-0.0769656946	-0.275972
H	-3.2525068757	-0.6293979891	-1.1241394932	 0.308261
H	-0.5156110589	-0.3557723163	-0.860696867	 0.227958
C	-0.7688718461	-1.0539877769	 1.0361059488	-0.121058
C	-0.7914262275	-2.5491483985	 0.6365508054	-0.389786
C	-2.0381565172	-2.8414820318	-0.0501126016	 0.113978
C	-3.0746551563	-2.7833862097	-0.6616500811	-0.067325
C	-4.1990152105	-2.2612269311	-1.417185203	 0.343048
O	-5.125891066	-2.8730531873	-1.8684563782	-0.322646
O	-4.0741100256	-0.9183140639	-1.5671137043	-0.376706
H	-1.2859700072	 1.8498045032	-0.6002560782	 0.131612
H	-1.8122178182	 1.4629122579	 1.0437845248	 0.135708
H	-0.0782046598	 1.5465778916	 0.6734001431	 0.106443
H	 0.2272206169	-0.8187351476	 1.4496404763	 0.093353
H	-1.4958113582	-0.8905713475	 1.8398594445	 0.126449
H	 0.0542577737	-2.7757292334	-0.0267535511	 0.141296
H	-0.6528979423	-3.1660356178	 1.5312024841	 0.145709
9.8414	63.3303	111.2514	136.2698	168.4478	210.0439	254.9742	268.9343	360.8774	397.7731	489.0751	582.2026	608.0351	714.7618	765.4614	766.814	802.0823	878.0086	927.5424	1009.2765	1033.1366	1074.8019	1129.6132	1149.9627	1167.6061	1206.2924	1261.1058	1273.9907	1349.0343	1374.349	1389.4171	1460.7512	1464.0044	1484.811	1492.1173	1511.7502	1518.8034	1857.0168	2344.0288	2953.953	2968.4668	3023.3772	3058.3067	3070.4577	3073.1848	3116.5472	3498.8203	3578.6066
C[NH2+]CCC#CC([O-])=O	CNCCC#CC(=O)O	
InChI=1S/C6H9NO2/c1-7-5-3-2-4-6(8)9/h7H,3,5H2,1H3,(H,8,9)	InChI=1S/C6H9NO2/c1-7-5-3-2-4-6(8)9/h7H,3,5H2,1H3,(H,8,9)
