14
gdb 14826	2.57822	2.33351	1.43151	4.9172	59.05	-0.2443	-0.0461	0.1981	851.1341	0.104812	-419.658414	-419.650689	-419.649745	-419.691803	26.038	
O	-0.4808906272	 0.5442995504	 0.6211380598	-0.226705
C	 0.1424058138	 1.0071987182	-0.2997642272	 0.143468
C	 1.2600959509	 2.0040127005	-0.1713048807	-0.176321
C	 0.9628433489	 3.4390151799	-0.6954224429	-0.076876
O	 1.2385910069	 4.0046619815	 0.5954432338	-0.254666
C	 1.4907458374	 2.7241291816	 1.1861709055	 0.035512
C	 0.5728293801	 2.397131758	 2.3574324235	 0.153363
O	-0.2909278271	 3.1327392783	 2.7498413694	-0.239207
H	-0.0867682626	 0.7176550937	-1.3502839077	 0.097236
H	 2.1634687402	 1.5717015411	-0.6121631765	 0.117237
H	 1.6456942467	 3.8080367894	-1.4680533723	 0.118062
H	-0.0729300397	 3.6172075402	-1.0094403168	 0.123252
H	 2.5263027813	 2.6362019341	 1.5506040578	 0.101961
H	 0.8190091503	 1.4382844829	 2.8614227444	 0.083685
38.367	94.1049	112.0335	218.5961	249.7851	326.0909	358.143	663.8692	699.8051	732.4875	780.8042	902.4631	907.6549	964.0232	999.568	1026.0496	1074.602	1109.0085	1130.1828	1162.5948	1212.6441	1246.2315	1324.5407	1342.9337	1365.1546	1416.7991	1417.4644	1527.1893	1823.7488	1841.4723	2880.7256	2902.8701	2987.4999	3023.7407	3064.7097	3078.9739
O=CC1COC1C=O	O=C[C@H]1CO[C@H]1C=O	
InChI=1S/C5H6O3/c6-1-4-3-8-5(4)2-7/h1-2,4-5H,3H2	InChI=1S/C5H6O3/c6-1-4-3-8-5(4)2-7/h1-2,4-5H,3H2/t4-,5-/m0/s1
