16
gdb 9931	3.18078	1.56592	1.42074	6.0689	66.44	-0.2488	0.0224	0.2712	947.918	0.129891	-379.912291	-379.903785	-379.90284	-379.944891	31.234	
C	-0.0252587044	 1.5330938215	 0.1036518162	-0.419339
C	 0.0249706657	 0.0283292029	-0.0290605409	-0.077933
C	 0.6854038822	-0.6727020736	-1.1928977722	-0.113324
N	 1.437859063	 0.1015475781	-2.1444184619	-0.52155
C	 1.3436523907	-0.7099730708	 0.1975143442	 0.259996
O	 2.5067794325	 0.0317087256	 0.3363274653	-0.457653
C	 1.3324958213	-1.9462378987	 0.9386315506	 0.267384
N	 1.285736894	-2.9443075512	 1.5219000208	-0.349681
H	 0.9482800396	 1.9834935184	-0.0958189824	 0.135777
H	-0.7610198999	 1.9660595759	-0.5830374799	 0.117376
H	-0.3166304084	 1.8114410791	 1.1205761759	 0.13771
H	-0.8516927061	-0.4937397065	 0.3432035973	 0.11233
H	 0.2165133544	-1.5897925224	-1.5405062664	 0.110061
H	 1.8288510026	-0.4876897305	-2.8698686767	 0.253046
H	 0.8748358918	 0.818454596	-2.5882137053	 0.251926
H	 2.7128172109	 0.3299986063	-0.5698312547	 0.293874
130.9349	135.0796	165.8296	196.1095	240.6147	252.5025	312.4398	434.1567	477.268	560.0201	571.7863	606.319	633.0626	705.6978	777.8204	823.8981	881.7761	981.2034	1018.1631	1048.0833	1086.7144	1142.3341	1156.2608	1226.4331	1249.9727	1283.057	1367.3693	1405.1786	1419.2515	1452.6328	1493.2792	1500.8723	1651.7071	2349.459	3040.7702	3102.2834	3130.9823	3137.074	3158.334	3519.183	3588.901	3600.787
CC1C(N)C1(O)C#N	C[C@H]1[C@@H](N)[C@]1(O)C#N	
InChI=1S/C5H8N2O/c1-3-4(7)5(3,8)2-6/h3-4,8H,7H2,1H3	InChI=1S/C5H8N2O/c1-3-4(7)5(3,8)2-6/h3-4,8H,7H2,1H3/t3-,4+,5-/m0/s1
