14
gdb 67364	3.04041	1.95541	1.37695	4.9866	61.04	-0.2661	-0.0084	0.2577	876.4223	0.102237	-473.780611	-473.774228	-473.773284	-473.811197	25.809	
O	 0.1123705532	 1.3959429125	-0.0772465904	-0.467889
C	 0.0471608994	 0.0334405499	-0.04801397	 0.282459
C	 0.119407795	-0.8167486272	 1.2795719422	-0.128782
N	-1.3117342249	-0.4238581653	 1.556595203	-0.364633
C	-1.3017994491	-0.7742349389	 0.0881166624	-0.128751
C	-0.3142201542	-1.9462029615	 0.3123688383	 0.096017
O	 0.6017989401	-2.0447998297	-0.7839257505	-0.242179
C	 0.8795557193	-0.7236038713	-1.0676429284	 0.429323
O	 1.6122008187	-0.3556249822	-1.9292633519	-0.325825
H	-0.4690855622	 1.7142892376	 0.6277355894	 0.302099
H	 0.8980259555	-0.8107649004	 2.0424428404	 0.10654
H	-1.786405099	-1.1539552386	 2.0967623391	 0.221383
H	-2.1877702099	-0.7184430681	-0.5444939536	 0.106545
H	-0.637772002	-2.9229819268	 0.6634092901	 0.113693
160.6612	259.5364	363.6143	371.8264	416.3089	479.1377	539.7981	642.69	684.088	701.6836	728.7891	839.0558	865.0057	890.51	911.4547	921.0871	967.6502	1029.1125	1069.4847	1080.3343	1123.0099	1136.7322	1144.5424	1153.6013	1236.9954	1269.5745	1284.0943	1315.5056	1364.7888	1434.8711	1929.1416	3123.3606	3125.2398	3165.8233	3392.36	3755.2803
OC12C3NC1C3OC2=O	O[C@@]12[C@H]3N[C@@H]1[C@H]3OC2=O	
InChI=1S/C5H5NO3/c7-4-5(8)2-1(9-4)3(5)6-2/h1-3,6,8H	InChI=1S/C5H5NO3/c7-4-5(8)2-1(9-4)3(5)6-2/h1-3,6,8H/t1-,2-,3+,5-
