15
gdb 12210	2.71668	1.94719	1.76038	3.9708	60.86	-0.2728	0.0154	0.2883	825.7288	0.118826	-399.795362	-399.787712	-399.786768	-399.827218	28.472	
O	 0.0576687707	 1.3333823533	-0.2902181538	-0.441751
C	 0.064718944	-0.067896718	-0.0680080023	 0.087406
C	 0.2524926795	-0.4950539038	 1.4064689208	-0.273802
C	-1.305524515	-0.540916578	 1.5796687042	-0.240554
C	-1.8404510006	 0.7008954416	 2.1074671872	 0.274545
N	-2.22208881	 1.7241156705	 2.4912847118	-0.329778
C	-1.3915885123	-0.6194370286	-0.008400414	 0.1514
O	-2.362180157	 0.0885226011	-0.6906545628	-0.413749
H	-0.1709884388	 1.7929021429	 0.5268768065	 0.30431
H	 0.7330740732	-0.4973382274	-0.8167381146	 0.098242
H	 0.6862258465	-1.4932283136	 1.4931608486	 0.128803
H	 0.8041551224	 0.1911835328	 2.0515337694	 0.131571
H	-1.719736522	-1.3891008891	 2.1274762074	 0.125914
H	-1.4465069343	-1.6734707378	-0.2963506761	 0.102324
H	-2.0079471965	 0.9830626939	-0.8084342822	 0.295119
95.335	139.5182	220.3395	250.2418	307.7084	372.4874	395.0759	511.6453	522.0569	587.6636	642.5955	733.0763	787.9323	856.168	878.3855	916.1959	1003.2737	1013.6233	1092.674	1103.0865	1160.0142	1167.1579	1238.3947	1248.2601	1262.5837	1301.2876	1321.4167	1355.5094	1419.272	1442.2996	1477.3405	2342.0315	3069.782	3078.2006	3097.2518	3102.487	3138.4249	3719.191	3788.4339
OC1CC(C#N)C1O	O[C@H]1C[C@@H](C#N)[C@H]1O	
InChI=1S/C5H7NO2/c6-2-3-1-4(7)5(3)8/h3-5,7-8H,1H2	InChI=1S/C5H7NO2/c6-2-3-1-4(7)5(3)8/h3-5,7-8H,1H2/t3-,4-,5+/m0/s1
