21
gdb 112934	5.26393	0.6479	0.61521	1.6315	89.63	-0.2411	0.0332	0.2743	1910.5559	0.180291	-387.057235	-387.046692	-387.045748	-387.095532	36.425	
C	 0.0773648874	 1.3900122972	-0.5806689766	-0.380986
C	 0.0756812153	-0.1137185238	-0.2912245105	-0.189479
C	 0.3309518919	-0.4217380313	 1.1740834433	 0.17801
C	 0.6520545122	-1.8793016917	 1.5640567723	-0.32357
C	 2.0138099271	-1.3107932208	 2.0494445341	-0.037522
O	 1.6420883974	 0.0245508025	 1.612358803	-0.30149
C	 2.3006015265	-1.4012304214	 3.4713361715	 0.104375
C	 2.53814081	-1.4826596738	 4.6494989078	 0.04741
C	 2.8276856792	-1.5736476303	 6.0726727674	-0.497742
H	 1.0295465645	 1.8335579994	-0.2763206876	 0.138424
H	-0.0695000923	 1.5897634633	-1.6461745139	 0.110207
H	-0.7215925647	 1.8997523877	-0.0307868484	 0.112852
H	-0.8887623756	-0.5575344808	-0.5736673363	 0.094024
H	 0.8443571576	-0.6132069283	-0.8945020502	 0.095742
H	-0.4496040163	 0.0398735093	 1.7958722785	 0.074459
H	 0.0314090229	-2.3147409283	 2.3464953362	 0.116689
H	 0.7276863734	-2.5726323544	 0.7240998843	 0.108205
H	 2.8769212257	-1.6700926094	 1.4742543074	 0.099577
H	 3.8679475495	-1.8668638937	 6.2516827679	 0.149317
H	 2.6646368181	-0.6100912306	 6.5679460657	 0.153379
H	 2.1838475201	-2.3111831408	 6.5645893442	 0.148118
17.7559	25.4661	81.4329	111.5902	140.2648	197.2091	234.2223	287.3596	316.6121	384.4124	435.2036	497.9427	541.7829	709.6525	739.7408	799.4048	868.872	936.5116	946.5684	978.4816	982.8409	1007.0143	1050.768	1052.8927	1067.4119	1108.7222	1125.5984	1184.0866	1202.0402	1253.1584	1257.9245	1283.0351	1311.0478	1343.1642	1366.5266	1405.8381	1411.4849	1413.8322	1474.1497	1476.3219	1478.4595	1488.5101	1497.1877	1509.3275	2366.5208	2995.8501	3013.2753	3015.3939	3027.3667	3036.1761	3055.1036	3081.1354	3087.9354	3089.8427	3102.5263	3119.5477	3145.9101
CCC1CC(O1)C#CC	CC[C@H]1C[C@@H](O1)C#CC	
InChI=1S/C8H12O/c1-3-5-8-6-7(4-2)9-8/h7-8H,4,6H2,1-2H3	InChI=1S/C8H12O/c1-3-5-8-6-7(4-2)9-8/h7-8H,4,6H2,1-2H3/t7-,8-/m0/s1
