15
gdb 75767	2.52931	1.32233	1.15893	3.193	68.19	-0.2684	-0.0156	0.2528	1104.1719	0.109132	-457.747232	-457.73812	-457.737176	-457.781022	33.029	
C	-0.1453919319	 1.5533712879	 0.1738833035	-0.426854
C	-0.0092657424	 0.040081047	 0.1219849074	 0.161899
O	 1.1603105262	-0.3516559196	-0.7100693494	-0.265795
C	 1.8789175221	-0.7834914921	 0.3722183397	 0.393667
O	 3.0227323415	-1.1037678764	 0.4124790989	-0.318289
C	 0.7139276751	-0.6148282923	 1.3614234129	-0.083886
O	 0.9003801499	 0.0941906491	 2.5403943588	-0.404006
C	-1.2144391897	-0.6285149684	-0.3264268287	 0.30583
C	-2.2250362595	-1.182760775	-0.6656511847	-0.436283
H	 0.7979672322	 2.0158730354	 0.4775361649	 0.116133
H	-0.4192235227	 1.9410637432	-0.8097518087	 0.149681
H	-0.9205064074	 1.8312463246	 0.892370293	 0.149688
H	 0.2555385749	-1.5731879877	 1.6163409636	 0.144279
H	 1.59217687	 0.7523276276	 2.4148300136	 0.303082
H	-3.1157144382	-1.6728320434	-0.9748705548	 0.210851
78.4024	137.9425	168.2377	181.0927	198.33	245.4313	295.8635	380.1776	431.8598	449.1467	503.0331	597.3653	637.1363	642.8083	682.3883	717.8088	814.9991	847.4228	901.204	945.5969	1049.322	1150.3768	1173.1647	1181.8112	1207.1396	1261.696	1314.1913	1409.8934	1427.652	1475.4929	1489.6223	1935.8687	2239.8946	3051.2607	3097.6008	3127.0802	3140.2343	3498.1371	3816.5473
CC1(OC(=O)C1O)C#C	C[C@]1(OC(=O)[C@H]1O)C#C	
InChI=1S/C6H6O3/c1-3-6(2)4(7)5(8)9-6/h1,4,7H,2H3	InChI=1S/C6H6O3/c1-3-6(2)4(7)5(8)9-6/h1,4,7H,2H3/t4-,6+/m1/s1
