21
gdb 87984	2.19406	1.59133	1.32024	2.8271	78.43	-0.243	0.0598	0.3029	1099.1266	0.180558	-424.200792	-424.191414	-424.19047	-424.234421	36.798	
C	 0.0644631999	 1.5838556519	-0.0410391157	-0.466432
C	 0.0465617677	 0.0702333826	 0.0774549011	 0.31895
O	-1.3080428666	-0.4167593053	 0.1051936002	-0.48246
C	 0.935985741	-0.7532782452	-0.9076525997	-0.258541
C	 1.5173521593	-1.5605774349	 0.2924106502	-0.315329
C	 0.7989638154	-0.5949348564	 1.2422944596	 0.30698
C	 1.36885504	 0.0892532316	 2.4617824222	-0.380786
C	 0.1977056015	-0.846373936	 2.592700835	 0.066027
O	-1.0460893804	-0.280981264	 2.8800671324	-0.439138
H	 1.0881891671	 1.9678587791	-0.0256426564	 0.124938
H	-0.3974678223	 1.9053691093	-0.9837619167	 0.104415
H	-0.4892054701	 2.0368988638	 0.787188178	 0.134963
H	-1.7939313807	 0.0041890168	-0.6121610969	 0.280237
H	 0.3684169442	-1.3267911914	-1.6434730533	 0.098072
H	 1.6813901438	-0.1439369868	-1.4250756027	 0.099907
H	 1.1512634404	-2.5897351389	 0.3474249845	 0.107109
H	 2.6079390631	-1.5754546718	 0.3642271179	 0.100739
H	 2.3431711525	-0.239123205	 2.8109577619	 0.107272
H	 1.1599891824	 1.144735407	 2.6022720786	 0.117372
H	 0.3733405876	-1.8215117421	 3.0490501738	 0.080973
H	-1.5845877858	-0.3959082542	 2.084694756	 0.294732
57.063	164.9775	192.5663	231.1007	264.9889	277.025	332.5261	372.1929	392.8798	413.8968	436.6649	493.4027	520.0412	641.8335	655.9872	749.295	822.5539	868.9849	886.3895	896.9012	932.8116	953.5335	965.1373	1008.1933	1027.5598	1086.5728	1109.5157	1137.8917	1161.6597	1187.3829	1192.1202	1206.8502	1231.9367	1255.251	1268.5902	1312.8467	1378.1466	1402.1028	1405.8117	1414.6324	1463.7606	1473.2313	1489.0436	1492.3181	1497.0029	3020.1982	3052.3212	3063.3556	3089.504	3091.347	3097.5518	3118.5056	3121.5064	3124.8338	3212.5624	3733.1749	3805.9188
CC1(O)CCC11CC1O	C[C@@]1(O)CC[C@]21C[C@H]2O	
InChI=1S/C7H12O2/c1-6(9)2-3-7(6)4-5(7)8/h5,8-9H,2-4H2,1H3	InChI=1S/C7H12O2/c1-6(9)2-3-7(6)4-5(7)8/h5,8-9H,2-4H2,1H3/t5-,6-,7+/m1/s1
