14
gdb 129817	3.19051	1.43894	0.99218	4.8594	71.9	-0.2112	-0.0484	0.1628	1100.0005	0.101484	-469.996637	-469.988855	-469.987911	-470.028719	30.227	
N	 0.0837248808	 1.3922160388	 0.1443436716	-0.589946
C	-0.0310841865	 0.031076515	 0.0515381316	 0.282631
C	-1.178295599	-0.6859479084	 0.0300326104	-0.257727
C	-1.1561130687	-2.1269576663	-0.0056053707	 0.411152
N	-2.2046862028	-2.8463504097	-0.0219377348	-0.54886
O	 0.0967212727	-2.744574598	-0.0225464311	-0.297758
N	 1.2850333449	-2.022813671	-0.022290284	-0.194345
C	 1.2024152386	-0.7455392915	 0.0156338737	 0.421977
O	 2.3480446961	-0.0264379388	 0.0091712224	-0.422295
H	 0.9694151547	 1.7939217726	-0.11648748	 0.276131
H	-0.7289869708	 1.946993134	-0.0697635761	 0.265201
H	-2.156336588	-0.2218951895	 0.0448063732	 0.118854
H	-1.959495338	-3.8365348012	-0.0482496498	 0.221357
H	 3.082298316	-0.6559684061	-0.0289122265	 0.313628
92.9416	178.9597	310.7962	339.8036	365.33	367.2297	419.8557	435.2707	455.1948	526.9651	533.2439	582.6265	669.2123	725.043	744.4999	792.496	822.1262	880.5615	887.5661	1005.252	1078.3317	1125.3383	1233.7804	1280.0267	1316.0249	1363.3497	1494.2711	1635.067	1660.1023	1708.1219	1737.5669	3215.6052	3488.1772	3597.5945	3713.2898	3764.6644
NC1=CC(=N)ON=C1O	N[C]1C=C([NH])ON=C1O	
InChI=1S/C4H5N3O2/c5-2-1-3(6)9-7-4(2)8/h1,6H,5H2,(H,7,8)	InChI=1S/C4H5N3O2/c5-2-1-3(6)9-7-4(2)8/h1,6H,5H2,(H,7,8)
