21
gdb 87822	2.76561	1.34055	1.15178	1.2036	83.14	-0.2312	0.0731	0.3043	1178.812	0.181378	-387.045821	-387.03684	-387.035896	-387.07899	35.186	
C	-0.1410015892	 1.429096427	-0.0485570992	-0.40516
C	 0.0020830449	-0.0729484922	 0.0645436119	-0.070815
C	 1.3585950549	-0.7280780739	-0.1055057023	-0.359354
C	 0.6989403399	-0.7015100084	 1.239282227	 0.313845
C	 1.275541516	-0.0696043968	 2.5281209775	-0.322777
C	 0.8872961287	-1.3498929784	 3.2856672999	-0.106273
C	-0.6032735076	-1.5943636365	 3.1600269676	-0.347887
C	 0.3005969264	-1.9468747218	 2.0119834206	 0.33029
O	 0.4323446539	-3.2350647683	 1.5218524916	-0.458049
H	 0.7274649142	 1.9414051024	 0.3784688944	 0.115466
H	-0.2272307936	 1.7426193215	-1.095128493	 0.115353
H	-1.0302203526	 1.7898446281	 0.4810062616	 0.113251
H	-0.8411940045	-0.635609342	-0.3331491498	 0.070299
H	 1.4139364334	-1.6862168575	-0.6121452476	 0.115707
H	 2.216241637	-0.081013885	-0.2677730565	 0.103752
H	 2.3553686496	 0.0910671134	 2.4736387836	 0.105516
H	 0.7960550515	 0.8495995405	 2.8820900848	 0.095291
H	 1.4736329825	-1.8295432181	 4.0588300613	 0.093126
H	-0.9616965646	-2.4504627737	 3.7242660996	 0.108371
H	-1.3027366883	-0.7630646663	 3.0972180345	 0.103182
H	-0.4370273625	-3.5457934739	 1.2485151427	 0.286864
109.4488	134.3559	182.7872	206.8701	228.9186	270.895	340.3499	408.727	420.1077	452.139	507.3587	565.4996	660.8636	775.0696	798.7941	839.024	875.0198	888.4977	908.0812	938.3058	959.2935	993.2251	1011.1988	1023.4025	1032.7897	1075.2137	1080.6027	1116.2537	1131.2908	1161.3589	1167.5329	1188.7496	1232.0639	1238.6586	1280.89	1303.1453	1342.0051	1393.1573	1410.8069	1431.1864	1477.8115	1488.1042	1492.2457	1502.3826	1507.4566	3023.7614	3038.3454	3083.338	3092.1671	3095.0659	3098.9503	3116.4527	3117.3221	3190.2093	3199.1547	3204.6754	3804.141
CC1CC11CC2CC12O	C[C@H]1C[C@]21C[C@H]1C[C@@]21O	
InChI=1S/C8H12O/c1-5-2-7(5)3-6-4-8(6,7)9/h5-6,9H,2-4H2,1H3	InChI=1S/C8H12O/c1-5-2-7(5)3-6-4-8(6,7)9/h5-6,9H,2-4H2,1H3/t5-,6-,7+,8-/m0/s1
