19
gdb 78099	2.69419	1.14731	0.94168	3.8378	76.99	-0.2432	-0.0199	0.2233	1285.5088	0.157139	-423.002366	-422.993173	-422.992229	-423.036447	34.127	
C	-0.037803604	 1.5517606963	 0.0282219556	-0.420509
C	 0.0662306995	 0.0440773933	 0.1206340283	-0.080667
C	 1.2973775134	-0.7853136509	-0.2031534569	-0.14718
C	 2.5834592922	-0.0794575576	 0.2712087344	-0.077001
C	 2.0013988177	-0.0797871048	 1.7340240478	-0.333762
C	 0.7252749229	-0.7483569732	 1.2134956193	 0.382414
O	 0.0864748093	-1.7749562285	 1.8862502655	-0.459227
C	 3.8086147029	-0.9453166945	 0.1528580889	 0.157469
O	 4.8464307089	-0.608230674	-0.3562757753	-0.259692
H	 0.8569286717	 2.055709258	 0.4024418975	 0.125451
H	-0.1846411134	 1.8687017126	-1.0098012696	 0.125449
H	-0.8897218877	 1.9200246385	 0.6104373701	 0.116261
H	-0.8250102305	-0.4776547561	-0.2259914763	 0.094181
H	 1.263206117	-1.5751973104	-0.9441303335	 0.100127
H	 2.7970651883	 0.8962501977	-0.1708232954	 0.089056
H	 2.558180914	-0.7570773712	 2.3876876887	 0.119514
H	 1.9124625517	 0.8931490246	 2.2264798136	 0.103345
H	-0.6640540078	-1.4082038238	 2.3658928954	 0.287911
H	 3.6859728539	-1.9645977459	 0.590934542	 0.076859
78.3646	95.446	164.4499	197.4859	227.1553	256.0336	326.275	356.5227	380.9026	438.5586	467.2788	544.91	647.8906	746.3189	781.0689	849.1636	890.1087	932.6821	962.0678	982.5783	1011.6019	1040.6145	1073.33	1092.6688	1119.491	1139.1968	1175.6635	1219.7048	1221.6948	1239.993	1277.6184	1285.0424	1329.2978	1345.1487	1417.2547	1431.6701	1461.9709	1488.793	1498.2256	1506.0195	1830.8254	2850.9536	3034.9757	3050.4183	3087.6926	3091.8463	3105.2722	3111.7454	3128.791	3183.4456	3799.9792
CC1C2C(CC12O)C=O	C[C@H]1[C@H]2[C@@H](C[C@@]12O)C=O	
InChI=1S/C7H10O2/c1-4-6-5(3-8)2-7(4,6)9/h3-6,9H,2H2,1H3	InChI=1S/C7H10O2/c1-4-6-5(3-8)2-7(4,6)9/h3-6,9H,2H2,1H3/t4-,5-,6-,7+/m0/s1
