14
gdb 130037	3.3346	1.66402	1.11852	1.477	70.19	-0.2366	-0.0401	0.1965	998.632	0.104059	-432.86451	-432.857795	-432.85685	-432.895456	26.296	
N	 0.0157935823	 1.3521756324	 0.1172347606	-0.579567
C	-0.0013708621	-0.0121167214	 0.0308131961	 0.289363
N	-1.0700660974	-0.7426842699	 0.0154918333	-0.318324
C	-0.6775296503	-2.1655141565	-0.0031475307	-0.289069
C	 0.8253978644	-2.1562550668	-0.0147116211	 0.139504
C	 1.1969760755	-0.852748559	 0.0098872758	 0.326804
O	 2.5196250779	-0.6924071371	 0.0031999154	-0.241406
N	 3.0831807662	-1.9859165756	-0.0277762324	-0.137103
C	 2.0691336642	-2.8309136163	-0.0359146438	-0.134514
H	 0.830701583	 1.826987975	-0.2365028389	 0.266953
H	-0.8642952665	 1.8059934572	-0.0761143331	 0.26567
H	-1.0968285031	-2.6733824549	 0.874116172	 0.136792
H	-1.1135751862	-2.6508113541	-0.8847440117	 0.135401
H	 2.2966011021	-3.887579093	-0.0583382214	 0.139497
184.8993	224.2589	256.9567	303.829	392.3163	497.2861	514.9472	616.0509	622.7506	631.8323	640.9797	762.2474	804.8828	861.3724	904.7498	960.5551	966.3622	974.1905	1109.3021	1150.6108	1174.5309	1198.7784	1252.2948	1309.0879	1404.5615	1441.0736	1455.0302	1517.2849	1598.6743	1626.4913	1691.4963	3035.8091	3062.666	3241.9223	3585.2064	3701.1363
NC1=NCC2=C1ON=C2	NC1=NCc2c1onc2	
InChI=1S/C5H5N3O/c6-5-4-3(1-7-5)2-8-9-4/h2H,1H2,(H2,6,7)	InChI=1S/C5H5N3O/c6-5-4-3(1-7-5)2-8-9-4/h2H,1H2,(H2,6,7)
