23
gdb 99697	1.87335	1.00923	0.78001	1.5112	90.71	-0.2425	0.059	0.3015	1621.3111	0.202216	-388.272552	-388.260525	-388.259581	-388.311641	41.63	
C	 0.2552148266	 1.0301108647	 1.3899093176	-0.49956
C	 0.1879952729	-0.3372078143	 0.8918938124	 0.051574
C	 0.1407149052	-1.4717231561	 0.4884373643	 0.077008
C	 0.0560617665	-2.8453352143	-0.0080303457	-0.154147
C	-1.4071593851	-3.3207099415	 0.0295562995	-0.096853
O	-1.4290712081	-4.6909988412	-0.3409324781	-0.420188
C	 0.7208142909	-3.0298725476	-1.4047839341	 0.04583
C	 0.1024992051	-2.1351385912	-2.4860622627	-0.395547
C	 2.2359147718	-2.8131375189	-1.3116015938	-0.397995
H	 1.2928180973	 1.370456537	 1.4799753832	 0.147468
H	-0.2635922403	 1.7261960774	 0.7214030757	 0.14576
H	-0.2068799651	 1.1166236731	 2.3796998551	 0.146204
H	 0.6015555995	-3.4992597652	 0.6874409446	 0.103186
H	-1.7985505373	-3.1744264385	 1.0467519448	 0.094676
H	-2.0174128695	-2.7078233504	-0.6493297187	 0.096256
H	-2.343910823	-4.9857820389	-0.3513691306	 0.288746
H	 0.5364475252	-4.0746707737	-1.6761049925	 0.094731
H	 0.5992026008	-2.3020683299	-3.4473469193	 0.107384
H	-0.9627444953	-2.3399885073	-2.6299586376	 0.109799
H	 0.2116926866	-1.0764337396	-2.2287357618	 0.12109
H	 2.6907799254	-3.4852267206	-0.5757244728	 0.107289
H	 2.7158884032	-3.0006504977	-2.2776126057	 0.106286
H	 2.4675863869	-1.7848542653	-1.0138326038	 0.121002
16.7065	52.8292	84.3409	88.1915	146.3199	207.1932	219.8017	233.9456	244.5465	270.6002	276.6407	342.9137	381.1948	412.2773	463.8854	526.0656	582.9056	733.8065	831.1932	914.2509	932.045	965.4966	1022.6368	1041.3332	1053.9166	1054.4707	1077.2605	1097.0047	1140.0792	1187.1574	1201.5966	1231.8747	1251.0107	1302.1649	1330.5754	1361.9749	1383.2434	1401.1982	1414.8527	1420.8004	1448.1041	1478.9292	1479.932	1487.3893	1491.912	1501.9036	1510.7233	1525.3873	2364.8651	2989.3645	2999.9573	3025.4397	3025.7188	3028.5695	3035.5247	3055.1738	3085.1764	3085.8088	3095.3741	3098.925	3102.3558	3108.9844	3836.8571
CC#CC(CO)C(C)C	CC#C[C@@H](CO)C(C)C	
InChI=1S/C8H14O/c1-4-5-8(6-9)7(2)3/h7-9H,6H2,1-3H3	InChI=1S/C8H14O/c1-4-5-8(6-9)7(2)3/h7-9H,6H2,1-3H3/t8-/m0/s1
