19
gdb 108427	2.67435	1.52841	1.18863	2.3081	75.3	-0.2392	0.0129	0.252	1081.3429	0.160094	-423.00946	-423.001321	-423.000377	-423.042248	31.151	
O	-0.1321993322	 1.4557867517	 0.3004285807	-0.426401
C	 0.0039841014	 0.0525432809	 0.1168760485	-0.178267
C	-1.3802394365	-0.5148820945	-0.1096831874	 0.311459
C	-2.2610703859	-0.5845194179	 1.1623366838	-0.117341
O	-2.184125826	-2.0274039659	 1.2091707337	-0.298492
C	-1.5117742579	-2.062842886	-0.0777931241	 0.032934
C	-2.4125827952	-2.3807053302	-1.2389676269	-0.090793
C	-2.7225785131	-1.2863359762	-1.9359557401	-0.067566
C	-2.0771040596	-0.0295786643	-1.3972164535	-0.331072
H	 0.7390167664	 1.8263140922	 0.4690834323	 0.28996
H	 0.6441569645	-0.1772196696	-0.7512416894	 0.085939
H	 0.4590621966	-0.4230400599	 1.0002093375	 0.093606
H	-1.8377727394	-0.1226236728	 2.0610035588	 0.106273
H	-3.2910495794	-0.23103118	 1.026749977	 0.09726
H	-0.6083010376	-2.6832337435	-0.0233831348	 0.07011
H	-2.7631850065	-3.3848225833	-1.4483376608	 0.100408
H	-3.3661403236	-1.2710799573	-2.8100569434	 0.098241
H	-2.8089645037	 0.7628023284	-1.1996887903	 0.114849
H	-1.3602780624	 0.3954206884	-2.1122770918	 0.108894
87.351	124.4698	176.4133	252.8872	266.9868	347.6284	353.7542	407.7165	507.2278	643.2108	669.8378	745.5662	797.4271	878.9629	926.6444	946.7445	949.9117	971.0984	978.636	991.5729	1003.792	1021.1349	1054.5024	1087.4697	1115.541	1150.8537	1156.7677	1197.4325	1220.6377	1258.2156	1284.3765	1290.5605	1311.1794	1339.8679	1371.5343	1374.4691	1458.5661	1482.3282	1516.3003	1527.3742	1676.176	2958.3199	2992.7251	3014.9477	3020.4454	3026.9374	3052.4878	3068.9574	3177.3499	3207.6076	3830.3026
OCC12COC1C=CC2	OC[C@]12CO[C@H]1C=CC2	
InChI=1S/C7H10O2/c8-4-7-3-1-2-6(7)9-5-7/h1-2,6,8H,3-5H2	InChI=1S/C7H10O2/c8-4-7-3-1-2-6(7)9-5-7/h1-2,6,8H,3-5H2/t6-,7+/m0/s1
