15
gdb 35203	3.65288	1.1653	1.08345	5.0379	70.41	-0.2716	0.0109	0.2824	1113.2845	0.112571	-416.740467	-416.733031	-416.732087	-416.772723	28.142	
N	-0.1252111672	-1.1193889216	-0.0753689432	-0.332841
C	-0.0638590803	 0.0340726258	-0.0276275056	 0.339744
C	 0.0219653535	 1.4734033697	-0.0077402051	-0.277232
N	 0.6019937136	 2.0820047943	 1.2184677638	-0.358839
C	 1.3417887627	 2.1648088657	-0.0244221357	 0.350167
C	 2.7810814153	 1.6215411518	-0.1822957378	-0.329879
C	 3.1014305663	 2.9229565734	-0.9426137288	 0.036449
O	 2.2131381555	 2.9891502269	-2.0632238614	-0.229955
C	 1.7228004573	 3.4237420423	-0.7906855268	-0.088055
H	-0.8094011707	 1.9760869688	-0.4946195387	 0.13705
H	 0.1170241841	 2.9535978556	 1.4240529487	 0.246956
H	 3.2781294117	 1.5407210974	 0.7868683226	 0.132726
H	 2.9077065652	 0.7006639517	-0.7541468902	 0.138263
H	 4.0370915437	 3.4637280811	-1.0109636016	 0.119997
H	 1.3179974693	 4.4270413768	-0.7121925503	 0.115449
89.5794	119.9436	193.0153	298.3367	350.6596	399.2202	482.1284	525.707	569.587	634.9403	787.6679	832.6852	846.8833	860.4391	896.2041	935.0461	939.5566	962.4488	1003.4117	1029.8067	1046.4396	1070.5378	1155.8289	1189.9215	1201.3497	1228.2785	1240.7311	1274.6973	1336.6723	1381.9156	1453.7759	1473.0017	2360.9398	3079.2763	3142.0374	3150.286	3177.5619	3203.8919	3488.418
N#CC1NC11CC2OC12	N#C[C@H]1N[C@]21C[C@H]1O[C@@H]21	
InChI=1S/C6H6N2O/c7-2-4-6(8-4)1-3-5(6)9-3/h3-5,8H,1H2	InChI=1S/C6H6N2O/c7-2-4-6(8-4)1-3-5(6)9-3/h3-5,8H,1H2/t3-,4-,5-,6+/m1/s1
