18
gdb 111160	4.77201	1.10517	1.01422	1.04	73.06	-0.2408	0.0775	0.3183	1192.5994	0.147256	-438.958051	-438.949996	-438.949052	-438.991078	30.61	
C	-0.4548428981	 0.54804431	-0.4487266322	-0.219248
O	 0.7395619349	 0.6651726136	 0.3105628118	-0.283459
C	 1.1123031892	-0.3157705154	 1.2100464496	 0.234026
C	 0.1461494792	-0.9738142475	 2.2547817441	-0.219518
N	-0.4219369023	-1.8127412558	 1.1113397436	-0.342886
C	 1.0911329464	-1.8532643199	 0.904084602	-0.219518
C	 1.2421374849	-2.0382351178	 2.4223918873	 0.557124
C	 2.2687506443	-2.4128462338	 3.3845629362	-0.312852
O	 1.1109227214	-3.2483993866	 3.1185467671	-0.297839
H	-1.3450904477	 0.4984800443	 0.1860574723	 0.120428
H	-0.4935141584	 1.4514505832	-1.0639759208	 0.112607
H	-0.4490935671	-0.3354466816	-1.0947587864	 0.12043
H	 2.0534484043	 0.0353648215	 1.6398672331	 0.090636
H	-0.4886151648	-0.5072271746	 3.0076428563	 0.091276
H	-0.7283608239	-2.7155780119	 1.4848021746	 0.226908
H	 1.553849797	-2.4080465919	 0.0882788258	 0.091276
H	 3.2171872708	-2.8243302575	 3.0434241027	 0.125304
H	 2.2865341601	-1.9582173983	 4.3736148326	 0.125304
44.136	147.7306	220.9452	283.2122	284.2065	286.8867	356.2627	446.8083	513.6879	598.9555	708.6651	725.5675	812.9166	861.5663	880.6407	890.8356	923.1654	982.2313	1019.2982	1043.6511	1109.7897	1110.183	1112.0717	1141.6277	1141.8432	1176.6201	1181.8872	1195.373	1199.284	1227.9209	1247.5891	1286.449	1312.5327	1441.0931	1457.6725	1483.5275	1487.3469	1495.3731	1550.2377	3027.411	3088.7506	3089.5374	3097.625	3112.1031	3123.2292	3127.6153	3176.7861	3404.9154
COC1C2NC1C21CO1	CO[C@H]1[C@H]2N[C@@H]1[C@]12CO1	
InChI=1S/C6H9NO2/c1-8-3-4-6(2-9-6)5(3)7-4/h3-5,7H,2H2,1H3	InChI=1S/C6H9NO2/c1-8-3-4-6(2-9-6)5(3)7-4/h3-5,7H,2H2,1H3/t3-,4+,5-,6+
