21
gdb 107484	2.13175	1.63896	1.20927	1.8426	82.25	-0.2418	0.0809	0.3226	1148.6967	0.18135	-387.04299	-387.034115	-387.033171	-387.076431	34.267	
C	-0.0571020298	 1.5446954646	 0.2912431258	-0.381747
C	 0.057254178	 0.0357792791	 0.0330401328	-0.316592
C	 0.698131148	-0.308264661	-1.2785810479	 0.347987
O	 1.5266475007	-1.4894313694	-1.3437842231	-0.297118
C	 2.0956676571	-0.2385371664	-1.7508080281	-0.043197
C	 1.6588224486	 0.0156448926	-3.2031120762	-0.34528
C	 0.1954951309	-0.0977966928	-2.7059863197	 0.337341
C	-0.9618941349	-0.779431576	-3.3686743757	-0.317102
C	-0.974045428	 0.7203378117	-3.167867523	-0.336434
H	 0.9316497753	 2.0141683283	 0.2979934294	 0.119541
H	-0.6552604331	 2.0448796374	-0.4755407163	 0.124876
H	-0.5279573456	 1.7355989953	 1.2601822078	 0.116268
H	 0.6541115327	-0.435670659	 0.8207509874	 0.119263
H	-0.9371159951	-0.4285501419	 0.0812265643	 0.103884
H	 3.0002195043	 0.0832923767	-1.2464839676	 0.098735
H	 1.9095554837	 1.0203298185	-3.5562498927	 0.104559
H	 1.9978936343	-0.7290573993	-3.9282957685	 0.108431
H	-0.8162468501	-1.1599354247	-4.3743721912	 0.114948
H	-1.623620297	-1.3838869307	-2.756605244	 0.114921
H	-1.6529906867	 1.1240048422	-2.4239322428	 0.114322
H	-0.8379562534	 1.359215385	-4.0349003808	 0.112394
83.5933	129.0873	157.8293	180.2255	235.2744	255.7174	374.6965	382.4358	462.8985	516.6701	606.0686	622.6389	758.0923	774.6931	804.0736	853.8772	880.	886.9493	927.9975	943.4742	969.614	981.1732	991.3431	1052.1126	1067.9972	1070.8889	1078.3441	1101.987	1159.7819	1166.9776	1186.0338	1216.423	1255.9521	1259.8707	1299.6144	1353.3251	1387.8857	1411.2245	1450.707	1463.459	1477.6462	1481.8225	1498.2536	1506.2109	1510.3085	3019.4134	3041.7839	3051.8851	3074.4411	3108.1133	3109.8633	3116.9238	3123.7584	3128.1419	3177.5557	3200.6401	3215.7718
CCC12OC1CC21CC1	CC[C@]12O[C@H]1CC12CC1	
InChI=1S/C8H12O/c1-2-8-6(9-8)5-7(8)3-4-7/h6H,2-5H2,1H3	InChI=1S/C8H12O/c1-2-8-6(9-8)5-7(8)3-4-7/h6H,2-5H2,1H3/t6-,8-/m0/s1
