18
gdb 94454	2.8989	1.42418	1.24641	1.73	72.32	-0.2404	0.0239	0.2644	1060.864	0.148658	-439.085504	-439.077405	-439.076461	-439.11857	30.457	
O	 0.1965657299	 0.924620921	-0.7541333022	-0.431222
C	 0.0391236004	-0.2081594755	 0.0658641752	 0.094255
C	 0.0019422509	-0.0373413034	 1.6079804585	-0.271877
C	-1.1915434411	-1.0304360906	 1.631005381	-0.28124
C	-1.4097664235	-0.7717546171	 0.1126222837	 0.288001
C	-2.5249964473	 0.2389130947	-0.2612670781	-0.170589
O	-3.2987936048	-0.4472304974	-1.2779074972	-0.21909
C	-2.6982743188	-1.6462269262	-1.4281498282	 0.106683
N	-1.6775045213	-1.9382243711	-0.7338392319	-0.31245
H	 1.1330137299	 1.1343860603	-0.816640284	 0.288929
H	 0.7176206595	-1.0185339492	-0.2288869915	 0.085563
H	 0.8989722407	-0.2975019938	 2.1738934524	 0.098141
H	-0.3055780259	 0.9792896231	 1.8702522445	 0.107257
H	-0.8785484186	-2.0630178346	 1.7995830563	 0.119794
H	-2.0303361532	-0.7994173178	 2.2920500956	 0.100687
H	-3.1948008922	 0.471780722	 0.5716356923	 0.112952
H	-2.1342193445	 1.1613457699	-0.6936476713	 0.1455
H	-3.1633682402	-2.2908332043	-2.166209605	 0.138703
64.3797	107.6213	177.127	232.6485	267.0904	344.9849	399.167	480.9793	514.8283	589.1955	669.0499	798.4065	804.224	853.8304	907.6806	919.9893	946.6676	961.4831	966.1131	971.5418	1094.1809	1105.8289	1121.5746	1140.8875	1157.5323	1185.0395	1202.2345	1232.9288	1247.9421	1263.5003	1272.9488	1316.7823	1328.4306	1378.3762	1424.3577	1478.9023	1496.7737	1513.463	1693.2504	3027.0617	3057.7045	3058.9947	3067.2559	3111.9374	3125.8808	3129.2301	3212.6066	3830.6771
OC1CCC11COC=N1	O[C@H]1CC[C@]21COC=N2	
InChI=1S/C6H9NO2/c8-5-1-2-6(5)3-9-4-7-6/h4-5,8H,1-3H2	InChI=1S/C6H9NO2/c8-5-1-2-6(5)3-9-4-7-6/h4-5,8H,1-3H2/t5-,6+/m0/s1
