23
gdb 111787	2.42805	1.3459	1.08976	1.6231	85.3	-0.2323	0.089	0.3214	1263.0035	0.206711	-388.274583	-388.265665	-388.264721	-388.308113	34.747	
C	-0.4762070356	 2.1638595821	 0.8622576291	-0.381925
C	-0.1959152772	 0.6707333068	 0.6527614466	-0.221795
C	-1.4698126286	-0.128341108	 0.41491814	 0.038692
C	-1.4566744921	-1.6811834013	 0.1767988409	-0.114487
C	-0.7497545347	-2.1568740557	 1.4499915038	-0.093956
O	-1.4145553643	-1.3259149428	 2.4347471381	-0.281319
C	-2.3425017066	-0.5875452547	 1.6153017559	 0.078109
C	-2.9387894683	-1.6924869457	 0.6993622595	 0.042203
C	-4.0608802391	-1.3527729093	-0.2723970935	-0.440047
H	 0.449253332	 2.721620985	 1.0353694539	 0.111683
H	-0.9717535387	 2.6033925286	-0.0108587539	 0.110445
H	-1.127144344	 2.3252765634	 1.7282727834	 0.119297
H	 0.4773597346	 0.5416527239	-0.2053444092	 0.090613
H	 0.3293300604	 0.2781319703	 1.5288112492	 0.114922
H	-2.0774463028	 0.3613976287	-0.3486596046	 0.069268
H	-1.1580579239	-2.129704779	-0.7713385131	 0.063343
H	-0.9252764575	-3.2161903616	 1.671469792	 0.097256
H	 0.3293154451	-1.9674070152	 1.4630556768	 0.097433
H	-2.9341220908	 0.0763436573	 2.2454916211	 0.07097
H	-3.206256119	-2.5945119834	 1.2606125587	 0.071269
H	-3.8627347278	-0.4654586045	-0.8789385532	 0.120389
H	-4.2325901722	-2.1878236699	-0.9605694511	 0.118379
H	-4.997376729	-1.1789639749	 0.2691223396	 0.119257
70.5172	151.5527	175.6839	188.7831	262.4257	280.5257	287.3732	358.8734	419.5772	505.7065	575.9766	689.946	740.5396	788.5499	837.6663	838.9304	881.4749	917.0766	948.3556	955.6106	974.8948	1003.9609	1028.9192	1053.3971	1063.4124	1086.2483	1092.872	1122.1782	1131.9685	1174.3196	1192.0517	1195.4905	1240.5559	1255.7858	1271.8531	1282.8922	1304.1388	1345.7181	1358.2544	1395.2967	1406.6317	1411.9051	1428.8199	1483.8698	1497.0861	1500.2918	1502.397	1504.7949	1530.3421	3019.2597	3024.4968	3029.3965	3032.7806	3043.9042	3062.4859	3073.7726	3086.2434	3089.4664	3101.33	3103.2857	3112.1616	3117.2294	3124.2146
CCC1C2COC1C2C	CC[C@H]1[C@H]2CO[C@@H]1[C@H]2C	
InChI=1S/C8H14O/c1-3-6-7-4-9-8(6)5(7)2/h5-8H,3-4H2,1-2H3	InChI=1S/C8H14O/c1-3-6-7-4-9-8(6)5(7)2/h5-8H,3-4H2,1-2H3/t5-,6-,7-,8+/m0/s1
