12
gdb 6636	6.05527	0.8181	0.72393	0.4381	64.59	-0.2695	-0.0365	0.233	1419.4336	0.082536	-377.532516	-377.523813	-377.522869	-377.567669	28.556	
N	 0.2841505397	 0.7747541406	 0.6478269156	-0.519813
C	-0.3498476912	 0.537414652	-0.5336897193	 0.275055
O	-0.0985359578	 1.1193614491	-1.5697600149	-0.328771
C	-1.3780555952	-0.4966280867	-0.4499955817	 0.079892
C	-2.2368429427	-1.3391585647	-0.444011788	 0.049494
C	-3.280975719	-2.3589567712	-0.4508985959	-0.4762
C	-3.4846164439	-2.9823930908	 0.8632548814	 0.279975
N	-3.6498192053	-3.4764044216	 1.8933254148	-0.293619
H	 1.0065139328	 1.4758752832	 0.6708593497	 0.27167
H	 0.0485349435	 0.2739216171	 1.4867713296	 0.273786
H	-4.2321988628	-1.9227695682	-0.7819496115	 0.194269
H	-3.0359261483	-3.1450921787	-1.1765897197	 0.194261
22.0292	63.9904	143.0055	157.1698	159.3309	344.7112	349.6213	380.5814	406.0245	568.2577	578.2188	596.2027	735.2496	771.5	921.3236	931.2104	1083.0849	1091.7213	1231.8485	1333.4161	1353.9018	1440.5939	1610.8627	1780.353	2362.9129	2375.9323	3029.7049	3061.4003	3601.9063	3743.0877
NC(=O)C#CCC#N	NC(=O)C#CCC#N	
InChI=1S/C5H4N2O/c6-4-2-1-3-5(7)8/h2H2,(H2,7,8)	InChI=1S/C5H4N2O/c6-4-2-1-3-5(7)8/h2H2,(H2,7,8)
