16
gdb 17024	4.24683	1.57591	1.32104	1.4651	71.23	-0.2439	0.0334	0.2773	946.2796	0.128989	-346.499126	-346.491791	-346.490847	-346.530401	28.48	
C	-0.0088501734	 1.6426966714	 0.0273922834	-0.433028
C	-0.0136664208	 0.1269794662	 0.0078517803	 0.020405
C	 1.2006867963	-0.623567517	-0.6095513733	 0.031816
O	 2.0328645514	-0.1972222714	 0.5352149273	-0.309897
C	 0.7515025791	-0.6444525201	 1.1207650815	 0.031816
C	 0.8330592006	-1.9084447513	 0.2030932119	-0.168979
C	-0.3332857052	-2.7037999233	-0.1092915068	 0.30031
C	-1.2927390098	-3.3822188328	-0.3665073254	-0.4473
H	 0.9811478354	 2.0216175519	 0.2890255649	 0.138781
H	-0.2895185543	 2.0435153042	-0.9524866865	 0.117347
H	-0.7330862675	 2.022904175	 0.755757678	 0.117347
H	-0.9891870345	-0.2927719	-0.2504567579	 0.091606
H	 1.6378560811	-0.5577532493	-1.6065245928	 0.099593
H	 0.6482123508	-0.6037668555	 2.2056982229	 0.099593
H	 1.7133915978	-2.5152211555	 0.4243018679	 0.112822
H	-2.1409367769	-3.9794642424	-0.5937299452	 0.19777
138.8476	159.2885	222.979	288.6945	290.4162	418.396	500.0181	543.9077	633.0716	649.2156	662.5388	741.4705	788.64	794.1048	894.1794	894.8743	899.1354	1013.7588	1051.2096	1060.7427	1068.9911	1127.52	1143.8599	1152.4907	1187.9102	1214.408	1240.7276	1267.1259	1348.8824	1395.9026	1413.4183	1493.6708	1505.0691	2231.6465	3037.7872	3083.4736	3094.9586	3097.1547	3112.1371	3119.1885	3135.7444	3501.9378
CC1C2OC1C2C#C	C[C@H]1[C@H]2O[C@@H]1[C@H]2C#C	
InChI=1S/C7H8O/c1-3-5-6-4(2)7(5)8-6/h1,4-7H,2H3	InChI=1S/C7H8O/c1-3-5-6-4(2)7(5)8-6/h1,4-7H,2H3/t4-,5-,6+,7-
