19
gdb 70888	2.3659	1.64454	1.44201	2.2755	75.92	-0.2248	0.0656	0.2904	1039.6075	0.156947	-422.970476	-422.96168	-422.960736	-423.003199	34.119	
C	-0.030496352	 1.3749316585	-0.0935737027	-0.510276
C	-0.0337722253	-0.1127923846	-0.0224500409	 0.423271
O	 0.926551866	-0.8620818482	-0.76723863	-0.353811
C	 0.1516937864	-2.0625891933	-0.4618728019	 0.341041
C	 0.2661613936	-3.1466860331	-1.4859069751	-0.504008
C	 0.4145673093	-2.2533688564	 1.059102072	-0.26396
C	-0.3749356369	-0.9620769614	 1.2494228523	-0.244984
C	-1.1012303391	-1.1374694037	-0.0812157846	 0.213607
O	-2.4099416711	-1.0584720439	-0.476383081	-0.449862
H	 0.8963752168	 1.7857097476	 0.3202577659	 0.130639
H	-0.1253124642	 1.7137212909	-1.1299282053	 0.133941
H	-0.8706607836	 1.7803056039	 0.4775572871	 0.129193
H	 1.3088488428	-3.4705049142	-1.578166704	 0.132682
H	-0.3373666118	-4.0137307271	-1.2003885838	 0.117436
H	-0.0711433205	-2.7930908723	-2.4642796299	 0.1355
H	-0.1159949047	-3.1211988233	 1.4624952953	 0.091739
H	 1.4680142685	-2.2766392301	 1.3547876946	 0.098749
H	-0.7286978543	-0.4956205179	 2.1606746188	 0.088533
H	-2.93236098	-1.6713736714	 0.0540786532	 0.290572
170.2169	172.8461	178.5693	185.065	204.3156	289.7166	343.4261	355.6582	399.9156	506.2925	577.2508	588.8155	633.3784	666.2404	753.9381	803.7045	857.775	876.9189	903.879	933.5649	961.1378	993.2913	1022.8101	1096.2858	1107.0042	1128.923	1136.8935	1205.661	1223.5121	1239.5982	1294.1986	1308.0588	1352.6183	1411.4239	1419.4925	1472.9706	1476.3119	1484.4801	1487.6259	1494.3153	1540.1521	3035.3605	3037.0214	3044.4578	3101.291	3102.2051	3105.1259	3117.0505	3117.2944	3195.4118	3778.3464
CC12OC3(C)CC1C23O	C[C@@]12O[C@@]3(C)C[C@@H]1[C@@]23O	
InChI=1S/C7H10O2/c1-5-3-4-6(2,9-5)7(4,5)8/h4,8H,3H2,1-2H3	InChI=1S/C7H10O2/c1-5-3-4-6(2,9-5)7(4,5)8/h4,8H,3H2,1-2H3/t4-,5-,6+,7-/m0/s1
