18
gdb 62764	3.54448	1.22094	1.18811	2.4306	72.79	-0.2399	0.024	0.2639	1105.667	0.147277	-439.087495	-439.07918	-439.078236	-439.120124	32.317	
C	 0.2497833094	 1.5912986293	 0.025711499	-0.469744
C	 0.0909991584	 0.0917659298	-0.0479443756	 0.342585
O	-1.1382237545	-0.3919707759	 0.4316998032	-0.458105
C	 0.5732655274	-0.7537195351	-1.2089473877	-0.123098
C	 1.6377838728	-0.2025806729	-2.1362606325	-0.329399
C	 2.8286853722	 0.0740043423	-1.2287944568	 0.398511
N	 3.9034762063	 0.6333548691	-1.5778006841	-0.535108
O	 2.5585940806	-0.3581811357	 0.0484269089	-0.229526
C	 1.2439703831	-0.8701264745	 0.1401162186	-0.001972
H	 1.2189888975	 1.9318618733	-0.3435137737	 0.145223
H	-0.5360489468	 2.0807581978	-0.5579517585	 0.13229
H	 0.1603217815	 1.9295115809	 1.0652145744	 0.114773
H	-1.1912670902	-0.1821730176	 1.3714592158	 0.284113
H	-0.1026970471	-1.5239168629	-1.5576640213	 0.11124
H	 1.9206500914	-0.942238347	-2.8912853449	 0.141342
H	 1.3562185582	 0.7090438563	-2.669247587	 0.141013
H	 4.5430853165	 0.7111879036	-0.785402141	 0.224025
H	 1.1600903335	-1.7263412008	 0.7982597232	 0.111837
86.2428	176.6817	189.2712	243.3864	278.221	338.8175	390.0975	444.1803	458.3274	485.6477	535.817	682.3024	701.3411	740.2515	831.6783	865.9847	878.7167	893.721	958.6738	985.7759	1010.3767	1022.3356	1064.1243	1083.3006	1099.2787	1131.6267	1183.0337	1205.3709	1251.6654	1284.1185	1294.529	1323.8252	1346.3211	1420.6865	1438.8737	1470.3411	1490.9128	1502.4264	1776.385	3031.7649	3066.0189	3094.4068	3104.2474	3135.882	3188.0557	3198.8487	3475.7534	3787.4426
CC1(O)C2CC(=N)OC12	C[C@@]1(O)[C@H]2C[C]([NH])O[C@@H]12	
InChI=1S/C6H9NO2/c1-6(8)3-2-4(7)9-5(3)6/h3,5,7-8H,2H2,1H3	InChI=1S/C6H9NO2/c1-6(8)3-2-4(7)9-5(3)6/h3,5,7-8H,2H2,1H3/t3-,5+,6+/m0/s1
