19
gdb 61206	4.17666	0.79302	0.74758	1.7707	78.57	-0.2634	-0.0426	0.2208	1524.1808	0.155218	-423.00492	-422.994643	-422.993699	-423.040443	37.055	
C	 0.0439863456	 1.5927836186	 0.125629567	-0.406219
C	-0.0019124493	 0.0652203689	 0.0072485005	-0.000935
C	-1.4543588893	-0.4715435105	 0.0484842398	-0.364
C	-2.1415373828	-0.1821418756	 1.3003031142	 0.296663
C	-2.6883216314	 0.058553894	 2.3437276771	-0.438118
C	 0.674910717	-0.4292839209	-1.2933129079	 0.042775
O	 0.0305892022	 0.0653602004	-2.4358430464	-0.435698
C	 2.1443850102	-0.0629428085	-1.3188129528	 0.131789
O	 2.6298810526	 0.5618353272	-2.2308314053	-0.262819
H	 1.0722277619	 1.9609560544	 0.2048053761	 0.116106
H	-0.4118254494	 2.0530655093	-0.7555123212	 0.135326
H	-0.5022565268	 1.9235505463	 1.0119411909	 0.135844
H	 0.5435719885	-0.3828746917	 0.848617261	 0.085482
H	-2.0087648027	-0.0418711421	-0.7940810034	 0.153395
H	-1.4428259847	-1.5572880896	-0.113662655	 0.125872
H	-3.1851186325	 0.2664226062	 3.2587663104	 0.195035
H	 0.6416038781	-1.5360154269	-1.28776746	 0.091867
H	 0.7188937701	 0.512377761	-2.9538553367	 0.297053
H	 2.7520422626	-0.4072733204	-0.4569101884	 0.100581
61.3697	87.4041	93.1043	154.6508	218.2753	238.1792	277.9434	288.7057	336.4355	351.3739	386.1147	454.3185	518.1039	615.9665	634.2819	641.2358	741.1301	823.0434	856.6838	891.9047	957.5829	972.2122	1005.8371	1022.865	1120.5843	1133.6891	1175.3223	1247.9677	1255.882	1296.8391	1325.4929	1359.7124	1371.0702	1400.6411	1416.054	1434.2936	1472.3074	1497.2848	1505.5454	1812.2875	2236.5903	2917.6907	2934.0182	3021.0443	3023.0987	3042.4589	3068.2508	3109.8071	3130.9792	3506.5366	3688.5151
CC(CC#C)C(O)C=O	C[C@@H](CC#C)[C@@H](O)C=O	
InChI=1S/C7H10O2/c1-3-4-6(2)7(9)5-8/h1,5-7,9H,4H2,2H3	InChI=1S/C7H10O2/c1-3-4-6(2)7(9)5-8/h1,5-7,9H,4H2,2H3/t6-,7-/m0/s1
