17
gdb 108904	3.97192	0.97467	0.92099	2.716	71.92	-0.2168	-0.021	0.1958	1312.15	0.13596	-455.170351	-455.161292	-455.160348	-455.205368	31.198	
C	-0.0958013764	 1.4542733099	 0.0631325465	-0.326823
N	-0.2717553747	 0.0258613787	-0.1318794134	-0.369911
C	 0.4313377186	-0.6915109786	-1.0436114907	 0.516154
N	 0.5174576967	-1.9722630933	-1.0827739989	-0.399032
C	 1.372529116	-2.2708066019	-2.2351787325	-0.085594
C	 1.6277548497	-0.9089004194	-2.9192680665	-0.12513
O	 1.0526146079	 0.0461281339	-1.9995580551	-0.253031
C	 2.6471100772	-2.9431912202	-1.7304927946	 0.156755
O	 3.7643046809	-2.6275102566	-2.0513266602	-0.245128
H	 0.8236494302	 1.7056417624	 0.6094718785	 0.127313
H	-0.064598409	 1.9521525519	-0.9066086318	 0.158117
H	-0.950329351	 1.8409139394	 0.6233890383	 0.131378
H	-0.5790721253	-0.5232777137	 0.6546931954	 0.260512
H	 0.8798830638	-2.9866327593	-2.910240922	 0.098693
H	 2.6928285146	-0.6970665271	-3.0333666172	 0.143698
H	 1.1207140982	-0.8066251696	-3.8820225661	 0.116739
H	 2.4536773826	-3.7596504666	-1.0027616096	 0.095291
48.1269	93.174	103.0316	117.1581	190.5247	221.5587	280.3653	368.849	474.8282	553.7736	637.1937	700.0729	714.0733	738.1625	843.0426	936.6933	942.291	1022.0957	1052.5441	1065.9854	1094.9481	1101.633	1153.6901	1196.6508	1221.4513	1252.162	1327.2622	1355.1318	1406.6694	1424.0111	1458.3087	1478.787	1497.1973	1519.2604	1529.1664	1732.6382	1827.6578	2914.1009	2988.8128	3010.6243	3065.8356	3098.8054	3124.8106	3149.2563	3646.9163
CNC1=NC(CO1)C=O	CNC1=N[C@@H](CO1)C=O	
InChI=1S/C5H8N2O2/c1-6-5-7-4(2-8)3-9-5/h2,4H,3H2,1H3,(H,6,7)	InChI=1S/C5H8N2O2/c1-6-5-7-4(2-8)3-9-5/h2,4H,3H2,1H3,(H,6,7)/t4-/m1/s1
