15
gdb 11935	3.30217	1.83511	1.50196	1.345	70.11	-0.2091	0.0269	0.2361	872.6828	0.117393	-362.572089	-362.564316	-362.563372	-362.603903	29.466	
O	-0.0300215374	 1.4517083044	 0.0506985198	-0.448284
C	-0.0346778787	 0.0760494402	 0.0397017784	 0.304731
C	-0.3011420355	-0.7560031899	-1.1773903133	-0.375757
C	-1.1986743756	-0.9413641634	 0.0345166505	 0.168703
N	-0.4643918433	-1.8224493381	 0.9826600585	-0.361757
C	 0.5947845123	-0.7637942092	 1.1482599011	-0.22471
C	-2.6072387788	-0.7973768526	 0.0332988269	 0.201978
C	-3.8049466628	-0.6767093247	 0.0711810677	-0.444667
H	 0.3853966053	 1.7687650802	-0.7579570281	 0.292623
H	-0.7726111018	-0.2137051039	-1.9914573398	 0.126836
H	 0.3564310436	-1.5724013951	-1.4672968962	 0.120816
H	-0.9983212961	-1.9157360727	 1.841783607	 0.228091
H	 1.6164916303	-1.1273113241	 0.9919579265	 0.103902
H	 0.5327747846	-0.2465374818	 2.1103918252	 0.117353
H	-4.8611559961	-0.5715514692	 0.0923949559	 0.190142
106.0398	148.8444	164.238	267.8254	347.9556	373.7887	431.569	521.2724	546.6822	565.9184	605.1649	671.0678	698.8481	757.6686	816.1464	841.1663	948.8398	957.6273	1002.6935	1033.9258	1076.4194	1113.2828	1171.1884	1195.949	1263.2544	1281.657	1331.9742	1394.8658	1409.2014	1480.1691	1511.4518	2227.4058	3036.5811	3092.9327	3105.095	3207.2949	3502.2969	3514.2867	3807.0488
OC12CC1(NC2)C#C	O[C@]12C[C@]1(NC2)C#C	
InChI=1S/C6H7NO/c1-2-5-3-6(5,8)4-7-5/h1,7-8H,3-4H2	InChI=1S/C6H7NO/c1-2-5-3-6(5,8)4-7-5/h1,7-8H,3-4H2/t5-,6+/m1/s1
