16
gdb 53138	2.85637	1.13739	0.95558	3.4959	78.24	-0.2397	-0.0004	0.2393	1271.025	0.123482	-400.716059	-400.707426	-400.706482	-400.751027	30.839	
C	-0.0718402034	 1.4492219203	 0.0738930927	-0.500608
C	-0.0350638867	-0.005284755	 0.1011578907	 0.112912
C	-0.0102982935	-1.2098613762	 0.1115079776	 0.058856
C	 0.0199799139	-2.6445810605	 0.1345201334	-0.228626
C	-0.5099661052	-3.4638487379	 1.2881981392	-0.01868
N	-1.6807258501	-2.8499767739	 1.9121372569	-0.34335
C	-2.38758213	-2.8287583779	 0.6849955723	 0.42288
O	-3.4681814	-2.4075615461	 0.3968581553	-0.331399
C	-1.2408806973	-3.527929885	-0.0352575994	-0.24274
H	 0.5396501769	 1.8429320554	-0.745313647	 0.152882
H	-1.0944626175	 1.8144007738	-0.0700975974	 0.158301
H	 0.3080526332	 1.8783848109	 1.00764496	 0.148631
H	 0.8832573502	-3.0957899237	-0.3528601159	 0.122574
H	 0.0526237586	-4.2367631953	 1.7950218618	 0.119664
H	-1.6128034707	-2.022636098	 2.4954020596	 0.246773
H	-1.2899568986	-4.3118837509	-0.7771688196	 0.121931
25.7195	68.0069	104.4355	185.6206	253.1844	321.3655	394.1974	459.9805	492.5676	552.0934	607.9755	721.3591	752.9132	802.7092	821.9905	859.4326	909.4867	928.8581	1024.4196	1050.5122	1052.5788	1054.5288	1063.7727	1098.5951	1130.0438	1208.8482	1257.9156	1312.9142	1334.3877	1401.8058	1414.7194	1476.1087	1477.6736	1907.5449	2368.3403	3028.0573	3088.5494	3092.4182	3121.3134	3203.2779	3227.7917	3544.4171
CC#CC1C2NC(=O)C12	CC#C[C@H]1[C@H]2NC(=O)[C@@H]12	
InChI=1S/C7H7NO/c1-2-3-4-5-6(4)8-7(5)9/h4-6H,1H3,(H,8,9)	InChI=1S/C7H7NO/c1-2-3-4-5-6(4)8-7(5)9/h4-6H,1H3,(H,8,9)/t4-,5+,6-/m1/s1
