17
gdb 124764	4.0384	1.00976	0.8309	1.8107	70.87	-0.2177	0.0221	0.2397	1338.3559	0.136668	-455.168945	-455.16023	-455.159285	-455.202516	32.782	
C	 0.213700769	 1.3950857485	-0.4327088785	-0.403556
C	 0.0314910279	 0.0018529196	 0.16648205	 0.013136
O	 0.3769066122	-0.0383074793	 1.5529986808	-0.429176
C	-1.3574516954	-0.5447286027	-0.036456635	 0.387563
C	-2.310401219	-0.3799412717	-1.0265673733	-0.441185
C	-3.3749046829	-1.2127119021	-0.6171635266	 0.440309
O	-4.5396960477	-1.3762457833	-1.2789711057	-0.431386
N	-3.1279480572	-1.8414928323	 0.5231193228	-0.340528
N	-1.8817529434	-1.4178465988	 0.8539419685	-0.257296
H	 1.2317645435	 1.74654687	-0.2472328136	 0.12831
H	 0.041063551	 1.3825404464	-1.5128165262	 0.13172
H	-0.4935210322	 2.104544052	 0.0110996867	 0.119602
H	 0.7546546477	-0.6790270754	-0.3008523333	 0.116248
H	-0.1544734021	 0.6303048279	 2.0015807393	 0.282545
H	-2.2578712866	 0.235540927	-1.9081486856	 0.107829
H	-5.0699019227	-1.9975624694	-0.7642344865	 0.302056
H	-1.441286282	-1.7299071065	 1.7020948663	 0.273808
53.6237	138.7019	169.3196	249.5563	306.0097	338.9072	363.4333	381.1497	412.3073	461.2168	507.4169	535.4437	626.9379	709.3545	725.1721	758.1379	789.0585	896.0457	1003.5269	1014.2638	1044.7438	1086.613	1115.0512	1153.3035	1189.7695	1228.7298	1286.9201	1302.5088	1355.0949	1404.1339	1414.3378	1440.9998	1490.8248	1493.3575	1526.1805	1558.3781	1608.5891	3026.1733	3038.4089	3110.4003	3127.7163	3280.4137	3684.7936	3788.162	3795.1026
CC(O)C1=CC(O)=NN1	C[C@@H](O)c1cc(O)n[nH]1	
InChI=1S/C5H8N2O2/c1-3(8)4-2-5(9)7-6-4/h2-3,8H,1H3,(H2,6,7,9)	InChI=1S/C5H8N2O2/c1-3(8)4-2-5(9)7-6-4/h2-3,8H,1H3,(H2,6,7,9)/t3-/m1/s1
