16
gdb 85722	2.53095	1.3929	1.02661	3.3711	74.67	-0.2719	0.0133	0.2852	1146.8827	0.123049	-400.714098	-400.705337	-400.704393	-400.74771	32.472	
O	 0.632874822	 0.3298926149	-1.1371042835	-0.418499
C	 0.0661800626	-0.3912280549	-0.0952864967	 0.154891
C	 0.1978519082	 0.0921960499	 1.3707960914	-0.279398
C	-1.2442125326	-0.4409509322	 1.6392573807	-0.186753
C	-2.1203069412	 0.295982212	 2.5205178033	 0.317347
C	-2.8457225768	 0.9231834678	 3.2448315774	-0.421271
C	-1.5054159716	-0.4093004304	 0.082230861	-0.23781
C	-2.0910051883	 0.8281114017	-0.399189457	 0.286575
N	-2.4818473419	 1.8349472695	-0.8138316028	-0.330032
H	 0.260940101	 1.2211663459	-1.1396013883	 0.298111
H	 0.4182007281	-1.4204917365	-0.2051916372	 0.110162
H	 1.0082244543	-0.3132877049	 1.9777640168	 0.121053
H	 0.2167922287	 1.1843011058	 1.4211784521	 0.129255
H	-1.2028448392	-1.4920203333	 1.941985591	 0.121728
H	-3.4892559407	 1.4801642947	 3.8801656148	 0.204846
H	-2.0434452427	-1.2623771899	-0.3354634429	 0.129795
75.9063	104.783	136.1526	185.722	258.173	343.5868	397.1214	438.4645	446.795	481.0924	523.2731	635.4847	650.1277	664.3756	687.7438	751.5444	808.2659	895.5999	954.7334	1039.3817	1048.6014	1071.5885	1080.5826	1165.6765	1171.391	1231.4013	1244.2756	1246.7669	1329.7713	1333.4837	1363.9724	1443.811	1486.3405	2241.6733	2347.7751	3057.5157	3072.2874	3081.1783	3099.6159	3138.5001	3503.0109	3774.6594
OC1CC(C#C)C1C#N	O[C@H]1C[C@@H](C#C)[C@H]1C#N	
InChI=1S/C7H7NO/c1-2-5-3-7(9)6(5)4-8/h1,5-7,9H,3H2	InChI=1S/C7H7NO/c1-2-5-3-7(9)6(5)4-8/h1,5-7,9H,3H2/t5-,6-,7+/m1/s1
