15
gdb 27646	3.12319	1.27031	0.90814	3.2874	79.41	-0.1943	0.0222	0.2165	1228.7203	0.111777	-416.824379	-416.815634	-416.81469	-416.857604	32.386	
C	-0.0650547956	 1.4988334684	 0.0524062457	-0.507012
C	-0.0079902549	 0.0115721773	-0.0301600056	 0.328586
N	-0.0387779402	-0.7045045331	-1.1215019886	-0.343857
C	 0.0388814516	-2.0374116306	-0.7190277114	 0.035641
C	 0.0385932332	-3.164439387	-1.5664001205	 0.182158
C	 0.0437999239	-4.174413389	-2.2266380862	-0.43769
C	 0.1172664642	-2.0859852567	 0.6555832711	 0.310554
O	 0.2081634683	-3.0976214492	 1.5359854844	-0.427372
N	 0.0879092318	-0.7944088413	 1.0931163202	-0.338891
H	 0.8313830646	 1.9175820531	 0.5249235161	 0.131821
H	-0.1393321389	 1.896014792	-0.9604921384	 0.162128
H	-0.9335260461	 1.8442745008	 0.6256711362	 0.131756
H	 0.0463198138	-5.0467171729	-2.8312001729	 0.184343
H	 0.2139293085	-3.9192660423	 1.027270485	 0.315236
H	 0.1295336758	-0.5071414296	 2.0570114548	 0.272601
110.1386	120.5601	141.9848	211.4741	277.3908	333.4223	384.5457	394.9991	441.7044	491.3796	504.9833	531.7059	602.3324	651.3885	681.5955	683.2266	725.7755	813.086	981.2469	1032.7863	1061.9127	1150.3426	1198.6668	1244.0303	1310.7147	1403.4909	1419.0191	1481.3731	1489.9634	1538.5422	1600.3401	1632.8678	2218.801	3027.2605	3075.5112	3150.9076	3503.4055	3660.9659	3780.6745
CC1=NC(C#C)=C(O)N1	Cc1nc(C#C)c(O)[nH]1	
InChI=1S/C6H6N2O/c1-3-5-6(9)8-4(2)7-5/h1,9H,2H3,(H,7,8)	InChI=1S/C6H6N2O/c1-3-5-6(9)8-4(2)7-5/h1,9H,2H3,(H,7,8)
