15
gdb 80780	1.99235	1.85455	1.16158	4.3208	72.63	-0.2726	-0.0263	0.2463	1056.3552	0.112529	-416.763873	-416.755933	-416.754988	-416.796404	29.424	
C	-0.095476064	 1.5598310899	 0.0051983805	-0.441162
C	-0.0139995933	 0.0434213219	-0.004104847	 0.011435
C	 1.2443635943	-0.6432135958	-0.6295101166	-0.172177
N	 2.019306	-0.158111517	 0.5957957303	-0.327713
C	 0.7105080052	-0.6730849431	 1.1904296394	 0.081878
C	 0.407769004	-0.6159854801	 2.5904777113	 0.166732
N	 0.1422657099	-0.5966405764	 3.715845442	-0.337981
C	 0.905619885	-1.8878081594	 0.2112754575	 0.420863
O	 0.9566688267	-3.0718412711	 0.2106313089	-0.298215
H	 0.8586387594	 2.0105138224	 0.2794776796	 0.154582
H	-0.3852510877	 1.9228469734	-0.9858697604	 0.128674
H	-0.8582518413	 1.8912920702	 0.7162923446	 0.139059
H	-0.9633156898	-0.4215638356	-0.2797403641	 0.107741
H	 1.6455146107	-0.5489037273	-1.6351446018	 0.120056
H	 2.7965533408	-0.7848094519	 0.8228891259	 0.246228
113.9616	151.3793	171.4449	217.9932	245.3657	333.5942	397.4005	515.794	538.3419	554.6926	617.1356	757.9217	773.5514	787.4775	809.9664	875.3134	911.522	993.3137	1050.8834	1063.1355	1107.4553	1155.3	1176.3834	1206.5939	1234.5753	1271.7945	1297.0122	1396.4526	1409.1927	1492.4292	1502.0904	1924.7688	2351.7582	3048.2661	3091.7804	3108.7394	3153.471	3167.6216	3418.5233
CC1C2NC1(C#N)C2=O	C[C@H]1[C@H]2N[C@]1(C#N)C2=O	
InChI=1S/C6H6N2O/c1-3-4-5(9)6(3,2-7)8-4/h3-4,8H,1H3	InChI=1S/C6H6N2O/c1-3-4-5(9)6(3,2-7)8-4/h3-4,8H,1H3/t3-,4+,6-/m0/s1
