19
gdb 9384	4.75998	0.86125	0.76505	4.6172	73.55	-0.2763	0.0204	0.2968	1505.8674	0.163082	-365.073471	-365.063628	-365.062684	-365.109244	33.687	
C	-0.0545520159	 1.4958752079	 0.0609309742	-0.385431
C	-0.0322000418	-0.0301306381	-0.0557010354	-0.183987
C	 0.7822106867	-0.5055571676	-1.2502421492	-0.044567
O	 0.742906554	-1.9255581256	-1.2763231855	-0.252534
C	 1.3992415204	-2.5096501672	-2.3832465887	-0.005522
C	 2.9108595009	-2.6710823936	-2.1630097553	-0.397799
C	 0.7695845188	-3.8216839145	-2.6222192187	 0.279835
N	 0.3023233132	-4.8565410256	-2.8324311552	-0.316498
H	 0.9552157762	 1.9034168076	 0.1817702658	 0.117779
H	-0.4954269329	 1.9592664479	-0.8285387897	 0.118987
H	-0.644601441	 1.8119684443	 0.9255006947	 0.123292
H	 0.3901005725	-0.475878902	 0.8517994994	 0.112939
H	-1.0506421047	-0.4220782566	-0.1523867611	 0.115494
H	 0.3647734376	-0.1018947819	-2.1878861444	 0.093733
H	 1.8191575125	-0.1425780135	-1.1709234704	 0.092677
H	 1.2262611443	-1.9034733299	-3.287475075	 0.114823
H	 3.3747846309	-3.1572222504	-3.0255069297	 0.139334
H	 3.3752838905	-1.6911966436	-2.028063533	 0.129458
H	 3.0949121579	-3.2769340074	-1.2729655328	 0.147988
40.6463	58.5808	112.8738	138.4016	190.4747	221.7798	233.585	265.4532	354.7534	395.9639	420.661	569.271	595.3443	766.0611	826.1584	902.4706	905.306	919.7443	1037.089	1056.2627	1091.1898	1113.2295	1151.9168	1154.4429	1189.5948	1267.1302	1317.4984	1329.1142	1340.771	1362.502	1402.1988	1414.0533	1439.6412	1487.7212	1490.9781	1493.2889	1501.1373	1507.147	1525.887	2366.8806	2961.5052	2976.7194	2996.1045	3033.2271	3044.4739	3052.9385	3077.1464	3102.948	3112.2293	3129.1779	3140.8512
CCCOC(C)C#N	CCCO[C@@H](C)C#N	
InChI=1S/C6H11NO/c1-3-4-8-6(2)5-7/h6H,3-4H2,1-2H3	InChI=1S/C6H11NO/c1-3-4-8-6(2)5-7/h6H,3-4H2,1-2H3/t6-/m0/s1
