25
gdb 122417	4.03062	0.62114	0.59203	1.4784	90.63	-0.2394	0.092	0.3314	2048.0053	0.227689	-389.494219	-389.483518	-389.482574	-389.531127	38.865	
C	-0.016042882	 1.460704321	 0.335227375	-0.37924
C	-0.0336499767	-0.0563639535	 0.1303044156	-0.165229
C	-1.4484219126	-0.6287337057	-0.0037417455	-0.156826
C	-1.4740659063	-2.1475990289	-0.2060195594	-0.205306
C	-2.8826450771	-2.7078833931	-0.2839887694	 0.162696
C	-3.0835275894	-4.2361115536	-0.2079111425	-0.328626
C	-4.0135749506	-3.9151736361	 0.9828310048	 0.181659
C	-3.7379616173	-4.5609461684	 2.325155307	-0.397217
O	-3.6271890911	-2.5189446468	 0.9471241646	-0.315301
H	 1.0060178453	 1.8403137499	 0.4326805438	 0.10886
H	-0.4848777903	 1.9799773815	-0.5082610707	 0.112272
H	-0.5645091792	 1.7430880994	 1.2407043024	 0.11521
H	 0.5491813137	-0.3127750573	-0.7648265221	 0.090404
H	 0.4751799521	-0.5454585523	 0.9716851576	 0.093791
H	-2.0326023324	-0.3854915796	 0.8921997903	 0.115469
H	-1.9602424503	-0.1406012673	-0.8452431468	 0.088012
H	-0.94219381	-2.416623479	-1.1298966691	 0.090424
H	-0.9456567236	-2.6412715862	 0.6202116697	 0.091667
H	-3.4225040619	-2.2464232858	-1.1253229556	 0.065663
H	-3.5393456618	-4.7181319552	-1.0739891191	 0.103578
H	-2.1797763119	-4.7820186382	 0.0769200961	 0.102082
H	-5.0785870696	-4.0189582285	 0.7276934575	 0.069282
H	-2.6768343252	-4.4842441908	 2.5816284303	 0.116854
H	-4.3176340786	-4.0687344176	 3.1126924863	 0.126079
H	-4.0185400233	-5.6199937079	 2.3057105693	 0.113742
41.2194	66.48	88.6447	117.8424	148.8252	221.2755	244.0987	277.3083	306.9081	332.3548	420.8243	451.9149	480.5418	686.492	737.1857	789.1944	828.1699	883.7356	898.0412	915.6	922.0743	942.8833	987.3618	1015.5527	1059.1879	1067.4839	1075.7646	1107.6751	1134.0608	1142.8214	1183.562	1204.0398	1241.1394	1250.5021	1270.4883	1288.4007	1314.957	1328.0392	1339.4748	1359.391	1381.9125	1398.9092	1403.125	1414.2307	1423.6436	1471.5796	1481.7354	1486.9944	1491.7006	1496.8483	1498.8889	1500.0768	1513.1079	2978.7234	2989.5364	3005.6613	3007.5433	3015.2798	3028.8873	3031.632	3036.9875	3045.6422	3063.9523	3069.876	3095.3886	3100.0325	3103.7518	3111.0991	3125.8626
CCCCC1CC(C)O1	CCCC[C@H]1C[C@@H](C)O1	
InChI=1S/C8H16O/c1-3-4-5-8-6-7(2)9-8/h7-8H,3-6H2,1-2H3	InChI=1S/C8H16O/c1-3-4-5-8-6-7(2)9-8/h7-8H,3-6H2,1-2H3/t7-,8+/m1/s1
