17
gdb 72977	2.68938	1.51373	1.20756	3.5414	73.82	-0.2641	0.0274	0.2915	1056.7234	0.135707	-417.980037	-417.971314	-417.97037	-418.012903	33.137	
N	-0.111510031	 1.4314114007	 0.0656989215	-0.557898
C	-0.1033721908	-0.0088485982	 0.0230703064	 0.04923
C	 0.9450197529	-0.6164589987	-0.772795435	 0.240069
N	 1.7991713699	-1.0214532837	-1.4411128443	-0.347006
C	-0.5077124832	-0.8239166829	 1.2550752269	-0.142616
C	-1.5684106404	-0.0514848366	 2.0501313347	-0.229971
C	-2.4976895391	-0.0574078187	 0.793407323	-0.29403
C	-1.4038457006	-0.8181915491	 0.0334271779	 0.373968
O	-1.6204847411	-1.8569415523	-0.8420789028	-0.443914
H	 0.7449842847	 1.7809042955	 0.4853005475	 0.245235
H	-0.1667217386	 1.8207489915	-0.8704306799	 0.242073
H	 0.1516874362	-1.5972739932	 1.6284681169	 0.115499
H	-1.9721878378	-0.6446017901	 2.8724862728	 0.113124
H	-1.2676046471	 0.9303710003	 2.4173023652	 0.115312
H	-3.379021079	-0.6866598574	 0.9314938125	 0.117709
H	-2.791581713	 0.9139067087	 0.3910137759	 0.107566
H	-1.6787187021	-1.5150889958	-1.7416426093	 0.295648
117.9477	145.3964	184.995	236.6664	258.9703	274.7145	311.4554	367.5294	439.614	455.8721	556.6271	569.7824	672.7432	696.2109	722.0194	796.9095	840.7625	918.2028	941.6728	970.597	1009.6514	1016.7223	1073.3077	1134.5825	1174.3565	1216.128	1226.4736	1241.6464	1259.8113	1267.2102	1294.3234	1313.3401	1425.4117	1463.7025	1493.6215	1660.0364	2336.973	3073.5148	3081.8306	3126.5378	3142.6059	3198.8164	3494.5394	3571.5742	3792.984
NC1(C#N)C2CCC12O	N[C@@]1(C#N)[C@H]2CC[C@@]12O	
InChI=1S/C6H8N2O/c7-3-5(8)4-1-2-6(4,5)9/h4,9H,1-2,8H2	InChI=1S/C6H8N2O/c7-3-5(8)4-1-2-6(4,5)9/h4,9H,1-2,8H2/t4-,5+,6+/m1/s1
