12
gdb 50803	4.63189	0.89865	0.75561	5.3664	65.41	-0.2811	-0.1118	0.1694	1364.7242	0.073947	-472.611068	-472.602162	-472.601218	-472.646076	29.846	
N	-0.0281968555	 1.4182186843	-0.1837346366	-0.508247
C	-0.0053178965	 0.1560946781	-0.1255813698	 0.348452
O	-1.1237044919	-0.6102478661	-0.1978152466	-0.197671
C	-2.3507914823	-0.0310669697	 0.0746215829	 0.183541
O	-3.3565106011	-0.6266719771	-0.1312711639	-0.237275
C	 1.2371256042	-0.7193667863	 0.0129224702	 0.183981
O	 1.1729232755	-1.9181792917	 0.120382329	-0.248007
C	 2.492657397	 0.0082131695	 0.0101662512	 0.240967
C	 3.5543747668	 0.5758596951	 0.0114751039	-0.390192
H	 0.9164280087	 1.7967085558	-0.1083412796	 0.250711
H	-2.2518822973	 0.9766669263	 0.497205246	 0.141862
H	 4.4973731224	 1.068807802	 0.0126565932	 0.231878
41.3682	80.7574	102.9043	143.8896	204.7121	238.2103	319.2723	417.5371	464.6724	487.6748	596.7836	681.8374	685.709	722.2154	808.6066	832.1741	905.5066	1029.9125	1048.0306	1087.1201	1139.8067	1366.2802	1407.2383	1715.6553	1780.3817	1884.9267	2211.7315	3076.5025	3486.049	3491.3593
N=C(OC=O)C(=O)C#C	[NH][C](OC=O)C(=O)C#C	
InChI=1S/C5H3NO3/c1-2-4(8)5(6)9-3-7/h1,3,6H	InChI=1S/C5H3NO3/c1-2-4(8)5(6)9-3-7/h1,3,6H
