13
gdb 132394	1.81096	1.7596	0.89246	1.9423	64.19	-0.2356	-0.0011	0.2344	1144.1594	0.088364	-505.880803	-505.873737	-505.872792	-505.912313	27.682	
O	 0.094583308	 1.3583880453	 0.1226007119	-0.437952
C	 0.0693907876	 0.0027932887	 0.0363164646	 0.456223
C	 0.0663736759	-0.6660335626	-1.1896097886	-0.433014
C	 0.0398494611	-2.0537009997	-1.1844473639	 0.359509
F	 0.0370274551	-2.6927726279	-2.3570137893	-0.077976
C	 0.0163360973	-2.8008648398	-0.0170340743	-0.433408
C	 0.0203478462	-2.0924702387	 1.1788110522	 0.358326
F	-0.0018249489	-2.7791382204	 2.3233000812	-0.077551
C	 0.0462616977	-0.7093319629	 1.2369875998	-0.367252
H	 0.1087458385	 1.7340717364	-0.763680786	 0.302712
H	 0.0840602702	-0.1330117754	-2.133664843	 0.103186
H	-0.0041202436	-3.8816938413	-0.0352929338	 0.124528
H	 0.0486139949	-0.1907111417	 2.1863327991	 0.12267
212.8032	245.0548	251.3802	327.2537	329.838	376.4319	506.7233	509.77	556.191	592.0012	618.3438	625.7384	689.4458	814.9945	828.8545	852.7861	1011.7885	1015.5903	1025.3841	1154.0072	1172.303	1195.4981	1276.5386	1366.3298	1405.6255	1501.1281	1532.9258	1650.6361	1666.1474	3192.1437	3225.6567	3231.8721	3826.1403
OC1=CC(F)=CC(F)=C1	Oc1cc(F)cc(F)c1	
InChI=1S/C6H4F2O/c7-4-1-5(8)3-6(9)2-4/h1-3,9H	InChI=1S/C6H4F2O/c7-4-1-5(8)3-6(9)2-4/h1-3,9H
