16
gdb 68948	2.38168	1.68881	1.32274	3.8475	69.41	-0.253	-0.035	0.218	1002.8679	0.122617	-437.820469	-437.812472	-437.811528	-437.853038	29.903	
C	-0.1599952065	 1.5610005473	 0.1260381313	-0.482816
C	-0.0606374375	 0.0695411245	 0.0200027863	 0.239986
N	 1.1405316187	-0.5633156076	-0.4867456333	-0.391186
C	 0.7265851685	-0.9375377273	 0.8805440025	 0.149929
C	 1.6452757169	-0.6681388364	 2.0036528609	 0.089022
O	 1.5729011664	-1.2250010114	 3.0714863261	-0.256862
C	-0.4790540416	-1.8615140473	 0.8732320408	-0.054806
O	-1.6152160812	-1.1539842661	 1.3900746341	-0.227727
C	-1.2323465376	-0.9149994448	 0.0328452706	-0.045965
H	 0.8179998225	 2.0035970946	 0.3268813713	 0.14049
H	-0.5334636024	 1.9849554372	-0.8130981875	 0.131864
H	-0.8517558423	 1.8397376269	 0.9257562956	 0.14569
H	 0.9544162179	-1.3167963365	-1.1460035341	 0.239248
H	 2.4222054187	 0.094348557	 1.7823479466	 0.085247
H	-0.5073176939	-2.9432456871	 0.9061402679	 0.121828
H	-1.9705367764	-1.098457643	-0.7395030692	 0.116056
98.6394	146.0374	201.6192	209.834	222.4344	313.8884	449.2491	487.3719	502.8964	606.0306	638.0933	732.9198	789.926	810.052	858.5714	871.1898	926.8892	981.2397	1034.0487	1051.2387	1071.1262	1087.3835	1104.2501	1129.6793	1199.0476	1239.4304	1257.172	1347.2712	1363.3891	1390.3365	1410.919	1447.1194	1485.0162	1491.8487	1810.9049	2908.2114	3039.1387	3105.1252	3134.6702	3186.5494	3208.6264	3473.211
CC12NC1(C=O)C1OC21	C[C@@]12N[C@]1(C=O)[C@H]1O[C@@H]21	
InChI=1S/C6H7NO2/c1-5-3-4(9-3)6(5,2-8)7-5/h2-4,7H,1H3	InChI=1S/C6H7NO2/c1-5-3-4(9-3)6(5,2-8)7-5/h2-4,7H,1H3/t3-,4+,5+,6-/m1/s1
