16
gdb 28123	5.1657	1.25158	1.01095	1.3773	80.39	-0.1557	0.0445	0.2001	1120.4242	0.127943	-396.97167	-396.963994	-396.96305	-397.003341	30.243	
N	 0.1511525013	 1.3945017553	 0.1046623664	-0.60741
C	 0.0005891616	-0.003017135	 0.0147494587	 0.320027
C	-1.1278286266	-0.8000682104	-0.0213886483	-0.411071
C	-0.6371666549	-2.1392317892	-0.0064210536	 0.347222
C	 0.7542928126	-2.1177629863	 0.0237122263	 0.317629
N	 1.1416792952	-0.7879815081	 0.0168571973	-0.433537
C	 1.2409658924	-3.4507552809	-0.0018343711	-0.321026
C	 0.115018439	-4.250000661	-0.0388336885	-0.073157
N	-1.0218726076	-3.4582377569	-0.0436354991	-0.404552
H	 0.5013932957	 1.8028117418	-0.7579026906	 0.24207
H	-0.734070029	 1.8357695247	 0.3197201546	 0.245147
H	-2.1448579975	-0.4455522255	-0.0829194976	 0.079151
H	 2.0449121632	-0.425651247	 0.2669039062	 0.252345
H	 2.2606587661	-3.8016788696	 0.0184426638	 0.085525
H	 0.03109775	-5.3247656278	-0.0506952662	 0.108355
H	-1.9621843616	-3.805325344	-0.0894145281	 0.253282
144.6192	150.1035	265.8744	308.4353	313.6162	352.4754	407.1625	512.6743	566.1543	602.2193	632.0179	663.9376	707.2534	740.1295	755.9983	776.7066	807.3048	838.0575	933.8965	1006.2284	1074.8652	1099.3788	1140.366	1180.168	1189.6893	1248.0285	1329.7311	1377.6237	1441.759	1467.4333	1503.5972	1543.7145	1594.0975	1606.2935	1651.7688	3247.0765	3247.8612	3269.454	3482.8162	3600.6442	3681.1168	3698.2997
NC1=CC2=C(N1)C=CN2	Nc1cc2c([nH]1)cc[nH]2	
InChI=1S/C6H7N3/c7-6-3-5-4(9-6)1-2-8-5/h1-3,8-9H,7H2	InChI=1S/C6H7N3/c7-6-3-5-4(9-6)1-2-8-5/h1-3,8-9H,7H2
