21
gdb 72030	2.3574	1.92838	1.4688	1.5407	80.93	-0.2216	0.0882	0.3098	1010.55	0.183958	-387.103438	-387.095498	-387.094553	-387.135231	32.296	
C	-0.0219757159	 1.4968651441	 0.0238976828	-0.504374
C	 0.0350971553	-0.0052698996	-0.0270312566	 0.246776
C	 0.1781050322	-0.7709725157	-1.3418268081	-0.275679
C	 0.0508809727	-2.1775902364	-0.7223997231	 0.049657
C	 1.1517239252	-2.1618969293	 0.3575702995	-0.275675
C	 0.6610850612	-0.8996381804	 1.0656836475	 0.246785
C	 1.298566329	-0.3898667235	 2.3290164471	-0.504375
C	-0.8327910791	-0.9243425792	 0.8095916116	 0.014188
O	-1.157147387	-2.0763843926	 0.0525369082	-0.264292
H	 0.9135439674	 1.9484605739	-0.3271395308	 0.116683
H	-0.830843062	 1.8783828215	-0.6101704545	 0.120132
H	-0.2017258196	 1.8646195214	 1.0388747991	 0.116733
H	-0.6328910936	-0.5533632772	-2.0440805066	 0.099782
H	 1.1399668803	-0.6127411972	-1.8395296742	 0.094657
H	-0.0086266545	-3.0347584797	-1.3898821131	 0.077562
H	 1.1120316389	-3.0461749652	 1.0015454361	 0.099779
H	 2.1572511814	-2.06601581	-0.0639117905	 0.094659
H	 2.3400821405	-0.0898361031	 2.162921486	 0.116682
H	 0.7686098069	 0.4785998213	 2.7323068573	 0.116732
H	 1.2978489453	-1.1632131666	 3.1060627527	 0.120134
H	-1.5974423445	-0.6078284163	 1.5066877395	 0.093457
178.8889	179.8172	208.8075	223.2957	296.1403	335.8044	424.0088	451.0803	555.1289	581.1145	617.2456	661.3439	729.9064	818.8608	895.4747	908.9656	912.7902	914.5168	950.3555	968.5492	979.5452	1001.7375	1002.4122	1063.2448	1067.608	1127.1147	1138.2845	1166.558	1186.04	1216.828	1234.2111	1236.7868	1283.6948	1285.0604	1335.4621	1350.8047	1414.7651	1424.6019	1429.9825	1476.5135	1484.7151	1494.1902	1494.519	1496.6212	1510.2043	3019.9602	3023.5339	3045.2644	3050.3488	3076.8888	3078.4152	3092.4196	3095.1308	3099.0661	3100.1948	3147.1336	3206.1133
CC12CC3CC1(C)C2O3	C[C@@]12C[C@H]3C[C@]1(C)[C@@H]2O3	
InChI=1S/C8H12O/c1-7-3-5-4-8(7,2)6(7)9-5/h5-6H,3-4H2,1-2H3	InChI=1S/C8H12O/c1-7-3-5-4-8(7,2)6(7)9-5/h5-6H,3-4H2,1-2H3/t5-,6+,7-,8+
