22
gdb 119069	2.13067	1.28649	0.98539	1.8375	78.81	-0.2405	0.0737	0.3143	1321.5977	0.192871	-441.445405	-441.434886	-441.433942	-441.481445	37.875	
C	-0.6198453994	 0.8085111369	-0.3529012665	-0.244165
O	 0.6052157302	 0.2896781347	 0.1479980559	-0.252412
C	 1.3371979962	-0.483785539	-0.8033282901	-0.142812
C	 0.8356316754	-1.9125970504	-0.914143001	 0.273045
C	 0.8046863645	-2.6610714249	 0.4096779833	-0.134095
O	-0.1811089338	-2.1659097755	 1.2977916193	-0.428122
N	-0.2856882362	-2.1264054098	-1.8531438291	-0.364434
C	 1.0267764573	-2.7174643584	-2.1573472704	-0.047572
C	 1.736265973	-2.2509898443	-3.4077811398	-0.405525
H	-0.4467444348	 1.418582392	-1.2506156964	 0.11317
H	-1.3315828072	 0.0145717007	-0.6015568146	 0.140249
H	-1.0362950468	 1.442879433	 0.4335217912	 0.12513
H	 1.3142412346	 0.0137532452	-1.7801454619	 0.098192
H	 2.3715388954	-0.4865138605	-0.439749175	 0.108177
H	 0.5619928985	-3.7156660778	 0.2333898385	 0.095031
H	 1.8086626356	-2.6308673697	 0.8670546562	 0.086002
H	-0.010478387	-1.2165170202	 1.3716736848	 0.292608
H	-0.9243555602	-2.8209426306	-1.4719004777	 0.2346
H	 1.1263775753	-3.7888138551	-1.9793411112	 0.082576
H	 1.5537122404	-1.1930887847	-3.6061356872	 0.127997
H	 2.8169645402	-2.4116035255	-3.3292885112	 0.11846
H	 1.376515209	-2.814696416	-4.2752232571	 0.123902
41.9424	96.6834	110.4312	148.8693	164.8704	201.2322	226.7453	275.7252	333.8498	359.5766	408.8196	437.6356	510.8516	552.0647	589.6052	739.5881	855.1266	880.0777	930.8678	957.2393	970.6586	979.0748	1037.8259	1072.6689	1088.2287	1102.41	1122.1683	1143.9561	1181.6523	1212.2073	1227.7089	1244.321	1282.1488	1337.1226	1358.4612	1381.0801	1410.3198	1416.6181	1458.5474	1466.2327	1471.5931	1483.7462	1485.0235	1491.9789	1501.8586	1503.0803	1507.7417	2955.984	3003.1673	3022.5059	3037.9642	3051.5347	3073.8199	3080.1291	3094.9084	3097.0277	3121.7514	3134.1305	3490.9188	3736.2966
COCC1(CO)NC1C	COC[C@@]1(CO)N[C@H]1C	
InChI=1S/C6H13NO2/c1-5-6(3-8,7-5)4-9-2/h5,7-8H,3-4H2,1-2H3	InChI=1S/C6H13NO2/c1-5-6(3-8,7-5)4-9-2/h5,7-8H,3-4H2,1-2H3/t5-,6+/m0/s1
