17
gdb 11260	5.41564	1.22097	1.03507	4.627	77.08	-0.2589	-0.039	0.2199	1120.5516	0.143383	-326.768661	-326.760988	-326.760044	-326.800755	28.534	
C	-0.6470053839	 1.3362365783	-0.0834376678	-0.406879
C	 0.1677803933	 0.050115682	 0.0364382068	 0.035237
C	 1.1171059125	-0.2250548678	-1.1623307731	-0.264332
C	 2.2832533466	-0.9391554415	-0.5367245336	-0.1486
C	 2.2714889849	-0.8284738106	 0.7990466808	 0.202704
C	 1.086512945	-0.0122158705	 1.2862567105	-0.321765
C	 3.2565543366	-1.3526096102	 1.6793302049	 0.19738
N	 4.0399738738	-1.7686949395	 2.4248947842	-0.337355
H	 0.0088729286	 2.211568638	-0.1540878502	 0.118131
H	-1.2813690673	 1.321485013	-0.9757898061	 0.118725
H	-1.2987870186	 1.4765672392	 0.7849736872	 0.12046
H	-0.5233385464	-0.7988352099	 0.1013731289	 0.088068
H	 0.6379473839	-0.805994744	-1.9578863469	 0.11654
H	 1.4577340237	 0.7116188012	-1.6296044774	 0.118298
H	 3.05420033	-1.4456678181	-1.1053271615	 0.120032
H	 1.4209915598	 0.9878160392	 1.5950178102	 0.120182
H	 0.5925253675	-0.4594677189	 2.153918923	 0.123172
80.4887	149.4292	175.4515	250.0437	313.9859	383.4371	412.9877	484.1573	570.1846	573.8689	632.3738	828.7257	856.4107	871.1174	911.9471	943.2578	949.7229	1000.1417	1065.2117	1109.6096	1138.2849	1151.9928	1195.037	1236.0831	1278.94	1307.3073	1317.4265	1352.4765	1374.0306	1415.3765	1478.1421	1490.9354	1497.9392	1501.1452	1676.3491	2336.0264	2997.4125	3016.5775	3027.388	3031.5383	3063.976	3081.7695	3097.6853	3101.7363	3209.6706
CC1CC=C(C1)C#N	C[C@H]1CC=C(C1)C#N	
InChI=1S/C7H9N/c1-6-2-3-7(4-6)5-8/h3,6H,2,4H2,1H3	InChI=1S/C7H9N/c1-6-2-3-7(4-6)5-8/h3,6H,2,4H2,1H3/t6-/m0/s1
