17
gdb 127647	3.10645	1.25566	0.98902	2.1008	76.38	-0.2386	-0.0373	0.2013	1183.1853	0.136312	-418.038793	-418.030127	-418.029183	-418.073103	30.477	
C	 0.0997647473	 1.3866588634	 0.1600735084	-0.346579
N	 0.0761682553	-0.0642571369	 0.1224857358	-0.004805
N	 0.038584961	-0.6929055275	-1.0695954063	-0.261922
C	-0.0584702117	-1.986183018	-0.7729306395	 0.001832
C	-0.0949642586	-2.1997456392	 0.617052049	-0.313682
C	-0.0161610814	-0.9337683005	 1.1699089936	 0.342919
C	 0.0318294905	-0.4876414484	 2.6013362825	-0.390497
C	 1.4647297078	-0.135371712	 2.9828313086	 0.159381
O	 1.8565305724	 0.9851807377	 3.183760828	-0.233253
H	 0.7185850443	 1.7349448503	 0.9888900134	 0.164994
H	 0.5195502098	 1.7321372331	-0.7841205767	 0.161908
H	-0.9114328619	 1.7947333648	 0.2697226171	 0.139074
H	-0.0967232876	-2.7152452283	-1.5688701176	 0.113778
H	-0.1705063423	-3.1335597148	 1.1511306976	 0.10354
H	-0.6038215773	 0.3825007457	 2.7890263038	 0.133038
H	-0.3079642753	-1.3140647518	 3.2343353635	 0.135319
H	 2.1542764676	-1.0070698575	 3.0242310886	 0.094953
61.9758	79.1601	107.9681	156.6018	207.5138	268.648	346.6915	420.7529	484.3055	643.8765	668.9668	696.5779	726.9017	793.0665	864.7032	886.3227	942.3663	997.8788	1041.838	1053.4246	1070.0323	1151.7761	1157.183	1225.0372	1234.0905	1289.5076	1319.608	1366.2956	1418.4654	1429.2154	1457.0215	1467.1099	1491.4605	1499.0567	1517.9414	1573.0377	1825.0056	2895.9502	3039.0677	3050.4729	3107.3199	3122.0929	3168.5774	3244.026	3265.0125
CN1N=CC=C1CC=O	Cn1nccc1CC=O	
InChI=1S/C6H8N2O/c1-8-6(3-5-9)2-4-7-8/h2,4-5H,3H2,1H3	InChI=1S/C6H8N2O/c1-8-6(3-5-9)2-4-7-8/h2,4-5H,3H2,1H3
