16
gdb 54942	4.32275	0.91159	0.864	4.3449	65.75	-0.2556	-0.0512	0.2044	1312.4095	0.124299	-475.045252	-475.036958	-475.036014	-475.079353	29.489	
O	-0.1820182588	-0.0351664409	 0.5241270964	-0.366763
C	 0.0396910274	 1.2024731332	 0.0618198561	 0.426921
O	 1.0904738622	 1.5665876174	-0.3927116453	-0.341443
C	-1.191633547	 2.1042732398	 0.1323227006	-0.103232
C	-1.9959968574	 2.2442207443	-1.1936663424	-0.27587
C	-3.2367958847	 1.7951930074	-0.3587841364	-0.050599
N	-2.3618932264	 1.4476083502	 0.7792504667	-0.35288
H	-1.1180859544	-0.0373685465	 0.8210340802	 0.305742
H	-2.6739183256	 1.8941503507	 1.6389728335	 0.246561
C	-4.1991251964	 2.9221716629	-0.0687180301	 0.151976
O	-4.2825768288	 3.4615369041	 1.0060413034	-0.243671
H	-0.900059111	 3.0656177033	 0.5630000038	 0.1213
H	-2.0368388213	 3.2464054019	-1.6213816584	 0.133552
H	-1.7062587746	 1.5350601409	-1.9692292904	 0.141675
H	-3.8037704598	 0.9520639216	-0.7746118509	 0.110203
H	-4.8315757436	 3.2330755497	-0.9288144569	 0.096528
49.5666	91.2	124.06	169.3982	224.264	327.6317	368.2386	467.877	610.9155	678.8888	715.1838	754.8621	794.3177	817.945	874.0364	906.1636	926.8159	985.3434	994.1356	1039.5159	1093.6459	1111.0039	1145.6661	1226.1792	1231.8121	1254.1993	1280.0562	1307.7457	1322.5002	1406.7617	1411.9232	1428.522	1490.5657	1819.9019	1872.7482	2900.4804	3026.1451	3082.112	3091.8751	3149.2656	3488.3516	3499.2531
[O-]C(=O)C1CC([NH2+]1)C=O	OC(=O)[C@H]1C[C@@H](N1)C=O	
InChI=1S/C5H7NO3/c7-2-3-1-4(6-3)5(8)9/h2-4,6H,1H2,(H,8,9)	InChI=1S/C5H7NO3/c7-2-3-1-4(6-3)5(8)9/h2-4,6H,1H2,(H,8,9)/t3-,4-/m1/s1
