18
gdb 16153	4.47341	1.62645	1.389	1.7662	71.69	-0.2418	0.0045	0.2464	945.3098	0.153846	-347.801189	-347.793713	-347.792769	-347.832854	28.836	
C	 0.0111494065	 1.479811088	-0.3364704989	-0.379973
C	 0.005583764	 0.0323411711	 0.1735425179	-0.277317
C	-1.384486206	-0.545339654	 0.2645710582	 0.427109
C	-2.3977210934	-0.0181724963	 1.2883617496	-0.326485
C	-3.3140875473	-1.2019614844	 1.5207753596	-0.078121
C	-2.9365516996	-2.277001251	 0.824248737	-0.076446
C	-1.7438004288	-1.9505133278	-0.0115216479	-0.077589
O	-1.9970469774	-0.9041332337	-0.9832733966	-0.304443
H	 1.033225587	 1.8585176897	-0.4290778875	 0.112602
H	-0.4655390634	 1.5403018034	-1.3193758962	 0.134856
H	-0.5304624815	 2.1467330947	 0.3425422297	 0.116651
H	 0.5982089016	-0.5967878286	-0.499310317	 0.105494
H	 0.4794018118	-0.0198998653	 1.162097311	 0.097677
H	-1.9015613411	 0.3011716722	 2.2146715663	 0.108381
H	-2.9419253815	 0.8522243578	 0.9032538522	 0.124962
H	-4.187591495	-1.1414038754	 2.1604021626	 0.100667
H	-3.4260785533	-3.2428734171	 0.8206737636	 0.101019
H	-1.0274884024	-2.7033034335	-0.3285114038	 0.090955
80.395	157.6987	215.1668	273.0513	342.6346	385.5993	416.8415	530.6901	630.7344	709.8119	738.5323	780.4893	810.678	866.7421	912.9932	939.8634	950.5198	961.9405	985.2096	994.3263	1049.3015	1077.6767	1100.3914	1137.4062	1186.8428	1219.2708	1258.7495	1294.7649	1329.6427	1357.6289	1373.1844	1408.0722	1439.5143	1463.0219	1472.8308	1499.541	1508.3481	1662.5532	3020.8584	3028.4005	3038.0714	3062.962	3071.5128	3106.8456	3116.2613	3154.5701	3189.4066	3218.8881
CCC12CC=CC1O2	CC[C@]12CC=C[C@H]1O2	
InChI=1S/C7H10O/c1-2-7-5-3-4-6(7)8-7/h3-4,6H,2,5H2,1H3	InChI=1S/C7H10O/c1-2-7-5-3-4-6(7)8-7/h3-4,6H,2,5H2,1H3/t6-,7+/m1/s1
