18
gdb 6624	7.06988	0.69087	0.63923	2.7098	77.78	-0.2376	-0.0122	0.2254	1742.7302	0.149852	-347.810824	-347.800487	-347.799543	-347.849029	33.855	
C	-0.0338756972	 1.4933212159	-0.0155243943	-0.497452
C	-0.0043439908	 0.0381798922	 0.0343701079	 0.120897
C	 0.03554771	-1.1646278734	 0.077431106	 0.010167
C	 0.0526861327	-2.6222558717	 0.1259202508	-0.357781
C	-1.3506262587	-3.2315964693	-0.0208718862	-0.287895
C	-1.3484245043	-4.7538080759	 0.0278856681	 0.377699
C	-2.7005026815	-5.4314475511	-0.1105655016	-0.474261
O	-0.3265873832	-5.3864240695	 0.1689941283	-0.288294
H	 0.5746469805	 1.8769940886	-0.8420922529	 0.146375
H	-1.0540268892	 1.8679751818	-0.156203039	 0.144119
H	 0.353391056	 1.93263626	 0.910621538	 0.146346
H	 0.6997414104	-3.023980052	-0.6621749763	 0.139559
H	 0.4949440639	-2.9688669436	 1.0668913394	 0.139555
H	-2.0181046641	-2.85673033	 0.7658935747	 0.129546
H	-1.813254368	-2.911844437	-0.9636270879	 0.129549
H	-3.1705001743	-5.1552720095	-1.0611335486	 0.139057
H	-2.5790285767	-6.5141016819	-0.0617832606	 0.143754
H	-3.3770970554	-5.0997834335	 0.685029234	 0.139061
16.8868	34.5282	64.3287	78.4043	112.8648	203.5815	211.4933	282.8617	369.3696	387.5339	478.4597	505.2352	579.3058	739.2306	755.4122	850.7581	918.1388	941.2246	1051.6976	1051.7631	1060.2115	1079.3783	1167.9478	1177.7115	1187.0145	1302.5481	1303.286	1379.9169	1386.7609	1415.7907	1448.6583	1464.9581	1471.9898	1477.0119	1479.3554	1479.8859	1809.5479	2374.2498	3024.4143	3026.9354	3037.6232	3042.1961	3053.3366	3075.827	3083.5811	3084.4308	3097.6182	3152.0163	16.887	34.5268	64.3275	78.4042	112.8643	203.5814	211.4931	282.8617	369.3695	387.5337	478.4594	505.2351	579.3059	739.2304	755.4121	850.7581	918.1389	941.2246	1051.6977	1051.7631	1060.2116	1079.3784	1167.9478	1177.7117	1187.0148	1302.5483	1303.2865	1379.9171	1386.761	1415.7907	1448.6588	1464.9582	1471.9902	1477.012	1479.3555	1479.8859	1809.5482	2374.2498	3024.4143	3026.9354	3037.6232	3042.1961	3053.3366	3075.827	3083.5811	3084.4308	3097.6182	3152.0163
CC#CCCC(C)=O	CC#CCCC(=O)C	
InChI=1S/C7H10O/c1-3-4-5-6-7(2)8/h5-6H2,1-2H3	InChI=1S/C7H10O/c1-3-4-5-6-7(2)8/h5-6H2,1-2H3
