15
gdb 25472	3.4669	1.4317	1.13366	4.823	72.46	-0.2236	-0.047	0.1766	1039.9359	0.114058	-416.808826	-416.801556	-416.800611	-416.841439	26.398	
O	-0.5990937079	 0.2416210132	 0.103287416	-0.22683
C	-0.2476248656	 1.3692933127	-0.1136137262	 0.160226
C	 1.1707341787	 1.8675945697	 0.0275150696	-0.085515
C	 1.4584822865	 2.8022967846	 1.2821524421	-0.415134
C	 2.4170037123	 1.6970509641	 1.7036214624	 0.300997
C	 3.3300181682	 0.99645124	 2.4477488383	-0.218653
N	 3.5861415128	-0.1978536404	 1.7993835431	-0.261569
C	 2.854430292	-0.2285772283	 0.7009883813	-0.01868
N	 2.1332470504	 0.9230996767	 0.6145054905	 0.017937
H	-0.960852058	 2.1587933439	-0.443107358	 0.089462
H	 1.4984323228	 2.3041335878	-0.9236681496	 0.127505
H	 1.9011417278	 3.7675750664	 1.0282395874	 0.137812
H	 0.5945233478	 2.9606115648	 1.9328045352	 0.138721
H	 3.8159004815	 1.2443609822	 3.3774978734	 0.112402
H	 2.8168137209	-1.0295766974	-0.0190803454	 0.141317
63.2316	90.6866	193.2854	221.6447	329.8276	464.7956	631.862	657.9554	664.8063	710.5247	776.2176	789.433	827.8216	889.324	913.3953	959.2251	999.306	1054.0106	1100.2155	1116.5726	1128.9156	1195.727	1224.7282	1236.5588	1268.8777	1332.0071	1377.3995	1408.7734	1416.0631	1466.4163	1494.6026	1569.9825	1841.4731	2878.2351	3045.7565	3068.5513	3119.5739	3263.9734	3274.1335
O=CC1CC2=CN=CN12	O=C[C@H]1Cc2cncn12	
InChI=1S/C6H6N2O/c9-3-6-1-5-2-7-4-8(5)6/h2-4,6H,1H2	InChI=1S/C6H6N2O/c9-3-6-1-5-2-7-4-8(5)6/h2-4,6H,1H2/t6-/m1/s1
