17
gdb 25900	2.62463	1.50687	0.9731	4.9479	77.18	-0.2144	0.0004	0.2149	1170.3309	0.13752	-418.088525	-418.079869	-418.078925	-418.121929	32.553	
C	 0.034213015	 1.490432058	 0.0697091921	-0.484749
C	-0.005477065	-0.006764038	 0.0483232717	 0.178407
C	 0.016938532	-0.8051720191	-1.0683629408	-0.151654
N	-0.0374695182	-2.1226269121	-0.6671135518	-0.25202
C	-0.0907169796	-2.1873172849	 0.6913975396	-0.176556
C	-0.0680016679	-0.8916487277	 1.1792809575	 0.110321
C	-0.1283325511	-0.4693125836	 2.590778467	 0.29747
N	 0.0992853738	-1.4664574391	 3.524399304	-0.540147
O	-0.394816088	 0.6703058734	 2.9353305118	-0.372539
H	 0.8923717857	 1.8613247308	 0.6390795639	 0.131425
H	 0.0978726107	 1.8894489347	-0.9473206013	 0.101234
H	-0.8533115136	 1.9024173214	 0.5566541566	 0.146115
H	 0.0679819812	-0.5452472179	-2.1138141657	 0.122553
H	-0.0630163467	-2.9149229554	-1.2848149078	 0.264617
H	-0.1842769044	-3.1330566775	 1.2010264998	 0.127293
H	 0.6949363668	-2.237440087	 3.2685372897	 0.246412
H	 0.2060824092	-1.1292455359	 4.4696125335	 0.25182
65.1167	127.1035	177.42	190.6525	268.5552	311.7782	418.8151	432.392	488.012	505.6646	535.7357	641.2177	644.3834	672.3811	693.7369	712.869	766.5317	812.9518	909.3987	1010.6944	1065.5905	1069.8483	1092.0273	1109.6682	1186.4902	1248.8727	1286.1174	1368.7396	1411.1426	1424.4893	1474.5984	1474.645	1488.1794	1551.2346	1607.5511	1616.6698	1769.4261	3039.8861	3099.8659	3116.8344	3257.5157	3260.9941	3576.6712	3681.9445	3699.819
CC1=CNC=C1C(N)=O	Cc1c[nH]cc1C(=O)N	
InChI=1S/C6H8N2O/c1-4-2-8-3-5(4)6(7)9/h2-3,8H,1H3,(H2,7,9)	InChI=1S/C6H8N2O/c1-4-2-8-3-5(4)6(7)9/h2-3,8H,1H3,(H2,7,9)
