21
gdb 101303	2.53633	0.97961	0.94351	2.9428	80.26	-0.259	-0.0427	0.2164	1418.1842	0.179208	-424.219656	-424.209292	-424.208348	-424.255749	36.657	
C	 1.8469806272	 0.8920877398	-0.6202381141	-0.395503
C	 1.3434915767	-0.5539808707	-0.6004363504	-0.171276
C	-0.0433293734	-0.7342920494	 0.0523397308	-0.008597
C	-1.1724327052	-0.0429033959	-0.7255052808	-0.404582
C	-0.3367569194	-2.2135374425	 0.1729199861	 0.066579
O	 0.3885084967	-2.9606450694	 1.1345526579	-0.23403
C	-1.0168133772	-2.8523796303	 1.3383042739	-0.05707
C	-1.4995076489	-2.0513023702	 2.5050459101	 0.142455
O	-0.8417347579	-1.2506513706	 3.1197926236	-0.246842
H	 2.860631483	 0.9423287186	-1.029567192	 0.115052
H	 1.2148564265	 1.5409187172	-1.234223249	 0.11633
H	 1.8756104205	 1.3128919628	 0.3907762509	 0.122845
H	 1.3155513335	-0.9493868728	-1.6256617454	 0.088718
H	 2.0578311485	-1.1751615797	-0.0483566036	 0.11801
H	 0.0036939303	-0.3229909236	 1.0658353622	 0.113298
H	-1.2502035685	-0.4360084202	-1.7464743572	 0.113692
H	-2.1408852295	-0.1907732021	-0.2362431539	 0.113494
H	-1.0018685188	 1.034011154	-0.7969922818	 0.126615
H	-0.4712318067	-2.734659459	-0.7798232798	 0.096607
H	-1.5852812684	-3.7659715854	 1.1548443526	 0.103506
H	-2.5638631291	-2.2515095205	 2.7651995698	 0.080699
49.5124	73.7995	115.5574	127.3904	201.7455	202.5205	227.8706	260.4982	276.2891	354.4986	400.9459	475.7693	509.4062	745.7461	777.5383	797.3023	841.8024	867.5782	929.5282	959.8784	971.0048	991.8347	1005.8255	1052.3712	1095.9501	1123.7032	1156.8818	1184.9404	1189.0654	1271.4987	1291.9373	1307.9374	1360.365	1380.3702	1395.4349	1407.2602	1413.277	1424.1926	1461.9982	1484.5788	1494.8204	1500.9653	1505.2157	1509.0392	1824.0118	2873.9574	3010.1016	3029.0311	3034.7444	3057.7189	3063.4238	3073.1548	3093.8657	3100.4686	3102.8344	3105.0995	3119.1021
CCC(C)C1OC1C=O	CC[C@@H](C)[C@H]1O[C@H]1C=O	
InChI=1S/C7H12O2/c1-3-5(2)7-6(4-8)9-7/h4-7H,3H2,1-2H3	InChI=1S/C7H12O2/c1-3-5(2)7-6(4-8)9-7/h4-7H,3H2,1-2H3/t5-,6+,7-/m1/s1
