22
gdb 8952	3.1547	1.21591	1.05544	2.2908	75.12	-0.2519	0.077	0.3289	1258.5222	0.19758	-387.340032	-387.329586	-387.328642	-387.375388	37.262	
C	 0.0308744313	 1.623114319	 0.0175457513	-0.382779
C	-0.1251062443	 0.1062061485	-0.1047791888	-0.188299
C	 0.7769258263	-0.4984905631	-1.1897597417	 0.142398
O	 2.1476638873	-0.1851838496	-0.9715388553	-0.442747
C	 0.607957462	-2.0247732222	-1.3099214346	 0.116164
C	 1.2968054579	-2.5809306763	-2.5562827733	-0.409545
O	 1.1729007435	-2.5500882488	-0.1079107978	-0.265543
C	 0.824127916	-3.8793819729	 0.1996255888	-0.234784
H	 1.0735408163	 1.8849261507	 0.2142634052	 0.130364
H	-0.2689933807	 2.1281646774	-0.9079505652	 0.108317
H	-0.5859499102	 2.0211157565	 0.8290300646	 0.105195
H	 0.1102793236	-0.3800226119	 0.849284708	 0.100819
H	-1.1682943319	-0.1480600771	-0.3355683783	 0.084914
H	 0.5222785225	-0.0479047701	-2.1578357252	 0.075821
H	 2.433929812	-0.7674299016	-0.2559793704	 0.287459
H	-0.4675280639	-2.2651892543	-1.3373727646	 0.062321
H	 1.2475774216	-3.672530453	-2.5960762106	 0.111238
H	 0.8107573217	-2.1953542029	-3.4583120131	 0.115862
H	 2.34453264	-2.270682559	-2.568515181	 0.13607
H	 1.2226479537	-4.6004648313	-0.5277135512	 0.111566
H	 1.2511745857	-4.1056911347	 1.1800192732	 0.12815
H	-0.2679360402	-4.0078938433	 0.2513227499	 0.107039
66.1177	91.0611	96.0966	170.9019	202.0831	208.2374	234.4828	247.1168	310.0724	338.5032	360.5619	440.9452	490.2987	508.645	679.9252	781.9678	808.434	878.4799	959.9433	984.4529	1009.6826	1043.6151	1079.4226	1114.609	1127.3973	1152.4658	1173.5728	1183.3325	1212.8959	1264.1673	1301.9986	1328.5561	1363.8884	1371.9828	1394.7084	1403.4654	1408.8046	1435.7159	1478.2649	1482.6056	1485.986	1495.3765	1496.2612	1502.6123	1510.6731	1513.1576	2969.9365	2983.7343	3020.0179	3028.1709	3034.4083	3034.6972	3046.4637	3065.5307	3098.7417	3109.5809	3111.1472	3123.8437	3132.6074	3775.077
CCC(O)C(C)OC	CC[C@@H](O)[C@@H](C)OC	
InChI=1S/C6H14O2/c1-4-6(7)5(2)8-3/h5-7H,4H2,1-3H3	InChI=1S/C6H14O2/c1-4-6(7)5(2)8-3/h5-7H,4H2,1-3H3/t5-,6-/m1/s1
