19
gdb 80828	1.99166	1.77366	1.6206	2.8152	74.59	-0.2275	-0.0162	0.2112	1007.529	0.158151	-423.034234	-423.025695	-423.024751	-423.067052	32.721	
C	-0.1672298843	 1.6409122225	-0.0335753423	-0.443703
C	 0.0224429331	 0.1326732518	 0.0082002545	-0.020398
C	 1.1856005713	-0.6067291312	-0.7046764656	 0.053452
C	 2.4753382593	 0.0674681312	-0.2084868563	-0.346949
C	 2.0644193665	 0.0932271594	 1.2796768232	 0.417078
O	 2.6445816439	 0.5253983429	 2.2367564408	-0.332149
C	 0.6886384575	-0.6035836972	 1.2117979711	 0.281524
C	 0.0103316016	-1.0029314372	 2.48513786	-0.509587
O	 1.0428197153	-1.6868350428	 0.2759170027	-0.333443
H	 0.7371711561	 2.1925513412	 0.2397923632	 0.131117
H	-0.4677860674	 1.9650873864	-1.0354798122	 0.1259
H	-0.9578464325	 1.9459271915	 0.6597715426	 0.130023
H	-0.9097746465	-0.3920477865	-0.2203870054	 0.092631
H	 1.1280793517	-0.9380237472	-1.7408572265	 0.086537
H	 3.3521729228	-0.5635539196	-0.3723302874	 0.137315
H	 2.6794622987	 1.0680633479	-0.5987880008	 0.124006
H	-0.1671017595	-0.1173098171	 3.1028259208	 0.137671
H	-0.9441492422	-1.4974415898	 2.287523515	 0.12603
H	 0.6484857647	-1.6830982363	 3.0570380925	 0.142944
109.5577	146.478	172.0782	207.2523	237.5847	264.0984	358.2076	447.7488	469.7709	547.1067	625.2623	650.9881	665.5322	735.9666	798.1121	803.6976	862.8892	913.5465	936.1604	967.6578	1015.7209	1043.8088	1074.5297	1111.3982	1119.3732	1141.2918	1175.7254	1203.8089	1269.5462	1273.3771	1297.5443	1339.403	1388.2163	1413.7714	1421.3485	1453.2048	1474.1943	1487.7005	1494.4581	1499.8546	1874.5235	3037.1641	3045.7077	3070.235	3071.1831	3100.6448	3111.1364	3117.7021	3122.1161	3125.1546	3126.7548
CC1C2CC(=O)C1(C)O2	C[C@H]1[C@H]2CC(=O)[C@]1(C)O2	
InChI=1S/C7H10O2/c1-4-5-3-6(8)7(4,2)9-5/h4-5H,3H2,1-2H3	InChI=1S/C7H10O2/c1-4-5-3-6(8)7(4,2)9-5/h4-5H,3H2,1-2H3/t4-,5+,7+/m0/s1
