17
gdb 66142	3.10561	1.3451	1.24553	1.641	68.23	-0.2456	-0.0415	0.2041	1048.629	0.135312	-458.951818	-458.943892	-458.942948	-458.984296	30.475	
O	 0.1263115019	 1.5525522085	-0.2578690712	-0.475085
C	-0.0417337924	 0.1851163417	-0.00479255	 0.285914
C	 0.4122459406	-0.1653760209	 1.4539870911	-0.163891
O	-0.4392176726	-1.182590592	 1.9471953589	-0.249537
C	-1.6521476362	-1.1208366585	 1.2362992004	 0.119973
C	-2.3623705021	 0.1985270796	 1.1163942095	-0.339883
C	-1.4881397435	-0.3124701585	-0.0164837182	-0.124851
C	 0.7661154936	-0.6203537016	-1.0055717845	 0.108699
O	 1.4108427506	-0.095065552	-1.8809784613	-0.277568
H	 0.6783666462	 1.6074001695	-1.0543158367	 0.293652
H	 1.4445181055	-0.5234663106	 1.5205125199	 0.119449
H	 0.3342019257	 0.7628614965	 2.0337974789	 0.126133
H	-2.20125003	-2.0526089205	 1.2938389132	 0.108056
H	-3.4339337447	 0.1704167364	 0.9521131274	 0.121699
H	-2.0201247417	 1.0483413146	 1.6957260444	 0.136377
H	-1.9388744674	-0.5940225587	-0.9611164841	 0.098376
H	 0.7329194763	-1.7212531638	-0.8803946376	 0.112486
99.2358	110.5465	220.5377	292.0783	311.5686	363.6523	376.9952	454.6581	492.7106	524.5475	688.9936	722.67	794.1554	815.0451	842.0976	905.0905	939.7456	970.8742	1003.6871	1008.5432	1047.7309	1066.2572	1098.0987	1104.8762	1144.6154	1167.6663	1194.8209	1215.6785	1256.7883	1307.4557	1354.7169	1384.5359	1393.7409	1440.9049	1481.6889	1519.0368	1810.2124	2940.4797	3025.8043	3079.575	3141.1163	3174.4166	3192.3093	3228.5076	3686.7087
OC1(COC2CC12)C=O	O[C@]1(CO[C@H]2C[C@@H]12)C=O	
InChI=1S/C6H8O3/c7-2-6(8)3-9-5-1-4(5)6/h2,4-5,8H,1,3H2	InChI=1S/C6H8O3/c7-2-6(8)3-9-5-1-4(5)6/h2,4-5,8H,1,3H2/t4-,5+,6+/m1/s1
