17
gdb 77236	3.09118	1.11933	0.94486	1.2566	69.54	-0.2552	-0.032	0.2232	1230.8084	0.133229	-458.963734	-458.954535	-458.953591	-458.998787	32.209	
O	 0.4353798704	 1.0923383642	-0.2948753015	-0.429978
C	 0.0925368493	-0.2467319856	-0.0486735604	 0.120248
C	-0.2450044786	-0.6938795726	 1.3936129116	-0.106728
C	-1.4802119196	-1.4729916127	 0.8260579404	-0.269467
C	-1.3606014494	-0.6279316981	-0.467050001	-0.150922
C	-2.2750245625	 0.5788938495	-0.4915501299	 0.163558
O	-3.0633380618	 0.8548488934	 0.377644025	-0.248932
C	 0.7945069161	-1.4591791314	 2.1577972343	 0.127931
O	 1.931154519	-1.6145900057	 1.781432998	-0.250644
H	 1.3622233299	 1.2146774888	-0.0648554757	 0.297062
H	 0.8199773613	-0.9389274186	-0.4890401024	 0.097781
H	-0.5965392997	 0.151356631	 1.9965042142	 0.121352
H	-1.2719708369	-2.5313352114	 0.6560737332	 0.113804
H	-2.4160096787	-1.354669588	 1.3706581226	 0.138913
H	-1.4427142355	-1.1431709124	-1.4295665411	 0.095995
H	-2.1686830251	 1.2169506816	-1.3933064515	 0.096253
H	 0.4459049717	-1.9038105121	 3.1178542642	 0.083774
47.251	76.8732	99.4107	164.8067	220.8091	241.0214	281.5081	308.3525	402.1963	529.3015	562.472	649.8593	732.292	795.8639	816.2315	878.057	924.7307	964.713	1017.5906	1032.0343	1080.3392	1104.8176	1125.8237	1156.7345	1178.9199	1228.5131	1236.4577	1252.5017	1280.7921	1342.0012	1362.1427	1417.3587	1421.429	1435.469	1475.2983	1814.0295	1820.2862	2873.5966	2918.8077	3035.7744	3058.4502	3060.4089	3082.9218	3153.0622	3819.3722
OC1C(CC1C=O)C=O	O[C@H]1[C@@H](C[C@H]1C=O)C=O	
InChI=1S/C6H8O3/c7-2-4-1-5(3-8)6(4)9/h2-6,9H,1H2	InChI=1S/C6H8O3/c7-2-4-1-5(3-8)6(4)9/h2-6,9H,1H2/t4-,5-/m0/s1
