15
gdb 42274	2.7249	1.41783	1.18327	5.4193	69.93	-0.2503	-0.0817	0.1685	1054.4144	0.11266	-416.771056	-416.763137	-416.762192	-416.804605	28.664	
O	 0.5669320649	 1.2293524595	 1.7492070297	-0.276519
C	-0.0103544128	 1.4053302178	 0.7035278792	 0.310734
C	 0.718996859	 1.2032838187	-0.5660897515	 0.253822
N	 1.3422207097	 1.0911681636	-1.533826086	-0.326479
C	-1.4583102645	 1.8208958779	 0.6152697978	-0.104041
C	-2.041918109	 2.5265644074	-0.6627264305	-0.273748
C	-3.0331508123	 1.3654117565	-0.8062109946	-0.03332
N	-2.2077284328	 0.1494900892	-0.9764887219	-0.319035
C	-2.4690978883	 0.671476797	 0.3818596532	-0.068993
H	-1.6893908644	 2.3640339808	 1.5331795553	 0.117812
H	-2.5078288455	 3.4799213788	-0.4091419929	 0.119661
H	-1.3600682936	 2.6579358271	-1.5053693345	 0.139418
H	-4.052638077	 1.4020990452	-1.1669496933	 0.107647
H	-2.8357578293	-0.6393985838	-1.123965345	 0.24011
H	-2.9315264141	 0.0613797843	 1.1467570351	 0.112931
34.2006	111.7479	153.1561	212.1327	296.7756	360.4641	430.0646	473.1497	632.8778	653.625	719.0611	781.8601	815.8816	836.0623	887.9597	945.0493	952.0813	966.7981	1004.1493	1048.572	1099.6022	1106.8391	1155.2251	1179.96	1229.1905	1249.5149	1280.8307	1311.5751	1332.4527	1380.6343	1474.0991	1779.5141	2336.1064	3079.0307	3105.1405	3140.4165	3197.586	3210.9225	3487.5514
O=C(C#N)C1CC2NC12	O=C(C#N)[C@H]1C[C@H]2N[C@@H]12	
InChI=1S/C6H6N2O/c7-2-5(9)3-1-4-6(3)8-4/h3-4,6,8H,1H2	InChI=1S/C6H6N2O/c7-2-5(9)3-1-4-6(3)8-4/h3-4,6,8H,1H2/t3-,4-,6+/m1/s1
