16
gdb 34254	4.27417	1.34281	1.21767	2.6299	76.47	-0.213	0.0229	0.236	1024.0562	0.125144	-400.655461	-400.648425	-400.647481	-400.686713	28.418	
C	 0.0005449669	-1.1679244639	-0.0536783201	-0.38959
C	-0.0090019718	 0.0357404522	-0.0211730511	 0.142734
C	-0.0318373847	 1.4533057606	 0.0174820064	 0.216438
N	-1.1340232178	 2.2402067819	 0.6378559373	-0.371119
C	-0.756331731	 3.3912174569	-0.2741370024	-0.076711
C	 0.1564524829	 4.2964304524	 0.5426063106	-0.0498
O	 1.2583333822	 3.441549189	 0.8952303543	-0.26354
C	 1.222181267	 2.3451170003	 0.026716201	 0.071669
C	 0.2337689192	 2.5004395727	-1.0754678884	-0.222617
H	 0.0170328087	-2.2294218515	-0.0731856777	 0.18701
H	-2.0070605747	 1.8427470351	 0.2953865638	 0.224656
H	-1.5845717337	 3.8781863852	-0.7858368058	 0.087225
H	 0.5153311424	 5.1589444022	-0.0384303673	 0.094258
H	-0.3211529447	 4.641051536	 1.4628896956	 0.123909
H	 2.1807764768	 1.8632450651	-0.1184469851	 0.120329
H	 0.3981624625	 2.4267063757	-2.142906791	 0.105148
134.8309	147.6051	259.1906	398.4321	413.4768	481.9229	514.9787	570.2177	605.0283	675.8491	709.4595	732.787	772.8088	835.7391	875.5454	878.2143	907.7872	927.5597	957.3436	1017.9664	1034.563	1040.5331	1070.956	1123.7902	1146.2903	1197.0831	1233.3487	1247.567	1253.5361	1283.9554	1331.1958	1386.9768	1428.7991	1499.8378	2227.7208	2997.4611	3104.0911	3135.1613	3188.1805	3206.5671	3475.4394	3501.9667
C#CC12NC3COC1C23	C#C[C@@]12N[C@H]3CO[C@@H]1[C@@H]23	
InChI=1S/C7H7NO/c1-2-7-5-4(8-7)3-9-6(5)7/h1,4-6,8H,3H2	InChI=1S/C7H7NO/c1-2-7-5-4(8-7)3-9-6(5)7/h1,4-6,8H,3H2/t4-,5-,6+,7-/m0/s1
