16
gdb 23526	2.45335	1.60435	1.2487	0.7892	73.24	-0.2427	0.0018	0.2445	1027.6314	0.124077	-437.795876	-437.788234	-437.78729	-437.827855	30.299	
O	-0.1364589252	 1.3909541742	 0.0519237464	-0.397757
N	 0.0266791821	-0.014041796	 0.036265899	-0.307867
C	-1.0833491496	-0.6056475073	-0.0557109666	 0.453462
C	-2.5882434466	-0.303059058	 0.0043939259	-0.214495
C	-3.0550557207	-1.0560422247	-1.2358836953	-0.086734
C	-2.3480229749	-2.196605547	-1.2181566051	-0.090556
C	-1.4831594495	-2.0802009479	 0.0325381067	-0.201685
C	-2.5883297456	-1.5217517411	 1.0434580628	 0.179901
O	-2.1989067664	-1.265060755	 2.3501152754	-0.439658
H	 0.776380422	 1.6948251583	 0.0980462291	 0.307606
H	-2.9900570841	 0.6763729104	 0.2473007983	 0.094124
H	-3.8070950421	-0.7184777638	-1.9340816374	 0.111571
H	-2.3708244816	-3.0366537542	-1.8968384028	 0.111898
H	-0.7880375906	-2.8707604592	 0.3044148852	 0.085932
H	-3.5171804673	-2.0947374829	 1.0733170572	 0.101247
H	-1.3657507499	-0.7751679159	 2.3368711514	 0.293008
89.2625	197.0284	267.357	289.6217	336.2477	402.8599	440.6642	456.8293	519.6362	566.4263	651.5325	680.8578	745.7611	790.5774	853.0838	869.9483	911.0209	926.4136	928.8848	951.3455	1002.942	1051.1279	1110.3795	1118.6185	1136.838	1198.8298	1204.1299	1216.4464	1226.5549	1287.5456	1319.2503	1403.2491	1419.6158	1607.1252	1791.477	3108.1295	3157.8692	3170.1159	3226.9968	3251.6611	3759.6261	3819.4698
ON=C1C2C=CC1C2O	ON=C1[C@H]2C=C[C@@H]1[C@H]2O	
InChI=1S/C6H7NO2/c8-6-3-1-2-4(6)5(3)7-9/h1-4,6,8-9H	InChI=1S/C6H7NO2/c8-6-3-1-2-4(6)5(3)7-9/h1-4,6,8-9H/t3-,4+,6+
