16
gdb 33955	3.27458	1.45954	1.27779	4.9604	73.04	-0.2515	0.0135	0.265	1001.495	0.126712	-396.889182	-396.88221	-396.881265	-396.920473	27.722	
N	 0.1444657986	-1.1170852349	 0.0965863	-0.339736
C	 0.088548841	 0.0367852981	 0.0473472165	 0.219051
C	-0.03003705	 1.4719121254	-0.008005579	 0.191887
C	 0.2692261006	 2.2407040866	-1.2570292997	-0.268836
N	 1.2153905013	 2.2789962175	-0.1437565223	-0.135004
C	 1.1098616225	 3.4269849932	 0.792129906	-0.175737
C	-0.2258300803	 3.338469892	 1.5185457417	-0.034016
N	-1.3960692099	 3.4741697998	 0.6304517293	-0.337678
C	-0.9338473263	 2.1314204103	 1.0199555823	-0.117417
H	 0.6305493227	 1.706524813	-2.1308889757	 0.133324
H	-0.3706047697	 3.0973636187	-1.441641263	 0.153746
H	 1.9286720657	 3.3397684243	 1.5131716108	 0.124512
H	 1.2323345426	 4.3668187092	 0.2456800275	 0.127309
H	-0.2989901016	 3.6663660559	 2.5508891847	 0.104113
H	-2.2213003058	 3.7228562992	 1.1703286789	 0.242606
H	-1.5497099214	 1.4999847718	 1.648710852	 0.111876
137.2049	155.5445	275.0329	319.0864	421.7973	473.958	513.2767	547.1108	595.6819	709.0699	734.2504	803.4185	812.3283	861.6158	878.0832	895.1526	940.1329	971.6723	997.153	1050.7132	1084.0955	1132.224	1141.3111	1156.0697	1177.2668	1209.2573	1231.8636	1251.3303	1320.8609	1348.3922	1368.3328	1424.0633	1481.9587	1495.4335	2356.4289	3053.436	3098.8345	3118.3907	3160.6856	3194.146	3218.661	3504.7591
N#CC12CN1CC1NC21	N#C[C@]12CN1C[C@H]1N[C@@H]21	
InChI=1S/C6H7N3/c7-2-6-3-9(6)1-4-5(6)8-4/h4-5,8H,1,3H2	InChI=1S/C6H7N3/c7-2-6-3-9(6)1-4-5(6)8-4/h4-5,8H,1,3H2/t4-,5-,6-,9?/m1/s1
