14
gdb 21299	7.32459	1.29958	1.11258	2.5287	61.48	-0.2153	0.0272	0.2425	1018.8305	0.107562	-415.84819	-415.840676	-415.839732	-415.87987	27.41	
C	-0.0423278361	 1.3990709757	 0.0262221747	-0.240516
O	-0.0028356042	-0.0299901371	 0.0086334177	-0.264762
C	-1.1902310017	-0.6415120306	-0.0079800355	 0.516166
N	-2.3275640708	 0.0178333054	-0.0044832745	-0.269694
O	-3.3128200372	-1.0030511337	-0.0264450369	-0.233909
C	-2.7040895862	-2.1972570381	-0.0422452411	 0.515155
N	-3.5355436898	-3.2870446062	-0.1272467227	-0.592605
C	-1.3471936156	-2.0543954042	-0.0291805204	-0.486163
H	 0.998083259	 1.7252125237	 0.0362938474	 0.129645
H	-0.5543148125	 1.7834625747	-0.8611647221	 0.141558
H	-0.5645514351	 1.7614793474	 0.9169454933	 0.140467
H	-4.4742875764	-3.1130321243	 0.2034928508	 0.266775
H	-3.1467081918	-4.1452467432	 0.2329240728	 0.265586
H	-0.5816252016	-2.8095659193	-0.0416691735	 0.112298
102.2446	169.3766	217.0113	236.5454	267.9695	368.6675	405.8095	496.6413	582.0906	655.9103	683.5876	713.4145	755.7969	767.7553	933.1219	1001.5485	1032.4156	1061.887	1091.144	1180.2121	1203.1643	1234.081	1371.6353	1451.1484	1478.724	1499.5513	1526.8991	1572.9642	1630.5026	1683.3625	3039.3384	3109.4455	3150.7543	3290.6714	3571.6266	3677.2796
COC1=NOC(N)=C1	COc1noc(N)c1	
InChI=1S/C4H6N2O2/c1-7-4-2-3(5)8-6-4/h2H,5H2,1H3	InChI=1S/C4H6N2O2/c1-7-4-2-3(5)8-6-4/h2H,5H2,1H3
