13
gdb 130821	3.28058	1.30583	0.93404	2.9523	67.2	-0.251	-0.096	0.1551	1135.3812	0.090424	-452.783514	-452.776031	-452.775087	-452.816319	26.412	
O	-0.8887599225	 1.2906687335	 0.0799804889	-0.232676
C	 0.2281688291	 0.963263096	-0.2226953267	 0.093952
C	 1.4369663644	 1.9041652537	-0.3336173146	 0.183805
O	 2.4947931191	 1.390472731	-0.6551813226	-0.314963
C	 1.2721427108	 3.3248104257	-0.0586451766	 0.11177
C	 2.3017648192	 4.2590028515	-0.1308197181	-0.081517
N	 1.7586225221	 5.440808115	 0.1895989588	-0.176387
N	 0.4324888142	 5.3711767721	 0.4735832631	-0.211522
C	 0.1340297471	 4.0912502519	 0.32460602	-0.097065
H	 0.5136214673	-0.0830772881	-0.4615148012	 0.111778
H	 3.3424989552	 4.1366801713	-0.3834432482	 0.17073
H	 2.2158223971	 6.3366536399	 0.2383634872	 0.287087
H	-0.8708282532	 3.7398029066	 0.4896494199	 0.155006
71.2661	126.6545	169.357	189.4982	264.8422	438.7679	554.986	565.1945	596.3086	666.4241	689.3064	697.0795	854.6714	936.6657	945.3471	981.896	1030.4075	1030.936	1132.587	1164.2183	1236.5828	1351.805	1368.4981	1387.9864	1428.2431	1498.2822	1581.7167	1745.8807	1827.0216	2925.6299	3277.4758	3289.7515	3666.2295
O=CC(=O)C1=CNN=C1	O=CC(=O)c1c[nH]nc1	
InChI=1S/C5H4N2O2/c8-3-5(9)4-1-6-7-2-4/h1-3H,(H,6,7)	InChI=1S/C5H4N2O2/c8-3-5(9)4-1-6-7-2-4/h1-3H,(H,6,7)
