18
gdb 9876	5.00525	0.99988	0.92951	1.8297	73.98	-0.2586	0.0551	0.3137	1270.9828	0.150959	-347.756406	-347.747402	-347.746458	-347.790412	32.708	
C	 0.1903954908	 1.5960193509	-0.2627558197	-0.465202
C	-0.0124345411	 0.0983451489	-0.1701349559	 0.426143
C	-1.4323100683	-0.420950362	-0.3143801138	-0.254396
C	-2.3275228482	-0.0413309837	 0.8867978324	-0.353606
C	-3.670414726	-0.5959846907	 0.7786160305	 0.293718
C	-4.7709095671	-1.0652464238	 0.6616442386	-0.439253
C	 1.1100154625	-0.7992939118	-0.4843879014	-0.23346
O	 0.7404291975	-0.545781832	 0.873228647	-0.277534
H	 1.2449414111	 1.8473764635	-0.127253856	 0.129342
H	-0.1361873309	 1.972119469	-1.2383099953	 0.123097
H	-0.3806109581	 2.1238027545	 0.5078600402	 0.129445
H	-1.876034466	-0.0345606518	-1.2390585101	 0.110868
H	-1.4109450352	-1.511179377	-0.3987725487	 0.116065
H	-1.8472216869	-0.4011136726	 1.8046423189	 0.149729
H	-2.3947170113	 1.0494676379	 0.9790759836	 0.129771
H	-5.7464213768	-1.4747347504	 0.5735759021	 0.193177
H	 0.9129704864	-1.8090402982	-0.8428600238	 0.111894
H	 2.0669208776	-0.3795302607	-0.7933968985	 0.1102
62.961	71.9761	127.05	190.4619	221.1527	333.6563	360.1861	371.7244	392.623	494.9078	506.1561	616.958	638.3852	735.1108	764.5954	843.4164	911.1149	930.0571	961.5051	986.7452	1031.0954	1065.415	1105.4329	1136.5909	1163.3101	1194.1293	1275.2738	1284.1011	1321.228	1370.9891	1405.9259	1423.7977	1470.0006	1484.0538	1490.715	1498.3089	1533.3748	2239.3678	3028.3124	3038.8867	3046.3465	3062.8136	3077.8173	3098.398	3102.0294	3124.7553	3162.9009	3507.2811
CC1(CCC#C)CO1	C[C@@]1(CCC#C)CO1	
InChI=1S/C7H10O/c1-3-4-5-7(2)6-8-7/h1H,4-6H2,2H3	InChI=1S/C7H10O/c1-3-4-5-7(2)6-8-7/h1H,4-6H2,2H3/t7-/m1/s1
