16
gdb 46237	2.71475	1.38421	1.10493	3.8301	77.15	-0.2431	0.0197	0.2628	1115.5873	0.123134	-400.71769	-400.709122	-400.708178	-400.75112	31.653	
O	-0.0489343816	 0.0208237273	 0.1583192243	-0.362196
C	-0.0197137063	 1.2144811962	 0.0406150637	 0.403741
N	-1.0004717789	 2.1789957956	-0.0885131623	-0.34689
C	-0.0888472891	 3.331033331	-0.056652654	-0.235535
C	 1.0518382103	 2.3000918403	 0.0071350422	 0.17039
C	 2.3400053594	 2.3135474834	 0.7617761	-0.345741
C	 2.3627972381	 2.291872409	-0.7574937966	-0.270583
C	 2.7935475339	 1.1296985449	-1.4777495401	 0.348082
C	 3.1716409432	 0.1700300923	-2.0949039933	-0.443847
H	-2.0009508386	 2.1205572746	 0.0224884638	 0.253962
H	-0.1212031147	 3.9527261553	-0.9571526004	 0.118739
H	-0.189124659	 3.9603099947	 0.834675186	 0.117281
H	 2.6444750411	 3.2314869011	 1.2529289157	 0.125079
H	 2.6120033704	 1.3965528397	 1.2727064892	 0.150176
H	 2.6106335677	 3.2400086892	-1.2289918946	 0.118237
H	 3.4888351242	-0.6897464048	-2.6307918635	 0.199106
87.0319	91.5306	148.3942	199.3943	238.9088	277.3783	419.0819	469.1195	494.69	513.6498	598.7314	656.8581	668.2018	745.4309	786.2351	798.6846	874.1808	883.1931	963.4584	992.2249	1066.7364	1075.2129	1091.6068	1123.7075	1141.1043	1150.9773	1187.0475	1282.8969	1329.5279	1378.0414	1423.1099	1481.7988	1525.2106	1898.6289	2243.0748	3033.0018	3080.4659	3133.0082	3135.2325	3229.5503	3505.9007	3627.2525
O=C1NCC11CC1C#C	O=C1NC[C@]21C[C@H]2C#C	
InChI=1S/C7H7NO/c1-2-5-3-7(5)4-8-6(7)9/h1,5H,3-4H2,(H,8,9)	InChI=1S/C7H7NO/c1-2-5-3-7(5)4-8-6(7)9/h1,5H,3-4H2,(H,8,9)/t5-,7-/m1/s1
