20
gdb 13822	3.54112	1.24333	1.07229	1.9378	72.22	-0.2459	0.0786	0.3246	1185.4473	0.174627	-386.112185	-386.102627	-386.101683	-386.146727	34.41	
C	-0.1980604243	 1.3672519406	-0.338109479	-0.23095
O	-0.5286716336	 0.052461149	-0.7379107571	-0.236548
C	 0.5429212055	-0.6274308202	-1.3132632243	 0.124693
C	 1.5619866836	-1.30251503	-0.4277543884	-0.336644
C	 0.5420912994	-2.1221295269	-1.1919697234	-0.063322
C	-0.5676938322	-2.8343581996	-0.4406716936	 0.131798
C	-1.7603331801	-3.1381007429	-1.3482722696	-0.404226
O	-0.0882224303	-4.0112710308	 0.2084641067	-0.434651
H	 0.6055881103	 1.3727297179	 0.4117422889	 0.111339
H	 0.1229830338	 1.9805706485	-1.1938036989	 0.105809
H	-1.098580134	 1.8084431435	 0.0952999553	 0.127425
H	 0.8939311066	-0.1864259591	-2.2482715308	 0.082162
H	 2.6010230969	-1.3214095485	-0.738088429	 0.108369
H	 1.4083603113	-1.2286165244	 0.6439042392	 0.124355
H	 0.9029547629	-2.6633185948	-2.0656114817	 0.074326
H	-0.9017745764	-2.1867416342	 0.3746338598	 0.09598
H	-1.4563099895	-3.758419636	-2.2014276737	 0.097971
H	-2.5316809139	-3.6779088418	-0.7921534353	 0.119065
H	-2.188754239	-2.2108719743	-1.7402914141	 0.131276
H	 0.2060384131	-4.6230254259	-0.4753189509	 0.271772
49.348	99.5589	128.7647	183.0374	207.9717	249.802	278.4609	303.7306	350.5335	389.998	450.9745	517.9933	615.0652	772.2145	821.1675	845.678	918.8276	976.0944	990.7384	1017.2764	1051.6168	1082.8927	1094.9433	1110.0022	1135.3368	1167.4665	1184.1634	1192.0735	1218.9065	1257.9959	1282.408	1333.269	1388.406	1397.5753	1415.9435	1425.8865	1473.2909	1485.035	1488.9577	1493.7134	1496.1787	1509.7856	2983.5588	3021.918	3036.2611	3075.4671	3078.091	3098.133	3116.7458	3118.984	3122.0519	3131.0772	3218.9178	3798.2606
COC1CC1C(C)O	CO[C@H]1C[C@H]1[C@@H](C)O	
InChI=1S/C6H12O2/c1-4(7)5-3-6(5)8-2/h4-7H,3H2,1-2H3	InChI=1S/C6H12O2/c1-4(7)5-3-6(5)8-2/h4-7H,3H2,1-2H3/t4-,5+,6+/m1/s1
