18
gdb 49619	2.72623	1.60665	1.31321	2.7959	77.1	-0.2386	-0.0236	0.215	1020.9473	0.147695	-401.893909	-401.885967	-401.885022	-401.926647	30.32	
O	-0.9151316253	 1.2254745348	 0.4379392285	-0.269584
C	 0.2575230224	 0.9425956172	 0.365729266	 0.149487
C	 1.3987340269	 1.8953247332	 0.2935156442	-0.111823
C	 1.3332541933	 3.346113319	-0.1419349221	-0.081428
C	 0.0165818667	 4.0278477146	 0.2746537161	-0.327484
C	 0.3665264538	 3.6671190413	 1.7381663569	 0.380212
C	 0.1207725412	 4.5169434067	 2.9241172407	-0.321012
N	-0.4852564547	 3.1769195387	 2.8086541453	-0.354287
C	 1.6595635668	 3.0154710367	 1.3042939833	-0.134572
H	 0.5744394032	-0.1256008383	 0.3463689388	 0.076276
H	 2.3262612579	 1.4070800355	 0.0029562223	 0.096058
H	 2.0013084409	 3.7007904171	-0.9169220112	 0.097628
H	 0.0463254838	 5.1065669206	 0.0987987645	 0.105252
H	-0.9005552361	 3.605735911	-0.1343908634	 0.131043
H	 0.8717784241	 4.611101792	 3.7048811375	 0.11636
H	-0.5038985345	 5.3976410503	 2.7907209462	 0.110348
H	-1.4628160374	 3.2302407127	 2.5353701338	 0.240015
H	 2.6048016369	 3.046807097	 1.8326617226	 0.097512
71.0756	104.9678	197.9273	248.0059	294.3029	336.0702	384.504	493.2318	565.0492	718.2142	767.1846	791.7167	811.2393	857.1797	884.6806	914.388	933.1821	953.9474	958.4915	978.5446	1003.4757	1041.1186	1055.8472	1079.1918	1097.925	1126.6004	1160.1715	1175.9255	1239.5423	1248.7098	1254.8113	1294.4578	1322.5862	1419.8257	1426.9172	1439.6139	1477.7013	1516.8656	1810.0969	2863.016	3067.3555	3095.3298	3138.6581	3143.0344	3178.498	3182.1255	3194.1724	3513.1127
O=CC1C2CC3(CN3)C12	O=C[C@H]1[C@H]2C[C@]3(CN3)[C@@H]12	
InChI=1S/C7H9NO/c9-2-5-4-1-7(3-8-7)6(4)5/h2,4-6,8H,1,3H2	InChI=1S/C7H9NO/c9-2-5-4-1-7(3-8-7)6(4)5/h2,4-6,8H,1,3H2/t4-,5+,6-,7+/m1/s1
