20
gdb 108125	3.0374	1.57851	1.40935	1.9725	78.05	-0.2192	0.0871	0.3063	1016.1249	0.172779	-403.076743	-403.069233	-403.068289	-403.108683	30.12	
C	-0.0041732456	 1.4135476045	 0.0159092223	-0.265988
O	-0.0085435173	-0.0022632299	 0.0408114244	-0.301006
C	-1.27344405	-0.5570543478	 0.0746490874	 0.440437
C	-2.2273505779	-0.5723897166	 1.2697051406	-0.255723
N	-2.9005737361	-1.7372742106	 0.5706659641	-0.156382
C	-3.4858638075	-1.0098169395	-0.6074188324	-0.153666
C	-2.1710519173	-0.5819560339	-1.2696431861	-0.131486
C	-1.5576138809	-1.9766476832	-1.5672032141	-0.246905
C	-1.5040416431	-2.0808387774	-0.0439491003	-0.046811
H	 1.0406352621	 1.7302439292	-0.0081238252	 0.130499
H	-0.5172405534	 1.8067504984	-0.87302047	 0.111624
H	-0.4832719597	 1.8365730654	 0.9102965162	 0.113225
H	-1.7281206249	-0.9177204465	 2.179610338	 0.109459
H	-2.8869687064	 0.2700579364	 1.4988486938	 0.094937
H	-4.0839419015	-1.6843509625	-1.227122479	 0.10023
H	-4.126673072	-0.1941977071	-0.2637027243	 0.097516
H	-2.1602317203	 0.2246614539	-2.0013840537	 0.067011
H	-2.1502121105	-2.6902272084	-2.1467574512	 0.095727
H	-0.5426052997	-1.911373512	-1.9660105025	 0.115226
H	-0.9687760282	-2.8385671621	 0.524789742	 0.082077
87.0958	166.1547	182.3785	310.7155	347.7875	449.1549	478.8396	526.7876	580.9121	681.4953	688.2948	773.0453	840.1882	858.776	907.3239	927.0184	940.7128	957.2465	995.224	1005.403	1034.074	1059.883	1086.763	1113.137	1134.8378	1154.5154	1166.9587	1180.2618	1182.0292	1221.1116	1226.3222	1236.0452	1240.6079	1259.5181	1289.6761	1325.1122	1332.6499	1480.7442	1486.6921	1488.4589	1500.4899	1506.6144	1526.6921	2991.4622	3041.6661	3045.5416	3052.949	3058.1784	3099.2966	3107.0137	3119.863	3122.6371	3125.4575	3139.3584
COC12CN3CC1CC23	CO[C@@]12CN3C[C@@H]1C[C@@H]23	
InChI=1S/C7H11NO/c1-9-7-4-8-3-5(7)2-6(7)8/h5-6H,2-4H2,1H3	InChI=1S/C7H11NO/c1-9-7-4-8-3-5(7)2-6(7)8/h5-6H,2-4H2,1H3/t5-,6-,7-/m0/s1
