14
gdb 56119	4.51197	0.86244	0.84656	2.1704	65.8	-0.2688	-0.0632	0.2056	1353.0401	0.098157	-473.838222	-473.828897	-473.827953	-473.873552	32.463	
N	-0.1400827748	 1.1676000773	 0.0697459876	-0.56133
C	-0.168065109	-0.1815357319	 0.2584302356	 0.50688
O	 0.2932230503	-0.7784732334	 1.2001361015	-0.397127
O	-0.7490400045	-0.7814787855	-0.825205519	-0.243273
C	-0.9315650305	-2.174417137	-0.6961928166	-0.187825
C	-2.1792977525	-2.5016762022	 0.1234121691	 0.243827
O	-2.8750198073	-1.6530408504	 0.6277110159	-0.275454
C	-2.4525832865	-3.9223980963	 0.2412503343	 0.244513
C	-2.6510878751	-5.107342558	 0.312260111	-0.398635
H	 0.0835262417	 1.7179007116	 0.8813957819	 0.272861
H	-0.7690518445	 1.5670403904	-0.6066537641	 0.27004
H	-1.0442437967	-2.5791237521	-1.706662307	 0.1437
H	-0.0666135336	-2.6466408938	-0.2183478839	 0.161871
H	-2.8416016371	-6.1504106686	 0.3917100336	 0.219952
44.9723	68.052	73.4793	147.1099	235.4731	294.3678	319.9839	395.6118	415.7554	496.1479	546.8856	554.3271	597.0144	660.0496	685.2866	711.9196	780.4462	843.7498	880.0675	1020.5779	1084.8052	1121.1396	1165.4403	1288.7793	1347.6463	1397.9186	1442.9115	1614.9903	1788.4344	1846.9523	2213.168	3053.3491	3105.9095	3493.5721	3611.3864	3738.2948
NC(=O)OCC(=O)C#C	NC(=O)OCC(=O)C#C	
InChI=1S/C5H5NO3/c1-2-4(7)3-9-5(6)8/h1H,3H2,(H2,6,8)	InChI=1S/C5H5NO3/c1-2-4(7)3-9-5(6)8/h1H,3H2,(H2,6,8)
