14
gdb 18997	5.58877	1.95788	1.73178	1.4528	62.44	-0.2472	0.0095	0.2567	741.7266	0.110277	-378.660274	-378.654869	-378.653925	-378.689645	22.093	
N	-0.013465786	 1.2837751582	-0.023176191	-0.551593
C	-0.0290976233	 0.0257007138	-0.00519149	 0.433266
O	 1.0710953821	-0.8159233981	-0.0271451785	-0.261305
C	 0.478328465	-2.1104003625	 0.0089889861	 0.121414
C	-0.7987356888	-2.1415703117	-0.8706972835	-0.056622
N	-1.3823461346	-3.1536229597	 0.0804224792	-0.339138
C	-0.7425507344	-2.1160393963	 0.9656133878	-0.056622
C	-1.1891887338	-0.9202538802	 0.0434607748	-0.147868
H	 0.9464323637	 1.6334110542	-0.0574148629	 0.227872
H	 1.2174389173	-2.9056777576	-0.0025693222	 0.115999
H	-0.8818747532	-2.2239765203	-1.9545998125	 0.099291
H	-2.398457876	-3.0383106883	 0.109908585	 0.218413
H	-0.7592135141	-2.1682385615	 2.0544408166	 0.099291
H	-2.2019104239	-0.52633405	 0.0689710011	 0.097603
174.1722	368.9687	421.4817	505.4242	617.2113	655.3407	728.292	793.1004	837.3081	870.1762	891.1685	903.1411	909.695	926.9888	970.5347	1002.2052	1027.8076	1069.5015	1124.5574	1126.924	1149.418	1155.7235	1173.6203	1222.3739	1235.602	1268.7633	1294.8316	1339.7048	1370.0856	1806.2315	3117.9062	3119.5878	3166.9899	3183.754	3411.1444	3466.2752
N=C1OC2C3NC2C13	[NH][C]1O[C@@H]2[C@H]3N[C@@H]2[C@@H]13	
InChI=1S/C5H6N2O/c6-5-1-2-4(8-5)3(1)7-2/h1-4,6-7H	InChI=1S/C5H6N2O/c6-5-1-2-4(8-5)3(1)7-2/h1-4,6-7H/t1-,2-,3+,4+
