21
gdb 36861	4.38141	0.98906	0.92442	0.8094	83.2	-0.235	0.0903	0.3253	1356.7218	0.182167	-387.032297	-387.023797	-387.022852	-387.066208	33.002	
C	-0.5307955723	 1.1891881744	-0.0058541189	-0.281625
C	 0.9817225476	 1.1632924772	 0.1127250323	-0.293318
C	 0.2248749921	-0.112010298	-0.0548030082	 0.121947
O	 0.2065682453	-0.96663925	 1.0570021833	-0.290686
C	-0.8160138197	-1.8985435513	 1.032797824	 0.458714
C	-2.214269244	-1.5871035124	 1.4859177944	-0.327021
C	-1.4070494145	-2.6410459844	 2.217516382	-0.138554
C	-1.4179300831	-3.9451243062	 1.4098848381	-0.218856
C	-0.7794074581	-3.1858278516	 0.1969916945	-0.295643
H	-1.0897753226	 1.401060223	 0.8977509396	 0.118715
H	-0.9805227908	 1.5648538288	-0.9185498215	 0.111639
H	 1.5836409493	 1.523338554	-0.7138707474	 0.113209
H	 1.4013456388	 1.3459027	 1.09548528	 0.12545
H	 0.2897536836	-0.6301731854	-1.0105454201	 0.089652
H	-2.3086542715	-0.6473898559	 2.0192119131	 0.111976
H	-3.0848330545	-1.8642165968	 0.8938134385	 0.098898
H	-1.1785821275	-2.5453573971	 3.2716867274	 0.092084
H	-0.7562122296	-4.7144517599	 1.8129753404	 0.105599
H	-2.4057384684	-4.3852456712	 1.2394279941	 0.096335
H	-1.3369210762	-3.1812683083	-0.7451877904	 0.091972
H	 0.2444208463	-3.5156564689	 0.0058713947	 0.109513
40.3013	84.278	136.1458	228.0806	310.3695	374.1845	384.8392	409.89	492.4837	658.8024	708.1129	755.3918	789.4775	816.8209	820.846	872.8376	908.2115	917.3562	952.3423	963.134	978.433	1001.7059	1023.0011	1030.3795	1054.6933	1070.8433	1077.416	1110.9798	1128.2453	1150.3224	1189.5975	1192.2055	1216.7431	1222.9997	1231.3447	1238.3401	1265.5759	1302.9178	1372.0494	1407.2216	1454.0118	1476.9285	1479.6336	1496.6144	1511.9799	3043.3995	3051.9647	3098.0887	3099.2992	3110.0953	3117.4561	3137.9494	3142.1694	3189.1138	3206.6599	3221.9526	3235.7281
C1CC1OC12CC1CC2	C1CC1O[C@]12C[C@H]1CC2	
InChI=1S/C8H12O/c1-2-7(1)9-8-4-3-6(8)5-8/h6-7H,1-5H2	InChI=1S/C8H12O/c1-2-7(1)9-8-4-3-6(8)5-8/h6-7H,1-5H2/t6-,8-/m1/s1
