15
gdb 19412	3.25839	2.16149	1.64693	2.7679	60.62	-0.2398	0.0584	0.2982	798.9256	0.118928	-399.71688	-399.710097	-399.709153	-399.747729	26.328	
O	 0.2060782167	 1.4001710632	-0.0246649215	-0.433387
C	 0.0112755497	 0.0173875302	-0.0277713708	 0.05301
C	 0.3058883661	-0.7477840672	 1.2795965062	-0.083115
N	-0.6489903612	-0.171328573	 2.2569139737	-0.360995
C	-1.0912006188	-1.2655351782	 1.3426558021	-0.173428
C	-1.4397044739	-0.5487462695	 0.0550915761	 0.451876
C	-2.6990118937	-0.0243201321	-0.4576418296	-0.265786
O	-2.0601817635	-1.1760925067	-1.0468329678	-0.284384
H	-0.1611921836	 1.7112507787	 0.8140030378	 0.291959
H	 0.5282051722	-0.3984566299	-0.8965583278	 0.107973
H	 1.2349544462	-1.2009805137	 1.6007313934	 0.102157
H	-0.453185642	-0.5893360244	 3.1653290076	 0.238535
H	-1.4727070131	-2.2057576127	 1.7184252261	 0.110442
H	-3.6292376595	-0.2278113032	 0.0702126895	 0.117614
H	-2.6899401418	 0.8733449186	-1.0732277248	 0.127529
119.4036	199.6909	238.508	306.6414	417.0081	480.9341	501.9399	610.2664	641.4893	753.6007	825.0077	837.3274	870.7428	896.5675	912.7366	954.276	983.8005	1039.1943	1088.0199	1090.7785	1118.9935	1122.5367	1151.2742	1166.6097	1194.952	1267.1127	1306.1335	1313.0479	1352.1715	1436.4341	1456.1258	1538.2927	3088.6051	3093.1708	3179.4402	3196.485	3211.8824	3484.3047	3757.7223
OC1C2NC2C11CO1	O[C@H]1[C@H]2N[C@H]2[C@]21CO2	
InChI=1S/C5H7NO2/c7-4-2-3(6-2)5(4)1-8-5/h2-4,6-7H,1H2	InChI=1S/C5H7NO2/c7-4-2-3(6-2)5(4)1-8-5/h2-4,6-7H,1H2/t2-,3+,4-,5-/m0/s1
