19
gdb 40153	2.62271	1.5055	1.22593	2.7153	74.7	-0.2458	0.0633	0.3091	1082.1024	0.158889	-422.966509	-422.958384	-422.95744	-422.999821	30.682	
C	 0.093158521	 1.4778327079	-0.1380748547	-0.270776
O	 1.223799946	 0.5954329259	-0.0623421173	-0.268574
C	-0.0710521634	 0.0288869878	-0.0024067419	 0.402918
C	-0.6240041093	-0.7784749127	 1.173762178	-0.324228
C	-1.4576351231	-1.5925147408	 0.1374693432	-0.313369
C	-0.6146646704	-0.9838409834	-1.014897941	 0.214253
C	-1.1739858074	-0.6337477737	-2.4036172835	-0.143207
O	-0.2114826012	-1.474878411	-3.0658313133	-0.273625
C	 0.3876221529	-1.8518120185	-1.8090010968	-0.124518
H	-0.0567552139	 2.1189061295	 0.7301109444	 0.117238
H	-0.0549295637	 1.9608644182	-1.1028758452	 0.119684
H	 0.1571266397	-1.3767595798	 1.6510563343	 0.121054
H	-1.1714265212	-0.2325662019	 1.9451746463	 0.109388
H	-1.4275683798	-2.6804018187	 0.2302116248	 0.109556
H	-2.5026261949	-1.2732475383	 0.0944443801	 0.109007
H	-2.2068342744	-0.961282052	-2.5843775328	 0.099501
H	-1.0786103749	 0.4182962482	-2.7046835704	 0.099116
H	 1.4323333673	-1.5269513699	-1.7375550557	 0.118761
H	 0.3226534306	-2.932750107	-1.6284513982	 0.097821
60.1368	78.6879	183.7414	239.3045	278.3589	332.0524	411.4524	481.6177	529.782	572.5164	740.5769	847.2111	852.3746	867.3143	882.1702	905.4029	936.075	950.528	966.4472	993.0039	1043.4273	1112.8507	1122.1009	1133.3054	1154.105	1164.2706	1166.837	1178.4786	1188.0258	1217.7044	1238.5595	1254.1738	1302.2955	1311.6113	1381.6379	1424.1413	1473.9493	1491.536	1503.0088	1530.6177	1534.3975	2994.4913	3011.5399	3037.0583	3059.7057	3063.2458	3064.3345	3080.2585	3107.7423	3123.0831	3167.0408
C1OC11CCC11COC1	C1O[C@]21CCC12COC1	
InChI=1S/C7H10O2/c1-2-7(5-9-7)6(1)3-8-4-6/h1-5H2	InChI=1S/C7H10O2/c1-2-7(5-9-7)6(1)3-8-4-6/h1-5H2/t7-/m0/s1
