23
gdb 101687	3.40907	0.79869	0.7781	2.6136	82.09	-0.2595	0.0758	0.3353	1594.1299	0.202867	-425.408957	-425.398147	-425.397202	-425.445016	39.504	
C	-0.1365063614	 1.6214993238	-0.1989481251	-0.387778
C	-0.0546517828	 0.1025383263	 0.0002761129	 0.029327
C	-1.451515279	-0.5209887701	 0.0423483533	-0.080774
O	-2.1533062844	 0.0230982092	 1.1508021637	-0.4236
C	 0.7893421316	-0.5959927067	-1.0824335191	-0.27144
C	 2.2539184049	-0.1889442346	-1.1338308124	 0.426379
C	 3.0720502929	-0.3790122995	 0.1261725001	-0.463062
C	 2.9402852516	-0.1952901429	-2.4357239303	-0.232361
O	 2.5249115158	 1.0352736561	-1.8400910243	-0.271428
H	 0.8492082618	 2.0891592276	-0.1482675661	 0.128461
H	-0.5578552468	 1.8584669892	-1.183330443	 0.107003
H	-0.7802149419	 2.0655961378	 0.5634413262	 0.126755
H	 0.3945591315	-0.0981094231	 0.9821157276	 0.083218
H	-1.9773598847	-0.3096126657	-0.904171373	 0.082214
H	-1.3659967798	-1.6164868894	 0.1323506613	 0.078176
H	-3.05972506	-0.2952902661	 1.1201680433	 0.286109
H	 0.7469418692	-1.6834177	-0.9277132266	 0.093603
H	 0.3480701697	-0.3987608855	-2.0671574742	 0.098619
H	 3.0506859199	-1.4256391746	 0.4492937008	 0.118759
H	 4.1111912355	-0.0886841469	-0.0459576601	 0.125006
H	 2.6827831959	 0.2319716919	 0.9461718253	 0.133641
H	 4.017456845	-0.3543231468	-2.4785191629	 0.106802
H	 2.3967670053	-0.4874278502	-3.3339980474	 0.106372
54.1305	80.4406	119.3281	150.2457	195.7369	239.9935	241.8043	261.277	304.6342	335.1647	359.5	398.8633	426.7777	461.8622	551.3617	732.8183	818.5593	848.187	893.432	911.6087	929.2632	933.9642	967.4687	1017.1149	1075.1909	1079.5567	1102.5747	1132.7682	1137.698	1171.7281	1174.0639	1214.751	1256.9005	1273.055	1292.7702	1318.53	1359.1959	1382.4108	1406.0176	1411.0074	1424.4819	1457.7239	1469.1161	1485.6522	1491.1195	1499.0882	1506.346	1520.5125	1532.5873	2952.3396	2980.0195	3008.4485	3019.825	3037.1381	3039.0971	3059.4484	3075.2384	3103.6774	3108.9955	3124.0875	3137.1283	3159.2413	3835.1853
CC(CO)CC1(C)CO1	C[C@@H](CO)C[C@@]1(C)CO1	
InChI=1S/C7H14O2/c1-6(4-8)3-7(2)5-9-7/h6,8H,3-5H2,1-2H3	InChI=1S/C7H14O2/c1-6(4-8)3-7(2)5-9-7/h6,8H,3-5H2,1-2H3/t6-,7+/m1/s1
