18
gdb 41857	2.41779	2.1098	1.71444	2.6549	70.83	-0.2491	0.0271	0.2762	881.3758	0.152123	-439.105748	-439.099209	-439.098265	-439.136349	26.92	
C	-0.0349273277	 1.5380188442	-0.0216145263	-0.081866
O	 1.2531770235	 2.1161631385	-0.0255660925	-0.239979
C	 2.1019136319	 1.626638514	-1.0492061262	-0.073011
C	 2.2142997362	 0.0897174332	-1.0148454702	-0.001572
C	 0.8118389334	-0.5116019837	-1.1865301172	-0.264524
C	 0.0174252554	 0.0053261202	 0.0115825547	 0.100879
O	 0.6429167967	-0.434404393	 1.2323365567	-0.238479
C	 1.9959798257	-0.5345822704	 1.2098975523	 0.131466
N	 2.8012853287	-0.3374483781	 0.2530534933	-0.262208
H	-0.5391000182	 1.9214757066	 0.8693928178	 0.120528
H	-0.6157785805	 1.8433453945	-0.9101774998	 0.087801
H	 1.7364580378	 1.9386358666	-2.0425473582	 0.084576
H	 3.0780237582	 2.0846203872	-0.8738998483	 0.123116
H	 2.8830755656	-0.2199183022	-1.8246939647	 0.079921
H	 0.3402984444	-0.1866778826	-2.120092749	 0.102349
H	 0.8523352666	-1.6046493316	-1.1863113571	 0.115038
H	-1.000472282	-0.3929986926	 0.0469548798	 0.091034
H	 2.3534303144	-0.8578849208	 2.1855666246	 0.124933
189.1903	231.4408	332.3253	359.1297	418.6445	440.4265	502.3903	585.3498	686.0206	756.4213	798.8929	824.7895	880.0373	899.7222	921.4651	932.4943	965.6748	976.4059	1048.7968	1077.0125	1089.5506	1107.8164	1124.4441	1178.2019	1227.7742	1246.8818	1288.3768	1310.3453	1330.0359	1351.828	1363.8335	1380.4915	1388.0876	1411.2909	1418.6425	1482.2435	1483.1646	1497.372	1716.3814	2954.4817	2963.4583	3043.5979	3054.3273	3074.6838	3095.0359	3096.6951	3105.3868	3163.3001
C1OCC2CC1OC=N2	C1OC[C@@H]2C[C@H]1OC=N2	
InChI=1S/C6H9NO2/c1-5-2-8-3-6(1)9-4-7-5/h4-6H,1-3H2	InChI=1S/C6H9NO2/c1-5-2-8-3-6(1)9-4-7-5/h4-6H,1-3H2/t5-,6+/m0/s1
