18
gdb 64826	2.97578	1.03295	0.94521	2.1808	74.13	-0.2476	-0.0759	0.1717	1315.1803	0.145602	-439.111563	-439.102153	-439.101209	-439.146556	34.008	
C	 0.0276664331	 1.5983586814	-0.2023197819	-0.449558
C	-0.0710427155	 0.0962022835	-0.0214084809	 0.363142
C	 1.0830315239	-0.79176808	-0.4096944026	-0.320636
C	 0.7497930167	-0.5782056732	 1.0482502579	-0.268556
N	-1.3823522639	-0.4508351	-0.2623941948	-0.361033
C	-2.4264268916	-0.2955064694	 0.5824669913	 0.29983
O	-2.4147338299	 0.255134491	 1.6691788746	-0.363582
C	-3.7247823701	-0.9079935245	 0.0461907489	 0.101373
O	-3.8227089217	-1.4314986712	-1.0341300259	-0.24901
H	 1.0461026398	 1.9444223544	-0.0042380394	 0.117992
H	-0.2381584193	 1.8898758072	-1.2243257727	 0.115603
H	-0.6481347246	 2.1060534223	 0.4917883098	 0.148444
H	 0.8556882676	-1.7607795655	-0.841151776	 0.117263
H	 1.9668986386	-0.3145362076	-0.8180210876	 0.120132
H	 1.403980364	 0.0475330848	 1.6443438629	 0.12207
H	 0.2920423897	-1.3971165649	 1.5889962415	 0.126775
H	-1.5980804928	-0.8760992457	-1.1541635108	 0.263238
H	-4.5677209441	-0.8093928528	 0.7586601556	 0.116512
41.1297	80.9125	133.2171	174.6523	217.855	243.1252	313.2011	362.5551	400.222	431.9995	526.5715	556.893	629.1965	645.8574	773.4412	782.358	877.7836	894.6488	943.4152	1004.0119	1019.1252	1026.2202	1045.2895	1071.4429	1081.569	1133.3707	1186.8218	1253.5026	1307.6671	1342.7198	1362.094	1412.8032	1461.2119	1484.5914	1497.6992	1508.8836	1537.0991	1783.4411	1821.3062	2953.1537	3035.205	3104.2509	3120.0555	3133.9699	3148.7605	3217.9706	3239.4182	3589.1356
CC1(CC1)NC(=O)C=O	CC1(CC1)NC(=O)C=O	
InChI=1S/C6H9NO2/c1-6(2-3-6)7-5(9)4-8/h4H,2-3H2,1H3,(H,7,9)	InChI=1S/C6H9NO2/c1-6(2-3-6)7-5(9)4-8/h4H,2-3H2,1H3,(H,7,9)
