17
gdb 110167	2.5719	1.22009	0.89146	1.7649	78.55	-0.2388	0.0243	0.2631	1296.1248	0.134041	-417.945218	-417.935893	-417.934948	-417.979566	33.801	
C	 0.1550894055	 1.3726743793	 0.0610726804	-0.249796
O	-0.1779604964	 0.035693345	 0.4125178081	-0.243736
C	 0.7773239368	-0.5691073112	 1.2222697625	 0.032088
C	 0.4395930374	-2.0695917843	 1.5305146711	-0.192833
N	 1.7955772674	-2.3896743284	 1.0370982952	-0.325447
C	 2.0418882063	-1.1193550316	 0.5342432729	 0.367711
N	 2.8998212155	-0.5679563266	-0.213412305	-0.554122
C	 0.1485508465	-2.4603779856	 2.8984109185	 0.317643
C	-0.1050753882	-2.7807203367	 4.0285605101	-0.4209
H	 1.0961859026	 1.4137941441	-0.497664432	 0.153516
H	-0.6623014263	 1.7452611253	-0.559725247	 0.127144
H	 0.2422274745	 2.0050832182	 0.9575059736	 0.107366
H	 0.9933458901	 0.0198551713	 2.1243891218	 0.101717
H	-0.3573487209	-2.3982203009	 0.853342221	 0.122143
H	 2.1067775757	-3.277685167	 0.6699213445	 0.245265
H	 3.5845102828	-1.2365904532	-0.5721294188	 0.210315
H	-0.3260602894	-3.0624072678	 5.028509743	 0.201926
74.1209	98.5946	150.3518	173.2512	193.2756	252.9435	287.8945	378.9569	403.7261	429.3073	498.3611	574.7826	629.2707	663.9802	690.5258	741.9184	835.4942	884.9696	972.2184	1010.8087	1025.2971	1053.1287	1079.7162	1170.4115	1177.0772	1185.787	1221.0179	1245.7686	1308.5557	1339.2007	1372.8153	1382.7334	1480.9285	1486.4785	1515.4057	1798.1541	2240.4365	2992.2191	3016.1318	3042.3404	3077.4411	3130.7818	3450.2917	3502.1417	3598.2352
COC1C(NC1=N)C#C	CO[C@H]1[C@@H](N[C]1[NH])C#C	
InChI=1S/C6H8N2O/c1-3-4-5(9-2)6(7)8-4/h1,4-5H,2H3,(H2,7,8)	InChI=1S/C6H8N2O/c1-3-4-5(9-2)6(7)8-4/h1,4-5H,2H3,(H2,7,8)/t4-,5-/m0/s1
