21
gdb 51816	3.78901	0.89798	0.76556	2.7806	84.78	-0.2437	-0.0201	0.2236	1490.4976	0.182918	-387.122302	-387.113393	-387.112449	-387.156773	33.212	
O	-0.0742975686	-0.1110939568	 0.0049324519	-0.243007
C	-0.0008087358	 1.0905990062	-0.0076306015	 0.161084
C	 1.2813521528	 1.8895235628	-0.052760565	-0.293787
C	 1.305612329	 2.9023137564	-1.2124380235	 0.011548
C	 2.5200865988	 3.8391756113	-1.124363847	-0.203597
C	 2.4722476604	 4.9218504732	-2.2121284972	-0.264418
C	 2.0949250124	 4.3563926506	-3.5566851898	-0.038859
C	 1.5775625664	 3.139897629	-3.7208727892	-0.0627
C	 1.2805046432	 2.198995654	-2.5824172806	-0.24286
H	-0.9241972333	 1.7187498101	 0.0161697417	 0.068265
H	 1.3514575144	 2.4375404316	 0.8987144476	 0.114338
H	 2.126886574	 1.1960244454	-0.1069458561	 0.117744
H	 0.4008839289	 3.5245305401	-1.1382376724	 0.078001
H	 2.5723572523	 4.3016792611	-0.1319769657	 0.090668
H	 3.4353284003	 3.2441521489	-1.2430037243	 0.101898
H	 1.7567609492	 5.7092662708	-1.9307157141	 0.107515
H	 3.4443996762	 5.426216778	-2.2805071478	 0.104538
H	 2.264140098	 4.9914477115	-4.4231000048	 0.084522
H	 1.3455294974	 2.782304646	-4.7212968135	 0.086022
H	 2.0061095297	 1.3707236486	-2.5853379517	 0.113355
H	 0.304865854	 1.7215310211	-2.743428707	 0.109732
55.2234	72.0862	125.5996	184.8591	215.9605	323.7806	390.4759	411.8708	440.465	505.3555	537.1145	672.5807	730.9383	782.9995	839.108	879.8325	910.3243	933.0177	965.7525	999.4319	1007.0785	1025.7055	1054.176	1087.4803	1107.6161	1117.6324	1163.7992	1193.1242	1208.2467	1251.1724	1285.4334	1290.0423	1333.8563	1348.9174	1369.715	1377.8555	1397.9409	1417.7261	1429.4455	1460.6236	1472.5957	1478.9686	1495.3125	1727.5877	1835.0442	2839.4824	2986.1334	2995.4481	2996.2995	3006.9362	3019.2309	3032.8863	3041.0457	3063.8494	3087.9948	3142.5277	3166.1486
O=CCC1CCC=CC1	O=CC[C@H]1CCC=CC1	
InChI=1S/C8H12O/c9-7-6-8-4-2-1-3-5-8/h1-2,7-8H,3-6H2	InChI=1S/C8H12O/c9-7-6-8-4-2-1-3-5-8/h1-2,7-8H,3-6H2/t8-/m1/s1
