18
gdb 91475	2.60735	1.65197	1.23142	3.3237	75.95	-0.2445	0.0191	0.2636	1034.11	0.151064	-398.100956	-398.093317	-398.092373	-398.132868	30.208	
N	-0.0582583354	 1.446614585	-0.0343279173	-0.520289
C	-0.050501005	-0.0104963904	-0.0140022853	-0.044981
C	 0.4073911245	-0.5865553212	 1.3716176379	-0.185405
N	-0.7932930528	-1.3247243579	 1.8575881216	-0.132585
C	-1.1951806124	-2.0267204865	 0.5788692945	-0.221338
C	-1.4860829712	-0.6001257615	 0.0289132076	 0.223098
C	-1.8739168006	-0.3235259549	 1.5113456999	-0.209531
C	-2.3465314124	-0.3279956254	-1.0992952695	 0.150186
N	-3.0348093998	-0.1071662944	-2.0025791279	-0.343981
H	 0.8819790927	 1.8006505316	 0.1127769423	 0.235087
H	-0.3539749119	 1.784573909	-0.9461806107	 0.243662
H	 0.5093585902	-0.4644226296	-0.8455235625	 0.07372
H	 1.2542316712	-1.2714658782	 1.2895393414	 0.11175
H	 0.6589460888	 0.2153596699	 2.0698695	 0.118106
H	-0.4102217021	-2.617519916	 0.0989477757	 0.114083
H	-2.0934267299	-2.6267327832	 0.7310129452	 0.128933
H	-2.8566294474	-0.71128822	 1.7827351014	 0.123706
H	-1.7206773466	 0.6886535038	 1.8859851657	 0.13578
126.2939	151.3765	220.7001	249.1588	333.6906	463.3761	478.3273	501.7227	525.7289	549.0414	597.5388	689.98	820.1146	850.8272	867.0353	874.6487	880.8809	972.5044	978.2986	1002.9124	1023.585	1048.9476	1104.488	1147.6519	1161.2143	1206.091	1220.7576	1227.1727	1238.5721	1259.353	1275.9038	1315.7668	1356.1676	1389.7426	1491.8377	1495.7009	1529.8323	1657.7505	2346.7927	2977.4938	3063.8393	3069.6149	3087.2527	3123.0854	3138.0553	3159.4631	3490.8117	3568.1812
NC1CN2CC1(C2)C#N	N[C@H]1CN2C[C@]1(C2)C#N	
InChI=1S/C6H9N3/c7-2-6-3-9(4-6)1-5(6)8/h5H,1,3-4,8H2	InChI=1S/C6H9N3/c7-2-6-3-9(4-6)1-5(6)8/h5H,1,3-4,8H2/t5-/m0/s1
