17
gdb 81200	3.33584	1.38949	1.25403	4.2619	73.3	-0.2665	-0.01	0.2566	1045.8207	0.135531	-421.723976	-421.71664	-421.715696	-421.755593	29.169	
C	-0.0872834601	 1.5994888299	 0.0884597155	-0.451563
C	 0.0742524458	 0.0960183935	-0.0474688259	 0.012912
C	 1.2398771855	-0.5518482539	-0.8365313794	-0.104835
C	 2.2278101499	-0.1849692358	 0.3813092292	-0.319141
C	 0.8999629029	-0.7609673622	 0.9553206065	 0.379094
O	 0.1613259319	-1.548470195	 1.9425803477	-0.312167
C	-0.1592560661	-2.4504042619	 0.8954251605	 0.374061
O	-0.9336310062	-3.3422829101	 0.9513244363	-0.296854
C	 0.9688771061	-1.8896757149	-0.0348747429	-0.206106
H	 0.8456922464	 2.1226299163	 0.3111550724	 0.121827
H	-0.489552817	 2.0222300944	-0.8382472756	 0.126152
H	-0.797173774	 1.8310465868	 0.8891655477	 0.134914
H	-0.8907497204	-0.3679048278	-0.2800659429	 0.089873
H	 1.4782937716	-0.4360420655	-1.8939944463	 0.099771
H	 3.1134186105	-0.8133030885	 0.4798939772	 0.121086
H	 2.4616717056	 0.868881534	 0.5302666909	 0.116799
H	 1.8357156877	-2.5489081593	 0.0575500989	 0.114177
130.1026	169.2204	218.7438	295.0903	351.4701	441.1143	464.3777	554.1061	587.1791	655.5661	724.5517	732.4068	785.1162	811.7856	858.6032	897.9512	937.1568	971.4164	1003.1081	1022.101	1036.3215	1078.8659	1102.5085	1119.3223	1134.0951	1174.1355	1177.8083	1211.1572	1228.4009	1231.9177	1325.311	1411.768	1431.574	1493.8551	1499.4399	1527.9591	1938.2167	3040.6912	3047.2047	3079.4109	3090.6642	3100.271	3115.0856	3121.3634	3162.851
CC1C2CC11OC(=O)C21	C[C@H]1[C@H]2C[C@]31OC(=O)[C@@H]23	
InChI=1S/C7H8O2/c1-3-4-2-7(3)5(4)6(8)9-7/h3-5H,2H2,1H3	InChI=1S/C7H8O2/c1-3-4-2-7(3)5(4)6(8)9-7/h3-5H,2H2,1H3/t3-,4+,5+,7+/m0/s1
