20
gdb 55362	3.1571	1.31066	1.02296	3.8217	80.45	-0.2199	0.0367	0.2565	1205.3028	0.172038	-403.179506	-403.170934	-403.16999	-403.213044	32.395	
C	-0.018227301	 1.4604020098	-0.07697509	-0.499019
C	 0.0060384074	-0.0612068339	-0.0603385878	 0.386866
O	 1.0415528152	-0.694689084	-0.1882307163	-0.377338
N	-1.1991733787	-0.6797395131	 0.1256585986	-0.069752
C	-2.5189000128	-0.0541705641	 0.2213361533	-0.193715
C	-3.4131619046	-1.134353187	 0.8792474744	-0.230633
C	-2.7062647426	-2.4532585559	 0.598936594	-0.065313
C	-2.2703665247	-2.7462474849	-0.8218192728	-0.306971
C	-1.3091345959	-2.1172673342	 0.1596999708	 0.035458
H	 0.9969292558	 1.8084302979	-0.2646024247	 0.146117
H	-0.6837755586	 1.8470901399	-0.8555664011	 0.132232
H	-0.3627356586	 1.8648733373	 0.8809444666	 0.135459
H	-2.4811064228	 0.8644848454	 0.8111783373	 0.118838
H	-2.9014127203	 0.2133259968	-0.7731177062	 0.112212
H	-3.4585989557	-0.976908833	 1.9618317793	 0.112976
H	-4.4372022789	-1.0920640381	 0.4965683606	 0.109248
H	-2.8957353027	-3.2862836561	 1.2654271976	 0.094009
H	-2.1012929663	-3.7853104968	-1.0820964412	 0.119618
H	-2.6584630753	-2.1403521547	-1.6344567192	 0.113287
H	-0.4124178188	-2.6288540313	 0.4777857067	 0.126422
65.9779	111.2181	147.74	201.0263	220.3435	302.6197	373.5522	441.23	521.5433	595.2768	615.9022	655.4434	750.1874	805.7753	829.5984	861.1819	914.8413	952.0405	965.6957	1001.6248	1027.4742	1047.4679	1050.6114	1074.7832	1082.948	1112.9389	1126.6627	1205.0126	1213.9061	1234.2323	1269.9101	1311.8006	1323.6857	1369.3527	1379.1826	1394.4392	1448.1147	1471.9968	1483.2373	1486.1194	1495.9814	1526.0788	1757.7578	3004.286	3040.3346	3048.3531	3084.8094	3096.4045	3101.2358	3129.5706	3161.2516	3178.6352	3215.2953	3229.47
CC(=O)N1CCC2CC12	CC(=O)N1CC[C@H]2C[C@@H]12	
InChI=1S/C7H11NO/c1-5(9)8-3-2-6-4-7(6)8/h6-7H,2-4H2,1H3	InChI=1S/C7H11NO/c1-5(9)8-3-2-6-4-7(6)8/h6-7H,2-4H2,1H3/t6-,7+/m0/s1
