18
gdb 65179	2.88222	1.2439	1.07195	2.6249	79.3	-0.2263	0.0316	0.2579	1183.565	0.145826	-401.864773	-401.855918	-401.854974	-401.898323	34.254	
O	 0.1911160137	 1.3451713437	 0.245254935	-0.471126
C	 0.1103607227	-0.0318020931	 0.0525425566	 0.457377
C	 1.1788364086	-0.6336860652	-0.8038954728	-0.30835
C	 1.1762320425	-0.9012510064	 0.6897152106	-0.328564
C	-1.2916979486	-0.5624543879	-0.0108392511	-0.094025
N	-2.2815731569	 0.2272938748	 0.7264454984	-0.358642
C	-2.4132954455	 0.1108894893	-0.7482591851	-0.248664
C	-2.2761677593	 1.2952540697	-1.5492072992	 0.386833
C	-2.2211475737	 2.2558519586	-2.269271271	-0.434451
H	-0.5467113493	 1.573209718	 0.8295987731	 0.291877
H	 0.9148604973	-1.4405941666	-1.4794586511	 0.11051
H	 1.922774687	 0.0543214424	-1.1885103442	 0.128885
H	 1.9155209263	-0.3826316586	 1.2887444723	 0.121232
H	 0.9155673924	-1.8952412574	 1.0394939795	 0.103404
H	-1.3624240167	-1.6475659776	 0.0405112261	 0.090402
H	-2.9671209481	-0.3563144127	 1.1963035095	 0.242892
H	-3.1863423986	-0.56813813	-1.1046649204	 0.112565
H	-2.1401100135	 3.1131656891	-2.8904150062	 0.197846
56.8101	113.048	191.2194	232.3278	251.9002	319.1416	346.6557	434.7201	461.0726	514.546	562.9136	608.6842	629.7229	663.1775	726.3777	768.8073	823.4921	846.5537	894.3431	919.111	942.8828	964.5311	992.6013	997.591	1050.2037	1074.3232	1079.6748	1163.1705	1190.1823	1202.6179	1230.8362	1239.2824	1338.948	1373.2312	1427.3569	1451.4334	1461.0987	1515.4411	2242.8285	3113.8753	3125.1625	3128.6296	3135.4519	3217.2085	3231.3538	3505.5145	3520.3493	3729.6152
OC1(CC1)C1NC1C#C	OC1(CC1)[C@H]1N[C@H]1C#C	
InChI=1S/C7H9NO/c1-2-5-6(8-5)7(9)3-4-7/h1,5-6,8-9H,3-4H2	InChI=1S/C7H9NO/c1-2-5-6(8-5)7(9)3-4-7/h1,5-6,8-9H,3-4H2/t5-,6-/m0/s1
