24
gdb 99744	1.77442	1.39283	0.99376	3.2335	85.35	-0.2392	0.0344	0.2737	1365.6752	0.215288	-405.599918	-405.58828	-405.587336	-405.636861	41.912	
C	 0.6513182402	-0.5609730433	 1.4788146211	-0.377599
C	 0.0182903174	-0.0642945576	 0.1739633724	-0.206624
C	 0.7884884964	-0.4280948931	-1.1252817059	-0.077577
C	 2.258555399	 0.0493473102	-1.1696200507	 0.058453
C	 2.8922108997	-0.2706712952	-2.5325387962	-0.405616
C	 2.3949075213	 1.5469878002	-0.8636796951	-0.411825
C	 0.7168845538	-1.9459462475	-1.3216347974	 0.414496
N	-0.287462619	-2.3802739234	-2.1390056337	-0.526119
O	 1.4685034316	-2.7242871054	-0.7604907076	-0.377921
H	 0.8159180321	-1.6406318379	 1.4547687636	 0.14683
H	 1.6189604923	-0.0849513389	 1.6646026161	 0.117427
H	 0.0008071756	-0.3270369938	 2.3274320137	 0.104842
H	-0.9970326903	-0.4715496569	 0.0878228618	 0.093669
H	-0.0995472804	 1.0241968163	 0.2103170534	 0.099266
H	 0.2543363493	 0.0560269998	-1.9562586306	 0.055265
H	 2.8034800667	-0.521270752	-0.4098831353	 0.102065
H	 3.9419181172	 0.0393155613	-2.5543641896	 0.109854
H	 2.8584795171	-1.3416217067	-2.7496213754	 0.130573
H	 2.3756175375	 0.2609422689	-3.3418093879	 0.101191
H	 2.0544826344	 1.8030007565	 0.1431545865	 0.116927
H	 3.4417645666	 1.8572751022	-0.9447660676	 0.112047
H	 1.8185418235	 2.1509510135	-1.575799437	 0.106259
H	-0.8824665262	-1.7500979116	-2.6461084668	 0.256831
H	-0.3948040757	-3.3717570153	-2.2789919918	 0.257286
47.8991	78.2774	116.4542	125.3801	168.8008	194.6823	210.7964	224.6259	247.8186	306.5797	322.7316	342.813	411.3308	433.8776	514.1042	591.1315	636.2847	757.8911	775.9293	821.621	875.6847	900.7227	932.599	956.0004	969.2238	1039.416	1067.6249	1070.6043	1119.576	1154.2949	1180.8395	1195.6517	1262.0156	1286.1397	1303.0592	1339.6647	1359.6123	1388.2425	1398.3188	1412.5007	1421.5642	1423.5836	1484.8489	1488.2166	1497.667	1500.2961	1504.9036	1510.5808	1517.6953	1614.1144	1778.3282	2989.7177	3021.8884	3025.6861	3028.8416	3044.1535	3056.723	3062.6985	3085.8015	3095.1528	3105.9568	3110.2721	3115.3788	3131.3085	3601.9986	3742.3787
CCC(C(C)C)C(N)=O	CC[C@@H](C(C)C)C(=O)N	
InChI=1S/C7H15NO/c1-4-6(5(2)3)7(8)9/h5-6H,4H2,1-3H3,(H2,8,9)	InChI=1S/C7H15NO/c1-4-6(5(2)3)7(8)9/h5-6H,4H2,1-3H3,(H2,8,9)/t6-/m0/s1
