17
gdb 21150	3.18485	1.88472	1.20766	3.7333	71.85	-0.1872	0.0481	0.2353	995.9116	0.143514	-360.059695	-360.051236	-360.050291	-360.093054	30.035	
C	-0.0083105879	 1.4195839871	 0.2497105598	-0.340068
N	 0.0386889122	 0.0170697781	-0.1282127963	-0.383045
C	-1.102465197	-0.7595401059	 0.0091804609	 0.372669
C	-1.2425248997	-2.1417862299	 0.040273832	 0.103535
C	-0.1506939469	-3.1643511674	-0.0208912532	-0.525714
C	-2.6398418066	-2.330925088	 0.131203239	-0.065526
N	-3.3242917556	-1.1946163063	 0.1560405078	-0.258771
N	-2.3549350164	-0.2404199517	 0.0855781144	-0.265344
H	 0.9930925217	 1.8449349884	 0.1581397798	 0.135072
H	-0.6569395957	 1.9739084246	-0.438772991	 0.132453
H	-0.3689682809	 1.5915660979	 1.2763906158	 0.119696
H	 0.8632284051	-0.4626910973	 0.2023499764	 0.245514
H	 0.574788941	-3.0553134379	 0.797213029	 0.111843
H	-0.565725	-4.1731741491	 0.0566926766	 0.129289
H	 0.4152907328	-3.1175022876	-0.9600720865	 0.124062
H	-3.1690056045	-3.2732382005	 0.1787294406	 0.099573
H	-2.6250420215	 0.7267253055	 0.0777045946	 0.264762
52.9095	95.0932	171.3593	198.7343	243.8639	275.0074	320.5235	415.9752	469.6299	569.4151	635.7272	673.5641	709.9176	760.9755	886.6004	948.5787	996.1961	1064.1578	1070.5592	1105.4545	1143.9248	1160.3164	1227.0003	1247.107	1329.6007	1375.4547	1414.8934	1427.5647	1464.966	1485.2215	1486.441	1492.521	1503.1693	1524.9534	1576.7197	1643.9613	2976.866	3003.9725	3046.065	3055.3844	3104.1866	3124.1246	3227.0336	3596.619	3693.0633
CNC1=C(C)C=NN1	CNc1c(C)cn[nH]1	
InChI=1S/C5H9N3/c1-4-3-7-8-5(4)6-2/h3H,1-2H3,(H2,6,7,8)	InChI=1S/C5H9N3/c1-4-3-7-8-5(4)6-2/h3H,1-2H3,(H2,6,7,8)
