20
gdb 9372	5.0625	0.77494	0.69722	1.2317	77.8	-0.2586	0.0569	0.3156	1597.6632	0.174259	-348.970958	-348.960789	-348.959845	-349.006497	35.967	
C	-0.0847514511	 1.5790601922	 0.1229698704	-0.386322
C	 0.0300474924	 0.0447219098	 0.0153863812	-0.160962
C	 0.7310312472	-0.4201633934	-1.2852662116	-0.181046
C	-0.0291359614	-0.0646697691	-2.5661823977	-0.176912
C	 0.6295118308	-0.6442712732	-3.8118542471	-0.078332
O	-0.1360624995	-0.2414901027	-4.9374564993	-0.421652
C	 0.7234398079	-0.4991500851	 1.1830114753	 0.317755
C	 1.3145058507	-0.9369908686	 2.1342939879	-0.462262
H	 0.9070181345	 2.0411719676	 0.0929247558	 0.123782
H	-0.6814489457	 1.9855461778	-0.6976615068	 0.120933
H	-0.5610498815	 1.8636035933	 1.064574019	 0.126142
H	-0.9883780672	-0.3701025695	 0.0077681756	 0.104901
H	 1.7399961939	 0.0109960405	-1.3115011993	 0.104498
H	 0.8637390618	-1.50707721	-1.2293723716	 0.106105
H	-1.0588019287	-0.4405293259	-2.5124667038	 0.104715
H	-0.0978432431	 1.0208562667	-2.6950257508	 0.111519
H	 1.6682533775	-0.2817059003	-3.8853727594	 0.084984
H	 0.6748080971	-1.7429082146	-3.7320024341	 0.085245
H	 0.2726574479	-0.6087804476	-5.726465466	 0.285518
H	 1.8252080865	-1.3287842682	 2.9786523622	 0.191393
54.8792	81.2451	102.1338	140.0811	182.9462	214.7137	261.4196	270.6753	301.6958	374.825	441.5848	533.7332	564.5709	624.9297	632.4978	757.0473	815.4407	866.8667	928.0697	998.7611	1008.4188	1049.8499	1068.0489	1094.5028	1123.4912	1179.4618	1218.9695	1232.9037	1288.6655	1302.5112	1318.2958	1341.0384	1345.1046	1388.9867	1408.3349	1463.3653	1483.2652	1495.9555	1499.8077	1502.6593	1528.7974	2233.3349	2958.0469	2983.5262	2999.1954	3023.5087	3034.5511	3044.5398	3058.7816	3086.4447	3117.4255	3125.3009	3505.4934	3830.0924
CC(CCCO)C#C	C[C@@H](CCCO)C#C	
InChI=1S/C7H12O/c1-3-7(2)5-4-6-8/h1,7-8H,4-6H2,2H3	InChI=1S/C7H12O/c1-3-7(2)5-4-6-8/h1,7-8H,4-6H2,2H3/t7-/m1/s1
