16
gdb 22277	3.6308	0.96209	0.85413	3.9644	68.94	-0.2666	-0.0135	0.2531	1332.0543	0.122181	-475.010427	-475.001451	-475.000506	-475.045315	31.832	
C	-0.3209958677	 1.4085220318	-0.0782782352	-0.49549
C	-0.0340132117	-0.0601779129	 0.0467714938	 0.348353
N	 0.0278644939	-0.7349548738	 1.1298471005	-0.158831
O	-0.1858704613	 0.0435398218	 2.2662398173	-0.386673
C	 0.2310772761	-0.8244436071	-1.2192230941	 0.053943
C	 0.131086585	-2.3568154747	-1.2135512714	-0.43078
C	-1.0428042188	-2.1249115606	-2.1625412939	 0.451655
O	-1.8303696056	-2.7687988576	-2.7740724647	-0.311883
O	-0.9278455384	-0.7522026612	-2.1355881203	-0.256978
H	 0.6088513541	 1.9651369249	-0.2484184596	 0.142121
H	-0.9732303609	 1.5858504654	-0.9375588484	 0.157024
H	-0.7884883611	 1.7935681037	 0.827051073	 0.159578
H	-0.1411253142	-0.6083736711	 2.9741465852	 0.311979
H	 1.1051902111	-0.4178927557	-1.738780112	 0.108602
H	 0.9669859055	-2.8993391545	-1.6564827301	 0.143115
H	-0.1388407161	-2.7951668985	-0.2538155602	 0.164263
56.3424	60.5138	85.842	183.5504	235.1256	312.1532	368.8206	402.9497	427.7987	517.8695	522.5752	549.5513	651.3881	753.3841	796.8274	899.137	919.036	969.9364	994.2403	1043.5637	1054.2539	1060.8734	1112.9078	1136.502	1222.0616	1240.5769	1301.3624	1380.3116	1397.957	1412.2895	1455.2317	1481.9715	1487.098	1735.2464	1944.8983	3039.0206	3057.2126	3104.6304	3105.9008	3164.4754	3168.5634	3817.2066
CC(=NO)C1CC(=O)O1	CC(=NO)[C@H]1CC(=O)O1	
InChI=1S/C5H7NO3/c1-3(6-8)4-2-5(7)9-4/h4,8H,2H2,1H3	InChI=1S/C5H7NO3/c1-3(6-8)4-2-5(7)9-4/h4,8H,2H2,1H3/t4-/m1/s1
