18
gdb 133884	3.52845	2.15131	1.86582	1.9576	77.4	-0.2122	0.0881	0.3003	803.1904	0.152222	-364.720374	-364.714974	-364.71403	-364.74965	24.796	
C	-1.4356329845	 1.3632549748	 0.3109822505	-0.276248
N	-1.5711001245	 0.0479323894	-0.4917260419	-0.189456
C	-0.7508495778	-0.602181612	 0.6659322881	 0.010043
C	 0.3269783865	-1.5541946201	 0.205660736	-0.09719
C	 1.6298648183	-0.7472361702	 0.2352616838	-0.064218
C	 1.4159466411	 0.6207733578	 0.9391218822	-0.367733
C	-0.0270756502	 0.7470325871	 0.4785062501	 0.255121
C	-0.1319009621	 0.3569828439	-1.0101961376	 0.010045
C	 0.7877559006	-0.840138012	-1.0421517176	-0.097191
H	-2.0897361482	 1.4068204728	 1.185940245	 0.101844
H	-1.5389938925	 2.260261561	-0.3054563045	 0.101845
H	-1.3267847124	-0.8142717778	 1.5672992102	 0.067157
H	 0.2996235311	-2.6302182602	 0.3055596003	 0.090746
H	 2.582409188	-1.2601381761	 0.2934990652	 0.087616
H	 2.0875373572	 1.3914887643	 0.5486871262	 0.104858
H	 1.5429179552	 0.5474869607	 2.0235500248	 0.104858
H	-0.0845308059	 1.1108067249	-1.7967407801	 0.067157
H	 1.1265498803	-1.3487328984	-1.9338383806	 0.090746
378.0589	429.0983	433.1902	486.9586	645.1455	716.5065	722.472	735.6193	794.8153	806.1093	814.3845	821.9373	886.6706	888.6213	924.4519	942.568	946.7356	996.2206	1003.9153	1012.4534	1026.8894	1057.0885	1063.3832	1073.9241	1103.2423	1107.0047	1122.3298	1182.0527	1203.2927	1214.8976	1253.5174	1260.0726	1265.2929	1308.2775	1313.1766	1321.8257	1380.3433	1485.1118	1527.4906	3050.5165	3052.8393	3101.2196	3109.5391	3113.4058	3117.7399	3190.1992	3208.3625	3218.8438
C1N2C3C4C5CC13C2C45	C1N2[C@H]3[C@@H]4[C@@H]5C[C@]13[C@H]2[C@H]45	
InChI=1S/C8H9N/c1-3-4-5(3)7-8(1)2-9(7)6(4)8/h3-7H,1-2H2	InChI=1S/C8H9N/c1-3-4-5(3)7-8(1)2-9(7)6(4)8/h3-7H,1-2H2/t3-,4+,5-,6-,7+,8-
