13
gdb 18425	4.25349	1.54059	1.38073	2.9721	60.77	-0.2566	-0.039	0.2176	882.9657	0.09471	-398.568991	-398.562221	-398.561277	-398.600394	24.722	
N	-0.0025822811	 1.2141617324	-0.0695399937	-0.541852
C	-0.0385661293	-0.0311851732	 0.0228219945	 0.449869
O	 0.9946896846	-0.9626619073	 0.2084790548	-0.271152
C	 0.0508375314	-2.040494453	-0.0028531409	 0.067318
C	-0.9757820057	-2.0682531657	 1.0881886346	-0.140247
C	-0.7128574574	-1.6325378378	 2.4899432857	 0.159608
O	-1.2439995895	-2.148554443	 3.4414907265	-0.256917
C	-1.0975951189	-1.0805983073	-0.102235744	-0.222692
H	 0.9485669142	 1.5729835305	 0.0266417033	 0.240144
H	 0.3676053564	-2.8750146589	-0.6126280177	 0.141589
H	-1.684445742	-2.8888530528	 1.0168983739	 0.129614
H	 0.006541962	-0.7986162214	 2.6064462411	 0.103775
H	-1.9768918548	-1.0523506225	-0.727559028	 0.140944
89.7504	131.1884	214.5357	304.1859	424.8757	438.9748	561.7524	661.2251	741.05	805.4536	827.9213	870.3251	895.2297	928.8771	973.3621	1015.2044	1025.811	1042.8624	1044.7969	1081.1805	1175.5554	1189.7156	1275.228	1311.9557	1372.6942	1448.597	1817.2398	1839.7302	2944.629	3167.0513	3221.8889	3243.3065	3486.5815
N=C1OC2C(C=O)C12	[NH][C]1O[C@H]2[C@@H](C=O)[C@@H]12	
InChI=1S/C5H5NO2/c6-5-3-2(1-7)4(3)8-5/h1-4,6H	InChI=1S/C5H5NO2/c6-5-3-2(1-7)4(3)8-5/h1-4,6H/t2-,3+,4-/m0/s1
