16
gdb 68574	2.39278	1.98989	1.53697	2.9012	68.78	-0.23	-0.0326	0.1974	914.5775	0.1246	-437.892288	-437.884824	-437.88388	-437.923942	28.776	
C	 0.0199077218	 1.5523323071	 0.1065257606	-0.479616
C	 0.0060844888	 0.0585801359	-0.0425053432	 0.288905
C	 0.6468570104	-0.6997763904	-1.2483079556	-0.292312
C	-0.3798232243	-1.8455133404	-0.9732509024	-0.119671
N	 0.0836186187	-2.6143128385	 0.2062660237	-0.25773
C	 0.5042544004	-1.8888889359	 1.1572134715	 0.118296
O	 0.527948802	-0.5351379525	 1.187289037	-0.267367
C	-1.2779024847	-0.7245203653	-0.4368536371	 0.409185
O	-2.439949086	-0.4477020434	-0.4719463929	-0.311857
H	 1.0364057964	 1.9139130784	 0.2875143504	 0.135226
H	-0.3672100653	 2.0229249234	-0.8007094227	 0.134533
H	-0.6110391946	 1.8524885954	 0.9476750548	 0.14744
H	 0.4602239832	-0.1798806671	-2.1903552521	 0.125767
H	 1.7000416461	-0.9679458991	-1.1488819108	 0.126052
H	-0.7137797344	-2.5089865435	-1.7680905534	 0.100884
H	 0.9056315813	-2.3154211743	 2.0727705723	 0.142264
138.5396	182.3429	201.4633	248.6389	323.6418	395.4668	424.8303	498.3118	570.4504	626.9511	680.4953	787.2897	826.2537	840.4328	858.3183	896.114	940.5732	961.9644	990.8493	1041.6045	1086.9186	1126.534	1144.3821	1186.0052	1211.0069	1223.5995	1288.3536	1333.7718	1368.7413	1415.8702	1469.5155	1477.4611	1487.5211	1702.2513	1895.5909	3048.0008	3073.7153	3121.9264	3130.8335	3140.4651	3142.6233	3183.2395
CC12CC(N=CO1)C2=O	C[C@@]12C[C@@H]([N][CH]O1)C2=O	
InChI=1S/C6H7NO2/c1-6-2-4(5(6)8)7-3-9-6/h3-4H,2H2,1H3	InChI=1S/C6H7NO2/c1-6-2-4(5(6)8)7-3-9-6/h3-4H,2H2,1H3/t4-,6+/m1/s1
