15
gdb 49850	3.62708	1.28059	1.05143	1.4354	67.67	-0.2674	-0.0501	0.2174	1093.2296	0.112656	-453.932902	-453.925345	-453.924401	-453.965663	27.741	
N	-0.0633341533	 1.3249269674	 0.0550470016	-0.528997
C	-0.0162093987	 0.0909370291	-0.1695591365	 0.435711
O	 1.1084885427	-0.5995749895	-0.5874652876	-0.25677
C	 0.7770482274	-1.9447799732	-0.9246418349	-0.002771
C	 1.7796467334	-2.898387045	-0.2897077191	 0.142073
O	 2.0085024202	-3.9937420144	-0.7257441911	-0.2339
C	-0.6417261929	-2.1224892179	-0.3877536267	-0.051379
C	-0.8831879981	-1.796985985	 1.0378075341	-0.255145
N	-1.1291141148	-0.7858939359	-0.0228108815	-0.125839
H	 0.8431960405	 1.7550650323	-0.125436732	 0.23545
H	 0.7955307876	-2.0815713453	-2.0115445763	 0.125692
H	 2.2640315052	-2.5002772973	 0.6286148248	 0.09716
H	-1.3160029239	-2.767787764	-0.9380965078	 0.130766
H	-1.783584002	-2.1543810062	 1.5246335692	 0.14604
H	-0.0334175834	-1.635974625	 1.6948422738	 0.141908
72.247	90.9431	189.9604	239.019	321.7769	403.5999	459.3518	499.6336	671.0597	731.612	751.8776	777.9006	857.2921	873.4475	885.3832	942.1879	984.8242	1006.9226	1040.8744	1081.1403	1103.2671	1115.8431	1125.7728	1159.4758	1217.9484	1295.4343	1299.8088	1331.9182	1377.3219	1402.8945	1503.8351	1794.4547	1840.4022	2900.3896	3055.8501	3127.5617	3187.5584	3222.3668	3507.1221
N=C1OC(C=O)C2CN12	[NH][C]1O[C@@H](C=O)[C@H]2CN12	
InChI=1S/C5H6N2O2/c6-5-7-1-3(7)4(2-8)9-5/h2-4,6H,1H2	InChI=1S/C5H6N2O2/c6-5-7-1-3(7)4(2-8)9-5/h2-4,6H,1H2/t3-,4+,7?/m1/s1
