20
gdb 113476	2.70573	1.32296	1.0993	2.6767	78.91	-0.2238	0.066	0.2898	1175.3373	0.171192	-403.074561	-403.066034	-403.06509	-403.107903	32.791	
O	 0.3099460685	 0.3413979584	 1.0047532406	-0.415322
C	-0.1784277305	 0.1132213702	-0.3142726386	-0.080881
C	-1.5319593679	-0.5557406049	-0.3279911328	-0.102986
C	-1.8857304344	-1.5746604046	-1.3941328583	-0.384789
C	-1.62648142	-2.014657712	 0.0125493559	 0.383556
C	-0.5325413604	-2.9763589185	 0.4971496451	-0.251601
N	-1.5081489654	-3.688418789	 1.4043648152	-0.127471
C	-2.0093292245	-2.660730426	 2.3365296345	-0.240334
C	-2.5737741223	-2.6945539912	 0.970474559	-0.128653
H	-0.3021852933	 0.9400448064	 1.4444920923	 0.281734
H	-0.2046614974	 1.0501028269	-0.8919558659	 0.092277
H	 0.5638572643	-0.5363874837	-0.7902281113	 0.108839
H	-2.3522830023	 0.0718255598	 0.018899208	 0.077608
H	-2.9059746191	-1.5909074373	-1.7643988071	 0.115219
H	-1.1375852362	-1.8100216185	-2.1463898155	 0.113476
H	-0.1756197515	-3.6651617568	-0.2727279271	 0.109606
H	 0.3196871159	-2.5379692223	 1.0259985073	 0.122138
H	-2.6022028415	-3.078796831	 3.1445957691	 0.117157
H	-1.3514526336	-1.8403105808	 2.6179021069	 0.116914
H	-3.5911475883	-3.0058276749	 0.7520171727	 0.093514
78.6063	101.8976	174.3514	181.9693	286.2206	321.1636	391.161	429.2259	469.1687	518.1072	579.5885	747.3457	782.7168	802.0594	835.3792	888.0934	911.8447	949.6928	963.4373	995.8437	1037.3265	1041.3619	1048.8001	1067.0872	1088.811	1098.2116	1115.778	1118.9168	1138.5712	1197.1116	1210.773	1229.4172	1257.6899	1286.5548	1308.6935	1358.942	1378.4992	1411.8573	1446.194	1487.2088	1497.0256	1503.6192	1507.7567	2985.8092	3047.5529	3070.3689	3098.9689	3104.3787	3112.3472	3115.8458	3151.7979	3195.9128	3200.5089	3816.9534
OCC1CC11CN2CC12	OC[C@H]1C[C@]21CN1C[C@@H]21	
InChI=1S/C7H11NO/c9-3-5-1-7(5)4-8-2-6(7)8/h5-6,9H,1-4H2	InChI=1S/C7H11NO/c9-3-5-1-7(5)4-8-2-6(7)8/h5-6,9H,1-4H2/t5-,6+,7-,8?/m1/s1
