18
gdb 114728	2.93984	1.38303	1.10268	2.5714	71.53	-0.2502	-0.0379	0.2123	1113.7246	0.148715	-439.076693	-439.068715	-439.067771	-439.109582	30.461	
O	 0.2936548976	 1.1816029859	 0.3026351831	-0.42271
C	 0.0827405593	-0.2057460275	 0.2073150148	-0.066221
C	-1.4025093741	-0.5425832597	-0.0322001335	-0.140221
C	-1.7737448878	-2.0219528275	-0.2779899748	-0.208719
N	-2.7824419487	-2.4511215019	 0.7359692474	-0.091949
C	-2.2438823562	-2.4488547597	 2.0851541336	-0.240074
C	-3.0662799421	-1.2924315799	 1.6060368033	-0.136155
C	-2.2560609218	-0.1173395963	 1.1660075874	 0.406658
O	-2.2606231419	 0.9893596487	 1.659511327	-0.348376
H	-0.3784078934	 1.5290257638	 0.9069836956	 0.298459
H	 0.6811577196	-0.5666222918	-0.6367800802	 0.111468
H	 0.4401883642	-0.7389070408	 1.1063627555	 0.08511
H	-1.7298280131	 0.0763113753	-0.8756123862	 0.126123
H	-2.2247226587	-2.1537000464	-1.2639823301	 0.124027
H	-0.9070366627	-2.6889550035	-0.220712151	 0.117416
H	-2.6996405717	-3.1507549823	 2.77708058	 0.136441
H	-1.1742881137	-2.3014271329	 2.224920137	 0.125842
H	-4.074016515	-1.1378649935	 1.9753377911	 0.122881
58.0723	147.8871	200.0119	210.0147	316.6464	377.5865	408.7955	465.016	527.7509	607.5153	664.8627	697.0955	771.6632	785.4112	866.7035	914.9135	927.2878	975.1664	1026.4238	1053.4205	1064.9973	1096.3758	1105.2922	1113.4038	1155.878	1190.5566	1207.9566	1231.5021	1263.6818	1285.4782	1301.7063	1327.339	1367.1229	1377.5582	1459.0585	1499.1211	1509.0779	1517.3469	1805.8528	2942.6197	3046.3016	3050.9594	3060.3225	3099.5238	3101.638	3178.8019	3192.9056	3723.8284
OCC1CN2CC2C1=O	OC[C@H]1CN2C[C@H]2C1=O	
InChI=1S/C6H9NO2/c8-3-4-1-7-2-5(7)6(4)9/h4-5,8H,1-3H2	InChI=1S/C6H9NO2/c8-3-4-1-7-2-5(7)6(4)9/h4-5,8H,1-3H2/t4-,5+,7?/m1/s1
