18
gdb 126341	1.96911	1.62392	0.98851	1.9692	73.83	-0.2554	-0.0119	0.2435	1208.6765	0.147752	-439.082282	-439.073383	-439.072439	-439.116398	32.293	
C	 0.1078462536	 1.5891428533	 0.1028431285	-0.383477
C	-0.0526032122	 0.0665286561	-0.0550122378	-0.311529
C	 0.6879725939	-0.4901851553	-1.2346442023	 0.085189
C	 0.2008090199	-0.8930003385	-2.4367043306	-0.008313
O	 1.186825253	-1.3195611058	-3.2444156212	-0.167844
N	 2.391525004	-1.2063646971	-2.5676180298	-0.198969
C	 2.0964560534	-0.7195365552	-1.3843606321	 0.282502
C	 3.2068398595	-0.4547387474	-0.4087718256	-0.177125
O	 3.4519910198	 0.9360333267	-0.2228473981	-0.399906
H	 1.1640508349	 1.8512811474	 0.2016265299	 0.148599
H	-0.2947277092	 2.1139075736	-0.7695070622	 0.114414
H	-0.4268043379	 1.9430199221	 0.9896521461	 0.111691
H	 0.2987460671	-0.4280237907	 0.8591449741	 0.111422
H	-1.1141739627	-0.1876577563	-0.1485072358	 0.10693
H	-0.7958657676	-0.9411050903	-2.8487876015	 0.148849
H	 2.9428267209	-0.8402494613	 0.5807863337	 0.12286
H	 4.1061758033	-0.9825242468	-0.7505288541	 0.123744
H	 3.6952310563	 1.3006396354	-1.0808664211	 0.290965
67.1438	95.0344	158.6952	167.5432	208.1635	278.8073	341.7754	363.325	411.097	487.16	613.473	631.7773	697.6295	790.1631	800.485	846.9149	910.0512	954.6269	967.1918	980.7143	1057.0825	1079.7359	1093.038	1147.1714	1196.4592	1214.3058	1272.2921	1309.5476	1358.1464	1370.2319	1411.6857	1415.0292	1447.4942	1484.7111	1495.4906	1499.6806	1505.4701	1520.3569	1646.6957	3027.6355	3028.9381	3039.2106	3066.0839	3087.8256	3108.2996	3132.2647	3259.0303	3809.7715
CCC1=CON=C1CO	CCc1conc1CO	
InChI=1S/C6H9NO2/c1-2-5-4-9-7-6(5)3-8/h4,8H,2-3H2,1H3	InChI=1S/C6H9NO2/c1-2-5-4-9-7-6(5)3-8/h4,8H,2-3H2,1H3
