17
gdb 30716	2.95893	1.29124	0.92679	3.1675	71.76	-0.2073	0.0211	0.2284	1235.3375	0.13464	-458.98238	-458.973	-458.972056	-459.01698	33.507	
C	 0.0086690141	 1.4852311777	 0.0996626298	-0.521105
C	 0.030682531	-0.0077075191	 0.0107378625	 0.159815
C	 0.1337570923	-0.7926968543	-1.0957433135	-0.113611
O	 0.1242960784	-2.1126878366	-0.7695704414	-0.183539
C	 0.0041339998	-2.1968860841	 0.5879236018	 0.263011
C	-0.0338603574	-3.539153425	 1.2444865853	-0.175694
O	-0.8861968393	-3.5524523878	 2.3771476275	-0.420853
C	-0.0510693494	-0.9389783698	 1.1029529373	 0.093231
O	-0.1070772441	-0.6622388788	 2.4470496232	-0.458572
H	 0.811171447	 1.8617179919	 0.744786386	 0.135678
H	 0.1345793299	 1.9389144824	-0.8866388018	 0.136071
H	-0.9388146193	 1.8591806937	 0.5091349272	 0.123674
H	 0.2195754207	-0.5677572189	-2.1463649785	 0.134604
H	-0.4257431995	-4.2744780133	 0.5337321348	 0.126901
H	 0.9842934468	-3.868689265	 1.5149377462	 0.101813
H	-0.6658430116	-2.7782691986	 2.9088043516	 0.29552
H	-0.6191909395	 0.1412969155	 2.584039512	 0.303056
47.7738	124.6824	128.0178	185.5942	202.3287	235.4801	284.2063	335.8512	398.142	411.1295	485.1064	596.252	622.3686	681.9616	716.622	730.1399	774.7466	984.5861	1001.469	1017.7066	1063.9359	1068.9341	1147.413	1187.8825	1224.6862	1256.1954	1294.0717	1312.6906	1368.4591	1420.0017	1433.0502	1461.7408	1484.2517	1501.5695	1505.7637	1603.7561	1705.4113	2948.0866	3017.7028	3066.6177	3070.1429	3115.191	3271.5724	3788.0282	3818.7811
CC1=COC(CO)=C1O	Cc1coc(CO)c1O	
InChI=1S/C6H8O3/c1-4-3-9-5(2-7)6(4)8/h3,7-8H,2H2,1H3	InChI=1S/C6H8O3/c1-4-3-9-5(2-7)6(4)8/h3,7-8H,2H2,1H3
