19
gdb 69733	3.61607	1.58489	1.39813	1.3948	78.1	-0.2292	0.0763	0.3055	972.8195	0.161338	-385.822599	-385.815899	-385.814955	-385.853126	29.008	
O	-0.0461546985	 1.3821774168	 0.0974974258	-0.469368
C	 0.0247265104	-0.0079891232	 0.0337304008	 0.410032
C	-0.59512521	-0.7890477182	 1.1502732783	-0.33387
C	 0.9071277475	-0.8763179585	 0.9054416151	-0.155643
C	 1.4086438386	-1.8826950116	-0.1207791448	-0.008578
C	 0.2491207685	-2.2428385157	-1.1094144529	-0.060255
C	 1.2722626774	-2.3639020956	-2.2614541647	-0.25501
C	 1.7098585892	-1.116490967	-1.4672589916	-0.062591
C	 0.1955417624	-0.6956984445	-1.3189058304	-0.096256
H	 0.7657353943	 1.7396277147	-0.279833086	 0.278801
H	-0.8883813706	-0.1965919329	 2.0108225021	 0.11677
H	-1.2399207909	-1.6379473201	 0.9499741352	 0.110199
H	 1.5818583947	-0.4509117471	 1.6393410006	 0.085612
H	 2.087828952	-2.6768772316	 0.1956689605	 0.062748
H	-0.598449027	-2.900475934	-0.9097791784	 0.071266
H	 1.942849783	-3.2277543679	-2.2311098891	 0.08951
H	 0.8919363044	-2.1988155484	-3.2734558298	 0.090121
H	 2.5583983056	-0.4573408072	-1.6684380807	 0.061151
H	-0.3414755809	-0.2879169178	-2.1773759403	 0.065364
211.8784	260.5042	324.2566	344.7866	423.8291	464.6811	501.5511	581.9588	662.043	749.8118	799.1783	815.0247	855.8557	882.3073	900.0587	914.2792	916.7807	946.1864	963.6404	993.2075	1001.2117	1027.4225	1039.1648	1069.8674	1084.2938	1091.5102	1103.6052	1131.3203	1166.4848	1188.3086	1211.3227	1225.1816	1238.8347	1243.007	1272.1152	1291.5136	1322.6554	1351.5105	1409.1911	1488.1722	1518.9343	3045.2384	3074.4358	3089.4523	3096.5309	3104.7036	3106.317	3130.9761	3179.7097	3216.705	3787.6714
OC12CC1C1C3CC1C23	O[C@]12C[C@H]1[C@H]1[C@@H]3C[C@H]1[C@H]23	
InChI=1S/C8H10O/c9-8-2-5(8)6-3-1-4(6)7(3)8/h3-7,9H,1-2H2	InChI=1S/C8H10O/c9-8-2-5(8)6-3-1-4(6)7(3)8/h3-7,9H,1-2H2/t3-,4+,5-,6-,7+,8+/m0/s1
