15
gdb 56969	4.16831	0.9221	0.84007	2.827	69.06	-0.2609	-0.0438	0.2171	1328.1519	0.108665	-457.697609	-457.688396	-457.687452	-457.732537	32.552	
O	-0.2092531519	 1.3825619242	-0.1777318866	-0.404601
C	-0.0571341398	-0.0183501166	-0.0625096898	-0.093883
C	 0.6583779359	-0.5957867107	-1.2087167526	 0.299594
C	 1.2646683009	-1.0644016986	-2.1339772846	-0.43545
C	 0.6637243298	-0.4058044356	 1.2339601764	 0.041345
O	 1.5994322184	 0.5386266298	 1.7245451536	-0.246446
C	 0.4494700574	 0.2524984668	 2.5444145137	-0.052441
C	-0.5376614911	 1.3548041187	 2.7929175116	 0.133466
O	-1.2970039251	 1.3104150666	 3.7283556552	-0.246132
H	 0.67039713	 1.7624567849	-0.0505015858	 0.296815
H	-1.0729782119	-0.4313909705	-0.0327757193	 0.140788
H	 1.7898182521	-1.4749552959	-2.9613499167	 0.208796
H	 0.9996975513	-1.4428948988	 1.2612050753	 0.123969
H	 0.6581130752	-0.3419682259	 3.4333998383	 0.124949
H	-0.5164518113	 2.1936883815	 2.0759020013	 0.109231
48.8451	55.4809	128.575	201.4082	238.4249	243.6269	301.6015	367.5367	419.9907	465.8837	532.1015	560.1565	643.2283	679.9589	708.4772	807.1434	887.6946	892.2882	999.7467	1009.5893	1035.1095	1096.0637	1125.374	1166.649	1252.7475	1285.639	1307.5393	1345.7138	1407.9773	1429.1529	1453.2961	1813.699	2236.395	2991.694	3042.9558	3111.8335	3131.4301	3500.8058	3772.677
OC(C#C)C1OC1C=O	O[C@@H](C#C)[C@H]1O[C@H]1C=O	
InChI=1S/C6H6O3/c1-2-4(8)6-5(3-7)9-6/h1,3-6,8H	InChI=1S/C6H6O3/c1-2-4(8)6-5(3-7)9-6/h1,3-6,8H/t4-,5-,6+/m0/s1
