21
gdb 92540	2.23579	1.74769	1.37578	1.2415	76.78	-0.2392	0.058	0.2972	1051.3581	0.183517	-424.218318	-424.209811	-424.208867	-424.251192	33.38	
C	 0.6521283402	 1.3217494906	-0.4127902798	-0.384251
C	 0.0002770592	 0.0256456612	 0.0720058184	 0.069462
O	 0.0290716574	-1.0002650625	-0.921757637	-0.272558
C	 1.0741461582	-1.925714256	-0.6640583152	 0.114508
C	 2.487040749	-1.5542476365	-1.2056645739	-0.242764
C	 2.9686736903	-1.2821509793	 0.2502172354	-0.23553
C	 1.5700909823	-1.7062436755	 0.7901270277	-0.04768
C	 0.6604896465	-0.601570357	 1.3401814542	 0.076057
O	 1.4065238243	 0.3027860907	 2.1370086966	-0.420762
H	 1.7258508493	 1.2095121226	-0.5764221052	 0.127202
H	 0.186245665	 1.6283716797	-1.3533664539	 0.119695
H	 0.5096281687	 2.1238020036	 0.3181719477	 0.100311
H	-1.0624565781	 0.2269933435	 0.2597138062	 0.072987
H	 0.708949543	-2.9162853549	-0.9475634067	 0.072909
H	 2.9985862031	-2.3860647269	-1.6968748192	 0.097075
H	 2.4865569783	-0.7000640122	-1.885753042	 0.105751
H	 3.7821125479	-1.9290816579	 0.584516214	 0.09926
H	 3.241685693	-0.2515012486	 0.4797954873	 0.119957
H	 1.5809835313	-2.580102839	 1.442486752	 0.069944
H	-0.1306052099	-1.0696593752	 1.943290801	 0.071945
H	 0.7923238212	 0.9047096497	 2.5681057124	 0.286482
92.8971	114.5598	225.7751	240.1047	266.2275	276.2293	359.3449	421.7221	450.6319	527.7845	617.9931	725.3221	732.4512	746.7916	783.1742	853.0188	871.36	913.6639	920.2704	963.5056	1007.5801	1037.1578	1071.2521	1080.1007	1104.6811	1119.7512	1152.5432	1164.9115	1202.5278	1222.192	1239.5328	1254.108	1271.2357	1282.8405	1307.3513	1340.9523	1349.3304	1372.9274	1390.5181	1409.6945	1429.0546	1469.2008	1485.3804	1492.1378	1504.0214	2986.9996	3018.4981	3047.8823	3060.6987	3070.1976	3078.7721	3098.7679	3113.995	3116.3707	3134.2741	3139.1316	3825.0377
CC1OC2CCC2C1O	C[C@H]1O[C@H]2CC[C@H]2[C@H]1O	
InChI=1S/C7H12O2/c1-4-7(8)5-2-3-6(5)9-4/h4-8H,2-3H2,1H3	InChI=1S/C7H12O2/c1-4-7(8)5-2-3-6(5)9-4/h4-8H,2-3H2,1H3/t4-,5-,6+,7+/m1/s1
