14
gdb 19854	4.78589	2.09996	1.76132	2.0914	63.	-0.2394	-0.0123	0.2271	738.3626	0.107778	-382.454993	-382.449116	-382.448172	-382.484918	22.944	
C	-0.0023065746	 1.4557326795	 0.1265142539	-0.107063
O	 1.3469080487	 1.94826291	-0.0241604158	-0.274764
C	 2.0554171442	 0.9383439956	-0.6999082183	 0.079281
C	 3.3358566302	 0.1807444883	-0.2212745822	-0.026665
O	 3.0756086974	-0.5551433586	 0.9709973788	-0.222369
C	 2.5827285584	-1.102402302	-0.2671084969	-0.085897
C	 1.2916618768	-0.3365128438	-0.4784273403	 0.199816
C	 0.0904307752	-0.0654521161	 0.0107122371	-0.215298
H	-0.3741536484	 1.7582993167	 1.1130582995	 0.12361
H	-0.657500638	 1.9119240647	-0.6331722445	 0.10691
H	 2.2066878894	 1.1862218704	-1.7649388128	 0.080433
H	 4.3712237888	 0.3921917941	-0.461859834	 0.108131
H	 2.8962062062	-2.1006425611	-0.5412924293	 0.117985
H	-0.6681451242	-0.7327315777	 0.3986508751	 0.11589
147.7483	213.6311	298.5698	436.4049	576.4259	695.9691	709.8077	742.8571	823.8707	827.1726	856.8853	883.4147	916.0245	935.7353	973.7055	984.2254	1019.0242	1031.1714	1098.4424	1121.6017	1187.1534	1210.2124	1219.5402	1244.8634	1262.3454	1325.7179	1353.3333	1379.3139	1507.6995	1727.3583	2953.8515	2974.0676	3048.0604	3187.3973	3216.0488	3219.3797
C1OC2C3OC3C2=C1	C1O[C@H]2[C@H]3O[C@H]3[C]2[CH]1	
InChI=1S/C6H6O2/c1-2-7-4-3(1)5-6(4)8-5/h1,4-6H,2H2	InChI=1S/C6H6O2/c1-2-7-4-3(1)5-6(4)8-5/h1,4-6H,2H2/t4-,5+,6-/m1/s1
