18
gdb 20208	3.20626	2.6922	2.14027	1.5303	69.12	-0.2294	0.0838	0.3132	731.8952	0.157837	-347.804908	-347.799017	-347.798073	-347.834654	24.595	
C	-0.035889502	 1.5614322579	-0.0784556239	-0.228054
C	 1.4496989782	 1.9929053368	 0.0040910671	-0.199038
C	 2.1615838391	 0.8607523912	 0.7781963964	-0.057297
C	 1.8673333177	 0.9073325866	 2.2885497563	-0.07393
O	 0.5518946187	 0.3621807178	 2.4482779286	-0.26006
C	 0.3384588386	-0.5419851273	 1.3913346091	 0.097285
C	-0.0041371272	 0.0375047904	 0.033017353	-0.077192
C	 1.4113879319	-0.4216310053	 0.3553831509	-0.118117
H	-0.617675401	 1.9953752333	 0.7410299211	 0.113746
H	-0.4990533388	 1.8796858577	-1.016192994	 0.094637
H	 1.8710690063	 2.0496661069	-1.0056642224	 0.096383
H	 1.5867011925	 2.9741216824	 0.4706797158	 0.092008
H	 3.235054515	 0.8245058479	 0.5793444789	 0.071089
H	 2.5951558688	 0.2983961376	 2.8464303547	 0.08942
H	 1.8638548061	 1.9185883515	 2.7072031054	 0.103751
H	-0.085186431	-1.4909941167	 1.7035248699	 0.090985
H	-0.6375068435	-0.5595340357	-0.6146869818	 0.080278
H	 1.9088434505	-1.261280773	-0.112656125	 0.084106
154.6401	240.2053	370.2328	506.3853	541.1546	681.8039	720.3495	763.7246	779.2401	800.8323	807.3422	871.4256	922.3296	929.0655	956.4966	971.2359	994.1545	1017.9761	1031.7745	1061.8463	1083.5288	1097.2671	1123.5821	1158.4363	1180.5854	1206.6487	1238.8241	1274.1833	1278.7589	1301.2172	1314.9829	1331.295	1358.2798	1377.635	1408.8678	1482.2752	1497.383	1514.0401	2985.4566	3037.0184	3051.7903	3075.3067	3081.4954	3088.0524	3098.809	3157.1956	3166.0542	3191.0921
C1CC2COC3C1C23	C1C[C@H]2CO[C@H]3[C@@H]1[C@@H]23	
InChI=1S/C7H10O/c1-2-5-6-4(1)3-8-7(5)6/h4-7H,1-3H2	InChI=1S/C7H10O/c1-2-5-6-4(1)3-8-7(5)6/h4-7H,1-3H2/t4-,5-,6+,7-/m0/s1
