14
gdb 33276	3.33361	0.84749	0.70984	1.3395	93.96	-0.2382	-0.0319	0.2062	1525.4811	0.097869	-362.286928	-362.277925	-362.276981	-362.320905	33.175	
C	 0.0764746055	-3.7377877735	-0.020869468	-0.5677
C	 0.043614664	-2.5305549003	-0.0091822419	 0.296173
C	 0.0077387966	-1.1718376051	 0.0042438595	-0.303923
C	-0.0170116477	 0.0389052977	 0.0261737525	 0.449012
C	-0.0396254273	 1.4769674025	 0.0323549155	-0.065821
C	 0.5328937324	 2.1705242444	 1.2464553597	-0.254407
N	 1.2726181813	 2.1977309371	-0.0064491346	-0.329669
C	-1.1154574308	 2.094471474	-0.7049318918	 0.297212
C	-2.0280301014	 2.5995885423	-1.3001391686	-0.447458
H	 0.1040800443	-4.7992123926	-0.0311270298	 0.195823
H	 0.0899185903	 3.1174444091	 1.5387303047	 0.143512
H	 0.8713208988	 1.5347365059	 2.0592395144	 0.134715
H	 2.016942197	 1.5033360713	 0.0076657019	 0.24974
H	-2.8293539629	 3.0463555572	-1.8351291835	 0.202791
66.7374	100.0157	167.2954	213.4179	234.3211	252.465	421.763	451.9193	496.9663	512.3388	530.859	568.5655	576.1219	597.9419	610.3685	619.8551	662.0137	797.0492	838.0395	934.4007	989.7065	1029.9199	1104.7234	1146.5945	1256.3393	1315.2321	1345.2415	1496.7373	2181.6788	2247.4167	2353.9964	3118.2867	3215.5818	3499.8945	3502.3798	3503.5403
C#CC#CC1(CN1)C#C	C#CC#C[C@]1(CN1)C#C	
InChI=1S/C8H5N/c1-3-5-6-8(4-2)7-9-8/h1-2,9H,7H2	InChI=1S/C8H5N/c1-3-5-6-8(4-2)7-9-8/h1-2,9H,7H2/t8-/m0/s1
