14
gdb 35621	2.18914	1.8308	1.12851	2.9989	71.75	-0.2573	-0.0102	0.2471	1035.2639	0.101507	-395.704917	-395.696933	-395.695989	-395.737884	29.175	
C	-0.2076301029	-1.2489571548	-0.2516869061	-0.427871
C	-0.1354724371	-0.0677155278	-0.0513015805	 0.344709
C	-0.0352314483	 1.3666470785	 0.1622818844	-0.170077
N	-0.4698759226	 1.7974483411	 1.5098563946	-0.224537
C	 0.3725282721	 2.6726834244	 1.8904186481	 0.070309
N	 1.4031425615	 3.0078182967	 1.0172634832	-0.30002
C	 1.4264641152	 1.9586792552	-0.0108627197	-0.160367
C	 2.5123136407	 0.995266127	 0.2217687709	 0.292747
N	 3.4055869051	 0.288559578	 0.4160247038	-0.316399
H	-0.2664651972	-2.2968089253	-0.4158522973	 0.208163
H	-0.6757189837	 1.8796668116	-0.5681320813	 0.133215
H	 0.2976654435	 3.2035142498	 2.8346832445	 0.143413
H	 2.2889075738	 3.2988520947	 1.4080137625	 0.262208
H	 1.5539205598	 2.3815365909	-1.010238707	 0.144506
65.3414	114.1963	176.2783	199.2304	279.0656	423.1167	455.8038	468.6428	562.7056	601.5989	623.5025	643.5183	672.6162	769.557	825.8114	870.446	932.3715	972.8797	1026.9032	1047.5881	1070.7971	1122.2588	1221.2988	1271.8956	1322.2421	1340.7805	1360.3297	1425.4092	1696.1078	2250.3407	2356.701	3010.9075	3083.7208	3194.2882	3503.1697	3594.8177
C#CC1N=CNC1C#N	C#C[C@H]1[N][CH]N[C@H]1C#N	
InChI=1S/C6H5N3/c1-2-5-6(3-7)9-4-8-5/h1,4-6H,(H,8,9)	InChI=1S/C6H5N3/c1-2-5-6(3-7)9-4-8-5/h1,4-6H,(H,8,9)/t5-,6+/m1/s1
