19
gdb 106266	2.82626	1.31313	1.12593	2.5665	76.98	-0.2436	-0.0021	0.2415	1186.0058	0.156272	-422.992465	-422.98308	-422.982136	-423.026632	34.416	
C	 0.0529504577	 1.5310562114	 0.0215287183	-0.389416
C	 0.073133809	-0.0029162117	 0.0035321427	-0.324748
C	 0.6144541142	-0.5787586833	 1.273315342	 0.293516
C	 0.9510403114	-2.0375682904	 1.6739132289	-0.317255
C	 1.5850513703	-1.1550782285	 2.7804976132	 0.272676
C	 2.5570406662	-1.4880387507	 3.8623582633	-0.516561
O	 2.0057509444	-0.2045167378	 1.7007182426	-0.368345
C	 0.2837277044	-0.3071363132	 2.7675334431	 0.407626
O	-0.4384360254	 0.3197032437	 3.4743418652	-0.328161
H	 1.0623890886	 1.9270871868	 0.1607989474	 0.138648
H	-0.344361348	 1.9241129765	-0.9181899482	 0.114232
H	-0.5699089629	 1.9022578837	 0.8404201372	 0.141725
H	-0.9409390139	-0.3985057148	-0.1344083621	 0.11673
H	 0.6706076682	-0.3713246063	-0.8391503837	 0.114984
H	 0.1334423047	-2.7130869433	 1.941558414	 0.107601
H	 1.6948208741	-2.4975156683	 1.0196810268	 0.114014
H	 3.4481655143	-1.9741467167	 3.4544726206	 0.137209
H	 2.8627967649	-0.5810886983	 4.3915379899	 0.146994
H	 2.0913248079	-2.1662236989	 4.5839125189	 0.138532
71.6347	133.9573	147.8585	170.2728	195.4234	206.4927	254.8033	309.9468	423.0047	507.6317	518.7218	602.1885	662.8142	667.5011	769.2486	793.8489	827.1988	858.7013	899.255	942.9779	987.7613	1024.0871	1047.4783	1080.084	1121.8841	1149.8543	1161.588	1188.3298	1273.5211	1306.9508	1346.7192	1397.6614	1412.1022	1425.8489	1471.5746	1474.8004	1486.3499	1487.4511	1496.3257	1510.6565	1917.1901	3029.6881	3043.4227	3048.026	3055.8417	3064.4661	3116.5195	3121.0626	3121.31	3125.7694	3137.8083
CCC12CC(C)(O1)C2=O	CC[C@@]12C[C@@](C)(O1)C2=O	
InChI=1S/C7H10O2/c1-3-7-4-6(2,9-7)5(7)8/h3-4H2,1-2H3	InChI=1S/C7H10O2/c1-3-7-4-6(2,9-7)5(7)8/h3-4H2,1-2H3/t6-,7+/m1/s1
