18
gdb 49767	2.20374	1.68107	1.1047	1.86	78.16	-0.2391	-0.03	0.2091	1109.6567	0.147949	-401.938499	-401.930374	-401.92943	-401.971962	30.529	
O	 0.0616406798	-0.1106197871	-0.1146482221	-0.259542
C	 0.0522827298	 1.0929014806	-0.0800329516	 0.163479
C	 1.2937000782	 1.9718381294	-0.0628302254	-0.202542
C	 1.2577922595	 2.9931034948	-1.1786167784	-0.093563
C	 1.0837821419	 4.234964284	-0.7270476863	-0.065928
C	 1.0011038157	 4.3020158419	 0.7750943115	-0.318395
C	 1.3169353794	 2.8623027083	 1.2034951114	 0.304137
C	 0.9945684318	 2.3132493752	 2.5462659057	-0.290371
N	 2.3767107525	 2.6878009696	 2.2026905277	-0.344771
H	-0.9021644589	 1.6668516892	-0.0478135656	 0.07703
H	 2.1622987155	 1.304429803	-0.1133813818	 0.092543
H	 1.3399258493	 2.7038221055	-2.2197444953	 0.109395
H	 1.0126321748	 5.1166258852	-1.3543129874	 0.104983
H	 1.7224586995	 4.9995069426	 1.2153819658	 0.127949
H	 0.0050825615	 4.6228144234	 1.1088646986	 0.114157
H	 0.5192784099	 2.9480294913	 3.2897115354	 0.12007
H	 0.7432441443	 1.2581634991	 2.6250151079	 0.127281
H	 2.9252382555	 1.854713684	 2.0013142999	 0.234089
56.2862	68.3327	183.4954	251.8894	317.4717	343.1364	425.0325	466.245	500.2337	528.0016	730.6492	774.9973	809.8874	830.6113	920.7048	938.5811	954.1871	972.2007	982.0147	985.4369	1025.0279	1053.5839	1064.2249	1103.7756	1132.1874	1140.3039	1185.1177	1248.4464	1256.5774	1261.2926	1282.9051	1292.1497	1369.403	1394.3436	1418.282	1479.6837	1511.0048	1679.5305	1822.7757	2870.2558	3018.0419	3042.5333	3064.5316	3102.6839	3188.0055	3189.0692	3213.9076	3492.9197
O=CC1C=CCC11CN1	O=C[C@H]1C=CC[C@]21CN2	
InChI=1S/C7H9NO/c9-4-6-2-1-3-7(6)5-8-7/h1-2,4,6,8H,3,5H2	InChI=1S/C7H9NO/c9-4-6-2-1-3-7(6)5-8-7/h1-2,4,6,8H,3,5H2/t6-,7-/m1/s1
