14
gdb 23702	5.72655	1.48039	1.18494	3.318	66.47	-0.2491	-0.0297	0.2194	947.5613	0.108085	-386.76071	-386.753954	-386.75301	-386.792042	24.96	
C	-0.0110463166	 1.5176470484	 0.0040197509	-0.498532
C	-0.0010696113	 0.0109577884	 0.01047	 0.264893
C	-0.0929152333	-0.7245285976	-1.1685649659	-0.063182
N	-0.0894103642	-2.0627128822	-1.2295041544	-0.313502
C	 0.0076441252	-2.7072305699	-0.0927769125	 0.337586
F	 0.0103184111	-4.03717589	-0.1635969592	-0.075439
C	 0.1064499309	-2.1091096497	 1.1616059329	-0.257328
C	 0.1007463507	-0.7243561395	 1.1985924213	-0.133411
H	 0.9068048403	 1.9266778944	 0.4407044532	 0.135557
H	-0.0974738899	 1.9063511464	-1.0140182914	 0.130862
H	-0.8499221904	 1.9157029421	 0.585646283	 0.135541
H	-0.1742346108	-0.2100467869	-2.1236807566	 0.110714
H	 0.1833435955	-2.7163623668	 2.0547872859	 0.11724
H	 0.1754558428	-0.2091200571	 2.1517964328	 0.109001
70.8468	144.464	304.2666	338.9725	435.326	444.1898	491.6812	538.2715	653.3139	751.9134	768.5841	851.0458	878.4455	949.6005	984.0884	1005.917	1043.0709	1069.5072	1146.6902	1242.502	1305.4487	1316.1873	1331.657	1412.1284	1417.6046	1484.8741	1496.4545	1526.2809	1623.5458	1643.6871	3032.5499	3086.2581	3115.9454	3150.9164	3174.2758	3213.1519
CC1=CN=C(F)C=C1	Cc1cnc(F)cc1	
InChI=1S/C6H6FN/c1-5-2-3-6(7)8-4-5/h2-4H,1H3	InChI=1S/C6H6FN/c1-5-2-3-6(7)8-4-5/h2-4H,1H3
