17
gdb 46731	2.85013	1.84585	1.44268	3.8746	72.1	-0.2455	0.0073	0.2528	927.6372	0.138884	-417.967557	-417.960743	-417.959799	-417.998837	27.135	
N	-0.0809901027	 1.2565457402	 0.2715662368	-0.533613
C	-0.0111796968	 0.0337138938	-0.0306382474	 0.403147
O	 1.1399421726	-0.6079293993	-0.4150863678	-0.246319
C	 0.8848216772	-1.9402712838	-0.9111455916	-0.116741
C	-0.5615837156	-2.2725823295	-0.530842914	-0.062839
C	-0.8574540189	-2.8562646185	 0.8562681402	-0.042811
C	-0.2688380045	-2.0629336608	 1.9527840268	-0.252808
N	-1.5173509526	-1.5694807127	 1.3398057687	-0.133876
C	-1.1538798922	-0.9499903084	-0.0056469917	-0.056785
H	 0.8325411638	 1.7046545052	 0.1772097266	 0.223607
H	 1.0352379515	-1.9334095504	-1.9964184921	 0.118761
H	 1.6193959477	-2.6115186792	-0.4573691216	 0.122284
H	-1.1146778876	-2.7577841273	-1.3338436183	 0.094653
H	-1.3259163869	-3.8203745722	 1.0254019781	 0.101844
H	-0.4360549868	-2.4295107087	 2.9608726832	 0.128901
H	 0.6615111676	-1.5173703391	 1.8257342142	 0.138307
H	-2.0517157558	-0.5541666493	-0.4756810498	 0.114284
109.5341	163.5015	232.9827	342.0124	441.43	502.9851	601.8258	655.7778	709.984	744.5271	764.568	795.9805	858.0634	899.7879	909.3962	927.9851	958.0244	994.9339	1000.8701	1052.5925	1068.1912	1086.1851	1112.5357	1121.6102	1148.539	1199.6644	1218.0533	1238.1708	1254.6041	1278.7609	1309.8245	1335.9867	1369.8035	1405.1237	1505.5589	1516.196	1773.4365	3038.7322	3091.7852	3121.9033	3123.1947	3139.609	3163.7949	3207.6469	3467.551
N=C1OCC2C3CN3C12	[NH][C]1OC[C@H]2[C@H]3CN3[C@@H]12	
InChI=1S/C6H8N2O/c7-6-5-3(2-9-6)4-1-8(4)5/h3-5,7H,1-2H2	InChI=1S/C6H8N2O/c7-6-5-3(2-9-6)4-1-8(4)5/h3-5,7H,1-2H2/t3-,4+,5+,8?/m0/s1
