15
gdb 44189	5.60815	1.03064	0.94728	4.0605	72.56	-0.2323	0.0111	0.2434	1187.1222	0.112779	-416.752726	-416.744957	-416.744013	-416.785187	29.506	
O	 0.0485418717	 0.0214874706	 0.0003135089	-0.34761
C	 0.037987654	 1.2181135596	-0.0295487087	 0.451626
N	-0.9916800357	 2.1509479354	 0.0053472242	-0.331809
C	-0.1416405854	 3.33093949	-0.0138695846	 0.003631
C	 0.4104047782	 3.8171078245	 1.3758785139	-0.172753
N	 1.4569588577	 2.743442025	 1.3287304203	-0.324473
C	 1.0829225076	 2.3721178343	-0.0628072754	-0.172225
C	 0.9278134607	 5.1722513614	 1.3480365109	 0.324475
C	 1.3766097764	 6.2872067482	 1.2976862533	-0.45059
H	-1.9600120483	 2.0412303418	 0.2727710605	 0.251688
H	-0.3882406352	 4.0929291061	-0.7512094927	 0.108252
H	-0.2850985292	 3.6870083206	 2.2128017631	 0.111138
H	 2.395257838	 3.1168791298	 1.4080926074	 0.237582
H	 1.8603948273	 2.3729993321	-0.8250621982	 0.10485
H	 1.7665240021	 7.2749341507	 1.2693446771	 0.206217
76.2065	128.6316	173.211	261.3832	360.1601	435.6888	446.4207	481.4054	532.6264	638.8087	656.3288	684.6865	720.4435	784.8318	814.0202	863.2178	917.2254	951.5484	986.1698	1018.3205	1052.6698	1060.6034	1131.8262	1158.4173	1202.9018	1222.037	1261.4607	1295.1187	1331.4184	1369.4657	1394.6983	1905.5581	2229.471	3039.6464	3126.4052	3136.4656	3500.8033	3557.2646	3596.5892
O=C1NC2C(NC12)C#C	O=C1N[C@H]2[C@@H](N[C@@H]12)C#C	
InChI=1S/C6H6N2O/c1-2-3-4-5(7-3)6(9)8-4/h1,3-5,7H,(H,8,9)	InChI=1S/C6H6N2O/c1-2-3-4-5(7-3)6(9)8-4/h1,3-5,7H,(H,8,9)/t3-,4-,5+/m0/s1
