14
gdb 48908	4.10178	1.28092	1.13763	3.2938	67.03	-0.2408	-0.0534	0.1875	1030.2338	0.100182	-436.629279	-436.622084	-436.62114	-436.661285	26.916	
O	-0.2653081336	 0.4583806539	-0.6965434109	-0.25556
C	 0.1755932674	 1.103237363	 0.222817679	 0.047621
C	 1.3975630349	 1.9294375198	 0.1355999471	 0.257763
N	 1.9232811519	 2.8035240336	 1.2134465284	-0.375026
C	 2.7883060463	 3.4080609145	 0.1360702373	-0.192837
C	 1.8975642912	 2.7667277583	-1.0080581235	-0.1375
C	 2.6084649677	 1.4400780594	-0.6886036136	-0.236659
C	 3.7609092221	 2.238061298	-0.151603763	 0.510064
O	 4.9490371974	 2.1188189539	-0.1613569644	-0.325513
H	-0.3189769451	 1.12956815	 1.2188934393	 0.094161
H	 1.1909167948	 3.4818180643	 1.4267892801	 0.227073
H	 3.1176583299	 4.4369371306	 0.2456493714	 0.10837
H	 1.4658636905	 3.0942323973	-1.9431042189	 0.137581
H	 2.5639315746	 0.5096402335	-1.2361232781	 0.140463
95.1833	136.3021	173.1694	233.6674	439.9891	450.1295	501.8854	598.9578	695.7397	718.1994	746.0568	797.9674	816.7039	873.6913	901.3923	924.1377	971.9055	996.7493	1037.1687	1058.7859	1070.4802	1108.286	1142.2346	1184.7691	1199.2325	1256.4732	1337.092	1394.9299	1422.1979	1810.6671	1903.1465	2893.4068	3176.8581	3223.0504	3237.8639	3446.3374
O=CC12NC3C1C2C3=O	O=C[C@]12N[C@@H]3[C@H]1[C@H]2C3=O	
InChI=1S/C6H5NO2/c8-1-6-2-3(6)5(9)4(2)7-6/h1-4,7H	InChI=1S/C6H5NO2/c8-1-6-2-3(6)5(9)4(2)7-6/h1-4,7H/t2-,3+,4-,6+/m1/s1
