21
gdb 76322	2.12713	1.46406	1.25029	2.2599	78.56	-0.2428	-0.0234	0.2194	1165.7858	0.179087	-424.245292	-424.23483	-424.233886	-424.280127	38.409	
C	 0.1246017701	 1.6362804587	 0.1171412014	-0.413856
C	 0.1357584535	 0.1183438277	 0.0251001793	-0.096569
C	 0.7590935919	-0.6511991508	-1.2083140909	-0.087183
C	 1.8246837022	 0.1108988852	-1.9843228382	-0.395506
C	 1.3532615612	-1.7329916335	-0.2105108399	 0.325205
C	 0.464860923	-2.9667209884	-0.0733191212	-0.431859
O	 2.6880269025	-2.1357001541	-0.3854795681	-0.476597
C	 1.1596368674	-0.6499818452	 0.8582927481	 0.307903
O	 1.8688900359	-0.3475831866	 1.7818784097	-0.327164
H	 1.1200708816	 2.0568181029	-0.0472942346	 0.129016
H	-0.5579108343	 2.0720821279	-0.6190274747	 0.119952
H	-0.2045564312	 1.9526954941	 1.1113891045	 0.132559
H	-0.8672429228	-0.2807191887	 0.2149418273	 0.102631
H	 0.0077772168	-1.0625431239	-1.8870907303	 0.074496
H	 2.5959688651	 0.5206985459	-1.3241512753	 0.118385
H	 2.3276383193	-0.5547366533	-2.6905762022	 0.13121
H	 1.3857793507	 0.9417842905	-2.545154853	 0.114798
H	 0.5744886329	-3.5872424722	-0.9682737722	 0.132305
H	 0.7706686907	-3.5587554887	 0.7937266077	 0.130541
H	-0.5909982212	-2.7023241322	 0.0350665263	 0.115573
H	 3.2094691347	-1.6838549854	 0.2905372863	 0.294159
71.716	147.2555	163.3245	197.077	212.7526	217.0712	223.8363	230.4581	252.4099	302.7433	347.3298	477.6517	481.8809	549.4946	582.7171	707.9725	755.9657	780.9815	825.8573	940.1646	967.589	986.2576	1016.7465	1029.8146	1052.2331	1110.6731	1121.7231	1164.0891	1174.3506	1196.8236	1240.3977	1283.0731	1346.0956	1351.3479	1380.64	1402.8954	1408.7594	1416.8933	1481.7899	1486.598	1487.3977	1494.5778	1499.0026	1499.7798	1853.1817	3038.2606	3038.9191	3041.8708	3044.1564	3071.6227	3105.6352	3110.0399	3112.8814	3117.4238	3120.1204	3120.8674	3766.7974
CC1C(C)C(C)(O)C1=O	C[C@H]1[C@@H](C)[C@@](C)(O)C1=O	
InChI=1S/C7H12O2/c1-4-5(2)7(3,9)6(4)8/h4-5,9H,1-3H3	InChI=1S/C7H12O2/c1-4-5(2)7(3,9)6(4)8/h4-5,9H,1-3H3/t4-,5+,7+/m0/s1
