19
gdb 79565	2.3248	1.71593	1.2891	0.7113	75.4	-0.2022	0.0706	0.2728	1053.8479	0.15717	-422.942863	-422.934003	-422.933058	-422.975562	34.822	
C	 0.0663608745	 1.5527234437	 0.0097380406	-0.487199
C	-0.0005732002	 0.0535847778	 0.0195216735	 0.27285
C	-0.9541731404	-0.7527782155	 0.8621750001	-0.362375
C	 0.5383686594	-0.9311451095	 1.0405066028	-0.105351
C	 1.246526635	-1.7472782711	-0.0703749252	-0.188439
C	 0.3859525876	-2.2283404556	-1.2204227466	 0.005169
O	-0.8906343762	-2.808299017	-1.1763098099	-0.418414
C	 0.6914890534	-0.772454126	-1.11953507	 0.288431
O	 1.4175939905	-0.113201506	-2.1002788441	-0.4452
H	 1.0620355447	 1.9039348952	-0.2786203322	 0.128703
H	-0.6542114749	 1.9854710286	-0.6960271496	 0.111794
H	-0.1663864158	 1.952661141	 1.0019508881	 0.11436
H	-1.4159019753	-0.1725821558	 1.6582135462	 0.100546
H	-1.5777279556	-1.528160929	 0.442469966	 0.135487
H	 1.0348641076	-0.7066428471	 1.9764664393	 0.086258
H	 2.2604048612	-2.1117625704	 0.0432824517	 0.093446
H	 1.0264319967	-2.6673771596	-1.9909371874	 0.095235
H	-0.803442191	-3.6704930743	-0.7545041837	 0.286451
H	 0.8304427989	 0.0540265406	-2.8468216298	 0.288247
124.0739	191.0375	213.9357	234.9158	261.5639	280.8441	321.7916	327.011	407.112	424.3141	522.6402	582.1993	598.8175	658.4291	755.1585	780.7992	883.4365	888.7801	903.2242	930.8306	969.9126	991.0587	994.7955	1034.6159	1091.7374	1101.9595	1110.085	1120.3371	1195.6344	1233.6384	1261.2212	1275.3507	1292.4898	1332.0668	1351.9438	1382.1816	1415.2285	1481.2994	1485.5925	1490.5789	1503.5688	3019.0355	3064.7177	3078.771	3105.4998	3122.307	3178.963	3189.4358	3247.3514	3780.6223	3796.6994
CC12CC1C1C(O)C21O	C[C@]12C[C@H]1[C@H]1[C@@H](O)[C@@]21O	
InChI=1S/C7H10O2/c1-6-2-3(6)4-5(8)7(4,6)9/h3-5,8-9H,2H2,1H3	InChI=1S/C7H10O2/c1-6-2-3(6)4-5(8)7(4,6)9/h3-5,8-9H,2H2,1H3/t3-,4-,5+,6-,7+/m0/s1
