15
gdb 43499	1.91569	1.86878	0.99563	2.0801	69.75	-0.2583	-0.0385	0.2197	1119.7309	0.113594	-454.018536	-454.01076	-454.009816	-454.051607	28.827	
N	-0.0811223071	 1.3256198934	-0.1893098241	-0.500342
C	-0.006207908	 0.0712237134	-0.0019843062	 0.380397
C	-1.2748526972	-0.7356663358	 0.1703983822	-0.355778
C	-1.0913034135	-1.9729632303	 1.0340538604	 0.368547
O	-1.8518356564	-2.279704792	 1.9160362175	-0.288533
C	 0.1240164743	-2.8074232829	 0.6662818421	-0.418461
C	 1.3792160613	-1.9966067854	 0.3781676723	 0.399724
O	 2.4917468282	-2.4666724279	 0.4276649182	-0.338382
N	 1.1839610773	-0.6630169922	 0.045187156	-0.371284
H	 0.8397759122	 1.7542835737	-0.3037493956	 0.214275
H	-2.0594433536	-0.0952401499	 0.5699181375	 0.166129
H	-1.591871417	-1.0796557745	-0.8251624935	 0.154426
H	 0.345347925	-3.5380871802	 1.4447991656	 0.166778
H	-0.1123989163	-3.3657979263	-0.2505589141	 0.164071
H	 2.048395471	-0.160280683	-0.1157129684	 0.258433
71.4166	96.1703	120.735	354.8712	396.3502	399.8686	441.1724	526.2744	555.2217	563.3618	598.3348	620.5201	697.0359	829.746	858.3541	885.6451	914.8476	938.9197	1008.2575	1122.6482	1133.9712	1202.2008	1210.1891	1253.4436	1291.8737	1322.3354	1386.7398	1419.8125	1432.8763	1444.7563	1735.8688	1810.5885	1842.7387	3018.6191	3032.2603	3139.9818	3156.5005	3450.1862	3577.4027
N=C1CC(=O)CC(=O)N1	[NH][C]1CC(=O)CC(=O)N1	
InChI=1S/C5H6N2O2/c6-4-1-3(8)2-5(9)7-4/h1-2H2,(H2,6,7,9)	InChI=1S/C5H6N2O2/c6-4-1-3(8)2-5(9)7-4/h1-2H2,(H2,6,7,9)
