12
gdb 19638	6.25785	1.77022	1.69841	4.9509	62.33	-0.2462	-0.0099	0.2363	743.5038	0.084475	-340.265514	-340.259869	-340.258925	-340.295198	21.909	
N	 0.0846307975	-1.1231578418	-0.0485108664	-0.344113
C	 0.0297291092	 0.032968536	-0.0366163104	 0.137873
C	-0.0857597502	 1.4481999629	-0.0201980646	 0.306312
C	-0.9435930602	 2.4348234234	 0.8162738648	-0.171967
C	-0.7860740167	 3.4816611317	-0.2937831815	-0.107053
C	 0.2343624261	 3.3693312568	 0.80951004	-0.003141
N	 1.0994441873	 2.3993409723	-0.0030366695	-0.199157
C	 0.0793319592	 2.4802463158	-1.0940193229	-0.102101
H	-1.7441170479	 2.2881532417	 1.5251811928	 0.122766
H	-1.4526127609	 4.2819829732	-0.5775021753	 0.11599
H	 0.6201728132	 4.0687832146	 1.5383957408	 0.12021
H	 0.3319334235	 2.3592876734	-2.1400941277	 0.124381
163.5123	170.3845	501.9234	518.1274	530.495	664.6795	746.0635	763.5933	784.8988	817.6377	860.533	873.8245	909.851	941.0941	997.8608	1001.9808	1010.7538	1037.4876	1055.8745	1121.9604	1183.0612	1227.0148	1254.9855	1343.561	1368.6969	2346.2569	3197.134	3210.2808	3232.5972	3244.2718
N#CC12C3C4C3N1C24	N#C[C@@]12[C@@H]3[C@H]4[C@@H]3N1[C@@H]24	
InChI=1S/C6H4N2/c7-1-6-3-2-4(3)8(6)5(2)6/h2-5H	InChI=1S/C6H4N2/c7-1-6-3-2-4(3)8(6)5(2)6/h2-5H/t2-,3+,4-,5+,6-,8?/m0/s1
