19
gdb 94020	4.34394	0.98913	0.85973	4.4801	82.02	-0.2408	-0.0039	0.237	1351.1007	0.161064	-382.086964	-382.078402	-382.077458	-382.120341	32.46	
C	-0.0697962818	 1.5584818274	 0.0068265955	-0.397042
C	 0.0132952032	 0.025186575	 0.0176167156	-0.037914
C	 0.6969951689	-0.5144875345	-1.252651973	-0.174275
N	 1.0462770211	-1.93548784	-1.1903926897	-0.311317
C	 1.960685765	-2.2140370346	-0.0755305615	-0.133286
C	 1.6311077831	-1.4708108754	 1.2118156456	-0.077227
C	 0.7421488889	-0.4817419423	 1.2391289298	-0.055521
C	 2.003816417	-3.6637252354	 0.1695842669	 0.255707
N	 2.0307412917	-4.798308587	 0.3848345307	-0.316913
H	 0.9303359195	 2.0053733399	-0.0074769773	 0.121996
H	-0.6117051884	 1.9150085048	-0.8752916129	 0.118675
H	-0.5906306211	 1.9323073167	 0.8941045778	 0.118941
H	-1.0174689467	-0.3625427685	 0.046700841	 0.086742
H	 0.0607093911	-0.3577369007	-2.1295130907	 0.109366
H	 1.6236078005	 0.0486643649	-1.4274893116	 0.109638
H	 0.2017883114	-2.4859754991	-1.0633708326	 0.23148
H	 2.9756005228	-1.9257994537	-0.39485016	 0.140675
H	 2.1648306969	-1.7810838371	 2.1052127447	 0.112661
H	 0.5301619166	 0.0185781895	 2.1820550914	 0.097613
55.0162	140.9802	182.0903	228.681	282.9418	300.1158	340.2914	408.9454	468.2685	505.8077	578.1305	612.8962	687.6047	758.4872	767.6225	856.3992	897.0018	940.1907	965.6643	997.8493	1022.4974	1042.6412	1084.714	1119.3421	1136.5148	1155.2155	1232.9559	1258.3869	1291.8727	1313.7846	1340.2486	1353.9242	1372.7598	1401.799	1421.1549	1481.9328	1494.4663	1497.8659	1502.4823	1719.3291	2363.5207	2974.3739	2975.4209	3022.5626	3030.8578	3079.1733	3101.0298	3103.2935	3142.6969	3178.4387	3508.8215
CC1CNC(C=C1)C#N	C[C@H]1CN[C@@H](C=C1)C#N	
InChI=1S/C7H10N2/c1-6-2-3-7(4-8)9-5-6/h2-3,6-7,9H,5H2,1H3	InChI=1S/C7H10N2/c1-6-2-3-7(4-8)9-5-6/h2-3,6-7,9H,5H2,1H3/t6-,7+/m1/s1
