23
gdb 122164	3.08994	0.72839	0.66154	1.9814	83.02	-0.2434	0.0744	0.3178	1812.698	0.203004	-425.411393	-425.400513	-425.399569	-425.447651	40.107	
C	 0.0833970446	 1.5175869068	-0.2682945938	-0.381156
C	 0.0096331584	 0.0363480825	 0.1114468278	-0.163419
C	-1.3898066615	-0.5629469422	-0.0639366294	-0.173207
C	-1.4658992487	-2.0453798532	 0.3230374976	-0.239622
C	-2.8513494777	-2.6375769508	 0.1641304509	 0.383353
O	-3.8301336255	-2.1084882374	 1.0240305032	-0.473539
C	-3.3268592354	-3.1084893039	-1.2024973096	-0.390336
C	-3.0268582312	-4.0983288306	-0.0909996629	 0.055786
O	-1.8768420391	-4.8897545801	-0.1523019861	-0.421787
H	 1.0936441656	 1.9160470168	-0.1320192274	 0.111508
H	-0.1968415066	 1.6726038348	-1.3163301801	 0.11192
H	-0.596610358	 2.1180692497	 0.346478114	 0.112459
H	 0.724485962	-0.5351856412	-0.4951226063	 0.095512
H	 0.3284877412	-0.0921674314	 1.1540669857	 0.097708
H	-2.0993164853	 0.0135106272	 0.5468210125	 0.082779
H	-1.711121778	-0.4404457966	-1.1077876339	 0.091033
H	-0.7613598769	-2.6291696087	-0.2769514426	 0.10814
H	-1.1620654395	-2.1671171958	 1.3706446887	 0.103668
H	-4.0489033399	-1.2241306674	 0.7112611133	 0.282132
H	-4.366072168	-2.9443558885	-1.4659494971	 0.109788
H	-2.6200530063	-3.0579304453	-2.0246176491	 0.110587
H	-3.8850674865	-4.5547309407	 0.4008398016	 0.098142
H	-2.0105920577	-5.5517962539	-0.8382874272	 0.28855
58.6591	83.3176	104.1524	139.2851	198.9583	231.6423	251.9575	275.3611	292.5734	310.8503	392.4504	411.083	441.4658	472.0833	575.0786	727.3765	742.8184	795.6582	838.7147	902.279	912.4019	927.3138	955.2967	989.4482	1019.7393	1029.6235	1065.6925	1067.2028	1119.5081	1126.3136	1178.6744	1226.8995	1255.6348	1271.1298	1288.2687	1311.9381	1323.8966	1332.7107	1348.0593	1379.6072	1403.0784	1415.2029	1418.5875	1478.5416	1486.3925	1496.9819	1500.6492	1501.0647	1512.5506	2999.288	3017.436	3025.232	3028.366	3034.0465	3053.9473	3092.6059	3095.6497	3100.7851	3112.7915	3127.7984	3222.4558	3801.8002	3808.1297
CCCCC1(O)CC1O	CCCC[C@@]1(O)C[C@H]1O	
InChI=1S/C7H14O2/c1-2-3-4-7(9)5-6(7)8/h6,8-9H,2-5H2,1H3	InChI=1S/C7H14O2/c1-2-3-4-7(9)5-6(7)8/h6,8-9H,2-5H2,1H3/t6-,7-/m1/s1
