22
gdb 102617	2.22472	1.00848	0.75351	6.7917	79.16	-0.2357	0.0377	0.2734	1556.3478	0.194256	-441.527768	-441.51745	-441.516505	-441.563874	37.35	
C	 0.4190669241	 1.5744594994	-0.6754785229	-0.397893
C	 0.3125170469	 0.0492222569	-0.5659989693	-0.180264
C	-0.9796509008	-0.4795372362	 0.0938230302	 0.023973
C	-2.2123328889	-0.1373779605	-0.7604644628	-0.170948
N	-3.4733077619	-0.4616416355	-0.0624131201	-0.516694
H	-4.244719798	-0.5206794109	-0.7190479102	 0.248272
H	-3.1446796041	-1.7519841165	 1.0609693519	 0.315709
H	-3.7088485267	 0.2774940005	 0.5946298593	 0.251164
C	-0.852982279	-2.0080357447	 0.3517187313	-0.341704
C	-1.4897918049	-2.5549564361	 1.6347220694	 0.37958
O	-2.7936430318	-2.3132596705	 1.8045978666	-0.382537
O	-0.8554157251	-3.186512488	 2.4420952513	-0.334209
H	 1.4051784995	 1.8630578888	-1.0519237684	 0.120874
H	-0.3230619602	 2.0017965169	-1.3564944976	 0.117426
H	 0.2874080749	 2.0499116093	 0.3030234584	 0.119173
H	 0.4194107273	-0.4041579283	-1.5614259412	 0.0981
H	 1.1606744325	-0.3178151131	 0.0224655052	 0.111542
H	-1.0861242628	 0.0332002204	 1.0612827955	 0.084556
H	-2.1836298563	 0.9164220493	-1.0637399134	 0.101316
H	-2.1798489448	-0.7345577615	-1.6793506646	 0.11496
H	-1.2762244729	-2.5583850267	-0.4996585972	 0.112172
H	 0.2001435528	-2.286545723	 0.4159198288	 0.125433
59.0125	67.4936	88.5558	136.2617	207.107	243.2575	268.3776	275.566	329.8496	375.5703	406.8024	443.132	503.3249	622.6913	702.5143	769.9933	860.5255	878.2367	883.6727	921.9457	955.4509	987.1891	1009.8946	1040.6984	1073.5494	1076.8572	1102.9315	1132.7151	1170.1811	1240.6537	1272.4569	1309.5841	1314.1732	1334.1337	1357.343	1369.8703	1384.1762	1414.9987	1418.0977	1473.8575	1488.5819	1492.6167	1500.4229	1505.8883	1509.9076	1652.1154	1847.7751	2995.513	3015.5726	3019.2787	3026.6262	3035.4316	3060.322	3067.9147	3101.2571	3107.7732	3114.1479	3174.4954	3495.4369	3574.5865
CCC(C[NH3+])CC([O-])=O	CC[C@@H](CN)CC(=O)O	
InChI=1S/C6H13NO2/c1-2-5(4-7)3-6(8)9/h5H,2-4,7H2,1H3,(H,8,9)	InChI=1S/C6H13NO2/c1-2-5(4-7)3-6(8)9/h5H,2-4,7H2,1H3,(H,8,9)/t5-/m1/s1
