19
gdb 127138	4.11307	1.04202	0.84914	3.0907	81.05	-0.2055	0.0112	0.2167	1384.4385	0.158315	-419.20576	-419.196185	-419.195241	-419.240525	33.978	
C	 0.0478488352	 1.4224401454	-0.031854064	-0.335364
N	 0.0124801729	-0.0145016442	-0.2297869058	-0.153897
C	 1.2130549467	-0.7400776087	 0.1555646009	-0.329162
C	-1.1881544479	-0.6675843177	-0.0616920512	 0.482651
N	-1.2262954827	-1.9505495368	 0.2548470045	-0.25503
O	-2.5904207931	-2.2890500424	 0.2621774016	-0.228704
C	-3.3202059942	-1.200706789	-0.023340262	 0.458361
C	-4.7984325823	-1.3703036252	-0.0502375355	-0.490231
C	-2.5072279568	-0.1346281337	-0.2363096031	-0.45762
H	 0.9832502836	 1.8135811543	-0.4420318316	 0.126999
H	-0.7739983798	 1.9026363627	-0.5673514828	 0.132638
H	-0.0103203643	 1.7167954111	 1.0289007246	 0.114563
H	 1.3318923074	-0.8139173083	 1.2476805339	 0.115743
H	 1.1677495756	-1.7537017239	-0.2449850083	 0.158398
H	 2.0852222997	-0.2265004624	-0.258501318	 0.11446
H	-5.0917706679	-2.1221771405	-0.790096695	 0.149422
H	-5.1717607698	-1.7049194551	 0.9232816073	 0.148866
H	-5.2835068627	-0.4256494979	-0.3028471783	 0.13733
H	-2.8041010595	 0.8689656922	-0.4867818773	 0.110577
69.1331	92.3024	127.8428	164.5713	175.7895	215.0116	243.5882	335.9817	375.9649	390.3545	510.9382	584.5085	624.1774	711.6556	726.7796	774.5319	927.5806	942.0873	1010.4067	1033.4336	1044.7082	1064.348	1083.8902	1128.1187	1153.8812	1176.0692	1253.0155	1287.1439	1334.4839	1411.9531	1447.2746	1460.7336	1473.4327	1475.3856	1483.1036	1488.768	1491.0478	1503.2842	1508.6884	1577.3479	1660.3601	2971.7601	2989.1011	3042.4243	3079.4392	3082.7432	3098.7273	3123.7492	3137.8636	3142.385	3280.1814
CN(C)C1=NOC(C)=C1	CN(C)c1noc(C)c1	
InChI=1S/C6H10N2O/c1-5-4-6(7-9-5)8(2)3/h4H,1-3H3	InChI=1S/C6H10N2O/c1-5-4-6(7-9-5)8(2)3/h4H,1-3H3
