23
gdb 103639	2.11338	1.27993	1.18027	1.9785	81.57	-0.2452	0.0731	0.3183	1254.2694	0.203355	-425.421143	-425.410655	-425.409711	-425.455727	39.961	
C	-0.434471204	 1.4768467796	 0.2655241939	-0.414426
C	-0.2995030265	-0.0489029191	 0.3435172612	-0.223801
C	 0.8410638554	-0.5267175123	 1.2487346207	 0.404172
O	 2.0989804891	-0.0414713016	 0.8105942943	-0.49057
C	 0.5413109569	-0.3751342409	 2.7784746964	-0.323235
C	 0.1726683841	-1.8828669445	 2.8240014404	 0.090618
O	-1.2151168417	-2.1353849878	 2.6588862124	-0.426589
C	 0.9080110134	-2.0683694517	 1.4706770382	-0.003582
C	 0.3686919478	-3.0516801104	 0.4439304983	-0.423208
H	 0.4459868221	 1.9448915377	-0.1910352949	 0.108263
H	-1.2928514822	 1.758136233	-0.3514933443	 0.120087
H	-0.5793135541	 1.9253496542	 1.2547653899	 0.117827
H	-1.2335861344	-0.4820163325	 0.7133973222	 0.11701
H	-0.1347598417	-0.4491989522	-0.6639259501	 0.099704
H	 2.0407341653	 0.9150894436	 0.7175199908	 0.273386
H	 1.4590864348	-0.1571123312	 3.330465877	 0.101475
H	-0.2446971372	 0.3227274687	 3.0830280228	 0.084669
H	 0.5681121	-2.4575312554	 3.67140097	 0.062303
H	-1.667196164	-1.8209254258	 3.4481842046	 0.282522
H	 1.9576429488	-2.291849856	 1.6880162495	 0.084324
H	-0.6977945837	-2.9032696197	 0.2622769305	 0.130964
H	 0.9022478196	-2.9498885476	-0.5068970927	 0.116984
H	 0.5034607421	-4.0817038179	 0.7909122091	 0.111102
97.2527	131.85	165.4648	204.2484	220.9819	225.2251	257.1627	277.2146	298.2393	316.9337	367.2508	381.0477	462.5166	511.7419	549.6581	679.9977	745.8417	793.1465	832.5981	854.8522	908.277	938.4356	977.8333	990.8154	1015.4221	1047.5226	1073.9549	1091.0438	1150.094	1162.612	1183.1778	1192.3053	1226.9372	1238.3839	1297.1943	1306.7481	1321.6934	1340.3393	1374.8113	1392.2548	1403.9877	1409.8632	1419.5727	1467.7035	1484.1731	1493.2609	1499.5604	1504.5863	1511.0283	3008.8314	3024.2685	3036.1777	3039.2904	3050.192	3059.8809	3076.6683	3096.3247	3100.6718	3103.9612	3114.1787	3129.6377	3809.3093	3816.5308
CCC1(O)CC(O)C1C	CC[C@@]1(O)C[C@@H](O)[C@H]1C	
InChI=1S/C7H14O2/c1-3-7(9)4-6(8)5(7)2/h5-6,8-9H,3-4H2,1-2H3	InChI=1S/C7H14O2/c1-3-7(9)4-6(8)5(7)2/h5-6,8-9H,3-4H2,1-2H3/t5-,6-,7-/m1/s1
