22
gdb 59438	2.62295	1.05803	0.93939	3.6531	84.03	-0.2387	-0.0166	0.2221	1407.872	0.19157	-404.351749	-404.341177	-404.340233	-404.387803	38.225	
C	-2.1786338999	 0.4639796345	 1.0696270252	-0.394152
C	-0.9328756752	-0.1136583349	 0.3820004265	 0.031911
C	-0.0536155922	 0.990298789	-0.2194430542	-0.393829
C	-0.1445366915	-0.9442923902	 1.3746695861	-0.000502
N	-0.6217934633	-2.2884517334	 1.6621753619	-0.319114
C	 0.6893363427	-2.1452019141	 0.9997677161	-0.156115
C	 0.8144185202	-2.6286484789	-0.418889483	 0.410419
C	 2.2294143818	-2.9603310643	-0.8614534101	-0.487984
O	-0.1326752328	-2.7306221363	-1.1650407504	-0.304218
H	-1.9042551243	 1.1415698164	 1.8880826081	 0.101968
H	-2.7865225858	 1.0333103726	 0.3592949017	 0.111822
H	-2.7985097333	-0.3367247673	 1.483274303	 0.127346
H	-1.258288902	-0.78614691	-0.4161626453	 0.120024
H	 0.3218547593	 1.6691735952	 0.5564330877	 0.105985
H	 0.8114091637	 0.5723329746	-0.7449350271	 0.109808
H	-0.6209042775	 1.5916575595	-0.9366348935	 0.116389
H	 0.2631672271	-0.3691408254	 2.2094384596	 0.08096
H	-0.4824377695	-2.5298875233	 2.6397276523	 0.235429
H	 1.5800061546	-2.3005813561	 1.6060040651	 0.082338
H	 2.620774824	-3.7993558164	-0.2736671967	 0.140145
H	 2.2347591731	-3.2225001685	-1.919723549	 0.14306
H	 2.8985832808	-2.1104285128	-0.6840010941	 0.138309
52.1601	61.5022	126.3451	143.0804	187.0638	219.3175	237.0908	259.8459	317.2852	338.8592	365.9526	459.4291	493.2148	608.9645	635.0579	750.6576	817.694	869.076	903.1599	931.3138	935.7869	957.1368	971.5501	985.8034	1041.6016	1063.0629	1131.7127	1146.5757	1184.6178	1190.0452	1193.7515	1228.3284	1266.5476	1329.7669	1360.6045	1376.4901	1396.4629	1413.263	1427.5092	1462.4325	1470.2876	1475.7761	1487.571	1491.8111	1503.4715	1511.7153	1807.9679	3021.1985	3024.6979	3031.2536	3070.4421	3078.7322	3086.1232	3090.2915	3101.0998	3104.5714	3112.34	3121.2282	3154.6042	3504.1983
CC(C)C1NC1C(C)=O	CC(C)[C@H]1N[C@H]1C(=O)C	
InChI=1S/C7H13NO/c1-4(2)6-7(8-6)5(3)9/h4,6-8H,1-3H3	InChI=1S/C7H13NO/c1-4(2)6-7(8-6)5(3)9/h4,6-8H,1-3H3/t6-,7+/m1/s1
