15
gdb 50601	2.39192	1.71102	1.01003	6.8472	77.09	-0.2416	-0.0577	0.184	1109.6679	0.114203	-413.005041	-412.996713	-412.995769	-413.039084	28.766	
N	 0.0959412964	 1.28061045	 0.0088011188	-0.435817
C	 0.0219351917	 0.0145295862	 0.0034117729	 0.075358
N	-1.1789421189	-0.6690905995	 0.0092277294	-0.128924
C	-1.2712510394	-2.1358626097	 0.0075730534	-0.204116
C	-2.8105081172	-2.3560948857	 0.0203287636	-0.186758
N	-3.4293606541	-1.0250277721	 0.0300584804	-0.285518
C	-2.4813279997	-0.1659818415	 0.0231204821	 0.313591
C	-2.7744975469	 1.2412503217	 0.0290796573	 0.310118
N	-3.1226367967	 2.3425846693	 0.0344443057	-0.33336
H	 1.0648792319	 1.5885403996	 0.0023983379	 0.237186
H	 0.8703861783	-0.6800887202	-0.0065703655	 0.102615
H	-0.7925178911	-2.5518467565	-0.8845773762	 0.131864
H	-0.7775124254	-2.5546952238	 0.8901936267	 0.131846
H	-3.1593980734	-2.907587965	-0.8584160423	 0.135963
H	-3.1440883954	-2.9136696731	 0.9011480857	 0.135952
43.53	96.8734	168.6092	169.0728	178.5714	237.29	427.3238	458.277	533.9791	617.791	714.7455	749.9728	795.506	800.6082	834.9843	960.4266	1013.9755	1051.7021	1073.0713	1105.5433	1202.2738	1214.6869	1255.1178	1275.8074	1319.6359	1344.6577	1425.0709	1440.5133	1493.5016	1529.8163	1663.3193	1732.9658	2369.3321	3036.852	3049.9013	3053.6891	3070.0739	3092.4327	3527.9305
N=CN1CCN=C1C#N	[NH][CH]N1CCN=C1C#N	
InChI=1S/C5H6N4/c6-3-5-8-1-2-9(5)4-7/h4,7H,1-2H2	InChI=1S/C5H6N4/c6-3-5-8-1-2-9(5)4-7/h4,7H,1-2H2
