18
gdb 54129	2.85651	1.24537	1.0272	1.5897	72.97	-0.2464	-0.0273	0.2192	1189.2164	0.144838	-439.133271	-439.12378	-439.122836	-439.168	34.646	
C	-0.6567397729	 1.2331500988	 0.1748561171	-0.480537
C	 0.4352124395	 0.2284892468	-0.1403500762	 0.347818
O	 1.4287705582	 0.1274654003	 0.541710235	-0.300051
C	 0.2358534642	-0.6894380609	-1.3583813436	 0.222775
C	 1.5633975622	-1.2129147128	-1.8931596381	-0.441922
C	-0.8603632055	-1.7915384915	-1.1042568333	-0.434704
C	-1.629919272	-1.140590082	-2.2769001871	 0.433001
O	-2.640279479	-1.3690076498	-2.8813605871	-0.350012
N	-0.6783427731	-0.1502715227	-2.3840566941	-0.355513
H	-0.6406041204	 2.0410255304	-0.5650468667	 0.144507
H	-1.6539005365	 0.7870208497	 0.1205881564	 0.144698
H	-0.4802576493	 1.6514240458	 1.1662228626	 0.144875
H	 2.1308519113	-1.6855084753	-1.0898469026	 0.151661
H	 1.391989889	-1.9359746387	-2.6953065126	 0.118648
H	 2.1742126014	-0.3945742395	-2.2879261902	 0.123724
H	-0.520236289	-2.8108054305	-1.2927403896	 0.143417
H	-1.3750185994	-1.7491067084	-0.142567709	 0.137539
H	-0.5165391086	 0.5227013804	-3.120667451	 0.250074
49.287	69.1066	152.4198	201.596	226.9562	250.6066	319.5437	355.2049	405.2669	440.1294	488.5288	500.1286	565.4569	606.933	637.6606	768.5719	830.6845	897.8306	940.4108	960.9441	981.8174	1028.8125	1067.7746	1108.5304	1151.3764	1165.4431	1194.089	1256.0286	1286.8288	1366.9098	1385.9442	1404.7047	1453.2346	1460.2609	1472.3729	1482.0562	1492.2955	1805.8596	1901.8388	3045.2161	3046.2294	3088.2896	3107.7808	3112.0667	3145.0648	3147.7982	3157.2419	3593.2747
CC(=O)C1(C)CC(=O)N1	CC(=O)[C@@]1(C)CC(=O)N1	
InChI=1S/C6H9NO2/c1-4(8)6(2)3-5(9)7-6/h3H2,1-2H3,(H,7,9)	InChI=1S/C6H9NO2/c1-4(8)6(2)3-5(9)7-6/h3H2,1-2H3,(H,7,9)/t6-/m1/s1
