14
gdb 23098	2.32133	1.66873	0.97789	6.4348	77.15	-0.2075	-0.0428	0.1646	1113.7545	0.101894	-432.851568	-432.843422	-432.842478	-432.884402	29.663	
O	-0.019742712	 1.3038296366	 0.0365701171	-0.384496
N	 0.0524527851	-0.0922047462	 0.0362386765	-0.256608
C	-1.1091217289	-0.6227749159	 0.0171355455	 0.300884
C	-1.2537346078	-2.1417236132	 0.0146636702	-0.240052
N	-2.6997654949	-2.3258323992	 0.1780216857	-0.29391
C	-3.3302666147	-1.1291736615	 0.0742271457	-0.05794
C	-2.4682237982	-0.0684062591	 0.0110047879	 0.068165
C	-2.8854710809	 1.2811185435	-0.0232813055	 0.202711
N	-3.2920159588	 2.3663579844	-0.0583298381	-0.3704
H	 0.9074021709	 1.562729202	 0.0604427508	 0.310253
H	-0.9082781433	-2.5745190285	-0.9323043248	 0.14422
H	-0.6962472525	-2.6117106198	 0.829659407	 0.150685
H	-3.1505426923	-3.1840288276	-0.0909897419	 0.266316
H	-4.4113363116	-1.0817545054	 0.0767019337	 0.16017
89.0556	144.3071	189.5543	241.5885	252.8472	334.367	373.4677	437.9745	459.6521	530.3973	549.4884	609.4508	686.7222	745.2358	841.058	935.0056	982.7187	1000.3103	1027.1966	1087.2073	1191.2542	1198.4004	1264.7634	1319.5712	1337.0831	1401.2648	1472.4871	1504.1001	1623.5639	1732.6377	2335.5831	3029.7022	3084.8959	3232.1827	3660.007	3821.2746
ON=C1CNC=C1C#N	ON=C1CNC=C1C#N	
InChI=1S/C5H5N3O/c6-1-4-2-7-3-5(4)8-9/h2,7,9H,3H2	InChI=1S/C5H5N3O/c6-1-4-2-7-3-5(4)8-9/h2,7,9H,3H2
