12
gdb 5341	6.08871	1.5779	1.25314	1.9572	71.83	-0.2558	-0.0556	0.2002	884.5438	0.085725	-340.403477	-340.397205	-340.396261	-340.43388	23.381	
C	 0.0184767062	-1.2079818885	-0.003859133	-0.393391
C	 0.002275246	-0.0042163803	 0.0025090886	 0.223687
C	-0.0170644653	 1.4152381681	 0.0104317632	 0.06385
C	-1.2129132888	 2.1483721421	 0.0301418705	-0.043198
N	-1.2393994209	 3.4781153618	 0.0376500454	-0.240911
C	-0.0535055259	 4.090422687	 0.0253269642	 0.083287
N	 1.1486237422	 3.5108181813	 0.0063616743	-0.240911
C	 1.1583687822	 2.1808455438	-0.0009273074	-0.043192
H	 0.032344988	-2.2700744423	-0.009280592	 0.204081
H	-2.1692876119	 1.6317523203	 0.0399390453	 0.129546
H	-0.0683095854	 5.1772341012	 0.0314003591	 0.127609
H	 2.1284577335	 1.6906081055	-0.0163711584	 0.129543
142.4748	151.8707	324.623	411.0602	501.0357	523.5425	548.3704	612.9303	639.1775	659.3091	747.7677	812.1387	943.7823	996.1465	1018.2418	1054.9681	1138.7809	1215.8532	1232.7208	1252.5427	1368.9393	1448.9949	1452.0584	1574.3916	1617.5966	2230.0656	3167.0395	3167.0492	3174.3839	3500.9512
C#CC1=CN=CN=C1	C#Cc1cncnc1	
InChI=1S/C6H4N2/c1-2-6-3-7-5-8-4-6/h1,3-5H	InChI=1S/C6H4N2/c1-2-6-3-7-5-8-4-6/h1,3-5H
