23
gdb 78287	2.71938	1.29218	1.07641	0.2654	90.6	-0.1968	0.0923	0.2891	1277.0358	0.204066	-351.100923	-351.091414	-351.09047	-351.13428	37.366	
C	-0.0645590826	 1.4526828945	-0.0063070447	-0.422174
C	 0.0173393209	-0.0605924018	 0.0188983999	-0.028321
C	 1.3784780627	-0.666663578	-0.2060698805	-0.114417
C	 0.7523118133	-0.6774436784	 1.180767781	-0.114408
C	 0.8100445802	-2.2344456325	 1.1970871564	 0.299206
C	 1.1984550249	-2.9858569416	 2.4374399581	-0.492276
C	 0.0876517257	-2.8621667432	 0.0288424523	-0.414433
C	 1.4380086397	-2.2236330022	-0.1936227736	 0.299216
C	 2.6296375831	-2.9612180626	-0.7320912531	-0.492278
H	 0.8427980384	 1.9064214672	 0.4069497925	 0.113884
H	-0.1857796613	 1.8238015146	-1.0298087278	 0.116791
H	-0.9146357029	 1.8112457358	 0.5842705697	 0.116792
H	-0.8673886527	-0.542962824	-0.3843141618	 0.077036
H	 2.2125646462	-0.0679101456	-0.5540921614	 0.07768
H	 1.0394025077	-0.0881100335	 2.0442436636	 0.07768
H	 0.389242542	-2.9762356675	 3.1789900615	 0.11774
H	 1.427590965	-4.0329077154	 2.2143003982	 0.11424
H	 2.0831211233	-2.5441971888	 2.9122761008	 0.113958
H	 0.1212632745	-3.9491942317	 0.0355563041	 0.100981
H	-0.8370065055	-2.4752350339	-0.3856691406	 0.107163
H	 2.6506775219	-2.9373297694	-1.8292696514	 0.117741
H	 3.568264539	-2.5186120966	-0.3767798258	 0.113959
H	 2.6199068966	-4.0123744157	-0.4261732573	 0.114241
161.5026	181.5674	186.4402	196.6396	201.5689	210.1285	250.0193	328.8654	344.9135	421.8667	493.34	504.7115	550.4208	703.5969	753.3003	771.2243	804.9982	863.3617	864.7108	928.7163	959.6463	973.7007	989.3287	1016.4288	1018.0221	1040.0066	1072.1727	1078.0908	1107.9678	1111.7184	1144.1408	1189.8904	1194.0268	1209.7583	1250.3348	1282.2604	1319.8118	1376.693	1410.0538	1413.0383	1419.7699	1442.4828	1480.7826	1485.7293	1495.1138	1496.1257	1499.5438	1503.568	1517.999	3011.5565	3014.2127	3026.3043	3065.6109	3066.6048	3091.4688	3091.7108	3092.8454	3094.6323	3115.2121	3150.5633	3165.3765	3176.5165	3191.9997
CC1C2C1C1(C)CC21C	C[C@H]1[C@H]2[C@@H]1[C@@]1(C)C[C@@]21C	
InChI=1S/C9H14/c1-5-6-7(5)9(3)4-8(6,9)2/h5-7H,4H2,1-3H3	InChI=1S/C9H14/c1-5-6-7(5)9(3)4-8(6,9)2/h5-7H,4H2,1-3H3/t5-,6-,7+,8-,9+
