17
gdb 98651	5.46418	0.75648	0.74895	1.9883	70.95	-0.257	-0.041	0.2159	1500.6262	0.133312	-458.983789	-458.974736	-458.973792	-459.020028	32.258	
O	 0.5203798563	 1.2067592552	-0.2054709978	-0.416682
C	 0.1907181264	-0.1463529134	-0.1883982268	-0.137877
C	-1.2752254058	-0.3670628682	 0.1389506263	 0.35032
O	-1.990981411	 0.5930846971	 0.3450962579	-0.337922
C	-1.7947702658	-1.781186319	 0.1970626944	-0.106112
C	-2.5893506659	-2.1514396379	 1.4980822809	-0.345278
C	-3.6916902355	-2.7189789054	 0.5925350942	 0.401564
O	-4.606666687	-3.4650200153	 0.7705492738	-0.279631
C	-3.0838900426	-2.0581935463	-0.6529499908	-0.345282
H	-0.3057657274	 1.671263552	 0.0045592499	 0.296365
H	 0.3957601866	-0.627448657	-1.1609928532	 0.11977
H	 0.7900164767	-0.701863322	 0.5543577831	 0.11977
H	-1.0023188138	-2.5016346669	-0.0163596498	 0.091955
H	-2.1247568886	-2.8352238966	 2.2110998161	 0.137468
H	-2.9342303691	-1.2523744751	 2.0194522412	 0.157051
H	-3.6044931257	-1.1260199454	-0.8960505923	 0.157049
H	-2.9895934077	-2.6722549756	-1.5506360273	 0.13747
8.9471	62.7671	118.3097	209.0085	209.1837	293.3526	359.0489	412.383	426.5839	468.7932	564.7041	635.0309	674.8227	704.9402	791.3347	883.5247	890.7512	960.1441	984.4503	1040.9245	1069.6426	1093.9486	1098.7357	1153.9108	1202.0863	1206.9044	1232.5522	1241.9042	1251.158	1305.4959	1377.6215	1421.1703	1439.5161	1449.9461	1486.6591	1785.8434	1905.7583	2959.6076	2972.5026	3060.1461	3064.7876	3088.6208	3131.4392	3132.2888	3686.0505
OCC(=O)C1CC(=O)C1	OCC(=O)C1CC(=O)C1	
InChI=1S/C6H8O3/c7-3-6(9)4-1-5(8)2-4/h4,7H,1-3H2	InChI=1S/C6H8O3/c7-3-6(9)4-1-5(8)2-4/h4,7H,1-3H2
