23
gdb 77525	2.26792	1.70893	1.2411	1.1982	85.05	-0.2477	0.0764	0.3241	1128.7373	0.205802	-388.295235	-388.28609	-388.285146	-388.327988	36.845	
C	-0.1409035209	 1.5382886908	 0.092745232	-0.436442
C	 0.0187388959	 0.0252064147	 0.0251634554	-0.026155
C	 0.7638258093	-0.5919382871	-1.2148672989	 0.346494
C	 0.49797113	-0.1340721872	-2.6294097594	-0.498243
C	 2.0975355808	-0.271782288	-0.4706555816	-0.349061
C	 1.225707022	-0.5938673697	 0.7838878487	 0.427954
O	 1.506917799	-0.1092846562	 2.0612928576	-0.494579
C	 0.9685789256	-2.1041236217	 0.6093199759	-0.284653
C	 0.6171733409	-2.1032256202	-0.9119433786	-0.251695
H	 0.7744613886	 2.082337489	-0.1544453707	 0.116422
H	-0.9227808424	 1.8746143931	-0.5968832188	 0.110199
H	-0.4343163659	 1.8396929819	 1.1031974751	 0.127428
H	-0.945835276	-0.4456099737	 0.2543586437	 0.053281
H	 0.6048611312	 0.9508729448	-2.7302665955	 0.115078
H	 1.196432753	-0.6032578294	-3.3322829014	 0.113001
H	-0.5172905337	-0.4006210494	-2.9471526212	 0.111997
H	 2.9625189603	-0.9111377683	-0.6780563072	 0.076797
H	 2.3885340494	 0.7770493972	-0.5281879613	 0.099151
H	 2.2416237196	-0.6150740615	 2.424740583	 0.27624
H	 1.8557636202	-2.704412396	 0.8407902103	 0.08305
H	 0.148370713	-2.4502016666	 1.2448512972	 0.098902
H	-0.3975487465	-2.4631436166	-1.1105361083	 0.093395
H	 1.3088660165	-2.7082272299	-1.5070278859	 0.09144
177.8919	200.5451	205.8889	218.2985	232.5771	262.5009	273.2542	334.9009	411.1209	454.9582	464.2586	539.2483	591.9308	601.744	690.7961	774.5852	803.0824	850.6767	883.3494	919.098	960.2369	964.1659	1000.4283	1016.0159	1049.0466	1078.4925	1112.6236	1125.4717	1141.9056	1154.0205	1189.4812	1215.056	1221.1425	1246.2112	1251.3258	1264.2445	1318.7561	1344.3632	1365.8982	1406.0735	1412.392	1415.9908	1487.7453	1488.7963	1494.4628	1496.0424	1497.8139	1507.0629	1524.5879	3015.324	3020.8447	3034.0605	3037.1433	3042.4773	3049.4588	3075.9345	3081.0726	3094.2582	3095.3104	3098.8606	3111.7141	3134.5455	3805.2131
CC1C2(C)CC1(O)CC2	C[C@H]1[C@@]2(C)C[C@]1(O)CC2	
InChI=1S/C8H14O/c1-6-7(2)3-4-8(6,9)5-7/h6,9H,3-5H2,1-2H3	InChI=1S/C8H14O/c1-6-7(2)3-4-8(6,9)5-7/h6,9H,3-5H2,1-2H3/t6-,7+,8+/m0/s1
