17
gdb 63503	1.99094	1.737	1.06506	3.2866	77.08	-0.2583	-0.0478	0.2105	1146.7588	0.130466	-421.786195	-421.776366	-421.775421	-421.820423	35.738	
C	 0.1293974869	 1.5037296829	 0.0399817887	-0.472042
C	 0.0045246834	-0.0029673832	 0.0747592951	 0.341541
C	-1.2345533841	-0.5653261348	-0.5876378531	-0.461699
O	 1.2056685932	-0.727255441	-0.1590237954	-0.289734
C	 0.672679039	-0.8149976793	 1.1667508348	 0.043344
C	 1.4656842232	-0.1238855482	 2.2559190027	 0.085259
O	 2.3304165309	 0.6875528576	 2.0611388364	-0.243814
C	 0.1326933677	-2.0862428093	 1.5832681421	 0.262
C	-0.2858237978	-3.1320969846	 2.0038697777	-0.396319
H	 1.0609752211	 1.8372105243	 0.4944070791	 0.168022
H	 0.1130932274	 1.8358652314	-1.0037121021	 0.131301
H	-0.7177960421	 1.972227262	 0.5509972997	 0.124163
H	-1.2448023563	-0.2718389034	-1.6427354631	 0.133083
H	-1.2617291902	-1.6535316268	-0.5267345027	 0.144413
H	-2.1374243292	-0.1619874058	-0.1184164624	 0.128353
H	 1.1690570992	-0.4394831923	 3.2783665228	 0.097295
H	-0.6595253523	-4.0625573592	 2.3552345594	 0.204836
119.7112	125.4156	147.2298	154.7465	188.5817	205.5135	252.4528	319.2463	363.3699	385.6079	459.495	521.7354	556.3408	573.1308	623.5581	679.1074	715.7972	751.088	841.6871	951.7533	959.2564	992.8765	1034.6201	1109.3495	1144.1266	1168.8218	1252.9643	1370.3277	1406.8694	1418.775	1423.7016	1474.699	1479.8785	1499.9563	1507.8219	1828.8804	2232.4261	2913.783	3040.6794	3046.2878	3100.911	3108.0137	3150.4844	3168.8605	3498.1544
CC1(C)OC1(C=O)C#C	CC1(C)O[C@]1(C=O)C#C	
InChI=1S/C7H8O2/c1-4-7(5-8)6(2,3)9-7/h1,5H,2-3H3	InChI=1S/C7H8O2/c1-4-7(5-8)6(2,3)9-7/h1,5H,2-3H3/t7-/m0/s1
