17
gdb 92433	2.73286	1.62636	1.51281	1.6072	67.7	-0.2332	-0.0336	0.1997	956.4911	0.136489	-458.96527	-458.957768	-458.956824	-458.997148	28.961	
C	-0.1834090341	 1.5412323965	-0.0254470784	-0.410115
C	 0.0124924038	 0.0385868454	 0.0454644057	 0.132499
O	 0.8241614584	-0.4146904194	-1.0915848513	-0.309754
C	 1.9364620533	-1.1502050971	-0.5670713419	-0.038009
C	 2.8529863511	-0.1712959901	 0.1615499736	-0.090157
O	 2.0617468258	 0.2209235376	 1.3226086361	-0.288404
C	 0.8175747347	-0.4864000485	 1.2441951658	-0.054407
C	 1.2802929194	-1.8266436458	 0.6503078369	 0.440124
O	 1.1612520155	-2.9640282612	 0.9940067583	-0.31389
H	 0.757534243	 2.0630043492	 0.1608647234	 0.137182
H	-0.554449925	 1.8176155544	-1.0162360772	 0.131594
H	-0.9166203218	 1.8649643525	 0.7205348943	 0.118533
H	-0.9574750276	-0.4766066611	-0.0043554124	 0.092934
H	 2.3758090273	-1.7807168283	-1.336033157	 0.108743
H	 3.7898383628	-0.6320519749	 0.4982095548	 0.117749
H	 3.0708622157	 0.7121732084	-0.4468182212	 0.118497
H	 0.3259225078	-0.4930376476	 2.2137796305	 0.106882
121.6342	152.9988	212.0307	258.0292	295.742	412.9506	435.4768	510.5872	565.7978	653.7595	750.0575	768.2132	817.9375	869.9174	883.5288	896.6928	944.1126	997.8462	1027.4058	1040.0064	1078.177	1089.5718	1137.5514	1149.7065	1176.9598	1204.3339	1240.6553	1292.1493	1298.3491	1336.9525	1372.1402	1383.8805	1405.2744	1483.7528	1494.1217	1508.1687	1908.1439	3003.4231	3026.1021	3045.6474	3081.7262	3115.5997	3139.0935	3161.3667	3164.0077
CC1OC2COC1C2=O	C[C@H]1O[C@H]2CO[C@@H]1C2=O	
InChI=1S/C6H8O3/c1-3-6-5(7)4(9-3)2-8-6/h3-4,6H,2H2,1H3	InChI=1S/C6H8O3/c1-3-6-5(7)4(9-3)2-8-6/h3-4,6H,2H2,1H3/t3-,4+,6+/m1/s1
