20
gdb 13502	2.92377	1.7399	1.22526	2.4233	71.24	-0.2438	0.0595	0.3033	1043.4864	0.175412	-386.123505	-386.1143	-386.113356	-386.157407	33.414	
C	-0.0944409573	 1.4512782021	-0.1756802466	-0.399126
C	-0.0030177799	-0.0662966908	 0.030109895	 0.033756
C	 0.8563685071	-0.4266145981	 1.2499671897	-0.400818
C	-1.4038192332	-0.6535345516	 0.1722962991	 0.135309
O	-2.2706147823	-0.3398714721	-0.9502813409	-0.295309
C	-2.4690622148	-1.7301491082	-1.2649157993	-0.096018
C	-1.6011932508	-2.1731363502	-0.0669616884	 0.037383
O	-0.4045127205	-2.8577231109	-0.3611218938	-0.419059
H	 0.8975273931	 1.8782735139	-0.3552062451	 0.106315
H	-0.7343518139	 1.689558396	-1.0288514818	 0.132734
H	-0.513311621	 1.9439332473	 0.7104364659	 0.105721
H	 0.4527375631	-0.5142162318	-0.860330116	 0.08454
H	 1.8621461143	-0.0059484819	 1.1499815447	 0.11015
H	 0.421148646	-0.020563975	 2.1715967429	 0.105279
H	 0.9499277129	-1.5096802569	 1.3597476382	 0.12879
H	-1.8584630405	-0.2984061887	 1.1091260434	 0.068282
H	-3.5286691835	-2.0137885917	-1.2337001972	 0.09549
H	-2.0438168417	-2.0035715161	-2.2392873154	 0.100375
H	-2.1601390784	-2.6774651249	 0.7304197162	 0.07648
H	-0.6104561787	-3.7877012904	-0.4955125307	 0.289726
57.8372	96.7503	170.689	215.2226	222.3294	240.5487	262.3744	322.7485	376.7077	425.1043	461.2117	551.2787	772.7689	807.7643	887.7426	900.8719	931.6765	953.989	980.1802	1026.8261	1033.9236	1066.3175	1117.2488	1144.3502	1160.6501	1184.9375	1194.6628	1228.3139	1283.6486	1308.3606	1314.4875	1339.2327	1350.3525	1394.3431	1401.5527	1419.3822	1435.5581	1489.3259	1495.3641	1503.2329	1513.634	1517.413	2988.0317	3006.7107	3025.1716	3026.1546	3028.9419	3047.0292	3057.6038	3088.1134	3095.4577	3122.7131	3123.9237	3825.9938
CC(C)C1OCC1O	CC(C)[C@H]1OC[C@H]1O	
InChI=1S/C6H12O2/c1-4(2)6-5(7)3-8-6/h4-7H,3H2,1-2H3	InChI=1S/C6H12O2/c1-4(2)6-5(7)3-8-6/h4-7H,3H2,1-2H3/t5-,6-/m1/s1
