13
gdb 129493	2.94946	1.58222	1.06276	4.8343	60.63	-0.2397	-0.0231	0.2166	1031.145	0.091036	-486.130351	-486.12265	-486.121706	-486.163092	28.017	
N	-0.0352356494	 1.3296592102	-0.2819648374	-0.559442
C	 0.1156475136	 0.0109549045	 0.08703708	 0.465311
O	 1.1455843981	-0.4894207358	 0.4489676777	-0.319259
N	-1.1181615348	-0.7009299087	 0.0559091635	-0.220529
C	-2.394761549	-0.1855147876	 0.2169575172	 0.050937
N	-3.3070993461	-1.0980955139	 0.2048315043	-0.211666
N	-2.6137199352	-2.2671049038	 0.0169134045	-0.316789
C	-1.2436717772	-2.1204099659	-0.0706831658	 0.499192
O	-0.3939105461	-2.953294788	-0.2422447009	-0.382727
H	 0.8399014508	 1.8265494845	-0.3557800635	 0.276749
H	-0.7244343576	 1.5653449392	-0.979176008	 0.266888
H	-2.5876441207	 0.8622107238	 0.3811971509	 0.16426
H	-3.1009006865	-3.1454137086	-0.0206241825	 0.287077
64.4097	122.8205	193.4249	220.523	368.9429	433.1921	445.3755	471.6941	551.0524	564.398	657.3272	694.2145	738.0283	765.2932	790.6745	846.2912	911.6489	1078.4612	1095.7682	1147.2186	1203.6637	1261.7926	1348.619	1371.9285	1392.1326	1621.6826	1626.5034	1826.6836	1900.5241	3276.7936	3579.6116	3692.8951	3696.8095
NC(=O)N1C=NNC1=O	NC(=O)n1cn[nH]c1=O	
InChI=1S/C3H4N4O2/c4-2(8)7-1-5-6-3(7)9/h1H,(H2,4,8)(H,6,9)	InChI=1S/C3H4N4O2/c4-2(8)7-1-5-6-3(7)9/h1H,(H2,4,8)(H,6,9)
