18
gdb 30582	6.35759	0.65302	0.59656	2.0812	93.31	-0.1945	0.0245	0.219	1858.8725	0.148754	-364.834106	-364.82513	-364.824186	-364.869345	32.662	
C	-0.0494769015	 1.5552796568	 0.0696511235	-0.362237
C	 0.0050598122	 0.0183455524	-0.0065501028	-0.325216
C	 0.6855368926	-0.4699616199	-1.2005543946	 0.202727
C	 1.2525649658	-0.8526544252	-2.1958416582	-0.122826
C	 1.9128232151	-1.3275023643	-3.3546606652	 0.173982
C	 2.4740761637	-0.5540561425	-4.357856156	-0.207105
N	 3.0095337849	-1.3972832513	-5.2906707921	-0.23198
C	 2.8082395836	-2.7036027965	-4.9148690771	-0.067661
C	 2.1328034668	-2.69655546	-3.7218698516	-0.276263
H	 0.9583947613	 1.979347696	 0.0792027292	 0.125895
H	-0.5799473658	 1.967987437	-0.792904584	 0.125889
H	-0.5673393662	 1.875320809	 0.9789533436	 0.110723
H	 0.5069509532	-0.3720541719	 0.8890792655	 0.124567
H	-1.0167720083	-0.383284049	 0.0253151762	 0.124564
H	 2.525815766	 0.5166532736	-4.4657999346	 0.121747
H	 3.4808549689	-1.1028376744	-6.1275509687	 0.264467
H	 3.1613694495	-3.5182140724	-5.5259930906	 0.120708
H	 1.8196252183	-3.5589025973	-3.1553184424	 0.098019
24.7518	72.8346	102.3653	185.047	216.6219	306.7364	411.317	466.8207	490.811	496.0757	569.6493	633.0973	663.6281	690.5155	776.1455	787.265	836.4441	864.678	903.3699	965.2266	1038.5704	1080.4015	1095.9587	1103.1674	1108.2295	1162.2047	1256.5119	1283.8636	1328.3257	1358.6437	1379.6415	1408.2839	1462.1514	1477.5731	1494.4372	1505.9228	1527.4173	1593.3836	2351.3561	3009.6605	3034.008	3042.4469	3115.0493	3121.3419	3256.3028	3272.6614	3276.8327	3687.5125
CCC#CC1=CNC=C1	CCC#Cc1c[nH]cc1	
InChI=1S/C8H9N/c1-2-3-4-8-5-6-9-7-8/h5-7,9H,2H2,1H3	InChI=1S/C8H9N/c1-2-3-4-8-5-6-9-7-8/h5-7,9H,2H2,1H3
