16
gdb 42197	2.92496	1.37127	1.03432	4.5215	76.59	-0.2788	-0.082	0.1968	1130.3772	0.124251	-400.745178	-400.737118	-400.736174	-400.77833	29.701	
O	 0.1035363402	 0.2069061605	 0.9718341185	-0.302916
C	-0.0467764215	 1.2176080938	 0.3197609466	 0.207683
C	 1.097556223	 1.7734168076	-0.4429236956	 0.223871
N	 1.9905676048	 2.2082113539	-1.0352466775	-0.323854
C	-1.3013679411	 1.9593545038	 0.1786749862	 0.238778
C	-2.4410089984	 1.7048491424	 1.1442131325	-0.313722
C	-2.6606132835	 1.3079220544	-0.2663461851	-0.065115
C	-2.9435130534	 2.5206201249	-1.1583544737	-0.224619
C	-1.5954031458	 3.1747005865	-0.7103613939	-0.322515
H	-2.2526760421	 0.895553021	 1.8404164948	 0.151823
H	-2.9530041307	 2.5706190737	 1.5576319428	 0.123492
H	-2.7824342996	 0.2690431733	-0.5472383643	 0.121553
H	-2.9523956077	 2.2771291345	-2.2216434239	 0.122182
H	-3.8581051936	 3.0694561608	-0.9152457989	 0.113399
H	-1.6628031143	 4.130736006	-0.1834122931	 0.113051
H	-0.8887330562	 3.2797869129	-1.5353100956	 0.136912
56.196	127.2646	156.7373	240.7498	278.0183	322.5092	401.8485	468.9858	494.2618	651.7841	710.3637	729.5935	786.3736	813.5033	842.7583	911.1483	933.8715	972.8535	998.5891	1022.8678	1082.8407	1093.2877	1111.1861	1159.4551	1224.3807	1232.9794	1253.2855	1290.3924	1320.0168	1389.8432	1475.6931	1482.7587	1503.4177	1753.2845	2336.4045	3058.3947	3065.0555	3115.7833	3116.2643	3132.447	3197.3226	3225.1386
O=C(C#N)C12CC1CC2	O=C(C#N)[C@]12C[C@H]1CC2	
InChI=1S/C7H7NO/c8-4-6(9)7-2-1-5(7)3-7/h5H,1-3H2	InChI=1S/C7H7NO/c8-4-6(9)7-2-1-5(7)3-7/h5H,1-3H2/t5-,7-/m1/s1
