13
gdb 33823	2.31154	1.60886	1.1182	5.3273	69.76	-0.3004	-0.05	0.2504	1051.4426	0.088714	-415.585488	-415.577854	-415.57691	-415.617908	27.856	
N	 0.0323293297	-1.16278046	 0.1010204819	-0.322895
C	 0.0598886925	-0.0095074083	 0.0280649494	 0.245083
C	 0.0538585853	 1.4127472413	-0.1144566215	 0.220817
C	-0.759059262	 2.2703390276	-1.0994108897	-0.294537
C	 0.4146113263	 3.3094696703	-1.1053519007	-0.294524
C	 1.1730455603	 2.4037047285	-0.1201091657	 0.220826
O	 0.3431727221	 2.2199909437	 1.0283387762	-0.276919
C	 2.5848788919	 2.2262397324	 0.0154038879	 0.245083
N	 3.7333720912	 2.1139731512	 0.0823696515	-0.322902
H	-0.897467747	 1.78522361	-2.0662024145	 0.146546
H	-1.7192018305	 2.6048283043	-0.7052129573	 0.143442
H	 0.9074407751	 3.3832568313	-2.0753251722	 0.146546
H	 0.2010882852	 4.3050152278	-0.7149250553	 0.143434
93.9197	150.598	177.5805	204.8089	309.7929	443.2418	462.0028	494.1175	566.8772	571.2099	641.8894	652.297	742.7461	776.6779	882.8245	937.2373	992.7385	1038.8886	1128.2845	1172.5759	1173.4923	1214.9268	1233.0395	1283.1002	1423.0545	1462.7906	1487.3668	2361.4649	2363.2354	3091.0224	3095.6242	3148.8938	3162.7875
N#CC12CCC1(O2)C#N	N#C[C@]12CC[C@]1(O2)C#N	
InChI=1S/C6H4N2O/c7-3-5-1-2-6(5,4-8)9-5/h1-2H2	InChI=1S/C6H4N2O/c7-3-5-1-2-6(5,4-8)9-5/h1-2H2/t5-,6+
