21
gdb 119405	3.97596	0.99765	0.94805	2.532	79.07	-0.2341	0.0796	0.3136	1337.8891	0.183089	-424.190748	-424.18223	-424.181286	-424.224345	32.435	
C	-0.0042103241	 1.3601655967	 0.0604008726	-0.219086
O	-0.0018153505	-0.0467952405	 0.0839828017	-0.240184
C	-1.2970900275	-0.6028951254	-0.0185407767	-0.194783
C	-1.181788285	-2.102554456	 0.0135858176	 0.293803
C	-0.7285554805	-2.9152730863	 1.2728053707	-0.261505
C	-1.3612314428	-4.0638815554	 0.4511208426	 0.10383
C	-2.4307799037	-3.0443529785	-0.0134656779	-0.287005
O	-0.4933756748	-4.1779495074	-0.687461344	-0.281678
C	-0.3173301619	-2.7907586984	-1.0567058528	-0.102998
H	 1.0334478169	 1.691435385	 0.1464396085	 0.128432
H	-0.4265820947	 1.752975037	-0.8783680793	 0.103849
H	-0.5830059003	 1.7820403826	 0.8975751188	 0.10372
H	-1.9349747092	-0.2493779397	 0.8099279664	 0.085332
H	-1.781292631	-0.2795251481	-0.9581399646	 0.085493
H	 0.3397547246	-2.9819280393	 1.4878893606	 0.105629
H	-1.295667147	-2.6515508451	 2.1677957696	 0.095785
H	-1.5873092305	-5.0536101421	 0.8438493482	 0.07803
H	-3.1630583308	-2.7970131743	 0.7578318581	 0.098531
H	-2.9183190246	-3.2328669938	-0.9734420453	 0.098672
H	-0.6809128062	-2.6216199695	-2.0780587687	 0.092925
H	 0.7382646837	-2.5093349613	-0.9988296061	 0.113209
71.2053	94.7182	127.3215	231.0432	296.9368	331.7506	342.5703	403.6261	478.506	519.1345	636.9716	725.8005	822.6577	855.4652	886.1156	914.7405	950.055	950.7043	967.3172	992.7057	1004.3095	1027.066	1045.9809	1120.8083	1126.6175	1154.6581	1167.6109	1179.8206	1197.1962	1209.2405	1227.1548	1228.1754	1244.4855	1270.7197	1296.5567	1317.4782	1377.8875	1422.4847	1473.8736	1480.6923	1486.1418	1500.8667	1506.8438	1522.2375	1534.1367	2936.2011	2966.207	2970.1551	3011.9298	3022.9682	3061.4794	3072.2708	3081.8786	3114.8421	3128.1955	3137.4865	3140.6793
COCC12CC(C1)OC2	COC[C@@]12C[C@@H](C1)OC2	
InChI=1S/C7H12O2/c1-8-4-7-2-6(3-7)9-5-7/h6H,2-5H2,1H3	InChI=1S/C7H12O2/c1-8-4-7-2-6(3-7)9-5-7/h6H,2-5H2,1H3/t6-,7+
