17
gdb 125664	2.42771	1.77674	1.03459	4.8047	83.43	-0.1848	-0.0142	0.1706	1117.2772	0.138221	-414.202342	-414.193986	-414.193042	-414.234836	32.414	
C	 0.112365215	 1.429468917	 0.0109235715	-0.448636
C	 0.0078339203	-0.0652108977	 0.0140663999	 0.312353
N	-0.0171564077	-0.6644797641	-1.1444917205	-0.260393
N	-0.1074729059	-2.0010020773	-1.1458812156	-0.2448
C	-0.2205499886	-2.7703216363	-0.0223810745	-0.068606
C	-0.1789295943	-2.2035626402	 1.2123755782	 0.214532
N	-0.2278763372	-2.9406135338	 2.4002873366	-0.595116
C	-0.0266792561	-0.7546397142	 1.3094028516	 0.179515
N	 0.0706101718	-0.058281819	 2.3971522531	-0.566325
H	 1.0082283887	 1.7475608313	 0.553635576	 0.142658
H	 0.1424033575	 1.803157735	-1.0136271276	 0.120048
H	-0.7341963346	 1.872186955	 0.5459005651	 0.138102
H	-0.1247690475	-2.4156859173	-2.0614488755	 0.272888
H	-0.336426929	-3.8351724421	-0.1910376638	 0.114475
H	-0.511759008	-3.9033697363	 2.2743720897	 0.242866
H	-0.8086840642	-2.4986730279	 3.1043771224	 0.247071
H	 0.1101816298	-0.6654167421	 3.2164866335	 0.199369
96.027	169.0628	261.2937	284.2636	300.1746	323.8609	348.4949	386.7213	474.257	493.4217	526.1183	564.2975	587.5419	696.3414	722.8386	776.856	834.0417	849.4709	888.06	951.7766	1001.7788	1057.2167	1081.5302	1143.2451	1238.4615	1276.4837	1331.2153	1376.4681	1409.6226	1445.7645	1464.9822	1470.3877	1531.9307	1605.5054	1622.1583	1648.3166	1691.6969	3044.2731	3097.4981	3146.1448	3189.1886	3462.5325	3514.4576	3617.5646	3668.4437
CC1=NNC=C(N)C1=N	CC1=NNCC(=C1[NH])N	
InChI=1S/C5H8N4/c1-3-5(7)4(6)2-8-9-3/h2H,1H3,(H2,6,9)(H2,7,8)	InChI=1S/C5H9N4/c1-3-5(7)4(6)2-8-9-3/h7-8H,2,6H2,1H3
