24
gdb 64272	2.70831	1.38594	1.23873	1.4014	87.91	-0.2129	0.073	0.2859	1174.5434	0.218785	-368.403525	-368.39462	-368.393675	-368.436295	36.129	
C	-0.0764282005	 1.5585264417	 0.0118806987	-0.418957
C	-0.0429743247	 0.0226630061	-0.005812229	 0.270764
C	-1.4875373673	-0.5118011022	 0.0353169517	-0.413976
C	 0.6984965347	-0.4656506153	-1.2672026605	-0.221987
C	 0.7672342481	-1.996968813	-1.3432622511	-0.247795
C	 1.1512918222	-2.6420604467	-0.0219709	 0.016455
C	 2.3922204241	-2.2719083797	 0.7044357494	-0.249325
N	 1.088091678	-1.8993122486	 1.2496213053	-0.101049
C	 0.7392569149	-0.4662882934	 1.2331543389	-0.1665
H	 0.930870107	 1.9806959392	-0.0746626367	 0.107783
H	-0.6746776604	 1.9467313906	-0.8200549239	 0.108559
H	-0.5185515927	 1.9343898379	 0.9416538141	 0.110329
H	-2.0285418859	-0.2551373404	-0.882589995	 0.105416
H	-1.5227235308	-1.5974767896	 0.1578093784	 0.125715
H	-2.0322860644	-0.0713422926	 0.8773470885	 0.110479
H	 0.2050479309	-0.0776663947	-2.1663392913	 0.091288
H	 1.7103067741	-0.0389358199	-1.2665110398	 0.091209
H	-0.213972297	-2.3836348837	-1.6410028383	 0.105213
H	 1.4653893158	-2.3116513145	-2.1284801602	 0.100293
H	 0.8066416634	-3.6706051118	 0.0806350585	 0.084275
H	 2.9506260803	-3.0158789661	 1.2683552119	 0.106426
H	 3.0090586081	-1.4802391296	 0.2789924545	 0.100674
H	 1.6569901727	 0.1296325742	 1.328507556	 0.088088
H	 0.1434144393	-0.2647965779	 2.1327039398	 0.096621
98.2414	184.3593	231.9194	251.3296	279.4736	301.7702	334.2269	378.901	399.5382	433.7877	472.235	505.0376	633.3352	730.4677	751.4606	783.368	882.0895	899.4526	920.5597	941.3604	949.4879	955.4748	986.4902	1010.2285	1028.4447	1069.8838	1096.7455	1116.6391	1118.0874	1166.9141	1171.9968	1195.9563	1224.4929	1254.5054	1296.1813	1315.7648	1332.3699	1348.9333	1377.2489	1388.1416	1397.5376	1420.2111	1424.231	1482.4114	1482.9887	1489.7765	1499.6201	1501.6307	1504.0644	1514.6101	1523.7259	3001.3142	3013.018	3021.3665	3028.0557	3031.7018	3035.2213	3050.417	3065.2084	3080.5161	3087.3561	3092.3339	3093.4851	3101.9238	3114.5877	3161.1306
CC1(C)CCC2CN2C1	CC1(C)CC[C@H]2CN2C1	
InChI=1S/C8H15N/c1-8(2)4-3-7-5-9(7)6-8/h7H,3-6H2,1-2H3	InChI=1S/C8H15N/c1-8(2)4-3-7-5-9(7)6-8/h7H,3-6H2,1-2H3/t7-,9?/m0/s1
