16
gdb 43308	2.90909	1.96027	1.4506	4.2752	73.29	-0.2378	-0.0381	0.1997	899.1698	0.126793	-400.742363	-400.735896	-400.734952	-400.773119	26.179	
O	-0.0266030878	-0.0024443814	 0.3156048951	-0.354887
C	-0.0739406799	 1.1827050678	 0.0856577341	 0.348314
C	-1.2834825438	 2.0406617385	-0.108689802	-0.175442
C	-0.9452494691	 3.3362375817	-0.058750967	-0.096554
C	 0.5455339337	 3.4560815782	 0.0205165469	-0.031548
C	 1.3540966177	 3.7300666856	 1.3149804427	-0.087751
C	 1.04750138	 2.7173646405	 2.3875742813	-0.295112
C	 1.8783048773	 2.3039519598	 1.2094492484	-0.0147
N	 1.0314624053	 2.0597919674	 0.0208416456	-0.115732
H	-2.2747756815	 1.6173064647	-0.2020779165	 0.126294
H	-1.6151353596	 4.1843145775	-0.1357077162	 0.121582
H	 0.9512637077	 4.0351511675	-0.8186575287	 0.106859
H	 1.9007312676	 4.6439274381	 1.5030682197	 0.103039
H	 1.6004497265	 2.8645955182	 3.3097802008	 0.12324
H	 0.0451631792	 2.3223358844	 2.5227697584	 0.12977
H	 2.8840800168	 1.9102478315	 1.2652295072	 0.112629
135.0045	194.6337	292.0338	371.4697	491.1138	530.5726	626.0121	709.8319	720.4565	749.1187	796.5629	822.9709	832.2466	857.0402	942.2245	956.0999	986.1833	995.1261	1020.8988	1053.6146	1061.742	1082.3016	1092.5283	1106.1564	1135.4141	1194.1335	1217.6919	1243.9194	1267.562	1314.9305	1341.8404	1362.1287	1482.3316	1628.3575	1821.167	3028.9528	3126.0756	3201.9554	3203.5745	3207.0248	3217.3419	3235.2018
O=C1C=CC2C3CC3N12	O=C1C=C[C@H]2[C@H]3C[C@H]3N12	
InChI=1S/C7H7NO/c9-7-2-1-5-4-3-6(4)8(5)7/h1-2,4-6H,3H2	InChI=1S/C7H7NO/c9-7-2-1-5-4-3-6(4)8(5)7/h1-2,4-6H,3H2/t4-,5+,6-/m1/s1
