23
gdb 122071	2.99758	0.661	0.56038	1.6044	89.09	-0.2581	0.0466	0.3047	2020.0461	0.203061	-388.2624	-388.251082	-388.250137	-388.299732	40.524	
C	-0.0259297858	 1.5692949506	-0.1700983101	-0.381366
C	 0.0247029698	 0.0424662183	-0.0703547699	-0.169257
C	 0.6713996828	-0.4543914397	 1.2281421675	-0.172954
C	 0.7125605168	-1.9844798297	 1.3209461909	-0.194185
C	 1.4717300235	-2.5299896308	 2.5530560151	-0.18929
C	 0.7804838899	-2.1767706464	 3.892664872	-0.052039
O	 1.4751535817	-2.6813012952	 5.0113764668	-0.422816
C	 1.6308293191	-3.9818582259	 2.4726605581	 0.291618
C	 1.7273311923	-5.1813311966	 2.4481170435	-0.45338
H	 0.9798190192	 2.0023775632	-0.1316022092	 0.114835
H	-0.4919115019	 1.893033464	-1.1058948373	 0.112902
H	-0.6023512413	 2.0014072205	 0.6555328046	 0.11475
H	-0.9923382394	-0.3644712509	-0.1459060573	 0.096976
H	 0.5775141045	-0.3645423866	-0.9271763369	 0.096928
H	 1.6938394055	-0.0573368951	 1.2989965339	 0.095838
H	 0.1222582291	-0.0340648524	 2.0800639193	 0.101653
H	-0.3082427985	-2.3878242512	 1.3266997794	 0.105656
H	 1.1918662834	-2.3864035531	 0.4208633319	 0.108687
H	 2.4735555663	-2.0790457429	 2.5784632038	 0.111023
H	 0.7540391189	-1.0909931215	 4.0158608447	 0.111165
H	-0.2601643531	-2.5387393635	 3.8584845799	 0.090298
H	 1.5708564441	-3.632399733	 4.8780301687	 0.284584
H	 1.8302485528	-6.2373396721	 2.3999687707	 0.198373
54.2839	68.7641	91.206	116.3511	139.6045	168.1213	226.934	244.9446	270.0389	306.9267	388.2201	415.4084	462.396	537.0342	595.1042	625.9172	652.212	733.3142	777.4339	824.2281	903.4207	910.8249	996.597	1019.3093	1032.7545	1062.1975	1073.5603	1088.2464	1131.3214	1157.9278	1211.9819	1238.3188	1274.7952	1297.7858	1332.2127	1334.656	1339.2216	1378.8546	1381.2886	1399.7179	1415.2101	1433.5318	1483.4044	1486.5409	1499.6713	1500.5013	1505.9362	1512.8318	2224.6348	2971.2622	3008.1216	3013.8822	3016.9489	3029.5838	3030.9509	3035.6916	3053.0436	3075.0075	3095.573	3097.1192	3102.8233	3502.0548	3775.538
CCCCC(CO)C#C	CCCC[C@@H](CO)C#C	
InChI=1S/C8H14O/c1-3-5-6-8(4-2)7-9/h2,8-9H,3,5-7H2,1H3	InChI=1S/C8H14O/c1-3-5-6-8(4-2)7-9/h2,8-9H,3,5-7H2,1H3/t8-/m0/s1
