19
gdb 89288	2.16	1.74354	1.15367	3.1752	75.33	-0.2368	-0.0218	0.215	1103.2748	0.157197	-423.020672	-423.011842	-423.010898	-423.05423	33.812	
C	 0.3359909854	 1.6274447175	-0.1190125945	-0.405442
C	 0.0309974959	 0.1409698407	-0.0008502832	 0.036704
C	 0.7049867925	-0.848670527	-1.0046335933	-0.319398
C	 1.2358996483	-1.702082514	 0.1828152782	 0.414928
O	 0.8429066531	-3.0396129882	 0.2637441214	-0.482148
C	 2.6802620375	-1.3432798048	 0.6453251789	-0.424555
C	 2.0650747706	-0.2684804166	 1.562585706	 0.430862
O	 2.5354128121	 0.5677661813	 2.2800799504	-0.309416
C	 0.6315941495	-0.668167326	 1.2017005893	-0.22997
H	 1.4129950584	 1.8230035331	-0.1272037291	 0.12473
H	-0.0862380271	 2.0328084481	-1.0449576111	 0.114599
H	-0.091174373	 2.1868125772	 0.7196446768	 0.127311
H	-1.0520707365	-0.0096399931	-0.0058190812	 0.090374
H	-0.0062690229	-1.3922031285	-1.6305317294	 0.106521
H	 1.4781311657	-0.4118829722	-1.6442858152	 0.09573
H	 1.2707549515	-3.5262104599	-0.4497953406	 0.280852
H	 3.104046164	-2.1550439022	 1.2477675148	 0.135719
H	 3.418856236	-1.0147302031	-0.0917414429	 0.116838
H	-0.037264371	-0.9266579622	 2.0233395149	 0.095759
50.3943	122.9963	221.3505	228.1558	252.1726	328.6423	350.9173	376.1908	403.7053	448.6744	560.9306	586.5405	601.1126	708.0676	798.6976	863.1842	873.3488	901.4341	934.4985	938.1613	991.0574	1011.6193	1076.0953	1095.6612	1106.3152	1129.5186	1159.8976	1179.385	1207.9668	1223.0286	1254.9825	1275.9722	1312.9187	1352.8615	1371.0873	1415.6795	1428.1509	1475.2811	1492.3599	1494.5024	1880.8163	3032.1555	3043.1114	3051.4427	3058.1597	3099.7997	3104.1243	3105.2629	3112.8857	3115.0284	3795.3343
CC1CC2(O)CC(=O)C12	C[C@H]1C[C@@]2(O)CC(=O)[C@@H]12	
InChI=1S/C7H10O2/c1-4-2-7(9)3-5(8)6(4)7/h4,6,9H,2-3H2,1H3	InChI=1S/C7H10O2/c1-4-2-7(9)3-5(8)6(4)7/h4,6,9H,2-3H2,1H3/t4-,6+,7+/m0/s1
