19
gdb 48627	3.33356	1.3578	1.18705	2.3078	75.6	-0.2479	-0.0277	0.2202	1079.0931	0.160432	-423.021233	-423.013438	-423.012494	-423.053795	30.002	
O	-0.1535865964	 0.0147676039	-0.2098486226	-0.250978
C	 0.0150564071	 1.1508918526	 0.1582176736	 0.062458
C	 1.313925807	 1.8919045443	 0.0652144181	 0.210633
C	 2.5919186941	 1.1714643214	-0.4375781744	-0.262119
C	 2.9907952103	 2.5549024468	-1.0241157666	-0.045418
C	 1.4784825485	 2.8715710727	-1.1493650657	-0.265554
C	 3.5767443522	 3.4143974155	 0.1012204033	-0.069035
O	 3.0096774965	 3.0815377481	 1.365364886	-0.258096
C	 1.6499730397	 2.6841526348	 1.3457108157	-0.119035
H	-0.8323928793	 1.7432065881	 0.5792098406	 0.070425
H	 3.2469954328	 0.7235991824	 0.3119723457	 0.111502
H	 2.3449288829	 0.4409129094	-1.2092534647	 0.119067
H	 3.6086721419	 2.6040260783	-1.9232800715	 0.072782
H	 1.0379597314	 2.4620206107	-2.0614520155	 0.113195
H	 1.154158555	 3.9078743014	-1.0107236734	 0.098378
H	 4.652763942	 3.2415123735	 0.2105747883	 0.111512
H	 3.4268232876	 4.4832271686	-0.1240419485	 0.091207
H	 0.9772650778	 3.5542272643	 1.431002328	 0.093689
H	 1.5117739488	 2.0647080433	 2.2397098635	 0.115385
62.0483	178.1351	183.4201	234.5718	319.0815	392.2663	407.0949	437.4558	580.4846	601.8393	726.9096	821.3978	862.7582	877.2904	890.9458	913.7429	925.2832	953.1492	999.0649	1016.5522	1052.5066	1075.6173	1104.2595	1132.3818	1161.6079	1195.5195	1223.9413	1239.4959	1247.595	1265.8756	1275.5523	1304.3604	1341.1428	1383.8047	1417.8859	1430.6471	1478.1771	1504.7405	1506.3794	1518.5425	1820.1205	2844.2734	2960.141	2971.0896	3046.3097	3051.9277	3064.2995	3078.0613	3088.6396	3111.7037	3141.4682
O=CC12CC(C1)COC2	O=C[C@@]12C[C@@H](C1)COC2	
InChI=1S/C7H10O2/c8-4-7-1-6(2-7)3-9-5-7/h4,6H,1-3,5H2	InChI=1S/C7H10O2/c8-4-7-1-6(2-7)3-9-5-7/h4,6H,1-3,5H2/t6-,7+
