15
gdb 108733	3.04498	1.24388	0.94318	3.109	68.09	-0.2459	-0.0696	0.1763	1184.6011	0.111975	-457.752604	-457.744763	-457.743819	-457.78534	28.994	
O	 0.1890675118	 1.3553858546	 0.0206144096	-0.39901
C	 0.0101096002	-0.0386052875	 0.1253709933	-0.1719
C	-1.4187669445	-0.4812129386	 0.1064052359	 0.290965
C	-2.5200027928	 0.2861677788	 0.0556400794	-0.321103
C	-3.7491483078	-0.5527809955	 0.0416618074	 0.416782
O	-4.8983848794	-0.1884275642	 0.0875945967	-0.318216
C	-3.2618916149	-2.0041242134	 0.0060170425	-0.092227
O	-2.4677365914	-2.2944157628	-1.1602620928	-0.245342
C	-1.8014071692	-1.9415029733	 0.0664459215	-0.073281
H	-0.1247082955	 1.6300244335	-0.8476324631	 0.292869
H	 0.561448902	-0.5895698583	-0.6567590352	 0.120428
H	 0.4688698315	-0.3356350731	 1.0784647697	 0.139807
H	-2.5502001652	 1.3667452345	 0.0198281946	 0.127446
H	-3.8753248768	-2.8115987972	 0.3917077851	 0.120895
H	-1.178408418	-2.7134612375	 0.5078299654	 0.111888
92.9074	142.9315	170.1112	203.1893	322.6473	345.0504	407.5812	450.9985	553.903	616.596	651.7293	757.2894	824.6279	844.5314	882.4601	899.0517	923.061	989.2441	1017.9402	1062.5342	1092.7987	1148.3789	1181.2822	1210.5182	1235.5282	1256.2598	1308.3956	1390.4428	1399.4747	1417.7719	1473.1714	1667.2468	1827.4261	2958.4779	3034.258	3164.8374	3182.5379	3231.601	3812.4439
OCC1=CC(=O)C2OC12	OCC1=CC(=O)[C@H]2O[C@@H]12	
InChI=1S/C6H6O3/c7-2-3-1-4(8)6-5(3)9-6/h1,5-7H,2H2	InChI=1S/C6H6O3/c7-2-3-1-4(8)6-5(3)9-6/h1,5-7H,2H2/t5-,6+/m0/s1
