19
gdb 95696	3.03665	1.25523	0.96666	4.7422	72.56	-0.2522	0.0036	0.2558	1230.881	0.159575	-460.196266	-460.187775	-460.186831	-460.229442	32.094	
C	-0.0473613173	 1.5999376198	 0.0776769982	-0.399487
C	-0.0415307053	 0.0809786816	-0.0303911271	 0.129827
C	 0.3960600839	-0.404986635	-1.4151487552	-0.203312
C	 0.4197105097	-1.922957907	-1.5658337457	-0.097019
O	 1.545620465	-2.5624252826	-0.9479114997	-0.216954
C	 1.6807833468	-2.6338822121	 0.3974559997	 0.401206
O	 2.5237160604	-3.3481851473	 0.8664109258	-0.313655
C	 0.7569980734	-1.7751193187	 1.271132312	-0.212944
O	 0.8243711786	-0.3947914898	 0.9941447686	-0.250004
H	 0.956755921	 1.9973443873	-0.0989649607	 0.131403
H	-0.7283415353	 2.0367302734	-0.6586213125	 0.116657
H	-0.3665349698	 1.9080665382	 1.0762586856	 0.128459
H	-1.0590699718	-0.3028529851	 0.1662311314	 0.066891
H	-0.3003452388	-0.0044952395	-2.1623999774	 0.106601
H	 1.3907810845	-0.0082836489	-1.649174236	 0.122923
H	-0.5129734902	-2.3707183724	-1.1976196797	 0.110372
H	 0.5176660868	-2.1926164457	-2.619542877	 0.129872
H	-0.2784148524	-2.1481123775	 1.2016584416	 0.107104
H	 1.104022771	-1.9197083287	 2.295477948	 0.142059
77.1209	133.4627	211.5235	233.6109	285.7213	313.423	323.0841	372.4825	454.821	493.2818	528.7186	590.2522	703.9563	776.5031	817.6817	889.6097	913.7305	977.1832	999.9177	1023.4229	1070.1567	1105.5787	1141.1936	1154.9232	1173.219	1226.0845	1247.4521	1298.7603	1316.358	1348.6758	1371.1209	1398.3014	1402.3972	1412.0369	1422.7066	1459.1462	1474.6631	1483.5604	1500.4169	1508.0398	1843.9278	2938.583	2971.2115	3022.0664	3031.673	3045.9646	3082.1911	3106.9136	3119.1482	3121.8514	3127.3689
CC1CCOC(=O)CO1	C[C@H]1CCOC(=O)CO1	
InChI=1S/C6H10O3/c1-5-2-3-8-6(7)4-9-5/h5H,2-4H2,1H3	InChI=1S/C6H10O3/c1-5-2-3-8-6(7)4-9-5/h5H,2-4H2,1H3/t5-/m0/s1
