13
gdb 7882	4.08758	1.84877	1.27328	3.192	66.03	-0.2259	-0.0532	0.1727	873.952	0.097313	-394.849437	-394.842204	-394.84126	-394.880794	26.969	
N	 0.1041819682	 1.3286183279	 0.0767627073	-0.596521
C	-0.0505284927	-0.0071911341	 0.0281044692	 0.386339
C	-1.1334590459	-0.823374297	 0.0128858149	-0.386688
C	-0.6693948453	-2.2140169157	-0.0089042418	 0.429843
O	-1.2881856818	-3.2517692297	-0.0328987402	-0.366668
N	 0.7522397231	-2.1489951674	 0.0027568973	-0.416615
C	 1.1949322615	-0.8474796251	 0.0050804963	 0.364283
N	 2.3554267783	-0.3236852633	-0.0152552989	-0.554729
H	 1.0437675805	 1.6809233737	-0.0251142579	 0.280647
H	-0.6709587652	 1.9534162127	-0.052243157	 0.268037
H	-2.1793821808	-0.5604098481	 0.0196334806	 0.110225
H	 1.3305453643	-2.9708857992	-0.0430191655	 0.259251
H	 3.1010249757	-1.0194290447	-0.0347088944	 0.222597
102.0716	176.8739	220.6406	297.6789	380.5141	384.2027	470.6277	553.6146	567.9363	607.8455	651.1192	737.6867	776.3403	808.2535	810.6955	864.9161	933.3772	1068.2326	1091.2768	1171.0011	1263.3338	1335.185	1362.1843	1436.4231	1608.5835	1703.6621	1756.378	1834.6964	3258.7435	3483.8913	3592.2941	3671.0503	3733.9281
NC1=CC(=O)NC1=N	NC1=C(NC(=O)[CH]1)[NH]	
InChI=1S/C4H5N3O/c5-2-1-3(8)7-4(2)6/h1H,(H4,5,6,7,8)	InChI=1S/C4H5N3O/c5-2-1-3(8)7-4(2)6/h1H,(H4,5,6,7,8)
