21
gdb 108067	2.65709	1.54146	1.14855	1.6881	82.5	-0.2204	0.0862	0.3066	1156.7672	0.181428	-387.038196	-387.02941	-387.028466	-387.071469	34.007	
C	-0.230360117	 1.5057528933	-0.1809009387	-0.373556
C	 0.1822304788	 0.0380765922	-0.0102587505	-0.311223
C	 0.7983547382	-0.5405365665	-1.2428184582	 0.457934
O	 1.9802226723	 0.0873451335	-1.76424897	-0.336162
C	 1.76120895	-0.6889160557	-2.9745534015	 0.0687
C	 2.0957356801	-2.1342744291	-2.5372852206	-0.28248
C	 0.8367975956	-2.0287722608	-1.668280419	 0.230557
C	 0.1286528181	-3.1409392066	-0.9546347555	-0.507689
C	 0.2608162054	-0.9378473116	-2.5834788482	-0.25079
H	 0.6282053437	 2.1115799331	-0.4816167855	 0.137597
H	-0.9988552555	 1.6090373292	-0.9537047904	 0.114282
H	-0.6300318493	 1.9111328163	 0.7533375092	 0.107451
H	 0.9044203468	-0.0525459711	 0.8118804491	 0.111799
H	-0.6848979962	-0.5699651753	 0.2713296437	 0.104465
H	 2.1620092052	-0.2220572486	-3.8718161913	 0.082764
H	 1.9516999607	-2.852550897	-3.3499545046	 0.097471
H	 3.0687896288	-2.2846654712	-2.057213471	 0.094566
H	 0.7461452685	-3.5508952725	-0.1466722731	 0.123763
H	-0.8131053395	-2.8019604059	-0.5103999856	 0.119309
H	-0.1102647449	-3.9628685935	-1.6394639003	 0.119459
H	-0.6916284696	-0.816823082	-3.0822979579	 0.091783
74.4564	142.1166	186.3454	195.2795	234.5715	268.9214	324.2979	388.9207	471.0524	532.3437	602.887	669.364	751.4014	782.8683	791.2555	807.2364	886.347	911.3883	919.1269	937.6867	966.4148	973.776	993.3574	1029.8299	1080.5143	1091.105	1120.3476	1149.7206	1159.5475	1176.8626	1231.0729	1240.5199	1271.9498	1311.0187	1343.1933	1366.4956	1406.4508	1417.7322	1446.3983	1465.9324	1484.9126	1489.0597	1494.399	1500.2475	1510.1669	3020.7834	3024.0733	3038.4316	3041.3147	3066.7663	3079.2488	3093.1472	3099.7759	3108.6365	3125.3245	3142.2293	3198.9273
CCC12OC3CC1(C)C23	CC[C@@]12O[C@H]3C[C@]1(C)[C@@H]23	
InChI=1S/C8H12O/c1-3-8-6-5(9-8)4-7(6,8)2/h5-6H,3-4H2,1-2H3	InChI=1S/C8H12O/c1-3-8-6-5(9-8)4-7(6,8)2/h5-6H,3-4H2,1-2H3/t5-,6-,7+,8-/m0/s1
