16
gdb 11279	4.81929	1.30012	1.11803	1.3638	76.57	-0.2373	-0.0283	0.209	1053.2856	0.130217	-346.586368	-346.578545	-346.577601	-346.618589	29.444	
O	-0.1142548566	 1.4574278783	-0.2098372214	-0.430794
C	 0.0528828123	 0.0640376983	 0.062000519	 0.104472
C	-1.2751261192	-0.7365906794	 0.1396264593	-0.249695
C	-1.384731433	-1.5251865847	-1.1862956785	-0.324304
C	 0.0271599372	-1.460375604	-1.752308513	 0.200875
C	 0.8079766039	-0.6279832233	-1.0444730212	-0.216084
C	 0.4009408852	-2.1979167923	-2.9017558597	 0.196949
C	 0.6711831565	-2.8473757405	-3.8803140484	-0.402018
H	-0.4175998471	 1.5384443124	-1.1212422262	 0.275461
H	 0.587509988	 0.0460692845	 1.0169182249	 0.088855
H	-1.2308678694	-1.4335513439	 0.9816737207	 0.110336
H	-2.115301348	-0.0611797291	 0.3162376727	 0.110387
H	-1.70720783	-2.5597538545	-1.033590439	 0.120357
H	-2.0975567139	-1.08483097	-1.8944410317	 0.116555
H	 1.8423000863	-0.4012761195	-1.2735686848	 0.103972
H	 0.925695028	-3.4129385725	-4.7422159126	 0.194676
90.0247	112.432	156.4032	281.9447	330.7204	391.5307	476.7892	516.3091	538.3427	561.851	611.9232	633.8847	754.2965	771.5449	855.857	890.7433	908.0001	965.7538	992.846	1055.2373	1070.2764	1145.7925	1168.3447	1230.7541	1262.146	1275.6038	1291.6873	1329.4348	1341.6754	1429.6092	1477.5361	1497.1469	1665.4801	2221.5619	3034.0176	3053.8362	3066.6427	3078.5951	3114.0626	3210.0914	3502.9182	3794.8982
OC1CCC(=C1)C#C	O[C@H]1CCC(=C1)C#C	
InChI=1S/C7H8O/c1-2-6-3-4-7(8)5-6/h1,5,7-8H,3-4H2	InChI=1S/C7H8O/c1-2-6-3-4-7(8)5-6/h1,5,7-8H,3-4H2/t7-/m0/s1
