19
gdb 97327	4.37623	0.69859	0.62871	2.2761	80.56	-0.2573	-0.0243	0.233	1792.6037	0.157214	-456.383962	-456.373645	-456.372701	-456.420008	36.338	
C	 0.2219727971	 1.6983707883	 0.7085002685	-0.313357
N	 0.2238765381	 0.3060610938	 1.1094337576	-0.232965
C	 0.1303742161	-0.5649225889	 0.1990915776	 0.115193
N	 0.1285054835	-1.9192666278	 0.5217201085	-0.342783
C	 0.041830078	-2.9292609339	-0.3993469879	 0.403366
O	-0.0403639215	-2.7324203824	-1.5996786679	-0.378649
C	 0.0524789771	-4.3601108083	 0.1565012429	 0.037508
C	-1.1966263758	-4.6494751775	 1.0034328379	-0.3949
O	 0.1366403141	-5.2548129706	-0.9186094889	-0.434358
H	 1.1432555211	 2.1792719329	 1.0562413269	 0.132676
H	 0.1380337841	 1.8487469731	-0.3788447767	 0.106759
H	-0.6102104894	 2.2176564007	 1.1971778048	 0.132429
H	 0.0461743705	-0.3803832662	-0.8753871608	 0.135335
H	 0.2116166474	-2.1380982581	 1.5044169998	 0.266084
H	 0.9465273879	-4.4654035488	 0.7934572378	 0.091714
H	-2.1015817008	-4.4860893222	 0.4110843273	 0.13335
H	-1.1751754196	-5.6957731882	 1.3173382131	 0.14009
H	-1.2443735555	-4.0223858367	 1.8997846579	 0.107572
H	 0.0678664976	-4.7018662191	-1.7145626984	 0.294935
48.0476	74.1845	114.1698	137.2655	211.7622	223.8535	233.9928	302.3349	341.3785	365.5273	388.0528	428.0543	467.8815	570.1198	637.5821	678.1924	756.3495	883.0286	942.8387	1005.7017	1043.192	1067.7837	1100.5981	1127.9472	1143.1041	1168.2037	1200.7171	1251.729	1285.3179	1360.5774	1363.5039	1404.5836	1437.9003	1447.3709	1479.8085	1482.271	1495.033	1500.3926	1533.9882	1757.2947	1782.0557	2967.2401	2983.1836	3039.6015	3065.8103	3081.0044	3101.2682	3113.2645	3130.3362	3613.2804	3670.184
CN=CNC(=O)C(C)O	CN=CNC(=O)[C@@H](C)O	
InChI=1S/C5H10N2O2/c1-4(8)5(9)7-3-6-2/h3-4,8H,1-2H3,(H,6,7,9)	InChI=1S/C5H10N2O2/c1-4(8)5(9)7-3-6-2/h3-4,8H,1-2H3,(H,6,7,9)/t4-/m1/s1
