15
gdb 130247	4.96901	1.1004	0.93928	2.2258	69.51	-0.225	0.0078	0.2328	1205.1134	0.114422	-450.10257	-450.094914	-450.09397	-450.135262	28.364	
N	 0.0485459499	 1.2798875608	 0.4744768923	-0.587445
C	-0.0405328268	-0.0354649047	 0.0953198704	 0.418477
N	-1.0888082994	-0.5355678973	-0.5196686181	-0.222699
O	-0.7466745853	-1.9146771377	-0.6251482113	-0.217236
C	 0.4611074381	-2.0381968206	-0.0730772066	 0.503843
N	 0.9607412735	-0.9298640007	 0.3980587758	-0.388283
N	 1.0590352219	-3.2695677013	-0.1287605475	-0.160473
C	 1.7231822307	-3.8169136595	 1.0451503673	-0.216519
C	 0.4613131545	-4.4288253052	 0.5307622769	-0.228818
H	 0.9956778665	 1.6196874225	 0.5437381462	 0.265533
H	-0.5752251669	 1.9020861638	-0.0175655415	 0.265307
H	 2.6778917554	-4.2937993409	 0.8491606973	 0.136031
H	 1.6702124549	-3.2319839945	 1.9584123379	 0.148416
H	-0.4502190645	-4.2645030866	 1.0979060015	 0.145436
H	 0.4926451075	-5.3483570183	-0.0441688805	 0.138429
56.7234	137.4479	183.1728	271.5399	330.9783	380.941	407.2941	536.9449	568.3872	584.3556	729.1408	752.89	795.4784	817.3186	912.9031	916.4258	948.8462	1025.8842	1044.812	1074.0734	1128.227	1134.0488	1140.1162	1174.8051	1184.1863	1261.1559	1384.0293	1468.2345	1497.1991	1523.5753	1595.6042	1641.4469	1657.1014	3124.2052	3128.2289	3211.6438	3224.8243	3581.2423	3690.2239
NC1=NOC(=N1)N1CC1	Nc1noc(n1)N1CC1	
InChI=1S/C4H6N4O/c5-3-6-4(9-7-3)8-1-2-8/h1-2H2,(H2,5,7)	InChI=1S/C4H6N4O/c5-3-6-4(9-7-3)8-1-2-8/h1-2H2,(H2,5,7)
