18
gdb 101288	2.40015	1.18957	1.02411	3.8589	72.89	-0.2682	-0.0028	0.2654	1252.641	0.144985	-439.057011	-439.047197	-439.046253	-439.093162	34.136	
C	-1.1385242232	 1.9225470273	-0.1445929498	-0.234834
O	-1.0673741663	 0.7744869838	 0.6737753314	-0.250607
C	-1.354616331	-0.4480188414	 0.0130736132	 0.086319
C	-0.2401877827	-0.9306666724	-0.9153698911	-0.432031
C	-1.7141796607	-1.4027125751	 1.1443531978	 0.055968
O	-1.3615401185	-2.7782100261	 1.0440454859	-0.229904
C	-0.7510126603	-2.0115180076	 2.086215852	-0.085522
C	 0.6796686891	-1.8084616403	 2.0275413152	 0.320059
N	 1.8264955843	-1.666171901	 2.0474773482	-0.334569
H	-1.0081075895	 2.7871095419	 0.5102186518	 0.134521
H	-0.3510174575	 1.9422310986	-0.9101254101	 0.117226
H	-2.1152732907	 2.0005736261	-0.6469955086	 0.10566
H	-2.2726795654	-0.3228421555	-0.5875810229	 0.075957
H	-0.4673459411	-1.9345232509	-1.2823657449	 0.137573
H	-0.1557544644	-0.2651210076	-1.7783084398	 0.118306
H	 0.7235008952	-0.955664353	-0.4039808191	 0.159664
H	-2.7057800001	-1.2287066888	 1.5636812647	 0.113373
H	-1.1040424672	-2.246976228	 3.0892714262	 0.142841
18.6857	78.2383	134.2644	172.5988	193.3965	221.9374	245.9741	273.1418	335.1044	414.4623	460.8053	515.5205	577.0158	694.4002	766.656	837.3691	868.0394	947.1525	985.8271	1058.1356	1075.7076	1086.5138	1146.1894	1152.1549	1170.2786	1181.237	1223.6336	1298.6126	1367.1594	1386.2516	1388.6791	1409.1694	1459.0049	1476.4529	1483.5373	1496.3785	1504.8015	1513.3924	2360.7422	2946.8242	2982.3597	3039.7943	3060.0996	3107.3578	3119.4641	3126.5877	3128.2811	3151.7746
COC(C)C1OC1C#N	CO[C@@H](C)[C@H]1O[C@H]1C#N	
InChI=1S/C6H9NO2/c1-4(8-2)6-5(3-7)9-6/h4-6H,1-2H3	InChI=1S/C6H9NO2/c1-4(8-2)6-5(3-7)9-6/h4-6H,1-2H3/t4-,5-,6+/m0/s1
