17
gdb 15865	2.56241	2.08445	1.35133	3.619	68.04	-0.2763	0.0223	0.2986	937.8222	0.142086	-363.871888	-363.863753	-363.862808	-363.904289	30.183	
C	-0.0145813205	 1.5755775465	-0.1300156235	-0.416896
C	 0.0588640458	 0.0648513142	 0.012405715	 0.032365
C	 0.9852889763	-0.7478114678	-0.9326115007	-0.281422
C	 1.3083705737	-1.6957023646	 0.2488310952	 0.166201
O	 2.5755507451	-2.2472433812	 0.40377247	-0.421447
C	 0.8106298548	-0.5692934365	 1.2413129571	-0.238087
C	 1.9298821714	 0.2219679348	 1.7199062074	 0.277385
N	 2.8640181823	 0.8190473929	 2.052961414	-0.339767
H	 0.9799946291	 2.028718021	-0.0770381825	 0.139377
H	-0.4588616483	 1.8456627132	-1.093681402	 0.122748
H	-0.6295199162	 2.0219355131	 0.658546744	 0.124397
H	-0.9486463853	-0.3626197706	-0.0005386113	 0.091214
H	 0.5541971238	-1.1844091012	-1.8355245603	 0.110032
H	 1.8698107754	-0.1626097076	-1.208534352	 0.112488
H	 0.6036008128	-2.5302744453	 0.2885221813	 0.106407
H	 3.2201533703	-1.5312656036	 0.4654696322	 0.29535
H	 0.2005613295	-0.8915085373	 2.0881078462	 0.119654
98.7374	128.942	162.4873	223.8018	289.9584	361.2009	396.4317	410.5064	444.1812	504.0787	629.0335	668.8365	761.387	810.1347	877.8617	937.2019	960.9685	981.4607	1056.8878	1087.5107	1123.6586	1137.2406	1173.1456	1204.9781	1249.8459	1252.0221	1268.8639	1335.9023	1343.0405	1371.0764	1418.7577	1446.7619	1487.1671	1495.5197	1498.9866	2340.3284	3035.0766	3048.5899	3057.6336	3081.5378	3092.288	3101.6261	3112.6792	3120.415	3779.7491
CC1CC(O)C1C#N	C[C@H]1C[C@@H](O)[C@H]1C#N	
InChI=1S/C6H9NO/c1-4-2-6(8)5(4)3-7/h4-6,8H,2H2,1H3	InChI=1S/C6H9NO/c1-4-2-6(8)5(4)3-7/h4-6,8H,2H2,1H3/t4-,5-,6+/m0/s1
