12
gdb 45407	2.3331	1.82983	1.28303	4.8339	59.77	-0.2927	-0.0573	0.2354	945.3563	0.077312	-472.612075	-472.604991	-472.604047	-472.643983	25.536	
O	-0.1084704785	 0.0404867057	-0.455628623	-0.289483
C	-0.059097049	 1.1602522324	-0.0858119452	 0.443399
O	-1.040670171	 1.9137695901	 0.5258829133	-0.249314
C	-0.2056327442	 3.0993544205	 0.6108641145	 0.016013
C	 0.6449676764	 3.1283014561	 1.8823870501	-0.106972
O	 1.6747001639	 2.3120193274	 1.2503738547	-0.306679
C	 0.9801921065	 2.3202591915	-0.0096683309	 0.135619
C	 1.7811736638	 2.6671119671	-1.1597798801	 0.24122
N	 2.3968194907	 2.9487122435	-2.0958610048	-0.315242
H	-0.6925663485	 3.9824530229	 0.2081581718	 0.143846
H	 1.0408694726	 4.1152390654	 2.140541798	 0.141522
H	 0.2024904874	 2.6444889774	 2.7564045118	 0.14607
123.4651	131.8617	182.2715	252.0271	359.0383	406.4606	509.9868	553.6613	644.2849	679.3001	749.5981	852.2197	887.2106	960.743	977.8004	993.0138	1050.1788	1068.302	1102.3166	1156.5382	1178.5866	1274.3066	1320.7431	1342.0577	1498.7683	1962.8753	2363.6766	3057.0368	3123.1145	3174.3993
O=C1OC2COC12C#N	O=C1O[C@H]2CO[C@@]12C#N	
InChI=1S/C5H3NO3/c6-2-5-3(1-8-5)9-4(5)7/h3H,1H2	InChI=1S/C5H3NO3/c6-2-5-3(1-8-5)9-4(5)7/h3H,1H2/t3-,5+/m0/s1
