18
gdb 16555	2.99193	2.64542	2.15595	1.557	70.4	-0.2339	0.0128	0.2467	745.4598	0.157693	-347.818347	-347.812335	-347.811391	-347.847985	25.465	
C	-0.008033425	 1.521472311	 0.1303913283	-0.203504
C	 1.4176875254	 2.1037061556	-0.0219136351	-0.198462
C	 2.1784013558	 1.3757760558	-1.1522605966	 0.038921
O	 2.2157448927	-0.0123087919	-0.8022969185	-0.257192
C	 0.9048526551	-0.4722645791	-1.1496553425	 0.038933
C	-0.0446960093	-0.0184108475	-0.0188988801	-0.19846
C	 0.6245907431	 0.2745213647	-2.4472998766	-0.080068
C	 1.3791098233	 1.3693000871	-2.4488717821	-0.080057
H	-0.4302459387	 1.8137953082	 1.0971662992	 0.093453
H	-0.653432764	 1.9651420074	-0.6339445448	 0.103228
H	 1.3696080367	 3.1832814335	-0.2076380966	 0.089989
H	 1.9923614006	 1.9567445581	 0.8993843657	 0.104618
H	 3.2067153892	 1.736132832	-1.2489908046	 0.075838
H	 0.9340802112	-1.561677846	-1.2443529616	 0.075839
H	 0.2984827153	-0.5013314774	 0.9028680483	 0.104617
H	-1.0708923619	-0.3582129492	-0.2025937595	 0.089987
H	-0.1224103468	-0.0196933052	-3.1731959135	 0.10116
H	 1.3871774873	 2.1706985129	-3.1763284893	 0.10116
253.2792	260.1099	357.2921	408.9944	441.3781	601.7174	607.0292	724.2481	762.0374	821.1739	821.784	837.4147	887.4605	888.9285	917.5115	929.6714	955.3649	980.8022	1023.2419	1052.8693	1072.7599	1082.1906	1134.9918	1165.0377	1203.1892	1259.8558	1290.6845	1292.1754	1323.3082	1332.9896	1361.107	1370.2431	1378.4912	1386.2167	1473.6545	1479.8291	1497.1788	1664.5216	3029.6511	3031.0909	3049.628	3066.5036	3067.5373	3070.8979	3074.3583	3091.8342	3205.5346	3231.2884
C1CC2OC(C1)C=C2	C1C[C@H]2O[C@@H](C1)C=C2	
InChI=1S/C7H10O/c1-2-6-4-5-7(3-1)8-6/h4-7H,1-3H2	InChI=1S/C7H10O/c1-2-6-4-5-7(3-1)8-6/h4-7H,1-3H2/t6-,7+
