15
gdb 25526	4.47177	0.88805	0.80051	2.3948	71.62	-0.1998	-0.0327	0.167	1375.1159	0.111593	-453.976061	-453.967468	-453.966524	-454.010781	30.232	
N	-0.1687371312	 1.2739916469	-0.0675738554	-0.601523
C	-0.0905484238	 0.0115318521	-0.0258988426	 0.46296
N	-1.13811648	-0.8796425315	 0.0691938609	-0.32691
C	-0.651851101	-2.1830773327	 0.1053783469	-0.185407
C	 0.6830220868	-2.1079119713	 0.0245142572	 0.311916
C	 1.7709846422	-3.1156875173	-0.0332020338	-0.389881
C	 2.3370563088	-3.2755257385	-1.4437048593	 0.160388
O	 2.5853844198	-4.3375267047	-1.9481231546	-0.229906
O	 1.0544522316	-0.7682053814	-0.0636651891	-0.249867
H	 0.7537441706	 1.6942518824	-0.1345798052	 0.22688
H	-2.09068029	-0.5799538864	 0.1678247948	 0.279173
H	-1.2971893357	-3.0411222092	 0.1808768299	 0.156365
H	 2.5971355803	-2.8016832091	 0.6213946115	 0.146331
H	 1.4192039746	-4.0910745688	 0.3104900312	 0.141355
H	 2.5055569368	-2.3176389406	-1.9822491424	 0.098125
41.0257	61.0278	121.4991	148.3786	253.9267	313.4248	400.7834	433.2044	483.6345	610.6654	669.4664	711.5634	737.9789	746.0316	768.7563	808.7212	931.8475	962.5911	1018.9067	1047.251	1051.8385	1096.3822	1180.9329	1232.8507	1251.7842	1316.7724	1375.0959	1410.2541	1419.5666	1439.3782	1722.3346	1797.9024	1837.5068	2900.7047	3012.6717	3117.3888	3290.2268	3548.7872	3710.7144
N=C1NC=C(CC=O)O1	[NH][C@@H]1NC=C(CC=O)O1	
InChI=1S/C5H6N2O2/c6-5-7-3-4(9-5)1-2-8/h2-3H,1H2,(H2,6,7)	InChI=1S/C5H7N2O2/c6-5-7-3-4(9-5)1-2-8/h2-3,5-7H,1H2/t5-/m1/s1
