15
gdb 67852	2.51798	1.71413	1.3812	4.575	69.4	-0.2647	-0.0078	0.2568	967.2557	0.113192	-416.819124	-416.811523	-416.810579	-416.851204	28.406	
C	-0.0196731113	 1.5181725251	-0.0396393267	-0.475363
C	-0.022324337	 0.0195848036	 0.0813174495	 0.299281
N	-1.2709895061	-0.6608845986	-0.1862763668	-0.281586
C	-1.2870209367	-1.6827303773	 0.57001022	 0.096693
O	-0.2388469964	-1.8807079142	 1.4172341834	-0.196589
C	 0.6550315024	-0.8269692382	 1.1383404582	 0.022373
C	 1.2429889763	-0.7917691921	-0.2663830973	-0.300983
C	 1.2073812249	-1.93930979	-1.1227827914	 0.33184
N	 1.1790622558	-2.8704973469	-1.8084083102	-0.342432
H	 0.9496802578	 1.9366626576	 0.2451593919	 0.121978
H	-0.2352544914	 1.81380675	-1.0703546625	 0.149295
H	-0.788206807	 1.9517407876	 0.6068812119	 0.139193
H	-2.0621104784	-2.4359856746	 0.6203572483	 0.162451
H	 1.2324793368	-0.5089371654	 1.9964409055	 0.133356
H	 2.1458278603	-0.1945704065	-0.3465623538	 0.140493
119.6842	139.4014	191.8111	235.0167	312.8386	356.1012	398.6722	510.6172	602.5179	649.7998	699.2153	759.2045	765.0787	865.4451	902.4487	936.683	949.6052	974.4982	1023.4489	1071.2167	1104.326	1110.831	1119.5365	1235.3288	1252.7036	1308.8436	1348.9847	1412.4921	1430.5194	1479.3994	1496.4685	1663.6062	2355.1565	3044.4953	3118.0226	3121.5166	3166.8408	3205.1472	3247.9201
CC12N=COC1C2C#N	C[C@]12N=CO[C@H]1[C@H]2C#N	
InChI=1S/C6H6N2O/c1-6-4(2-7)5(6)9-3-8-6/h3-5H,1H3	InChI=1S/C6H6N2O/c1-6-4(2-7)5(6)9-3-8-6/h3-5H,1H3/t4-,5+,6-/m1/s1
