21
gdb 88433	2.77724	1.14943	1.01421	2.2523	79.62	-0.2387	0.0716	0.3102	1285.1218	0.180503	-424.187363	-424.177627	-424.176683	-424.221757	37.383	
C	-0.3396124133	 1.5424275599	 0.0366118382	-0.42203
C	-0.0169541697	 0.0623626034	 0.0650468909	-0.007725
C	 1.3636114388	-0.4487668709	-0.2776636309	-0.305553
C	 0.8362999175	-0.6011932477	 1.1272090059	-0.044781
C	 1.4708818364	 0.1214922669	 2.2809682418	 0.35549
O	 2.220505669	 1.2723328288	 1.9769721933	-0.467164
C	 0.7875589188	 0.1034112354	 3.6401013429	-0.397107
C	 2.0605786939	-0.6847443105	 3.4015713924	 0.070289
O	 2.0084012838	-2.0769667357	 3.3077803794	-0.418353
H	 0.550074172	 2.1562034328	 0.2005431036	 0.110879
H	-0.7449643565	 1.827808624	-0.940518631	 0.117845
H	-1.0875393306	 1.8119430396	 0.7919316567	 0.112137
H	-0.8400770862	-0.5582132135	-0.2823233509	 0.079716
H	 1.4686320058	-1.3342433907	-0.8949003557	 0.105651
H	 2.1372394554	 0.298086774	-0.4199314098	 0.122477
H	 0.526864616	-1.6020197542	 1.4078039226	 0.095149
H	 1.6191425003	 2.023807381	 1.9821631593	 0.28328
H	 0.8478707324	 0.9940256462	 4.2571091539	 0.10848
H	-0.1364179958	-0.4599400204	 3.7207629483	 0.114519
H	 2.9766623612	-0.2764109901	 3.8262841005	 0.097721
H	 1.8109263207	-2.4250530681	 4.1833651086	 0.289082
48.0371	132.9151	185.3335	205.264	237.2992	254.4194	294.6181	345.9609	366.1472	379.5519	459.2818	473.6882	487.9925	600.0319	702.4184	773.767	817.4627	855.3619	880.2488	919.9303	931.0414	940.8413	989.5759	1025.5876	1039.9509	1072.7414	1077.2194	1094.5344	1125.5257	1150.5736	1170.4741	1200.1628	1226.4783	1247.74	1266.6473	1310.5126	1344.9645	1395.7405	1406.4993	1420.7698	1428.3082	1478.3392	1498.201	1507.2806	1508.2241	3026.8685	3080.9721	3105.6604	3114.0154	3125.2262	3128.825	3134.2335	3171.2337	3219.6998	3222.4279	3808.4232	3816.5173
CC1CC1C1(O)CC1O	C[C@H]1C[C@H]1[C@@]1(O)C[C@H]1O	
InChI=1S/C7H12O2/c1-4-2-5(4)7(9)3-6(7)8/h4-6,8-9H,2-3H2,1H3	InChI=1S/C7H12O2/c1-4-2-5(4)7(9)3-6(7)8/h4-6,8-9H,2-3H2,1H3/t4-,5+,6+,7-/m0/s1
