14
gdb 24502	4.08767	1.68811	1.19472	3.7194	75.99	-0.2385	-0.0301	0.2084	942.9157	0.106675	-395.819976	-395.814103	-395.813158	-395.850059	23.778	
N	-0.0223596618	 1.3627862129	 0.0099295707	-0.386613
C	 1.2876508028	 1.7676618771	-0.0006445798	 0.020423
N	 2.1470264326	 0.7822030945	-0.0144226897	-0.333088
C	 1.3637232442	-0.3607410747	-0.0129482418	 0.303185
C	-0.0061574943	-0.019440371	 0.0023126508	 0.268078
C	-0.9882612632	-1.0061984032	 0.0065804576	-0.085212
N	-0.6516584484	-2.2915295369	-0.0036803709	-0.281452
C	 0.656729978	-2.6209174798	-0.0182833876	 0.007707
C	 1.7065898959	-1.7136108691	-0.0236459458	-0.248756
H	-0.8319089149	 1.9598598179	 0.0212001671	 0.273259
H	 1.5466941789	 2.8176465661	 0.0025106617	 0.142474
H	-2.0497511338	-0.7673459323	 0.0182768056	 0.10278
H	 0.8653339275	-3.6872239584	-0.026112212	 0.107077
H	 2.7405607965	-2.0369438329	-0.0355301059	 0.110135
226.8806	254.7333	416.9102	430.7527	464.7677	562.0117	625.5191	639.0457	656.4103	807.4388	814.5638	856.1953	885.1506	893.5272	936.3233	948.4764	981.4002	1047.4156	1105.9886	1188.4699	1212.2735	1287.0885	1298.1815	1328.7727	1356.8143	1407.157	1475.284	1502.8995	1527.9207	1609.6627	1650.8059	3143.0018	3164.6436	3208.8145	3239.786	3669.6132
N1C=NC2=C1C=NC=C2	[nH]1cnc2c1cncc2	
InChI=1S/C6H5N3/c1-2-7-3-6-5(1)8-4-9-6/h1-4H,(H,8,9)	InChI=1S/C6H5N3/c1-2-7-3-6-5(1)8-4-9-6/h1-4H,(H,8,9)
