16
gdb 45339	2.52396	1.78237	1.18418	4.8309	70.57	-0.2487	-0.0352	0.2135	1015.2529	0.125313	-437.909719	-437.902353	-437.901409	-437.942232	27.896	
N	 0.0741390171	 1.2287192941	 0.1963711971	-0.523638
C	 0.0502647813	-0.031146218	 0.1959372648	 0.397918
O	 1.1314026594	-0.8371059107	 0.436912532	-0.237684
C	 0.8491248627	-2.207510204	 0.1152468215	-0.107867
C	-0.6725044785	-2.3421110925	 0.1336249444	-0.043642
C	-1.3523872421	-2.4401282847	 1.5357592556	-0.365832
C	-2.026019369	-1.0875803818	 1.2537889965	 0.420749
O	-2.9227032279	-0.4836896633	 1.7544933422	-0.275946
C	-1.1858867681	-0.8792019115	-0.032963955	-0.238886
H	 1.0200216928	 1.5738347311	 0.3672515791	 0.227629
H	 1.2640028023	-2.4319663933	-0.8748914656	 0.117956
H	 1.353567722	-2.8339848644	 0.8563022719	 0.124415
H	-1.0440241242	-3.0685723369	-0.5878196962	 0.097113
H	-2.0411544578	-3.2723380723	 1.6999416521	 0.138629
H	-0.6517168917	-2.3966524352	 2.3767907861	 0.141696
H	-1.7382324283	-0.5609934166	-0.9167940667	 0.127392
57.4403	125.4216	159.3502	323.023	416.6767	442.6347	469.0919	573.4214	626.5475	702.7612	742.2381	757.3058	831.0419	876.6202	887.5362	928.7896	956.8005	986.4363	1024.1958	1048.1919	1070.0102	1107.6715	1139.4772	1179.1721	1191.7643	1227.0124	1236.0979	1247.5207	1289.0891	1327.0595	1401.7855	1436.0717	1521.0504	1766.3803	1907.7327	3031.1889	3054.3541	3091.8687	3112.6627	3124.1566	3130.5695	3477.9128
N=C1OCC2CC(=O)C12	[NH][C]1OC[C@H]2CC(=O)[C@@H]12	
InChI=1S/C6H7NO2/c7-6-5-3(2-9-6)1-4(5)8/h3,5,7H,1-2H2	InChI=1S/C6H7NO2/c7-6-5-3(2-9-6)1-4(5)8/h3,5,7H,1-2H2/t3-,5+/m1/s1
