20
gdb 74639	4.19828	1.29519	1.19165	2.5129	86.02	-0.2136	0.0095	0.2231	1114.1423	0.172724	-365.920776	-365.913457	-365.912513	-365.952093	30.355	
C	-0.1193063177	 1.4997422372	 0.0628295808	-0.4887
C	 0.0351201819	 0.013470868	-0.01738267	 0.358907
C	 0.0092546214	-0.7352658083	-1.1386494303	-0.27418
C	 0.0078713504	-2.1891538083	-0.7573761741	 0.039713
N	 1.1085172983	-3.3240573981	-0.8422596595	-0.183864
C	 1.9913816378	-2.3260742523	-0.0904582338	-0.185563
C	 0.6327772655	-2.1345385295	 0.6298574126	 0.291747
C	 0.5776537635	-3.6874530246	 0.5719487927	-0.258516
C	 0.2200404758	-0.8199673787	 1.2725678735	-0.459189
H	 0.7606025158	 1.9643740381	 0.5257978783	 0.12785
H	-0.261125296	 1.9464317391	-0.9249579411	 0.125728
H	-0.9784283117	 1.7736969419	 0.6886526151	 0.127722
H	-0.152983878	-0.3323268597	-2.1325911116	 0.090275
H	-0.9811263077	-2.6477265107	-0.8769234892	 0.075903
H	 2.7988872086	-2.8052022329	 0.4709155319	 0.089668
H	 2.368825712	-1.5134653439	-0.7128903095	 0.10446
H	-0.4049228414	-4.1666538458	 0.5652549923	 0.101463
H	 1.3027289162	-4.2631006655	 1.1533186658	 0.100228
H	 0.9725948578	-0.3854835096	 1.9406834875	 0.105443
H	-0.7226965126	-0.8726368363	 1.8344801288	 0.110904
142.4283	184.8615	268.7163	307.7817	378.1456	432.0927	467.8873	483.2483	600.3751	684.119	716.0157	758.5642	811.1485	821.3526	858.3266	888.2624	906.5362	924.9584	983.257	995.9105	1009.5573	1026.1654	1041.8345	1079.8148	1098.1207	1123.447	1150.2386	1164.5358	1192.5154	1207.6637	1218.0218	1234.8358	1274.0353	1304.2232	1320.8883	1363.3656	1412.0404	1471.1414	1477.9938	1484.2531	1508.5913	1545.7201	1655.9926	3013.6152	3018.2892	3026.8242	3050.0494	3057.407	3060.7343	3063.7448	3111.3009	3120.8148	3128.9743	3186.2429
CC1=CC2N3CC2(C3)C1	CC1=C[C@H]2N3C[C@@]2(C3)C1	
InChI=1S/C8H11N/c1-6-2-7-8(3-6)4-9(7)5-8/h2,7H,3-5H2,1H3	InChI=1S/C8H11N/c1-6-2-7-8(3-6)4-9(7)5-8/h2,7H,3-5H2,1H3/t7-/m1/s1
