19
gdb 118810	2.51893	1.05431	0.84382	1.9629	79.54	-0.2438	0.0481	0.2919	1414.9445	0.155705	-422.963657	-422.953584	-422.95264	-422.998873	36.784	
C	-0.1363611024	 1.3364976166	 0.1118345908	-0.227275
O	-0.2020450585	-0.0533947696	-0.1114906128	-0.253223
C	 0.7427233037	-0.5123495818	-1.0642792086	-0.138934
C	 0.6604807089	-2.0169256189	-1.0481127162	 0.417527
O	 0.8874041734	-2.5623705171	 0.2176218127	-0.475154
C	-0.2830925013	-2.7393062457	-1.9686285802	-0.341527
C	 1.231513521	-2.8345879272	-2.1831978593	-0.270535
C	 1.8584382483	-2.2188748596	-3.31530332	 0.337015
C	 2.3866169804	-1.7050974901	-4.2667183321	-0.463339
H	 0.8565499915	 1.6436658525	 0.4749210874	 0.11031
H	-0.3589643614	 1.9051600076	-0.8038947693	 0.110309
H	-0.8838693664	 1.581613412	 0.8700367418	 0.129558
H	 0.528454744	-0.1113891164	-2.0648029447	 0.10269
H	 1.7573184709	-0.1911125642	-0.7784234238	 0.100729
H	 0.3218348967	-2.0601031148	 0.818866792	 0.290862
H	-0.7694446849	-3.6259620838	-1.5800708347	 0.12423
H	-0.851647583	-2.1650889146	-2.6909178212	 0.124659
H	 1.6810364176	-3.7655096561	-1.8500577159	 0.127533
H	 2.8558771214	-1.2563413385	-5.106587726	 0.194565
74.9972	88.412	103.743	150.7153	196.3518	224.9216	306.0525	327.1575	375.337	401.9621	428.8166	466.2973	520.7366	582.6794	611.774	649.9499	758.4796	824.316	907.2865	927.3838	956.686	992.3644	1015.5956	1059.7112	1088.1001	1118.2541	1154.0068	1183.0209	1214.2538	1223.4377	1280.7807	1286.9647	1358.4761	1401.2554	1435.4789	1479.7609	1485.655	1490.88	1500.4691	1518.8163	2234.9474	2972.6074	2982.4583	3024.3667	3030.5261	3116.6885	3142.493	3154.5508	3240.6997	3505.1103	3770.8159
COCC1(O)CC1C#C	COC[C@@]1(O)C[C@H]1C#C	
InChI=1S/C7H10O2/c1-3-6-4-7(6,8)5-9-2/h1,6,8H,4-5H2,2H3	InChI=1S/C7H10O2/c1-3-6-4-7(6,8)5-9-2/h1,6,8H,4-5H2,2H3/t6-,7+/m1/s1
