19
gdb 83589	2.56745	1.70386	1.61125	1.525	69.07	-0.2463	0.0635	0.3098	944.6968	0.162322	-460.167311	-460.160049	-460.159105	-460.198488	29.773	
O	-0.1141936718	 1.3991885712	 0.0531433995	-0.444076
C	-0.001445534	-0.0131615144	 0.0202998516	 0.104185
C	 0.518110008	-0.6111057327	 1.3436698424	 0.068509
C	-0.6140299936	-0.2749472511	 2.3407325132	-0.23758
C	-1.9077772612	-0.2777613982	 1.4722498305	-0.242299
C	-1.4138949953	-0.615379378	 0.0477709731	 0.101981
O	-1.2720528893	-2.0230804973	-0.1792376543	-0.270042
C	-0.5297740845	-2.6663018322	 0.8283936638	 0.014712
O	 0.6838963951	-2.0185062338	 1.1313436027	-0.267201
H	 0.7732136944	 1.7710794569	 0.0729254715	 0.287968
H	 0.5727104144	-0.3686248885	-0.84269546	 0.076395
H	 1.4988383832	-0.240454642	 1.6534975518	 0.069741
H	-0.6382229147	-0.9957868022	 3.161745205	 0.109281
H	-0.4342620918	 0.712036053	 2.7713933356	 0.109492
H	-2.6554719446	-1.0000894251	 1.8092267301	 0.1082
H	-2.3764622258	 0.7078435345	 1.463344998	 0.1189
H	-2.0665119918	-0.2442560378	-0.7436530215	 0.086032
H	-1.1395740405	-2.7721826181	 1.7404727178	 0.085672
H	-0.272204256	-3.6571840241	 0.4478552793	 0.12013
216.8849	223.2534	276.2225	293.4213	326.6395	351.9201	452.1469	461.4038	490.9925	661.243	756.7732	765.4772	827.1179	832.6178	892.5634	923.8802	939.5413	973.2613	1010.0916	1032.9553	1045.4642	1091.1318	1095.6073	1112.1316	1166.0617	1189.1067	1199.9489	1245.952	1257.9988	1267.1784	1287.3025	1311.2354	1329.4105	1345.6462	1358.5438	1371.998	1424.7615	1438.1895	1471.9149	1489.0687	1530.0107	2968.4447	3048.3845	3067.8095	3074.1507	3082.5637	3104.8013	3108.0839	3111.7963	3129.0239	3819.0445
OC1C2CCC1OCO2	O[C@H]1[C@H]2CC[C@@H]1OCO2	
InChI=1S/C6H10O3/c7-6-4-1-2-5(6)9-3-8-4/h4-7H,1-3H2	InChI=1S/C6H10O3/c7-6-4-1-2-5(6)9-3-8-4/h4-7H,1-3H2/t4-,5+,6+
