23
gdb 59535	2.58056	1.20421	1.09537	1.536	85.31	-0.244	0.0751	0.3191	1277.4714	0.205081	-388.263272	-388.253656	-388.252712	-388.297362	37.158	
C	 0.0044782632	 1.5748152091	 0.0077398929	-0.390119
C	 0.0997674383	 0.0487061086	 0.1418167609	 0.018007
C	 0.7251750399	-0.3490169687	 1.4854020281	-0.391031
C	-1.2819284595	-0.5917648612	-0.024862353	 0.060513
C	-2.0176187824	-0.541603372	-1.4061133155	-0.269392
C	-2.2517983635	-2.0561463285	-1.3292602064	-0.127237
C	-0.9465510897	-2.7848774091	-1.2552961155	 0.11055
O	 0.2190949223	-2.3478835501	-1.9016295686	-0.416343
C	-1.4347041978	-2.1236201396	-0.0097145627	-0.126355
H	 0.9927670323	 2.0407763038	 0.0831930568	 0.106376
H	-0.4289148844	 1.8690477261	-0.9540466068	 0.109942
H	-0.6234971271	 2.0022628859	 0.7996565511	 0.104496
H	 0.7415901051	-0.3320135475	-0.6591365871	 0.095948
H	 0.1153679766	 0.005551038	 2.3261964661	 0.102459
H	 0.8197309683	-1.4359474584	 1.574019613	 0.115918
H	 1.7252257926	 0.0827503631	 1.5987890802	 0.10604
H	-1.9526069271	-0.1744900718	 0.7371913836	 0.065411
H	-2.937632742	 0.0449782585	-1.3828977201	 0.099188
H	-1.4113583728	-0.2119484168	-2.2557230275	 0.090488
H	-3.1759301571	-2.5598848225	-1.5891453454	 0.082226
H	-1.0515818749	-3.870828684	-1.2281449427	 0.08551
H	 0.0914660256	-2.462700993	-2.8495439956	 0.284374
H	-1.6301113058	-2.7093988098	 0.8817782441	 0.08303
66.7173	136.366	160.8061	224.9313	239.8756	249.0551	284.6061	310.8865	334.5936	399.2452	449.1355	500.1766	618.6812	722.7698	742.1105	800.0555	818.1099	893.4945	925.5843	933.5844	956.2507	968.4361	988.8724	1013.6172	1025.3284	1032.6116	1063.3484	1086.8826	1133.0222	1145.6233	1185.6364	1212.311	1219.1317	1248.7942	1272.1587	1294.3618	1301.9082	1305.9025	1354.9757	1365.9447	1395.8062	1398.253	1419.7372	1455.1936	1486.9268	1489.4195	1493.2049	1505.0429	1510.0115	3016.4812	3017.8274	3022.6123	3051.073	3060.6887	3081.2837	3088.6804	3093.4507	3096.1108	3100.4408	3112.4127	3163.8472	3176.1246	3799.6365
CC(C)C1CC2C(O)C12	CC(C)[C@H]1C[C@H]2[C@@H](O)[C@@H]12	
InChI=1S/C8H14O/c1-4(2)5-3-6-7(5)8(6)9/h4-9H,3H2,1-2H3	InChI=1S/C8H14O/c1-4(2)5-3-6-7(5)8(6)9/h4-9H,3H2,1-2H3/t5-,6-,7+,8-/m1/s1
