15
gdb 44071	3.45468	1.53447	1.42112	2.7511	65.86	-0.2438	-0.0302	0.2136	923.9057	0.111853	-457.630537	-457.623884	-457.62294	-457.661452	26.882	
O	-0.0230215568	-0.0045837715	 0.1205194471	-0.321579
C	-0.0038145492	 1.1925986215	 0.0808814285	 0.484835
C	-1.1411392026	 2.2189912645	 0.1340733841	-0.373507
C	-0.2776758402	 3.4852974484	-0.0053560549	 0.327216
C	-0.8658035317	 4.5362818443	-0.9905952344	-0.196829
O	-0.2943104951	 3.6758674802	-2.0708159369	-0.315387
C	 0.7094233663	 3.267030435	-1.0582767262	 0.113227
C	 1.1843982589	 2.1363510573	-0.0439559288	-0.146397
O	 0.8196734639	 3.165996013	 0.9922945317	-0.358581
H	-1.8521796349	 2.069413571	-0.6817583792	 0.14689
H	-1.6706586931	 2.1981153099	 1.0901728044	 0.14189
H	-1.9519975827	 4.612611588	-1.0745727346	 0.134319
H	-0.3848814297	 5.5186623789	-0.9817308781	 0.13284
H	 1.5112915937	 4.0107063922	-1.06765291	 0.11635
H	 2.2061429432	 1.7713860172	 0.0339482974	 0.114713
117.8619	281.6338	298.913	341.7839	465.6458	473.3126	518.1744	585.4293	621.5508	716.357	758.6364	777.9305	817.4539	829.8145	872.8575	897.327	947.0277	955.8215	1037.7562	1070.2259	1112.6688	1134.717	1144.4153	1173.5706	1211.3296	1217.4236	1263.5914	1278.7182	1341.2653	1395.6029	1434.5426	1497.7158	1886.2295	3055.422	3066.3445	3073.5227	3128.5008	3133.8434	3162.6715
O=C1CC23COC2C1O3	O=C1C[C@]23CO[C@@H]2[C@H]1O3	
InChI=1S/C6H6O3/c7-3-1-6-2-8-5(6)4(3)9-6/h4-5H,1-2H2	InChI=1S/C6H6O3/c7-3-1-6-2-8-5(6)4(3)9-6/h4-5H,1-2H2/t4-,5+,6-/m0/s1
