19
gdb 40471	3.77096	1.34276	1.23583	1.5907	79.62	-0.2288	0.0796	0.3084	1081.3126	0.159583	-385.784298	-385.776982	-385.776038	-385.816283	29.494	
C	-0.180856034	 1.4261371103	-0.0446225927	-0.266312
C	 1.2422182666	 0.9878990388	 0.1881279261	-0.266314
C	 0.1447977848	-0.0431813455	 0.0771469191	-0.167781
C	-0.2796283795	-0.7763321701	 1.291764071	 0.507937
O	-0.2703603936	-0.0641956972	 2.5744981766	-0.363174
C	-0.7369511225	-1.4066467823	 2.9008766152	 0.083846
C	-1.5960712032	-1.5734879749	 1.6133594408	-0.136876
C	-0.939172627	-2.928753331	 1.2738763323	-0.282118
C	 0.2201715265	-2.1324925057	 1.9105853892	-0.13687
H	-0.7020290641	 1.8819180033	 0.7892310002	 0.132643
H	-0.4554212221	 1.807234095	-1.0217760113	 0.109865
H	 1.9515240601	 1.0660185709	-0.6281025717	 0.109864
H	 1.6574838277	 1.1553074897	 1.1751439634	 0.132635
H	 0.1097965177	-0.6388612224	-0.8304852904	 0.089192
H	-0.9773129273	-1.6359895766	 3.938316686	 0.093446
H	-2.6184390973	-1.2272184239	 1.4618135224	 0.080889
H	-1.2979245584	-3.7960433326	 1.8349271957	 0.098362
H	-0.842255838	-3.1776242697	 0.2135887539	 0.099877
H	 1.2552876137	-2.419472786	 2.0957386642	 0.080889
71.8627	163.6896	173.381	294.2181	407.2839	479.7421	550.9222	611.2213	744.8606	774.4249	788.7054	814.2531	820.6654	856.4881	882.6528	890.5084	894.2563	933.2192	934.6036	992.3298	1029.1026	1034.3919	1066.8478	1068.7354	1087.3067	1102.2224	1116.6241	1124.0273	1140.1061	1166.8371	1183.2146	1203.6523	1217.8956	1232.8716	1241.1575	1288.1101	1321.0365	1446.7214	1460.8713	1501.5102	1515.5965	3052.254	3106.9208	3116.6191	3118.8857	3134.1795	3138.6334	3141.2259	3151.3114	3223.1251	3237.3958
C1CC1C12OC3C1CC23	C1CC1[C@@]12O[C@H]3[C@@H]1C[C@@H]23	
InChI=1S/C8H10O/c1-2-4(1)8-5-3-6(8)7(5)9-8/h4-7H,1-3H2	InChI=1S/C8H10O/c1-2-4(1)8-5-3-6(8)7(5)9-8/h4-7H,1-3H2/t5-,6+,7-,8+
