23
gdb 95160	2.64681	1.3919	1.07143	1.2067	85.75	-0.2424	0.0838	0.3262	1238.3291	0.206571	-388.298319	-388.289405	-388.28846	-388.331382	35.439	
C	 0.074611113	 1.5397271766	 0.0965931261	-0.403892
C	 0.0110611347	 0.0210799556	 0.0342305321	 0.148269
C	 0.6090915176	-0.5481609131	-1.2619190848	-0.294303
C	 0.9223513296	-2.0468713696	-1.1772834682	 0.352275
C	 0.5038903697	-2.8602607224	-2.3856760473	-0.470073
C	 2.193338729	-2.4525506559	-0.462087527	-0.321957
C	 0.8575566722	-2.7001506659	 0.1899165551	-0.069376
C	 0.4484819464	-1.8574399967	 1.3804617281	-0.108332
O	 0.7018689841	-0.4800696497	 1.1747663282	-0.257118
H	 1.1166797661	 1.8743816325	 0.0828822967	 0.123062
H	-0.4421306114	 1.9827833725	-0.7604258306	 0.112463
H	-0.3915209225	 1.9072651282	 1.0146009927	 0.120092
H	-1.0432480521	-0.3017602451	 0.1026948298	 0.058846
H	-0.1024901012	-0.3681913214	-2.0764327606	 0.093533
H	 1.5185894637	 0.0112340414	-1.5155037351	 0.098496
H	 0.9859023351	-2.4872303536	-3.2976530689	 0.114874
H	 0.7791366316	-3.9139222637	-2.2718778506	 0.110476
H	-0.5805085137	-2.8132783857	-2.5426593916	 0.111884
H	 2.7474237064	-3.3044318021	-0.8429228196	 0.101101
H	 2.8076232435	-1.6605971994	-0.0450187589	 0.115104
H	 0.5039777488	-3.7275327876	 0.2273263617	 0.077003
H	-0.6237426059	-2.0118436729	 1.5953850028	 0.083193
H	 1.0126308851	-2.1401542023	 2.2762853101	 0.104379
85.3952	174.9113	223.5416	236.6593	248.6831	304.2657	350.1227	364.8399	382.6001	441.5515	484.0156	513.6196	656.2075	742.4906	774.8764	827.2949	892.3963	902.1184	915.8752	937.9282	955.6509	998.8688	1041.5357	1053.1772	1081.3476	1098.9221	1107.3295	1123.6816	1151.7161	1163.2319	1167.7486	1221.4918	1279.7215	1295.1153	1310.163	1334.9244	1382.5613	1388.3646	1405.4802	1411.5986	1417.6139	1423.6914	1478.6752	1483.7469	1489.582	1494.0738	1495.7044	1501.7624	1504.395	2937.9382	2948.8961	3014.8025	3020.4788	3040.7705	3057.781	3060.7694	3074.6887	3093.5741	3113.2436	3120.6574	3122.0791	3137.6421	3209.6357
CC1CC2(C)CC2CO1	C[C@H]1C[C@@]2(C)C[C@H]2CO1	
InChI=1S/C8H14O/c1-6-3-8(2)4-7(8)5-9-6/h6-7H,3-5H2,1-2H3	InChI=1S/C8H14O/c1-6-3-8(2)4-7(8)5-9-6/h6-7H,3-5H2,1-2H3/t6-,7-,8-/m0/s1
