20
gdb 16701	3.37269	1.79988	1.56977	1.5452	73.76	-0.243	0.074	0.317	918.395	0.178699	-348.99256	-348.985056	-348.984112	-349.02375	30.192	
C	-0.1475558525	 1.5078978928	 0.0347202063	-0.418802
C	 0.074392215	-0.003729603	 0.0585697593	 0.051443
C	 1.0040030639	-0.5635372684	-1.0830296479	-0.235709
C	 2.0356078672	-1.321783649	-0.2288508238	-0.051922
C	 1.1265885912	-2.0196594338	 0.8286580618	-0.26741
C	 0.8556886149	-0.550083384	 1.2748883079	-0.062779
C	 2.3407077847	-0.2609711944	 0.8762387455	 0.19254
O	 3.3376118217	-0.5630787755	 1.8229234361	-0.459403
H	 0.7931323435	 2.0638172145	 0.1038741415	 0.11914
H	-0.6411360239	 1.813429982	-0.8942573018	 0.113652
H	-0.7834173152	 1.8265439437	 0.8681007449	 0.112446
H	-0.9055679382	-0.4927014603	 0.0130391342	 0.068686
H	 0.4703941847	-1.2168410212	-1.7790401737	 0.095262
H	 1.4649711624	 0.2410329623	-1.6659193684	 0.096495
H	 2.8395248361	-1.8478181786	-0.7453683927	 0.060087
H	 0.276405428	-2.6065058479	 0.4678579038	 0.092039
H	 1.6770682775	-2.6174771034	 1.560254562	 0.082651
H	 0.4777809179	-0.3022637041	 2.2683866912	 0.057333
H	 2.5792866928	 0.7474204185	 0.5285804889	 0.074922
H	 3.1620166283	-1.4298615301	 2.2018943447	 0.279327
174.9023	203.9666	209.1982	260.3492	313.4611	362.9615	422.0661	474.6269	541.9877	608.7637	785.9045	825.568	838.0346	867.6729	886.627	916.3393	948.7874	961.9936	998.0124	1033.7418	1038.0511	1040.4859	1077.1377	1101.3655	1144.4132	1153.0428	1189.142	1209.5312	1229.6671	1248.1177	1262.9637	1281.2587	1292.2302	1314.4158	1328.3082	1381.4394	1411.3898	1448.4669	1495.4843	1498.3252	1500.1446	1519.3148	3026.9743	3028.5624	3044.0013	3048.9942	3078.14	3088.1222	3093.0604	3096.2784	3101.1838	3101.9311	3109.666	3823.354
CC1CC2CC1C2O	C[C@H]1C[C@@H]2C[C@H]1[C@H]2O	
InChI=1S/C7H12O/c1-4-2-5-3-6(4)7(5)8/h4-8H,2-3H2,1H3	InChI=1S/C7H12O/c1-4-2-5-3-6(4)7(5)8/h4-8H,2-3H2,1H3/t4-,5+,6+,7-/m0/s1
