17
gdb 37261	3.19367	2.14092	1.69908	2.0821	72.4	-0.2189	0.069	0.2879	826.3715	0.138938	-384.611486	-384.605724	-384.60478	-384.641203	25.436	
O	-0.0660462886	 1.4322981047	 0.065840842	-0.266569
C	 1.2433411712	 0.8486839433	-0.0061972151	 0.029029
C	 0.052059036	 0.0024132418	 0.0237826767	 0.029029
C	-0.2762176067	-0.6845252363	-1.2605333619	-0.070048
C	-0.037934845	-0.0446200751	-2.6027396522	-0.088262
C	 1.2294807189	 0.8557444361	-2.6346334554	-0.088264
C	 1.9566575373	 0.9016839283	-1.3167268173	-0.070047
C	 2.0779044199	-0.3261906766	-2.2124619443	-0.094592
C	 0.8129283946	-1.224819076	-2.1806212814	-0.094593
H	 1.8472590183	 0.980496167	 0.8898151931	 0.088003
H	-0.240872561	-0.5028843956	 0.942365916	 0.088003
H	-1.1588476341	-1.318329749	-1.2422303614	 0.088951
H	-0.810650528	 0.0014077728	-3.358674316	 0.091364
H	 1.4147129573	 1.5822937994	-3.4146721849	 0.091364
H	 2.8455702286	 1.526361942	-1.3430080993	 0.088951
H	 3.0320520456	-0.6581759707	-2.6002179207	 0.08884
H	 0.7997284156	-2.2439991263	-2.5440280379	 0.08884
239.6202	296.0458	481.2618	498.26	583.4411	635.2489	688.1357	726.2326	729.7187	761.3959	826.0449	839.3631	862.624	884.2832	892.878	919.2207	958.5825	983.565	994.3905	1004.2946	1031.9562	1051.4347	1063.7044	1071.4018	1094.3866	1103.6373	1139.6524	1170.1785	1242.661	1277.3097	1287.7017	1309.646	1312.9894	1375.3452	1405.2163	1446.2397	1477.0657	3115.2492	3125.6787	3146.3605	3148.427	3186.058	3195.7291	3196.9692	3207.0542
O1C2C1C1C3C4C2C4C13	O1[C@H]2[C@@H]1[C@H]1[C@H]3[C@H]4[C@@H]2[C@H]4[C@@H]13	
InChI=1S/C8H8O/c9-7-5-1-2(5)4-3(1)6(4)8(7)9/h1-8H	InChI=1S/C8H8O/c9-7-5-1-2(5)4-3(1)6(4)8(7)9/h1-8H/t1-,2+,3-,4+,5+,6-,7-,8+
