16
gdb 36577	2.46401	1.25393	1.04958	2.978	75.39	-0.2581	0.0035	0.2616	1184.2899	0.121611	-400.694621	-400.685571	-400.684627	-400.729054	32.993	
C	 0.0022291547	-1.1078753389	 0.695985984	-0.497774
C	-0.0189797666	 0.016560992	 0.2687892362	 0.315951
C	-0.0793794645	 1.3559994313	-0.2551293031	 0.244336
C	-0.098079856	 2.538715012	 0.7003541163	-0.311408
C	 1.1163131622	 2.2660871217	-0.1463699567	-0.314517
O	-0.777731711	 1.4897310988	-1.4752078795	-0.260331
C	-2.135740635	 1.1063698208	-1.432943645	-0.212541
C	-3.0019390221	 2.0915327179	-0.7572608841	 0.262138
N	-3.6850868559	 2.8654710613	-0.2384536528	-0.310619
H	 0.0368131993	-2.0992519787	 1.0759553871	 0.206418
H	-0.7350892496	 3.3675513723	 0.4179303653	 0.15058
H	-0.0564245241	 2.3252465633	 1.7615890214	 0.135217
H	 2.0071979594	 1.8658070193	 0.3214059011	 0.134687
H	 1.2861954176	 2.9076771049	-1.0031525537	 0.138975
H	-2.4615938681	 1.0128903988	-2.4727188161	 0.16154
H	-2.2624608403	 0.1307523032	-0.9455011604	 0.157348
38.5816	94.2947	151.4479	203.5572	225.6056	262.2561	363.1504	383.4691	402.1845	546.3625	555.5503	591.1277	641.675	664.7565	694.7587	771.6544	880.1186	907.1458	914.2764	950.5345	977.9828	1052.7393	1063.1669	1086.301	1096.4435	1192.8628	1243.4333	1296.0129	1318.5932	1394.0492	1451.8278	1471.0741	1484.1807	2230.365	2357.849	3030.4466	3099.0276	3148.6784	3153.4699	3238.6064	3252.447	3498.8132
C#CC1(CC1)OCC#N	C#CC1(CC1)OCC#N	
InChI=1S/C7H7NO/c1-2-7(3-4-7)9-6-5-8/h1H,3-4,6H2	InChI=1S/C7H7NO/c1-2-7(3-4-7)9-6-5-8/h1H,3-4,6H2
