21
gdb 63907	2.90988	1.35795	1.22726	2.053	82.89	-0.2443	0.0032	0.2475	1134.2656	0.182721	-387.088748	-387.080249	-387.079304	-387.121358	33.958	
C	 0.1401186028	 1.5096798007	-0.0115983129	-0.424005
C	-0.073769987	-0.0145949875	 0.0014308003	 0.222119
C	-1.5897172535	-0.3137761532	 0.0670114842	-0.406579
C	 0.5361440347	-0.6209660605	-1.2890960816	-0.256291
C	 0.7820316938	-2.1222157265	-1.2122535483	 0.021228
O	 2.1247039653	-2.5222216517	-0.9064503991	-0.259451
C	 1.1021664369	-2.7199044109	 0.0909086059	 0.015471
C	 1.1201190294	-1.8299863341	 1.2796820651	-0.107654
C	 0.587084291	-0.6091499508	 1.232743936	-0.058375
H	 1.2058623013	 1.7599872192	-0.0023388726	 0.119442
H	-0.3037365799	 1.95563593	-0.9084733232	 0.112237
H	-0.3253050795	 1.9814152676	 0.860959176	 0.110411
H	-2.1160968339	 0.1732387565	-0.7619191924	 0.109994
H	-1.7806745163	-1.3897940519	 0.0119724862	 0.118319
H	-2.0237512534	 0.0531261963	 1.0030554347	 0.113071
H	-0.1159190521	-0.3891874586	-2.1386932474	 0.093421
H	 1.5023999909	-0.1453555594	-1.4877119063	 0.115053
H	 0.3037950965	-2.7436660275	-1.968510173	 0.090335
H	 0.8695837602	-3.769393257	 0.2711114156	 0.089174
H	 1.5660525387	-2.2096947613	 2.1947355013	 0.093182
H	 0.5839911441	 0.0132710406	 2.1258251116	 0.088899
82.573	179.5191	247.3025	271.9593	289.6104	309.4608	358.0521	376.3919	436.891	480.2434	543.6049	589.1722	696.9537	749.174	809.7106	826.4699	852.2842	906.8609	919.5363	947.1138	978.8153	993.7266	1008.1489	1010.0633	1047.0759	1078.7754	1128.9755	1172.8497	1190.5716	1203.3934	1265.5332	1289.856	1299.298	1339.6104	1375.5949	1395.8417	1407.7923	1430.0991	1460.9488	1471.1341	1485.4633	1490.3605	1501.1015	1509.6357	1708.5017	3023.1848	3026.5009	3036.5383	3079.0391	3091.5103	3096.0691	3100.8665	3104.1096	3106.1701	3116.2054	3138.1586	3170.7102
CC1(C)CC2OC2C=C1	CC1(C)C[C@H]2O[C@H]2C=C1	
InChI=1S/C8H12O/c1-8(2)4-3-6-7(5-8)9-6/h3-4,6-7H,5H2,1-2H3	InChI=1S/C8H12O/c1-8(2)4-3-6-7(5-8)9-6/h3-4,6-7H,5H2,1-2H3/t6-,7+/m0/s1
