20
gdb 14381	3.53374	2.12636	1.83073	0.2526	77.56	-0.244	0.0926	0.3367	838.4598	0.177471	-311.824487	-311.817188	-311.816244	-311.855235	29.992	
C	 0.0042911832	 1.5517152663	 0.0156369184	-0.460296
C	 0.0545035472	 0.0240197146	 0.000786074	 0.338304
C	-1.351492308	-0.5536930867	 0.1890165448	-0.437127
C	 0.7993843247	-0.6744581733	-1.1455874268	-0.082424
C	 2.2919731578	-0.7474412545	-0.7760188778	-0.081904
C	 2.4704518267	-0.1174076611	 0.6046629938	-0.250413
C	 1.0780287125	-0.716509743	 0.9346877577	-0.086793
C	 1.3101970189	-1.7599759788	-0.2355338039	-0.080988
H	 0.97188673	 2.0040399825	-0.2129950063	 0.115893
H	-0.7107396784	 1.9170209543	-0.7309630236	 0.108964
H	-0.3249278222	 1.9264121624	 0.9924112988	 0.10857
H	-2.0167077859	-0.2481952339	-0.6268644264	 0.106605
H	-1.3340021469	-1.6475809286	 0.2157030245	 0.113176
H	-1.7957673286	-0.1981606704	 1.1261420294	 0.106533
H	 0.4804557291	-0.7743299804	-2.1769980042	 0.073754
H	 3.0417687987	-0.9029704649	-1.5418197382	 0.080936
H	 3.2591456091	-0.6316604212	 1.1619257461	 0.09537
H	 2.6101115079	 0.9643397907	 0.7009286045	 0.086942
H	 0.797812869	-0.9489235377	 1.961672472	 0.059977
H	 1.2769581152	-2.8377649662	-0.2947784968	 0.084921
174.9916	206.6308	249.0951	264.1581	345.9295	362.094	462.6327	530.7816	608.9029	748.152	779.6377	786.4705	792.4281	848.4541	880.5161	922.0117	947.9367	957.6086	984.557	999.5425	1002.0961	1019.9962	1033.4823	1044.6039	1062.2413	1130.0487	1156.7387	1164.9211	1202.4493	1220.3149	1230.2401	1242.9013	1275.6931	1340.7811	1362.1531	1398.5532	1417.8399	1480.9786	1483.9404	1499.8822	1500.972	1517.0063	3020.0144	3025.6402	3039.1359	3078.8415	3084.0983	3088.2439	3101.6765	3115.0879	3118.3248	3174.4688	3190.8444	3223.8384
CC1(C)C2C3CC1C23	CC1(C)[C@H]2[C@H]3C[C@@H]1[C@@H]23	
InChI=1S/C8H12/c1-8(2)5-3-4-6(5)7(4)8/h4-7H,3H2,1-2H3	InChI=1S/C8H12/c1-8(2)5-3-4-6(5)7(4)8/h4-7H,3H2,1-2H3/t4-,5+,6-,7-/m0/s1
