16
gdb 67854	2.3475	1.67838	1.33644	3.0542	73.75	-0.2494	-0.0026	0.2467	998.1276	0.124664	-400.75596	-400.748192	-400.747248	-400.788018	30.075	
O	-0.0551506043	 1.4121546228	-0.0144732812	-0.462336
C	 0.0000409948	 0.02842739	-0.0815083702	 0.381803
C	 0.9000203697	-0.6592952166	-1.0584994482	-0.163911
C	 0.3095684649	-1.7351206094	-1.5800048644	-0.050696
C	-1.0969249773	-1.9280055783	-1.0512354452	-0.293958
C	-1.2605081439	-0.7864132822	-0.0518445993	-0.10729
C	-0.3585145968	-0.7688896005	 1.18848957	-0.274708
C	 0.3733599264	-1.9260458531	 1.6100529689	 0.308357
N	 0.9588888946	-2.8648181656	 1.9505435925	-0.353857
H	 0.7610825224	 1.7334466219	 0.3849821225	 0.291985
H	 1.9064690482	-0.3138767843	-1.2623780965	 0.104055
H	 0.7702978141	-2.4330826128	-2.2687457821	 0.112327
H	-1.8447747016	-1.8663034507	-1.8513442639	 0.121604
H	-1.2199271885	-2.9107983177	-0.5799469489	 0.138771
H	-2.2213541124	-0.3024723303	 0.0698701639	 0.113503
H	-0.7393518601	-0.1544521131	 1.998288512	 0.134352
119.2548	138.3883	234.4525	279.1352	296.6099	373.9226	401.6741	444.643	554.8644	618.1753	624.4543	733.113	744.091	775.1191	854.9915	878.1634	921.9001	934.8452	959.4423	983.9126	1039.5318	1045.2827	1082.4439	1129.9012	1183.2732	1197.2196	1247.1321	1303.5397	1317.7437	1329.2923	1373.4646	1439.3053	1472.6018	1671.2911	2346.1785	3031.2101	3062.8348	3164.7001	3196.8459	3198.1211	3220.5477	3797.6541
OC12C=CCC1C2C#N	O[C@]12C=CC[C@H]1[C@H]2C#N	
InChI=1S/C7H7NO/c8-4-6-5-2-1-3-7(5,6)9/h1,3,5-6,9H,2H2	InChI=1S/C7H7NO/c8-4-6-5-2-1-3-7(5,6)9/h1,3,5-6,9H,2H2/t5-,6+,7+/m0/s1
