20
gdb 120401	2.9863	0.90232	0.77714	3.1091	75.84	-0.2447	0.0049	0.2497	1535.4634	0.170506	-440.313162	-440.303338	-440.302394	-440.348641	35.119	
C	 0.0535053662	 1.4659904889	 0.2976311063	-0.383645
C	-0.0189794824	-0.0350079807	 0.0078267735	-0.172711
C	-1.4572718735	-0.5663397695	-0.0234138125	-0.179364
C	-1.5315597175	-2.0551637109	-0.2898199785	 0.121546
O	-0.9849907195	-2.8483099743	 0.8280683061	-0.256655
C	-2.2041018987	-3.4122009271	 1.1094626895	 0.41624
O	-2.4901898485	-4.11321676	 2.0271355191	-0.327477
C	-2.9011862213	-2.7657693375	-0.1088682297	-0.185878
N	-4.0954221471	-1.9680942783	 0.0309111701	-0.512848
H	 1.0897008571	 1.8169886329	 0.3123058155	 0.11645
H	-0.484230031	 2.0446618529	-0.4617845706	 0.114834
H	-0.3915074049	 1.7033445524	 1.270223892	 0.117255
H	 0.4644039105	-0.249222556	-0.9545048134	 0.096968
H	 0.5465945771	-0.5895426477	 0.7653155075	 0.120466
H	-1.9520067723	-0.3429712291	 0.9308511176	 0.094138
H	-2.0394449011	-0.0566233317	-0.801418166	 0.11693
H	-0.9969150392	-2.3222807646	-1.2064357712	 0.09305
H	-3.0663255469	-3.5156978952	-0.887612788	 0.120678
H	-4.9192760241	-2.558434058	 0.0085078048	 0.247329
H	-4.111253093	-1.4777244365	 0.9190466778	 0.242693
62.3625	82.0854	113.8792	130.2786	199.7792	238.942	240.1965	269.7469	324.8432	424.533	492.4149	571.875	699.8462	733.91	775.0332	815.5261	841.4675	863.2045	910.2278	920.8301	949.6901	1049.8024	1069.4614	1104.5834	1122.0815	1133.999	1195.3872	1209.8683	1231.2149	1256.077	1281.4762	1323.418	1333.9721	1381.8612	1411.7809	1416.8674	1430.5379	1469.2783	1492.9631	1498.9772	1509.6022	1669.6445	1927.4904	3017.255	3025.5613	3031.3802	3052.1074	3064.065	3075.1056	3083.274	3098.9119	3105.7317	3515.3969	3593.4604
CCCC1OC(=O)C1N	CCC[C@H]1OC(=O)[C@H]1N	
InChI=1S/C6H11NO2/c1-2-3-4-5(7)6(8)9-4/h4-5H,2-3,7H2,1H3	InChI=1S/C6H11NO2/c1-2-3-4-5(7)6(8)9-4/h4-5H,2-3,7H2,1H3/t4-,5+/m1/s1
