22
gdb 76497	2.83274	1.26837	1.11967	1.556	86.9	-0.2198	0.0862	0.306	1222.5863	0.193935	-367.154342	-367.145249	-367.144305	-367.187801	35.186	
C	-0.1961772261	 0.8425201401	-1.9668588944	-0.410235
C	-0.0152386209	-0.3026346896	-0.9937631954	-0.072879
C	 1.3191252303	-0.628380735	-0.3381893005	-0.109459
C	 2.5860010772	 0.1558869724	-0.6040272201	-0.410748
C	 0.1859784987	-0.0600258775	 0.4746498067	 0.392564
C	 0.1964275567	 1.2793993117	 1.2606975868	-0.31557
C	-0.512466644	 0.5383191818	 2.40512141	-0.036562
N	-1.7846480972	 0.0116645209	 1.8496141602	-0.336744
C	-0.5126327397	-0.7355358152	 1.6370091444	-0.159737
H	 0.3905514605	 1.7209586544	-1.6846945651	 0.114768
H	 0.1035705439	 0.5559152448	-2.981387444	 0.112011
H	-1.2463913123	 1.151331049	-2.0036134946	 0.12436
H	-0.6260463774	-1.1714118052	-1.231044194	 0.078103
H	 1.4964769183	-1.6921090777	-0.1869406724	 0.075831
H	 2.3943772227	 1.2258937642	-0.7200669872	 0.118671
H	 3.2983598966	 0.0397451242	 0.2209771162	 0.114257
H	 3.0807367962	-0.1914507047	-1.5178796004	 0.116369
H	 1.2052686488	 1.6079268791	 1.5257101216	 0.10144
H	-0.3633930559	 2.1150538251	 0.8319535451	 0.105036
H	-0.4006224039	 0.7107824546	 3.4683450379	 0.090061
H	-2.2683554247	-0.4503493953	 2.6209970121	 0.222543
H	-0.4056980278	-1.760490482	 1.9733868273	 0.08592
107.0453	142.3071	161.9691	174.6339	195.8726	253.0723	292.8158	383.1615	445.2955	517.1016	531.5652	568.3067	755.9339	784.4869	808.6194	813.4035	834.2289	897.2392	917.696	960.5223	980.9265	1005.1529	1021.3463	1028.0249	1064.0444	1080.829	1108.3053	1115.5944	1139.2385	1147.0083	1167.4848	1179.4387	1200.3164	1227.3187	1295.3544	1305.0546	1325.1971	1367.3659	1378.4468	1411.784	1420.2289	1467.6933	1480.0545	1487.8619	1492.9107	1501.0174	1516.5255	3027.6123	3031.5121	3052.8266	3083.8986	3088.1892	3098.7589	3107.2529	3108.8273	3117.2934	3130.0213	3174.7788	3192.616	3454.456
CC1C(C)C11CC2NC12	C[C@H]1[C@@H](C)[C@]21C[C@H]1N[C@@H]21	
InChI=1S/C8H13N/c1-4-5(2)8(4)3-6-7(8)9-6/h4-7,9H,3H2,1-2H3	InChI=1S/C8H13N/c1-4-5(2)8(4)3-6-7(8)9-6/h4-7,9H,3H2,1-2H3/t4-,5+,6-,7-,8+/m1/s1
