17
gdb 66918	2.6128	1.76321	1.29679	3.411	72.39	-0.2281	0.0077	0.2359	1001.7765	0.134461	-421.794821	-421.78661	-421.785666	-421.827134	31.577	
C	 0.0078779905	 1.584039474	 0.0906434286	-0.503381
C	 0.033401978	 0.0815410386	 0.0881645011	 0.174706
C	-1.2510420429	-0.797218497	 0.1973813417	-0.28535
C	-0.3341785874	-1.8781673635	 0.7712059377	-0.132913
C	 0.7242960676	-0.8856817189	 1.1399211397	-0.169969
C	 0.9832768603	-1.8581243599	-0.033610691	 0.270843
O	 1.8719152206	-2.9008421687	-0.0251752147	-0.452512
C	 0.8896719527	-0.6818574572	-0.9590075766	 0.335867
O	 1.4543069778	-0.3394210271	-1.9601015072	-0.349292
H	 1.0212941736	 1.9963482655	 0.0637207295	 0.133833
H	-0.5197744084	 1.9531696889	-0.7952312425	 0.135128
H	-0.501941163	 1.9755691223	 0.9766612358	 0.118912
H	-1.942279666	-0.4122987294	 0.9537589199	 0.106952
H	-1.7947067352	-1.0057411539	-0.7316123529	 0.100199
H	-0.5916790949	-2.7908890232	 1.2953824103	 0.10021
H	 1.3517333322	-0.7217990557	 2.0023850517	 0.119235
H	 1.4896412945	-3.6399698246	-0.5111288212	 0.297532
131.1346	168.6122	212.7437	226.8198	255.0577	276.7539	337.3422	426.0091	496.894	560.6616	640.2544	682.072	730.3906	779.7376	837.573	869.9632	874.5347	909.3226	938.1639	958.9302	987.2405	1017.0755	1079.9481	1119.1037	1128.8174	1173.3768	1217.0843	1243.5604	1286.8719	1295.088	1355.4966	1413.8472	1449.3714	1485.4611	1489.7259	1500.1255	1873.7314	3029.5054	3035.0135	3088.1841	3102.3704	3107.6118	3187.251	3244.6956	3798.0911
CC12CC3C1C3(O)C2=O	C[C@]12C[C@@H]3[C@H]1[C@]3(O)C2=O	
InChI=1S/C7H8O2/c1-6-2-3-4(6)7(3,9)5(6)8/h3-4,9H,2H2,1H3	InChI=1S/C7H8O2/c1-6-2-3-4(6)7(3,9)5(6)8/h3-4,9H,2H2,1H3/t3-,4-,6+,7+/m1/s1
