20
gdb 10883	2.75229	1.90361	1.62436	1.8714	75.54	-0.2301	0.0917	0.3217	946.5479	0.17524	-348.952326	-348.943814	-348.94287	-348.984544	32.644	
C	-0.1820161417	 1.5501411325	 0.8111717305	-0.432228
C	-0.1382683356	 0.0669056177	 0.492569242	-0.007767
C	 1.047868203	-0.492292415	-0.336188913	 0.015679
O	 1.9458845702	-0.2354522388	 0.8122144213	-0.346191
C	 0.7289883907	-0.874294431	 1.3920771732	 0.385991
C	 0.6853074395	-1.0891601533	 2.8732130204	-0.518514
C	 0.8091221155	-1.9178014307	 0.2317442793	 0.011842
C	-0.3432914133	-2.8203305824	-0.179330406	-0.446078
H	 0.813900088	 1.9164294672	 1.0678106696	 0.136576
H	-0.5540774238	 2.1218962277	-0.0461119519	 0.111617
H	-0.8561480779	 1.7504588655	 1.6516576454	 0.110561
H	-1.1259589134	-0.3189684171	 0.2262859253	 0.062747
H	 1.405956672	-0.19111051	-1.3221532102	 0.0832
H	 0.7226395501	-0.133789383	 3.4058352822	 0.133084
H	-0.2390642357	-1.6042383394	 3.1545405307	 0.124597
H	 1.5339061546	-1.6993186869	 3.1975763	 0.13291
H	 1.7515145073	-2.4707693059	 0.2831359448	 0.07799
H	-1.3023638652	-2.3014081794	-0.2492567238	 0.120447
H	-0.1411630855	-3.2742831657	-1.1556626526	 0.122379
H	-0.4609310587	-3.6388653521	 0.5395175329	 0.121159
169.3959	180.2716	189.0433	196.8682	213.1306	238.1936	339.7154	361.0864	407.1528	584.6856	625.867	632.5386	721.2713	768.5591	783.2212	825.4694	879.4078	941.0731	1013.1239	1023.3762	1033.3436	1074.2929	1106.3345	1121.7966	1130.2095	1161.1256	1189.1875	1223.0308	1230.9435	1252.4458	1311.3821	1380.1194	1399.9379	1400.4272	1417.7661	1428.9267	1477.6158	1487.8776	1494.8491	1495.9797	1501.7004	1506.7308	3032.6732	3034.4201	3036.3908	3069.8997	3071.6755	3087.3787	3091.0097	3103.8296	3108.8895	3111.7935	3119.2638	3134.6386
CC1C2OC1(C)C2C	C[C@H]1[C@H]2O[C@]1(C)[C@H]2C	
InChI=1S/C7H12O/c1-4-6-5(2)7(4,3)8-6/h4-6H,1-3H3	InChI=1S/C7H12O/c1-4-6-5(2)7(4,3)8-6/h4-6H,1-3H3/t4-,5-,6-,7+/m0/s1
