21
gdb 116310	2.39741	1.17205	0.87056	2.014	74.32	-0.2537	0.072	0.3257	1358.2314	0.183102	-461.354807	-461.345187	-461.344243	-461.389956	35.016	
O	-0.1252426445	 1.5199170944	-0.2901602925	-0.423069
C	 0.0512665588	 0.1236615571	-0.0911221016	-0.094708
C	-1.3347098371	-0.4955432905	 0.0911201604	-0.006093
C	-2.2256622121	-0.2852309061	-1.1621003234	-0.249887
C	-2.2088188324	-1.6600559579	-1.8784582003	-0.075966
O	-1.2921842098	-2.4800285461	-1.1590355602	-0.277219
C	-1.3105721379	-2.0329144159	 0.1971575371	 0.084865
C	-0.1505351375	-2.7180991058	 0.9047133223	-0.079973
O	-0.3105950979	-4.1239933445	 0.8844441761	-0.42716
H	 0.7371042519	 1.9104429508	-0.4584779481	 0.287366
H	 0.5538213291	-0.3423825677	-0.9527098569	 0.097052
H	 0.6702400518	-0.0649940688	 0.799083664	 0.091338
H	-1.7904988033	-0.0481263456	 0.9791837413	 0.082701
H	-3.2437039161	-0.0055752597	-0.8807950742	 0.104546
H	-1.8281928898	 0.5199937975	-1.7818352346	 0.125411
H	-3.2087175515	-2.118594431	-1.8738668693	 0.093327
H	-1.8640142176	-1.6097746217	-2.9148889496	 0.108002
H	-2.2439925022	-2.3720920151	 0.6793422871	 0.070383
H	 0.7995019934	-2.4208685494	 0.4357809853	 0.089672
H	-0.120012243	-2.4147719458	 1.9566047222	 0.10777
H	-0.4916798222	-4.3547797783	-0.0343778452	 0.291643
47.9319	103.8224	138.4526	150.4606	176.3879	243.6831	267.5713	317.3482	367.9413	433.8846	490.0222	505.0736	697.7492	746.2801	814.2785	829.3367	863.8188	935.9342	975.5031	994.2626	1035.0844	1060.152	1079.1413	1084.2079	1107.6906	1131.9258	1160.1736	1216.7779	1230.338	1236.5668	1249.8525	1266.7395	1287.3472	1319.1112	1332.4381	1356.9359	1374.6634	1390.597	1412.1985	1447.379	1458.3894	1499.3451	1503.1637	1523.5692	1527.5371	2951.211	2974.1057	2992.2154	2996.7272	3007.9725	3066.9716	3076.1802	3080.2569	3082.6259	3125.5043	3795.7669	3831.9946
OCC1CCOC1CO	OC[C@H]1CCO[C@H]1CO	
InChI=1S/C6H12O3/c7-3-5-1-2-9-6(5)4-8/h5-8H,1-4H2	InChI=1S/C6H12O3/c7-3-5-1-2-9-6(5)4-8/h5-8H,1-4H2/t5-,6+/m1/s1
