21
gdb 39196	2.53126	2.09884	1.80736	0.1635	84.7	-0.2261	0.0192	0.2452	903.2085	0.18796	-349.962281	-349.955979	-349.955035	-349.992336	28.303	
C	-0.047233514	 1.5095134378	 0.1409105617	-0.242811
C	 1.4998136408	 1.4585947912	-0.0038649038	-0.031063
C	 2.1308479467	 1.1764865476	 1.3703158453	-0.199239
C	 1.2318855295	 0.2112017126	 2.1838042534	-0.203367
C	 0.5478824853	-0.8019021561	 1.2313563313	-0.069738
C	 1.6355334411	-1.6709224433	 0.6085801461	-0.071529
C	 2.1026660335	-1.1093244667	-0.5083369589	-0.096556
C	 1.2923008021	 0.115960754	-0.8301648795	-0.025907
C	-0.0162644467	-0.0318464075	-0.0084925174	-0.02021
H	-0.4728518789	 1.9579505058	 1.043005883	 0.087967
H	-0.5188070813	 1.9670604872	-0.7333675644	 0.092152
H	 1.9984257093	 2.2832257504	-0.5188624659	 0.055615
H	 3.1272965074	 0.7429620744	 1.2344660705	 0.099394
H	 2.2657677744	 2.1143489184	 1.9210815842	 0.088773
H	 1.8153310453	-0.3088678005	 2.951197366	 0.087969
H	 0.4599912923	 0.7789796384	 2.7142295242	 0.096517
H	-0.2158152523	-1.373701004	 1.7673600265	 0.058432
H	 2.039144367	-2.5497694792	 1.1001326759	 0.088574
H	 2.9418990453	-1.4629258179	-1.0965501498	 0.087716
H	 1.1562479804	 0.3261801078	-1.8940086678	 0.060184
H	-0.8693884873	-0.5447474104	-0.4601214605	 0.057129
262.7617	293.8807	364.5588	409.9709	431.6992	552.279	593.0615	664.9528	743.651	764.6665	769.3496	809.1476	829.5843	839.5223	892.0153	909.5558	929.0323	951.8273	960.7022	979.2438	993.0846	1022.359	1046.6546	1069.3686	1090.418	1105.1704	1120.6235	1128.7544	1183.5938	1205.4585	1231.9369	1253.0024	1265.7479	1280.3785	1298.0733	1317.3242	1324.7566	1333.261	1359.7798	1372.0074	1380.1026	1482.0691	1487.8809	1514.3764	1661.5942	3031.3894	3039.3358	3050.5347	3052.8875	3064.6917	3067.523	3071.6002	3079.9834	3083.4092	3100.1444	3178.7016	3205.3947
C1C2CCC3C=CC2C13	C1[C@H]2CC[C@@H]3C=C[C@H]2[C@H]13	
InChI=1S/C9H12/c1-2-7-5-9-6(1)3-4-8(7)9/h3-4,6-9H,1-2,5H2	InChI=1S/C9H12/c1-2-7-5-9-6(1)3-4-8(7)9/h3-4,6-9H,1-2,5H2/t6-,7-,8-,9-/m1/s1
