19
gdb 73352	2.47974	2.00443	1.62644	1.2877	77.94	-0.2282	0.0134	0.2416	920.1119	0.161436	-385.891883	-385.884762	-385.883817	-385.922836	30.014	
O	-0.0963076847	 1.4199531397	 0.0010636329	-0.499486
C	 0.0134387923	 0.0085948061	 0.0213581555	 0.371307
C	 0.6906086233	-0.6020492577	-1.2355379711	-0.247613
C	 0.1981064961	-2.0694774751	-1.2498674256	-0.241567
C	-1.1747147235	-2.0172977327	-0.5671530457	-0.048833
C	-1.2755385776	-1.8204366999	 0.9578867442	-0.09625
C	-0.0174474692	-1.6183275318	 1.7319304749	-0.071032
C	 0.6793053131	-0.5827932809	 1.2592968087	-0.166525
C	-1.3857010256	-0.6493575816	 0.0119736889	-0.09981
H	 0.7922149568	 1.7900883424	 0.0169400956	 0.274065
H	 0.3165955663	-0.0602681715	-2.1121884168	 0.101873
H	 1.7832693295	-0.5145930574	-1.2211214273	 0.081907
H	 0.108601179	-2.4545307355	-2.2690782458	 0.099213
H	 0.8937453333	-2.7257154645	-0.7171703335	 0.103676
H	-2.0010448095	-2.5491563521	-1.0265150065	 0.083905
H	-2.1513045719	-2.2376183417	 1.4436522077	 0.082357
H	 0.2863370186	-2.266065189	 2.5467487853	 0.095622
H	 1.6636277836	-0.2684424149	 1.5917015465	 0.085674
H	-2.2713885501	-0.0393756217	-0.1107725081	 0.091519
173.0616	206.6083	280.2981	313.355	386.5367	414.2388	516.259	600.5642	636.7011	678.4986	733.3739	746.1149	786.6128	805.6271	815.9158	859.6164	924.9717	933.4287	953.5595	980.6604	1002.1795	1017.859	1034.493	1052.4352	1087.4043	1110.7643	1118.5937	1131.7641	1162.1318	1206.8112	1227.7271	1267.2924	1298.9954	1321.8096	1334.5928	1363.3444	1383.1159	1393.661	1481.29	1494.3105	1660.2026	3027.9855	3051.533	3073.895	3096.0543	3158.8884	3167.2356	3174.4728	3196.7426	3202.8389	3815.7721
OC12CCC3C(C=C1)C23	O[C@@]12CC[C@H]3[C@@H](C=C1)[C@@H]23	
InChI=1S/C8H10O/c9-8-3-1-5-6(2-4-8)7(5)8/h1,3,5-7,9H,2,4H2	InChI=1S/C8H10O/c9-8-3-1-5-6(2-4-8)7(5)8/h1,3,5-7,9H,2,4H2/t5-,6+,7-,8-/m1/s1
