17
gdb 7086	5.62711	1.02538	0.94163	0.8164	71.09	-0.2253	-0.0086	0.2167	1246.6179	0.142244	-397.224099	-397.215199	-397.214254	-397.25814	31.694	
C	-0.033723167	 1.3990724529	-0.4658402575	-0.36512
C	-0.4049348751	-0.0752636228	-0.2505546987	-0.149044
N	 0.596882032	-0.7860022151	 0.5236420688	-0.326591
C	 0.4776750291	-0.8337076676	 1.7932575631	 0.460894
N	-0.5004809994	-0.3322859294	 2.6064935357	-0.569158
N	 1.4872320285	-1.5647102287	 2.466837993	-0.337571
C	 1.7119814364	-1.6954702378	 3.8029903771	 0.175622
O	 1.0404353037	-1.2189851421	 4.699833141	-0.332291
H	 0.9524665828	 1.4754422225	-0.9324075815	 0.128192
H	-0.7642419757	 1.8948380539	-1.1135167374	 0.110672
H	 0.0063707602	 1.9456471635	 0.4828247849	 0.107091
H	-1.4127321711	-0.1450567988	 0.1930226437	 0.081873
H	-0.4740108944	-0.5651060402	-1.2286322899	 0.103915
H	-1.0776051137	 0.4032652425	 2.2395876206	 0.261119
H	-0.319301637	-0.3511264022	 3.602839834	 0.283406
H	 2.1394619655	-1.9872012893	 1.8220037502	 0.266943
H	 2.6086852653	-2.3098070214	 4.0019171731	 0.100047
48.656	76.0968	144.217	199.8084	261.0304	282.7655	331.7454	357.0187	406.3373	465.8903	563.015	603.4519	677.1415	728.4031	783.3383	825.284	899.5964	929.5072	1028.1702	1036.4017	1098.0037	1154.8139	1173.8955	1208.5288	1304.9589	1369.0818	1384.4824	1402.7176	1443.3634	1488.9292	1496.1938	1502.4151	1524.3987	1627.2389	1749.7557	1788.0358	2957.0148	2973.5112	3031.1778	3044.5644	3098.7964	3115.7148	3519.8047	3621.8331	3710.6808
CCN=C(N)NC=O	CCN=C(N)NC=O	
InChI=1S/C4H9N3O/c1-2-6-4(5)7-3-8/h3H,2H2,1H3,(H3,5,6,7,8)	InChI=1S/C4H9N3O/c1-2-6-4(5)7-3-8/h3H,2H2,1H3,(H3,5,6,7,8)
