15
gdb 67760	2.63084	2.05569	1.60031	1.8277	70.08	-0.2471	-0.0227	0.2243	862.6058	0.113353	-416.75746	-416.750595	-416.74965	-416.788316	27.907	
O	 0.0634667699	 1.4107317772	-0.0446447537	-0.490698
C	 0.0040023887	 0.0319699943	-0.0828496594	 0.311044
C	 0.7869271314	-0.6563723926	-1.1816481594	-0.134172
C	 0.318489735	-1.8951118343	-1.346916166	-0.089376
C	-0.8587525205	-2.096405783	-0.4532502795	-0.063167
C	-1.3430682144	-0.7913380098	 0.0039156139	-0.115375
N	-0.7285082275	-1.7425496836	 1.046942923	-0.222017
C	 0.2878593804	-0.7383943199	 1.2051596644	 0.341859
N	 0.9560967772	-0.3670395299	 2.2047204207	-0.555279
H	 0.2743495806	 1.659878595	 0.8651460855	 0.301602
H	 1.6740311674	-0.2096691115	-1.6100046869	 0.125133
H	 0.7306533996	-2.6773769433	-1.9691614085	 0.116601
H	-1.5229399292	-2.9447314427	-0.563854213	 0.115639
H	-2.3548401257	-0.4200505689	 0.1112927232	 0.12528
H	 0.8226356472	-1.0032704669	 2.9940918057	 0.232927
144.0791	222.214	313.4647	357.1696	379.1747	423.4058	531.9948	623.556	638.9275	684.269	716.1148	732.0549	798.858	813.4749	841.0912	866.6888	923.5313	927.7503	957.0437	973.3821	1025.4385	1057.223	1087.3293	1114.9212	1185.3521	1232.636	1262.504	1295.2714	1342.5162	1362.2622	1407.8409	1647.489	1789.6005	3190.8503	3201.4849	3221.3514	3244.4727	3455.336	3764.0884
OC12C=CC3C1N3C2=N	O[C@]12C=C[C@@H]3[C@H]1N3[C]2[NH]	
InChI=1S/C6H6N2O/c7-5-6(9)2-1-3-4(6)8(3)5/h1-4,7,9H	InChI=1S/C6H6N2O/c7-5-6(9)2-1-3-4(6)8(3)5/h1-4,7,9H/t3-,4-,6-,8?/m1/s1
