17
gdb 23510	3.93434	1.30603	1.17417	1.4751	75.41	-0.2283	0.0032	0.2314	1061.2452	0.137793	-417.935708	-417.928648	-417.927703	-417.967141	28.387	
O	-0.11422308	 1.3452638361	 0.1134655869	-0.39219
N	 0.0321601158	-0.0514691731	 0.0301864624	-0.256262
C	-1.1019484846	-0.6215530809	-0.0605523957	 0.440303
C	-2.4906200671	-0.0219615847	-0.0596338051	-0.311127
C	-3.3378478723	-1.2284700316	-0.4582135731	-0.006675
C	-2.9931777762	-1.7400599798	-1.8827195442	-0.258359
C	-2.0697616193	-2.7250016782	-1.186511062	-0.024108
C	-1.2521124511	-2.0962886978	-0.1026876562	-0.126765
N	-2.6684646558	-2.4657411757	 0.1698021892	-0.154912
H	 0.7995849428	 1.6411486873	 0.1836485252	 0.307473
H	-2.7389392818	 0.3314170589	 0.9487228096	 0.133586
H	-2.5825710583	 0.8285200372	-0.740432616	 0.132175
H	-4.3935241612	-1.1560414614	-0.2022435722	 0.087293
H	-3.8383634108	-2.2520980225	-2.3472500613	 0.116449
H	-2.563036729	-1.031365252	-2.5974665319	 0.10652
H	-1.8423427427	-3.7326389306	-1.5224639789	 0.097725
H	-0.5037167984	-2.7166004011	 0.3765802833	 0.108876
99.1757	217.0538	249.2348	361.8025	374.7254	443.3383	480.9329	544.3351	639.995	707.5306	756.0297	796.6246	801.4901	846.427	864.5009	878.9778	969.6148	980.4913	991.6833	1020.3158	1048.0415	1063.7396	1083.8843	1130.6419	1158.9614	1164.7972	1232.5769	1251.048	1263.3453	1292.7368	1321.4363	1353.1321	1370.2367	1420.7062	1462.3094	1494.1721	1757.7739	3040.4664	3049.4447	3099.6591	3111.2999	3128.3899	3151.9385	3189.5834	3819.3231
ON=C1CC2CC3C1N23	ON=C1C[C@H]2C[C@H]3[C@@H]1N23	
InChI=1S/C6H8N2O/c9-7-4-1-3-2-5-6(4)8(3)5/h3,5-6,9H,1-2H2	InChI=1S/C6H8N2O/c9-7-4-1-3-2-5-6(4)8(3)5/h3,5-6,9H,1-2H2/t3-,5-,6+,8?/m0/s1
