20
gdb 78269	2.51389	1.48916	1.18124	0.9446	79.71	-0.2001	0.0695	0.2696	1141.181	0.168428	-403.043949	-403.034777	-403.033833	-403.077562	35.158	
C	-0.0451049106	 1.6502985043	 0.0262325115	-0.395078
C	 0.137082935	 0.1368481552	 0.0951702776	-0.079396
C	 1.3650889126	-0.7198298632	-0.2058148785	-0.174724
C	 2.682611114	-0.2235197626	 0.4476187144	-0.027504
C	 2.0631274957	-0.2442469455	 1.791468788	-0.126435
N	 2.4547238103	 1.0405581674	 1.1822557271	-0.104811
C	 3.6804338342	 1.5889940003	 1.7574337934	-0.32211
C	 0.7184593691	-0.7455900382	 1.1698297594	 0.343461
O	 0.0323730736	-1.8012239765	 1.7462557339	-0.455271
H	 0.7250840896	 2.1233825496	-0.5845567826	 0.126546
H	-1.0208859145	 1.8833623803	-0.4151817476	 0.092738
H	 0.0018950661	 2.1138893414	 1.0130289972	 0.120504
H	-0.7197948432	-0.4032586787	-0.3094074503	 0.093558
H	 1.3497075357	-1.4811968512	-0.9755782474	 0.094202
H	 3.6821374765	-0.5092603602	 0.1449391915	 0.09195
H	 2.4679852174	-0.5740015929	 2.7405051029	 0.092837
H	 4.4049594032	 0.8208734069	 2.0789394198	 0.097167
H	 4.168225662	 2.2299172298	 1.0162750393	 0.124395
H	 3.4254016665	 2.2023607126	 2.6274154844	 0.123188
H	-0.6467620433	-1.4372758988	 2.325754456	 0.284783
59.7009	170.1931	186.0031	211.1184	253.0617	266.7414	285.1213	323.6024	381.509	425.4372	509.8142	576.7821	665.7501	728.3999	772.6092	806.2699	844.187	851.5307	886.3226	951.2167	964.659	983.6719	1026.3105	1063.5331	1107.4938	1111.6975	1117.8548	1131.6981	1148.0147	1192.2962	1212.8639	1245.606	1287.2933	1312.8174	1341.5188	1352.0405	1418.9139	1449.0056	1472.3443	1487.6627	1490.7392	1491.3186	1498.7555	2953.2631	3035.6582	3065.3475	3100.2112	3103.4496	3116.9369	3136.9558	3183.2207	3191.5556	3199.6884	3781.526
CC1C2C3C(N3C)C12O	C[C@H]1[C@H]2[C@@H]3[C@@H](N3C)[C@@]12O	
InChI=1S/C7H11NO/c1-3-4-5-6(8(5)2)7(3,4)9/h3-6,9H,1-2H3	InChI=1S/C7H11NO/c1-3-4-5-6(8(5)2)7(3,4)9/h3-6,9H,1-2H3/t3-,4-,5+,6+,7+,8?/m0/s1
