17
gdb 14905	4.43647	1.45852	1.1829	4.4068	73.89	-0.262	0.0019	0.264	1007.9471	0.144748	-326.763236	-326.756053	-326.755109	-326.794743	27.36	
N	-0.0268859272	-1.1791596192	-0.0601295013	-0.324844
C	-0.0122014013	-0.0239904772	-0.0240836621	 0.256452
C	 0.0046098562	 1.4423227418	 0.0257352461	-0.174801
C	-0.7731969874	 1.9611759712	 1.2581312709	-0.202266
C	-0.5439418784	 3.4656005043	 1.4332449352	-0.22205
C	 0.941355976	 3.7741268199	 1.6692620713	-0.241473
C	 1.8354907152	 2.9967227075	 0.7402575902	-0.060648
C	 1.4313479226	 1.9662484814	 0.0011314318	-0.046059
H	-0.5112778308	 1.784322546	-0.8846301549	 0.13311
H	-1.8366296764	 1.7328497464	 1.1429005362	 0.11477
H	-0.4228541313	 1.4245488984	 2.1469620936	 0.122462
H	-0.8862095206	 3.9903624282	 0.5321555231	 0.105516
H	-1.1478716437	 3.842131077	 2.2646880217	 0.103313
H	 1.130245511	 4.8478581601	 1.548961182	 0.110693
H	 1.2171707938	 3.5447842932	 2.7091462813	 0.117735
H	 2.8747401936	 3.3109384249	 0.678961089	 0.098241
H	 2.1218533987	 1.4528892161	-0.6607937541	 0.109849
88.6829	158.0975	231.7391	278.6279	391.9174	428.1789	454.7653	557.3119	584.778	664.8631	737.311	806.4183	864.9406	905.9329	933.8269	952.5295	1009.1865	1044.0494	1062.3869	1072.6106	1092.5051	1153.2575	1214.8097	1251.6415	1270.0218	1302.0571	1320.6886	1357.1997	1375.8561	1381.4133	1417.451	1473.8563	1490.7231	1497.4061	1724.736	2356.5637	2990.1733	3003.9996	3026.7177	3046.494	3049.4964	3081.2459	3095.1	3152.5581	3182.9627
N#CC1CCCC=C1	N#C[C@H]1CCCC=C1	
InChI=1S/C7H9N/c8-6-7-4-2-1-3-5-7/h2,4,7H,1,3,5H2	InChI=1S/C7H9N/c8-6-7-4-2-1-3-5-7/h2,4,7H,1,3,5H2/t7-/m1/s1
