19
gdb 47723	2.43868	1.65493	1.12873	4.1088	75.33	-0.2411	-0.0231	0.218	1106.4528	0.160139	-423.0423	-423.034299	-423.033355	-423.075025	30.954	
O	 0.0334435744	 0.0051597706	 0.2824897054	-0.303676
C	-0.0097877102	 1.1963066759	 0.0929485403	 0.315301
C	-1.3201730369	 1.9648599142	-0.0360680451	-0.303307
C	-1.2734197487	 3.1001262326	-1.0722362037	-0.206131
C	-0.0725344399	 4.021978729	-0.8289355817	-0.204094
C	 1.2406732623	 3.2319859716	-0.906970102	-0.288415
C	 1.2501782241	 2.0476296342	 0.0435139769	 0.331021
C	 2.074314913	 2.0545633715	 1.2747881653	-0.215363
O	 2.4739765108	 1.327319343	 0.1227250151	-0.258695
H	-2.1156910866	 1.2426686349	-0.2363904994	 0.125408
H	-1.5221541418	 2.397240446	 0.9556926282	 0.123755
H	-1.2052323047	 2.6726507211	-2.0810402361	 0.109107
H	-2.209708304	 3.666594092	-1.0370875084	 0.104549
H	-0.0587778504	 4.8334427756	-1.5637825375	 0.103344
H	-0.1650675106	 4.493284401	 0.1587549662	 0.099168
H	 1.3704394839	 2.8466291801	-1.9272232019	 0.117321
H	 2.1062606574	 3.8694982397	-0.701247576	 0.106817
H	 2.6622050024	 2.9422684638	 1.508459685	 0.115498
H	 1.7719131352	 1.4451749232	 2.1251436094	 0.128392
66.8261	126.4881	241.6041	276.5506	299.5361	366.2911	389.4158	429.1824	498.8272	574.3798	632.9251	675.8114	805.4575	843.8215	857.2031	900.49	909.9672	942.4501	967.3142	980.9835	1072.792	1093.3355	1121.8294	1133.7489	1143.7593	1165.7554	1178.8706	1259.7028	1276.4398	1291.5542	1341.1047	1351.3574	1368.5849	1377.5658	1401.2535	1458.7309	1486.4205	1492.3739	1502.9629	1515.6445	1817.8455	3005.7837	3018.2075	3024.017	3029.1633	3073.9696	3075.5007	3076.3781	3080.2013	3101.9535	3170.4567
O=C1CCCCC11CO1	O=C1CCCC[C@]21CO2	
InChI=1S/C7H10O2/c8-6-3-1-2-4-7(6)5-9-7/h1-5H2	InChI=1S/C7H10O2/c8-6-3-1-2-4-7(6)5-9-7/h1-5H2/t7-/m1/s1
