17
gdb 41077	4.08994	1.83502	1.64747	1.9215	74.23	-0.2456	0.0706	0.3162	841.3955	0.138121	-384.557985	-384.552269	-384.551325	-384.587657	25.141	
C	 0.135179302	 1.4702437329	-0.2236303887	-0.21312
O	 1.499165496	 1.3575724387	 0.2881518946	-0.310941
C	 1.145561083	 0.1442244233	 1.0342726819	 0.113112
C	 1.5619848141	-1.2471627331	 0.5414069535	-0.122512
C	 0.3106370304	-2.1374734357	 0.8888726174	-0.077651
C	-0.224348328	-2.1458550056	-0.5230603494	-0.1012
C	-0.8896594957	-1.2269005103	 0.4712369043	-0.221134
C	-0.0517081192	-0.0064915623	 0.0900060875	 0.318261
C	 0.7979723443	-1.0069743065	-0.8022524423	-0.078934
H	-0.459760236	 2.1619564638	 0.3891816743	 0.101524
H	 0.1108597584	 1.7845199385	-1.2723012218	 0.108418
H	 1.0629462529	 0.3487833706	 2.1070524816	 0.069969
H	 2.5479614853	-1.7016230828	 0.641350662	 0.068269
H	 0.2107346206	-2.8902480508	 1.6598667994	 0.090563
H	-0.6190417854	-2.9503868428	-1.1295201924	 0.089287
H	-1.852669401	-1.3132345866	 0.9572448094	 0.089529
H	 1.2409964585	-0.7220898115	-1.7515958012	 0.076561
253.9161	301.7434	379.6442	535.9239	556.2659	696.6767	729.1813	764.365	793.7933	804.5427	844.0244	859.1571	874.2668	891.5987	908.9783	924.8343	946.7709	981.6033	999.5704	1018.0344	1032.9046	1039.887	1058.8463	1091.4863	1121.9709	1157.1573	1164.378	1174.1606	1185.9359	1222.2837	1240.4432	1252.4383	1296.3249	1303.5494	1351.5346	1360.3132	1514.9633	3001.6236	3050.6819	3073.0303	3110.5917	3163.1386	3191.714	3194.9391	3208.9429
C1OC2C3C4C5C4C12C35	C1O[C@@H]2[C@H]3[C@@H]4[C@H]5[C@@H]4[C@@]12[C@@H]35	
InChI=1S/C8H8O/c1-8-5-2-3(5)6(8)4(2)7(8)9-1/h2-7H,1H2	InChI=1S/C8H8O/c1-8-5-2-3(5)6(8)4(2)7(8)9-1/h2-7H,1H2/t2-,3-,4-,5+,6+,7+,8+/m0/s1
