18
gdb 92381	2.20529	1.6388	1.28892	4.5307	76.37	-0.2708	-0.0012	0.2696	1068.0642	0.147802	-401.931877	-401.923616	-401.922672	-401.964773	31.114	
C	 0.2506014196	 1.5916663812	 0.0130896677	-0.411185
C	 0.0737736983	 0.0837177452	 0.0507114541	-0.023648
C	 0.902409496	-0.8094062889	-0.9297238795	-0.25759
C	 1.4049992887	-1.6795978618	 0.2550751322	-0.137923
C	 2.7083329631	-1.1804064121	 0.890235025	-0.086775
O	 2.0002094302	-0.1601318133	 1.6454603934	-0.319206
C	 0.7166043094	-0.6819328066	 1.2454825749	 0.305651
C	-0.1214066758	-1.0522975845	 2.3729315341	 0.233823
N	-0.8148623161	-1.3586625582	 3.2461144344	-0.34036
H	 1.2990793966	 1.8599415313	 0.1672287645	 0.134123
H	-0.0721550816	 1.990258431	-0.9541392739	 0.119858
H	-0.3417240388	 2.0802859132	 0.7935070649	 0.130676
H	-0.9863779872	-0.1831231095	-0.0058890901	 0.094226
H	 0.300252232	-1.3449570498	-1.6652919982	 0.115606
H	 1.7038967828	-0.2830736942	-1.4560503314	 0.109187
H	 1.2033171251	-2.748184169	 0.2370758343	 0.102555
H	 3.1950453004	-1.8957618306	 1.5636169867	 0.118697
H	 3.4529655572	-0.7472012734	 0.2135883169	 0.112283
88.3771	128.0193	175.3385	216.1708	243.7913	334.7873	360.948	463.9241	513.0204	552.4504	593.5219	633.0252	798.6394	825.1764	881.2277	920.1583	950.1052	990.1943	994.3855	1019.5826	1035.4457	1104.2413	1114.6353	1129.3839	1151.8723	1155.1969	1194.6137	1215.6716	1267.9015	1292.5469	1317.0322	1346.774	1358.093	1407.6838	1486.8564	1488.4745	1502.6819	1522.5007	2348.6005	3025.6885	3038.863	3057.5668	3062.826	3077.4959	3104.5153	3120.2324	3124.1519	3143.1642
CC1CC2COC12C#N	C[C@H]1C[C@H]2CO[C@@]12C#N	
InChI=1S/C7H9NO/c1-5-2-6-3-9-7(5,6)4-8/h5-6H,2-3H2,1H3	InChI=1S/C7H9NO/c1-5-2-6-3-9-7(5,6)4-8/h5-6H,2-3H2,1H3/t5-,6-,7-/m0/s1
