15
gdb 53370	3.43851	0.92881	0.85397	3.5822	69.89	-0.2738	0.001	0.2747	1385.7062	0.111211	-457.769936	-457.761173	-457.760229	-457.805636	29.86	
C	-0.1672421978	 1.3814948317	 0.0650324707	-0.501266
C	-0.0995176615	-0.0698859962	 0.0088494012	 0.068022
C	-0.0480677891	-1.2712729307	-0.0388817241	 0.131314
C	 0.0388141366	-2.7296336924	-0.1052602387	-0.036291
O	 0.7828761654	-3.288539134	 0.9630960434	-0.229038
C	-0.150663826	-3.6146753622	 1.9752987364	-0.229902
C	-1.4685453509	-3.7928810514	 1.2311952929	 0.409739
O	-2.4997799074	-4.2536856024	 1.6138486942	-0.318507
O	-1.2718967832	-3.3150124914	-0.0302084217	-0.202822
H	 0.4454331012	 1.7722084031	 0.8842788378	 0.159177
H	 0.193554211	 1.8285950076	-0.8671775077	 0.159221
H	-1.1964815186	 1.7199164898	 0.2240056938	 0.161674
H	 0.497069462	-3.0611497782	-1.0411183125	 0.133913
H	 0.1526732904	-4.5389291319	 2.4708472979	 0.153555
H	-0.253929052	-2.8192614515	 2.7270545064	 0.14121
22.7178	57.7488	92.0145	167.0725	178.2643	326.1618	347.1649	460.7504	474.8468	544.0679	570.2446	680.9409	767.0049	838.1434	873.5272	951.0002	1002.9094	1042.4176	1051.8686	1052.433	1087.2447	1167.6831	1208.5805	1214.6471	1327.9756	1355.149	1378.2516	1413.0557	1473.9918	1474.5423	1488.6483	1906.6109	2373.5229	3015.4156	3034.231	3079.4359	3099.1192	3099.6476	3116.9181
CC#CC1OCC(=O)O1	CC#C[C@H]1OCC(=O)O1	
InChI=1S/C6H6O3/c1-2-3-6-8-4-5(7)9-6/h6H,4H2,1H3	InChI=1S/C6H6O3/c1-2-3-6-8-4-5(7)9-6/h6H,4H2,1H3/t6-/m0/s1
