15
gdb 111942	3.17804	1.32972	0.9752	4.3201	69.86	-0.2294	-0.0967	0.1328	1155.2662	0.111274	-457.779443	-457.771107	-457.770163	-457.813061	29.625	
C	-0.5765891893	 1.1128999412	-0.1567418497	-0.245366
O	 0.5360653151	 0.2655964079	 0.0985889422	-0.24685
C	 0.984951617	-0.4461646706	-1.0285399451	-0.035885
C	 2.3428521539	-1.0395618391	-0.7499744699	-0.080202
C	 2.4265343817	-2.3570325584	-0.9936334239	-0.182172
C	 1.1217219562	-2.9037477687	-1.4132867137	 0.299306
O	 0.8324251669	-4.0234982458	-1.7522878566	-0.295201
C	 0.1397352791	-1.6989437889	-1.3497489064	 0.293935
O	-1.0509809295	-1.754311787	-1.4872843785	-0.277742
H	-0.3352893989	 1.8566718466	-0.9313178013	 0.108403
H	-1.4539426442	 0.5398403376	-0.472880694	 0.148112
H	-0.7935228905	 1.6308581844	 0.7795994367	 0.134013
H	 1.0188731436	 0.2094120194	-1.9172107023	 0.104842
H	 3.1470657091	-0.4140337644	-0.3784665206	 0.138142
H	 3.3090812598	-2.9741647443	-0.881106457	 0.136664
49.8714	114.4213	179.1292	200.0331	260.4611	301.594	318.3578	396.8482	484.2068	560.1654	648.7613	702.8504	733.2117	750.02	876.7421	978.3323	1010.2202	1021.7101	1032.6443	1113.6609	1154.1445	1182.3969	1187.7471	1223.0141	1275.7437	1340.7295	1376.5265	1476.3949	1484.4798	1514.813	1636.1361	1824.1828	1858.9285	2945.1762	2992.0872	3082.6279	3133.8519	3196.8721	3224.6508
COC1C=CC(=O)C1=O	CO[C@H]1C=CC(=O)C1=O	
InChI=1S/C6H6O3/c1-9-5-3-2-4(7)6(5)8/h2-3,5H,1H3	InChI=1S/C6H6O3/c1-9-5-3-2-4(7)6(5)8/h2-3,5H,1H3/t5-/m0/s1
