17
gdb 47074	3.01805	1.62818	1.09486	4.9405	75.66	-0.2243	-0.0619	0.1624	1071.3595	0.138797	-418.040873	-418.033556	-418.032612	-418.072861	27.724	
O	 0.0102541539	 0.0288541469	-0.3624980771	-0.284463
C	 0.0209006948	 1.2087352023	-0.1397375659	 0.326982
C	-1.1947392219	 2.1277512052	 0.0568208283	-0.33259
C	-0.6341656435	 3.5642034834	-0.0445358644	-0.189174
N	 0.7713837702	 3.3836717628	 0.2969602331	-0.081417
C	 1.8744349485	 4.2867373009	-0.0204413089	-0.197527
C	 3.0649198838	 3.2748142199	-0.0249545288	-0.174563
N	 2.4665326763	 1.9339057564	-0.2219710238	-0.331136
C	 1.2186170679	 2.1102488663	-0.0196682721	 0.285898
H	-1.978455214	 1.9032797369	-0.6686440314	 0.142631
H	-1.6028594034	 1.9329045245	 1.0549864833	 0.149252
H	-0.7486630422	 3.9615329283	-1.0662559986	 0.10709
H	-1.1265784893	 4.2615099635	 0.6394208167	 0.119255
H	 1.7232148618	 4.7508801263	-1.0085888091	 0.101453
H	 1.9863631901	 5.0835554295	 0.7193459867	 0.116791
H	 3.8028519792	 3.4853634733	-0.8030996717	 0.120311
H	 3.5923266879	 3.2870367036	 0.9378308437	 0.121206
105.4546	169.0197	180.8852	225.5332	302.8665	475.6962	510.9583	577.1442	617.995	674.9701	695.9606	795.6952	844.867	864.6254	926.9954	977.854	980.6113	1048.3869	1054.9039	1081.0955	1098.6017	1184.0711	1203.7845	1222.0498	1231.1008	1253.3397	1275.367	1285.5182	1336.7506	1338.6232	1423.5547	1449.2646	1488.0866	1517.0799	1537.6551	1705.1018	1857.4358	2971.5249	2973.5601	3024.5466	3056.2583	3073.8397	3084.3655	3095.2022	3126.5487
O=C1CCN2CCN=C12	O=C1CCN2CC[N][C]12	
InChI=1S/C6H8N2O/c9-5-1-3-8-4-2-7-6(5)8/h1-4H2	InChI=1S/C6H8N2O/c9-5-1-3-8-4-2-7-6(5)8/h1-4H2
