21
gdb 119746	2.78327	0.94315	0.74849	1.7094	82.81	-0.2214	0.0244	0.2458	1540.896	0.181217	-424.230539	-424.220365	-424.219421	-424.266823	35.676	
C	 0.1998096276	 1.5378000946	 0.1303520825	-0.501457
C	 0.0587459641	 0.0583481698	-0.0274786954	 0.181349
C	-1.042269826	-0.6942989842	-0.1071398974	 0.182082
C	-2.4809779418	-0.2793021617	-0.0590879287	-0.302669
C	-3.2060982279	-0.4377519525	-1.3993934032	-0.064111
O	-4.5494088334	-0.026191554	-1.2037299973	-0.417784
C	-0.6376885101	-2.143206508	-0.2393718705	-0.149531
O	 0.7836406868	-2.1553475246	-0.2576376278	-0.263772
C	 1.273860163	-0.8302005457	-0.1028242085	-0.139834
H	 0.7751373393	 1.784644226	 1.0318140316	 0.129387
H	 0.7451156735	 1.9751828273	-0.7158167742	 0.129208
H	-0.7674404765	 2.0408057927	 0.2004377779	 0.130345
H	-3.0225605684	-0.8796459542	 0.684107433	 0.113737
H	-2.5756896617	 0.7649506614	 0.2538908616	 0.112948
H	-2.7018912887	 0.1757954572	-2.1624377996	 0.090651
H	-3.1552956053	-1.4851375225	-1.7356003606	 0.089844
H	-5.0188047224	-0.1221415383	-2.0374053597	 0.286951
H	-1.0128395732	-2.7491985182	 0.6033656595	 0.098732
H	-1.0199352773	-2.6127141392	-1.1602642386	 0.099199
H	 1.92821025	-0.5721704676	-0.9522613877	 0.097724
H	 1.8930202882	-0.7569877681	 0.8078282529	 0.097002
40.8698	82.3801	99.5204	123.8661	161.7252	208.9157	258.6482	270.2569	321.3559	337.7039	403.1419	541.1047	613.2697	697.2967	795.8242	837.3574	927.3646	954.2304	961.3796	1006.6004	1021.0019	1049.7516	1081.3384	1095.1277	1099.0545	1146.5784	1175.0596	1199.7722	1225.5103	1235.4565	1240.9161	1282.054	1314.9246	1335.4522	1379.1142	1395.2049	1418.5137	1454.9308	1480.3643	1482.8804	1495.9393	1517.5377	1527.6142	1530.7105	1753.3265	2949.9792	2958.1084	2967.9005	2969.7529	2976.3996	2999.829	3018.7528	3025.6174	3062.1016	3086.0369	3118.1053	3831.6927
CC1=C(CCO)COC1	CC1=C(CCO)COC1	
InChI=1S/C7H12O2/c1-6-4-9-5-7(6)2-3-8/h8H,2-5H2,1H3	InChI=1S/C7H12O2/c1-6-4-9-5-7(6)2-3-8/h8H,2-5H2,1H3
