21
gdb 82859	2.49621	1.98179	1.7055	1.7271	79.8	-0.2319	0.0866	0.3185	936.8407	0.186504	-387.102288	-387.09545	-387.094506	-387.133029	29.322	
C	-0.2106690767	 1.5430884375	-0.0398975016	-0.420345
C	 0.0502183325	 0.0393960136	-0.0097915183	 0.029815
C	 0.8167489691	-0.5024764907	-1.2418334385	 0.090148
O	 2.0184274422	 0.277475349	-1.4621830705	-0.30076
C	 2.6953089182	-0.5477001428	-0.4818908534	 0.107181
C	 2.3979088945	-0.0121581895	 0.9330338156	-0.230047
C	 0.9427300752	-0.5051829198	 1.1448515875	-0.041578
C	 1.0802880014	-1.9871734634	 0.7287934297	-0.239134
C	 1.6447376226	-1.688313139	-0.6597238459	-0.06573
H	 0.7132927749	 2.1022385893	-0.2021640101	 0.133819
H	-0.8972947342	 1.8018987216	-0.8535934363	 0.110842
H	-0.6647336069	 1.8825203233	 0.8970451004	 0.107036
H	-0.9137930951	-0.485533416	 0.0435523102	 0.065653
H	 0.2232160531	-0.606737689	-2.1534277669	 0.068401
H	 3.7494836693	-0.6965497907	-0.7250786956	 0.071385
H	 3.0638226555	-0.4669782121	 1.6756912979	 0.092197
H	 2.5244348218	 1.0719525216	 0.9804356549	 0.106514
H	 0.5420407466	-0.3206618019	 2.1436950792	 0.056736
H	 1.7745389053	-2.5517323792	 1.3596501736	 0.092904
H	 0.1237096657	-2.5184484643	 0.7015547175	 0.094473
H	 1.8988051451	-2.5062452675	-1.3306286698	 0.070491
192.433	211.6101	252.4617	406.3836	415.3092	456.5028	516.9126	602.5227	644.8056	742.3233	811.8901	833.333	851.1732	876.9936	896.7392	908.3078	914.8948	949.4397	962.0493	975.4827	999.5552	1019.0756	1028.5752	1070.3859	1101.1017	1125.6129	1129.3319	1154.4426	1164.3662	1221.366	1239.245	1258.6288	1274.5229	1280.6197	1305.6416	1315.0769	1344.9334	1346.6245	1360.0334	1375.2662	1410.101	1476.9862	1493.3758	1495.1018	1510.2072	3004.8653	3035.3006	3039.8862	3046.5502	3078.4301	3086.7203	3091.0444	3091.9631	3093.0683	3106.8669	3129.2533	3139.8952
CC1C2OC3CC1CC23	C[C@H]1[C@H]2O[C@H]3C[C@@H]1C[C@@H]23	
InChI=1S/C8H12O/c1-4-5-2-6-7(3-5)9-8(4)6/h4-8H,2-3H2,1H3	InChI=1S/C8H12O/c1-4-5-2-6-7(3-5)9-8(4)6/h4-8H,2-3H2,1H3/t4-,5+,6-,7+,8-/m1/s1
