15
gdb 125139	2.62824	1.58425	0.99453	0.3752	70.09	-0.2623	-0.0493	0.2131	1119.1637	0.11255	-453.983686	-453.975104	-453.97416	-454.017453	30.505	
C	-0.003300919	 1.5448781475	 0.1137781066	-0.522889
C	 0.0214222854	 0.0537329604	 0.0109666185	 0.072266
C	 0.0135909061	-0.7397118604	-1.1005649554	 0.284688
O	 0.0439082479	-2.0457589426	-0.7444904992	-0.23784
N	 0.0727960313	-2.1407463535	 0.6370176642	-0.136392
C	 0.0591080883	-0.9032728913	 1.0672134387	-0.021703
C	-0.0202909162	-0.415798928	-2.5501580453	 0.321887
N	-0.0162217912	-1.4993205473	-3.3707138646	-0.533013
O	-0.0485820168	 0.7364670986	-2.9476434128	-0.363453
H	 0.8794983913	 1.9147973351	 0.6467194512	 0.13527
H	-0.0255377101	 1.9874846059	-0.8815305204	 0.177561
H	-0.8831972043	 1.8837713667	 0.6716480461	 0.135475
H	 0.0768941552	-0.7210189112	 2.1331065076	 0.138789
H	 0.0071600765	-2.4368893624	-3.0084403388	 0.280254
H	-0.0385105143	-1.3438937875	-4.3643464363	 0.2691
64.38	92.1498	173.7179	194.5971	216.7435	282.6325	303.6945	420.9398	488.2321	548.9003	650.316	659.18	669.3669	680.5661	799.3535	913.9404	945.4339	958.6897	1012.7751	1073.3269	1088.0534	1143.5128	1200.7285	1225.3499	1350.712	1401.0953	1419.763	1483.074	1499.521	1506.475	1609.4462	1667.5556	1779.2392	3037.4061	3087.4457	3160.741	3240.2317	3607.7664	3746.477
CC1=C(ON=C1)C(N)=O	Cc1c(onc1)C(=O)N	
InChI=1S/C5H6N2O2/c1-3-2-7-9-4(3)5(6)8/h2H,1H3,(H2,6,8)	InChI=1S/C5H6N2O2/c1-3-2-7-9-4(3)5(6)8/h2H,1H3,(H2,6,8)
