19
gdb 73917	2.57349	1.42735	1.00069	3.9714	85.97	-0.2369	-0.0479	0.1889	1201.6185	0.159332	-385.915451	-385.907071	-385.906126	-385.94836	31.92	
C	-0.0453715602	 1.5066751011	 0.1252289453	-0.507349
C	-0.0177177392	 0.0157525643	 0.0099458516	 0.242131
C	 0.0051708296	-0.7539360465	-1.1052805865	 0.11208
C	-0.0395177667	-2.2359487272	-0.7776908202	-0.319626
C	 0.0458666978	-2.2745066045	 0.7451114889	-0.04789
C	 1.2659710913	-1.6849152113	 1.3875680991	-0.278049
C	 0.014057504	-0.8310320528	 1.2331548957	-0.118417
C	 0.0533953114	-0.2885484163	-2.4848170308	 0.064943
O	 0.0874902622	-1.0298962089	-3.4477664069	-0.284409
H	 0.842143206	 1.8650520987	 0.6613159986	 0.141524
H	-0.093280248	 2.0140411018	-0.8392279646	 0.137785
H	-0.9122239729	 1.8221725249	 0.7192832047	 0.138022
H	-0.9710695434	-2.682972357	-1.145242909	 0.119048
H	 0.7738740943	-2.7845985434	-1.2650792529	 0.12572
H	-0.4900300691	-3.0467206255	 1.2836782374	 0.092076
H	 1.508463964	-2.0151916848	 2.3920647323	 0.116394
H	 2.1247311776	-1.4420685936	 0.7693930507	 0.11812
H	-0.5107819346	-0.5096720487	 2.1264728141	 0.090385
H	 0.0509271757	 0.8140021996	-2.6257303976	 0.05751
104.9589	154.6703	182.8595	201.2766	214.6226	306.7802	360.8604	392.1559	512.8147	576.8844	605.1192	678.6373	778.1535	797.513	820.247	886.9303	904.6241	972.1442	978.9188	1006.7487	1042.9148	1057.2209	1067.4383	1080.8842	1099.6021	1119.0593	1179.6944	1194.7199	1217.1708	1253.145	1331.0284	1371.8545	1379.1839	1410.7221	1431.1368	1472.9789	1476.6041	1482.0934	1485.7484	1671.0167	1762.6628	2888.2776	3025.6901	3037.0443	3070.142	3070.7051	3124.0752	3136.4196	3165.633	3182.6156	3214.481
CC1=C(CC2CC12)C=O	CC1=C(C[C@H]2C[C@@H]12)C=O	
InChI=1S/C8H10O/c1-5-7(4-9)2-6-3-8(5)6/h4,6,8H,2-3H2,1H3	InChI=1S/C8H10O/c1-5-7(4-9)2-6-3-8(5)6/h4,6,8H,2-3H2,1H3/t6-,8-/m0/s1
