18
gdb 79373	3.19777	1.387	1.10059	1.2428	83.81	-0.2411	0.0323	0.2734	1132.8533	0.146787	-364.68312	-364.675198	-364.674254	-364.715278	31.336	
C	-0.1123611749	 1.5887768958	-0.0162558348	-0.427923
C	-0.0420811574	 0.070633798	-0.0106536645	-0.007158
C	 1.1809623622	-0.6236099669	-0.6292697309	-0.057884
N	 2.0806974177	-0.2555438017	 0.5813093818	-0.181581
C	 2.5161123797	-1.7079042786	 0.6898633447	-0.234042
C	 1.0540054898	-1.8997005048	 0.2782690127	 0.252213
C	 0.2878091955	-3.0922538315	 0.0524398204	 0.051053
C	-0.3471313671	-4.0974236878	-0.1348651125	-0.366548
C	 0.6846580683	-0.6400542201	 1.1414181331	-0.057885
H	 0.8519722701	 2.0236828671	 0.2580980075	 0.142392
H	-0.3896754103	 1.962109197	-1.0079553851	 0.11623
H	-0.8665052694	 1.9463136523	 0.693097335	 0.11623
H	-0.995587485	-0.3943168282	-0.2822286842	 0.083598
H	 1.5786909718	-0.5883633835	-1.6457833038	 0.086752
H	 3.2888475235	-1.9905271777	-0.0319484195	 0.106928
H	 2.8025202748	-2.0066415069	 1.7031422289	 0.106928
H	-0.9081445788	-4.9838401522	-0.3003644761	 0.183946
H	 0.4959931494	-0.6242376603	 2.2170042976	 0.086752
113.413	154.3846	215.9019	235.3043	275.3215	410.8365	422.5005	526.594	528.2091	612.9145	627.4176	655.4009	726.9458	746.6165	846.2551	861.3559	882.7582	910.7374	920.6648	1020.4646	1032.7279	1037.5462	1080.9821	1086.6137	1104.0287	1120.3552	1145.0073	1179.6663	1193.4964	1228.1881	1242.3244	1282.9471	1308.9809	1396.9868	1409.5176	1494.6172	1502.3403	1519.648	2226.0533	3034.949	3040.662	3056.5713	3092.9509	3094.6086	3098.7874	3103.1392	3125.3493	3499.1722
CC1C2N3CC2(C#C)C13	C[C@H]1[C@H]2N3C[C@@]2(C#C)[C@H]13	
InChI=1S/C8H9N/c1-3-8-4-9-6(8)5(2)7(8)9/h1,5-7H,4H2,2H3	InChI=1S/C8H9N/c1-3-8-4-9-6(8)5(2)7(8)9/h1,5-7H,4H2,2H3/t5-,6+,7-,8+
