22
gdb 103705	2.87005	1.1446	0.94466	1.0924	90.25	-0.2319	0.038	0.2699	1348.5229	0.190876	-367.169038	-367.158249	-367.157305	-367.204457	40.218	
C	 0.3216313602	 1.4668441986	 0.2930123923	-0.38164
C	-0.2291536792	 0.1079625216	-0.1600027506	-0.226026
C	 0.5087419554	-0.4620033963	-1.3664256676	 0.294905
C	 0.3172258879	 0.3340518371	-2.6444701421	-0.479448
N	 1.8497541759	-0.9951116178	-1.07166389	-0.400927
C	 0.7777151325	-1.9501828482	-1.4682819647	 0.074374
C	 0.3613485506	-2.95051516	-0.3996892275	-0.460399
C	 0.8541340377	-2.5403269721	-2.784159197	 0.293785
C	 0.9235206766	-3.0883608146	-3.8537872159	-0.456377
H	 1.392392124	 1.3896829522	 0.505366038	 0.131966
H	 0.1798401071	 2.2439996461	-0.4641022526	 0.1146
H	-0.1822315859	 1.801745568	 1.2046618663	 0.111615
H	-0.1620445741	-0.5880977791	 0.6781473732	 0.102472
H	-1.2940526888	 0.1978956306	-0.4100460155	 0.095633
H	 0.7446036107	 1.3367170824	-2.5400490915	 0.122123
H	 0.7926504751	-0.1547478656	-3.4968399526	 0.129969
H	-0.747381172	 0.4501340792	-2.8753223995	 0.122036
H	 2.4740353761	-0.8374508958	-1.8601184179	 0.230449
H	 0.4695678244	-2.5274943985	 0.598987288	 0.132835
H	-0.6750191059	-3.2705178254	-0.54561763	 0.123717
H	 0.9999626967	-3.836810967	-0.4587666676	 0.129857
H	 0.9830646149	-3.5603116254	-4.8031700353	 0.194481
55.925	109.3904	141.3144	152.0886	182.1316	227.6935	244.5307	261.816	311.2705	373.1825	398.3917	415.7658	463.3337	560.6476	597.0911	611.9815	646.2416	680.6245	693.5749	784.1174	832.3529	902.7004	956.2096	1008.5054	1025.2279	1041.2661	1073.4988	1083.2215	1106.5031	1141.1753	1165.7369	1261.9343	1292.8842	1332.2023	1361.0879	1399.6667	1405.3481	1410.4627	1418.7053	1474.7473	1483.9111	1492.1916	1495.6183	1502.7109	1505.9308	1511.8757	2224.187	3031.4719	3037.1319	3040.9704	3047.3882	3093.8827	3099.1191	3110.4452	3111.0541	3119.1396	3131.6211	3149.2855	3490.8729	3501.5243
CCC1(C)NC1(C)C#C	CC[C@@]1(C)N[C@]1(C)C#C	
InChI=1S/C8H13N/c1-5-7(3)8(4,6-2)9-7/h1,9H,6H2,2-4H3	InChI=1S/C8H13N/c1-5-7(3)8(4,6-2)9-7/h1,9H,6H2,2-4H3/t7-,8-/m1/s1
