13
gdb 21597	3.5561	2.27867	1.39022	5.1367	66.25	-0.2014	-0.0318	0.1697	812.6527	0.098675	-394.809674	-394.803179	-394.802235	-394.840024	25.27	
N	 0.0145537467	 1.3943363421	 0.1334324464	-0.582904
C	-0.0572811292	 0.0279520543	 0.0457206889	 0.199028
C	-1.1975804991	-0.7246844769	 0.0243303192	-0.082944
N	-1.1176968778	-2.0902572177	-0.0127147019	-0.200601
N	 0.0051030351	-2.7943473456	-0.0310436945	-0.186561
C	 1.1235985144	-2.110208448	-0.0171268857	-0.090472
C	 1.2351707398	-0.6659268964	 0.0145038929	 0.313782
O	 2.2970371923	-0.0371582683	 0.0046459631	-0.421829
H	 0.9516799777	 1.7253407744	-0.0656818956	 0.26909
H	-0.737292467	 1.9473690764	-0.2444778342	 0.249731
H	-2.2004941897	-0.3144247898	 0.0385241274	 0.122836
H	-1.9571811233	-2.6463915014	-0.0273208463	 0.280684
H	 2.0368246	-2.695195603	-0.0412190098	 0.130159
153.3071	293.4612	308.3094	384.007	423.1522	454.8621	514.644	551.6119	602.2298	609.6653	641.2895	766.9435	790.8525	834.7235	927.9359	933.3128	1022.8202	1112.0828	1235.4558	1254.304	1338.8884	1388.1557	1432.2197	1521.7414	1581.5155	1601.2738	1677.7007	1706.1969	3195.0154	3197.3184	3533.5177	3646.8408	3677.8556
NC1=CNN=CC1=O	Nc1c[nH]ncc1=O	
InChI=1S/C4H5N3O/c5-3-1-6-7-2-4(3)8/h1-2H,(H2,5,7)(H,6,8)	InChI=1S/C4H5N3O/c5-3-1-6-7-2-4(3)8/h1-2H,(H2,5,7)(H,6,8)
