18
gdb 87510	3.5732	1.37467	1.27855	1.4918	75.95	-0.2336	-0.0029	0.2307	1053.7205	0.147822	-401.865976	-401.858454	-401.85751	-401.897728	30.127	
C	-0.045709996	 1.5221923223	-0.1002319897	-0.391848
C	 0.0073195435	 0.0212149586	 0.0422061304	-0.108541
N	 1.3485978249	-0.6180784149	-0.1223221215	-0.404764
C	 0.6823727996	-0.6653141046	 1.1516378344	 0.419399
C	 1.1676350075	-0.1919242773	 2.5483556101	-0.071049
O	-0.0641853851	-0.7928860858	 3.071441184	-0.279904
C	 0.2000065978	-1.823856145	 2.0657725585	-0.089244
C	 1.546502909	-2.3927258699	 2.5498276554	-0.09028
C	 2.205592332	-1.2776544188	 2.8770036119	-0.06291
H	 0.845688956	 1.9808410795	 0.3355983825	 0.124205
H	-0.0928874285	 1.8130221805	-1.1549956359	 0.120517
H	-0.9287829984	 1.9276119549	 0.4049555563	 0.123489
H	-0.8389376958	-0.5106871637	-0.3930484529	 0.086944
H	 1.2856601223	-1.5062730165	-0.6136634189	 0.230701
H	 1.3305713274	 0.8455070953	 2.8333103154	 0.085498
H	-0.6408965762	-2.4807548148	 1.8457424527	 0.081713
H	 1.8468763627	-3.4293855609	 2.5805835345	 0.111621
H	 3.2078162473	-1.1304416689	 3.2502702629	 0.114452
140.4155	147.8091	196.9435	244.0907	352.6121	441.1121	488.2104	564.2309	577.9665	638.0254	724.9794	784.0022	822.1651	851.8567	857.694	872.493	877.445	907.5683	911.2874	953.3637	996.439	1012.3078	1055.588	1073.966	1112.8953	1154.5052	1155.278	1204.7682	1217.1905	1224.6083	1240.4578	1284.4239	1300.9068	1352.3007	1410.4385	1478.8732	1491.9544	1516.868	1610.4954	3035.5942	3099.3568	3101.2942	3124.3908	3131.5629	3148.7924	3235.0061	3261.8707	3500.1014
CC1NC11C2OC1C=C2	C[C@H]1N[C@]21[C@H]1O[C@@H]2C=C1	
InChI=1S/C7H9NO/c1-4-7(8-4)5-2-3-6(7)9-5/h2-6,8H,1H3	InChI=1S/C7H9NO/c1-4-7(8-4)5-2-3-6(7)9-5/h2-6,8H,1H3/t4-,5-,6+,7+/m1/s1
