19
gdb 108181	3.22489	1.4777	1.32655	1.7937	74.31	-0.244	0.0008	0.2449	1041.337	0.160008	-423.022633	-423.014915	-423.013971	-423.054705	30.682	
C	 0.0067266027	 1.5536844484	 0.0741388184	-0.382384
C	-0.0453324077	 0.0231253097	 0.0203646895	-0.293488
C	-1.4515908632	-0.5270535204	-0.0416476574	 0.317285
C	-1.6276847276	-2.0831388861	 0.0591712778	-0.109566
O	-2.9673545651	-2.2130570512	 0.5407921673	-0.274703
C	-3.4020503551	-0.8393082597	 0.7018603551	 0.118082
O	-2.2384793813	-0.1728013757	 1.1220434172	-0.260186
C	-3.6203947917	-0.2919348352	-0.7064018999	-0.086465
C	-2.3865135596	-0.1100917458	-1.1775610114	-0.132717
H	 1.0405924846	 1.9041806056	 0.1412316333	 0.1126
H	-0.4429878237	 2.0000626194	-0.8184220216	 0.118083
H	-0.5407853793	 1.9251143792	 0.9439367243	 0.140221
H	 0.504514222	-0.3463573079	-0.854536857	 0.102937
H	 0.4507849633	-0.3994748722	 0.9018034375	 0.110856
H	-1.5077689158	-2.593428176	-0.9021300059	 0.100312
H	-0.9306513046	-2.5031628929	 0.7931222209	 0.105126
H	-4.2008756016	-0.7969604547	 1.4389841646	 0.09201
H	-4.5691483711	-0.231710301	-1.220652717	 0.113555
H	-2.0684566552	 0.1351583365	-2.1818469958	 0.108441
92.4476	167.3418	191.9529	275.087	350.3043	364.0918	431.9769	503.6546	611.6623	655.9856	722.0917	734.6105	776.4032	818.7592	844.5923	861.0794	902.577	930.2043	938.3585	954.1392	991.566	1004.9508	1038.868	1052.5147	1120.5131	1128.0034	1165.4165	1209.1241	1254.4474	1280.9357	1289.9676	1330.2425	1340.9987	1365.3373	1389.8374	1410.8993	1476.673	1495.0752	1507.3289	1510.8431	1637.4877	3027.6583	3032.06	3044.1456	3066.1753	3080.9488	3110.5155	3127.1321	3155.6291	3217.5705	3245.1481
CCC12COC(O1)C=C2	CC[C@@]12CO[C@@H](O1)C=C2	
InChI=1S/C7H10O2/c1-2-7-4-3-6(9-7)8-5-7/h3-4,6H,2,5H2,1H3	InChI=1S/C7H10O2/c1-2-7-4-3-6(9-7)8-5-7/h3-4,6H,2,5H2,1H3/t6-,7+/m0/s1
