23
gdb 103839	2.48646	1.01447	0.96976	1.9623	82.78	-0.2468	0.0785	0.3253	1420.5681	0.20214	-425.40613	-425.395053	-425.394108	-425.442341	40.469	
C	-0.4555244932	 1.1979568049	-0.1054824531	-0.246666
O	-0.4363612863	-0.1797591064	-0.4244821377	-0.281798
C	 0.6537324881	-0.5902496229	-1.2092918018	 0.435535
C	 0.5802707486	-0.1648747669	-2.6604280454	-0.455412
C	 1.9930121644	-0.7173616069	-0.5212223447	-0.36454
C	 1.1860107285	-1.9550115655	-0.860314994	-0.088862
C	 0.5708966315	-2.7835525284	 0.2515596287	 0.126699
C	-0.5839309941	-3.6470490635	-0.257940306	-0.404649
O	 1.555635064	-3.5701841284	 0.9228212784	-0.433766
H	 0.4760404743	 1.5135068687	 0.3848096271	 0.109375
H	-0.613432008	 1.8292504273	-0.990894856	 0.108903
H	-1.2901950127	 1.3507306631	 0.5828988424	 0.126528
H	 0.6297873499	 0.9240774016	-2.7674347567	 0.118305
H	 1.4130206758	-0.5883304122	-3.2288610656	 0.11747
H	-0.3560557369	-0.5091544493	-3.1120599947	 0.124297
H	 2.8960028919	-0.5024033241	-1.082805801	 0.106203
H	 2.041127539	-0.4525906753	 0.5298362865	 0.121051
H	 1.5343285098	-2.5456685372	-1.7074228828	 0.06958
H	 0.1910924938	-2.1036699247	 1.0185699225	 0.094314
H	-0.9877463658	-4.2580093288	 0.5541192951	 0.118704
H	-1.3844898979	-3.0189270414	-0.6601371525	 0.129632
H	-0.24734174	-4.320366936	-1.0570508271	 0.097474
H	 1.9167101354	-4.1935657077	 0.2829644084	 0.271625
46.7606	93.5692	124.8666	136.6381	188.5469	225.3605	249.6274	265.1462	288.959	318.0734	336.7372	389.2823	408.6691	451.9181	511.0164	619.4127	696.7844	803.142	871.524	905.6966	923.5159	948.4273	969.0192	1036.6573	1055.1437	1074.5731	1096.693	1110.5535	1114.5452	1131.5131	1180.5839	1191.8644	1218.7364	1236.0831	1290.1236	1311.1401	1343.3879	1398.3681	1408.9549	1418.6257	1432.3679	1473.6902	1479.4691	1482.7761	1493.6159	1493.9021	1496.2781	1504.8118	1510.7155	2993.5811	3022.2872	3032.8321	3046.1795	3079.4724	3096.3565	3097.6968	3108.7834	3114.8624	3116.0544	3120.8492	3128.8861	3215.8739	3797.6684
COC1(C)CC1C(C)O	CO[C@@]1(C)C[C@H]1[C@@H](C)O	
InChI=1S/C7H14O2/c1-5(8)6-4-7(6,2)9-3/h5-6,8H,4H2,1-3H3	InChI=1S/C7H14O2/c1-5(8)6-4-7(6,2)9-3/h5-6,8H,4H2,1-3H3/t5-,6+,7+/m1/s1
