19
gdb 38446	3.96126	1.29214	1.18926	1.3852	74.79	-0.2479	0.0841	0.332	1090.0026	0.160652	-422.994164	-422.986635	-422.98569	-423.026762	29.284	
C	 0.0187372857	 1.4631684286	 0.1205366441	-0.285198
C	 1.3379018745	 0.7743371047	-0.0545008698	-0.038679
C	 1.7539593153	 0.1284781901	 1.2724207202	-0.304327
C	 0.4477480118	-0.7358838151	 1.2245549376	 0.417648
C	 0.6349753515	-2.2586280551	 1.1168709931	-0.177792
O	 0.3878906451	-2.7205267412	 2.4345757748	-0.236883
C	-0.6428585987	-1.8868887347	 2.898253771	 0.013787
O	-0.4182790214	-0.6029728598	 2.3513118966	-0.303963
C	 0.0296155887	-0.0305781392	-0.0619305051	-0.106716
H	-0.2548076137	 1.8917747934	 1.0808125786	 0.122329
H	-0.3412659616	 2.0198635793	-0.7386650906	 0.111478
H	 1.9967253122	 0.9822200188	-0.8874260537	 0.087958
H	 2.6625477877	-0.4763127214	 1.2210447024	 0.102691
H	 1.8238436635	 0.8075723713	 2.1270051039	 0.105554
H	-0.0955177408	-2.6843173402	 0.4086944734	 0.092405
H	 1.6392158349	-2.565287377	 0.8204949343	 0.120855
H	-1.6302239872	-2.2649840074	 2.5747604895	 0.082927
H	-0.5987324037	-1.843544981	 3.9913327805	 0.11589
H	-0.4837548538	-0.5087398643	-0.8891718608	 0.080036
47.8947	123.6734	211.1177	282.7581	384.4309	403.2691	424.4007	518.0481	723.6496	742.6869	781.6174	797.878	839.9627	891.3449	929.5944	940.2493	978.9275	983.4942	988.5216	1020.2184	1039.9397	1061.5846	1085.4393	1114.1926	1119.3025	1134.1603	1158.4856	1176.4749	1199.8081	1222.1152	1229.006	1244.5863	1273.9564	1306.2244	1362.827	1372.7457	1433.2377	1476.8288	1497.2358	1509.1038	1546.6194	2931.386	2967.7785	3054.6296	3071.7243	3108.3045	3118.4782	3118.661	3165.6892	3195.6329	3208.338
C1C2CC3(COCO3)C12	C1[C@H]2C[C@]3(COCO3)[C@@H]12	
InChI=1S/C7H10O2/c1-5-2-7(6(1)5)3-8-4-9-7/h5-6H,1-4H2	InChI=1S/C7H10O2/c1-5-2-7(6(1)5)3-8-4-9-7/h5-6H,1-4H2/t5-,6-,7-/m0/s1
