17
gdb 34431	3.02664	1.78453	1.30578	1.7747	78.6	-0.2366	0.0367	0.2733	972.4031	0.13664	-384.608485	-384.601519	-384.600575	-384.639559	28.663	
C	-0.0423317805	-1.1768636447	 0.0722333714	-0.376345
C	-0.0262766469	 0.0246216263	 0.0567892221	 0.209456
C	 0.0135020702	 1.4646474255	 0.015060618	 0.371266
O	-0.8479775292	 2.0595200688	 0.9758374906	-0.334606
C	-0.6458766699	 3.4648854332	 0.7532207012	-0.117407
C	 0.3693137987	 3.4332614262	-0.3777770064	-0.099484
C	 1.3629430878	 2.2637752545	-0.0668988654	-0.121025
C	 1.4436729886	 1.9481721714	-1.5773047463	-0.261464
C	-0.0487212813	 2.2660560516	-1.3340820499	-0.121029
H	-0.0598656601	-2.2384478674	 0.0894052259	 0.187711
H	-1.5949647652	 3.9398893769	 0.4760262944	 0.105964
H	-0.2673676714	 3.9377497665	 1.6677508168	 0.105964
H	 0.7443420392	 4.3679845504	-0.7938776428	 0.080152
H	 2.1591254204	 2.2555701534	 0.6782368553	 0.081427
H	 1.9922572591	 2.6692339687	-2.187141001	 0.097786
H	 1.6909011054	 0.9213674463	-1.8545682336	 0.110206
H	-0.875180625	 2.2604758525	-2.0455137305	 0.081427
148.8589	155.86	305.5998	391.4144	393.5542	510.6739	511.0365	568.5921	615.4685	676.8822	698.4174	734.3075	749.0048	841.6391	906.6518	913.9562	920.4541	967.5012	998.3093	1010.6768	1030.7087	1038.281	1065.4492	1101.5889	1113.4002	1147.5241	1171.2979	1205.8077	1208.0386	1241.9869	1257.6947	1285.8659	1315.4401	1364.9274	1515.172	1523.167	2243.8234	3020.7337	3059.0263	3065.4858	3110.1059	3112.1801	3128.4886	3129.1733	3503.6442
C#CC12OCC3C1CC23	C#C[C@@]12OC[C@H]3[C@@H]1C[C@@H]23	
InChI=1S/C8H8O/c1-2-8-6-3-7(8)5(6)4-9-8/h1,5-7H,3-4H2	InChI=1S/C8H8O/c1-2-8-6-3-7(8)5(6)4-9-8/h1,5-7H,3-4H2/t5-,6-,7+,8+
