21
gdb 121157	3.10433	0.99938	0.84044	2.1414	80.22	-0.227	0.0736	0.3006	1456.5004	0.18046	-424.182469	-424.172912	-424.171968	-424.217799	34.805	
C	 0.0176318193	 1.4392954435	-0.169974233	-0.385567
C	-0.0622086898	-0.0192601941	 0.245753814	-0.03869
O	-1.222764297	-0.5885557949	-0.3372036536	-0.250461
C	-1.3813596234	-1.9506157835	-0.0646958286	-0.006733
C	-2.0484534319	-2.3585829217	 1.275562015	-0.107074
O	-3.1158356175	-3.035465391	 0.5718301096	-0.306626
C	-2.6281331599	-2.5618145672	-0.6850151545	 0.436413
C	-3.5126544804	-1.9676477536	-1.7277312578	-0.322026
C	-2.8214950845	-3.3057238926	-1.9610534039	-0.343395
H	 0.9068443098	 1.9099235266	 0.2597536698	 0.11647
H	 0.0701687828	 1.5244872737	-1.2590416649	 0.127721
H	-0.8653324801	 1.9851140519	 0.1740003461	 0.129701
H	 0.8335929924	-0.5697646799	-0.0873106029	 0.089307
H	-0.1037910947	-0.1052047659	 1.3437310836	 0.091551
H	-0.4533122073	-2.5015723741	-0.2778846767	 0.074524
H	-1.4941983337	-3.0425720301	 1.9266973488	 0.1028
H	-2.4147745442	-1.5007224263	 1.8529453632	 0.104777
H	-4.5797001117	-1.9857498961	-1.5341845057	 0.122453
H	-3.1508620663	-1.091242124	-2.2536977988	 0.126745
H	-1.9955649441	-3.354498963	-2.6638601679	 0.114418
H	-3.4370297479	-4.1980092275	-1.9190129021	 0.123692
54.3314	78.5439	96.1937	119.5216	235.7486	244.428	257.59	352.0824	386.5575	452.1358	542.252	572.1059	757.4851	807.1659	820.7546	869.15	872.0407	900.6357	923.8351	983.8668	1001.752	1013.2484	1047.3753	1064.4052	1066.0578	1084.9495	1151.0512	1160.464	1185.0107	1186.9641	1198.4501	1223.1445	1258.6534	1296.4109	1333.5184	1365.1594	1391.8342	1407.3298	1447.2733	1447.8189	1483.1117	1492.747	1499.43	1517.8758	1527.9283	2960.5003	2987.9432	2990.97	3021.1774	3046.0157	3078.5173	3120.7751	3123.0729	3126.0843	3136.4055	3212.1451	3230.7058
CCOC1COC11CC1	CCO[C@H]1COC21CC2	
InChI=1S/C7H12O2/c1-2-8-6-5-9-7(6)3-4-7/h6H,2-5H2,1H3	InChI=1S/C7H12O2/c1-2-8-6-5-9-7(6)3-4-7/h6H,2-5H2,1H3/t6-/m0/s1
