21
gdb 126194	1.82291	1.74192	0.96471	2.3238	86.08	-0.2194	0.0332	0.2525	1289.7368	0.182397	-383.317884	-383.307733	-383.306789	-383.353501	36.278	
C	 0.0116055021	 1.6134456783	 0.1371772472	-0.364599
C	-0.0285740473	 0.0779644586	 0.0319436306	-0.309415
C	 0.6529600874	-0.4621190129	-1.1912426606	 0.062648
C	 0.0822311288	-0.7770292857	-2.4136635186	 0.292795
C	-1.3256115836	-0.6994987742	-2.9074482493	-0.505789
N	 1.1036302788	-1.2081688795	-3.1994208225	-0.262599
N	 2.3015208333	-1.2027503948	-2.578166314	-0.29471
C	 2.0376573911	-0.7472184331	-1.356362848	 0.282139
C	 3.1360444489	-0.6044460024	-0.3495999554	-0.499612
H	 1.0428281129	 1.9800200232	 0.1511696402	 0.121214
H	-0.4900658241	 2.0774507891	-0.7180258281	 0.114124
H	-0.4828448234	 1.9596353945	 1.0509405614	 0.107664
H	 0.4374605395	-0.3522648672	 0.9270446672	 0.102705
H	-1.074197075	-0.2530892566	 0.052100664	 0.095992
H	-1.4981772649	 0.1893969943	-3.5263923202	 0.137908
H	-1.5903135924	-1.5760423703	-3.5091776872	 0.128679
H	-2.022553956	-0.6527380748	-2.0671345872	 0.141209
H	 1.049299793	-1.5340012479	-4.1493544769	 0.26315
H	 3.2895941865	 0.4409053757	-0.0576032487	 0.124902
H	 2.9178429381	-1.1650258485	 0.566788863	 0.123378
H	 4.0713601764	-0.9819601859	-0.7683448668	 0.138217
50.8156	80.1874	113.8177	140.0807	177.4405	195.7003	262.7149	282.9044	331.6287	409.0414	464.7012	473.871	574.6594	669.5047	683.5706	737.945	749.0747	800.5345	967.2586	989.372	997.6946	1012.6651	1057.4552	1062.5969	1084.8367	1141.8091	1182.3504	1228.8629	1295.3166	1301.0162	1358.7266	1403.0316	1407.5647	1414.833	1434.7326	1474.8959	1479.5707	1483.2052	1486.2047	1490.828	1497.0273	1502.4676	1511.4594	1526.0044	1626.0922	3022.5606	3026.0927	3028.3431	3032.7169	3053.4936	3075.9118	3077.7037	3102.3386	3107.8614	3119.3926	3129.2775	3671.2419
CCC1=C(C)NN=C1C	CCc1c(C)[nH]nc1C	
InChI=1S/C7H12N2/c1-4-7-5(2)8-9-6(7)3/h4H2,1-3H3,(H,8,9)	InChI=1S/C7H12N2/c1-4-7-5(2)8-9-6(7)3/h4H2,1-3H3,(H,8,9)
