20
gdb 18248	4.19014	1.53406	1.27633	0.2514	79.64	-0.2242	0.0219	0.2461	1026.6961	0.178484	-311.870444	-311.862833	-311.861888	-311.902261	29.896	
C	-0.1196173149	 1.6127028757	 0.0222507253	-0.384938
C	-0.085787889	 0.0815256489	-0.0087610627	-0.171385
C	 0.7274578274	-0.5021308277	-1.180686254	-0.025276
C	 2.2203459817	-0.2139535441	-1.145571671	-0.088006
C	 2.9573970504	-1.3139058513	-1.317957399	-0.081639
C	 2.1095651602	-2.5366920771	-1.4269371295	-0.079881
C	 1.305062209	-2.8602217782	-0.1817996124	-0.278377
C	 0.6845699268	-2.0325568715	-1.280447775	-0.055797
H	 0.8794815901	 2.0382703413	 0.1615308372	 0.116707
H	-0.5247893367	 2.0195826872	-0.9112834091	 0.112492
H	-0.7478155207	 1.9755612966	 0.8418429214	 0.111247
H	 0.3174156403	-0.2992620747	 0.9369898505	 0.095936
H	-1.1122961123	-0.2997262336	-0.0798570236	 0.093877
H	 0.3047046988	-0.076831634	-2.1052721052	 0.074152
H	 2.6180908125	 0.7819342181	-0.9865728794	 0.090293
H	 4.041236249	-1.346381672	-1.341142655	 0.090823
H	 2.3817677992	-3.3388964535	-2.1040377478	 0.08266
H	 0.9348175914	-3.874638648	-0.0723065899	 0.105901
H	 1.6034178491	-2.3852431417	 0.7468724165	 0.110841
H	-0.122193702	-2.4847263805	-1.8457635373	 0.080372
89.1215	147.7171	192.1436	246.4845	321.9497	393.1326	442.7423	545.6203	678.0311	742.8205	760.1037	773.4324	796.582	831.1768	872.9479	919.6272	940.8467	965.5923	981.4483	1006.7102	1038.6987	1060.0984	1071.3498	1080.5265	1100.4224	1124.1346	1130.3971	1152.9398	1200.2938	1271.8813	1294.2125	1306.5954	1336.6649	1364.4621	1377.5536	1393.4329	1411.6322	1477.8605	1486.1662	1499.8721	1506.931	1666.0118	2967.7907	3023.4093	3031.0803	3059.1286	3097.6393	3102.6624	3124.1043	3163.805	3172.8745	3182.4838	3207.4242	3212.4528
CCC1C=CC2CC12	CC[C@H]1C=C[C@H]2C[C@@H]12	
InChI=1S/C8H12/c1-2-6-3-4-7-5-8(6)7/h3-4,6-8H,2,5H2,1H3	InChI=1S/C8H12/c1-2-6-3-4-7-5-8(6)7/h3-4,6-8H,2,5H2,1H3/t6-,7-,8-/m0/s1
