14
gdb 75318	2.64867	1.71043	1.18613	1.9213	68.48	-0.2502	-0.0271	0.2232	997.7612	0.10189	-432.868156	-432.860588	-432.859643	-432.90006	28.726	
N	 0.0047758527	 1.3173677074	 0.1352801234	-0.57747
C	-0.0368183436	-0.0382934461	 0.0083395886	 0.351707
N	-1.0966685325	-0.737360587	-0.1543011047	-0.301674
C	-0.7587312308	-2.1613541194	-0.070026652	-0.189633
C	 0.7580360435	-2.2540930957	 0.0340396879	-0.041843
O	 1.4348258706	-1.6504034397	-1.0695640166	-0.270878
C	 1.2346035367	-0.8558815494	 0.1139737578	 0.217175
C	 2.407261121	-0.3834352737	 0.7984242759	 0.218345
N	 3.3259097022	 0.0551959887	 1.3463928699	-0.334137
H	 0.8570811077	 1.797128716	-0.1054765399	 0.272805
H	-0.8515326415	 1.8074479724	-0.0748755201	 0.270317
H	-1.2340882173	-2.6140111877	 0.8091456841	 0.12307
H	-1.1278169003	-2.6959374641	-0.9528439108	 0.133318
H	 1.2788743515	-3.0786085417	 0.5120301165	 0.128897
123.5787	146.3072	231.9346	294.6354	352.1037	385.4013	410.0584	492.6102	521.8958	568.7714	589.3734	658.6617	718.9329	782.4186	835.8474	913.3305	938.7628	975.6259	1003.195	1079.8217	1148.3696	1175.2901	1213.0004	1279.9377	1323.1465	1401.0648	1416.0164	1474.7483	1628.2164	1725.7143	2357.7806	3032.2198	3069.6667	3167.4502	3585.544	3703.1266
NC1=NCC2OC12C#N	NC1=NC[C@H]2O[C@@]12C#N	
InChI=1S/C5H5N3O/c6-2-5-3(9-5)1-8-4(5)7/h3H,1H2,(H2,7,8)	InChI=1S/C5H5N3O/c6-2-5-3(9-5)1-8-4(5)7/h3H,1H2,(H2,7,8)/t3-,5-/m1/s1
