15
gdb 127694	3.29412	1.50288	1.03874	1.9569	76.18	-0.2539	-0.0707	0.1832	1086.0405	0.114329	-446.290616	-446.282659	-446.281715	-446.323431	29.333	
C	-0.0529124626	 1.4258880829	 0.0063238445	-0.307251
N	-0.0254296923	-0.0300840905	 0.0559194166	-0.052487
N	-0.0581199914	-0.6604016925	-1.1341235415	-0.039945
N	-0.0392190622	-1.9181136847	-1.2201348632	-0.258789
C	 0.017769439	-2.7205566833	-0.0519222363	 0.45955
N	 0.0392019628	-3.9903157889	-0.0779487084	-0.531893
N	 0.0504811886	-2.0483704565	 1.1620309923	-0.410033
C	 0.0313169312	-0.6781371777	 1.2962449761	 0.506846
N	 0.0579084751	 0.0208254794	 2.3594113485	-0.566167
H	 0.8428666182	 1.8357875315	 0.4776908793	 0.156765
H	-0.0958382295	 1.7038960576	-1.0457366838	 0.154534
H	-0.9262247711	 1.8046441866	 0.5415974248	 0.156733
H	 0.0090023962	-4.2989199678	-1.049017442	 0.239978
H	 0.0909565166	-2.6197822662	 1.9935168766	 0.271091
H	 0.0986517514	-0.5616278999	 3.1935846364	 0.221067
77.2827	123.9161	153.6369	214.1667	335.2162	375.7021	432.1505	488.7122	548.3018	573.1717	603.6569	709.6636	739.2264	753.3984	788.5122	816.0069	869.9634	957.1824	1023.5698	1091.4666	1147.6825	1158.1115	1248.5387	1272.7499	1356.3674	1399.5388	1436.049	1454.2029	1472.7912	1510.5503	1563.6484	1735.1724	1746.0799	3064.4821	3132.7878	3176.1783	3507.8828	3509.2935	3617.5746
CN1N=NC(=N)NC1=N	CN1[N]N=C([NH])N[C@@H]1[NH]	
InChI=1S/C3H6N6/c1-9-3(5)6-2(4)7-8-9/h1H3,(H3,4,5,6)	InChI=1S/C3H7N6/c1-9-3(5)6-2(4)7-8-9/h3,5H,1H3,(H2,4,6)/t3-/m0/s1
