19
gdb 39054	2.49593	1.9789	1.34533	1.5996	79.53	-0.232	0.0004	0.2324	988.1173	0.161969	-385.864825	-385.857742	-385.856798	-385.895891	29.386	
C	 0.0019101909	 1.5684602493	 0.15022473	-0.310822
C	 1.2849664615	 0.7978121138	-0.0360876534	-0.00997
C	 2.3289917922	 0.7006367356	 1.0696569341	-0.293044
C	 2.7844840881	-0.7245791554	 1.3009014542	-0.091138
C	 1.983562003	-1.722835602	 1.6813023316	-0.029634
C	 0.5323469643	-1.6297134629	 1.9796455823	-0.000701
O	 0.0079063504	-0.3949651555	 2.5112376417	-0.25444
C	-0.4234600346	-0.7894462586	 1.2129518827	 0.024514
C	-0.03200857	 0.0580266199	 0.0464216519	-0.026879
H	-0.1759178116	 1.991572597	 1.1333808896	 0.126109
H	-0.3928082637	 2.1514608303	-0.6744818217	 0.109357
H	 1.7110926336	 0.8228965847	-1.0351702304	 0.084434
H	 3.1850953895	 1.3293716681	 0.8047936714	 0.094633
H	 1.9187476607	 1.0995555052	 2.0007141836	 0.136482
H	 3.8352442444	-0.9491877052	 1.1347832448	 0.091756
H	 2.4038124858	-2.7177075832	 1.8063059953	 0.085086
H	 0.1171502957	-2.5080438659	 2.4747564745	 0.090416
H	-1.4592687688	-1.1360348791	 1.1839297985	 0.089512
H	-0.4041042413	-0.3443783759	-0.8924256206	 0.084328
175.3385	204.6269	279.6841	321.8691	337.0999	406.6908	500.8374	583.3988	653.6488	706.7598	721.6127	771.0018	805.3753	841.4188	860.5607	882.9143	928.5019	940.5789	978.3631	990.9709	1018.3438	1056.9867	1069.8926	1089.1659	1123.2398	1134.0337	1146.8327	1155.2402	1225.5776	1235.8043	1271.8787	1293.7982	1338.3544	1377.5674	1404.5891	1420.5047	1429.9022	1454.2695	1475.7508	1493.7541	1715.6861	3051.3951	3074.1875	3096.6273	3103.4787	3131.6136	3134.7148	3144.7131	3147.1165	3168.9548	3220.9748
C1C2CC=CC3OC3C12	C1[C@H]2CC=C[C@H]3O[C@H]3[C@@H]12	
InChI=1S/C8H10O/c1-2-5-4-6(5)8-7(3-1)9-8/h1,3,5-8H,2,4H2	InChI=1S/C8H10O/c1-2-5-4-6(5)8-7(3-1)9-8/h1,3,5-8H,2,4H2/t5-,6+,7-,8+/m1/s1
