20
gdb 77828	2.37477	1.46198	1.32492	3.09	80.15	-0.2263	-0.0197	0.2066	1104.4605	0.170268	-403.156171	-403.147283	-403.146338	-403.189469	33.825	
C	-0.1194362572	 1.5829115715	 0.1265637242	-0.329527
N	 0.0830393061	 0.1405052227	 0.1536102869	-0.117001
C	 1.3495787758	-0.5164209759	-0.1919814706	-0.200784
C	 2.6155895673	 0.2884903982	-0.1324534757	 0.414961
O	 3.4270616923	 0.3837287028	-1.0204922902	-0.326553
C	 2.7534524695	 0.9028251211	 1.2670022027	-0.342325
C	 1.6768088556	 0.2309279833	 2.1455144398	-0.290673
C	 0.7710155418	-0.5772387484	 1.2040703222	 0.315088
C	 0.073926444	-1.7965450537	 1.7583341102	-0.466413
H	 0.6107291433	 2.188954392	 0.6790199745	 0.108652
H	-0.1208321412	 1.9159519574	-0.9152424965	 0.138277
H	-1.1085923273	 1.7918039894	 0.5467228618	 0.129702
H	 1.2884010954	-1.3133577486	-0.9279310068	 0.100791
H	 3.7693130344	 0.7143699965	 1.6250204804	 0.134799
H	 2.6505284456	 1.9913374399	 1.1988605125	 0.134492
H	 2.1377248335	-0.4536672778	 2.8636287794	 0.113177
H	 1.0945480644	 0.9511757616	 2.7305557843	 0.109576
H	-0.5896852283	-1.5183180777	 2.5856450035	 0.121559
H	-0.5333823254	-2.2724499982	 0.9852501014	 0.132927
H	 0.7977783204	-2.523987526	 2.140706466	 0.119274
89.6028	128.0684	184.6866	201.1641	240.3318	262.9369	307.9329	415.5263	445.2713	478.3165	547.1958	596.6951	620.4297	696.4165	738.7391	810.097	846.607	907.2206	954.8742	992.0952	1011.2391	1066.806	1080.4638	1138.2461	1147.6472	1163.751	1176.0498	1179.4721	1243.0701	1260.2074	1269.8765	1284.721	1328.1681	1403.9819	1421.5042	1453.5622	1458.5028	1485.8749	1486.4258	1492.4715	1503.2233	1510.4758	1824.9185	3012.8175	3030.0364	3045.5626	3054.336	3076.3286	3080.4377	3091.3592	3102.7083	3110.4054	3128.2965	3152.0704
CN1C2C(=O)CCC12C	CN1[C@H]2C(=O)CC[C@@]12C	
InChI=1S/C7H11NO/c1-7-4-3-5(9)6(7)8(7)2/h6H,3-4H2,1-2H3	InChI=1S/C7H11NO/c1-7-4-3-5(9)6(7)8(7)2/h6H,3-4H2,1-2H3/t6-,7+,8?/m0/s1
