17
gdb 26230	3.01247	0.61447	0.57956	7.3796	81.71	-0.2495	-0.0809	0.1686	1989.331	0.131418	-455.186026	-455.17459	-455.173646	-455.226661	36.565	
C	-0.1006225762	 1.1389407169	-0.3729188591	-0.475934
C	 1.0322206483	 0.18516552	-0.5334748825	-0.152037
N	-2.784609812	-0.4623020755	 1.3211133398	-0.697843
H	-3.235864886	-1.0211986338	 0.6015951859	 0.246448
H	-2.6428039496	-1.0863907998	 2.1110531132	 0.243061
H	-3.47958179	 0.215709493	 1.6226251713	 0.244762
C	 1.5037219503	-0.2928364306	-1.6914727169	 0.366575
C	 2.5837339359	-1.227068178	-1.9378077417	-0.081762
N	 2.7560591862	-1.4607994597	-3.1939118212	-0.290623
C	 1.7779807687	-0.6777195977	-3.8695713285	 0.444281
O	 1.5785486206	-0.5919977455	-5.0392290946	-0.325155
O	 1.0183056289	 0.0340279515	-2.9303933213	-0.251014
H	 0.2196050657	 2.0180165885	 0.2003616036	 0.133073
H	-0.4825735317	 1.470282402	-1.3400725073	 0.142672
H	-0.9167129202	 0.6692148338	 0.1964568592	 0.194795
H	 1.527167357	-0.1773601729	 0.3641253775	 0.111469
H	 3.1901374841	-1.6877799922	-1.1649629974	 0.147232
17.1993	29.3178	31.1172	92.4036	134.6581	148.9279	161.7726	170.7431	207.2448	248.1749	399.1502	443.0007	541.5457	650.062	676.6215	775.7133	798.4235	846.0484	880.2764	924.4851	973.0391	1019.92	1064.9743	1067.9134	1104.7717	1117.6622	1243.9029	1331.3556	1374.2314	1423.0738	1482.0343	1498.4911	1609.9034	1679.4484	1681.3623	1742.8696	1905.4654	2995.2686	3057.4323	3134.9264	3168.7947	3199.2059	3466.0438	3583.2642	3583.4673
CC([NH3+])C1=CN=C([O-])O1	CC=C1C=NC(=O)O1.N	
InChI=1S/C5H8N2O2/c1-3(6)4-2-7-5(8)9-4/h2-3H,6H2,1H3,(H,7,8)	InChI=1S/C5H5NO2.H3N/c1-2-4-3-6-5(7)8-4;/h2-3H,1H3;1H3
