16
gdb 79488	2.36201	1.91182	1.24583	1.4425	76.01	-0.2287	0.0139	0.2427	1004.9567	0.121798	-400.586011	-400.578276	-400.577332	-400.617977	30.288	
C	 0.0799679758	 1.5211042605	-0.1491419758	-0.331856
N	 0.0399300656	 0.0648772171	-0.0368778104	-0.157197
C	-1.116860678	-0.4925456584	 0.7164907963	-0.083178
C	-0.2921353928	-1.7182993413	 1.1966428595	 0.028542
O	-0.6615655473	-1.5839769711	 2.5921484253	-0.32086
C	-0.5434524554	-0.2076002263	 2.1527342864	 0.022908
C	 0.6958556745	-0.4962551366	 1.1908872755	 0.272599
C	 2.0950534233	-0.4320482484	 1.4634845	 0.080244
C	 3.2716376928	-0.3645787333	 1.7043667228	-0.383826
H	 1.0889616686	 1.8280043286	-0.4393375504	 0.134437
H	-0.6098153161	 1.8363212992	-0.9380988041	 0.124937
H	-0.1887030167	 2.0542669941	 0.7784670349	 0.099594
H	-2.1471563746	-0.4546194293	 0.3650531166	 0.09769
H	-0.1664528354	-2.7073961214	 0.7610824691	 0.115963
H	-0.7202948032	 0.5809175574	 2.8831043004	 0.110819
H	 4.3113237289	-0.3121941109	 1.9154297637	 0.189185
119.9026	161.1241	219.885	229.8366	293.2494	399.8883	468.1818	552.4951	563.4316	625.6582	635.6899	666.4783	736.4987	761.3314	804.3078	822.7486	888.0156	914.6693	934.8076	947.398	1041.2644	1090.2062	1127.1206	1134.2102	1154.8739	1164.6304	1177.4132	1203.024	1263.9499	1279.3418	1346.8555	1447.1901	1493.0571	1496.0532	2233.1571	2964.3368	3073.164	3112.437	3125.817	3136.399	3153.4019	3499.4478
CN1C2C3OC2C13C#C	CN1[C@H]2[C@@H]3O[C@H]2[C@]13C#C	
InChI=1S/C7H7NO/c1-3-7-5-4(8(7)2)6(7)9-5/h1,4-6H,2H3	InChI=1S/C7H7NO/c1-3-7-5-4(8(7)2)6(7)9-5/h1,4-6H,2H3/t4-,5-,6+,7+
