22
gdb 96852	2.24444	1.3112	1.05521	2.2285	85.63	-0.243	0.0386	0.2816	1302.4617	0.191467	-404.36329	-404.35259	-404.351646	-404.398982	38.425	
C	 0.190311187	 1.4296978014	-0.1451817207	-0.3401
N	 0.343157256	-0.018851813	-0.1437634246	-0.341513
C	 0.5346517163	-0.6134782723	 0.9400787433	 0.459945
O	 0.6334136074	-0.127925027	 2.2325462031	-0.295032
C	 0.850530842	-1.4779263445	 2.7693210424	 0.124677
C	-0.1608733079	-1.8267474055	 3.8385450211	-0.410899
C	 0.7429847894	-2.0688495998	 1.3244491817	 0.103054
C	-0.4469945068	-2.9766983746	 1.0129368225	-0.44368
C	 2.048567362	-2.6616188237	 0.7892162412	-0.441417
H	 0.9327834614	 1.8679691863	-0.821325876	 0.123952
H	-0.7962585371	 1.687177154	-0.5471291723	 0.124121
H	 0.2976045627	 1.8934958085	 0.8424857001	 0.124333
H	 1.8683499572	-1.5399836821	 3.170660705	 0.085372
H	-1.185981881	-1.7279953561	 3.4737040834	 0.12849
H	-0.010205592	-2.8546979247	 4.1849144153	 0.123092
H	-0.0398926469	-1.1598659378	 4.6976429791	 0.131883
H	-1.3929070372	-2.5558953553	 1.36250295	 0.122142
H	-0.528351223	-3.1115610517	-0.069452117	 0.137239
H	-0.3180939725	-3.9637284968	 1.4703367703	 0.113713
H	 2.2413884657	-3.6428389116	 1.2372764397	 0.113365
H	 1.9903968344	-2.786622558	-0.2958841617	 0.135843
H	 2.9023351027	-2.0124532157	 1.0061486341	 0.12142
70.2228	78.1526	125.0743	170.7953	191.6699	198.6803	227.0457	252.6682	286.9727	303.9975	337.4868	384.5216	478.793	576.6384	648.5864	714.3248	748.969	808.5167	878.1228	959.0474	987.1752	1008.2295	1028.8603	1045.5851	1063.2523	1117.9641	1131.1559	1136.3545	1171.5883	1214.4064	1230.3669	1272.951	1336.0892	1384.3351	1399.8495	1411.4654	1422.0463	1440.0647	1475.235	1482.6911	1485.144	1494.7869	1497.7167	1497.8426	1503.0557	1511.5534	1842.5231	3014.9241	3031.0206	3037.123	3039.9361	3045.0378	3078.534	3084.5716	3100.8909	3106.8572	3109.9604	3114.3577	3119.0234	3129.5862
CN=C1OC(C)C1(C)C	CN=C1O[C@@H](C)C1(C)C	
InChI=1S/C7H13NO/c1-5-7(2,3)6(8-4)9-5/h5H,1-4H3	InChI=1S/C7H13NO/c1-5-7(2,3)6(8-4)9-5/h5H,1-4H3/t5-/m0/s1
