13
gdb 50774	12.00054	0.40045	0.39246	2.6986	93.95	-0.2641	-0.0904	0.1736	2534.0989	0.085231	-419.388363	-419.378672	-419.377728	-419.425873	30.909	
O	-0.5055126238	 0.7551463523	 0.9614964011	-0.216631
C	-0.022573566	 1.0915959536	-0.0822545495	 0.170892
C	 1.3324742526	 1.8108492389	-0.1830550596	-0.452648
C	 1.3663409859	 2.8034831328	-1.2378279814	 0.267208
C	 1.3501165664	 3.6274123858	-2.1260779416	-0.166312
C	 1.3420967591	 4.550456053	-3.1169694821	-0.156749
C	 1.3378271955	 5.3802051586	-4.0042228068	 0.24489
C	 1.3067384469	 6.3446502471	-5.0714250762	-0.033251
O	 2.0177950697	 7.3221404747	-5.1275455665	-0.218173
H	-0.5108307853	 0.8900947216	-1.0589104494	 0.106624
H	 1.5697743981	 2.2396555667	 0.7963358686	 0.172543
H	 2.0866494213	 1.0337026874	-0.3832144346	 0.174147
H	 0.5621359896	 6.1196847577	-5.8611907421	 0.107461
21.78	44.2165	64.1012	95.0965	125.7815	221.8247	252.2426	366.2003	400.3615	440.801	540.2933	555.7645	600.8385	708.4628	768.2558	974.2963	1016.2011	1017.3031	1037.1819	1204.3335	1250.7831	1314.0992	1411.7778	1418.5324	1430.3549	1755.1173	1845.1329	2253.4931	2353.7389	2915.6547	2925.5052	3002.8954	3079.7507
O=CCC#CC#CC=O	O=CCC#CC#CC=O	
InChI=1S/C7H4O2/c8-6-4-2-1-3-5-7-9/h6-7H,4H2	InChI=1S/C7H4O2/c8-6-4-2-1-3-5-7-9/h6-7H,4H2
