14
gdb 123960	3.59819	1.66944	1.17652	6.0831	63.63	-0.2372	-0.0244	0.2127	961.6455	0.104046	-469.957405	-469.95098	-469.950036	-469.988228	25.166	
C	 0.003915351	 1.4277050121	-0.0071235601	-0.194255
C	 1.425239713	 1.9948320827	 0.0390567682	-0.081972
O	 2.1661356171	 1.5377785421	 1.1878069899	-0.260789
C	 1.9979250116	 0.2252523581	 1.4065072216	 0.395358
N	 2.720242966	-0.5073569913	 2.1976731617	-0.195052
O	 2.1500453823	-1.7592949697	 2.1308117717	-0.170227
N	 1.0546723929	-1.7862245979	 1.2736695685	-0.216716
C	 0.9589991132	-0.5682188918	 0.8249629376	 0.33542
N	 0.0723562395	-0.032967902	-0.0807395885	-0.401139
H	-0.5565930919	 1.7803755835	 0.8717299712	 0.125248
H	-0.4924122095	 1.8083720105	-0.9042935284	 0.131037
H	 1.9695630468	 1.713801417	-0.8702620064	 0.134743
H	 1.400786269	 3.0820742438	 0.1217728018	 0.137242
H	-0.805155451	-0.5231307571	-0.1798926087	 0.261103
134.2925	235.3268	339.4467	407.2705	439.1163	455.6988	551.3863	576.6001	585.6152	722.2127	761.2056	768.4125	868.1286	899.5892	916.2539	980.3972	1042.3938	1060.9473	1109.6345	1115.0733	1250.7268	1270.364	1295.6854	1366.9857	1411.6216	1440.8748	1491.6947	1497.3073	1501.5168	1619.2883	1686.6413	2994.722	3044.7068	3092.3902	3133.9916	3603.4111
C1COC2=NON=C2N1	C1COc2nonc2N1	
InChI=1S/C4H5N3O2/c1-2-8-4-3(5-1)6-9-7-4/h1-2H2,(H,5,6)	InChI=1S/C4H5N3O2/c1-2-8-4-3(5-1)6-9-7-4/h1-2H2,(H,5,6)
