17
gdb 38589	3.49395	1.70124	1.50937	1.8752	70.83	-0.239	0.0581	0.2971	899.4811	0.13709	-421.703695	-421.697436	-421.696492	-421.73396	26.725	
C	-0.1125391555	 1.5509686606	 0.125313893	-0.252601
C	 1.3917887518	 1.2585624115	 0.0603390591	-0.018271
O	 1.1539554058	 0.045891973	 0.9303358624	-0.380506
C	 0.1127202359	 0.0332532637	-0.12379732	 0.459069
C	-0.8772966018	-0.9367597251	-0.7363527138	-0.168605
O	-1.8603048394	-0.1917588455	-1.4621138067	-0.23573
C	-0.7340103022	-0.6921949783	-2.1978918844	 0.066156
C	 0.3809995972	 0.356067374	-2.4926503768	-0.334264
C	 1.179280113	 0.3152409394	-1.17287956	 0.012279
H	-0.4925422337	 1.8008580504	 1.1158643412	 0.108978
H	-0.566003392	 2.1450860105	-0.6671872455	 0.110248
H	 2.245201236	 1.8753255077	 0.3422326144	 0.0973
H	-1.1935104743	-1.8737242248	-0.2880041795	 0.10975
H	-0.9827847596	-1.4409658489	-2.9467080195	 0.102451
H	 0.9813811184	 0.0557602262	-3.3550306945	 0.109287
H	-0.0789151468	 1.320324539	-2.7235962531	 0.126073
H	 1.9366887171	-0.4727012635	-1.1921811262	 0.088386
213.5076	251.2595	367.1187	416.3679	469.4999	541.0599	561.4304	656.6156	686.6797	739.375	796.2495	833.615	840.7135	892.2376	912.5386	922.4425	966.6209	979.3629	1003.3808	1024.8209	1062.8174	1072.9043	1101.3909	1114.6717	1139.9576	1177.2859	1187.9279	1202.4204	1236.6239	1244.8194	1254.0752	1291.4753	1332.6587	1374.6655	1388.0252	1474.8768	1504.0747	3067.0079	3078.6222	3090.7128	3114.9591	3119.8843	3138.7116	3163.5185	3166.7258
C1C2OC11C3OC3CC21	C1[C@H]2O[C@]31[C@H]1O[C@H]1C[C@@H]23	
InChI=1S/C7H8O2/c1-3-5-2-7(3,9-5)6-4(1)8-6/h3-6H,1-2H2	InChI=1S/C7H8O2/c1-3-5-2-7(3,9-5)6-4(1)8-6/h3-6H,1-2H2/t3-,4-,5+,6-,7-/m0/s1
