22
gdb 90152	2.74593	1.55951	1.35589	1.5038	84.92	-0.222	0.0829	0.305	1081.2007	0.196867	-367.18402	-367.176137	-367.175193	-367.215836	32.596	
C	-0.4535499885	 1.4008868549	-0.2779985501	-0.405102
C	-0.1172247509	-0.0562846885	 0.0102616991	-0.048542
C	 0.9424268209	-0.6876194323	-0.968524476	-0.324366
C	 1.8762684411	-0.912931858	 0.2347585004	 0.262541
C	 3.2620264932	-0.4194209543	 0.5816619317	-0.284553
C	 3.079718874	 0.1314953966	 2.0324575668	-0.20062
C	 1.5899881867	 0.589871084	 2.1582539303	-0.29429
C	 0.8796677647	-0.3077449525	 1.1712160191	 0.256989
N	 1.2387412458	-1.7229780538	 1.2750850527	-0.396694
H	 0.4522998302	 2.0051397614	-0.400926718	 0.115008
H	-1.0378016473	 1.4889227029	-1.2001132855	 0.11568
H	-1.0403215127	 1.8417413628	 0.5353403838	 0.1179
H	-1.0479203453	-0.6291647352	 0.1105418893	 0.062753
H	 0.65089401	-1.5805000962	-1.5328225752	 0.091084
H	 1.3264926977	 0.0546973504	-1.6743197796	 0.103051
H	 4.0474233482	-1.1804771679	 0.5332901332	 0.100305
H	 3.5392712274	 0.3851830579	-0.110301096	 0.094294
H	 3.2658203647	-0.6742619529	 2.7453152908	 0.122434
H	 3.7809080644	 0.9397886986	 2.2588002663	 0.090592
H	 1.2303562613	 0.5110750903	 3.1892036963	 0.099977
H	 1.4777530602	 1.6358154078	 1.8505138283	 0.097711
H	 0.5145856944	-2.3284397061	 0.896129952	 0.223849
127.602	197.3027	230.3105	261.1521	317.4191	365.0027	438.0001	471.5795	518.9004	588.3611	637.0674	714.472	734.2982	800.3998	843.5817	849.1243	884.2498	894.6736	911.845	967.6903	978.6168	1023.8576	1034.2855	1062.8821	1084.3328	1089.3041	1120.2056	1178.7202	1190.5112	1209.7794	1228.5078	1238.3366	1245.9002	1261.0922	1275.7042	1334.4314	1340.6398	1353.0586	1369.2417	1413.2381	1417.4656	1480.7438	1484.4713	1488.2383	1495.1769	1500.0936	1504.2756	3012.9019	3026.2871	3032.6868	3035.9945	3040.3717	3066.631	3076.0808	3078.3286	3089.7313	3096.272	3096.6934	3119.0802	3487.4968
CC1CC23CCCC12N3	C[C@H]1C[C@@]23CCC[C@@]12N3	
InChI=1S/C8H13N/c1-6-5-7-3-2-4-8(6,7)9-7/h6,9H,2-5H2,1H3	InChI=1S/C8H13N/c1-6-5-7-3-2-4-8(6,7)9-7/h6,9H,2-5H2,1H3/t6-,7-,8+/m0/s1
