19
gdb 87766	3.82907	1.06313	1.05913	2.596	76.84	-0.2396	0.0744	0.314	1234.8892	0.157112	-422.968563	-422.959832	-422.958888	-423.001659	33.705	
C	 0.0754308586	 1.5118282946	-0.0312930864	-0.498344
C	-0.0906489736	 0.0365482494	 0.1289698989	 0.423814
C	-1.3958078542	-0.7943184505	 0.0591277903	-0.372072
C	-0.7243204859	-1.8008160855	 1.0218680145	 0.365197
C	-1.3738294249	-2.4896868819	 2.194451226	-0.406565
C	-0.8423581686	-3.2850767933	 1.0186315086	 0.041247
O	-1.7424204149	-3.8191564251	 0.0921411172	-0.419598
C	 0.5298651154	-0.9485999131	 1.0356302641	-0.15505
O	 0.9647555318	-0.8236622468	-0.3296699943	-0.286513
H	 1.0925844784	 1.8122458564	 0.2339301119	 0.132879
H	-0.1085232646	 1.8123684915	-1.0692263891	 0.131066
H	-0.6308108606	 2.0548491284	 0.6050504159	 0.123073
H	-2.256430091	-0.2873954664	 0.5042840764	 0.103079
H	-1.6553973319	-1.1705307737	-0.9323825458	 0.121761
H	-0.8378269923	-2.53569444	 3.1379412621	 0.110837
H	-2.4525143654	-2.4050377693	 2.2843982206	 0.114172
H	 0.0662468594	-3.8685417292	 1.1712415124	 0.087312
H	-2.1591251452	-4.589865604	 0.4917125252	 0.287779
H	 1.2794668295	-0.8392348317	 1.8124148114	 0.095928
89.5116	142.3116	184.9403	218.3469	262.2767	305.1784	333.688	407.9558	428.3266	462.8665	539.2829	566.0937	675.9377	774.0337	821.054	860.4123	878.7887	898.9563	935.5214	978.3532	993.4505	1010.0549	1023.6006	1050.9732	1091.1454	1104.6185	1157.1371	1170.5854	1187.7256	1201.7979	1235.0357	1254.5684	1300.1845	1352.6162	1403.0576	1427.7495	1452.0768	1474.1523	1483.2791	1493.8948	1503.6177	3032.8221	3062.117	3094.1054	3094.5708	3117.3828	3120.2398	3124.2546	3173.0323	3206.666	3803.9667
CC12CC3(CC3O)C1O2	C[C@]12C[C@]3(C[C@H]3O)[C@H]1O2	
InChI=1S/C7H10O2/c1-6-3-7(2-4(7)8)5(6)9-6/h4-5,8H,2-3H2,1H3	InChI=1S/C7H10O2/c1-6-3-7(2-4(7)8)5(6)9-6/h4-5,8H,2-3H2,1H3/t4-,5+,6+,7+/m1/s1
