19
gdb 38630	3.40324	1.95348	1.64404	1.6549	77.62	-0.2339	0.0896	0.3236	876.5269	0.163397	-385.845041	-385.839126	-385.838181	-385.874868	26.333	
C	-0.0291483823	 1.554838923	 0.1067957496	-0.35857
C	 1.5125659487	 1.3012208159	-0.0306833746	 0.0468
O	 1.8628423483	 0.66781723	 1.2012324949	-0.269718
C	 1.0478342874	-0.4883684138	 1.0391535063	 0.087903
C	 1.5480926193	-1.2780095056	-0.1915881574	-0.081466
C	 0.3244440741	-2.1859598334	-0.5114565107	-0.222945
C	-0.8920511648	-1.1920198625	-0.3152866055	-0.343807
C	-0.0624532195	 0.0240006596	 0.0261436826	 0.309716
C	 1.1965708744	 0.0346886196	-0.9151787784	-0.061256
H	-0.3714329266	 2.0637064371	 1.01172677	 0.101337
H	-0.4470650369	 2.0253083594	-0.7873468124	 0.103195
H	 2.2254152352	 2.0796069317	-0.2973883032	 0.07954
H	 0.8192458394	-0.959423302	 1.995466691	 0.073737
H	 2.5313519178	-1.7514848517	-0.216690194	 0.061511
H	 0.3639414657	-2.5808748375	-1.5304391304	 0.103106
H	 0.2735393179	-3.040497861	 0.1704071172	 0.10099
H	-1.4806948413	-1.0724484186	-1.2291752639	 0.101379
H	-1.5672006526	-1.5163710736	 0.4827167657	 0.09988
H	 1.100277056	 0.1366847636	-1.9957431467	 0.068669
252.7377	320.2145	403.8229	432.5212	509.5173	613.2213	657.6655	728.2171	741.4943	805.6709	832.8472	860.6731	871.28	909.9663	919.0876	932.9053	940.1559	955.3949	991.6923	1003.5446	1033.1507	1057.8039	1072.4666	1088.8339	1116.6975	1156.9893	1177.8522	1189.9667	1206.4815	1210.6904	1238.1649	1250.8171	1260.493	1274.154	1280.9753	1313.1502	1325.5178	1366.0496	1478.855	1492.6349	1513.7269	3045.4815	3055.0653	3056.7769	3083.0166	3094.9936	3102.112	3117.5801	3119.456	3122.0064	3138.2331
C1C2OC3C4CCC13C24	C1[C@H]2O[C@@H]3[C@H]4CC[C@@]13[C@@H]24	
InChI=1S/C8H10O/c1-2-8-3-5-6(8)4(1)7(8)9-5/h4-7H,1-3H2	InChI=1S/C8H10O/c1-2-8-3-5-6(8)4(1)7(8)9-5/h4-7H,1-3H2/t4-,5+,6+,7+,8-/m0/s1
