22
gdb 60444	2.65983	0.99629	0.86862	6.3626	79.59	-0.2358	0.0353	0.2712	1440.444	0.193459	-441.517325	-441.50721	-441.506266	-441.552867	36.729	
C	 0.4998652568	-0.2576515653	-0.2907257327	-0.332658
N	-0.5165971352	-0.6644574494	 0.6842319219	-0.083043
H	-0.5500199798	-2.3707966411	 0.4219280845	 0.316575
C	-0.1717489108	-0.1815287357	 2.0219947161	-0.325236
C	-1.8690019064	-0.2413497016	 0.2812188365	-0.13379
C	-2.5018988583	-1.1160394733	-0.8087044196	-0.23598
C	-2.8385335989	-2.5635319732	-0.3869689017	-0.315414
C	-1.7233261613	-3.6097761723	-0.5025983943	 0.381511
O	-0.5452152313	-3.2973618292	 0.0479169157	-0.38643
O	-1.9032456317	-4.672979562	-1.0407210814	-0.331689
H	 1.4749196191	-0.6433865849	 0.0175973455	 0.137993
H	 0.2706217493	-0.6751447072	-1.2730270896	 0.141345
H	 0.5670825762	 0.8392641367	-0.3809517487	 0.111916
H	-0.1567511939	 0.9199207682	 2.0793366457	 0.110081
H	-0.8964286773	-0.5560004706	 2.7497898508	 0.131398
H	 0.818529812	-0.5520646603	 2.3005908013	 0.134333
H	-2.5050984319	-0.2880420883	 1.1722417273	 0.107632
H	-1.858505806	 0.8127927328	-0.0456600344	 0.092846
H	-3.4375928347	-0.6232526583	-1.0958360375	 0.114311
H	-1.8828617866	-1.1198327794	-1.7131330703	 0.118344
H	-3.1931260759	-2.5650749504	 0.6533011232	 0.115512
H	-3.6572530933	-2.9463814054	-0.9985065383	 0.130444
52.1527	88.3768	119.9004	142.9393	223.0596	234.8857	245.4514	281.5417	345.2823	413.9316	425.5681	456.1896	497.3173	583.2948	692.9574	761.728	840.536	895.8944	909.3338	968.8223	1015.4707	1030.1972	1056.3712	1075.781	1088.6441	1126.385	1157.9789	1191.3425	1220.1381	1263.0503	1293.3581	1311.9043	1331.9251	1355.4762	1379.1902	1406.5553	1443.6909	1467.2502	1473.0403	1480.0277	1484.4921	1492.698	1494.184	1503.2129	1504.841	1511.3721	1847.6818	2955.8553	2968.4254	2971.8276	3020.665	3039.6881	3057.4721	3077.7192	3080.142	3090.8008	3098.4153	3116.7626	3122.0889	3133.4835
C[NH+](C)CCCC([O-])=O	CN(C)CCCC(=O)O	
InChI=1S/C6H13NO2/c1-7(2)5-3-4-6(8)9/h3-5H2,1-2H3,(H,8,9)	InChI=1S/C6H13NO2/c1-7(2)5-3-4-6(8)9/h3-5H2,1-2H3,(H,8,9)
