17
gdb 37267	4.09792	1.90486	1.74462	1.565	72.05	-0.2321	0.0725	0.3046	813.8908	0.140258	-380.782763	-380.777288	-380.776344	-380.812219	24.232	
C	 0.0087720243	 1.4921060299	-0.0534852335	-0.257972
C	 1.2746904263	 0.7118574171	-0.0194655886	-0.033324
C	 1.9047860219	 0.4508167682	 1.3374708149	-0.061053
C	 2.1586226714	-1.0417772152	 1.6004747442	-0.047332
C	 0.8068969167	-1.6801758457	 1.5809559449	-0.039137
C	-0.1660581011	-0.5333149711	 1.3161551069	-0.016922
C	 0.7376557524	 0.2281096561	 2.3310678783	-0.042379
N	 1.3429611663	-1.0912287273	 2.858048271	-0.181792
N	-0.0382652154	 0.0203515076	-0.0392223649	-0.100737
H	-0.2933530386	 2.0342763388	 0.8401544125	 0.114823
H	-0.3181421097	 1.9445699823	-0.9843154525	 0.121352
H	 1.8847602631	 0.6163209316	-0.9132433142	 0.095819
H	 2.704346797	 1.1198572858	 1.6543526431	 0.08341
H	 3.0772632358	-1.6069401176	 1.4959924877	 0.097165
H	 0.6556034102	-2.7459534226	 1.461180815	 0.099351
H	-1.201364766	-0.7151054947	 1.6036283686	 0.083609
H	 0.3842123455	 0.9767165868	 3.0345025466	 0.085121
293.4311	313.4516	470.9541	496.529	654.5909	665.1994	779.5065	784.9157	812.6363	819.1354	837.1509	860.396	877.3073	925.4762	928.4722	938.5508	953.2552	1016.9397	1031.9135	1038.2978	1048.8444	1057.4415	1091.0721	1110.6412	1135.2002	1160.0373	1167.7631	1204.9246	1227.3302	1234.1489	1252.0927	1276.5373	1309.2971	1332.0065	1356.7939	1377.2666	1502.3197	3106.7052	3120.2307	3121.2604	3148.6363	3154.6675	3181.4109	3195.4212	3195.8028
C1C2C3C4C5C(C3N45)N12	C1[C@H]2[C@@H]3[C@@H]4[C@@H]5[C@@H]([C@H]3N45)N12	
InChI=1S/C7H8N2/c1-2-3-4-6(8(1)2)7-5(3)9(4)7/h2-7H,1H2	InChI=1S/C7H8N2/c1-2-3-4-6(8(1)2)7-5(3)9(4)7/h2-7H,1H2/t2-,3-,4-,5+,6+,7+,8?,9?/m0/s1
