17
gdb 103322	3.33145	1.30154	1.12106	2.8774	68.75	-0.2455	0.0097	0.2552	1091.9199	0.135083	-458.914398	-458.906279	-458.905334	-458.946863	31.676	
O	 0.7450154254	-0.3609015122	 1.2823470067	-0.413982
C	 0.1064526615	-0.004212198	 0.0748756203	-0.132778
C	-1.2910376467	-0.6119808743	 0.0089579394	 0.405061
O	-2.0088603939	-0.1827476613	 1.1607203467	-0.484706
C	-2.0940877584	-0.6531715172	-1.3391933817	-0.261899
C	-1.175395239	-1.8585310428	-1.7463023515	-0.262549
C	-1.478139483	-2.1445531585	-0.2347711395	-0.206033
C	-2.918376732	-1.7524655477	-0.6273530642	 0.456844
O	-4.0389071018	-2.1334982613	-0.5241114582	-0.318782
H	 0.0792962954	-0.2516208514	 1.9733237695	 0.288642
H	 0.0045792127	 1.0927053751	-0.0196346663	 0.078611
H	 0.7554447979	-0.3340830111	-0.737914336	 0.116288
H	-2.1987305772	 0.758575662	 1.0704684437	 0.289871
H	-2.4206245161	 0.1821674235	-1.9560594325	 0.092122
H	-1.5910282333	-2.56306433	-2.4665513452	 0.127216
H	-0.1427122528	-1.6137410517	-1.9859781205	 0.120039
H	-1.1144652387	-2.9607942832	 0.3834923792	 0.106035
108.1154	141.3608	173.3962	294.3218	336.7031	357.1756	407.29	446.8408	475.8957	500.9244	541.4043	680.0496	713.7698	765.3721	803.6093	814.5652	882.8328	934.4678	985.8478	1015.0086	1032.6488	1072.6346	1080.7607	1092.6929	1132.2147	1140.3775	1169.1025	1201.2662	1208.3138	1223.1133	1245.081	1339.3014	1379.9363	1443.2903	1500.1927	1530.0332	1933.315	2935.7698	3097.4948	3113.2316	3139.6417	3164.423	3170.2322	3776.8891	3793.7353
OCC1(O)C2CC1C2=O	OC[C@@]1(O)[C@H]2C[C@@H]1C2=O	
InChI=1S/C6H8O3/c7-2-6(9)3-1-4(6)5(3)8/h3-4,7,9H,1-2H2	InChI=1S/C6H8O3/c7-2-6(9)3-1-4(6)5(3)8/h3-4,7,9H,1-2H2/t3-,4+,6+
