19
gdb 55771	4.12149	0.99162	0.92646	3.7347	77.13	-0.2311	0.0545	0.2856	1319.193	0.160076	-419.217612	-419.208765	-419.20782	-419.251771	33.598	
N	-0.2713075635	 1.4208550448	-0.2824764284	-0.568007
C	-0.1703428313	 0.0555479774	-0.5490829297	 0.42672
O	 0.5495454678	-0.3855740182	-1.4220481747	-0.382922
N	-1.0118906152	-0.7160766416	 0.2282297056	-0.449424
C	-1.0552431538	-2.1300114585	 0.190485749	 0.420115
C	-1.1578290541	-2.8780024648	-1.1020040228	-0.271201
C	-2.2474076778	-3.0666384821	-0.0840280974	-0.128095
C	-1.7663073282	-4.017341517	 1.0187440617	-0.219481
C	-0.564802486	-3.0576385835	 1.3131406079	-0.28014
H	 0.4798761222	 1.9413384221	-0.7100004822	 0.259671
H	-0.4679830862	 1.7041155053	 0.6661688244	 0.24175
H	-1.5990666411	-0.2489609852	 0.901148958	 0.234293
H	-1.4097621801	-2.2597819993	-1.9547878647	 0.130079
H	-0.4558970175	-3.6791097432	-1.3219824001	 0.107086
H	-3.2781811995	-2.8117874364	-0.3002699706	 0.086039
H	-2.4554754996	-4.0948880621	 1.8625799138	 0.099366
H	-1.5073042955	-5.0277353391	 0.6869258845	 0.099987
H	 0.4464795637	-3.4615618079	 1.1978979176	 0.101474
H	-0.6455484944	-2.5963619004	 2.301399418	 0.092691
44.7257	73.4994	138.9893	242.2227	307.3177	346.3154	366.7584	405.5647	439.8724	459.494	551.5756	607.1068	701.757	768.5947	781.1696	789.727	843.8945	903.4312	930.6625	960.5951	973.3626	985.7667	1019.705	1046.8556	1091.4009	1098.8627	1116.0176	1155.3835	1215.1811	1220.4801	1235.1936	1274.7131	1299.5329	1324.7376	1405.635	1482.4082	1486.5978	1514.6965	1530.77	1628.5385	1809.3756	3042.1849	3053.3517	3089.6202	3110.2065	3116.7907	3181.7771	3225.0403	3569.7701	3614.2996	3683.5936
NC(=O)NC12CC1CC2	NC(=O)N[C@]12C[C@H]1CC2	
InChI=1S/C6H10N2O/c7-5(9)8-6-2-1-4(6)3-6/h4H,1-3H2,(H3,7,8,9)	InChI=1S/C6H10N2O/c7-5(9)8-6-2-1-4(6)3-6/h4H,1-3H2,(H3,7,8,9)/t4-,6-/m1/s1
