16
gdb 7923	3.53902	1.77621	1.24113	0.8327	67.4	-0.2553	-0.0057	0.2496	950.285	0.132115	-379.990485	-379.983004	-379.982059	-380.022702	27.872	
C	-0.1781653948	 1.5482888528	 0.0354553652	-0.395307
C	 0.0700408165	 0.0400599429	-0.0036033973	-0.050245
C	 0.9092477555	-0.4663488342	-1.1956921849	-0.356549
C	 1.9000984322	-1.4663900546	-0.6072354674	 0.403685
O	 2.662183644	-2.1994305439	-1.1855797257	-0.350459
N	 1.7867856666	-1.3631072773	 0.773569261	-0.359712
C	 0.8202940098	-0.4676183923	 1.2274116205	 0.387389
N	 0.5532365822	-0.1141626217	 2.4157469143	-0.530701
H	 0.7672713616	 2.1002273287	 0.0069719629	 0.119386
H	-0.7826329437	 1.8633269969	-0.8203761472	 0.116245
H	-0.6988375643	 1.8201681198	 0.9558466894	 0.149376
H	-0.8988227755	-0.4740970668	-0.0010612022	 0.115067
H	 0.326616681	-0.9403288764	-1.9879346528	 0.14031
H	 1.4858714042	 0.3413556731	-1.6607815832	 0.140905
H	 2.3890035626	-1.8967715929	 1.3837751294	 0.259234
H	 1.1554305619	-0.5733717943	 3.1008664679	 0.211376
53.2317	131.5561	226.4053	260.6143	346.144	391.9138	530.8431	542.8225	583.051	633.3247	635.4596	691.275	786.2819	872.5218	886.4786	921.5378	939.3246	1046.3878	1091.805	1111.0612	1143.9615	1197.5569	1235.1607	1270.4236	1313.8159	1339.9903	1362.1588	1387.6079	1411.3113	1466.1191	1492.5901	1500.4192	1760.4352	1855.281	3034.1346	3041.2233	3056.7635	3107.6986	3118.0749	3136.3681	3459.9669	3618.6325
CC1CC(=O)NC1=N	C[C@H]1CC(=O)N[C]1[NH]	
InChI=1S/C5H8N2O/c1-3-2-4(8)7-5(3)6/h3H,2H2,1H3,(H2,6,7,8)	InChI=1S/C5H8N2O/c1-3-2-4(8)7-5(3)6/h3H,2H2,1H3,(H2,6,7,8)/t3-/m0/s1
