19
gdb 90368	2.38194	1.55368	1.30863	3.7177	77.08	-0.2332	0.0215	0.2547	1084.1916	0.158842	-419.18581	-419.177168	-419.176224	-419.218764	33.174	
C	 0.3803250302	 1.5274842923	 0.0001361599	-0.38914
C	 0.1278854007	 0.0320884329	 0.05334307	-0.010349
N	 0.9854200228	-0.7921653609	-0.8553834151	-0.333555
C	 1.3456907602	-1.7206033214	 0.2527219819	-0.207998
C	 2.6211503365	-1.2546318932	 0.9235658478	 0.474322
N	 3.8357734293	-1.5474119314	 0.8442350011	-0.55557
O	 1.966690367	-0.3306904338	 1.7297215975	-0.303755
C	 0.6432890728	-0.7830293875	 1.2708069156	 0.422912
C	-0.2574987412	-1.1389975277	 2.4184001228	-0.483399
H	 1.4315220571	 1.7442342082	 0.2014940649	 0.138574
H	 0.1305775872	 1.9199412415	-0.9905957872	 0.119105
H	-0.23608289	 2.0527009588	 0.7381198872	 0.112337
H	-0.9427006915	-0.1788322823	-0.0823692702	 0.07027
H	 0.4733074425	-1.2455080142	-1.6021908346	 0.225922
H	 1.1668822037	-2.7863589737	 0.1152422146	 0.096812
H	 4.3994394849	-0.9733327191	 1.4744373113	 0.226652
H	-0.4994076834	-0.2454393626	 3.0046881465	 0.136957
H	-1.194311167	-1.5707453703	 2.0537898035	 0.125225
H	 0.225229608	-1.8603438454	 3.0838430225	 0.134678
91.5435	176.8805	193.5029	208.3107	222.5855	290.8942	311.3883	409.2743	416.3844	533.0275	606.0662	629.3304	663.5394	787.8228	799.6802	844.6322	870.0628	881.4718	914.2917	965.9792	994.4638	1013.7184	1020.5471	1093.7147	1119.7128	1140.9176	1149.294	1203.3153	1210.4274	1277.9027	1285.8485	1355.6044	1378.49	1380.1514	1409.6116	1416.0488	1482.2265	1486.9474	1489.4913	1493.3743	1828.947	2995.289	3036.0877	3038.7249	3102.8707	3104.4887	3118.987	3124.0879	3134.9506	3468.3537	3552.4566
CC1NC2C(=N)OC12C	C[C@H]1N[C@H]2[C]([NH])O[C@@]12C	
InChI=1S/C6H10N2O/c1-3-6(2)4(8-3)5(7)9-6/h3-4,7-8H,1-2H3	InChI=1S/C6H10N2O/c1-3-6(2)4(8-3)5(7)9-6/h3-4,7-8H,1-2H3/t3-,4+,6+/m1/s1
