17
gdb 17997	3.93669	1.70815	1.54317	1.5916	67.55	-0.2217	-0.032	0.1897	875.4643	0.142499	-363.818863	-363.811676	-363.810732	-363.850875	26.656	
O	-0.6556165298	 0.9692428785	-0.6156631603	-0.240432
C	 0.123460761	 1.0813838294	 0.297074514	 0.135412
C	 1.4037001241	 1.874058835	 0.2386146844	-0.028497
C	 1.6051963156	 2.9102815884	-0.8892437838	-0.284403
C	 1.9435565949	 3.9250866839	 0.2307446803	 0.052008
C	 0.8157212815	 4.8654897656	 0.6944338032	-0.240364
C	 0.351881158	 3.7101629194	 1.6194829229	-0.183686
N	 1.5958122666	 2.9102005905	 1.3164247598	-0.162166
H	-0.0578588022	 0.5842560095	 1.2778074025	 0.088087
H	 2.2240914167	 1.1447053433	 0.3094705757	 0.1033
H	 2.4048627433	 2.6917798607	-1.5988784472	 0.109689
H	 0.689770693	 3.1278017717	-1.4455202295	 0.123266
H	 2.9654611687	 4.3132152264	 0.2312608279	 0.078433
H	 1.1752583682	 5.7416166365	 1.2383486698	 0.111463
H	 0.1137206648	 5.1933936622	-0.0759693012	 0.109824
H	 0.2759470927	 3.9506140927	 2.6830354476	 0.113228
H	-0.5849396772	 3.2322460562	 1.3119164839	 0.114839
65.4669	94.0426	207.8345	255.119	343.5706	443.0808	574.9171	671.9794	722.2696	757.2665	807.7395	867.8276	900.701	908.7153	918.4286	956.5079	982.7596	1033.4749	1071.0204	1106.824	1127.6967	1153.4688	1182.0606	1208.5771	1233.4489	1250.2738	1252.1256	1275.0242	1308.7525	1338.671	1366.8681	1412.28	1481.8531	1490.1964	1511.2928	1823.4409	2870.9194	2997.8418	3037.3566	3062.5576	3068.2484	3072.7083	3087.1159	3120.4924	3127.0864
O=CC1CC2CCN12	O=C[C@H]1C[C@H]2CCN12	
InChI=1S/C6H9NO/c8-4-6-3-5-1-2-7(5)6/h4-6H,1-3H2	InChI=1S/C6H9NO/c8-4-6-3-5-1-2-7(5)6/h4-6H,1-3H2/t5-,6-/m1/s1
