15
gdb 49392	6.74489	0.94812	0.91985	0.4739	70.97	-0.2553	-0.0447	0.2106	1212.3153	0.111985	-420.57099	-420.563843	-420.562899	-420.603121	26.816	
O	 0.0293330187	-0.1202126128	-0.4321027355	-0.249851
C	 0.0339665703	 1.0490881903	-0.1401270074	 0.150359
C	 1.2739505888	 1.8938749427	-0.0698972394	-0.120238
C	 1.2267225017	 3.3210267384	-0.6778762373	-0.04673
C	 0.4123487197	 3.9236780177	 0.535452764	-0.215074
C	 1.4313501381	 2.8698658558	 1.1266863248	-0.046761
C	 2.3574524051	 3.8357698011	 0.2927804667	-0.201137
C	 1.4706687008	 5.0142630966	 0.6880389369	 0.452485
O	 1.5569622527	 6.1690970767	 0.9672144948	-0.321064
H	-0.9151479961	 1.5810934406	 0.1010693904	 0.073688
H	 2.1505033967	 1.2902496554	-0.3201514013	 0.096521
H	 1.1112657769	 3.6113088105	-1.7214191157	 0.107293
H	-0.6667456564	 3.9428442841	 0.6626321794	 0.108551
H	 1.5542033358	 2.6349394148	 2.1832237216	 0.107312
H	 3.4300603473	 3.7311992582	 0.1450315482	 0.104645
73.1666	144.2222	154.1648	295.0546	394.4044	420.5074	544.5956	664.4849	700.4926	767.894	801.3602	817.3746	832.4194	888.0795	941.7106	962.734	998.0802	1011.2844	1037.621	1089.321	1113.3375	1115.3239	1134.2122	1135.2439	1162.3135	1196.574	1210.6438	1234.8697	1276.773	1332.7828	1440.2783	1826.1899	1922.3961	2867.5175	3084.9859	3124.537	3124.6645	3152.8893	3161.0836
O=CC1C2C3C1C2C3=O	O=C[C@H]1[C@H]2[C@H]3[C@@H]1[C@@H]2C3=O	
InChI=1S/C7H6O2/c8-1-2-3-5-4(2)6(3)7(5)9/h1-6H	InChI=1S/C7H6O2/c8-1-2-3-5-4(2)6(3)7(5)9/h1-6H/t2-,3-,4+,5-,6+
