17
gdb 126225	3.02028	1.22056	0.93015	2.1031	71.97	-0.2252	0.0052	0.2304	1255.8196	0.135672	-455.144404	-455.135097	-455.134153	-455.179378	33.15	
C	 0.1868074849	 1.5967234632	-0.1866642862	-0.374561
C	-0.010178778	 0.0844009189	 0.0221476244	-0.295756
C	 0.595873247	-0.4237750199	 1.2822753757	 0.442074
C	 0.0469088976	-0.8661141557	 2.4497625273	-0.074451
N	-1.3238084938	-0.9897466519	 2.7762341461	-0.622133
C	 1.1935835062	-1.200300326	 3.2314723365	 0.415196
O	 1.1358022653	-1.7077397521	 4.4754843342	-0.426752
N	 2.3227815238	-0.9824051991	 2.6087490567	-0.266197
O	 1.9422951914	-0.4662659592	 1.3610502987	-0.236791
H	 1.2500521679	 1.8497102445	-0.2156966525	 0.137623
H	-0.2675730526	 1.9153683406	-1.1292361537	 0.118253
H	-0.2739151797	 2.1688828663	 0.6243863612	 0.119372
H	-1.076048702	-0.1624564133	 0.0551264976	 0.130362
H	 0.425455518	-0.4603396635	-0.8239474323	 0.125796
H	-1.6975416342	-0.1325772537	 3.1716441685	 0.246756
H	-1.4580292244	-1.7178186022	 3.4695820245	 0.249615
H	 2.0415885027	-1.8783277569	 4.7660465133	 0.311594
42.9327	71.3996	114.5815	189.8306	232.6481	256.9288	296.051	337.7103	408.7774	452.8463	544.71	576.661	672.5697	719.1904	752.1027	772.5141	798.7075	846.7756	948.4182	979.4621	1037.2449	1079.13	1089.2142	1211.4059	1228.2582	1244.3473	1313.3462	1336.1715	1371.5473	1408.437	1474.7351	1496.2443	1504.5779	1531.8763	1576.0259	1656.7609	1709.9988	3037.7223	3042.8129	3087.6918	3114.1469	3124.3332	3501.7035	3576.9344	3783.4571
CCC1=C(N)C(O)=NO1	CCc1c(N)c(O)no1	
InChI=1S/C5H8N2O2/c1-2-3-4(6)5(8)7-9-3/h2,6H2,1H3,(H,7,8)	InChI=1S/C5H8N2O2/c1-2-3-4(6)5(8)7-9-3/h2,6H2,1H3,(H,7,8)
