15
gdb 29563	2.37548	1.86454	1.04721	2.9047	73.99	-0.199	-0.0312	0.1678	1065.0231	0.114659	-453.989099	-453.981259	-453.980315	-454.020981	30.743	
N	 0.0306457514	 1.3754681414	 0.1459583989	-0.585759
C	-0.0367572677	-0.0091167211	 0.0629618752	 0.112933
C	-1.1847494141	-0.732617215	 0.0200833261	-0.02237
O	-1.2071665496	-2.0811690513	-0.019059149	-0.178469
C	-0.0437098643	-2.7641159915	 0.0044114387	-0.022338
C	 1.171771532	-2.1607704842	 0.0462887383	 0.112889
N	 2.3897071045	-2.8246350368	 0.1134069374	-0.585764
C	 1.2466051532	-0.7035226026	 0.0551693957	 0.327
O	 2.3239420572	-0.0982594074	 0.0367639412	-0.42853
H	 0.9696821808	 1.6923689932	-0.0676453788	 0.262758
H	-0.6832559027	 1.888310502	-0.3495137816	 0.245819
H	-2.1826862943	-0.3142650511	 0.0105300571	 0.126627
H	-0.205834131	-3.8338183714	-0.0166009744	 0.126635
H	 2.4528785358	-3.6950002067	-0.3931927338	 0.245817
H	 3.1475322487	-2.1850606276	-0.0975547811	 0.262751
122.5903	233.2944	288.795	312.025	325.9745	340.6834	357.0402	477.2735	492.0733	513.5258	528.0502	588.6748	672.2184	675.6502	697.3306	801.6681	828.1748	839.1115	858.411	1041.8322	1068.376	1166.1282	1177.7162	1248.0445	1351.6888	1356.6476	1426.5031	1477.3593	1605.8853	1622.2466	1654.3645	1681.6144	1698.1491	3216.7266	3221.4813	3530.2	3531.3934	3650.1029	3650.5698
NC1=COC=C(N)C1=O	Nc1cocc(N)c1=O	
InChI=1S/C5H6N2O2/c6-3-1-9-2-4(7)5(3)8/h1-2H,6-7H2	InChI=1S/C5H6N2O2/c6-3-1-9-2-4(7)5(3)8/h1-2H,6-7H2
