17
gdb 20185	3.4395	2.61493	2.02348	0.632	66.55	-0.2305	0.088	0.3186	727.4885	0.145787	-363.817779	-363.811874	-363.81093	-363.847441	24.264	
C	-0.0093667532	 1.5848786829	 0.028565938	-0.25573
C	 1.510898114	 1.5116562508	-0.042942713	-0.044581
C	 2.1296236669	 0.6091992161	 0.953993613	-0.012724
C	 1.6359679558	 0.2753356921	 2.3477051959	-0.11187
O	 0.2298374145	 0.172991516	 2.462834796	-0.242254
C	-0.3352779894	-0.5851974798	 1.4052848421	-0.091633
C	 0.0126605185	 0.0333005418	 0.0640987105	 0.013984
N	 1.5061845562	-0.0041478905	-0.237531554	-0.16828
H	-0.4524676067	 2.1079832296	 0.8780712309	 0.11523
H	-0.4390914668	 1.9652659333	-0.9001470506	 0.108185
H	 2.1284639599	 2.1482078823	-0.6703016181	 0.091954
H	 3.215872269	 0.5564585534	 0.8871013056	 0.095042
H	 2.1076178638	-0.6766315292	 2.6491620124	 0.096187
H	 1.9517921717	 1.0435314951	 3.0616484017	 0.115152
H	 0.0162983125	-1.6303811826	 1.4388346316	 0.097124
H	-1.4172153319	-0.5792157933	 1.570651536	 0.111024
H	-0.5329635849	-0.4537571182	-0.7464001877	 0.08319
207.6946	273.8845	348.9455	389.1112	465.7675	578.0203	704.1942	742.8915	779.8717	796.5008	818.8585	881.0435	889.9285	961.6432	988.9077	1003.5008	1060.6707	1073.3644	1089.0029	1097.5934	1129.1793	1148.4669	1164.8924	1229.4821	1249.5705	1271.4092	1278.7348	1326.4985	1335.658	1364.1107	1383.1418	1417.0909	1451.2958	1481.7272	1491.4733	1497.5081	2952.3972	2969.789	3067.3446	3071.695	3077.8498	3090.2901	3115.6596	3125.5732	3150.7953
C1C2C3COCC1N23	C1[C@H]2[C@H]3COC[C@@H]1N23	
InChI=1S/C6H9NO/c1-4-2-8-3-6-5(1)7(4)6/h4-6H,1-3H2	InChI=1S/C6H9NO/c1-4-2-8-3-6-5(1)7(4)6/h4-6H,1-3H2/t4-,5+,6-,7?/m1/s1
