17
gdb 83137	2.0929	1.80434	1.46409	3.2967	68.06	-0.255	0.0004	0.2553	990.4035	0.135742	-458.992831	-458.984569	-458.983625	-459.02538	31.226	
C	-0.111396529	 1.5655324512	 0.0586652486	-0.433543
C	 0.0329145367	 0.0611431905	-0.0290450441	-0.075685
C	 0.6752286538	-0.6770034037	-1.1873423994	-0.169238
C	 1.6301051022	 0.1250160652	-2.0547809915	-0.106504
O	 2.6678877785	 0.631539241	-1.1806599661	-0.22325
C	 2.5962033174	 0.0473611125	 0.0397877999	 0.383085
O	 3.4654094399	 0.1145073424	 0.8658592673	-0.365536
C	 1.3168693684	-0.7169706799	 0.1778862893	 0.279409
O	 1.3679990071	-1.8193828091	 1.0114079964	-0.468241
H	 0.761829132	 2.0921355924	-0.3351717183	 0.138655
H	-0.988272293	 1.9033617852	-0.5045624146	 0.122728
H	-0.2443546475	 1.8781619294	 1.0991803504	 0.132627
H	-0.8016519012	-0.4954627052	 0.3918017699	 0.110208
H	 0.1825959329	-1.5415332798	-1.61452112	 0.114749
H	 2.1093960961	-0.4969732009	-2.8171295028	 0.131318
H	 1.1658715931	 0.9868036651	-2.5427780992	 0.128989
H	 2.1012283726	-1.6521529065	 1.6207834441	 0.30023
110.267	186.3807	199.6303	216.3304	247.1535	289.1212	319.021	414.6528	498.9133	521.5059	587.1149	687.6135	713.5484	793.3378	805.1966	885.3942	896.1709	992.023	995.4378	1028.158	1057.769	1091.5071	1112.9682	1138.1445	1149.734	1212.9766	1232.8939	1296.8434	1347.811	1378.994	1410.1669	1421.6429	1475.3589	1498.0011	1504.6696	1521.714	1862.0574	3036.1391	3053.1821	3096.954	3097.7467	3114.8325	3142.5726	3195.4032	3746.705
CC1C2COC(=O)C12O	C[C@H]1[C@H]2COC(=O)[C@@]12O	
InChI=1S/C6H8O3/c1-3-4-2-9-5(7)6(3,4)8/h3-4,8H,2H2,1H3	InChI=1S/C6H8O3/c1-3-4-2-9-5(7)6(3,4)8/h3-4,8H,2H2,1H3/t3-,4+,6+/m0/s1
