21
gdb 109798	2.94758	1.07771	1.00651	1.3699	79.19	-0.2216	0.0705	0.2921	1318.2359	0.181154	-424.171212	-424.161524	-424.16058	-424.206297	35.723	
C	 0.7146416066	 0.9438812871	 0.6094567395	-0.24165
O	-0.1359839131	 0.058582209	-0.1050864678	-0.247942
C	 0.4369972654	-0.3771794608	-1.3036818981	 0.035238
C	 1.2276533828	-1.6569220482	-1.21770486	 0.088061
O	 1.4320122338	-2.2292727365	 0.0370677481	-0.424873
C	-0.1527391596	-1.652476086	-1.8716427641	-0.154427
C	-1.3601022645	-2.2752793086	-1.226057955	-0.007388
C	-1.9797214874	-3.5101486164	-1.8354159959	-0.276044
C	-1.2817229819	-3.6088002395	-0.5073419721	-0.263541
H	 1.6684953645	 0.4655383129	 0.8651628552	 0.127192
H	 0.9193937026	 1.8525776857	 0.0251383575	 0.112379
H	 0.188255042	 1.2228637853	 1.5252215075	 0.128428
H	 0.7352945223	 0.4262468573	-1.9781466012	 0.082054
H	 2.097634147	-1.8013840434	-1.849233071	 0.10249
H	 0.7025492191	-1.9334747724	 0.5966853827	 0.295234
H	-0.1375520894	-1.6959202303	-2.9581526763	 0.091233
H	-2.058916703	-1.5608094586	-0.8027225107	 0.097437
H	-3.0615745792	-3.5798291898	-1.8636392638	 0.107729
H	-1.4839347899	-3.9460187555	-2.6970569776	 0.108936
H	-0.317207485	-4.099510514	-0.4744142998	 0.132804
H	-1.8860836232	-3.7436037876	 0.3836156328	 0.106651
46.7969	96.3061	109.0156	172.6071	191.8942	242.6767	299.8506	312.8872	336.1037	372.9429	574.2181	625.7459	681.144	736.5489	776.0732	799.5966	827.2724	845.1042	921.6833	938.0039	1006.5691	1057.9378	1065.9254	1078.442	1084.0921	1091.9229	1117.9739	1138.3254	1144.7714	1172.7776	1183.2242	1202.3788	1215.6524	1236.2549	1256.0147	1320.8367	1328.6894	1373.6667	1408.5033	1463.5184	1473.1637	1481.5016	1487.7422	1505.3386	1508.7334	2995.7075	3058.5394	3089.2508	3121.7947	3127.5317	3128.19	3139.2846	3153.3827	3169.7963	3209.3509	3234.99	3779.0808
COC1C(O)C1C1CC1	CO[C@H]1[C@@H](O)[C@H]1C1CC1	
InChI=1S/C7H12O2/c1-9-7-5(6(7)8)4-2-3-4/h4-8H,2-3H2,1H3	InChI=1S/C7H12O2/c1-9-7-5(6(7)8)4-2-3-4/h4-8H,2-3H2,1H3/t5-,6+,7-/m1/s1
