20
gdb 17851	4.61634	1.57751	1.48565	0.1396	78.8	-0.2405	0.0925	0.3331	948.7305	0.178643	-311.827701	-311.820494	-311.819549	-311.85917	28.589	
C	 0.0566803166	 1.5124794176	-0.1320602023	-0.20316
C	 1.5911101849	 1.5138258833	 0.1377022355	-0.302075
C	 1.4482063448	 0.0798573974	 0.6782391046	 0.39989
C	 0.0209426919	-0.0241858845	 0.1159592738	-0.310368
C	 2.4197803064	-1.0529762376	 0.7591764902	-0.13424
C	 3.8084917462	-0.5447313047	 1.1687090941	-0.229775
C	 3.1872778053	 0.0624776193	 2.4703316683	-0.231449
C	 1.8086457491	-0.4477977575	 2.0356619346	-0.120265
H	-0.4987544318	 2.0688535912	 0.6268432065	 0.102965
H	-0.2669950595	 1.8554757812	-1.117013387	 0.096204
H	 2.1837817108	 1.5656635851	-0.7814883553	 0.098218
H	 1.964114688	 2.2726338744	 0.8310360311	 0.097364
H	-0.7530311349	-0.3972551208	 0.792927266	 0.096838
H	-0.0284442027	-0.6012363231	-0.8133817072	 0.097876
H	 2.2117589443	-2.0060255679	 0.2844749611	 0.076214
H	 4.5149277711	-1.3489497326	 1.3856055561	 0.100579
H	 4.2847045438	 0.1562554356	 0.4746596137	 0.093814
H	 3.5594866274	-0.4307715912	 3.3710420155	 0.101362
H	 3.281200967	 1.1453143617	 2.6067710901	 0.092905
H	 1.0524336516	-0.8596833767	 2.6955602107	 0.077103
74.3442	172.9808	198.3474	261.1056	381.3235	436.9336	551.7412	698.0455	721.9626	781.3911	794.2613	830.0401	852.8022	869.4314	924.1496	940.2609	948.0967	970.1692	982.8204	990.636	1024.1375	1060.0876	1075.7847	1095.3379	1148.2954	1174.2102	1204.1821	1219.8312	1229.8123	1239.1816	1252.4389	1253.4362	1257.0414	1280.8495	1287.7877	1297.5184	1433.584	1475.4548	1480.8262	1481.9357	1501.6364	1506.6563	3037.8574	3039.4616	3042.7083	3047.3419	3064.7923	3084.8219	3090.4633	3092.0512	3110.3164	3119.679	3156.8199	3168.1397
C1CC2(C1)C1CCC21	C1CC2(C1)[C@H]1CC[C@@H]21	
InChI=1S/C8H12/c1-4-8(5-1)6-2-3-7(6)8/h6-7H,1-5H2	InChI=1S/C8H12/c1-4-8(5-1)6-2-3-7(6)8/h6-7H,1-5H2/t6-,7+
