23
gdb 86060	2.06322	1.54535	1.0167	1.7495	88.95	-0.2238	0.029	0.2529	1281.2422	0.204432	-388.321412	-388.311237	-388.310293	-388.355867	38.591	
C	-0.1790615697	 1.5647232808	-0.037812304	-0.395368
C	 0.0794795789	 0.055804267	-0.0118376553	-0.088426
C	 0.9366422898	-0.4675710635	-1.1968813327	 0.116112
O	 1.9362905997	 0.4634423777	-1.5957827417	-0.433049
C	 1.568875335	-1.7589313575	-0.6412587955	-0.320383
C	 1.6502431548	-1.4916442501	 0.8501713316	 0.201441
C	 2.5097763499	-2.3505572558	 1.7250786539	-0.500173
C	 0.8332435174	-0.4850379948	 1.2007617271	 0.223316
C	 0.5621423477	 0.0446390833	 2.575656947	-0.508029
H	 0.752981415	 2.1343222759	 0.008298305	 0.111566
H	-0.6899218602	 1.8515475339	-0.9622104514	 0.116447
H	-0.810468175	 1.8715806055	 0.801742552	 0.107728
H	-0.8990015827	-0.4509166517	-0.056338371	 0.074877
H	 0.3372391311	-0.6356621325	-2.0956481843	 0.075972
H	 2.5157814035	 0.5969757047	-0.8364534581	 0.276279
H	 0.9385772334	-2.6378212708	-0.843860789	 0.100239
H	 2.5399015028	-1.951969867	-1.1123745491	 0.100169
H	 2.2020527137	-3.4029314381	 1.6628056658	 0.125344
H	 3.5584196631	-2.3188581953	 1.4020358696	 0.122519
H	 2.4736080428	-2.0554208381	 2.7764472794	 0.121233
H	 1.1477386812	-0.4666305891	 3.3432406765	 0.120296
H	 0.7834050289	 1.1165476668	 2.645075929	 0.127357
H	-0.4989021211	-0.0675648016	 2.8363794852	 0.124532
88.2376	136.0213	149.0152	173.8068	207.1849	250.1688	263.6472	299.1593	321.6513	377.1782	384.5393	437.7337	506.7173	532.9408	637.291	655.0642	742.0687	851.9491	860.6607	899.1241	972.4455	985.4391	998.7691	1021.1477	1056.1632	1064.6639	1087.7488	1114.6752	1143.3131	1176.3507	1203.6665	1244.152	1263.675	1278.2095	1327.0799	1343.4601	1352.5404	1408.729	1409.4384	1421.1146	1434.4537	1476.0127	1478.4114	1481.4673	1485.3001	1490.6543	1494.6728	1501.4551	1727.3935	2960.7977	2997.0619	3014.0787	3017.2921	3039.7847	3054.3832	3055.8614	3061.9675	3079.1709	3104.9742	3112.0309	3114.9142	3118.9003	3787.3059
CC1C(O)CC(C)=C1C	C[C@H]1[C@@H](O)CC(=C1C)C	
InChI=1S/C8H14O/c1-5-4-8(9)7(3)6(5)2/h7-9H,4H2,1-3H3	InChI=1S/C8H14O/c1-5-4-8(9)7(3)6(5)2/h7-9H,4H2,1-3H3/t7-,8+/m1/s1
