19
gdb 118360	2.92784	0.95636	0.78624	3.1797	72.95	-0.2516	-0.0243	0.2273	1478.407	0.155947	-460.128141	-460.118129	-460.117185	-460.164318	34.205	
C	-0.0842326358	 1.416329153	-0.1331551775	-0.231633
O	 0.0102761767	 0.0127103516	-0.0439588563	-0.237641
C	 0.7107535151	-0.5677417692	-1.1201885841	-0.081459
C	 0.6615990913	-2.0812165992	-0.9314702411	-0.126353
C	-0.7903151675	-2.5611635897	-0.9288081592	 0.179789
O	-1.1566518383	-3.5790189323	-0.4021384418	-0.261916
C	 1.45423683	-2.7937989285	-2.0162361972	 0.064634
C	 1.236827575	-4.1969767834	-2.3800400824	-0.188768
O	 0.7442635186	-3.137118353	-3.2115552507	-0.237525
H	 0.909268538	 1.8908220216	-0.1298504883	 0.108326
H	-0.6134847513	 1.7316405572	-1.0455742346	 0.109869
H	-0.6441426897	 1.7608871422	 0.7390554965	 0.134198
H	 0.2458622399	-0.2933349122	-2.0834455926	 0.104432
H	 1.7541755352	-0.2124799453	-1.1503180329	 0.093234
H	 1.0935604719	-2.3355520917	 0.0437240719	 0.117245
H	-1.5011360836	-1.9026161893	-1.4715076557	 0.091965
H	 2.4458633114	-2.3735778062	-2.19629977	 0.096495
H	 2.061798655	-4.7682473022	-2.8020810209	 0.118889
H	 0.4755793782	-4.7711046236	-1.858074663	 0.146219
58.7063	73.3495	91.3901	109.3918	147.375	217.5945	234.816	264.4163	335.2856	367.4737	423.7276	555.7982	614.4878	790.8405	859.3905	888.3945	941.5954	984.5764	1003.8083	1044.4877	1099.3139	1121.2014	1135.7595	1163.0021	1165.628	1174.7109	1185.384	1227.6082	1247.0993	1268.1916	1298.2482	1333.7786	1410.6341	1415.0389	1443.1184	1481.1802	1486.3704	1502.4994	1526.6057	1528.6643	1831.3628	2907.031	2952.3289	2977.4832	2984.083	3023.674	3053.5539	3086.7297	3098.9719	3121.236	3195.2531
COCC(C=O)C1CO1	COC[C@@H](C=O)[C@H]1CO1	
InChI=1S/C6H10O3/c1-8-3-5(2-7)6-4-9-6/h2,5-6H,3-4H2,1H3	InChI=1S/C6H10O3/c1-8-3-5(2-7)6-4-9-6/h2,5-6H,3-4H2,1H3/t5-,6-/m1/s1
