20
gdb 95788	2.21297	1.72008	1.04443	3.2518	76.9	-0.2332	0.0265	0.2597	1177.5824	0.171484	-440.325672	-440.316553	-440.315609	-440.359602	33.562	
C	-0.0315454167	 1.5146653237	-0.0386141101	-0.396037
C	 0.0374342972	-0.0062824971	-0.0140839821	 0.01667
O	 0.6921986902	-0.4334507778	-1.2002769044	-0.253594
C	 0.9862572204	-1.8111346603	-1.1621079239	-0.098386
C	 2.0247388948	-2.0865294198	-0.0864526447	-0.152449
N	 1.6066065194	-1.5142809426	 1.1854573842	-0.107441
C	 2.3124616282	-1.9634524296	 2.3733308065	-0.345673
C	 0.6932698545	-0.500845253	 1.2888398728	 0.397107
O	 0.3608557522	-0.0092226161	 2.3556544607	-0.395839
H	 0.9756899854	 1.9379526253	-0.0906469652	 0.123498
H	-0.5932773138	 1.8462318697	-0.9152315612	 0.119421
H	-0.5174693362	 1.8725499204	 0.8693054919	 0.147059
H	-0.9881427912	-0.4169795226	 0.0022971326	 0.096034
H	 0.0741314051	-2.400335038	-0.9696452705	 0.09672
H	 1.3737608601	-2.0902872575	-2.1457228891	 0.115907
H	 2.1558583829	-3.1695680389	 0.0381903688	 0.107876
H	 2.9974739763	-1.6718926628	-0.3906343338	 0.113752
H	 3.3866058559	-1.7523661559	 2.2916302893	 0.122311
H	 1.9030122253	-1.4346290543	 3.2325380196	 0.171542
H	 2.1842647001	-3.0438839629	 2.5101810885	 0.121524
72.1303	116.526	142.4586	202.2804	222.0263	278.6614	312.546	360.659	393.4394	445.3575	486.9465	521.6919	618.5058	697.7398	763.0429	873.1048	921.9998	935.317	1010.8121	1057.5676	1103.2219	1108.7247	1128.361	1156.4239	1163.2411	1185.5788	1254.2889	1281.2106	1296.0741	1339.283	1350.785	1368.4347	1398.3041	1414.9735	1429.2743	1460.5691	1486.4576	1493.8864	1497.8098	1499.7969	1501.1124	1537.6806	1756.0113	2945.6284	2970.2893	2992.9139	3015.0542	3037.353	3054.9711	3064.252	3094.118	3125.5619	3159.7437	3168.749
CC1OCCN(C)C1=O	C[C@H]1OCCN(C)C1=O	
InChI=1S/C6H11NO2/c1-5-6(8)7(2)3-4-9-5/h5H,3-4H2,1-2H3	InChI=1S/C6H11NO2/c1-5-6(8)7(2)3-4-9-5/h5H,3-4H2,1-2H3/t5-/m1/s1
