23
gdb 94669	2.12962	1.6707	1.27531	1.5356	84.86	-0.2511	0.0657	0.3168	1137.6408	0.205768	-388.304314	-388.294927	-388.293983	-388.337544	37.227	
C	-0.0648845179	 1.5152576532	-0.0286389846	-0.48237
C	-0.0320337349	 0.0070562431	 0.0385302777	 0.317898
C	 1.2595961682	-0.7374228899	-0.2132248261	-0.390047
C	 0.6306941638	-0.7886200017	 1.1638511443	 0.273908
C	 1.3587561599	-0.1766313263	 2.3388558006	-0.47588
C	-0.2481251222	-2.0091963457	 1.4420789799	 0.087283
O	-1.0377216969	-1.8237737865	 2.6175352368	-0.434319
C	-1.1188939341	-2.1754126576	 0.1775337984	-0.267097
C	-1.2933928149	-0.7457410959	-0.381031023	-0.274124
H	 0.8590987636	 1.962238924	 0.3494593483	 0.116317
H	-0.1931446988	 1.8579629572	-1.0624188332	 0.117761
H	-0.8974417203	 1.9243023713	 0.5569526156	 0.108414
H	 1.2669548942	-1.6185832943	-0.8472870238	 0.103716
H	 2.1589384708	-0.134959577	-0.3007866023	 0.103402
H	 1.8706420749	 0.7487319217	 2.0596273486	 0.109238
H	 0.6738765816	 0.043092421	 3.1624076824	 0.118066
H	 2.1180856847	-0.8678387167	 2.7235846749	 0.117544
H	 0.3419151266	-2.9074641721	 1.6543768002	 0.080062
H	-1.5668281605	-1.0280675833	 2.4926970981	 0.276487
H	-0.6142612156	-2.815896553	-0.5517206228	 0.104655
H	-2.0646826101	-2.6603299133	 0.4299098676	 0.104041
H	-2.1709776192	-0.2553663447	 0.062518167	 0.087985
H	-1.448985163	-0.7378091134	-1.4658126644	 0.097058
109.1819	178.468	190.1891	207.7444	239.3084	276.0016	303.2151	329.1515	408.7682	442.0064	447.793	457.8637	545.4271	642.65	684.9378	756.8774	817.6103	846.4067	898.3221	930.9832	950.3608	959.1817	988.7266	1003.1229	1033.9171	1055.2768	1071.1876	1101.9832	1106.7883	1143.0272	1191.7163	1233.0275	1246.5257	1271.4796	1281.5502	1310.7071	1330.8714	1356.4169	1395.2005	1412.7586	1421.9718	1428.4675	1481.33	1481.8758	1492.9575	1494.8079	1497.6684	1507.996	1516.1993	3010.2862	3019.6638	3032.0175	3048.4245	3055.4299	3068.0308	3073.9334	3091.2302	3100.9971	3108.5646	3114.895	3120.5096	3198.5757	3799.1851
CC12CC1(C)C(O)CC2	C[C@@]12C[C@]1(C)[C@@H](O)CC2	
InChI=1S/C8H14O/c1-7-4-3-6(9)8(7,2)5-7/h6,9H,3-5H2,1-2H3	InChI=1S/C8H14O/c1-7-4-3-6(9)8(7,2)5-7/h6,9H,3-5H2,1-2H3/t6-,7+,8+/m0/s1
