18
gdb 83447	2.85778	1.15688	1.01552	3.0095	75.76	-0.2486	0.0246	0.2732	1222.541	0.147026	-401.919697	-401.910986	-401.910042	-401.953671	31.917	
C	 0.0009366393	 1.5741747114	 0.1316969485	-0.425924
C	 0.0511338169	 0.0638310609	 0.1811192499	-0.073554
C	 1.2622344292	-0.7434298411	-0.191348701	 0.018928
O	 2.4698550553	-0.0601532049	 0.1502542651	-0.279446
C	 2.1191874068	-0.1113273183	 1.5589131254	-0.136317
C	 0.7705712416	-0.75611598	 1.2423766365	 0.261782
C	 0.1133180811	-1.8352383252	 2.0668929503	-0.459574
C	-0.5524271271	-1.2991766578	 3.2592092597	 0.264589
N	-1.0645165342	-0.8578386815	 4.1962357284	-0.304957
H	 0.999873756	 2.0021770239	 0.2423472695	 0.13979
H	-0.3949506206	 1.9092888975	-0.8322951293	 0.123173
H	-0.6424386388	 1.9780918125	 0.9196077775	 0.129383
H	-0.8695284947	-0.4330164849	-0.1240209509	 0.091933
H	 1.3142149182	-1.5042525792	-0.9629319154	 0.108485
H	 2.8002098302	-0.7824635039	 2.0957303638	 0.112404
H	 2.1229350114	 0.8756588525	 2.0331670665	 0.119809
H	-0.6323394495	-2.3697516946	 1.4673504852	 0.155227
H	 0.849670849	-2.5815031671	 2.39064669	 0.154268
50.4106	94.6942	163.7921	225.5026	256.6443	272.9453	308.1193	388.6087	446.576	460.2748	595.905	708.9124	760.5214	790.5494	888.7337	917.2646	938.9634	947.5897	993.8993	1010.3478	1016.7069	1077.6248	1084.4635	1114.1696	1130.5538	1159.4294	1199.8081	1262.0951	1267.858	1322.6151	1335.3123	1354.9438	1412.8201	1455.562	1468.2458	1493.3567	1502.9709	1521.1267	2361.4975	3026.931	3032.4718	3042.0439	3072.9007	3080.8823	3103.0044	3114.7837	3130.8023	3171.6897
CC1C2OCC12CC#N	C[C@H]1[C@H]2OC[C@@]12CC#N	
InChI=1S/C7H9NO/c1-5-6-7(5,2-3-8)4-9-6/h5-6H,2,4H2,1H3	InChI=1S/C7H9NO/c1-5-6-7(5,2-3-8)4-9-6/h5-6H,2,4H2,1H3/t5-,6+,7-/m0/s1
