17
gdb 11906	4.82846	1.4562	1.27258	0.7523	70.66	-0.2333	0.0066	0.2399	969.6501	0.143429	-363.840939	-363.83369	-363.832746	-363.872561	28.239	
O	 0.0301278159	 1.4495983623	 0.0654810331	-0.432676
C	 0.079932992	 0.0294561532	 0.0461510432	 0.105376
C	-1.3161741956	-0.6577425545	 0.0664456291	-0.350005
C	-1.2087654157	-1.8175401741	-0.9278147424	 0.322667
C	-1.6662571028	-3.1991003076	-0.604504816	-0.286694
N	-2.3796238765	-2.3957477899	-1.6122362101	-0.362488
C	 0.0189109499	-1.5419030797	-1.7211657717	-0.105254
C	 0.7318599316	-0.5480266157	-1.1918355884	-0.141866
H	-0.3569527432	 1.7334733398	-0.770616496	 0.274235
H	 0.654857518	-0.2266321645	 0.9444900856	 0.097771
H	-1.623459923	-0.9689365002	 1.0678479326	 0.106812
H	-2.0526174913	 0.0725711566	-0.2917193372	 0.103189
H	-1.1335195729	-4.0599508658	-1.0005038351	 0.117375
H	-2.1297548018	-3.3619039693	 0.3656236889	 0.111974
H	-3.2318304706	-2.0137782339	-1.2075098904	 0.229679
H	 0.2719213877	-2.1253429047	-2.5990023872	 0.107942
H	 1.6813088483	-0.172835882	-1.5567200681	 0.101962
58.6838	198.6755	285.3146	319.3247	347.8922	411.4588	428.0576	487.3794	598.2194	693.2591	787.3479	812.884	847.6434	864.1824	912.5086	952.3374	967.1772	976.7825	984.0232	1036.6005	1070.8314	1083.4332	1119.8648	1133.0946	1180.6526	1240.1873	1263.8569	1284.4973	1305.3863	1323.1028	1339.6933	1414.7059	1430.3231	1480.989	1509.4219	1674.3679	3030.4814	3035.086	3097.7639	3099.9718	3184.9958	3190.1437	3214.4532	3488.7366	3792.3595
OC1CC2(CN2)C=C1	O[C@H]1C[C@]2(CN2)C=C1	
InChI=1S/C6H9NO/c8-5-1-2-6(3-5)4-7-6/h1-2,5,7-8H,3-4H2	InChI=1S/C6H9NO/c8-5-1-2-6(3-5)4-7-6/h1-2,5,7-8H,3-4H2/t5-,6+/m1/s1
