20
gdb 16696	2.63913	2.27798	1.72025	1.7381	73.52	-0.2396	0.0813	0.3209	880.9393	0.178435	-348.98832	-348.980799	-348.979855	-349.019594	29.873	
C	-0.1564645095	 1.6141793156	-0.0517023459	-0.443375
C	 0.0050599838	 0.1022465372	-0.006577503	 0.05352
C	 1.0839118648	-0.6764509345	-0.8006397357	 0.057039
C	 2.4326216734	-0.0999096357	-0.3144235657	-0.251262
C	 2.1646723839	-0.2097039284	 1.2252744913	 0.062747
C	 2.4320646444	 1.0239026926	 2.0861407528	-0.430756
C	 0.7063101545	-0.7189119497	 1.1141267959	 0.027568
O	 0.8782298391	-1.7884420292	 0.1271879061	-0.299954
H	 0.7934197968	 2.1523142254	-0.0571815264	 0.122893
H	-0.7002943349	 1.9036317403	-0.9577104067	 0.117987
H	-0.7387685156	 1.9724297832	 0.8042994383	 0.120395
H	-0.9557866975	-0.3842675578	-0.1948899923	 0.087184
H	 0.9738667826	-0.9444976673	-1.8522343774	 0.072972
H	 3.2722873802	-0.7156059595	-0.6435185009	 0.104204
H	 2.607264757	 0.9261118979	-0.6529955455	 0.095241
H	 2.7506433951	-1.0407631043	 1.6300647869	 0.083423
H	 1.8842074297	 1.9075841516	 1.7511278231	 0.118561
H	 2.1504313804	 0.8370635564	 3.128703323	 0.113833
H	 3.4980435119	 1.274944724	 2.0776108014	 0.117991
H	 0.1949080597	-1.0320744778	 2.0261276507	 0.069791
156.9145	178.2405	237.1696	250.6594	282.6634	329.3431	428.5422	531.3525	590.0016	675.496	719.859	800.2036	822.3887	866.704	880.5294	919.0543	924.4448	945.651	1024.3921	1034.0206	1056.4869	1082.0122	1102.9483	1123.7862	1160.664	1187.424	1202.8993	1210.3097	1239.6449	1283.5621	1298.7636	1315.3293	1344.0369	1371.289	1400.9016	1411.669	1416.5744	1485.3341	1493.7539	1498.5342	1505.1645	1512.0088	3034.6808	3036.9048	3051.8411	3058.1991	3073.9055	3090.9698	3091.616	3105.5759	3109.0817	3115.5677	3120.5307	3134.2037
CC1C2CC(C)C1O2	C[C@H]1[C@H]2C[C@@H](C)[C@@H]1O2	
InChI=1S/C7H12O/c1-4-3-6-5(2)7(4)8-6/h4-7H,3H2,1-2H3	InChI=1S/C7H12O/c1-4-3-6-5(2)7(4)8-6/h4-7H,3H2,1-2H3/t4-,5+,6-,7+/m1/s1
