19
gdb 56915	2.57914	1.2441	0.94021	4.6716	76.18	-0.2636	0.0207	0.2844	1284.3233	0.157156	-419.195196	-419.185066	-419.184121	-419.230751	36.473	
C	 0.0693208206	 1.4711335082	-0.3439826107	-0.48149
C	-0.0908349348	 0.0327732288	 0.0932044792	 0.374566
C	-1.307398898	-0.6608162048	-0.489531383	-0.447395
O	 1.1039972101	-0.7854615191	 0.0766733375	-0.288355
C	 0.47823525	-0.5430911918	 1.3312803896	 0.00505
C	 1.3297311983	 0.0602375305	 2.4511171281	-0.181845
N	 2.294596535	-0.9069244736	 2.9971194658	-0.496282
C	 2.0783458961	 1.275795865	 2.0981035423	 0.330804
N	 2.6809079302	 2.2312101142	 1.8580452774	-0.331091
H	 1.0133150835	 1.9052150574	-0.0231171263	 0.171044
H	 0.0217490885	 1.5224914494	-1.4370764036	 0.125821
H	-0.7509794591	 2.0808985037	 0.0499173755	 0.123418
H	-1.2628051106	-0.6404124752	-1.5834304395	 0.131819
H	-1.3605372554	-1.7039941068	-0.1688020333	 0.125406
H	-2.2271502793	-0.1514773245	-0.1829397736	 0.124878
H	-0.0546665416	-1.4122163758	 1.7330999995	 0.083116
H	 0.6488103423	 0.3366618307	 3.2672658227	 0.137767
H	 1.7883856061	-1.7056047175	 3.3694605486	 0.238529
H	 2.8727908581	-1.2553945989	 2.2361662041	 0.25424
27.3689	131.382	142.4433	167.647	209.3961	214.783	245.0191	304.8358	319.9224	379.715	397.3904	424.7159	509.8608	603.0362	695.4115	728.5801	756.2307	857.659	891.7857	938.7248	951.0001	992.2645	1026.6284	1083.0955	1121.7009	1144.5361	1164.6702	1200.0411	1256.6357	1313.5506	1359.1657	1404.1783	1411.6644	1426.2941	1461.9607	1474.8947	1486.2549	1506.0509	1517.057	1656.7222	2367.3157	3028.6677	3036.3868	3041.8455	3044.8676	3096.1169	3104.4105	3124.1622	3182.9421	3483.5836	3568.8014
CC1(C)OC1C(N)C#N	CC1(C)O[C@H]1[C@@H](N)C#N	
InChI=1S/C6H10N2O/c1-6(2)5(9-6)4(8)3-7/h4-5H,8H2,1-2H3	InChI=1S/C6H10N2O/c1-6(2)5(9-6)4(8)3-7/h4-5H,8H2,1-2H3/t4-,5-/m0/s1
