14
gdb 14569	20.00491	0.61259	0.59876	0.4545	86.94	-0.2463	-0.0168	0.2295	1736.0175	0.104008	-308.183094	-308.174273	-308.173329	-308.216781	31.223	
C	 0.0183784246	-1.2278262286	-0.0047891948	-0.433912
C	-0.0220536973	-0.0267571463	 0.0020979117	 0.293681
C	-0.028989711	 1.4295863901	 0.0099580129	-0.341389
C	 1.4091524744	 2.0181657932	-0.000641955	-0.384609
C	 1.414362214	 3.4713966062	 0.0070788863	 0.350749
C	 1.3946375203	 4.6815416097	 0.0137976885	-0.211454
C	 1.3777095678	 6.0421857758	 0.0214411132	 0.289029
C	 1.3624677493	 7.2496323581	 0.0282089951	-0.550317
H	 0.0354252139	-2.2895409657	-0.0105483594	 0.199693
H	-0.5762689974	 1.8091906661	-0.8601875229	 0.147246
H	-0.5594956477	 1.7997984555	 0.894420498	 0.147244
H	 1.9567189403	 1.6369552955	 0.8694767376	 0.151255
H	 1.939946479	 1.646342258	-0.8850979166	 0.151253
H	 1.3499544198	 8.3111625423	 0.0342581656	 0.191532
53.5898	66.2187	159.8033	164.4387	232.4792	334.5894	369.2493	441.6262	481.8258	535.9279	537.0031	592.4882	599.1058	624.1596	655.1844	744.7497	765.8812	964.8977	1003.5229	1031.1548	1179.1669	1194.0548	1285.0054	1304.6806	1365.346	1467.6228	1479.5351	2182.847	2240.9953	2365.0957	3031.8088	3043.5173	3061.1779	3083.5045	3505.6206	3506.2855
C#CCCC#CC#C	C#CCCC#CC#C	
InChI=1S/C8H6/c1-3-5-7-8-6-4-2/h1-2H,5,7H2	InChI=1S/C8H6/c1-3-5-7-8-6-4-2/h1-2H,5,7H2
