14
gdb 5697	4.84445	2.13446	1.51087	2.4206	62.71	-0.1858	0.0418	0.2275	783.7113	0.110725	-378.740942	-378.734721	-378.733776	-378.77168	23.345	
C	 0.0486867781	 1.3612959873	-0.1500008255	-0.093872
C	 1.5189681164	 1.8440346443	 0.136794812	-0.365121
C	 2.1201245473	 0.549749077	 0.6034517634	 0.179087
C	 1.1346597368	-0.3717548965	 0.6857297099	 0.432259
N	 1.6808762297	-1.5278987885	 1.153205232	-0.38945
C	 3.0291952058	-1.2281595137	 1.335706106	-0.022781
N	 3.3175436894	 0.0139534178	 1.0161666716	-0.332313
O	-0.1201932868	-0.019770633	 0.3467997556	-0.294374
H	-0.7083739719	 1.9679474223	 0.3496583029	 0.125847
H	-0.1641978578	 1.3359672499	-1.222038883	 0.124903
H	 1.972620932	 2.2562747928	-0.7705649895	 0.119858
H	 1.5407197918	 2.6329573268	 0.8983108618	 0.118215
H	 1.2251679093	-2.4082922893	 1.3211001268	 0.271777
H	 3.7222488599	-1.9712336472	 1.6983432559	 0.125965
63.0693	200.3126	298.0148	446.5185	455.1678	621.8576	655.9252	689.0413	724.9674	738.8114	778.0133	833.5522	927.5034	949.2114	962.8293	1055.0967	1073.0181	1137.0277	1195.7225	1236.3401	1249.2784	1277.9309	1359.4304	1366.1542	1382.5287	1480.3983	1498.2636	1515.7795	1552.1508	1668.9852	3024.668	3057.0164	3068.8802	3123.9916	3259.3717	3675.9599
C1CC2=C(NC=N2)O1	C1Cc2c([nH]cn2)O1	
InChI=1S/C5H6N2O/c1-2-8-5-4(1)6-3-7-5/h3H,1-2H2,(H,6,7)	InChI=1S/C5H6N2O/c1-2-8-5-4(1)6-3-7-5/h3H,1-2H2,(H,6,7)
