20
gdb 112778	2.43956	1.27929	0.94844	3.2628	80.53	-0.2296	0.0166	0.2462	1302.3608	0.170749	-399.303045	-399.293322	-399.292378	-399.337799	34.964	
C	-0.0594608732	 1.5173202615	-0.1937553429	-0.322895
N	-0.0368460914	 0.1331469096	 0.2628163029	-0.289682
C	-1.2792532712	-0.5605208262	 0.1159025511	 0.051184
C	-1.8260429656	-1.0784648678	-1.2563833587	-0.204444
N	-2.2537621167	-2.3069123764	-0.5638247901	-0.060567
C	-2.254506026	-3.5746783773	-1.2648276444	-0.332126
C	-1.3296117249	-2.0612910544	 0.5603263512	-0.172429
C	-0.020278423	-2.722737472	 0.4396118619	 0.280795
N	 0.9975665477	-3.2537330848	 0.2955468677	-0.34307
H	 0.9257300251	 1.9647140698	-0.0372922639	 0.128026
H	-0.3283787154	 1.6445093912	-1.2562764461	 0.103639
H	-0.7822396469	 2.0858021325	 0.4023149472	 0.125666
H	 0.7181518293	-0.3788807528	-0.1812897313	 0.234423
H	-2.059358651	-0.0079452108	 0.6469021615	 0.105655
H	-2.6359332591	-0.5281604836	-1.7455559861	 0.107167
H	-1.0071885241	-1.2384120565	-1.97851823	 0.092081
H	-1.2736107028	-3.8437818679	-1.6911378827	 0.118835
H	-2.5639020622	-4.3744664719	-0.5841667316	 0.128989
H	-2.9839923295	-3.5255576439	-2.0791216525	 0.127576
H	-1.7428511594	-2.2785829782	 1.5506664669	 0.121175
83.3782	104.918	116.5755	148.8987	197.3804	220.8508	258.5455	320.664	334.3466	399.1747	443.4807	511.69	610.625	697.3397	742.4268	799.7706	844.1749	955.4963	989.3064	1022.5586	1026.2807	1046.1994	1125.126	1146.6046	1160.9071	1174.7455	1187.8638	1221.4525	1250.3807	1263.1927	1282.0542	1314.7771	1336.3544	1370.2955	1452.6302	1462.0284	1485.8854	1491.4404	1503.2886	1505.0276	1516.5958	1526.5344	2336.7637	2958.2584	2961.6554	2969.4583	3054.0822	3059.7139	3065.5667	3067.9185	3080.3577	3107.1677	3110.8081	3526.9639
CNC1CN(C)C1C#N	CN[C@H]1CN(C)[C@H]1C#N	
InChI=1S/C6H11N3/c1-8-5-4-9(2)6(5)3-7/h5-6,8H,4H2,1-2H3	InChI=1S/C6H11N3/c1-8-5-4-9(2)6(5)3-7/h5-6,8H,4H2,1-2H3/t5-,6-/m0/s1
