18
gdb 20544	4.35346	1.3564	1.33422	1.9274	73.48	-0.2395	0.028	0.2675	1021.9755	0.155239	-344.017934	-344.009887	-344.008942	-344.051027	29.797	
C	-0.0386459144	 1.5758774259	 0.1794876633	-0.385286
C	-0.058145256	 0.0457208557	 0.0165736592	-0.064489
C	 0.8576400237	-0.6322185152	 1.0509957902	-0.385285
C	-1.4602406322	-0.4973533342	 0.08257172	 0.350341
N	-1.9904716515	-1.1263954139	-0.9658152832	-0.300188
N	-3.2314182132	-1.4728353847	-0.5674027811	-0.183433
C	-3.5088415792	-1.0852332643	 0.6998852628	-0.017539
C	-2.3804832311	-0.4450586351	 1.1615353776	-0.282923
H	 0.9820508656	 1.9619177425	 0.086899086	 0.108443
H	-0.6586494104	 2.0617643274	-0.5795353977	 0.119374
H	-0.4190753705	 1.872949591	 1.1632550726	 0.111138
H	 0.314926518	-0.1979834187	-0.9845581923	 0.089845
H	 0.5161621229	-0.4307601694	 2.0725563008	 0.111136
H	 0.875114285	-1.7171095163	 0.9120260295	 0.119375
H	 1.8834518422	-0.2588117191	 0.9632505687	 0.108444
H	-3.8280251879	-1.9676763898	-1.2075796622	 0.272545
H	-4.4622820003	-1.2901901114	 1.1610750884	 0.129288
H	-2.2403373508	-0.0039337004	 2.1350664376	 0.099212
28.6291	148.7124	201.4734	226.5039	263.966	315.8658	407.5918	484.7334	492.3936	635.577	663.4489	743.9536	776.1213	843.249	886.5453	928.8518	946.9744	964.1681	982.0058	1056.8762	1072.3809	1120.0108	1123.0791	1178.5588	1205.0624	1298.5567	1332.2144	1345.7874	1395.553	1411.6497	1416.4654	1469.6763	1486.8955	1488.5594	1489.2013	1500.6868	1513.5604	1575.4948	3027.2142	3031.3103	3045.2356	3091.9143	3100.1562	3108.0823	3110.3697	3253.0321	3272.8765	3680.9468
CC(C)C1=NNC=C1	CC(C)c1n[nH]cc1	
InChI=1S/C6H10N2/c1-5(2)6-3-4-7-8-6/h3-5H,1-2H3,(H,7,8)	InChI=1S/C6H10N2/c1-5(2)6-3-4-7-8-6/h3-5H,1-2H3,(H,7,8)
