12
gdb 8609	2.1396	2.09591	1.50199	4.3637	66.28	-0.2765	-0.017	0.2595	889.4559	0.080742	-340.294492	-340.285974	-340.28503	-340.327083	30.615	
N	-0.0561525985	 1.4830714515	 0.0664445422	-0.503285
C	 0.0130053002	 0.0079844933	 0.0074881893	-0.294378
C	 0.6899767323	-0.5052776784	-1.2032842045	 0.345236
C	 1.2472436262	-0.8616838356	-2.2052487988	-0.447811
C	 0.7067079572	-0.4844727271	 1.2094684771	 0.395018
C	 1.2914688472	-0.8727506589	 2.1815002062	-0.440765
C	-1.3859906375	-0.5007229069	 0.0125360944	 0.340461
N	-2.4719949642	-0.8909008742	-0.0054917657	-0.332086
H	 0.894943739	 1.8376208183	 0.1237615282	 0.251323
H	-0.4507749225	 1.8232958127	-0.8073078066	 0.251765
H	 1.7391249829	-1.1909067138	-3.0878938059	 0.216351
H	 1.8021937176	-1.2227730909	 3.045241404	 0.218172
121.7687	124.7985	152.5232	216.5497	230.6	269.0768	345.7934	481.8799	504.3909	543.4131	570.3356	574.842	660.5445	663.1191	673.1164	678.1182	682.8101	875.2263	994.8376	1049.5164	1143.8131	1325.8739	1646.5196	2236.0673	2253.6014	2370.2845	3483.5122	3497.5284	3498.4782	3572.569
NC(C#C)(C#C)C#N	NC(C#C)(C#C)C#N	
InChI=1S/C6H4N2/c1-3-6(8,4-2)5-7/h1-2H,8H2	InChI=1S/C6H4N2/c1-3-6(8,4-2)5-7/h1-2H,8H2
