16
gdb 74211	2.44801	1.62028	1.03046	6.4038	76.96	-0.2216	-0.0526	0.169	1112.8326	0.126076	-437.92676	-437.919009	-437.918065	-437.958936	30.086	
N	 0.0472292623	 1.4068006143	 0.2745529494	-0.562016
C	-0.0071023001	 0.0581285444	-0.0304557873	 0.341672
C	-1.2016466034	-0.5565704327	-0.2585965318	-0.348648
C	-1.5256854837	-1.9882841411	-0.2620131092	 0.400015
O	-2.6118817404	-2.4005410586	 0.0668252166	-0.349591
O	-0.5778706654	-2.9023220195	-0.6361891234	-0.226731
C	 0.5261141189	-2.4662899049	-1.4325729558	-0.149764
C	 1.5693988699	-1.750708378	-0.6256250635	-0.077734
C	 1.29542389	-0.6104039042	 0.0136339598	-0.104672
H	 0.8916194898	 1.8969711736	 0.0227897499	 0.255942
H	-0.7928777021	 1.9412149378	 0.1127495279	 0.259622
H	-2.0995637373	 0.0533357256	-0.2172718741	 0.098327
H	 0.9274845004	-3.3763122448	-1.8820243839	 0.12428
H	 0.1586980197	-1.813195456	-2.2368909424	 0.121411
H	 2.5618192917	-2.1849852628	-0.5572019089	 0.11271
H	 2.0670733599	-0.107526503	 0.5911114967	 0.105175
97.2685	168.0279	239.69	309.9318	373.3988	379.2597	395.8795	423.0347	514.7951	532.1559	626.3356	664.0458	713.3195	742.4914	805.6863	850.2081	870.6607	917.1823	965.8212	999.403	1059.5464	1097.6305	1126.3336	1223.3964	1248.1083	1274.7903	1299.2526	1372.4249	1413.5351	1458.292	1484.819	1628.3658	1661.2087	1713.4217	1795.4702	3008.3377	3112.5905	3157.5249	3168.6377	3187.3758	3576.433	3684.7165
NC1=CC(=O)OCC=C1	NC1=CC(=O)OCC=C1	
InChI=1S/C6H7NO2/c7-5-2-1-3-9-6(8)4-5/h1-2,4H,3,7H2	InChI=1S/C6H7NO2/c7-5-2-1-3-9-6(8)4-5/h1-2,4H,3,7H2
