16
gdb 71040	3.16439	1.67147	1.32266	4.6403	77.87	-0.2348	-0.0852	0.1496	968.3882	0.123176	-400.655858	-400.648509	-400.647565	-400.687374	28.951	
C	-0.0699498599	 1.4952298197	-0.0863081396	-0.476643
C	-0.0553541916	-0.0031590064	-0.0518683853	 0.306449
C	 0.6547811715	-0.9092348439	-1.1767459072	-0.311682
C	-0.1301521947	-2.0127456393	-0.4949665844	 0.078536
C	 0.4461987332	-2.7482084287	 0.4820465222	-0.243926
C	 0.3182389653	-1.9068923963	 1.7199779889	 0.385864
O	 0.8347134651	-2.0631546827	 2.7895075892	-0.306364
N	-0.3547753768	-0.6573425888	 1.3298921272	-0.211603
C	-1.108678842	-1.0082114288	 0.1164484505	-0.131075
H	 0.9110343121	 1.9004440549	 0.1816471543	 0.138902
H	-0.3230337519	 1.8536582078	-1.0897648636	 0.125948
H	-0.8045105877	 1.8809205733	 0.6237082215	 0.151178
H	 0.2682306889	-0.5393131663	-2.1318519343	 0.130393
H	 1.7418476595	-1.01291768	-1.2108404653	 0.124378
H	 1.3427312573	-3.3482805805	 0.3711594634	 0.126674
H	-2.1913145281	-0.973963874	 0.0904992226	 0.112971
128.8287	173.3846	210.538	286.8414	385.837	406.7499	461.5009	574.4256	595.6312	626.7047	689.9833	702.9238	764.9105	819.189	868.0692	885.8272	915.6718	985.8536	995.4414	1002.4575	1038.1963	1050.0099	1086.8638	1110.259	1169.7594	1179.862	1193.5103	1253.6034	1393.388	1419.5831	1479.3444	1485.2923	1492.241	1569.7452	1837.1089	3039.2476	3049.5944	3102.9242	3119.9844	3133.7225	3188.2318	3194.8949
CC12CC3=CC(=O)N1C23	C[C@@]12C[C]3[CH]C(=O)N1[C@@H]23	
InChI=1S/C7H7NO/c1-7-3-4-2-5(9)8(7)6(4)7/h2,6H,3H2,1H3	InChI=1S/C7H7NO/c1-7-3-4-2-5(9)8(7)6(4)7/h2,6H,3H2,1H3/t6-,7+,8?/m1/s1
