16
gdb 43155	2.6606	1.75459	1.36948	2.9667	69.26	-0.2254	-0.0295	0.196	955.9175	0.125237	-437.825244	-437.818143	-437.817199	-437.85675	27.753	
O	 0.0046881983	-0.0424291922	 0.0767525133	-0.309154
C	 0.0006326858	 1.1483620343	 0.056541041	 0.453366
C	-1.0683586525	 2.2779673568	-0.0204513956	-0.314217
C	-0.6890823111	 3.0438107123	 1.2609402888	-0.078956
O	 0.7644497901	 3.0155689989	 1.1831477172	-0.276206
C	 1.0113954418	 2.3213761101	-0.0517828407	-0.118956
C	-0.043900315	 2.9045069295	-1.0020945114	 0.424637
C	-0.0948627693	 2.9718095303	-2.4710150297	-0.32993
N	-0.0223649017	 4.2028227926	-1.6395860979	-0.386287
H	-2.1167356228	 2.1049976769	-0.2512639673	 0.09825
H	-1.0360018831	 4.0838156503	 1.2656821969	 0.111962
H	-1.0253949886	 2.5457196428	 2.1764806678	 0.119747
H	 2.0747731352	 2.2436564133	-0.2563101133	 0.109369
H	 0.7947895354	 2.7735951127	-3.0619865498	 0.134592
H	-1.0331915908	 2.7289080987	-2.9633812616	 0.124068
H	-0.9381637016	 4.6448909526	-1.5862102277	 0.237714
116.3372	196.4963	239.8541	261.885	314.7842	483.9143	507.0183	558.9503	666.3085	684.3106	750.483	822.9923	890.1698	907.3641	921.6029	937.8711	962.4637	980.6062	990.4501	1045.4224	1079.8925	1084.7623	1107.7379	1129.0264	1158.5091	1201.996	1207.7093	1246.45	1255.0438	1273.4392	1358.9396	1438.5342	1518.2072	1528.5535	1918.2581	3025.3056	3072.6542	3108.7947	3156.8958	3182.595	3195.7051	3484.2099
O=C1C2COC1C21CN1	O=C1[C@H]2CO[C@@H]1[C@]12CN1	
InChI=1S/C6H7NO2/c8-4-3-1-9-5(4)6(3)2-7-6/h3,5,7H,1-2H2	InChI=1S/C6H7NO2/c8-4-3-1-9-5(4)6(3)2-7-6/h3,5,7H,1-2H2/t3-,5+,6-/m1/s1
