18
gdb 65492	2.97372	1.22043	1.01639	2.5482	78.26	-0.2426	0.0281	0.2707	1202.2007	0.145724	-401.868167	-401.85933	-401.858386	-401.901556	34.25	
O	 0.3085199756	 1.5231326405	-0.4875508809	-0.462899
C	-0.0054467674	 0.2336104587	 0.0018718176	 0.246964
C	 0.1185201772	 0.0275302014	 1.5591987775	-0.379437
C	-1.3101930539	-0.5218417576	 1.5429685324	 0.394543
C	-1.7635119472	-1.8081603046	 2.1117251718	-0.302599
N	-2.2946903391	-0.5207179896	 2.6143143084	-0.367399
C	-1.546838181	 0.0302513592	 0.136906953	-0.33644
C	 0.6709431911	-0.8090533781	-0.7617377463	 0.305831
C	 1.266284524	-1.64495239	-1.3889530637	-0.505808
H	 1.2533461934	 1.5493714962	-0.6748866933	 0.282846
H	 0.9202291254	-0.6201565618	 1.92032501	 0.108093
H	 0.1813596964	 1.0093721804	 2.0389275479	 0.112966
H	-2.4856880154	-2.4192807614	 1.5764606806	 0.120527
H	-1.0680371962	-2.3672534605	 2.7333227314	 0.111563
H	-1.8523799675	-0.2819960369	 3.4992193163	 0.229311
H	-2.0378134971	 1.006768097	 0.1572181419	 0.124858
H	-2.0279111481	-0.6139473153	-0.5999997998	 0.115086
H	 1.7786329197	-2.3874253578	-1.9496717448	 0.201995
56.1873	159.279	176.8853	268.7659	271.1466	309.662	337.6578	403.6309	426.7604	440.4133	564.3145	595.2784	617.9266	667.7167	688.231	792.5112	845.5161	878.3112	903.4059	916.8211	966.3902	976.3023	990.2496	1027.8125	1079.3975	1083.1504	1125.0174	1166.324	1217.3307	1241.2026	1262.1448	1271.7885	1291.8141	1369.3646	1423.4474	1459.306	1483.9385	1517.6061	2228.834	3051.5963	3071.7405	3101.398	3118.5758	3137.0734	3186.4749	3489.4541	3499.4572	3807.6469
OC1(CC2(CN2)C1)C#C	O[C@]1(C[C@]2(CN2)C1)C#C	
InChI=1S/C7H9NO/c1-2-7(9)3-6(4-7)5-8-6/h1,8-9H,3-5H2	InChI=1S/C7H9NO/c1-2-7(9)3-6(4-7)5-8-6/h1,8-9H,3-5H2/t6-,7+
