23
gdb 100093	2.25726	1.14966	1.03602	2.7372	82.51	-0.234	-0.0057	0.2282	1350.5305	0.200948	-425.447497	-425.436011	-425.435067	-425.484498	41.174	
C	-0.3319424305	 1.1651806036	 0.3816883689	-0.245686
O	 0.0330308261	-0.1493973449	 0.023244063	-0.28057
C	 0.8486119045	-0.3311840745	-1.1478581464	 0.360732
C	 0.0936323307	 0.1090301665	-2.412064384	-0.425085
C	 2.1872196969	 0.4116447064	-1.0300465414	-0.421254
C	 1.0608135505	-1.8654451781	-1.1949586235	-0.308771
C	 1.6087674235	-2.4227438294	 0.1202363453	 0.398481
C	 0.6129161379	-3.1080297828	 1.0315751146	-0.474741
O	 2.780404713	-2.3148474698	 0.4064578307	-0.316094
H	 0.5333140153	 1.7867523263	 0.64759851	 0.113386
H	-0.9003171014	 1.676998314	-0.4069296064	 0.106939
H	-0.9735567751	 1.0763239871	 1.2622076495	 0.12738
H	-0.0248684745	 1.1957886681	-2.4543663113	 0.116031
H	 0.643978162	-0.193814362	-3.3078878437	 0.119152
H	-0.8989968447	-0.3498847609	-2.4433491816	 0.11932
H	 2.7282824341	 0.1086071146	-0.1323844061	 0.148628
H	 2.8173037999	 0.1836299112	-1.8948172101	 0.117169
H	 2.0369376086	 1.494902239	-1.0124382572	 0.10807
H	 0.1038851557	-2.3383610946	-1.4359781085	 0.098813
H	 1.7763778055	-2.0990556643	-1.9883426505	 0.118548
H	 0.185317729	-3.9842602591	 0.5293366815	 0.130982
H	 1.0981491357	-3.4173388706	 1.9581921858	 0.13256
H	-0.2121187127	-2.4194358356	 1.2381687613	 0.15601
45.3313	57.9082	99.0302	151.3617	171.7269	178.7533	242.7052	255.2627	276.563	303.4575	333.0533	389.4662	414.6398	444.8321	475.749	534.9035	618.223	731.9241	808.9935	856.1125	909.0992	924.9498	935.231	994.9604	1031.4519	1039.6223	1116.1286	1140.0791	1179.246	1189.5065	1209.4892	1222.4985	1250.4293	1288.3647	1340.505	1374.206	1395.5369	1414.8347	1461.5519	1470.3175	1474.3061	1477.3189	1479.0252	1482.1392	1496.887	1501.8152	1509.4528	1514.9441	1806.3659	2998.7978	3034.967	3037.6493	3047.3778	3053.4332	3054.5542	3104.2229	3106.5398	3107.6837	3108.5304	3114.3427	3117.7902	3146.1799	3153.431
COC(C)(C)CC(C)=O	COC(C)(C)CC(=O)C	
InChI=1S/C7H14O2/c1-6(8)5-7(2,3)9-4/h5H2,1-4H3	InChI=1S/C7H14O2/c1-6(8)5-7(2,3)9-4/h5H2,1-4H3
