16
gdb 82668	3.09665	1.70499	1.37411	2.6513	68.16	-0.2413	-0.0241	0.2172	930.0112	0.125867	-437.830476	-437.823714	-437.82277	-437.861448	27.281	
O	-0.0605480205	 1.3695546902	-0.0154096071	-0.441803
C	 0.0431377552	-0.0338029783	-0.0966426106	 0.130327
C	-1.3353278659	-0.6594663447	-0.3838847249	-0.081069
C	-1.6458394015	-0.0254900807	-1.7513838738	-0.16126
N	-0.5174100113	-0.8627393912	-2.307350487	-0.161448
C	-0.8653326279	-1.9164291818	-1.2237716147	-0.149508
C	 0.6341835057	-2.0906336232	-1.0333487538	 0.468208
O	 1.397081061	-2.9813510634	-0.814806307	-0.31991
C	 0.7011902257	-0.6051545658	-1.3976780477	-0.187221
H	 0.8032296675	 1.7266573746	 0.2120624514	 0.290925
H	 0.5145726369	-0.4426634262	 0.8074575269	 0.087426
H	-2.0482684883	-0.7152970414	 0.4387509153	 0.081294
H	-2.5803400301	-0.3771045223	-2.1948118379	 0.113877
H	-1.5483212896	 1.0543593795	-1.8623984572	 0.13098
H	-1.5756948378	-2.706514498	-1.4620571852	 0.103977
H	 1.5675356108	-0.1044382873	-1.8239918167	 0.095202
147.0964	231.6479	266.7484	310.7337	371.2935	527.4551	538.9928	572.4912	671.8894	741.8789	784.5847	815.4592	832.7167	849.2957	887.4451	945.6722	952.559	995.6391	1036.9935	1047.0366	1079.7203	1103.3317	1119.1731	1159.4984	1173.9314	1181.9021	1188.7551	1228.5765	1250.1563	1279.2074	1297.7601	1327.2817	1436.2978	1509.063	1913.9227	3009.2705	3076.5851	3117.9208	3139.7437	3146.6084	3152.7155	3830.2789
OC1C2CN3C2C(=O)C13	O[C@H]1[C@H]2CN3[C@H]2C(=O)[C@H]13	
InChI=1S/C6H7NO2/c8-5-2-1-7-3(2)6(9)4(5)7/h2-5,8H,1H2	InChI=1S/C6H7NO2/c8-5-2-1-7-3(2)6(9)4(5)7/h2-5,8H,1H2/t2-,3+,4-,5-/m0/s1
