21
gdb 107031	3.91008	1.07962	0.96356	1.485	84.29	-0.2245	0.0233	0.2479	1298.4274	0.182626	-387.08477	-387.075808	-387.074864	-387.118201	34.619	
C	-0.1283005977	 1.6035303082	 0.0664112295	-0.389223
C	 0.0293522216	 0.0759008901	 0.0277222469	-0.039875
C	 0.7657650374	-0.4455520637	-1.1947896874	-0.084653
C	 1.7531664312	-1.2849095873	-0.878898847	-0.15335
C	 1.8970547995	-1.4438369309	 0.6023685643	 0.351561
C	 2.243104268	-2.7860453229	 1.1820537553	-0.188605
O	 3.5689443613	-3.1158690065	 0.7790070279	-0.421129
C	 2.3052090468	-0.1683322824	 1.3141689666	-0.313241
C	 0.8420381989	-0.5178278166	 1.1863213497	-0.119313
H	 0.8457736428	 2.1019451971	 0.0680842037	 0.117863
H	-0.687538448	 1.9617165901	-0.8045470775	 0.110303
H	-0.6704422272	 1.9183464048	 0.9639507072	 0.11271
H	-0.9825774616	-0.3572584983	 0.0483200732	 0.077255
H	 0.50542297	-0.1307474199	-2.2001226609	 0.087933
H	 2.413823896	-1.7888645595	-1.5745774044	 0.10223
H	 2.159020096	-2.7462382782	 2.2802009374	 0.080138
H	 1.5272611543	-3.5430987087	 0.8236075453	 0.08587
H	 3.7399013608	-4.0272716276	 1.0345413759	 0.285424
H	 2.7424737317	-0.2692011976	 2.3029161472	 0.107442
H	 2.7221103427	 0.6342257044	 0.7157769116	 0.11191
H	 0.3161110455	-0.7885042846	 2.0956350355	 0.078749
80.5182	120.0888	202.8222	215.15	236.0949	263.4126	319.783	367.3787	383.5196	474.4486	560.2277	674.2895	696.9325	758.2234	781.185	817.1757	881.0408	923.5185	942.1127	963.3938	975.2713	983.7416	1019.7704	1054.1259	1066.0005	1067.709	1082.5952	1114.2928	1117.6605	1149.352	1221.9314	1241.5419	1265.5413	1295.1683	1318.4929	1336.4323	1366.6691	1397.1701	1415.1245	1463.1278	1480.2076	1497.155	1499.1296	1517.1105	1670.5076	2960.7953	2979.35	2990.8459	3032.4603	3097.9267	3108.8607	3124.58	3162.0729	3179.6696	3210.777	3213.3241	3825.5926
CC1C=CC2(CO)CC12	C[C@H]1C=C[C@@]2(CO)C[C@@H]12	
InChI=1S/C8H12O/c1-6-2-3-8(5-9)4-7(6)8/h2-3,6-7,9H,4-5H2,1H3	InChI=1S/C8H12O/c1-6-2-3-8(5-9)4-7(6)8/h2-3,6-7,9H,4-5H2,1H3/t6-,7-,8-/m0/s1
