23
gdb 42135	1.86383	1.76871	1.06849	1.0895	87.09	-0.2355	0.0193	0.2548	1216.5892	0.20825	-388.284423	-388.275745	-388.274801	-388.317367	34.418	
C	-0.0201045308	 1.5891668628	 0.1421979618	-0.205853
C	 1.3687872102	 2.2005064971	-0.0871413699	-0.054666
O	 1.8104186795	 2.2986789564	-1.4296347293	-0.254186
C	 2.1093905588	 1.1234972574	-2.1610294789	-0.052142
C	 3.1452925576	 0.1447910646	-1.555619537	-0.213887
C	 2.5818161247	-1.1638397302	-0.9375857229	-0.249728
C	 2.1090222333	-1.096163374	 0.4961340673	-0.047511
C	 0.9425774197	-0.6167748022	 0.9326089004	-0.035293
C	-0.1114959724	 0.0412110345	 0.0880562475	-0.253618
H	-0.3408975625	 1.9161916527	 1.1403603575	 0.096853
H	-0.7286312041	 2.0253247221	-0.5716687999	 0.10395
H	 1.3458446722	 3.2405120059	 0.2555009156	 0.100947
H	 2.1083057476	 1.6726500154	 0.5306611802	 0.093623
H	 1.1916762014	 0.5730280507	-2.4198349438	 0.083915
H	 2.508635181	 1.5127873289	-3.1032983305	 0.10483
H	 3.8128244243	-0.1507710857	-2.3733735861	 0.098843
H	 3.7735926341	 0.6798646654	-0.8349275669	 0.111706
H	 1.7728926447	-1.5215547172	-1.5879286807	 0.106173
H	 3.3663164008	-1.9259865434	-0.9958446768	 0.0989
H	 2.8061713723	-1.4850328322	 1.2361736442	 0.083651
H	 0.7497281502	-0.6316220444	 2.0046644969	 0.081313
H	-1.1086696943	-0.2515064289	 0.438930847	 0.09743
H	-0.0387256884	-0.3017823457	-0.947651346	 0.104752
107.5396	173.2726	182.8794	214.6127	247.2362	306.9626	336.1192	408.3813	447.4796	495.3642	546.3529	590.2335	713.6172	752.9261	786.3649	838.8694	869.2521	897.4191	950.1211	964.0409	990.3297	1010.7199	1042.1146	1068.3446	1077.2475	1081.0581	1105.2834	1145.6855	1196.1082	1214.2811	1245.4408	1281.4844	1292.3131	1315.6658	1337.6374	1346.8617	1348.7797	1369.277	1381.2669	1413.7371	1427.9897	1428.6754	1470.2132	1472.9148	1488.9695	1491.8293	1500.249	1517.1289	1721.8691	2981.1552	3011.3619	3018.0459	3020.06	3029.9137	3032.9369	3060.8803	3064.5921	3067.0411	3070.1619	3078.2245	3089.8159	3124.592	3149.7871
C1COCCCC=CC1	C1COCCCC=CC1	
InChI=1S/C8H14O/c1-2-4-6-8-9-7-5-3-1/h1-2H,3-8H2/b2-1-	InChI=1S/C8H14O/c1-2-4-6-8-9-7-5-3-1/h1-2H,3-8H2/b2-1-
