17
gdb 100210	2.64838	1.12336	0.96602	4.6021	72.48	-0.3019	0.0052	0.3071	1249.0332	0.134195	-418.032919	-418.023037	-418.022093	-418.067813	34.966	
C	 0.0045286562	 1.5817679987	-0.0085171824	-0.415765
C	 0.0183007079	 0.0414268561	-0.0010629377	 0.035004
C	 0.7258196129	-0.4877103589	 1.2836061242	-0.075873
O	 2.058631611	-0.0577516501	 1.3869687592	-0.413175
C	-1.4200014757	-0.5497035194	-0.0352347818	-0.37175
C	-2.2180493092	-0.0847516511	-1.1663115769	 0.28075
N	-2.8471427463	 0.2951128666	-2.0574745813	-0.298062
C	 0.7905549553	-0.4595618973	-1.1486803387	 0.279663
N	 1.4510138934	-0.875078885	-2.0016899124	-0.332125
H	 1.0204010337	 1.9589147265	 0.1168245741	 0.156249
H	-0.4124657348	 1.97062422	-0.939605133	 0.159522
H	-0.605303308	 1.9443426987	 0.8251772495	 0.127257
H	 0.1989694274	-0.0788810974	 2.152365005	 0.124579
H	 0.6418417843	-1.5840803731	 1.3178811297	 0.109504
H	 2.5760751819	-0.5017266383	 0.7044666856	 0.303959
H	-1.3775792817	-1.643697734	-0.0594990175	 0.168565
H	-1.9313951381	-0.2646645419	 0.8914276244	 0.161696
65.353	108.7883	125.3188	170.0033	189.4871	233.5469	268.6673	325.5135	352.0897	391.0569	406.3058	427.0628	491.2184	581.0696	681.2117	709.1971	874.6623	893.8893	950.7451	978.7553	987.614	1098.5773	1136.5279	1159.9908	1184.7092	1223.7827	1317.6689	1337.4344	1392.3999	1413.0992	1424.2878	1461.1396	1487.4735	1496.7822	1502.9586	2351.0316	2367.3728	2995.6979	3046.0304	3050.5981	3078.3621	3091.1272	3128.0948	3154.1131	3793.8093
CC(CO)(CC#N)C#N	C[C@@](CO)(CC#N)C#N	
InChI=1S/C6H8N2O/c1-6(4-8,5-9)2-3-7/h9H,2,5H2,1H3	InChI=1S/C6H8N2O/c1-6(4-8,5-9)2-3-7/h9H,2,5H2,1H3/t6-/m1/s1
