27
gdb 117982	2.45768	0.96964	0.85365	0.9485	93.	-0.2459	0.077	0.323	1588.6332	0.24816	-390.703943	-390.691791	-390.690847	-390.741311	44.784	
C	-0.1184213473	 1.5188778018	-0.0352649313	-0.384974
C	-0.0267601669	 0.0058055471	 0.0809964409	-0.035499
O	-1.3345147113	-0.5241234049	 0.018941445	-0.265886
C	-1.4255057827	-1.9472240032	 0.0356804061	 0.150494
C	-1.2884146248	-2.4751054948	 1.4681595776	-0.42079
C	-2.7456838042	-2.3304293261	-0.6902684052	 0.259791
C	-2.6609037845	-1.8204244737	-2.1421947285	-0.409201
C	-2.9087133161	-3.8613416428	-0.7129839357	-0.42074
C	-3.961227544	-1.6860430741	 0.0022505133	-0.407947
H	 0.8793005043	 1.9663659078	 0.0056617272	 0.11246
H	-0.5897889241	 1.8038582452	-0.980240525	 0.124704
H	-0.7170146503	 1.9301006931	 0.7826306216	 0.125535
H	 0.5879382229	-0.4078418958	-0.736379549	 0.084061
H	 0.4693517529	-0.2684107936	 1.0255754234	 0.086466
H	-0.5963573916	-2.3599265145	-0.5652742202	 0.055306
H	-2.0963180589	-2.1041201943	 2.1046696239	 0.124012
H	-1.2965639101	-3.5678207858	 1.4938355395	 0.117228
H	-0.3411220615	-2.1484496322	 1.9067371277	 0.114393
H	-1.8245891637	-2.2876779817	-2.6756061295	 0.099207
H	-3.5788517773	-2.0600448327	-2.6892949869	 0.102412
H	-2.5161041218	-0.7385224319	-2.1662183389	 0.124193
H	-3.0823378909	-4.2735613516	 0.2852133634	 0.112075
H	-3.7661122692	-4.1393444941	-1.3350803953	 0.109968
H	-2.0237338954	-4.352901948	-1.1340131538	 0.105797
H	-3.837390451	-0.60294287	 0.0740499223	 0.128713
H	-4.8744314123	-1.8917060903	-0.5664524673	 0.103034
H	-4.1105354902	-2.0798628692	 1.0126464849	 0.105192
42.7485	66.3329	91.3885	155.8139	192.8782	235.8741	248.3438	251.513	255.6129	286.7368	303.5727	315.4033	359.0772	384.5131	387.4373	474.4596	502.6677	553.5962	735.3445	819.5303	847.3408	879.9247	935.4204	940.0004	956.5208	962.0364	1005.5103	1022.3905	1069.3766	1094.0267	1116.6544	1141.9321	1153.1104	1188.1535	1235.8772	1249.3585	1281.8264	1295.716	1361.0539	1369.7463	1392.2782	1398.3932	1401.7604	1406.569	1427.1127	1438.0283	1477.4087	1483.728	1486.286	1491.1447	1492.9739	1498.9993	1500.4082	1507.4278	1511.3185	1524.4034	1530.5594	2945.4224	2960.0848	2988.3556	3024.5333	3029.3055	3037.9146	3043.4343	3049.3039	3086.603	3091.4986	3096.7088	3104.7068	3113.6861	3117.6817	3120.1233	3124.7606	3127.4036	3130.5201
CCOC(C)C(C)(C)C	CCO[C@@H](C)C(C)(C)C	
InChI=1S/C8H18O/c1-6-9-7(2)8(3,4)5/h7H,6H2,1-5H3	InChI=1S/C8H18O/c1-6-9-7(2)8(3,4)5/h7H,6H2,1-5H3/t7-/m0/s1
