14
gdb 125496	2.63842	1.46224	0.94639	5.6357	67.44	-0.2482	-0.0344	0.2138	1160.2117	0.101318	-470.07618	-470.068161	-470.067217	-470.109014	28.674	
C	-0.0252789706	 1.4805408136	 0.004147735	-0.497166
C	 0.0016593786	-0.0059047	-0.0190917028	 0.418505
N	-0.0194719305	-0.7230320838	-1.0967371669	-0.26229
N	 0.0192281409	-2.0358439216	-0.6460761339	-0.13597
C	 0.0123058709	-3.1393774547	-1.5008646075	 0.181165
O	-0.0266925022	-3.0726504768	-2.6976699731	-0.275921
C	 0.0658822761	-2.1275688608	 0.7582439663	 0.507069
O	 0.106435745	-3.1101562933	 1.4574714573	-0.402722
N	 0.0525177546	-0.7847155349	 1.1204856377	-0.421587
H	 0.8678723527	 1.8823089479	 0.4946656131	 0.149887
H	-0.0636485085	 1.8495448371	-1.0211086629	 0.174833
H	-0.9010182367	 1.8493836664	 0.5489414257	 0.149952
H	 0.0490186002	-4.0686026477	-0.9094185895	 0.130666
H	 0.0774075896	-0.4748796913	 2.0771024113	 0.283578
112.8405	155.3168	177.3454	184.3234	235.7796	302.7928	383.1971	421.528	493.6862	609.2923	653.3582	671.7273	712.4082	761.1934	889.9966	992.8132	1034.5981	1039.4116	1068.0839	1133.2175	1206.4046	1267.7629	1350.3841	1409.8586	1427.4	1453.1336	1477.0115	1492.7853	1666.1763	1832.6813	1861.9831	3021.1818	3041.2931	3097.359	3157.8448	3677.4918
CC1=NN(C=O)C(=O)N1	Cc1nn(C=O)c(=O)[nH]1	
InChI=1S/C4H5N3O2/c1-3-5-4(9)7(2-8)6-3/h2H,1H3,(H,5,6,9)	InChI=1S/C4H5N3O2/c1-3-5-4(9)7(2-8)6-3/h2H,1H3,(H,5,6,9)
