16
gdb 50236	3.08359	1.61672	1.40257	2.7734	68.05	-0.2403	-0.037	0.2033	942.4041	0.124086	-437.796938	-437.789856	-437.788911	-437.828593	27.316	
O	-0.3739807147	 0.1682880478	 0.3686037535	-0.243249
C	-0.0666043408	 1.3306529366	 0.3972610578	 0.154607
C	 1.256896597	 1.9121372976	-0.0311671202	 0.014652
O	 2.2771080756	 1.0016189249	-0.4817622956	-0.293118
C	 2.5850984038	 1.85270872	-1.619175502	 0.100792
C	 1.9125030933	 1.4684313378	-2.9447428033	-0.036118
C	 0.5944782855	 0.8668648175	-2.7136902084	-0.266968
N	 0.6929653207	 2.3453668419	-2.6170556196	-0.162946
C	 1.3847113006	 2.7523644653	-1.3309379116	-0.060866
H	-0.7614314101	 2.1127284164	 0.7840816947	 0.087898
H	 1.6163255396	 2.5100568186	 0.8257592183	 0.103879
H	 3.6270811555	 2.1739382095	-1.6413193807	 0.09383
H	 2.3951200066	 1.516415602	-3.915389908	 0.101619
H	 0.0283948202	 0.5763981514	-3.5932890636	 0.128301
H	 0.4324989915	 0.2510208785	-1.8385332751	 0.173917
H	 1.4200157956	 3.8361981643	-1.2447492461	 0.103769
101.9583	165.5437	201.3614	271.2135	343.8583	465.5847	576.4612	648.2245	692.8535	705.8239	744.4008	801.3308	884.0579	888.4898	916.9843	938.3318	962.3961	1009.8258	1029.5645	1054.3246	1069.3216	1119.2727	1124.9759	1154.89	1194.3487	1207.2499	1232.6948	1267.9343	1292.6912	1314.7724	1350.605	1371.3052	1419.1671	1506.4017	1833.7681	2860.2824	2950.0843	3105.9267	3137.7077	3140.4607	3168.4524	3242.6514
O=CC1OC2C3CN3C12	O=C[C@H]1O[C@H]2[C@H]3CN3[C@@H]12	
InChI=1S/C6H7NO2/c8-2-4-5-6(9-4)3-1-7(3)5/h2-6H,1H2	InChI=1S/C6H7NO2/c8-2-4-5-6(9-4)3-1-7(3)5/h2-6H,1H2/t3-,4-,5+,6+,7?/m1/s1
