17
gdb 13568	4.25188	1.29678	1.09222	2.4605	66.83	-0.2372	-0.0418	0.1954	1080.5104	0.139946	-400.966366	-400.957817	-400.956873	-400.999813	30.623	
C	-0.793524002	 1.1803466225	 0.3116047667	-0.317036
N	-0.1323569322	-0.1080273988	 0.1668734808	-0.075559
C	 1.18537671	-0.146501828	-0.4446735796	-0.261489
C	 1.0074635694	-0.4488350765	 1.0094623468	-0.00566
C	 1.5578283266	 0.4941829674	 2.0708162209	 0.029976
O	 0.8131081976	 0.4134900341	 3.2550993282	-0.437236
C	 3.0130675493	 0.1571397197	 2.3368954209	 0.133479
O	 3.3978141216	-0.1631848784	 3.4355868262	-0.258901
H	-0.1099396768	 2.040047758	 0.3969191871	 0.100085
H	-1.4239905239	 1.3453162602	-0.5673829783	 0.125999
H	-1.4314588324	 1.1583413074	 1.1994111931	 0.143992
H	 1.3687126499	-0.9444122395	-1.1592155915	 0.122024
H	 1.6553439212	 0.8049067497	-0.6991937591	 0.104284
H	 1.004339176	-1.4871137546	 1.3382332434	 0.104821
H	 1.5504947336	 1.5248448699	 1.6753446762	 0.092559
H	 1.4454381672	 0.1557044099	 3.9451165013	 0.29522
H	 3.6978271148	 0.2140433169	 1.4677436669	 0.103444
58.7055	95.0715	156.3504	218.2572	236.7648	317.4109	356.6358	379.0417	420.7724	459.7232	535.8705	747.311	771.4457	816.7999	889.3733	914.639	1009.4914	1031.8201	1079.0792	1111.0723	1125.3402	1150.1233	1158.9807	1178.8564	1203.8969	1254.1622	1299.1328	1341.0834	1389.3152	1402.9414	1434.8252	1449.8738	1486.2524	1503.0137	1512.8583	1809.8764	2940.944	2962.282	2978.4122	3073.6477	3077.0227	3116.4026	3117.8062	3171.2204	3685.3856
CN1CC1C(O)C=O	CN1C[C@H]1[C@@H](O)C=O	
InChI=1S/C5H9NO2/c1-6-2-4(6)5(8)3-7/h3-5,8H,2H2,1H3	InChI=1S/C5H9NO2/c1-6-2-4(6)5(8)3-7/h3-5,8H,2H2,1H3/t4-,5-,6?/m0/s1
