15
gdb 128202	5.85908	0.89277	0.78027	4.7914	72.94	-0.2216	-0.0582	0.1635	1393.4014	0.112158	-453.945477	-453.936936	-453.935991	-453.979227	29.925	
C	 0.0112365135	 1.3843665492	 0.0361213801	-0.33335
N	 0.1915917432	-0.0607631535	 0.0565888443	-0.396004
C	 0.6519574112	-0.734323182	-1.0314216182	 0.560634
C	 1.1324925769	-2.0048995547	-1.2189660281	-0.496017
C	 1.3638983475	-2.0497629762	-2.614279901	 0.327926
C	 1.8843587094	-3.1696170556	-3.4235669501	 0.091533
O	 2.1939055908	-4.2394824144	-2.9565010509	-0.259739
N	 1.062459132	-0.9219671169	-3.2275282504	-0.204501
O	 0.6096710663	-0.0774111292	-2.2092273603	-0.214353
H	 0.9559887458	 1.9333279521	-0.0738442862	 0.134482
H	-0.6438869466	 1.6616596623	-0.7921324564	 0.161792
H	-0.4671406235	 1.6853420362	 0.969797156	 0.135849
H	 0.4515539235	-0.46845143	 0.9399757941	 0.260757
H	 1.2918727874	-2.785748344	-0.4969284842	 0.131002
H	 1.9689299727	-2.9454300835	-4.5057269888	 0.09999
71.9219	121.0399	147.7508	150.0798	215.7044	229.5213	375.4445	414.0982	480.1418	525.2052	657.4479	704.6096	717.7712	763.1869	784.6102	944.5899	994.6171	1025.4573	1039.1626	1065.3801	1142.1406	1155.9163	1202.7616	1347.7573	1395.9633	1434.8329	1462.8216	1486.944	1500.3084	1519.0734	1541.5542	1667.3619	1806.6709	2939.0204	3016.2457	3103.9773	3143.9311	3294.2239	3642.2534
CNC1=CC(C=O)=NO1	CNc1cc(C=O)no1	
InChI=1S/C5H6N2O2/c1-6-5-2-4(3-8)7-9-5/h2-3,6H,1H3	InChI=1S/C5H6N2O2/c1-6-5-2-4(3-8)7-9-5/h2-3,6H,1H3
