19
gdb 52143	5.27065	0.68589	0.67743	1.5328	77.1	-0.2418	-0.0254	0.2164	1654.7812	0.157855	-422.958051	-422.949458	-422.948514	-422.992922	31.273	
O	-0.3271139908	 0.0388568626	 0.0054038268	-0.2348
C	-0.0982511506	 1.212053699	 0.1451671778	 0.16025
C	 1.2405202878	 1.871970667	-0.0924747408	-0.266177
C	 1.1418484222	 2.9978552721	-1.1416163118	-0.268133
C	 2.4428150223	 3.7786491233	-1.2614765178	 0.054661
C	 3.7039218729	 3.2542433952	-2.013548873	 0.041543
C	 3.023735406	 3.5041834081	-3.3808015251	-0.229837
C	 2.7776456468	 4.7200265156	-2.4550751	 0.018875
O	 4.2010167055	 4.6495339368	-2.048883493	-0.307006
H	-0.9022821338	 1.9177479265	 0.4646401157	 0.070539
H	 1.5738343179	 2.3020135401	 0.8632412823	 0.121596
H	 1.9612208484	 1.1051156261	-0.3903639182	 0.124699
H	 0.8396071967	 2.567701278	-2.1014870798	 0.115713
H	 0.3432613046	 3.693594933	-0.850461055	 0.109817
H	 2.7211978139	 4.238929838	-0.3084157328	 0.084244
H	 4.4134863335	 2.4783268792	-1.7240781034	 0.095957
H	 3.7156938652	 3.6936466256	-4.2016612197	 0.113279
H	 2.1793619556	 2.8806191279	-3.6800794597	 0.100311
H	 2.3726595458	 5.7042888559	-2.6936284225	 0.094469
48.8617	62.3938	86.9149	140.3026	268.1273	337.4244	341.4365	519.5257	552.1079	619.4025	721.9976	759.3073	810.1854	826.8483	879.5938	888.3983	910.6884	926.3837	997.222	1010.5836	1026.9687	1072.9078	1081.2676	1112.2379	1128.8537	1161.4414	1171.8231	1198.4278	1203.157	1219.1437	1261.2038	1275.5144	1284.7443	1310.6499	1359.2677	1406.4994	1428.2283	1464.8506	1485.237	1502.8804	1837.7889	2845.9998	3013.9784	3022.2033	3063.8109	3073.6762	3085.9958	3103.1517	3110.0762	3117.1271	3153.5652
O=CCCC1C2CC1O2	O=CCC[C@H]1[C@H]2C[C@@H]1O2	
InChI=1S/C7H10O2/c8-3-1-2-5-6-4-7(5)9-6/h3,5-7H,1-2,4H2	InChI=1S/C7H10O2/c8-3-1-2-5-6-4-7(5)9-6/h3,5-7H,1-2,4H2/t5-,6+,7-
