17
gdb 7083	6.75948	0.82159	0.78127	0.2814	66.73	-0.2439	-0.0428	0.201	1394.647	0.138091	-400.991697	-400.982372	-400.981428	-401.026811	31.37	
C	-0.2285775092	 1.5644953485	 0.0821677503	-0.337881
N	-0.0470135684	 0.1154513536	 0.0902281451	-0.082687
C	 0.6921838803	-0.3297902326	 1.2588939359	-0.232558
C	 2.1638516601	 0.0496102676	 1.1571228308	 0.15228
O	 2.8761637753	 0.2660609368	 2.100526875	-0.232746
C	-1.2994081281	-0.587059779	-0.1298190687	-0.232558
C	-1.7569523923	-0.4568454742	-1.5768177694	 0.152284
O	-2.905174075	-0.4806101402	-1.9307541252	-0.232745
H	 0.7415402163	 2.0656017139	 0.1513284349	 0.134948
H	-0.6997790477	 1.8794179201	-0.853680527	 0.13495
H	-0.8575414547	 1.9193750359	 0.9184433158	 0.111781
H	 0.2955004745	 0.0380244179	 2.2210266965	 0.113875
H	 0.6655401615	-1.4276324988	 1.297322459	 0.130419
H	 2.5381091607	 0.0823125078	 0.1083609583	 0.088176
H	-1.1375181128	-1.6605504504	 0.0400452211	 0.130417
H	-2.1242127097	-0.2745597135	 0.533795588	 0.113873
H	-0.9131711607	-0.3636097133	-2.2981921205	 0.088175
49.9306	73.4912	87.3474	135.8772	196.8841	232.4531	281.0678	332.3466	379.7526	406.7859	497.4905	594.7237	748.2753	766.3019	904.0767	1032.2622	1054.146	1071.3884	1079.7641	1083.2917	1152.9012	1184.6767	1215.9339	1280.576	1302.0486	1344.9062	1363.9869	1397.9154	1407.7368	1451.7673	1457.8959	1481.4693	1487.752	1503.0544	1841.7282	1843.8798	2878.1127	2880.4682	2949.6239	2958.1244	2966.2771	3035.0384	3039.8911	3069.8501	3111.6414
CN(CC=O)CC=O	CN(CC=O)CC=O	
InChI=1S/C5H9NO2/c1-6(2-4-7)3-5-8/h4-5H,2-3H2,1H3	InChI=1S/C5H9NO2/c1-6(2-4-7)3-5-8/h4-5H,2-3H2,1H3
