21
gdb 104049	3.3261	1.23738	1.12806	2.539	77.76	-0.2424	0.0696	0.312	1176.1099	0.182303	-424.197006	-424.188264	-424.18732	-424.230228	34.077	
C	 0.1466041756	 1.5055745637	-0.0770676505	-0.448744
C	-0.0303329439	 0.0085288063	 0.0926096443	 0.391943
C	-1.4884867903	-0.4210639348	-0.1155669796	-0.087924
O	-1.8680004255	-0.2445860061	-1.4641820327	-0.424127
O	 0.7727490157	-0.748280958	-0.8815096432	-0.356209
C	 1.3321214294	-1.5782666137	 0.1613552291	 0.123719
C	 2.7213146658	-1.0897034825	 0.629159065	-0.23044
C	 2.032197219	-0.2264684534	 1.7341535848	-0.250702
C	 0.6406168513	-0.7372407207	 1.2703971567	-0.138647
H	 1.2020726689	 1.7815114879	-0.1250925089	 0.119521
H	-0.3390057086	 1.8255178461	-1.0030099234	 0.138827
H	-0.3195941471	 2.0417680553	 0.7568536348	 0.116307
H	-1.6049510769	-1.4709966709	 0.1993479635	 0.07938
H	-2.1617898809	 0.1888833516	 0.4973581717	 0.103834
H	-1.166042546	-0.6670199254	-1.9779540039	 0.290159
H	 1.1782048212	-2.6440390974	-0.0259570371	 0.075649
H	 3.3579993451	-1.883977966	 1.0280071719	 0.102087
H	 3.2715725488	-0.5472081932	-0.1425616819	 0.111848
H	 2.2799058284	-0.5517681889	 2.7469017585	 0.105817
H	 2.1901892155	 0.8525912936	 1.6793966796	 0.105365
H	-0.0294544756	-1.1410321736	 2.0300728613	 0.07234
79.6682	125.5216	176.4751	216.7406	276.8743	314.8908	340.1418	380.3239	424.5897	516.9771	550.2144	648.7556	723.2311	776.1141	817.835	834.7353	884.8566	917.9998	925.545	944.3218	962.9817	984.4934	1029.3819	1044.368	1081.8242	1110.1192	1141.8417	1170.231	1181.0258	1210.4858	1216.3408	1238.7898	1267.3148	1274.2497	1295.5252	1318.01	1337.3581	1379.8694	1407.244	1433.9879	1462.9929	1479.786	1484.1721	1503.8864	1507.5179	2968.7986	3040.9755	3059.5328	3065.6153	3070.1791	3074.3677	3101.456	3111.3895	3113.4734	3127.8044	3131.9625	3756.77
CC1(CO)OC2CCC12	C[C@@]1(CO)O[C@H]2CC[C@@H]12	
InChI=1S/C7H12O2/c1-7(4-8)5-2-3-6(5)9-7/h5-6,8H,2-4H2,1H3	InChI=1S/C7H12O2/c1-7(4-8)5-2-3-6(5)9-7/h5-6,8H,2-4H2,1H3/t5-,6+,7+/m1/s1
