17
gdb 35862	2.30373	1.76721	1.16021	1.2723	73.42	-0.2544	0.0251	0.2795	1063.141	0.134821	-421.765982	-421.757784	-421.756839	-421.799212	31.102	
C	-0.1331984476	-1.2058639678	-0.3561219697	-0.455526
C	-0.0840261864	-0.0266860349	-0.1300467353	 0.341699
C	-0.0432820004	 1.4108696849	 0.1161405549	-0.148726
O	-0.4310020201	 1.7390869404	 1.4588789317	-0.263113
C	 0.6653311341	 2.4070581737	 2.0561041783	 0.009944
O	 1.3813209357	 3.0165892009	 1.0108387211	-0.266072
C	 1.3510101285	 2.0562901225	-0.0157928746	 0.407135
C	 2.6079584958	 1.3088507343	-0.3598940188	-0.335648
C	 2.039746554	 2.3673727539	-1.2943072179	-0.337748
H	-0.1820760267	-2.2495246649	-0.5479568831	 0.203604
H	-0.7517715971	 1.9099624909	-0.5584297914	 0.117587
H	 0.2918470655	 3.1797737826	 2.7330791107	 0.122053
H	 1.301855093	 1.6879534597	 2.5995036175	 0.093061
H	 3.4954210681	 1.5716622388	 0.2045380138	 0.123707
H	 2.5278682547	 0.2679599928	-0.6505124533	 0.131802
H	 1.5731609799	 2.0412220447	-2.218044213	 0.124813
H	 2.554146859	 3.3198992276	-1.353524791	 0.131429
42.9671	143.1205	184.6274	230.2713	273.2708	323.2344	450.324	483.1519	522.5283	574.5461	627.4036	672.2067	738.8265	764.6175	782.6981	871.3085	929.7446	944.6086	972.6608	996.5729	1023.6328	1051.3948	1064.9848	1081.4828	1108.3535	1176.6302	1189.0592	1224.3564	1256.3481	1297.928	1359.2288	1368.1051	1424.6173	1447.0688	1496.3498	1541.5146	2237.7483	2957.8734	3012.5435	3097.22	3133.9583	3140.9548	3220.8386	3237.597	3501.0657
C#CC1OCOC11CC1	C#C[C@H]1OCOC21CC2	
InChI=1S/C7H8O2/c1-2-6-7(3-4-7)9-5-8-6/h1,6H,3-5H2	InChI=1S/C7H8O2/c1-2-6-7(3-4-7)9-5-8-6/h1,6H,3-5H2/t6-/m1/s1
