15
gdb 34723	3.88728	1.47145	1.44701	1.616	68.29	-0.242	0.0445	0.2865	924.0352	0.113756	-420.571327	-420.564856	-420.563912	-420.602158	26.363	
C	-0.0274553686	-1.2290596313	-0.0900909348	-0.443569
C	-0.0203796488	-0.0297665686	-0.0140388141	 0.325472
C	-0.0180952765	 1.4186185777	 0.0546920317	-0.215887
C	-0.4173914212	 2.0219296841	 1.4048975406	-0.166872
C	 0.8978749583	 2.1387474469	 2.1644606675	 0.047793
O	 1.9346304047	 1.6600809	 1.3287004844	-0.239089
C	 1.4019602194	 2.076366549	 0.0859949492	 0.143879
O	 1.0963629583	 3.4525847199	 0.2553620555	-0.241797
C	 0.3385140636	 3.3432719615	 1.4476879991	 0.009952
H	-0.0266340414	-2.2890213629	-0.1531477928	 0.195785
H	-0.5985818776	 1.8533675378	-0.7646043218	 0.117332
H	-1.3742364605	 1.8505471021	 1.8752438276	 0.111339
H	 1.0560962099	 2.0090237782	 3.2240567489	 0.120582
H	 2.095728223	 1.9087791921	-0.7316400657	 0.114509
H	 0.0028306074	 4.2772504238	 1.8723364148	 0.120571
130.5514	149.4647	360.2703	463.3196	487.4692	591.539	629.1497	635.7904	641.7282	726.6211	774.795	799.8319	803.9809	837.1551	890.8988	920.5174	966.158	1005.0735	1014.5244	1030.8731	1039.7538	1047.2622	1068.1753	1090.0606	1097.9535	1205.0799	1221.9102	1234.5678	1285.209	1333.337	1353.5261	1371.6075	2241.7238	3070.2816	3192.5994	3230.6259	3237.1623	3248.1517	3504.3223
C#CC1C2C3OC1OC23	C#C[C@H]1[C@H]2[C@H]3O[C@@H]1O[C@@H]23	
InChI=1S/C7H6O2/c1-2-3-4-5-6(4)9-7(3)8-5/h1,3-7H	InChI=1S/C7H6O2/c1-2-3-4-5-6(4)9-7(3)8-5/h1,3-7H/t3-,4-,5+,6-,7+/m0/s1
