18
gdb 42342	4.42048	0.92245	0.86661	2.8829	73.65	-0.2553	-0.0348	0.2206	1359.2244	0.148027	-439.04632	-439.037702	-439.036758	-439.081445	30.264	
O	 0.1036394428	 0.1632872378	 0.8583051229	-0.336151
C	-0.070383127	 1.2895702824	 0.4362829239	 0.378518
C	 1.0918515987	 2.1859313435	 0.1444656143	-0.106926
C	 2.1362955279	 2.2848096113	 1.218420801	-0.218401
N	 2.4111230172	 1.5571657229	-0.0103042949	-0.301844
C	-1.4431958302	 1.8523591452	 0.1450068469	-0.161437
C	-1.9116262426	 1.6924312024	-1.3348034514	-0.073865
O	-3.0057234104	 0.8540380209	-0.9398090033	-0.265244
C	-2.6485300437	 0.9487160226	 0.4576989771	-0.087918
H	 0.9037500808	 3.0497001074	-0.48706287	 0.100402
H	 2.6702411065	 3.2228149872	 1.3395302327	 0.129398
H	 1.9548315499	 1.7210951125	 2.129293835	 0.13424
H	 2.2793830509	 0.5605062471	 0.168658977	 0.250161
H	-1.5105877465	 2.8797354396	 0.5111218243	 0.101077
H	-2.2453413068	 2.6189176786	-1.8174939821	 0.109283
H	-1.2084265552	 1.1746685049	-1.9994161177	 0.115251
H	-2.3770890341	-0.0224689984	 0.8821721002	 0.13093
H	-3.4439408981	 1.4117866922	 1.052256074	 0.102526
34.0516	60.3462	84.2229	169.5098	232.8211	275.6884	321.5731	380.4282	620.6451	734.1939	776.344	822.0266	851.0083	877.3981	885.3018	937.576	976.8593	998.0708	1014.1427	1037.8375	1055.488	1104.0549	1116.018	1128.2105	1145.9292	1163.3117	1172.6349	1184.9887	1226.6453	1289.6104	1311.2111	1321.2047	1350.055	1378.4108	1410.8516	1497.322	1508.572	1533.1154	1777.9564	3011.3423	3034.5359	3054.5048	3081.1627	3096.0711	3113.2177	3150.4911	3207.4003	3462.0057
O=C(C1CN1)C1COC1	O=C([C@H]1CN1)C1COC1	
InChI=1S/C6H9NO2/c8-6(5-1-7-5)4-2-9-3-4/h4-5,7H,1-3H2	InChI=1S/C6H9NO2/c8-6(5-1-7-5)4-2-9-3-4/h4-5,7H,1-3H2/t5-/m1/s1
