20
gdb 11947	3.27631	1.59298	1.32638	1.5628	75.96	-0.2434	0.0726	0.316	1019.0209	0.17643	-348.977033	-348.968436	-348.967492	-349.009895	32.412	
C	 0.0638544436	 1.5335539392	 0.0149582054	-0.494912
C	-0.005265172	 0.0336697959	 0.0721360996	 0.297947
C	 1.1563037383	-0.8582588061	-0.2754846517	-0.359896
C	 0.5513853413	-0.9677730422	 1.1013017963	 0.354666
C	 1.3451742636	-0.7349554333	 2.3457261257	-0.202937
O	 2.1117868612	-1.9049089386	 2.6209878995	-0.419632
C	-0.7338071903	-1.8003682085	 1.0134408013	-0.277287
C	-1.3033736046	-0.7832275775	-0.0286524559	-0.277089
H	 1.0537941731	 1.9021897935	 0.3032997795	 0.115563
H	-0.1359438115	 1.8967899287	-1.0010409495	 0.119844
H	-0.6743633005	 1.9971917598	 0.6800163812	 0.112343
H	 1.0444650773	-1.6716126856	-0.9900402939	 0.099796
H	 2.1243500043	-0.3670123015	-0.314483647	 0.105572
H	 1.9982515032	 0.1432384509	 2.2100219304	 0.079714
H	 0.6663819509	-0.5096127868	 3.1849952428	 0.079876
H	 2.5410216707	-1.784031733	 3.4735602101	 0.283596
H	-0.6105027653	-2.8354365203	 0.6799316108	 0.098407
H	-1.3045467189	-1.802780466	 1.9459968338	 0.09624
H	-2.1739931004	-0.2431841834	 0.3536013996	 0.096548
H	-1.5477542239	-1.1732203351	-1.022765178	 0.091641
74.7607	132.7714	200.1322	207.1932	258.0702	278.9836	337.9974	344.1821	437.1757	487.6081	587.7026	722.2246	760.4928	789.1817	854.4749	927.7766	940.0371	947.321	981.258	1003.0272	1021.7444	1047.0854	1068.3523	1095.7258	1145.404	1179.3964	1213.2393	1226.3972	1241.3917	1248.7548	1261.7241	1302.9605	1346.7461	1395.332	1420.0479	1467.4546	1482.0712	1487.9861	1488.3668	1498.5773	1512.7362	1523.0452	2953.0451	2979.6963	3016.588	3037.8357	3049.6213	3071.9921	3084.4336	3093.1334	3098.4224	3104.6278	3188.155	3819.4779
CC12CC1(CO)CC2	C[C@@]12C[C@]1(CO)CC2	
InChI=1S/C7H12O/c1-6-2-3-7(6,4-6)5-8/h8H,2-5H2,1H3	InChI=1S/C7H12O/c1-6-2-3-7(6,4-6)5-8/h8H,2-5H2,1H3/t6-,7+/m1/s1
