22
gdb 101301	2.73473	0.96079	0.89457	3.8254	84.03	-0.2465	0.009	0.2556	1449.1092	0.192638	-404.348158	-404.337904	-404.336959	-404.38382	36.984	
C	 0.148822666	 1.3557780874	-0.2204077497	-0.392797
C	-0.0987924095	-0.1544828914	-0.2855098373	-0.168074
C	-1.5634378617	-0.5772063311	-0.0305920678	 0.016192
C	-2.5137020844	-0.119069078	-1.1450275045	-0.426714
C	-1.6202459881	-2.0685349986	 0.2876029294	-0.018374
C	-2.7982969468	-2.9594526592	-0.0152793174	-0.262504
N	-1.5508114793	-3.1179067831	-0.7165781406	-0.054851
C	-1.3607547767	-3.0726195067	-2.0789562211	 0.138961
O	-2.1334516303	-3.5052940149	-2.9018159633	-0.304112
H	 1.2121131569	 1.5793045016	-0.3496732382	 0.118109
H	-0.394711021	 1.8976532244	-1.0000544462	 0.122822
H	-0.1610276869	 1.7651048433	 0.7477913718	 0.116022
H	 0.2198170661	-0.537844543	-1.2636090566	 0.101296
H	 0.5411441345	-0.6494155979	 0.4559488398	 0.097444
H	-1.8822032864	-0.0835888424	 0.900236023	 0.083674
H	-2.3051109013	-0.6153937558	-2.0979016189	 0.14118
H	-3.5585755002	-0.3115347004	-0.8875062843	 0.122229
H	-2.4165677832	 0.9570788098	-1.3090029371	 0.122784
H	-1.054713382	-2.3188323149	 1.1861293431	 0.100574
H	-3.0618912362	-3.7517738081	 0.6807735096	 0.125211
H	-3.6293854318	-2.5533014555	-0.5842148211	 0.137479
H	-0.3654812578	-2.6650697655	-2.3405282329	 0.083452
60.6811	77.8559	103.6127	178.5438	195.0761	212.8203	228.225	288.7172	311.3932	344.6002	386.804	451.9249	554.3738	669.0314	751.2578	781.7255	831.5535	886.9858	958.7521	966.0457	980.6941	1032.4535	1036.0104	1044.2578	1077.2293	1118.242	1130.3261	1145.6906	1161.3195	1176.6691	1208.4061	1292.9873	1324.2784	1360.7802	1380.3069	1394.4551	1412.3326	1415.9826	1425.8987	1437.7814	1483.1731	1495.4784	1501.6339	1506.419	1508.7272	1522.9015	1788.6842	2947.59	2989.9823	3019.6119	3034.6333	3049.7099	3053.018	3095.7123	3101.2985	3108.8078	3112.6738	3118.7035	3120.5644	3202.7324
CCC(C)C1CN1C=O	CC[C@@H](C)[C@H]1CN1C=O	
InChI=1S/C7H13NO/c1-3-6(2)7-4-8(7)5-9/h5-7H,3-4H2,1-2H3	InChI=1S/C7H13NO/c1-3-6(2)7-4-8(7)5-9/h5-7H,3-4H2,1-2H3/t6-,7-,8?/m1/s1
