18
gdb 112275	2.53724	1.19745	0.89558	3.4562	68.57	-0.2423	-0.0007	0.2416	1304.7553	0.147069	-476.223854	-476.214516	-476.213572	-476.258582	33.158	
C	 0.3951741219	 1.4626205144	-0.1586957665	-0.328219
N	-0.2446811837	 0.2171926779	 0.2719154535	-0.295729
C	 0.4852714733	-0.4538485417	 1.3276260383	-0.195069
C	 0.0665357656	-1.9005692968	 1.6803276612	 0.079052
C	-0.9806069892	-2.5948352003	 0.8304464952	-0.076529
O	-0.9836505947	-3.986717656	 1.0806581214	-0.418033
O	 1.41184918	-2.380002008	 1.2962212473	-0.265675
C	 1.7939214863	-1.1295938543	 0.8837293498	 0.481568
O	 2.8179705973	-0.8139748332	 0.3695389354	-0.322762
H	 1.3810032199	 1.236990885	-0.5717328663	 0.162597
H	-0.2114306027	 1.9221396207	-0.943067438	 0.125074
H	 0.5289674157	 2.1955433249	 0.6554785599	 0.100713
H	-1.1845464293	 0.4190993897	 0.5985887593	 0.227867
H	 0.6595175347	 0.1636719119	 2.2267363419	 0.09428
H	-0.0918857378	-2.1010418854	 2.7424766329	 0.104862
H	-1.9766476499	-2.2250569298	 1.0988848033	 0.112055
H	-0.8083488452	-2.3588432551	-0.2274530136	 0.117695
H	-0.1053645823	-4.313780834	 0.8538317351	 0.296255
80.6402	95.6029	120.7181	134.9865	184.6613	235.2789	295.3203	337.8248	402.8267	453.644	475.3567	564.0744	704.3078	773.8866	804.61	843.816	881.0726	943.4256	1009.4301	1041.0654	1082.2707	1107.6032	1136.8814	1147.6243	1161.9572	1201.2774	1219.8766	1262.1814	1296.0506	1339.1434	1370.4634	1398.8058	1431.3345	1460.0432	1478.0143	1495.0493	1497.1371	1520.3465	1933.676	2941.9072	2960.9424	3026.1941	3074.1878	3087.3446	3097.5641	3134.9018	3509.6926	3800.7007
CNC1C(CO)OC1=O	CN[C@H]1[C@@H](CO)OC1=O	
InChI=1S/C5H9NO3/c1-6-4-3(2-7)9-5(4)8/h3-4,6-7H,2H2,1H3	InChI=1S/C5H9NO3/c1-6-4-3(2-7)9-5(4)8/h3-4,6-7H,2H2,1H3/t3-,4+/m1/s1
