23
gdb 93910	2.56211	1.23687	0.96922	1.7495	87.23	-0.2466	0.0099	0.2565	1322.3922	0.206916	-388.303893	-388.294413	-388.293469	-388.338293	36.409	
C	-0.1456184093	 1.636990099	-0.052123221	-0.397998
C	-0.0581450194	 0.1041128598	-0.0176778719	 0.038509
C	 0.8493628702	-0.4132479415	-1.1456163196	-0.19249
C	 0.6756425518	-1.8965962055	-1.4843233607	-0.215536
C	 1.2863547141	-2.9040075109	-0.5038534205	 0.098486
O	 2.7232005721	-2.8358810795	-0.5255722139	-0.440154
C	 0.8003751674	-2.8680796914	 0.9261899457	-0.10395
C	 0.4592452211	-1.8263485411	 1.6896295391	-0.061798
C	 0.3802009803	-0.3499844068	 1.3846541544	-0.241338
H	 0.8422995183	 2.0901892252	 0.0947435315	 0.112164
H	-0.5314297094	 1.9889007684	-1.014167453	 0.111397
H	-0.805368001	 2.0194667696	 0.7340068402	 0.108804
H	-1.0668616198	-0.2959684092	-0.1951047727	 0.07303
H	 0.6368305075	 0.1676985435	-2.0511659338	 0.091228
H	 1.9020634064	-0.2081950404	-0.9041564626	 0.084748
H	-0.392582673	-2.1244821251	-1.5977440062	 0.089795
H	 1.1448024443	-2.0961118054	-2.454518152	 0.099803
H	 1.0625096584	-3.9011507008	-0.9023678706	 0.081051
H	 2.9879658303	-2.2026023151	 0.148694919	 0.278634
H	 0.8297864819	-3.8391191974	 1.4171704106	 0.089856
H	 0.2359876272	-2.0593306009	 2.7305119036	 0.089529
H	 1.3610973518	 0.1025802666	 1.6070688791	 0.10501
H	-0.3026369412	 0.1014418187	 2.1150587853	 0.101219
43.7734	104.2599	196.1583	224.7205	241.0076	267.269	312.3151	335.0842	375.9757	393.5881	451.9395	517.3118	601.9496	712.4048	756.579	771.9638	846.8448	875.2325	905.8556	920.3042	935.133	995.2052	1014.1563	1022.3667	1038.9328	1085.6057	1106.1155	1142.955	1168.1831	1184.3692	1252.2558	1268.1689	1278.7614	1294.1519	1327.443	1351.8533	1380.6467	1384.5622	1402.4875	1410.5259	1414.1129	1416.3695	1443.3597	1470.2756	1473.2804	1493.3835	1498.8979	1501.4958	1724.999	2971.5126	2999.0036	3011.8317	3015.6423	3024.8235	3031.6302	3038.4483	3052.3511	3065.8971	3089.7105	3099.992	3118.1323	3147.2537	3824.6338
CC1CCC(O)C=CC1	C[C@H]1CC[C@@H](O)C=CC1	
InChI=1S/C8H14O/c1-7-3-2-4-8(9)6-5-7/h2,4,7-9H,3,5-6H2,1H3	InChI=1S/C8H14O/c1-7-3-2-4-8(9)6-5-7/h2,4,7-9H,3,5-6H2,1H3/t7-,8+/m1/s1
