23
gdb 120040	2.38347	1.11067	0.86003	1.8972	82.67	-0.2389	0.0782	0.3171	1453.3016	0.203597	-425.405657	-425.395118	-425.394174	-425.441833	37.801	
C	-0.08594216	 1.4199567425	 0.1274705318	-0.228179
O	-0.0885310214	 0.0164713777	 0.0240287001	-0.234349
C	 0.7574353779	-0.4612383481	-1.0026106272	-0.07726
C	 0.658531955	-1.9755405401	-1.0189467219	-0.101277
C	-0.6182869533	-2.6082468983	-1.6380295954	 0.164563
C	-1.8150529983	-1.7607693732	-2.0171176055	-0.402198
O	 0.1335681273	-3.0640935041	-2.7908716124	-0.313568
C	 1.391041383	-2.7285147572	-2.16285217	 0.144956
C	 2.3376932004	-2.0102443469	-3.1059926884	-0.407801
H	 0.9186150444	 1.8110963884	 0.3549660926	 0.103462
H	-0.4369768478	 1.8999527718	-0.7999225822	 0.104402
H	-0.7620445115	 1.6903797703	 0.94223685	 0.127369
H	 0.4661238846	-0.0227918723	-1.9703041317	 0.091546
H	 1.800628664	-0.153168115	-0.8136524224	 0.087273
H	 0.891861782	-2.3396498218	-0.0156967448	 0.078806
H	-0.9564677043	-3.4711707245	-1.044979869	 0.068746
H	-1.5230058145	-0.9107881673	-2.6395453411	 0.113812
H	-2.5291518579	-2.3640305482	-2.5867780034	 0.119892
H	-2.3115446276	-1.382582698	-1.1191765019	 0.12808
H	 1.8812545051	-3.6391501371	-1.7855408008	 0.068918
H	 1.8930666617	-1.0957659657	-3.507167122	 0.120039
H	 3.2746202145	-1.7564737296	-2.5983796299	 0.115025
H	 2.5779686268	-2.6647228833	-3.9498757146	 0.127743
45.1037	81.1373	110.4174	134.6576	205.2374	218.8919	225.4155	259.4722	294.026	348.6222	390.1316	402.983	497.1422	541.4031	732.4559	786.8547	853.7161	883.4304	934.6813	977.4257	999.1084	1023.4912	1044.6764	1076.4229	1121.5236	1144.9946	1155.991	1167.7271	1183.9078	1197.4091	1226.6841	1242.4169	1266.9201	1284.1727	1339.7539	1360.6685	1372.9297	1398.8891	1402.5955	1419.4007	1435.891	1476.5939	1481.2583	1483.6129	1485.3649	1493.6725	1500.3235	1505.7531	1531.318	2951.1553	2970.1843	2975.8493	2984.5257	2987.5934	3012.4281	3037.0606	3042.9245	3082.9206	3105.4411	3112.3841	3113.6431	3119.5447	3126.5241
COCC1C(C)OC1C	COC[C@H]1[C@@H](C)O[C@H]1C	
InChI=1S/C7H14O2/c1-5-7(4-8-3)6(2)9-5/h5-7H,4H2,1-3H3	InChI=1S/C7H14O2/c1-5-7(4-8-3)6(2)9-5/h5-7H,4H2,1-3H3/t5-,6+,7+
