13
gdb 11205	4.8291	1.44989	1.23602	1.0086	56.57	-0.2614	-0.0524	0.209	929.8581	0.094657	-435.74531	-435.738037	-435.737093	-435.778022	24.934	
N	-0.2198257461	 1.1923931531	 0.3784021088	-0.522903
C	-0.0755385564	 0.0012307289	 0.00716119	 0.38213
C	-1.1385594003	-1.0738813663	 0.0041524743	-0.168024
O	-0.5279397324	-2.182253835	-0.6470717363	-0.257679
C	 0.8581483987	-1.9468715655	-0.7272988968	 0.115364
O	 1.0760078806	-0.5647770301	-0.4773500783	-0.232795
C	 1.5882739718	-2.7634670947	 0.3455082491	 0.148832
O	 2.4255155157	-3.5853731418	 0.0963422102	-0.217489
H	 0.6494176148	 1.7201386323	 0.2943262993	 0.237787
H	-1.4451412793	-1.3245434741	 1.0270642838	 0.143869
H	-2.0216074792	-0.7618336093	-0.5593606789	 0.155221
H	 1.2322004445	-2.2103795371	-1.7216042115	 0.125373
H	 1.2573366775	-2.5340533502	 1.3834123563	 0.090315
66.1906	74.1859	105.8889	308.2151	360.4671	426.6428	448.9879	526.1777	667.1593	791.6414	871.0931	889.5922	951.3075	1006.9875	1024.3512	1037.2045	1057.2683	1084.7905	1167.6293	1201.4346	1275.4438	1320.8047	1347.8219	1368.0323	1413.7181	1508.6874	1805.6685	1850.7497	2886.6024	3035.9462	3077.4805	3099.112	3492.1426
N=C1COC(O1)C=O	[NH][C]1CO[C@@H](O1)C=O	
InChI=1S/C4H5NO3/c5-3-2-7-4(1-6)8-3/h1,4-5H,2H2	InChI=1S/C4H5NO3/c5-3-2-7-4(1-6)8-3/h1,4-5H,2H2/t4-/m0/s1
