21
gdb 110355	3.09614	1.0652	0.94942	1.4256	78.54	-0.2434	0.0612	0.3046	1336.3309	0.18208	-424.19057	-424.181328	-424.180384	-424.224558	35.424	
C	-0.0122309617	 1.3846160873	-0.333481316	-0.372822
C	-0.0224491123	-0.041008786	 0.2303161592	-0.210991
C	-1.391161237	-0.6918534441	 0.1258834391	-0.005531
C	-1.9739597222	-1.3225873065	-1.1121037389	-0.121986
C	-1.6784311125	-2.1687327894	 0.1375493053	-0.101882
C	-0.6159475617	-2.9629662689	-0.6174427601	 0.060836
O	-1.0693407534	-4.2970211261	-0.7909992755	-0.437002
C	-0.9018762557	-2.088681152	-1.9087116281	 0.112874
O	-1.3841622242	-2.8543772589	-2.9808449289	-0.444042
H	 0.9743996516	 1.846607725	-0.229506173	 0.110997
H	-0.2780862388	 1.3890951963	-1.3956511009	 0.122657
H	-0.7351008503	 2.0208677974	 0.1892255661	 0.114198
H	 0.7355381161	-0.6398787229	-0.2856576809	 0.100805
H	 0.2786605412	-0.0218600328	 1.2856500442	 0.097162
H	-2.1504164024	-0.1424033088	 0.6825123096	 0.087659
H	-2.9275921213	-1.0203356492	-1.5293743649	 0.087048
H	-2.3602029136	-2.6246596556	 0.845924232	 0.091275
H	 0.4044332764	-2.9554528712	-0.2118861921	 0.063571
H	-0.3954762252	-4.7702289461	-1.2915839091	 0.291126
H	-0.0711680727	-1.4917390737	-2.2982345734	 0.076023
H	-1.8689496404	-3.5897429438	-2.5785005338	 0.278025
66.6168	115.0719	176.2728	218.8381	227.3796	259.0436	309.1083	325.4079	372.4066	493.6261	573.6959	575.0912	599.3565	726.2634	792.8963	806.4143	812.8208	888.0253	896.4731	950.5622	968.4217	1014.181	1024.261	1037.0048	1072.7578	1081.7778	1110.1788	1140.7857	1143.9032	1197.316	1215.3761	1233.1883	1261.2017	1296.7004	1306.2078	1317.7426	1331.7943	1355.5939	1413.136	1424.8628	1448.5146	1451.9325	1490.4166	1498.7401	1508.6894	3005.5975	3025.7247	3031.9962	3054.3069	3065.0377	3099.3379	3105.8803	3112.0531	3174.2815	3185.2066	3726.6703	3807.7876
CCC1C2C1C(O)C2O	CC[C@H]1[C@@H]2[C@H]1[C@@H](O)[C@H]2O	
InChI=1S/C7H12O2/c1-2-3-4-5(3)7(9)6(4)8/h3-9H,2H2,1H3	InChI=1S/C7H12O2/c1-2-3-4-5(3)7(9)6(4)8/h3-9H,2H2,1H3/t3-,4+,5-,6-,7+
