15
gdb 52373	5.45185	0.62405	0.59883	2.4799	68.88	-0.2599	-0.0991	0.1608	1745.8034	0.109472	-453.95014	-453.940405	-453.93946	-453.986821	32.065	
O	 0.0129786762	-0.0309448722	-0.3189293937	-0.228838
C	 0.2360847077	 1.1136295267	-0.0293711945	 0.150847
C	 1.3187915401	 1.9627138038	-0.680622543	-0.238472
N	 0.9685470749	 3.3777669419	-0.6076450785	-0.289784
C	 2.0448133489	 4.2998403648	-0.8668031243	-0.274329
C	 2.4812313264	 4.3901660343	-2.3292727606	 0.283751
O	 1.9195590314	 3.8343087182	-3.2378622727	-0.260315
C	 3.6538804481	 5.2573804823	-2.5723177592	 0.226058
N	 4.5757958212	 5.9412536215	-2.7133120045	-0.284346
H	-0.3313412776	 1.6497963403	 0.7645227137	 0.089348
H	 2.2294739005	 1.8051870023	-0.0835375886	 0.137432
H	 1.5198410381	 1.576532379	-1.6888172768	 0.139922
H	 0.1965069213	 3.573770019	-1.2369351167	 0.24026
H	 1.7614543747	 5.3189999039	-0.5624054539	 0.156131
H	 2.9216848981	 4.0462840742	-0.2569999969	 0.152334
41.7223	50.8059	77.7912	95.589	147.5784	238.4804	249.4901	283.1731	365.0557	506.23	543.115	564.4216	591.1804	700.4191	778.5958	836.8665	955.5027	1012.4502	1060.4737	1068.1659	1127.0451	1192.1413	1226.7059	1297.8369	1340.4024	1364.1946	1404.2455	1435.769	1469.8595	1517.8605	1801.0582	1843.835	2334.1565	2887.1693	3003.6248	3006.405	3048.657	3057.5662	3526.9461
O=CCNCC(=O)C#N	O=CCNCC(=O)C#N	
InChI=1S/C5H6N2O2/c6-3-5(9)4-7-1-2-8/h2,7H,1,4H2	InChI=1S/C5H6N2O2/c6-3-5(9)4-7-1-2-8/h2,7H,1,4H2
