17
gdb 51843	2.98356	1.08749	0.87035	2.5821	69.89	-0.2496	-0.0423	0.2074	1300.5556	0.134186	-458.991382	-458.982664	-458.98172	-459.026136	30.706	
O	-0.7974085291	 0.9337673462	 0.6017777288	-0.232031
C	 0.0056951854	 1.0921600508	-0.2780390759	 0.16534
C	 1.2429884289	 1.9578107048	-0.1709222912	-0.290188
C	 1.3883183399	 2.8920910869	-1.3829750645	-0.010999
O	 0.3399040144	 3.8398155188	-1.4804317105	-0.26065
C	 0.7796397347	 5.0831491668	-0.9163679202	-0.095843
C	 2.269238111	 5.1780013185	-1.2527113983	-0.336672
C	 2.6873504199	 3.7096069757	-1.294471473	 0.380971
O	 3.7973451641	 3.2527652193	-1.2460402769	-0.305389
H	-0.1088518023	 0.5824667748	-1.2637471763	 0.07532
H	 1.2081719418	 2.5123561517	 0.7711095774	 0.124531
H	 2.1257070002	 1.3030837856	-0.1540146239	 0.145624
H	 1.3944902179	 2.2945800049	-2.3041440851	 0.115527
H	 0.1701592013	 5.8724024651	-1.3599233273	 0.125914
H	 0.6190856694	 5.0932521178	 0.171587066	 0.110875
H	 2.4256067122	 5.6042058737	-2.2508111164	 0.146526
H	 2.8748595901	 5.7432424885	-0.5423679627	 0.141144
50.4976	83.0779	96.1719	154.0641	178.2856	274.5598	400.2823	456.3322	523.5238	545.2899	643.5018	656.0763	753.6719	832.981	843.3945	904.5608	956.9896	999.281	1015.4735	1051.2577	1104.4038	1111.726	1153.8783	1206.006	1217.8395	1237.0579	1242.908	1280.7739	1319.0574	1360.6108	1392.7353	1429.1761	1446.3454	1447.4428	1523.9026	1842.1065	1857.7387	2856.631	3001.28	3026.7475	3027.8829	3050.7533	3103.9166	3112.2305	3128.2041
O=CCC1OCCC1=O	O=CC[C@H]1OCCC1=O	
InChI=1S/C6H8O3/c7-3-1-6-5(8)2-4-9-6/h3,6H,1-2,4H2	InChI=1S/C6H8O3/c7-3-1-6-5(8)2-4-9-6/h3,6H,1-2,4H2/t6-/m1/s1
