16
gdb 26604	2.36682	1.87741	1.051	3.3647	80.2	-0.1765	-0.0184	0.158	1077.6585	0.126805	-434.103898	-434.095901	-434.094957	-434.135965	31.442	
N	-0.028030833	 1.4043063046	 0.1120565893	-0.59337
C	-0.0085614289	 0.0156055145	 0.0418130287	 0.254533
C	-1.1766302963	-0.6913061663	-0.0141199049	 0.137114
N	-2.4265840821	-0.0413583943	-0.0638376107	-0.612271
C	-1.1693799494	-2.1348265071	-0.08259506	 0.345381
N	-2.2437684884	-2.820321382	-0.1641859693	-0.577244
O	 0.0723047683	-2.7596527663	-0.0774809207	-0.238296
C	 1.215786636	-2.0446476829	 0.0166735711	 0.057928
C	 1.2376791272	-0.7048450611	 0.0790217567	-0.239204
H	 0.8183686139	 1.8537950367	-0.2078795961	 0.247989
H	-0.85281113	 1.8009918495	-0.3245430627	 0.257912
H	-2.5883298958	 0.5422466427	 0.751425181	 0.24305
H	-3.1577319567	-0.7444709979	-0.1229179897	 0.263797
H	-2.0439589266	-3.816990516	-0.2177817517	 0.216901
H	 2.0872997257	-2.6855849257	 0.0364922275	 0.132987
H	 2.183106166	-0.1822598184	 0.1550576414	 0.102796
133.6546	186.2354	221.4054	275.2704	292.2778	341.6386	441.6795	490.9726	502.1763	531.352	539.9215	625.0248	697.9119	714.6784	741.4206	773.1145	786.7174	845.5271	887.8149	894.8415	965.4619	1027.8955	1101.7408	1129.4636	1244.0167	1274.6852	1288.8021	1328.2517	1410.9718	1473.3505	1624.5568	1633.3998	1648.8673	1696.1057	1723.3902	3204.6266	3230.6067	3484.1177	3516.2071	3521.8694	3572.4691	3636.6141
NC1=C(N)C(=N)OC=C1	N[C@@H]1C(=C([NH])OC=C1)N	
InChI=1S/C5H7N3O/c6-3-1-2-9-5(8)4(3)7/h1-2,8H,6-7H2	InChI=1S/C5H8N3O/c6-3-1-2-9-5(8)4(3)7/h1-3,8H,6-7H2/t3-/m0/s1
