21
gdb 110064	2.36861	1.37881	1.1718	3.3146	73.28	-0.2451	0.0476	0.2927	1160.3027	0.183829	-461.367083	-461.357944	-461.357	-461.401015	35.247	
O	 0.0066842802	 1.3994941785	-0.1724740676	-0.430067
C	-0.0246691114	 0.0580779079	 0.297094615	-0.094838
C	-1.3812559032	-0.623894882	 0.0597134094	-0.035281
C	-2.0395146628	-0.2928427559	-1.2900824674	 0.084258
O	-1.0052776531	-0.4050935368	-2.2941363215	-0.44889
C	-3.1352484658	-1.3685573563	-1.462008863	-0.239964
C	-2.7389302013	-2.5434647422	-0.5223967394	-0.230329
C	-1.3531218401	-2.1720640359	 0.0518016105	 0.118672
O	-0.2883681271	-2.6913190469	-0.7342499571	-0.443612
H	 0.0165842129	 1.3370142566	-1.1342906865	 0.285585
H	 0.7671332749	-0.5440658073	-0.1623600551	 0.108166
H	 0.1831413752	 0.1030906228	 1.3709278911	 0.10517
H	-2.0926423466	-0.303238068	 0.8318928633	 0.079333
H	-2.4432378735	 0.724862104	-1.3124668211	 0.080194
H	-1.413404384	-0.2994306385	-3.1596569695	 0.29069
H	-4.1109106298	-0.955454361	-1.1895755237	 0.107591
H	-3.2081015741	-1.6736557649	-2.511290819	 0.093921
H	-3.4677892049	-2.6423597228	 0.2882879334	 0.099942
H	-2.6849540996	-3.5072173959	-1.033154944	 0.109635
H	-1.2052045391	-2.5887384163	 1.0525059695	 0.076991
H	-0.2892710767	-2.198256929	-1.5664037671	 0.282832
73.4628	85.3117	164.8035	184.5397	267.4137	334.6568	364.2773	379.1467	406.782	482.7545	488.0755	557.9729	594.1689	723.8653	745.0967	766.0771	839.3246	858.5314	897.6205	942.571	982.6379	1002.8374	1025.8759	1053.9251	1078.2198	1093.0018	1123.1999	1176.9219	1184.5034	1218.0545	1239.3691	1263.989	1284.4201	1294.3313	1327.8692	1333.1473	1349.0802	1381.0867	1401.7031	1422.1141	1427.9697	1462.3764	1475.7446	1494.337	1512.8086	3025.2759	3038.7504	3041.3566	3050.4298	3053.6816	3071.9616	3084.9917	3086.894	3113.8639	3740.8407	3800.4517	3817.2477
OCC1C(O)CCC1O	OC[C@H]1[C@@H](O)CC[C@H]1O	
InChI=1S/C6H12O3/c7-3-4-5(8)1-2-6(4)9/h4-9H,1-3H2	InChI=1S/C6H12O3/c7-3-4-5(8)1-2-6(4)9/h4-9H,1-3H2/t4-,5-,6+
