20
gdb 126426	3.47514	0.95079	0.78924	3.3054	83.57	-0.1951	0.043	0.2381	1505.6688	0.17205	-399.351817	-399.342165	-399.34122	-399.386979	34.979	
C	 0.0111208614	 1.3739856876	-0.5694376086	-0.368527
C	-0.1308241049	 0.1610756735	 0.3649759392	-0.283172
C	-1.4413959465	-0.5520797098	 0.2150353043	 0.35784
N	-2.3473807448	-0.5026138874	 1.1831290893	-0.300835
N	-3.3996818368	-1.2210920626	 0.6982235625	-0.288225
C	-3.17148912	-1.7229829012	-0.5435483801	 0.451149
N	-4.0991962372	-2.5348147023	-1.182508487	-0.394184
C	-3.8105001469	-2.9092695899	-2.5587794027	-0.322538
C	-1.9026056619	-1.3034976936	-0.8996592288	-0.381205
H	 0.9809739538	 1.8626925748	-0.4313190587	 0.107577
H	-0.0695331506	 1.0776559886	-1.620294787	 0.112879
H	-0.7735775638	 2.1103083063	-0.3703445933	 0.122435
H	 0.6914281314	-0.5399317409	 0.1729312907	 0.099697
H	-0.0395303977	 0.4823690325	 1.4069930117	 0.114443
H	-4.1846296635	-1.405902745	 1.2981555752	 0.260726
H	-5.052207088	-2.2205477946	-1.0568933087	 0.235835
H	-3.6890312629	-2.0478317086	-3.2332731584	 0.117716
H	-2.8874332412	-3.4957784823	-2.5880847259	 0.142235
H	-4.6217570996	-3.5377780562	-2.9329231941	 0.125717
H	-1.3892583503	-1.4964543788	-1.8268383694	 0.090438
43.9684	89.884	121.0491	171.9246	197.6978	231.7765	279.8863	350.8187	373.9989	422.8626	489.4766	540.803	639.6215	696.0387	718.029	752.768	774.2658	793.2407	962.735	1006.725	1028.8819	1058.97	1085.4583	1094.1494	1147.2732	1153.8585	1168.6334	1202.9111	1273.9377	1309.4338	1351.0963	1404.7929	1436.6455	1449.3133	1458.5848	1479.1407	1486.2788	1494.8392	1496.8879	1514.1036	1518.2849	1554.5583	1631.6035	2987.0754	3026.4314	3034.3429	3079.7711	3081.1676	3104.6428	3112.0645	3125.0252	3267.9607	3566.8421	3678.6151
CCC1=NNC(NC)=C1	CCc1n[nH]c(NC)c1	
InChI=1S/C6H11N3/c1-3-5-4-6(7-2)9-8-5/h4H,3H2,1-2H3,(H2,7,8,9)	InChI=1S/C6H11N3/c1-3-5-4-6(7-2)9-8-5/h4H,3H2,1-2H3,(H2,7,8,9)
