21
gdb 101369	3.3862	0.9915	0.88415	3.0441	78.24	-0.2506	0.0659	0.3165	1396.4136	0.181063	-424.185708	-424.176345	-424.175401	-424.22011	35.109	
C	-0.0435320536	 1.5981963954	-0.0099086609	-0.38009
C	-0.0507163514	 0.0711554879	 0.0958217078	-0.193869
C	-1.4520117588	-0.5331095378	-0.051035168	 0.129864
O	-2.0493479781	-0.1794842908	-1.3005224061	-0.436669
C	-1.4670074698	-2.0479541905	 0.1267318592	-0.034658
C	-1.1651423945	-2.670052441	 1.5442706312	-0.284528
C	-2.5620487709	-3.3038718672	 1.5064036871	 0.033578
O	-3.5024535592	-2.2313204334	 1.3735273562	-0.243869
C	-2.854800906	-2.7137061248	 0.190930611	 0.01724
H	 0.9746352696	 1.995856625	 0.0380763638	 0.107343
H	-0.4978026985	 1.9201399943	-0.9505479207	 0.126858
H	-0.6187011461	 2.0494678253	 0.8058946306	 0.117083
H	 0.600101509	-0.3616781197	-0.6795036814	 0.079624
H	 0.3751471788	-0.2426364123	 1.0567505951	 0.100904
H	-2.1175057858	-0.0975676289	 0.703272526	 0.102025
H	-1.476152273	-0.5121984335	-2.0008573951	 0.273027
H	-0.8393264185	-2.5227807355	-0.6380730451	 0.063652
H	-0.348000977	-3.3943477538	 1.5206517955	 0.106138
H	-1.0066825712	-1.9673546948	 2.3665284217	 0.110469
H	-2.9153267131	-4.2165220404	 1.9718330796	 0.104041
H	-3.4912022218	-3.0486989835	-0.6191360176	 0.101836
76.0363	93.6708	124.674	172.1741	228.1587	256.0849	301.3243	346.2191	404.3561	420.2496	488.8552	600.0438	743.3133	779.6569	823.5835	846.0781	870.1578	899.1928	927.1373	942.	981.8531	999.8018	1018.2828	1048.8013	1057.0008	1091.2703	1120.7706	1129.4537	1166.1995	1208.6614	1236.7	1241.4488	1254.0011	1268.3	1279.1562	1327.4038	1372.7506	1382.9698	1401.4057	1407.2211	1424.8721	1474.8754	1481.5113	1496.2717	1509.2341	2993.815	3027.3591	3038.4472	3048.435	3062.2032	3065.2865	3103.0546	3121.8352	3122.5533	3183.2461	3199.4904	3788.6803
CCC(O)C1CC2OC12	CC[C@@H](O)[C@H]1C[C@H]2O[C@@H]12	
InChI=1S/C7H12O2/c1-2-5(8)4-3-6-7(4)9-6/h4-8H,2-3H2,1H3	InChI=1S/C7H12O2/c1-2-5(8)4-3-6-7(4)9-6/h4-8H,2-3H2,1H3/t4-,5-,6-,7+/m1/s1
