17
gdb 36235	4.04212	1.02446	0.8457	5.8758	74.06	-0.2598	0.0114	0.2712	1323.6598	0.137482	-418.041456	-418.033191	-418.032247	-418.075206	29.956	
N	-0.3093875467	-1.1407090556	-0.1822424962	-0.308747
C	-0.1085214218	-0.0083832035	-0.0836334653	 0.29945
C	 0.0692809109	 1.4339240114	 0.0410834538	-0.451403
C	 1.5175977178	 1.8813696413	 0.0559062994	 0.429244
N	 2.4798120374	 1.065106153	 0.0483634744	-0.295823
C	 3.8437197207	 1.5835095118	 0.0107877526	-0.156061
C	 3.9181928797	 3.041636581	-0.4533028811	-0.235503
C	 2.842350303	 3.8357170576	 0.2743087364	-0.073568
O	 1.5476741375	 3.2407623051	 0.0797710413	-0.26461
H	-0.446115626	 1.9384955045	-0.7846090962	 0.172935
H	-0.4207177826	 1.7831465751	 0.9578776922	 0.172156
H	 4.2804637014	 1.4737666311	 1.0124360443	 0.118041
H	 4.4297146322	 0.9346243591	-0.6482180087	 0.122216
H	 4.9031225682	 3.4756971107	-0.2546974464	 0.11106
H	 3.7418767964	 3.1012083146	-1.5331183879	 0.119827
H	 3.0452303125	 3.8715002062	 1.352562797	 0.116983
H	 2.7518380495	 4.8599439567	-0.0936609897	 0.123804
43.0452	122.1475	130.8046	207.0953	305.1174	323.4837	384.2445	422.433	503.7181	531.6055	608.64	709.9211	833.6051	877.4774	885.8965	930.9078	952.6896	964.89	988.1096	1073.4506	1122.8063	1152.5425	1183.7422	1220.5006	1233.6075	1255.2186	1303.3288	1346.1557	1369.6808	1382.9625	1415.1014	1448.9669	1479.2204	1488.9149	1513.4549	1766.6852	2379.2475	3020.8867	3026.6822	3044.5597	3044.9303	3069.2599	3077.0841	3094.2924	3108.4701
N#CCC1=NCCCO1	N#CCC1=NCCCO1	
InChI=1S/C6H8N2O/c7-3-2-6-8-4-1-5-9-6/h1-2,4-5H2	InChI=1S/C6H8N2O/c7-3-2-6-8-4-1-5-9-6/h1-2,4-5H2
