20
gdb 97980	7.26392	0.43376	0.42318	2.8553	91.89	-0.2463	0.0201	0.2664	2637.5024	0.1674	-403.114826	-403.103525	-403.10258	-403.155746	37.284	
C	-0.6443946273	 1.2611181835	-0.4775884701	-0.366585
C	 0.3500701087	 0.2363285184	 0.0975291546	-0.317397
C	 1.1485518824	-0.4284578175	-0.9258688323	 0.1615
C	 1.7899035974	-0.9708235015	-1.7877987471	-0.011836
C	 2.5917413991	-1.6099448302	-2.8159282143	-0.229311
O	 1.888990865	-2.7475272645	-3.3369384859	-0.204412
C	 2.5160441117	-3.3901971933	-4.3442042156	 0.149711
N	 2.0100790811	-4.4161209121	-4.8645160096	-0.201575
C	 2.7402373043	-5.0450017965	-5.9443430878	-0.316111
H	-0.1190316249	 2.0479151677	-1.0256137438	 0.127906
H	-1.3431773542	 0.7787972367	-1.1660466639	 0.134117
H	-1.2189678751	 1.7267507045	 0.3284661248	 0.11664
H	 1.0208487186	 0.7317836375	 0.8110980784	 0.132222
H	-0.1935759604	-0.5225822233	 0.6743692315	 0.137555
H	 2.8033414448	-0.9006673738	-3.6292799776	 0.132418
H	 3.5579111393	-1.9307431216	-2.4001420341	 0.133826
H	 3.4743157729	-2.9390630557	-4.6508274707	 0.070701
H	 2.1158800154	-5.0710180224	-6.8448208377	 0.128302
H	 3.6896218026	-4.5438774807	-6.1970635034	 0.094046
H	 2.9612058387	-6.085910235	-5.6817220753	 0.128282
6.0253	15.8975	67.4084	92.1581	123.0016	180.8537	206.3788	227.5242	286.197	309.6823	324.1719	417.0806	435.6946	520.9567	629.6684	768.8224	783.1408	965.6092	979.1772	1009.8752	1021.7521	1078.4228	1080.6263	1103.3431	1141.3016	1152.0417	1179.8252	1240.4647	1256.4712	1286.2099	1350.4174	1386.5859	1409.5435	1428.6463	1450.7173	1470.8103	1480.4102	1495.1576	1497.0953	1505.2723	1505.5831	1783.357	2375.9622	2962.1341	2974.7908	2993.1758	3019.5021	3023.3951	3045.9701	3051.6656	3057.1024	3077.0113	3119.6338	3126.29
CCC#CCOC=NC	CCC#CCOC=NC	
InChI=1S/C7H11NO/c1-3-4-5-6-9-7-8-2/h7H,3,6H2,1-2H3	InChI=1S/C7H11NO/c1-3-4-5-6-9-7-8-2/h7H,3,6H2,1-2H3
