18
gdb 62982	2.24131	1.60455	1.26821	3.0788	75.69	-0.268	0.0254	0.2935	1062.2797	0.146678	-401.936566	-401.927965	-401.927021	-401.969384	33.199	
C	-0.1640553227	 1.580950786	-0.0862924889	-0.465075
C	 0.0138914747	 0.0722409852	-0.0478640051	 0.391392
O	-1.2146095143	-0.5846334075	 0.1860390251	-0.470889
C	 0.68721735	-0.6327277874	-1.2300016211	-0.062057
C	 2.1273247419	-0.2291612029	-1.373182209	-0.304734
C	 1.7586105026	-1.2370017147	-0.3266567917	-0.054108
C	 1.1524400685	-0.5389890246	 0.903514559	-0.230952
C	 2.0046719473	 0.3643503783	 1.6603920094	 0.280768
N	 2.6657452315	 1.1155303129	 2.2413948809	-0.345317
H	 0.7725555026	 2.1018290377	-0.2956631367	 0.139284
H	-0.8931150136	 1.8435898963	-0.8586216799	 0.130556
H	-0.5299644191	 1.9516747201	 0.8790715838	 0.121802
H	-1.6696721163	-0.1276475383	 0.9023170072	 0.282461
H	 0.1227194638	-1.1017556189	-2.0256027576	 0.103231
H	 2.6289032559	-0.6369426163	-2.2444104743	 0.125289
H	 2.4721069308	 0.7617282808	-1.0913628685	 0.128424
H	 2.1606098353	-2.241334162	-0.3111396684	 0.103967
H	 0.666960641	-1.2475632448	 1.5770305659	 0.125959
103.6695	136.0256	213.156	231.1108	261.9699	312.2988	378.5687	386.2331	401.3686	482.6865	551.3639	563.0429	638.5305	755.9391	801.1535	832.089	887.8019	951.8061	967.4909	982.6934	1000.3312	1012.1791	1064.6554	1073.2706	1093.7248	1114.8212	1131.6894	1162.537	1184.2176	1231.0099	1279.2477	1313.7819	1356.1229	1395.594	1414.172	1483.0899	1491.124	1500.7183	2343.8655	3032.1735	3099.7296	3100.8367	3124.021	3132.8438	3195.088	3201.2807	3213.308	3799.8906
CC1(O)C2CC2C1C#N	C[C@@]1(O)[C@H]2C[C@H]2[C@H]1C#N	
InChI=1S/C7H9NO/c1-7(9)5-2-4(5)6(7)3-8/h4-6,9H,2H2,1H3	InChI=1S/C7H9NO/c1-7(9)5-2-4(5)6(7)3-8/h4-6,9H,2H2,1H3/t4-,5+,6-,7-/m1/s1
