23
gdb 95842	2.25101	1.31101	1.062	0.5279	90.62	-0.2564	0.0565	0.313	1284.2121	0.206669	-351.154864	-351.145654	-351.14471	-351.1883	36.485	
C	 0.0193322357	 1.6012976922	-0.0070142978	-0.404048
C	 0.0324561016	 0.0706977486	-0.0466910176	 0.050328
C	 0.7589606668	-0.4616052559	-1.2943820827	-0.179529
C	 0.799044663	-1.995656558	-1.3314590321	-0.205957
C	 1.4251235156	-2.5710166452	-0.0554236205	-0.196926
C	 0.7023624135	-2.0646152341	 1.2182303479	-0.169309
C	 0.6632866358	-0.5157247985	 1.2266394436	-0.197323
C	-0.638055745	-2.6389088796	 1.3391770221	 0.355829
C	-1.7395857594	-3.1126200511	 1.4366575284	-0.506418
H	 1.038560761	 2.0035535194	 0.0411738187	 0.109366
H	-0.458156444	 2.0162358653	-0.9011793964	 0.109047
H	-0.5260064872	 1.9733586574	 0.8670456829	 0.109609
H	-1.0080626274	-0.280398207	-0.0893915214	 0.083681
H	 0.275146102	-0.0742272388	-2.1990399759	 0.087405
H	 1.7870655054	-0.0693523885	-1.3019155422	 0.08546
H	-0.2209479424	-2.3856555669	-1.4374746454	 0.108518
H	 1.3596440265	-2.3395310729	-2.207893524	 0.089344
H	 1.4133150251	-3.6651506059	-0.0766315216	 0.101171
H	 2.4763658368	-2.2611932926	 0.010560933	 0.091326
H	 1.279808832	-2.3939310442	 2.0920687239	 0.0974
H	 1.6964684291	-0.15279166	 1.3181467749	 0.088396
H	 0.1234468929	-0.1661285655	 2.1132292133	 0.099051
H	-2.7094732476	-3.5343937385	 1.530313199	 0.193578
101.8977	113.1475	190.4722	227.5523	256.7128	304.1749	317.029	377.8743	397.3281	436.6838	497.3804	570.2899	619.6559	628.865	676.602	759.2094	800.1947	857.7792	866.3112	882.0827	935.7312	972.7384	981.2971	996.9762	1043.8251	1073.8933	1104.5733	1115.8643	1153.5633	1160.6967	1225.8374	1257.9691	1281.8236	1304.5919	1333.8071	1340.3495	1346.6058	1372.8743	1380.3573	1394.5316	1397.2096	1414.2294	1477.7159	1480.387	1489.4167	1497.2183	1500.7021	1501.5289	2227.7608	2995.9612	3006.0327	3012.1491	3017.4216	3023.2902	3028.0761	3028.6416	3053.0085	3068.7819	3069.9062	3080.3811	3088.5092	3095.542	3504.3683
CC1CCCC(C1)C#C	C[C@H]1CCC[C@@H](C1)C#C	
InChI=1S/C9H14/c1-3-9-6-4-5-8(2)7-9/h1,8-9H,4-7H2,2H3	InChI=1S/C9H14/c1-3-9-6-4-5-8(2)7-9/h1,8-9H,4-7H2,2H3/t8-,9-/m0/s1
