17
gdb 64737	2.66059	1.27768	1.11071	3.9467	73.19	-0.2635	0.0078	0.2713	1150.5947	0.133724	-421.819905	-421.810788	-421.809844	-421.853975	33.132	
C	 0.0411303997	 1.5624675662	-0.0957302681	-0.452668
C	-0.014306464	 0.0381881998	-0.0362059573	 0.090259
C	-1.4413793808	-0.501796176	 0.2085913998	-0.41936
C	-2.0609263365	-0.0061389118	 1.4307732793	 0.320733
C	-2.5758465011	 0.4084089779	 2.4337740312	-0.435441
C	 0.755905435	-0.7195209438	-1.1432506579	-0.123976
O	 1.6873763305	-1.2555415457	-0.152235428	-0.244939
C	 1.0533382848	-0.5978577338	 0.8749797019	 0.448441
O	 1.3430374737	-0.600105567	 2.0263562067	-0.319869
H	 1.0603614468	 1.9143965177	-0.2797471959	 0.129102
H	-0.6021315555	 1.9389810588	-0.8985965037	 0.122644
H	-0.3051718308	 1.9892175353	 0.8483328356	 0.157425
H	-2.0619618787	-0.2252306176	-0.6546218291	 0.13683
H	-1.415869371	-1.5986230613	 0.230358129	 0.141507
H	-3.0233060414	 0.7638177229	 3.3289303038	 0.203384
H	 0.2181501319	-1.5274814926	-1.6454892153	 0.122046
H	 1.2806728174	-0.0971785692	-1.8713300018	 0.123882
65.1446	103.8262	146.6306	188.7437	218.1618	269.0979	323.5642	348.4892	361.5378	477.1406	538.0246	629.8037	654.9955	713.8346	756.0189	774.7665	873.7043	913.8751	946.9324	969.303	989.7809	999.4021	1099.933	1150.7159	1157.9644	1185.9174	1238.4906	1287.3964	1347.1419	1360.4026	1414.3548	1467.634	1493.3843	1496.6787	1518.2834	1938.5643	2243.002	3013.9484	3038.2257	3049.9813	3064.4042	3106.6299	3124.3146	3132.3085	3505.47
CC1(CC#C)COC1=O	C[C@@]1(CC#C)COC1=O	
InChI=1S/C7H8O2/c1-3-4-7(2)5-9-6(7)8/h1H,4-5H2,2H3	InChI=1S/C7H8O2/c1-3-4-7(2)5-9-6(7)8/h1H,4-5H2,2H3/t7-/m1/s1
