17
gdb 112658	2.33735	1.49322	1.31346	2.1165	64.42	-0.2684	0.0004	0.2688	1055.592	0.13509	-496.140455	-496.131756	-496.130812	-496.174227	31.551	
C	 0.3326487017	 1.4933973692	-0.2890150005	-0.407708
C	 0.0607756005	 0.0147084629	-0.027677076	-0.022747
O	 0.4126947077	-0.8071709611	-1.1328359824	-0.274975
C	 1.4557492981	-1.6833336288	-0.7648119392	 0.215598
C	 2.7711655829	-1.3368288621	-1.4642377556	-0.101251
O	 3.2827320624	-0.0895850179	-1.0449354956	-0.409601
O	 1.6385861248	-1.5650068234	 0.6466695673	-0.24294
C	 0.8879841084	-0.5330526022	 1.1270421648	 0.400747
O	 0.9232442685	-0.170330954	 2.2637662179	-0.331047
H	 1.3787453842	 1.6323480628	-0.5704858175	 0.148408
H	-0.3040920722	 1.8514725176	-1.1015897295	 0.129515
H	 0.1145078838	 2.0707809859	 0.6136359638	 0.139304
H	-1.0006434977	-0.1405646095	 0.2073995288	 0.118635
H	 1.1586794335	-2.7169313566	-0.9876068667	 0.100854
H	 3.4876215598	-2.1545708612	-1.2975845914	 0.105225
H	 2.576583138	-1.2645244231	-2.5382326206	 0.132009
H	 3.5762377456	-0.1901253385	-0.1326500475	 0.299974
71.1746	90.9587	143.536	234.4613	247.1841	259.1716	320.7116	393.2936	407.951	505.1152	629.8156	642.5078	715.2664	791.9806	833.6951	859.1898	898.7732	945.7042	1024.2383	1063.4726	1090.5122	1107.1956	1112.5143	1141.2784	1207.402	1241.8916	1326.8049	1356.5166	1372.8723	1376.6551	1396.4486	1409.0495	1416.4021	1482.2677	1485.8094	1507.1514	1897.9686	3002.2521	3020.9453	3027.6413	3052.237	3100.083	3131.4567	3144.7962	3811.3758
CC1OC(CO)OC1=O	C[C@H]1O[C@@H](CO)OC1=O	
InChI=1S/C5H8O4/c1-3-5(7)9-4(2-6)8-3/h3-4,6H,2H2,1H3	InChI=1S/C5H8O4/c1-3-5(7)9-4(2-6)8-3/h3-4,6H,2H2,1H3/t3-,4-/m1/s1
