17
gdb 46877	3.58992	1.43513	1.10231	4.3852	80.18	-0.2181	-0.0214	0.1968	1074.8233	0.138638	-417.990783	-417.983573	-417.982629	-418.022424	28.53	
N	-0.0027392868	 1.0991814282	 0.9633600295	-0.514912
C	-0.0131813397	 0.1608044958	 0.1036214782	 0.342296
O	 1.1368608513	-0.1440815342	-0.5894019318	-0.258116
C	 1.2580756953	-1.4213828785	-1.2127309523	-0.12012
C	 0.4832787283	-1.4731247969	-2.5046676231	-0.011535
C	-0.3272116531	-2.6867458373	-2.8492917933	-0.263091
N	-0.9633203472	-1.4465817126	-2.4186162157	-0.069157
C	-1.6227589033	-1.3189569027	-1.2012508133	-0.038268
C	-1.2515105341	-0.5910568646	-0.1331642574	-0.134583
H	 0.9348093643	 1.5012461856	 1.022286237	 0.216745
H	 2.326957408	-1.5521260874	-1.4014890476	 0.125014
H	 0.9306688357	-2.2125769391	-0.5295651976	 0.116943
H	 0.8904403661	-0.8715417259	-3.3146132447	 0.112532
H	-0.4819546112	-2.9601268488	-3.8886367785	 0.132637
H	-0.3059659833	-3.517700217	-2.1474268796	 0.12752
H	-2.5949192233	-1.8057148179	-1.1950228358	 0.116963
H	-1.9722517371	-0.4693917166	 0.666082946	 0.119132
88.5703	221.3696	253.9131	333.7495	376.857	390.1047	444.515	477.1954	633.154	704.8699	734.299	759.325	827.541	837.4956	874.2426	893.2593	946.8932	977.8972	1004.6304	1012.4533	1062.6164	1094.7357	1115.7959	1146.4832	1155.9431	1183.585	1242.8991	1293.0593	1322.4135	1360.1896	1393.3061	1438.9124	1442.7962	1491.6687	1508.0308	1667.5797	1712.9474	3045.0368	3100.7659	3106.3021	3135.036	3161.7997	3199.707	3211.7507	3469.3698
N=C1OCC2CN2C=C1	[NH][C]1OC[C@H]2CN2C=C1	
InChI=1S/C6H8N2O/c7-6-1-2-8-3-5(8)4-9-6/h1-2,5,7H,3-4H2	InChI=1S/C6H8N2O/c7-6-1-2-8-3-5(8)4-9-6/h1-2,5,7H,3-4H2/t5-,8?/m1/s1
