17
gdb 116288	1.92057	1.63386	0.94895	2.648	64.67	-0.2595	-0.0417	0.2177	1193.654	0.134638	-496.092237	-496.083328	-496.082384	-496.127117	31.149	
O	 0.0211995759	 1.3950828234	-0.3126517434	-0.420519
C	 0.0700509241	-0.0158041397	-0.2961611874	-0.08283
C	-1.3150686864	-0.6021118015	-0.0688351347	 0.040691
O	-2.1261575009	-0.2801594651	-1.1973442489	-0.254805
C	-3.1685505664	-1.2157422325	-1.1765518678	 0.020226
O	-2.5943296938	-2.4487208875	-0.7832007264	-0.265096
C	-1.4538553036	-2.157187035	 0.013243753	 0.013572
C	-0.2601023693	-2.9299253847	-0.5355321847	 0.12692
O	 0.7651887933	-3.0814013937	 0.0752626237	-0.241157
H	-0.5976588135	 1.646258264	-1.0075805546	 0.294435
H	 0.4857240245	-0.4209064681	-1.2311590992	 0.100551
H	 0.7369702442	-0.3102362747	 0.5186810298	 0.136801
H	-1.7477006332	-0.1529404674	 0.837184031	 0.094606
H	-3.9526855649	-0.917050431	-0.4589107669	 0.094177
H	-3.5876444358	-1.3144381497	-2.1813110113	 0.12845
H	-1.6053004847	-2.4670531143	 1.0545003501	 0.115288
H	-0.4244777096	-3.3471797426	-1.5529371822	 0.098689
45.2331	75.2654	118.1481	161.2903	221.2856	246.745	354.7992	391.179	415.2664	464.8988	527.1596	717.5418	756.97	839.4773	903.5838	979.233	1000.0475	1043.6625	1064.2118	1086.7516	1098.0704	1120.8881	1132.0793	1182.618	1222.2937	1242.7941	1273.7083	1293.4515	1339.7335	1357.6736	1392.9149	1401.7449	1432.2505	1436.9577	1488.9051	1542.6255	1831.1494	2903.0684	2952.1232	2990.6082	3004.7184	3037.8653	3097.9865	3103.6731	3806.7419
OCC1OCOC1C=O	OC[C@H]1OCO[C@H]1C=O	
InChI=1S/C5H8O4/c6-1-4-5(2-7)9-3-8-4/h1,4-5,7H,2-3H2	InChI=1S/C5H8O4/c6-1-4-5(2-7)9-3-8-4/h1,4-5,7H,2-3H2/t4-,5+/m0/s1
