18
gdb 59454	2.7531	1.16945	0.92849	5.2064	68.7	-0.2423	0.0189	0.2612	1275.0114	0.145875	-476.227739	-476.218184	-476.21724	-476.262487	35.042	
C	-0.0218449496	 1.5344662438	-0.1258911199	-0.411569
C	 0.0183043035	 0.0577667359	 0.2495949592	 0.079653
O	 0.5813192107	-0.1431892261	 1.5556689388	-0.421581
C	-1.3525068916	-0.5896012371	 0.1664062522	 0.031697
O	-1.7346568012	-1.1234961182	-1.10302502	-0.239186
C	-1.548025648	-2.0349575496	-0.0186521204	-0.045758
C	-0.4352642617	-3.0680318545	-0.1621821142	 0.349756
N	 0.5101287671	-3.0180819346	 0.8163697959	-0.519758
O	-0.468889882	-3.9047282848	-1.0404468339	-0.355636
H	 0.9773362857	 1.9726026772	-0.062761455	 0.131713
H	-0.3975598158	 1.6559367199	-1.1462066553	 0.14552
H	-0.6873008882	 2.0913523559	 0.5456425491	 0.110835
H	 0.6884673333	-0.4771939832	-0.4287821476	 0.117767
H	 0.0460818246	 0.3421657846	 2.1938148874	 0.287966
H	-2.1464220773	-0.0355491924	 0.6770727386	 0.08637
H	-2.4756322128	-2.4761457217	 0.3504130361	 0.119544
H	 0.6129451288	-2.1952564362	 1.3970965686	 0.274736
H	 1.2799681446	-3.6654989089	 0.7442160305	 0.257932
44.3909	101.0848	153.7039	190.1409	246.5891	264.4539	292.8304	317.3892	356.3709	453.9834	487.4583	499.6285	541.5415	621.465	663.8	748.4589	801.0254	875.7597	899.8385	942.374	980.8138	1051.671	1082.3614	1095.3636	1140.7599	1146.6804	1185.1419	1255.0334	1287.3033	1324.9351	1346.1014	1402.0266	1406.6778	1410.4796	1477.8727	1492.5758	1495.7318	1638.5791	1807.6476	3028.9869	3058.0131	3083.8436	3098.4191	3106.2082	3128.5633	3521.0083	3676.79	3799.6401
CC(O)C1OC1C(N)=O	C[C@@H](O)[C@H]1O[C@H]1C(=O)N	
InChI=1S/C5H9NO3/c1-2(7)3-4(9-3)5(6)8/h2-4,7H,1H3,(H2,6,8)	InChI=1S/C5H9NO3/c1-2(7)3-4(9-3)5(6)8/h2-4,7H,1H3,(H2,6,8)/t2-,3-,4-/m1/s1
