14
gdb 21231	7.62975	1.11265	0.98529	3.1081	60.06	-0.2418	-0.0698	0.172	1130.7857	0.106866	-411.969305	-411.961824	-411.96088	-412.002031	25.654	
C	-0.041058028	 1.4870426885	-0.1357609219	-0.312022
N	-0.0090127454	 0.0335235556	-0.2137771445	-0.282707
C	-1.2093348334	-0.5867799649	 0.3056248987	-0.232294
C	-1.2084416691	-2.0632447301	 0.0913991213	 0.415453
N	-0.3800235342	-2.7238918856	-0.6634669906	-0.150515
O	-0.7866447453	-4.0145568791	-0.5692905793	-0.139633
N	-1.8882454192	-4.076794512	 0.2748692308	 0.046286
N	-2.1415158383	-2.9104450279	 0.6675789758	-0.204172
H	 0.8704558478	 1.8930045224	-0.5815407987	 0.129473
H	-0.9092283882	 1.9487470189	-0.6391562056	 0.100281
H	-0.0648857761	 1.7968855763	 0.9152498653	 0.128054
H	 0.153618184	-0.2696491872	-1.167460036	 0.238232
H	-1.2784344418	-0.4001836507	 1.385561422	 0.146015
H	-2.1511112332	-0.1889387941	-0.1237552571	 0.117548
62.0475	85.2489	144.3372	244.4247	287.2496	338.7602	409.1785	667.6035	708.1387	723.8233	729.8537	790.9078	961.3404	995.2636	1005.8372	1063.9554	1097.3447	1148.9692	1159.5831	1194.3876	1257.0057	1272.6426	1398.6771	1461.5585	1480.9303	1487.4814	1495.9779	1510.1195	1521.1776	1603.4523	2902.9369	2947.5925	3037.0845	3058.8073	3115.2841	3539.7775
CNCC1=NON=N1	CNCc1nonn1	
InChI=1S/C3H6N4O/c1-4-2-3-5-7-8-6-3/h4H,2H2,1H3	InChI=1S/C3H6N4O/c1-4-2-3-5-7-8-6-3/h4H,2H2,1H3
