19
gdb 99722	1.91132	1.68137	0.96644	2.2169	73.71	-0.2627	-0.0076	0.2551	1234.0063	0.158389	-456.428963	-456.419079	-456.418135	-456.463916	36.036	
C	-0.3409161988	 0.8676887235	-0.6504485915	-0.382515
C	-0.2727212884	-0.4891688032	 0.0517089	-0.150707
N	 0.6649892159	-0.5046063679	 1.1916625474	-0.189314
C	 0.2434485323	-0.2541758638	 2.487638159	 0.437357
C	-1.2377630691	 0.0074651009	 2.7056626553	-0.504336
O	 0.99724191	-0.243448879	 3.4521883073	-0.380024
C	 2.0344257942	-0.7428829257	 0.8078443455	 0.486503
N	 2.9349736747	-0.7885388746	 1.8091455128	-0.558869
O	 2.3058526989	-0.8947123921	-0.3687055477	-0.406128
H	 0.6423286641	 1.1306650437	-1.0457045864	 0.151797
H	-1.0468286647	 0.821147766	-1.4856613795	 0.120229
H	-0.669704495	 1.661642278	 0.0279930004	 0.11443
H	-1.255070612	-0.7984025244	 0.4069931817	 0.108469
H	 0.0811143466	-1.2434236077	-0.650113844	 0.148376
H	-1.8261893977	-0.8986103058	 2.528425462	 0.153435
H	-1.3585744025	 0.3047450572	 3.7466807183	 0.151643
H	-1.6274473166	 0.792001231	 2.0529262321	 0.148164
H	 2.6377167371	-0.615103198	 2.7612521368	 0.289811
H	 3.8937069409	-0.920523748	 1.5386432008	 0.261679
69.406	83.9304	112.039	167.4849	212.2197	228.8777	303.7322	351.5504	407.2295	417.0726	427.5063	455.8903	565.7059	588.1767	626.7503	707.6871	712.3906	780.708	790.759	924.2781	968.1432	1026.5363	1053.9185	1101.9154	1129.0383	1167.8462	1202.9062	1299.1456	1356.2917	1376.2547	1399.2257	1408.4543	1425.2267	1465.3586	1486.9513	1488.5343	1495.2981	1509.0537	1573.5745	1744.5006	1806.7661	3041.2925	3052.4965	3100.7257	3111.8023	3121.9913	3134.6835	3156.7453	3165.2165	3503.5334	3717.8383
CCN(C(C)=O)C(N)=O	CCN(C(=O)C)C(=O)N	
InChI=1S/C5H10N2O2/c1-3-7(4(2)8)5(6)9/h3H2,1-2H3,(H2,6,9)	InChI=1S/C5H10N2O2/c1-3-7(4(2)8)5(6)9/h3H2,1-2H3,(H2,6,9)
