20
gdb 14094	3.10434	1.65883	1.464	1.6757	75.26	-0.2213	0.0825	0.3038	994.727	0.175812	-348.978215	-348.96959	-348.968646	-349.011305	32.082	
C	-0.0699318423	 1.4982974252	-0.0245330015	-0.40203
C	 0.0807936285	-0.006457893	-0.04996155	-0.076714
C	 1.4687867689	-0.6380019415	-0.1229104826	-0.368903
C	 0.6648031279	-0.7213106176	 1.1313702582	 0.455561
O	 1.0542809133	-0.0121745683	 2.3111903704	-0.308068
C	 0.4787764534	-1.0403519509	 3.1487562945	-0.082854
C	 0.1373582774	-1.9207928539	 1.9231927561	-0.115505
C	-1.3120212254	-2.3400368537	 1.7291712716	-0.408138
H	 0.6821785802	 1.950248128	 0.6277498074	 0.133284
H	 0.0391727264	 1.9271487065	-1.0264967382	 0.11281
H	-1.0535905342	 1.7890900383	 0.3603188389	 0.11383
H	-0.7033679896	-0.5406289599	-0.5827310165	 0.081272
H	 1.6104184915	-1.5349145754	-0.7185415527	 0.107267
H	 2.3204776188	 0.0356376754	-0.1080878957	 0.118191
H	 1.2108170755	-1.4432047159	 3.8570587826	 0.102877
H	-0.3950517222	-0.671327403	 3.7019958791	 0.097639
H	 0.7993135979	-2.788764274	 1.8434594282	 0.082143
H	-1.9851675806	-1.4800197335	 1.8066720842	 0.121788
H	-1.4657382314	-2.7994272959	 0.746732298	 0.118733
H	-1.610999514	-3.0739312271	 2.485358288	 0.116817
65.3259	135.1585	168.8978	188.3313	223.9966	246.4296	352.9481	403.0782	461.8804	525.8432	573.5986	743.1807	794.4278	865.1785	873.9446	899.0798	913.3927	936.011	991.2362	1016.0421	1036.0801	1081.0549	1107.7233	1126.5987	1131.3695	1152.638	1179.3256	1188.0868	1211.8264	1263.4814	1306.3805	1343.4078	1377.2332	1408.4792	1411.4769	1427.356	1480.3928	1492.5188	1495.568	1497.7192	1505.5682	1526.7996	3010.642	3029.8623	3031.6026	3049.4155	3069.0475	3089.6957	3095.1306	3104.9007	3111.3596	3117.0516	3129.401	3205.2192
CC1CC11OCC1C	C[C@H]1C[C@]21OC[C@H]2C	
InChI=1S/C7H12O/c1-5-3-7(5)6(2)4-8-7/h5-6H,3-4H2,1-2H3	InChI=1S/C7H12O/c1-5-3-7(5)6(2)4-8-7/h5-6H,3-4H2,1-2H3/t5-,6+,7+/m0/s1
