22
gdb 93271	2.20035	1.61298	1.19016	3.6046	81.57	-0.2341	0.0385	0.2726	1153.5987	0.194242	-404.412861	-404.403168	-404.402224	-404.446632	37.048	
C	-0.8486177576	 1.0788864238	-0.0599406586	-0.41792
C	 0.1334348702	-0.0886118921	-0.1158442067	 0.001572
C	 1.3330050034	 0.1522579774	-1.0611096466	-0.187545
N	 2.326725781	-0.7696215824	-0.5447323653	-0.320474
C	 2.1137988829	-1.1740804053	 0.7434969156	 0.413414
O	 2.8461273169	-1.8854514019	 1.3987420284	-0.401608
C	 0.7950771139	-0.5274591704	 1.2213687803	 0.152326
C	 1.1885963891	 0.6566303632	 2.1288543138	-0.429043
C	-0.0375636178	-1.5395135423	 2.0121017481	-0.434317
H	-0.3660477477	 2.0013955559	 0.276918592	 0.121173
H	-1.2762955586	 1.2715921393	-1.0499135908	 0.115293
H	-1.6794978088	 0.8658963903	 0.6200702922	 0.121929
H	-0.3991594594	-0.9669826724	-0.502106757	 0.081906
H	 1.083632106	-0.0668817289	-2.1046571543	 0.110543
H	 1.6771393553	 1.1966833799	-1.0140574011	 0.101158
H	 3.202580164	-0.9671253257	-1.0023472168	 0.248417
H	 1.7667543843	 1.4156869957	 1.591128822	 0.113429
H	 0.3011715152	 1.1412800283	 2.547109272	 0.114433
H	 1.8042212229	 0.2941883283	 2.9567611804	 0.136995
H	 0.5508969926	-1.9367377201	 2.8435163445	 0.137814
H	-0.9430820291	-1.0747386677	 2.4167766368	 0.106595
H	-0.3393760388	-2.384054973	 1.3841271908	 0.113909
83.7865	170.269	198.8635	217.4399	225.4908	261.5632	274.0398	284.5487	295.8567	360.421	466.4213	513.3084	529.9765	573.5531	674.128	709.798	761.1095	807.3115	898.4747	950.2122	957.6754	964.8809	1016.1599	1062.6102	1073.5494	1106.1691	1142.7398	1181.5657	1193.7776	1241.0265	1253.2472	1285.7755	1339.9944	1356.2324	1376.6515	1393.8783	1408.5267	1417.7382	1449.4837	1479.6264	1488.9477	1496.043	1498.1531	1506.5502	1510.8231	1534.4405	1821.3249	2984.2204	3020.2202	3031.6888	3033.4497	3036.9824	3061.3153	3096.4534	3098.535	3101.8355	3109.4475	3115.9936	3119.7552	3638.2448
CC1CNC(=O)C1(C)C	C[C@H]1CNC(=O)C1(C)C	
InChI=1S/C7H13NO/c1-5-4-8-6(9)7(5,2)3/h5H,4H2,1-3H3,(H,8,9)	InChI=1S/C7H13NO/c1-5-4-8-6(9)7(5,2)3/h5H,4H2,1-3H3,(H,8,9)/t5-/m0/s1
