17
gdb 10408	2.57667	1.8974	1.36042	2.9771	67.99	-0.2696	0.0198	0.2894	958.8784	0.141898	-363.857771	-363.849517	-363.848573	-363.890665	29.474	
C	 0.0701515404	 1.5186295444	-0.1489289905	-0.400757
C	-0.0494645109	 0.0076518528	 0.0614758071	-0.246016
C	-1.4993054742	-0.5079346825	 0.0871018284	 0.114906
C	-2.1867625101	-0.569678494	-1.3117882222	-0.104674
O	-2.0284264979	-1.9966277619	-1.3697477885	-0.262869
C	-1.6171594583	-2.0597612823	 0.0056662121	-0.115054
C	-2.2781302794	 0.121443322	 1.145384705	 0.249139
N	-2.8938454765	 0.6194629536	 1.9880224425	-0.345472
H	 1.1210477829	 1.819354458	-0.1758676564	 0.126095
H	-0.3876332724	 1.830758731	-1.0937354173	 0.122553
H	-0.4186936182	 2.0704049137	 0.6594492661	 0.147231
H	 0.4685666104	-0.5307254273	-0.7407042137	 0.118243
H	 0.4375083089	-0.2795679158	 1.0007276971	 0.119088
H	-3.2401140794	-0.2662891644	-1.3136321808	 0.122275
H	-1.6536932073	-0.0579335603	-2.1200986085	 0.116935
H	-0.6769543641	-2.6064746708	 0.1375878493	 0.116678
H	-2.389824064	-2.4903477859	 0.6532428502	 0.121697
86.3167	117.0034	160.88	192.9981	213.2249	267.5872	358.4279	405.8356	545.7647	565.931	619.0459	793.2447	832.1068	887.1633	967.0603	978.9575	985.2478	1019.106	1048.9857	1057.3844	1133.1598	1161.5523	1163.3596	1199.9718	1256.4337	1309.752	1324.4887	1361.4476	1379.1767	1417.5672	1485.1341	1499.168	1505.5603	1512.245	1535.1955	2351.2508	3021.3571	3030.4495	3034.5595	3041.2372	3072.0732	3078.4037	3080.5123	3109.628	3120.2195
CCC1(COC1)C#N	CCC1(COC1)C#N	
InChI=1S/C6H9NO/c1-2-6(3-7)4-8-5-6/h2,4-5H2,1H3	InChI=1S/C6H9NO/c1-2-6(3-7)4-8-5-6/h2,4-5H2,1H3
