17
gdb 84176	3.47614	1.26931	1.0397	3.6219	75.16	-0.254	-0.0746	0.1794	1154.452	0.136214	-417.998875	-417.990861	-417.989917	-418.031629	29.792	
C	-0.2766048018	 1.4836138239	-0.0239536183	-0.391195
C	 0.0043145955	-0.0088259615	 0.1554271941	 0.016791
N	 0.6032668543	-0.6017421586	-1.0580624219	-0.245511
C	 1.635647803	-1.2625759226	-0.6964333372	 0.220561
C	 2.4826171651	-1.9562807588	-1.7095411218	 0.112087
O	 3.5062692549	-2.534552936	-1.451239887	-0.237505
N	 1.9657365483	-1.3305212098	 0.6893322397	-0.139368
C	 2.3991625665	 0.0064156586	 1.1787577504	-0.254225
C	 0.9755080137	-0.3972186729	 1.2790862908	-0.044336
H	 0.6484614161	 2.0414805491	-0.1946578647	 0.122288
H	-0.9354035168	 1.6441262971	-0.8809958428	 0.136693
H	-0.7624261276	 1.8892423344	 0.8685561314	 0.12269
H	-0.9540382501	-0.5194576879	 0.3221326812	 0.104962
H	 2.0766720075	-1.8693378866	-2.7371067506	 0.102928
H	 3.0308862091	-0.0230629598	 2.0603073161	 0.134495
H	 2.6880091353	 0.7368953976	 0.4281833003	 0.131006
H	 0.574611767	-0.6821448662	 2.2460118602	 0.107638
81.6219	160.5152	196.6227	207.7008	228.7531	287.0222	404.2685	469.5089	533.9249	637.5735	704.0807	734.1398	785.4966	819.429	872.3952	899.9831	954.6033	1004.9695	1036.8829	1065.1168	1071.5964	1111.1729	1125.6067	1142.7039	1162.5083	1223.0209	1295.2471	1329.5167	1350.7013	1375.029	1392.6301	1409.0684	1488.4858	1495.552	1503.0039	1665.1416	1818.8791	2943.1492	3013.1739	3045.3949	3117.1076	3120.3145	3127.4591	3167.7381	3212.2444
CC1N=C(C=O)N2CC12	C[C@H]1N=C(C=O)N2C[C@@H]12	
InChI=1S/C6H8N2O/c1-4-5-2-8(5)6(3-9)7-4/h3-5H,2H2,1H3	InChI=1S/C6H8N2O/c1-4-5-2-8(5)6(3-9)7-4/h3-5H,2H2,1H3/t4-,5+,8?/m1/s1
