23
gdb 107614	2.39094	1.46899	1.09513	1.4967	85.2	-0.2598	0.0726	0.3324	1210.8491	0.206694	-388.295659	-388.286442	-388.285498	-388.329189	36.034	
C	-0.0914218817	 1.5565192169	-0.1032511925	-0.400291
C	 0.0120920881	 0.0303135905	-0.0399087088	-0.020578
C	 0.8202686798	-0.5852620248	-1.2097234866	-0.23849
C	 1.3564546383	-1.934952842	-0.686561841	-0.224441
C	 1.5150775363	-1.7273192723	 0.8124419996	-0.092351
C	 2.1848485501	-0.4597439152	 1.2839914476	-0.328496
C	 0.6759526102	-0.532903569	 1.2228459412	 0.391658
C	-0.1024314238	-0.5507700842	 2.5085414312	-0.186308
O	-0.2473924615	 0.7826947909	 2.9932132715	-0.41663
H	 0.9033552322	 2.0147478073	-0.0674016322	 0.109016
H	-0.574259877	 1.877669936	-1.03305717	 0.09886
H	-0.6636635164	 1.9444643636	 0.7419225835	 0.129737
H	-1.0069508021	-0.3846476437	-0.0671077111	 0.061039
H	 0.2165710366	-0.6941052421	-2.1152048441	 0.093442
H	 1.6512980654	 0.0797191493	-1.4712370674	 0.099684
H	 0.6254595052	-2.7334685924	-0.8635163901	 0.095459
H	 2.2858937687	-2.2359641868	-1.1826868554	 0.094768
H	 1.5778661449	-2.6021125366	 1.452335012	 0.074419
H	 2.6346921207	-0.4739165065	 2.2711110104	 0.108157
H	 2.7187221657	 0.1597796683	 0.570896483	 0.107592
H	-1.0906268386	-1.008451239	 2.3341886907	 0.080677
H	 0.4232027522	-1.1773321142	 3.2472880844	 0.078603
H	-0.8284354133	 0.758727496	 3.7594857139	 0.284473
82.109	138.8052	187.7685	223.3362	251.2681	264.7784	309.6031	318.1919	375.4256	431.6216	494.7259	585.7017	632.8992	686.2155	812.3579	840.1267	877.1772	909.7813	934.2449	946.1236	955.5502	987.111	1015.3608	1044.3481	1051.3782	1061.9587	1080.2405	1096.1163	1136.8745	1139.6324	1194.3943	1222.6905	1237.4616	1244.2053	1273.1908	1302.7633	1327.2143	1340.218	1345.8933	1372.1561	1408.8888	1409.573	1464.1272	1489.2948	1490.2474	1495.9993	1504.7646	1509.6794	1515.9196	2953.3967	2981.6549	2987.2029	3027.6608	3029.9266	3038.505	3065.6157	3087.1792	3091.8942	3129.2577	3130.2632	3152.811	3209.5993	3823.7164
CC1CCC2CC12CO	C[C@H]1CC[C@H]2C[C@@]12CO	
InChI=1S/C8H14O/c1-6-2-3-7-4-8(6,7)5-9/h6-7,9H,2-5H2,1H3	InChI=1S/C8H14O/c1-6-2-3-7-4-8(6,7)5-9/h6-7,9H,2-5H2,1H3/t6-,7-,8+/m0/s1
