20
gdb 93901	2.70738	1.52974	1.21694	3.4186	74.47	-0.2379	0.0615	0.2993	1091.3697	0.172672	-440.265981	-440.257817	-440.256872	-440.298404	32.419	
C	-0.0217958288	 1.5099081502	-0.039332954	-0.404474
C	 0.0323870131	-0.0108601553	 0.0065516334	 0.133007
O	 0.6196184677	-0.4488235517	-1.2083812514	-0.261953
C	 0.7909955122	-1.8544535655	-1.2671971957	-0.103659
C	 1.8952577597	-2.3315448349	-0.3164016519	 0.129488
O	 3.1825704085	-2.0282473787	-0.8135934106	-0.438697
C	 1.6910438387	-1.70926996	 1.0693659696	-0.085373
N	 2.2568284396	-0.3502379116	 1.179290582	-0.338917
C	 0.7986622964	-0.5280954205	 1.214020149	-0.037501
H	 0.9931821661	 1.9149583598	-0.0627169106	 0.137339
H	-0.553330016	 1.8405936094	-0.9352287619	 0.125211
H	-0.5397515081	 1.90501771	 0.8401959167	 0.108376
H	-0.9933724696	-0.4186943195	 0.0765001262	 0.062485
H	-0.1574635257	-2.3687910059	-1.0323233745	 0.075866
H	 1.0737247914	-2.0905126105	-2.2963486348	 0.11434
H	 1.83727488	-3.4235905974	-0.2383390525	 0.078182
H	 3.3243742506	-1.0992810697	-0.5793446079	 0.292227
H	 1.811646068	-2.3693565565	 1.9236991215	 0.089352
H	 2.6282498216	-0.1894020922	 2.1103044889	 0.238023
H	 0.2914497046	-0.3863494195	 2.1669276287	 0.086679
89.0477	199.7468	217.8985	254.6952	288.2589	336.1198	377.6977	447.3228	475.8709	507.3688	570.5876	680.7843	753.3759	771.1693	817.0257	873.1156	889.0247	922.3027	947.2926	954.6169	1030.3996	1040.383	1094.2283	1104.3611	1124.0452	1140.7654	1165.2916	1166.7076	1214.8355	1251.6748	1284.7107	1321.7034	1339.3005	1352.6438	1365.8861	1392.0972	1405.7933	1410.2001	1453.1036	1456.0336	1481.6548	1484.3333	1501.3545	2929.9193	2954.6395	3043.9231	3045.5057	3098.9677	3118.0605	3121.8841	3131.7285	3145.4256	3522.2392	3727.1365
CC1OCC(O)C2NC12	C[C@H]1OC[C@@H](O)[C@H]2N[C@@H]12	
InChI=1S/C6H11NO2/c1-3-5-6(7-5)4(8)2-9-3/h3-8H,2H2,1H3	InChI=1S/C6H11NO2/c1-3-5-6(7-5)4(8)2-9-3/h3-8H,2H2,1H3/t3-,4-,5+,6-/m1/s1
