20
gdb 73583	2.37478	1.86222	1.45568	1.5581	77.29	-0.2241	0.0744	0.2986	991.8463	0.173097	-403.11073	-403.103201	-403.102256	-403.142188	31.317	
O	-0.0966403907	 1.3714025094	-0.0591304124	-0.495007
C	 0.0436247866	-0.0340398551	-0.0079367103	 0.428576
C	 0.8072352989	-0.6464074109	-1.1946065855	-0.272634
C	-0.3169972196	-1.1295164733	-2.1397824284	-0.196858
C	-1.4074998084	-1.6835783403	-1.1899934128	-0.237051
C	-1.3620457953	-0.7205465396	 0.0068935542	-0.021925
C	-1.0582014806	-1.2240079728	 1.4328104034	-0.069876
N	 0.1727878237	-2.0490933519	 1.3487363519	-0.340716
C	 0.2772106116	-0.572850832	 1.429987574	-0.144934
H	 0.7853682546	 1.7572398003	-0.0172002246	 0.273806
H	 1.4808872326	 0.0757771792	-1.6672417627	 0.077275
H	 1.3968929357	-1.5008931077	-0.8518995495	 0.118061
H	-0.7152988414	-0.274227701	-2.6989449994	 0.10148
H	 0.0267717569	-1.866466278	-2.8719147361	 0.090024
H	-2.390336147	-1.7359053593	-1.6666080392	 0.088319
H	-1.134323277	-2.6914799729	-0.8637526351	 0.113405
H	-2.148064425	 0.0370284287	 0.0027617055	 0.084055
H	-1.759957446	-1.3686174561	 2.2451355809	 0.088919
H	 0.3548234108	-2.4178312943	 2.2813699391	 0.229382
H	 0.8235959795	-0.0862192924	 2.2299681771	 0.0857
156.4802	177.8654	276.2687	303.4925	316.728	382.5781	471.3464	503.4858	559.0934	609.6379	666.3413	752.8986	828.8017	830.8183	848.526	856.3112	904.7159	917.4591	933.7756	982.609	996.4126	1006.1927	1028.7179	1058.9434	1084.6545	1105.2843	1114.5741	1139.768	1169.7698	1200.8664	1239.2609	1247.0672	1281.2152	1310.5376	1322.7185	1336.7772	1345.2734	1348.4477	1354.937	1391.8484	1466.7809	1487.5325	1500.2774	3033.6014	3048.8941	3055.2594	3081.0152	3093.4804	3104.6783	3110.5137	3173.4021	3189.8601	3476.7376	3796.2216
OC12CCCC1C1NC21	O[C@]12CCC[C@H]1[C@H]1N[C@@H]21	
InChI=1S/C7H11NO/c9-7-3-1-2-4(7)5-6(7)8-5/h4-6,8-9H,1-3H2	InChI=1S/C7H11NO/c9-7-3-1-2-4(7)5-6(7)8-5/h4-6,8-9H,1-3H2/t4-,5+,6+,7+/m0/s1
