25
gdb 60063	3.0048	0.94053	0.91254	1.2889	88.77	-0.256	0.0646	0.3206	1483.2515	0.227367	-389.489031	-389.478478	-389.477533	-389.524344	40.258	
C	 0.1733064768	 1.6046843921	-0.1598569873	-0.39767
C	 0.1249350157	 0.0758054569	-0.1442420009	 0.12927
O	 0.8901423586	-0.45055356	 0.9408572771	-0.424932
C	-1.3162861041	-0.4547295123	-0.1480731926	-0.28871
C	-1.480225985	-1.9750400598	-0.030255284	 0.385221
C	-0.6690318372	-2.7274713614	-1.0896118353	-0.453111
C	-1.2976144943	-2.6064658903	 1.3897580692	-0.23587
C	-2.6051689748	-3.4148416773	 1.1830249925	-0.220819
C	-2.9652651757	-2.4663757192	 0.0089313769	-0.258825
H	 1.2102415516	 1.9514048403	-0.1515577777	 0.12154
H	-0.322876405	 2.0097126957	-1.0480578533	 0.113968
H	-0.3330995772	 2.0183465868	 0.7214883516	 0.104063
H	 0.6438034545	-0.2962237075	-1.0350904841	 0.090752
H	 0.4712401306	-0.1650199547	 1.7603070787	 0.275658
H	-1.8704463417	 0.0248245611	 0.6733159257	 0.075975
H	-1.8006897505	-0.1142990322	-1.0746824784	 0.092971
H	 0.4058339397	-2.5958545491	-0.9334534574	 0.130584
H	-0.8768959973	-3.8019979238	-1.0537128762	 0.108219
H	-0.9167338906	-2.3780605303	-2.0993381805	 0.104094
H	-0.3739242304	-3.1618474976	 1.5671624357	 0.099701
H	-1.4063446505	-1.8607517073	 2.1837078181	 0.075217
H	-2.4164141508	-4.4391212428	 0.8509807067	 0.101645
H	-3.3053460736	-3.4552503361	 2.0206762338	 0.092527
H	-3.6474660897	-1.6692542721	 0.321781946	 0.089283
H	-3.3598291092	-2.9163616991	-0.9070449042	 0.089249
55.8941	102.2143	127.6973	175.6674	233.6895	253.3283	266.7756	281.6658	306.2033	357.9088	373.0123	407.2474	465.416	491.6779	661.1984	722.1454	788.7962	840.5174	869.7952	880.2835	923.4536	929.6692	935.2379	944.0162	982.4641	994.0408	1027.7204	1054.4615	1092.5992	1125.8949	1157.3703	1181.1369	1206.1116	1215.2066	1241.3001	1258.0511	1276.704	1297.5706	1313.0284	1322.7517	1343.2011	1387.3575	1403.0664	1407.9799	1424.5363	1470.5578	1475.604	1483.7753	1491.1026	1494.1594	1495.9524	1507.5894	1509.9071	2987.7454	3022.3798	3023.5841	3026.2956	3040.5615	3047.6036	3050.2572	3061.3684	3087.3473	3087.6037	3092.7588	3100.5593	3106.4763	3116.3126	3116.6598	3800.1932
CC(O)CC1(C)CCC1	C[C@@H](O)CC1(C)CCC1	
InChI=1S/C8H16O/c1-7(9)6-8(2)4-3-5-8/h7,9H,3-6H2,1-2H3	InChI=1S/C8H16O/c1-7(9)6-8(2)4-3-5-8/h7,9H,3-6H2,1-2H3/t7-/m1/s1
