17
gdb 125977	3.73946	1.2359	1.03118	3.1107	75.34	-0.2264	-0.0011	0.2253	1159.7964	0.136502	-417.972806	-417.964947	-417.964003	-418.005639	29.491	
C	 0.1837294824	 1.4669340196	-0.540038524	-0.403226
C	-0.0483422894	 0.052887083	-0.0643910827	 0.020397
C	 1.0782886396	-0.929552068	-0.007250779	-0.260237
N	 0.4662992291	-0.4279483904	 1.2177179093	-0.151234
C	 1.1629195779	 0.3732972134	 2.1088962639	 0.43065
N	 0.6629533967	 1.510661451	 2.5505639985	-0.230263
O	 1.580672751	 1.9711657268	 3.5012623595	-0.166309
C	 2.5892892263	 1.0961746868	 3.5917134776	 0.0949
C	 2.4042019774	 0.0557476848	 2.7453207835	-0.34498
H	 1.2175828511	 1.7827234837	-0.3803316201	 0.125861
H	-0.0354697184	 1.532919756	-1.6108510588	 0.118636
H	-0.4628260889	 2.1697649268	-0.0078399862	 0.151411
H	-1.0394249776	-0.3413478246	-0.2811226242	 0.101871
H	 0.9151970606	-1.9837981365	-0.2137382717	 0.122372
H	 2.0671184728	-0.5569137238	-0.2683747101	 0.121224
H	 3.3648175552	 1.3443601526	 4.3004070435	 0.149022
H	 3.0286837142	-0.8076502212	 2.5909631408	 0.119904
65.27	132.	165.3719	216.4809	301.0676	384.131	414.7758	524.9491	585.1047	596.3705	733.5107	787.6903	810.9401	866.4172	877.1995	908.8496	915.3304	937.5066	984.7904	1038.7758	1053.6504	1081.6591	1127.0957	1140.5318	1161.323	1168.6232	1195.4013	1259.8351	1354.8178	1402.0772	1422.9977	1438.3872	1484.1885	1492.5462	1508.9198	1523.0714	1614.2403	3044.2842	3098.123	3111.8217	3119.6041	3135.0015	3187.1856	3257.6345	3287.7426
CC1CN1C1=NOC=C1	C[C@H]1CN1c1nocc1	
InChI=1S/C6H8N2O/c1-5-4-8(5)6-2-3-9-7-6/h2-3,5H,4H2,1H3	InChI=1S/C6H8N2O/c1-5-4-8(5)6-2-3-9-7-6/h2-3,5H,4H2,1H3/t5-,8?/m0/s1
