13
gdb 10239	2.35819	2.17116	1.13438	6.2152	73.54	-0.2048	-0.0151	0.1896	972.2505	0.095036	-357.643536	-357.635115	-357.634171	-357.675999	31.041	
N	 0.034670329	 1.3454411378	 0.1522472699	-0.573617
C	 0.0008584452	-0.0119088625	-0.0006988754	 0.382615
N	 1.213880792	-0.6229324969	-0.1577726883	-0.566246
H	 1.1999471701	-1.6331369606	-0.1350336279	 0.285498
H	 1.9932847907	-0.2072113416	 0.3299163333	 0.263981
C	-1.1954808929	-0.7143095261	 0.0014235611	-0.093554
C	-2.4356811746	-0.0320544289	 0.0125287173	 0.186434
C	-3.4734730294	 0.5840599005	 0.0251387544	-0.416172
C	-1.1407314335	-2.1308757008	-0.0009457996	 0.181464
N	-1.0265354255	-3.2871100029	-0.0076928924	-0.378672
H	 0.7696436079	 1.8363913909	-0.3344041112	 0.262783
H	-0.8691856973	 1.7962521475	 0.1168719811	 0.272872
H	-4.3997420319	 1.1024009936	 0.0385293377	 0.192616
121.5542	133.0592	155.5675	182.4646	384.0832	399.769	417.6718	426.231	449.3094	489.6548	532.5768	562.0073	594.6359	600.4251	608.5508	686.1127	692.9817	733.4409	1059.6691	1120.6407	1217.4798	1258.0839	1490.0555	1586.5114	1644.7434	1681.1212	2209.7109	2309.4129	3502.2223	3559.4122	3564.0168	3670.7413	3672.2397
NC(=[NH2+])[C-](C#C)C#N	NC(=[NH2])[C](C#C)C#N	
InChI=1S/C5H4N3/c1-2-4(3-6)5(7)8/h1H,(H3,7,8)/q-1/p+1	InChI=1S/C5H5N3/c1-2-4(3-6)5(7)8/h1H,7-8H2
