15
gdb 61048	3.41465	1.12887	1.02042	1.7855	63.52	-0.2645	-0.0544	0.2101	1155.8684	0.109468	-494.892737	-494.884168	-494.883224	-494.926755	30.218	
O	 0.0336451212	 1.4395256111	 0.1687939716	-0.434623
C	 0.0153465807	 0.0505114677	 0.0167016994	 0.028468
C	 0.7945773969	-0.3596729556	-1.221619045	 0.14579
O	 1.3371964315	 0.4601322976	-1.9188054943	-0.25046
C	 0.5968180277	-0.6455625382	 1.2531133194	-0.039148
O	 1.9541715437	-0.2449339388	 1.524199784	-0.287555
C	 1.6235669366	 0.4309113016	 2.7585909149	-0.184384
C	 0.1697557811	-0.0263287502	 2.6028995165	 0.374082
O	-0.8343963461	 0.030403382	 3.2369685042	-0.268534
H	 0.6048756472	 1.7727698767	-0.5421614496	 0.302338
H	-1.0182772768	-0.3212294567	-0.1042591887	 0.11508
H	 0.8357474182	-1.4445480023	-1.444267646	 0.105961
H	 0.4827011877	-1.7365787284	 1.183321609	 0.109488
H	 2.1612631242	 0.0275154528	 3.6245845326	 0.135726
H	 1.7646618763	 1.5159926106	 2.696244222	 0.147771
66.3082	92.8722	125.8255	150.205	270.4857	276.8358	327.9157	427.316	456.3762	532.9598	654.1762	708.4917	734.5482	818.7405	854.0124	906.7006	972.4152	1005.5167	1025.4835	1065.6559	1077.2871	1137.8521	1165.7337	1213.576	1262.2441	1290.2657	1305.9278	1345.3761	1400.0647	1432.7285	1473.3347	1817.8175	1935.5883	2938.5268	2960.9339	3017.7894	3032.5327	3085.8265	3684.6172
OC(C=O)C1OCC1=O	O[C@@H](C=O)[C@H]1OCC1=O	
InChI=1S/C5H6O4/c6-1-3(7)5-4(8)2-9-5/h1,3,5,7H,2H2	InChI=1S/C5H6O4/c6-1-3(7)5-4(8)2-9-5/h1,3,5,7H,2H2/t3-,5+/m0/s1
