16
gdb 66417	3.28543	1.22667	1.021	1.9536	72.45	-0.2454	-0.0345	0.2109	1153.1713	0.122066	-437.877911	-437.869374	-437.868429	-437.91136	30.831	
C	-0.2915761207	 1.4166389991	-0.1226154891	-0.515854
C	-0.0118557309	-0.045382622	 0.023383545	 0.177473
C	 0.4829113762	-1.1216690812	-0.9463108034	-0.089841
C	 1.2644378542	-1.8620953903	 0.1478552068	-0.369277
C	 0.782393641	-0.74936057	 1.1266105922	 0.394969
O	 1.0763558055	-0.4422022071	 2.2419671317	-0.293143
N	-0.8929664579	-1.1024312994	-0.5168815893	-0.106838
C	-1.9708122554	-0.8666715872	-1.3559716463	 0.13372
O	-2.08178339	-1.3109766865	-2.4726410613	-0.289458
H	 0.6125696227	 1.9942864671	 0.0894824682	 0.147756
H	-0.6296185686	 1.6572765827	-1.1350262868	 0.144078
H	-1.0634950254	 1.7399237323	 0.583260233	 0.150207
H	 0.7335058043	-0.9975896028	-1.9913455779	 0.137832
H	 0.9544905671	-2.8875884915	 0.3548696902	 0.143679
H	 2.351264861	-1.8136505558	 0.0340676916	 0.140583
H	-2.7653123631	-0.2906988472	-0.8467362246	 0.094115
78.2566	120.7444	164.4359	195.7056	243.2823	257.71	277.7424	414.2998	510.8399	530.7442	635.0796	671.3788	704.1566	771.9808	846.596	906.9374	964.7449	981.7162	991.9871	1032.287	1046.8877	1091.4953	1133.6245	1160.4277	1223.5993	1259.7915	1335.5771	1403.4652	1417.7462	1430.0707	1449.8714	1477.6462	1494.3071	1791.1656	1899.907	2966.6945	3040.3777	3072.5481	3107.1478	3119.3207	3136.5068	3221.7927
CC12C(CC1=O)N2C=O	C[C@@]12[C@@H](CC1=O)N2C=O	
InChI=1S/C6H7NO2/c1-6-4(2-5(6)9)7(6)3-8/h3-4H,2H2,1H3	InChI=1S/C6H7NO2/c1-6-4(2-5(6)9)7(6)3-8/h3-4H,2H2,1H3/t4-,6-,7?/m1/s1
