17
gdb 27286	3.09588	1.63888	1.09431	2.8615	76.18	-0.1637	0.0529	0.2165	1071.514	0.138966	-418.022536	-418.014733	-418.013789	-418.05489	29.609	
N	 0.033392457	 1.4462925036	 0.0547353442	-0.618581
C	 0.0145223977	 0.0284533154	 0.0257689328	 0.046333
C	-1.0556867561	-0.8157216163	-0.1086181127	 0.372593
O	-2.3887402837	-0.7155356724	-0.39919715	-0.2924
C	-2.9286662677	-2.0311315141	-0.1728308585	-0.101392
C	-1.7360985821	-3.013393308	-0.3185222322	-0.200422
N	-0.6546819681	-2.1169200269	 0.0278371753	-0.035242
C	 0.7124863712	-2.1512793726	 0.1959369576	-0.158144
C	 1.1410527162	-0.8424857857	 0.2270618981	-0.181253
H	 0.6478482057	 1.8220919071	-0.6605467364	 0.236043
H	-0.8930648301	 1.8200085379	-0.1163333575	 0.238415
H	-3.340103867	-2.0801516309	 0.843108169	 0.119297
H	-3.7265736692	-2.2038418402	-0.896658362	 0.124325
H	-1.8194943888	-3.8615416852	 0.3665016591	 0.125755
H	-1.6361855324	-3.395795846	-1.3431007798	 0.121618
H	 1.2455844468	-3.0778262067	 0.3272084853	 0.113251
H	 2.1535270606	-0.514709749	 0.4107376877	 0.089804
106.9024	133.6306	178.9805	243.8343	260.2745	323.0946	513.6362	592.3794	606.1507	620.8386	634.1369	674.8994	756.2878	781.8265	805.3087	847.2982	883.2023	945.7869	1009.9528	1063.7695	1067.5929	1109.3621	1138.4167	1203.9589	1241.0361	1253.6985	1264.4049	1312.0436	1375.6746	1382.4449	1423.7502	1488.9863	1507.7168	1515.6398	1533.3949	1648.4733	1695.615	3012.34	3028.2675	3086.814	3123.4756	3241.1012	3275.7965	3498.1509	3588.4739
NC1=C2OCCN2C=C1	Nc1c2OCCn2cc1	
InChI=1S/C6H8N2O/c7-5-1-2-8-3-4-9-6(5)8/h1-2H,3-4,7H2	InChI=1S/C6H8N2O/c7-5-1-2-8-3-4-9-6(5)8/h1-2H,3-4,7H2
