21
gdb 83768	2.99788	1.72441	1.52037	0.1596	81.07	-0.1901	0.0913	0.2814	982.8133	0.186134	-383.204064	-383.197007	-383.196063	-383.234949	29.957	
C	-0.2589483722	 1.4272377763	 0.0250136627	-0.413389
C	 0.0064194792	-0.0693885302	-0.0574713044	 0.048811
C	 0.8797522161	-0.4976504123	-1.2328521236	 0.002094
C	 2.1092453416	-0.376034653	-0.3003328506	-0.000217
C	 2.5964875436	-1.6961732555	-0.8753023223	-0.194338
N	 1.1826620367	-2.0055356204	-1.2928858541	-0.132145
C	 0.5566221668	-2.6985283888	-0.1507392082	-0.180428
C	 0.8833753194	-1.9328588057	 1.1705124716	-0.183187
N	 1.12035346	-0.5090950712	 0.8694103455	-0.137462
H	 0.6484065824	 2.0086807511	-0.1649648107	 0.119515
H	-1.0148092827	 1.7260930345	-0.7093217354	 0.112851
H	-0.6213913213	 1.6889857592	 1.0234011184	 0.124076
H	-0.930740696	-0.6147757145	 0.1014355579	 0.069972
H	 0.7739256516	-0.062381988	-2.2302362635	 0.067883
H	 2.7677014669	 0.4880608495	-0.1901116319	 0.071282
H	 3.2286359757	-1.540088316	-1.7565798986	 0.105419
H	 3.070735745	-2.4413970301	-0.2287543904	 0.101961
H	-0.5210554939	-2.7640400714	-0.3257281437	 0.107758
H	 0.935776921	-3.7259482991	-0.1224913649	 0.101939
H	 0.0603836965	-2.0045469922	 1.8901524942	 0.102248
H	 1.7715630136	-2.3399321523	 1.663084332	 0.105356
204.2221	220.6071	263.8645	332.8244	361.1225	426.2738	474.1772	540.3987	656.0066	698.0966	753.6928	790.1233	806.4769	853.4518	865.6799	902.7334	908.3115	933.6514	958.4704	989.3198	1032.6629	1044.7649	1063.0587	1068.1692	1100.6854	1148.4917	1174.8339	1194.6798	1214.6462	1217.7905	1254.1128	1266.9495	1283.3547	1300.7771	1303.0107	1303.4956	1347.3669	1350.946	1387.058	1408.6911	1488.0245	1488.608	1495.9667	1499.8156	1517.6748	3031.8935	3033.8742	3036.0226	3038.632	3048.6557	3063.4723	3074.402	3081.307	3082.636	3097.1575	3106.023	3114.2213
CC1C2C3CN2CCN13	C[C@H]1[C@H]2[C@@H]3CN2CCN13	
InChI=1S/C7H12N2/c1-5-7-6-4-8(7)2-3-9(5)6/h5-7H,2-4H2,1H3	InChI=1S/C7H12N2/c1-5-7-6-4-8(7)2-3-9(5)6/h5-7H,2-4H2,1H3/t5-,6-,7-/m0/s1
