18
gdb 55022	2.88803	1.01133	0.92623	0.9711	73.54	-0.2446	-0.0237	0.2209	1322.8214	0.145795	-439.047331	-439.038202	-439.037258	-439.082458	32.667	
C	 0.5744285327	 1.0140470243	 0.4127352776	-0.493102
C	-0.6733634328	 0.4686236692	-0.253331335	 0.396607
O	-1.243190201	 1.0661616147	-1.1399787062	-0.310285
C	-1.2245810993	-0.8652792456	 0.181329245	-0.138446
N	-0.3887498898	-1.7855681682	 0.9682035609	-0.340054
C	-1.5876810785	-1.2434614424	 1.5946875781	-0.030328
C	-1.4160199908	-0.3647073722	 2.7908410712	 0.074936
C	-2.5749688122	 0.2624314433	 3.4392040627	-0.179045
O	-1.9516779925	-0.8877577738	 4.0108231111	-0.233003
H	 1.2387266925	 0.2129026843	 0.7411474504	 0.155244
H	 1.0782039323	 1.6871016507	-0.282903312	 0.142468
H	 0.2899904748	 1.598882236	 1.2954043322	 0.145061
H	-1.8863308274	-1.2750741669	-0.5786987112	 0.10717
H	-0.5213804419	-2.7462846278	 0.6662043153	 0.247333
H	-2.4620559873	-1.8878075094	 1.6798716279	 0.106647
H	-0.4385796634	 0.1007612826	 2.8958738126	 0.109044
H	-2.4466679358	 1.1923187487	 3.9909169566	 0.121474
H	-3.5712885497	 0.0999331226	 3.0296953129	 0.118279
49.4391	54.9348	111.5971	170.584	206.1465	264.4738	305.8409	400.7968	450.8927	483.0704	552.4618	633.3889	724.8995	814.3733	855.3687	871.4285	913.169	945.2766	977.0703	983.0828	1035.7447	1058.4243	1098.5841	1120.6254	1156.5817	1160.9393	1171.4463	1215.9658	1243.5625	1284.0697	1290.6216	1348.6658	1378.9905	1404.1646	1469.8983	1475.9748	1488.9811	1531.9831	1795.2871	3044.5448	3084.7212	3116.569	3117.7938	3139.3049	3143.7172	3160.3564	3172.5209	3518.3584
CC(=O)C1NC1C1CO1	CC(=O)[C@H]1N[C@H]1[C@H]1CO1	
InChI=1S/C6H9NO2/c1-3(8)5-6(7-5)4-2-9-4/h4-7H,2H2,1H3	InChI=1S/C6H9NO2/c1-3(8)5-6(7-5)4-2-9-4/h4-7H,2H2,1H3/t4-,5-,6+/m1/s1
