19
gdb 102452	1.65707	1.32525	0.92352	1.6366	73.02	-0.2514	-0.0992	0.1522	1354.3387	0.155566	-460.176946	-460.166263	-460.165318	-460.213897	36.497	
C	-1.4458649741	-0.4222426286	 0.4862901273	-0.39707
C	 0.0532095542	-0.2118922453	 0.2497506931	-0.189709
C	 0.532824204	-0.6792441757	-1.1302125953	-0.09403
C	 2.0056247199	-0.2616998563	-1.4146872419	-0.091363
O	 2.1750077746	 1.139622967	-1.453557232	-0.411185
C	 0.4486240104	-2.1825694972	-1.2815616372	 0.281078
O	 0.513925402	-2.9768567589	-0.3693705	-0.290816
C	 0.3121003719	-2.754854984	-2.7022201559	 0.094651
O	 0.2416454129	-2.0793543367	-3.6947297504	-0.21783
H	-2.0428786897	 0.0989949222	-0.2698898944	 0.118944
H	-1.7080361744	-1.4837558931	 0.4543399161	 0.131249
H	-1.7421855416	-0.0385716953	 1.4669556525	 0.118552
H	 0.2804675352	 0.8561421096	 0.3468193413	 0.086591
H	 0.6263912512	-0.7399631522	 1.0202470999	 0.114782
H	-0.0675956816	-0.2251054267	-1.9271369945	 0.112396
H	 2.6638271939	-0.7308281045	-0.6676912914	 0.103589
H	 2.3017026741	-0.6261753233	-2.4023508328	 0.129833
H	 2.1580703506	 1.4726585911	-0.5516760322	 0.290717
H	 0.2830408063	-3.8652343022	-2.7113410922	 0.10962
34.7551	78.4078	102.1178	120.6076	160.7248	177.1839	196.1652	255.0464	289.4226	334.182	352.2124	458.9475	525.3697	588.3223	645.1808	732.957	831.7798	878.642	959.2733	966.6829	1027.4259	1069.2661	1087.9918	1111.6525	1113.4504	1169.2976	1221.8274	1281.6185	1312.6587	1358.0731	1366.6154	1383.0127	1400.228	1412.2191	1422.908	1479.5274	1499.6106	1501.7787	1508.2659	1789.7813	1822.9361	2922.4661	2991.6084	3029.9734	3037.9056	3052.9227	3073.8176	3093.0223	3106.4095	3115.9181	3833.213
CCC(CO)C(=O)C=O	CC[C@@H](CO)C(=O)C=O	
InChI=1S/C6H10O3/c1-2-5(3-7)6(9)4-8/h4-5,7H,2-3H2,1H3	InChI=1S/C6H10O3/c1-2-5(3-7)6(9)4-8/h4-5,7H,2-3H2,1H3/t5-/m0/s1
