21
gdb 103217	3.41395	1.2709	1.10821	2.0909	81.21	-0.2279	0.0697	0.2976	1179.9547	0.181151	-386.998484	-386.990001	-386.989057	-387.031344	33.506	
C	 0.0945133491	 1.5538323923	-0.1785202809	-0.385412
C	-0.0231614918	 0.0676364156	 0.1838148921	-0.236071
C	-1.4499204426	-0.4943341354	 0.1291022959	 0.298223
C	-2.3715044393	 0.1492817282	 1.1653770218	-0.461924
C	-2.0549116953	-0.7086873264	-1.2889915485	-0.123648
C	-1.2357402644	-2.0168421039	-1.5276676935	 0.077905
O	-2.3910106812	-2.8203872456	-1.9079870023	-0.335239
C	-2.8711863753	-1.960701693	-0.8337793961	 0.074266
C	-1.5543426102	-2.0400651468	 0.0018311902	-0.13936
H	 1.1415664751	 1.872173321	-0.1767238199	 0.114038
H	-0.3101838827	 1.752089655	-1.1770336176	 0.116682
H	-0.4422122899	 2.1915941341	 0.5301164826	 0.119013
H	 0.6191464991	-0.5114815151	-0.4906344107	 0.094164
H	 0.379559636	-0.092459042	 1.1932701799	 0.093179
H	-2.5002435194	 1.2209076617	 0.9822833176	 0.119821
H	-3.3674852196	-0.3037683486	 1.1612814406	 0.113871
H	-1.960583597	 0.0363477126	 2.1755699942	 0.114469
H	-2.3537259757	 0.0188751425	-2.0450600961	 0.076716
H	-0.29865601	-2.1781535426	-2.0581154904	 0.096795
H	-3.9113993219	-2.0511754276	-0.5248375934	 0.096398
H	-1.279682973	-2.8204712661	 0.7134636246	 0.076113
78.1137	180.4856	192.5076	202.7205	254.2655	296.8799	352.7044	391.5276	525.4733	569.6682	624.7398	770.2987	783.4288	799.2497	801.8642	825.2263	878.8714	881.465	898.8827	930.7083	968.4544	1010.757	1019.1375	1028.5429	1061.3607	1114.3262	1120.185	1134.5385	1151.138	1157.3106	1183.7019	1199.4193	1213.4552	1236.5804	1291.6925	1332.0323	1349.2391	1376.51	1410.8915	1417.1597	1479.8441	1493.7696	1499.0256	1505.6488	1511.0677	3014.7164	3030.0883	3035.9414	3050.6712	3091.8037	3100.2384	3101.783	3103.8699	3106.3347	3110.642	3127.3097	3137.7674
CCC1(C)C2C3OC2C13	CC[C@@]1(C)[C@H]2[C@@H]3O[C@H]2[C@H]13	
InChI=1S/C8H12O/c1-3-8(2)4-6-5(8)7(4)9-6/h4-7H,3H2,1-2H3	InChI=1S/C8H12O/c1-3-8(2)4-6-5(8)7(4)9-6/h4-7H,3H2,1-2H3/t4-,5+,6-,7+,8-
