21
gdb 89520	2.40367	1.69709	1.27615	1.3223	77.33	-0.2481	0.0777	0.3258	1088.1523	0.182509	-424.228968	-424.220319	-424.219375	-424.261981	33.447	
C	-0.789041558	 1.2171179469	-0.0296780762	-0.405296
C	 0.0653142745	-0.0413884421	-0.0305843573	 0.010567
C	 1.3624821626	-0.0687103103	-0.8970906271	-0.321481
C	 2.1702105319	-0.5994453907	 0.3323797547	 0.421062
C	 2.7515362376	-1.9910120191	 0.2262255372	-0.467693
O	 3.1600616167	 0.2862991651	 0.841274954	-0.288548
C	 2.4682917186	 1.3193909478	 1.4953622117	 0.004321
O	 1.2843992231	 0.7651147024	 2.0393072545	-0.259039
C	 0.9236953083	-0.3471221291	 1.23619293	 0.026194
H	-0.1994068005	 2.0970576551	 0.2432699798	 0.121807
H	-1.2237374958	 1.3928088203	-1.0194663589	 0.112974
H	-1.6104276145	 1.1382175068	 0.6901607996	 0.119342
H	-0.5597064674	-0.9130034615	-0.2541752348	 0.071463
H	 1.3490286282	-0.7268171931	-1.7691668212	 0.099408
H	 1.6993462689	 0.9212070866	-1.2178887744	 0.104425
H	 3.57155028	-2.0091497847	-0.4987889263	 0.128612
H	 3.1396100161	-2.318590535	 1.1950054421	 0.127145
H	 1.9890499984	-2.7021551194	-0.1060292776	 0.117047
H	 3.089449626	 1.7082287488	 2.3080595082	 0.118394
H	 2.2211636491	 2.1341149076	 0.7920034969	 0.082828
H	 0.5683258363	-1.1403037223	 1.899033585	 0.076468
75.9825	191.0483	208.3132	226.7395	240.4078	244.0321	295.8175	380.991	435.8441	518.0887	608.9239	633.6846	742.3364	782.2168	834.0007	880.5154	897.4761	925.6108	931.067	959.9186	983.7181	1009.7812	1071.465	1107.5821	1137.1828	1157.3014	1177.6981	1192.6381	1196.0017	1204.7503	1238.7987	1247.0476	1284.7623	1325.4364	1351.8874	1357.4947	1410.2874	1411.2201	1431.2684	1478.0272	1482.7802	1490.9405	1494.122	1495.1538	1548.3057	2941.3377	3034.1008	3037.717	3040.3599	3056.9806	3074.6661	3080.0557	3098.5648	3108.3467	3109.6191	3113.7259	3117.8659
CC1CC2(C)OCOC12	C[C@H]1C[C@@]2(C)OCO[C@@H]12	
InChI=1S/C7H12O2/c1-5-3-7(2)6(5)8-4-9-7/h5-6H,3-4H2,1-2H3	InChI=1S/C7H12O2/c1-5-3-7(2)6(5)8-4-9-7/h5-6H,3-4H2,1-2H3/t5-,6-,7+/m0/s1
