17
gdb 98923	4.11331	0.81492	0.68591	5.0673	80.21	-0.2452	-0.0427	0.2025	1605.3222	0.133441	-418.008124	-417.998003	-417.997059	-418.04506	35.109	
C	 0.2762575554	 1.4133237718	 0.0052446645	-0.37133
C	-0.0793089092	-0.0708778495	 0.0037148743	-0.320454
C	-1.5915838003	-0.3046192477	 0.0162179489	 0.430407
O	-2.403911194	 0.5843495576	 0.0268937268	-0.302233
N	-1.9139208323	-1.6655696105	 0.0137497714	-0.37348
C	-3.173054683	-2.2750869579	 0.0223249574	 0.248481
N	-4.2680102618	-1.6222042292	 0.0387660941	-0.468327
C	-3.080517623	-3.715725078	 0.0108462492	 0.258891
C	-3.0265818346	-4.9176464754	 0.0016897398	-0.439281
H	 1.361421217	 1.5473287998	-0.0038742265	 0.109324
H	-0.1450751501	 1.9142642973	-0.8693756006	 0.137501
H	-0.1296125069	 1.9087408742	 0.8902579028	 0.13755
H	 0.3417106278	-0.5728132705	-0.8778567003	 0.122662
H	 0.3568440113	-0.5782589931	 0.8747433496	 0.122777
H	-1.137391926	-2.3079969435	 0.0028821234	 0.258969
H	-5.050279614	-2.2751847351	 0.0419033775	 0.233225
H	-2.9944231264	-5.9799330303	-0.0062387021	 0.215317
25.266	45.2677	89.7005	109.4641	198.5802	203.911	275.4667	288.7917	368.1283	418.3986	538.4043	584.6258	600.8447	651.1432	666.5766	670.6601	720.3925	814.4144	859.097	876.3225	951.0643	1009.7818	1069.5026	1095.8665	1122.5379	1181.8504	1283.7401	1322.86	1365.8942	1415.7138	1464.0491	1492.1739	1498.6588	1533.1077	1687.8937	1832.5689	2225.0096	3017.2032	3049.1743	3054.9303	3126.9795	3134.7204	3495.3488	3502.2949	3635.2869
CCC(=O)NC(=N)C#C	CCC(=O)NC(=N)C#C	
InChI=1S/C6H8N2O/c1-3-5(7)8-6(9)4-2/h1H,4H2,2H3,(H2,7,8,9)	InChI=1S/C6H8N2O/c1-3-5(7)8-6(9)4-2/h1H,4H2,2H3,(H2,7,8,9)
