20
gdb 109845	2.28534	1.12819	0.88828	3.7292	78.59	-0.2298	0.0327	0.2625	1381.1596	0.169098	-440.281803	-440.27158	-440.270636	-440.318116	35.757	
C	-0.3176337483	 1.2281478128	-0.0879023351	-0.244262
O	 0.3445243668	-0.0051440539	 0.1435091097	-0.247771
C	 0.8753339235	-0.5561009909	-1.0255288162	 0.062022
C	 1.3148982963	-1.9947206515	-0.963483493	-0.08846
C	 1.2617296198	-2.7874192347	 0.3230606731	-0.401846
C	 0.0525951514	-1.6125905895	-1.7294846314	-0.004864
N	-1.2356042347	-1.8972917237	-1.1771953652	-0.277537
C	-2.1460463859	-2.6939553313	-1.795681789	 0.151894
O	-1.9744364681	-3.2615698477	-2.8538697787	-0.326855
H	 0.3749032625	 1.9797644316	-0.4930411815	 0.118346
H	-1.1572216424	 1.1163001564	-0.7877655556	 0.117716
H	-0.6933898735	 1.5755994186	 0.8770666089	 0.132263
H	 1.4513773303	 0.1489053258	-1.625418265	 0.091222
H	 2.1648586914	-2.2284143311	-1.5995457208	 0.096409
H	 0.430866661	-2.4767779781	 0.9585168415	 0.12064
H	 1.1488958347	-3.8556018069	 0.1123992054	 0.12667
H	 2.1832738162	-2.6503234308	 0.8975632894	 0.123156
H	 0.0600907808	-1.6842589317	-2.8100960941	 0.125336
H	-1.4737917316	-1.4558193193	-0.3025798694	 0.255735
H	-3.0886841902	-2.7598428841	-1.2160735031	 0.070186
29.3252	96.8818	125.1774	147.7167	159.7394	197.4129	209.0636	255.6457	270.6883	341.6801	511.5653	580.0989	601.7007	615.0297	741.1902	748.1207	846.1952	903.1072	971.591	989.4083	1024.9007	1068.1114	1101.1326	1105.3701	1139.984	1150.688	1162.0479	1184.1501	1215.3544	1240.4512	1265.3262	1342.9137	1362.3277	1418.2781	1430.201	1431.9252	1484.43	1487.1343	1490.0554	1500.2366	1510.6462	1532.2995	1803.2448	2931.4207	2992.5407	3044.2688	3047.0657	3094.7014	3102.8941	3123.167	3130.2133	3145.4739	3193.5379	3627.4824
COC1C(C)C1NC=O	CO[C@H]1[C@@H](C)[C@H]1NC=O	
InChI=1S/C6H11NO2/c1-4-5(7-3-8)6(4)9-2/h3-6H,1-2H3,(H,7,8)	InChI=1S/C6H11NO2/c1-4-5(7-3-8)6(4)9-2/h3-6H,1-2H3,(H,7,8)/t4-,5+,6-/m0/s1
