16
gdb 15974	2.88194	2.04665	1.37182	1.8693	65.79	-0.2374	-0.0313	0.2061	898.4689	0.130505	-379.869087	-379.861489	-379.860545	-379.90159	27.549	
O	-0.4983236674	 1.4686840782	 1.0063950517	-0.2597
C	 0.2138704742	 1.0375055865	 0.1334272789	 0.149962
C	 1.5432264821	 1.6554044748	-0.2328067295	-0.135587
N	 2.3210537034	 0.9192711542	-1.2515126347	-0.332566
C	 2.5326554814	 2.1486645987	-2.0660215918	-0.229481
C	 1.4595566579	 2.841821611	-1.2257797645	 0.332519
C	 0.2595775003	 3.6063112071	-1.6260167782	-0.300797
N	 1.3909269544	 4.2538176064	-0.9256053155	-0.357278
H	-0.0793566807	 0.1794497005	-0.5115067301	 0.089013
H	 2.0824032521	 1.9326753917	 0.6843782854	 0.092263
H	 3.1691910451	 0.4851525379	-0.9073571683	 0.227285
H	 3.5157940714	 2.6213501143	-1.9446776206	 0.108884
H	 2.3279797974	 2.014598717	-3.1333095152	 0.113457
H	 0.131038098	 3.9092946828	-2.6615647334	 0.124224
H	-0.6618164265	 3.4358318929	-1.0759910921	 0.135668
H	 1.1607810469	 4.400864556	 0.0548941577	 0.242134
64.8906	89.808	186.4534	237.094	322.5723	367.786	450.2145	483.1257	583.4539	685.3186	827.4359	875.1296	911.8189	943.1917	959.9942	994.5652	1006.4764	1025.0116	1056.8195	1078.5979	1126.4841	1136.99	1140.1296	1209.2497	1260.5908	1269.9822	1286.0329	1331.7998	1375.9343	1396.4418	1424.3536	1512.3186	1514.7499	1815.2613	2893.0524	3003.8333	3018.2548	3071.2188	3109.9491	3199.1964	3493.3295	3546.1716
O=CC1NCC11CN1	O=C[C@H]1NC[C@]21CN2	
InChI=1S/C5H8N2O/c8-1-4-5(2-6-4)3-7-5/h1,4,6-7H,2-3H2	InChI=1S/C5H8N2O/c8-1-4-5(2-6-4)3-7-5/h1,4,6-7H,2-3H2/t4-,5-/m1/s1
