13
gdb 27718	2.9617	1.36316	0.93456	5.2464	71.79	-0.2063	-0.0128	0.1936	1148.2595	0.091207	-448.983315	-448.975332	-448.974387	-449.015684	29.833	
N	 0.0641942003	 1.2755272467	 0.173530812	-0.591716
C	-0.034464627	-0.0721195036	 0.052903507	 0.484876
N	-1.1370717094	-0.7728328423	-0.0134422014	-0.373391
C	-0.6961895416	-2.0769693759	-0.0599653765	 0.229475
N	-1.5832854927	-3.1047696804	-0.1885313575	-0.599191
C	 0.6792541913	-2.1105168691	-0.0182902234	 0.150195
O	 1.1053167525	-0.769166072	 0.052010493	-0.220344
C	 1.6115515342	-3.1446773055	-0.0313227208	 0.185024
N	 2.3492976603	-4.0441306674	-0.0411642603	-0.365611
H	 0.9438128284	 1.6912050748	-0.0879450715	 0.278418
H	-0.7631317529	 1.7914553691	-0.0790257201	 0.281479
H	-2.5233680445	-2.8940480315	 0.108158106	 0.268359
H	-1.2553258289	-4.025655913	 0.0571451037	 0.272428
126.1949	132.263	223.7761	297.5381	340.5576	375.8108	385.1233	441.1636	470.3256	491.0494	535.9012	553.5504	618.6287	669.8675	719.7321	767.1823	833.1424	1029.023	1046.1727	1140.7146	1149.7936	1301.788	1409.0502	1480.8873	1592.7014	1620.8968	1671.2183	1695.5042	2304.8868	3588.7564	3601.9072	3701.2668	3719.0387
NC1=NC(N)=C(O1)C#N	Nc1nc(N)c(o1)C#N	
InChI=1S/C4H4N4O/c5-1-2-3(6)8-4(7)9-2/h6H2,(H2,7,8)	InChI=1S/C4H4N4O/c5-1-2-3(6)8-4(7)9-2/h6H2,(H2,7,8)
