18
gdb 8392	3.87076	1.66987	1.44818	2.737	72.66	-0.2368	-0.0155	0.2213	928.9452	0.153563	-347.776311	-347.768596	-347.767651	-347.80969	28.634	
C	-0.0033571248	 1.4721139722	-0.0398348361	-0.492755
C	 0.0101971628	-0.0453286519	 0.0063582216	 0.24028
O	 0.0160437287	-0.6605130818	 1.0497811578	-0.293985
C	 0.016109262	-0.7609246739	-1.3143530727	 0.278548
C	 1.0886869318	-0.6608291008	-2.4535753276	-0.257209
C	 0.0236822332	-1.6758429821	-2.957809064	-0.050266
C	 0.0307078202	-2.2980104458	-1.530490157	-0.251171
C	-1.0598877773	-0.6814886651	-2.4519840416	-0.25718
H	 0.8729091518	 1.8448244717	-0.5819450672	 0.140225
H	-0.8862221069	 1.829144488	-0.5817958384	 0.140204
H	-0.0068325608	 1.8723996643	 0.9746607027	 0.141172
H	 1.152868089	 0.2915232424	-2.987185615	 0.092772
H	 2.0786908622	-1.0586643923	-2.2155030113	 0.100657
H	 0.0281092108	-2.2098237671	-3.908136309	 0.077215
H	 0.9391874894	-2.8213278996	-1.2238392318	 0.099013
H	-0.8670634655	-2.8387181507	-1.2224868882	 0.099032
H	-2.0416955431	-1.0982851117	-2.2124224567	 0.100674
H	-1.1431666036	 0.2694439644	-2.9854938756	 0.092774
18.5953	115.5673	170.662	185.2609	351.2998	452.2942	522.4529	554.8685	594.7293	617.5952	785.9833	805.7989	880.7041	913.5876	929.525	950.0544	960.4754	992.7046	998.1364	1037.1217	1096.4367	1099.9542	1127.9383	1136.7507	1140.9846	1163.9332	1167.8086	1232.6398	1234.7698	1246.8019	1330.9436	1384.0291	1462.5327	1473.5796	1496.6521	1497.9455	1551.8711	1798.2433	3037.5169	3047.9168	3051.3382	3063.2728	3098.183	3111.4669	3115.4649	3119.1619	3129.2722	3151.5316
CC(=O)C12CC(C1)C2	CC(=O)[C@@]12C[C@@H](C1)C2	
InChI=1S/C7H10O/c1-5(8)7-2-6(3-7)4-7/h6H,2-4H2,1H3	InChI=1S/C7H10O/c1-5(8)7-2-6(3-7)4-7/h6H,2-4H2,1H3/t6-,7-
