20
gdb 11455	5.18814	1.19767	1.04957	1.7042	78.6	-0.2247	0.0242	0.2489	1197.6177	0.176163	-349.023237	-349.014418	-349.013474	-349.056769	32.027	
C	-0.1674128508	 1.5181469449	 0.0501989551	-0.379969
C	 0.0318073391	 0.0013483915	 0.0098450505	-0.171682
C	 0.8864248298	-0.5157589978	 1.1741476113	 0.105291
O	 0.261996501	-0.1956872158	 2.4267347082	-0.280043
C	 0.0793743825	-1.3716788399	 3.2026448396	-0.150205
C	 0.5892544388	-2.5100354493	 2.3544634081	 0.299431
C	 0.5418469701	-3.9291632559	 2.8184856859	-0.492908
C	 1.0536548965	-2.0098455293	 1.2126093159	-0.215912
H	 0.7907505915	 2.0447811749	-0.0261857201	 0.109708
H	-0.8013194179	 1.856825644	-0.7749092543	 0.106517
H	-0.6380656188	 1.8153915978	 0.9909491634	 0.134904
H	-0.9372561927	-0.511122155	 0.04106283	 0.095229
H	 0.5175895976	-0.2921853098	-0.9301069726	 0.08807
H	 1.865848083	-0.0055770271	 1.1351011174	 0.073275
H	 0.633024766	-1.289454676	 4.1535412874	 0.09736
H	-0.9848663172	-1.4907963266	 3.4642290563	 0.098925
H	 1.1053541456	-4.0606293737	 3.7509551821	 0.129444
H	-0.4882122495	-4.242693886	 3.0304463747	 0.129502
H	 0.9574461613	-4.6107270964	 2.0720822026	 0.128261
H	 1.493478044	-2.5716118445	 0.3971581688	 0.094801
70.5732	103.8108	144.1454	167.2787	219.0632	265.8305	294.9132	383.747	428.6494	490.6211	611.6486	729.5462	794.2206	832.3707	877.0205	904.7221	938.7612	982.5306	1000.5246	1029.4044	1044.9087	1082.4785	1094.2635	1119.4469	1140.073	1200.4047	1213.7936	1285.3411	1287.6571	1320.9098	1353.0789	1387.6027	1391.7071	1405.7271	1413.9368	1475.7714	1478.822	1489.3228	1495.5725	1509.1552	1523.2754	1734.9708	2933.721	2957.3088	2975.0922	3019.2962	3020.7089	3034.5143	3061.4866	3064.7888	3099.5418	3115.289	3122.3632	3204.9295
CCC1OCC(C)=C1	CC[C@H]1OCC(=C1)C	
InChI=1S/C7H12O/c1-3-7-4-6(2)5-8-7/h4,7H,3,5H2,1-2H3	InChI=1S/C7H12O/c1-3-7-4-6(2)5-8-7/h4,7H,3,5H2,1-2H3/t7-/m1/s1
