17
gdb 84675	2.62798	2.05467	1.62957	2.5114	70.64	-0.2357	-0.0097	0.226	875.3041	0.138284	-421.782518	-421.775871	-421.774927	-421.813303	27.692	
O	-0.1308598183	 1.4011408594	 0.3507492148	-0.441809
C	 0.0101850213	 0.0157275171	 0.0264744519	 0.07309
C	 0.9692787534	-0.6480140266	 0.9939086255	-0.098556
C	 0.5314831777	-1.3574569901	 2.0344556381	-0.046895
C	-0.9479592031	-1.5437304781	 2.1933063246	 0.028476
O	-1.6669296793	-0.2506057825	 2.3158832601	-0.313607
C	-2.3482034851	-0.5088204023	 1.0832685022	 0.073973
C	-1.6939868951	-1.8416933815	 0.8829948788	-0.150493
C	-1.3531943836	-0.6827275643	-0.0337182867	-0.094541
H	-0.5031162888	 1.4125208712	 1.2431315907	 0.289008
H	 0.4543605369	 0.0112364757	-0.9744742245	 0.085045
H	 2.0278843496	-0.4631432812	 0.8376075951	 0.103768
H	 1.2074507412	-1.7873946076	 2.7666271403	 0.099028
H	-1.2250091507	-2.1812642484	 3.0350037579	 0.087239
H	-3.3640311867	-0.1478687969	 0.9823159817	 0.108438
H	-2.0666250743	-2.8033871686	 0.5584297943	 0.100429
H	-1.807605355	-0.7457286754	-1.0183418447	 0.097407
117.3749	239.4404	354.4007	371.5273	463.0119	503.6963	533.6637	609.4636	689.4879	728.1876	735.635	779.2429	806.4946	842.7405	885.3824	934.9709	946.6392	986.2368	993.2804	1007.7923	1032.334	1041.6668	1048.1332	1065.11	1084.1508	1147.135	1182.6724	1236.5984	1269.5549	1279.2242	1306.1986	1339.6469	1361.1525	1400.1951	1417.8114	1446.4247	1697.7477	3051.5332	3091.4533	3155.3149	3166.6829	3189.4426	3193.0488	3209.5981	3758.321
OC1C=CC2OC3C2C13	O[C@H]1C=C[C@H]2O[C@@H]3[C@H]2[C@H]13	
InChI=1S/C7H8O2/c8-3-1-2-4-6-5(3)7(6)9-4/h1-8H	InChI=1S/C7H8O2/c8-3-1-2-4-6-5(3)7(6)9-4/h1-8H/t3-,4+,5-,6+,7-/m0/s1
