16
gdb 61383	2.99446	0.84361	0.80803	1.1888	68.9	-0.2607	-0.0885	0.1722	1454.1339	0.120945	-475.067503	-475.057715	-475.05677	-475.103814	33.028	
C	 0.1147266035	 1.6244392725	-0.0611447873	-0.396607
C	-0.0690383184	 0.1184095071	 0.1120287918	-0.060456
N	-1.4513476597	-0.261687925	 0.3477525816	-0.320466
C	-1.8584539994	-0.948763129	 1.4412344772	 0.307014
O	-1.1502917093	-1.3701117694	 2.3374731882	-0.353797
C	-3.3740316101	-1.1707025257	 1.4770956189	 0.102743
O	-4.1214623232	-0.7705787721	 0.6225473755	-0.243524
C	 0.484909697	-0.6818709199	-1.0697244389	 0.152747
O	 1.2195706909	-0.2326709658	-1.9076827166	-0.230494
H	 1.1601809964	 1.8460321952	-0.2838916173	 0.149496
H	-0.4851976324	 1.9980696942	-0.8970320307	 0.127439
H	-0.1811974762	 2.1533957414	 0.8474784028	 0.129882
H	 0.4763963701	-0.2365902163	 0.998020479	 0.150191
H	-2.1796783293	 0.0369241174	-0.287714707	 0.269321
H	-3.7051826459	-1.7338228748	 2.3708532939	 0.124153
H	 0.1455469359	-1.7416898698	-1.0889263213	 0.092359
39.8318	59.3656	82.8367	152.3534	173.9248	209.2494	230.1276	293.8991	397.4856	406.8935	509.2638	572.6821	599.1402	651.8784	713.7223	836.7528	904.7543	929.1691	1014.3476	1026.121	1110.353	1144.3633	1171.8943	1244.7413	1329.3378	1338.884	1362.5739	1400.566	1419.2752	1487.636	1491.4467	1542.4994	1784.9965	1822.9487	1838.4881	2889.9128	2965.4429	3029.4797	3051.4628	3122.8238	3145.6512	3590.2057
CC(NC(=O)C=O)C=O	C[C@@H](NC(=O)C=O)C=O	
InChI=1S/C5H7NO3/c1-4(2-7)6-5(9)3-8/h2-4H,1H3,(H,6,9)	InChI=1S/C5H7NO3/c1-4(2-7)6-5(9)3-8/h2-4H,1H3,(H,6,9)/t4-/m1/s1
