22
gdb 58288	2.38679	1.04622	0.93241	2.2062	79.86	-0.2579	0.0276	0.2855	1420.8532	0.191171	-441.507368	-441.496322	-441.495378	-441.543777	39.862	
C	 0.1147332593	 1.4862667811	-0.0217819278	-0.406617
C	 0.0040307102	-0.0282150512	 0.1639021697	 0.135782
O	 0.511626656	-0.4357736635	 1.4288950965	-0.440516
C	-1.4280193735	-0.546392753	-0.0397691868	 0.130018
C	-1.5209889687	-2.0666380259	-0.0340023057	-0.4114
O	-2.1813626675	-0.0011742512	 1.0745713353	-0.277118
C	-3.5097270212	 0.1919951459	 0.9273765756	 0.40108
C	-4.0895641879	 0.7571804182	 2.1998485628	-0.463755
N	-4.1073997033	-0.0867486059	-0.1572916306	-0.517356
H	 1.1422024039	 1.8091386196	 0.1639659499	 0.122303
H	-0.1660435352	 1.7814563647	-1.0384730649	 0.113177
H	-0.5445501422	 2.0094662108	 0.6780339798	 0.115154
H	 0.6393641402	-0.5285593927	-0.5767420328	 0.086184
H	-0.1283960924	-0.1336877649	 2.084314631	 0.284059
H	-1.8508794357	-0.143705562	-0.9640402802	 0.109024
H	-1.0767941945	-2.4678006698	 0.8801619327	 0.128127
H	-2.5623360367	-2.3840864052	-0.1122947179	 0.135391
H	-0.9733374792	-2.4746215312	-0.8897957595	 0.115439
H	-5.1604114869	 0.9382727439	 2.0961327419	 0.128581
H	-3.9234475345	 0.0629094619	 3.0294118296	 0.146718
H	-3.5905457393	 1.6960566528	 2.4586692058	 0.144991
H	-5.0974727111	 0.1342685977	-0.0860682945	 0.220734
61.2868	74.8329	98.9116	127.8734	178.5766	220.1325	228.6818	236.9911	284.6807	330.6202	390.6576	397.7717	453.4863	516.9959	576.3604	603.2555	635.9076	795.826	847.8824	869.7096	928.4222	953.1637	991.2748	1024.3411	1041.8737	1067.2564	1074.1428	1093.1872	1110.8225	1153.4774	1171.3199	1294.7365	1326.0012	1347.1734	1380.2487	1387.8743	1400.164	1403.9857	1418.6896	1430.4679	1472.6391	1482.1537	1489.0887	1492.052	1497.2278	1499.3692	1725.954	3037.1047	3042.0024	3047.8089	3049.9868	3082.8828	3107.4414	3111.0113	3120.441	3123.4621	3143.9596	3145.3027	3520.666	3794.714
CC(O)C(C)OC(C)=N	C[C@@H](O)[C@@H](C)O[C](C)[NH]	
InChI=1S/C6H13NO2/c1-4(8)5(2)9-6(3)7/h4-5,7-8H,1-3H3	InChI=1S/C6H13NO2/c1-4(8)5(2)9-6(3)7/h4-5,7-8H,1-3H3/t4-,5-/m1/s1
