16
gdb 73074	3.52672	1.12976	1.00222	2.3778	67.05	-0.2459	0.0233	0.2692	1185.3199	0.12259	-474.951872	-474.943394	-474.94245	-474.98549	30.794	
O	-0.1462911345	 1.4137456605	-0.4310332976	-0.454132
C	 0.0081450051	 0.1022914209	-0.0462350499	 0.273372
C	 0.6756023506	-0.9859098551	-0.890673021	-0.141341
O	-0.3201815399	-1.9638312741	-0.4708616026	-0.279661
C	-1.0232179788	-0.9750416084	 0.2675510835	-0.015978
C	-0.1506036167	-0.3986874097	 1.3595363643	-0.006415
O	 0.8865115514	-1.1059938396	 1.9793737057	-0.193902
C	 0.5803689796	-2.3264708663	 2.4881246087	 0.14131
N	 1.4597643718	-2.968002148	 3.1222446758	-0.443474
H	 0.5126742452	 1.9489381331	 0.0259388036	 0.297563
H	 0.590038607	-0.7905893247	-1.963653523	 0.124321
H	 1.6922551355	-1.2863443854	-0.6222390244	 0.129981
H	-2.1063379094	-1.0114580264	 0.2851593636	 0.121665
H	-0.6696977728	 0.3024469184	 2.0121259114	 0.114754
H	-0.4492896981	-2.636117546	 2.2784551456	 0.100803
H	 1.0831068339	-3.8641683091	 3.4241657164	 0.231134
62.3339	125.0224	135.9369	225.0648	237.0561	295.6167	319.6982	373.2818	486.3147	541.2891	643.4097	746.7485	806.7326	822.2546	844.7315	926.8274	945.719	986.4187	1004.5809	1033.6304	1040.448	1064.8943	1099.1867	1145.9879	1161.6276	1223.9324	1263.838	1273.2261	1297.2704	1334.4268	1346.3712	1413.0272	1480.3865	1506.3924	1746.5129	3052.1437	3063.7426	3114.8055	3123.0643	3185.977	3518.6696	3792.218
OC12COC1C2OC=N	O[C@]12CO[C@H]1[C@H]2O[CH][NH]	
InChI=1S/C5H7NO3/c6-2-9-4-3-5(4,7)1-8-3/h2-4,6-7H,1H2	InChI=1S/C5H7NO3/c6-2-9-4-3-5(4,7)1-8-3/h2-4,6-7H,1H2/t3-,4+,5+/m0/s1
