23
gdb 41744	3.32268	1.49379	1.37243	0.1648	88.	-0.2747	0.0842	0.3589	1068.8548	0.211448	-351.169227	-351.162276	-351.161332	-351.200067	30.105	
C	 0.0016635194	 1.5653519625	-0.0223351736	-0.227413
C	 1.5527938846	 1.7849941683	-0.034904414	-0.233963
C	 2.0013365006	 0.3167460183	 0.0175599151	-0.003947
C	 1.0602033504	-0.3695814417	-1.0202749294	 0.024701
C	 1.2996231175	-1.8758351699	-1.1691619582	-0.238144
C	 0.9384340865	-2.620338371	 0.1280931297	-0.191682
C	 1.3069920111	-1.7831013244	 1.3653448031	-0.238141
C	 1.0663349103	-0.2917017764	 1.1081809557	 0.024693
C	-0.0285957355	 0.0291229318	 0.0339350565	-0.030237
H	-0.4813612093	 2.0228505349	 0.8465150247	 0.091617
H	-0.4865203277	 1.9582534776	-0.9194538393	 0.091614
H	 1.8982793771	 2.2951710301	-0.939340929	 0.09133
H	 1.9034372602	 2.3598732131	 0.8277699325	 0.091327
H	 3.075421336	 0.1124697831	 0.0219534686	 0.045719
H	 0.9910009296	 0.1209789549	-1.9981887545	 0.049134
H	 0.7071613342	-2.2737027317	-2.0012474337	 0.090441
H	 2.3517017747	-2.0446980113	-1.4350532135	 0.092264
H	-0.1433245999	-2.7950145576	 0.1376280698	 0.100326
H	 1.4079263416	-3.6085725075	 0.1628867158	 0.08729
H	 0.7195254879	-2.1190167413	 2.227734388	 0.090441
H	 2.3606573992	-1.9322493023	 1.6366903257	 0.092264
H	 1.0026381014	 0.2690226296	 2.0480115169	 0.049135
H	-1.0116765097	-0.4463255391	 0.0541547531	 0.051233
200.5155	237.0457	303.796	311.2244	318.5034	436.0411	538.5402	631.6199	666.3235	789.1917	791.5746	807.2989	870.1879	877.9148	897.6222	906.8739	915.0744	947.9699	963.3005	965.4615	985.8012	1032.7395	1045.2408	1075.1918	1076.7338	1091.3688	1116.3949	1138.0667	1176.4368	1205.6292	1210.8478	1220.2467	1237.506	1258.6177	1261.8854	1283.9875	1293.2331	1313.7299	1325.848	1334.9993	1359.0252	1360.9021	1384.6213	1411.6975	1489.2093	1489.8582	1492.6039	1507.3864	1512.478	3012.7857	3013.2925	3029.8391	3030.9733	3034.8594	3041.8422	3050.9796	3053.4272	3057.4545	3076.4944	3077.2243	3080.6545	3090.0486	3096.8206
C1CC2C3CCCC2C13	C1C[C@@H]2[C@H]3CCC[C@@H]2[C@@H]13	
InChI=1S/C9H14/c1-2-6-8-4-5-9(6)7(8)3-1/h6-9H,1-5H2	InChI=1S/C9H14/c1-2-6-8-4-5-9(6)7(8)3-1/h6-9H,1-5H2/t6-,7+,8-,9+
