25
gdb 102490	1.75533	1.37015	0.97507	2.7029	85.	-0.2622	0.0689	0.3311	1373.5629	0.225995	-426.61576	-426.604192	-426.603248	-426.651623	43.477	
C	-0.3671665828	 1.6717479157	-0.0143007747	-0.415502
C	-0.1504553528	 0.1470606516	 0.0979308521	 0.270211
C	 0.6851333439	-0.153063839	 1.3575272486	-0.417138
C	-1.5441391581	-0.4958385697	 0.2626277645	-0.38944
C	 0.564742298	-0.3827861049	-1.1974791661	 0.022446
C	 2.0816827505	-0.1354972487	-1.2581404695	-0.102913
O	 2.3978913241	 1.2335151917	-1.0528038292	-0.412189
C	 0.3585398558	-1.8845400852	-1.4640406716	-0.116276
O	-0.8755238353	-2.0660765983	-2.145638903	-0.41454
H	 0.5746858445	 2.2050994438	-0.1370273629	 0.138446
H	-1.0080192975	 1.9077375834	-0.8715517488	 0.101909
H	-0.8694375704	 2.047519457	 0.884664732	 0.094367
H	 0.1397230244	 0.1587639192	 2.2546035726	 0.105121
H	 0.8966704068	-1.2237325681	 1.4640417377	 0.098184
H	 1.6359428594	 0.3864393413	 1.3414236754	 0.119154
H	-2.1622643214	-0.3473280553	-0.6260664202	 0.120594
H	-1.4914420751	-1.5725344955	 0.4471517797	 0.096404
H	-2.0552862687	-0.0397463312	 1.1178877826	 0.095199
H	 0.1137114999	 0.1324942927	-2.0550390167	 0.0904
H	 2.587498203	-0.7670143614	-0.5098680502	 0.08712
H	 2.4377613107	-0.4629634318	-2.247245614	 0.088494
H	 3.3537814861	 1.3273873775	-1.0979620756	 0.286539
H	 1.1883982926	-2.2664981282	-2.0806322054	 0.079534
H	 0.3797275112	-2.4483344082	-0.5188373415	 0.089796
H	-1.0442610886	-3.0104702383	-2.2142062457	 0.284082
63.4363	104.093	147.0674	212.9786	238.4431	243.0962	257.4528	274.0299	276.2393	284.4873	305.9452	320.3692	377.5502	393.9881	408.4505	427.2701	511.7167	556.574	695.6836	856.5948	928.0405	936.5731	942.4052	964.4576	1002.9122	1015.1997	1046.5836	1056.5728	1093.0645	1107.1609	1114.8927	1206.9326	1224.458	1242.66	1254.9913	1270.5886	1290.0213	1300.6104	1317.9504	1378.7861	1393.8821	1402.9034	1434.151	1458.1747	1466.988	1479.6917	1482.4853	1493.4057	1504.4677	1507.3722	1521.33	1526.4608	1528.9194	2957.2055	2969.8574	2988.9501	2994.4562	3024.2422	3027.3382	3035.0576	3037.7256	3083.049	3085.7827	3098.2741	3112.2127	3122.2134	3157.7113	3826.4211	3829.1709
CC(C)(C)C(CO)CO	CC(C)(C)C(CO)CO	
InChI=1S/C7H16O2/c1-7(2,3)6(4-8)5-9/h6,8-9H,4-5H2,1-3H3	InChI=1S/C7H16O2/c1-7(2,3)6(4-8)5-9/h6,8-9H,4-5H2,1-3H3
