17
gdb 92808	2.9574	1.79144	1.42555	2.6317	73.21	-0.2469	-0.008	0.2389	931.7457	0.136874	-421.760755	-421.753809	-421.752865	-421.79182	28.41	
O	-0.0467225684	 1.4638173238	 0.0736591392	-0.440841
C	 0.0398857037	 0.0563467065	 0.0122074647	 0.094944
C	 0.5407900758	-0.5632710658	 1.3730449888	-0.269124
C	-0.7436970788	-0.7624656105	 2.1774908421	-0.207724
C	-1.7644114804	-0.793954613	 1.3269002362	 0.253897
C	-3.1573761638	-0.2941192364	 1.0182726395	-0.099442
O	-2.9222870619	 1.0805137237	 0.6084759947	-0.243314
C	-2.7245303886	 0.0439385141	-0.3624902823	 0.001968
C	-1.340437215	-0.6216005523	-0.1182597911	-0.109631
H	-0.8536606328	 1.6821293095	 0.560353696	 0.29351
H	 0.7287454025	-0.173010531	-0.8064409769	 0.078809
H	 1.0841318005	-1.5039300692	 1.2056839355	 0.105226
H	 1.2338809712	 0.1275691123	 1.86440983	 0.117953
H	-0.7769029557	-0.7680112263	 3.2606037977	 0.105099
H	-4.1330296441	-0.5152896653	 1.4305712095	 0.116985
H	-3.2990798407	 0.1172147055	-1.2780077959	 0.112205
H	-1.2897921335	-1.5772056056	-0.6546478877	 0.089481
145.3183	184.4939	282.7964	356.3265	379.2518	455.166	495.7475	584.9227	693.2718	708.6305	784.0932	809.2366	818.321	851.3427	860.2836	874.2809	915.2538	920.9881	960.3523	976.9154	1018.0629	1044.6599	1077.1758	1112.5504	1142.9781	1190.8267	1216.3065	1223.4531	1243.6736	1259.7182	1294.4202	1320.0508	1344.7869	1349.4389	1452.8093	1466.6221	1721.3784	3011.6412	3034.9297	3069.5023	3079.5972	3192.6194	3200.7097	3213.0971	3742.6455
OC1CC=C2C3OC3C12	O[C@H]1C[CH][C]2[C@H]3O[C@H]3[C@@H]12	
InChI=1S/C7H8O2/c8-4-2-1-3-5(4)7-6(3)9-7/h1,4-8H,2H2	InChI=1S/C7H8O2/c8-4-2-1-3-5(4)7-6(3)9-7/h1,4-8H,2H2/t4-,5+,6+,7-/m0/s1
