23
gdb 36963	6.49772	0.55465	0.54801	0.9995	87.56	-0.2419	0.0945	0.3365	2106.9715	0.204815	-388.252388	-388.242535	-388.241591	-388.288679	36.121	
C	 0.1570543159	 1.4691915605	-0.0832650151	-0.048077
C	 0.1833189045	-0.0545071574	-0.0485433754	-0.22473
C	-1.1642133548	-0.649483206	 0.2974691727	 0.033485
C	-2.2056609727	-0.8632936342	-0.7749300649	-0.254912
C	-1.5194898487	-2.0472829548	-0.1388297621	-0.276788
O	 1.4602870278	 1.9326317376	-0.3967666069	-0.25045
C	 1.5490015457	 3.318853617	-0.4725170237	 0.151056
C	 1.7504959341	 4.1171255492	 0.7919002131	-0.287447
C	 2.8877992396	 3.9171950445	-0.1923503306	-0.287462
H	-0.5659605662	 1.8220606575	-0.8368379325	 0.087933
H	-0.1668088785	 1.8739651881	 0.8892411049	 0.08602
H	 0.5146009012	-0.4223716165	-1.0271984964	 0.100913
H	 0.9406210103	-0.3741839002	 0.6779812603	 0.104438
H	-1.54903895	-0.3510423142	 1.2701802026	 0.080314
H	-3.2468250708	-0.6790369358	-0.534165385	 0.109545
H	-1.9369405915	-0.6139578586	-1.7966139202	 0.110438
H	-0.7924692044	-2.5907845457	-0.7335852114	 0.111399
H	-2.0909600284	-2.6709234921	 0.539722734	 0.11012
H	 0.9379839221	 3.7650659129	-1.2592645359	 0.07961
H	 1.2920353332	 5.0966183636	 0.8733165246	 0.110487
H	 1.8023852569	 3.5585064079	 1.719833713	 0.117457
H	 3.6716485894	 3.2257178453	 0.0946635299	 0.124447
H	 3.2174043652	 4.7570227915	-0.7934356648	 0.112204
43.7337	48.4879	98.1715	114.8556	143.6427	226.1814	288.9335	374.1913	388.4361	452.1544	502.9785	753.9722	777.0427	786.53	816.3789	823.1656	830.2732	851.2004	916.817	957.7633	969.1778	983.1143	1037.7749	1046.6496	1065.3121	1070.1671	1078.0913	1084.4109	1107.9081	1130.1702	1142.7705	1193.1676	1195.4994	1199.5863	1204.7982	1228.132	1242.3697	1254.2147	1302.1088	1312.2208	1378.4382	1415.0888	1438.7419	1452.4117	1470.5129	1489.2773	1497.723	1509.2808	1525.7023	2964.4193	2993.1994	3027.8348	3068.3919	3083.074	3128.0406	3128.8296	3134.1897	3134.3461	3141.6316	3205.8219	3218.8105	3221.1006	3233.9923
C(CC1CC1)OC1CC1	C(CC1CC1)OC1CC1	
InChI=1S/C8H14O/c1-2-7(1)5-6-9-8-3-4-8/h7-8H,1-6H2	InChI=1S/C8H14O/c1-2-7(1)5-6-9-8-3-4-8/h7-8H,1-6H2
