22
gdb 115481	2.52429	1.12164	0.81527	0.7794	84.88	-0.2426	0.0366	0.2792	1473.8862	0.194526	-404.380889	-404.371183	-404.370239	-404.41579	35.461	
C	 0.0557620075	 1.5519512046	-0.028678919	-0.380299
C	-0.0019736366	 0.0230181729	-0.0298970843	-0.168181
C	-1.4254530001	-0.5335295742	 0.0557672746	 0.068301
C	-1.4974477688	-2.0868875213	-0.0297304139	-0.239524
C	-2.6325924891	-2.4486721379	 0.9457416885	-0.332798
C	-2.6945603415	-1.1820345294	 1.7673941542	 0.426074
O	-3.4171963464	-1.2154381995	 2.8922909151	-0.255509
C	-3.4782137249	 0.0108688204	 3.6243709299	-0.232575
N	-2.0753876307	-0.1626755281	 1.3253931624	-0.325369
H	 1.0896432374	 1.909758162	-0.0618203048	 0.104069
H	-0.4682297707	 1.9675843561	-0.8970116767	 0.10733
H	-0.4203375148	 1.9518326599	 0.8702863647	 0.134594
H	 0.4696717417	-0.3704392811	-0.9401631087	 0.088199
H	 0.5731812127	-0.3732640079	 0.8172125526	 0.091168
H	-2.0140547803	-0.0856094219	-0.7602076465	 0.070089
H	-1.6657265597	-2.4480691142	-1.0468728373	 0.100549
H	-0.551301002	-2.514783509	 0.3192951925	 0.103627
H	-3.5934129369	-2.6082989821	 0.4410118932	 0.122121
H	-2.4432021971	-3.3331014043	 1.5596821678	 0.120304
H	-4.0953407658	-0.1935473434	 4.5001501494	 0.126029
H	-2.4764265461	 0.3300592058	 3.9257784966	 0.135888
H	-3.9239859076	 0.8021389826	 3.0149953595	 0.135914
76.5925	110.8492	122.6599	155.3705	179.5992	222.7274	239.5517	262.5898	397.5618	462.7749	478.4047	555.4215	636.0722	667.3712	792.496	832.1442	857.5329	930.5324	957.8141	986.3907	994.0838	1023.3956	1049.4887	1085.4672	1122.0162	1132.4045	1181.4273	1191.0206	1218.4685	1225.0674	1279.9043	1287.653	1291.7696	1335.0681	1348.525	1370.1437	1395.336	1407.827	1476.8945	1477.0823	1479.4126	1480.5467	1495.7091	1499.0896	1499.8602	1510.4067	1716.4366	2975.8864	3014.2174	3033.5357	3038.5974	3043.3972	3047.1557	3051.4731	3093.1584	3096.4154	3107.0327	3114.9346	3122.6887	3149.5726
CCC1CCC(OC)=N1	CC[C@H]1CC[C](OC)[N]1	
InChI=1S/C7H13NO/c1-3-6-4-5-7(8-6)9-2/h6H,3-5H2,1-2H3	InChI=1S/C7H13NO/c1-3-6-4-5-7(8-6)9-2/h6H,3-5H2,1-2H3/t6-/m0/s1
