19
gdb 36992	6.26906	0.65849	0.62463	2.7005	72.96	-0.2496	0.0654	0.315	1757.3042	0.157797	-460.094887	-460.085842	-460.084898	-460.130631	31.468	
C	 0.0661008542	 1.3332550629	-0.26279879	-0.090433
O	 0.0437338327	 0.0184009975	 0.2583718589	-0.253731
C	-1.2062551605	-0.6043119899	 0.162030238	 0.097523
C	-1.5968968771	-1.2526108478	-1.1911128133	-0.094339
O	-1.7279096114	-2.5449787477	-0.5654831654	-0.272226
C	-1.2059180921	-2.0478526808	 0.685218689	-0.099037
C	 1.4410355206	 1.9036895244	-0.0538262649	 0.083271
C	 1.6564203813	 3.3516775408	 0.0403010716	-0.181486
O	 1.6981373556	 2.5273047951	 1.2040451225	-0.224853
H	-0.1714093035	 1.3287440894	-1.3402836209	 0.095368
H	-0.6758968328	 1.9692268297	 0.2453917739	 0.099906
H	-1.9933537959	 0.0336379742	 0.5875020269	 0.07848
H	-2.5327327269	-0.9261518198	-1.6588976405	 0.102379
H	-0.7850970733	-1.228030481	-1.9309632567	 0.100437
H	-0.1943440787	-2.4168272215	 0.8951805458	 0.113624
H	-1.8658789364	-2.2756255863	 1.5289892653	 0.107152
H	 2.2541091993	 1.2758677037	-0.4189676237	 0.104151
H	 2.6085227199	 3.7752348319	-0.2752691627	 0.119511
H	 0.8057014348	 4.0298200151	-0.0219416437	 0.114303
47.0244	53.1264	79.4359	124.7238	146.3978	272.5374	327.1015	426.2125	457.3751	497.6273	740.758	809.3274	871.1188	872.6192	888.6287	949.7171	984.9181	998.2926	1027.4873	1047.91	1065.9173	1099.0744	1133.0918	1152.4329	1157.077	1162.4041	1167.2918	1174.2448	1215.6095	1268.5549	1277.9652	1293.5255	1303.4802	1343.5263	1373.8157	1416.2642	1468.4011	1497.9632	1501.0265	1526.1438	1534.7089	2959.3611	3002.2355	3004.9208	3006.3278	3026.1869	3063.9266	3078.3476	3083.3339	3116.2451	3169.1602
C(OC1COC1)C1CO1	C(OC1COC1)[C@H]1CO1	
InChI=1S/C6H10O3/c1-5(2-7-1)8-3-6-4-9-6/h5-6H,1-4H2	InChI=1S/C6H10O3/c1-5(2-7-1)8-3-6-4-9-6/h5-6H,1-4H2/t6-/m0/s1
