21
gdb 95293	2.0181	1.81015	1.43388	1.1492	77.37	-0.2455	0.0669	0.3124	1055.827	0.182723	-424.225723	-424.217031	-424.216087	-424.25877	33.974	
C	 0.1978474026	 1.5924002837	-0.1565643691	-0.421786
C	 0.2018163853	 0.0807757373	-0.0173743962	 0.091782
O	 0.9888817192	-0.4815281873	-1.0643502461	-0.267259
C	 1.2486118619	-1.8332712504	-0.6925234843	-0.109897
C	 1.5507510087	-1.770037994	 0.8006101294	-0.051794
C	 2.873967667	-1.0474933497	 1.1874573029	-0.224482
C	 2.0598165842	 0.0726759108	 1.8905679439	-0.29068
C	 0.7511154996	-0.5284943304	 1.3033824445	 0.365966
O	-0.2762870507	-0.818575313	 2.2264807811	-0.481476
H	 1.2143724102	 1.9938850125	-0.1367308487	 0.127767
H	-0.2635931057	 1.8851812273	-1.1035203616	 0.129299
H	-0.3760386837	 2.0530786843	 0.6551557925	 0.104422
H	-0.8328441634	-0.2977839951	-0.091087172	 0.068639
H	 0.3674985113	-2.4650948643	-0.8903526301	 0.0916
H	 2.0819116148	-2.1929364154	-1.303179527	 0.105054
H	 1.3497398947	-2.6938616645	 1.3436042916	 0.079226
H	 3.5541832554	-1.6123372362	 1.8274581369	 0.100242
H	 3.4257809965	-0.6941244031	 0.3129595098	 0.10848
H	 2.0601002333	-0.0276135065	 2.9787118285	 0.104007
H	 2.3068776258	 1.1046345797	 1.6309831832	 0.095017
H	-0.6413011273	 0.0151395644	 2.5435301408	 0.275875
68.6488	183.7983	207.187	215.678	265.2521	270.519	311.884	406.898	427.917	532.2228	560.486	604.5431	694.2194	733.3263	819.3184	841.7974	873.3395	885.6826	952.7799	975.5091	1000.9724	1018.5625	1049.2486	1069.5424	1113.1866	1132.115	1141.8434	1169.7204	1198.0822	1227.2752	1241.941	1248.163	1272.4735	1279.941	1324.3039	1336.7579	1350.493	1385.7564	1395.6555	1414.9614	1470.1414	1479.6854	1487.1343	1503.78	1508.5974	2948.4672	2974.963	3039.766	3061.9169	3068.001	3084.8576	3105.6843	3108.7031	3114.0196	3124.4121	3129.2912	3794.8178
CC1OCC2CCC12O	C[C@H]1OC[C@H]2CC[C@@]12O	
InChI=1S/C7H12O2/c1-5-7(8)3-2-6(7)4-9-5/h5-6,8H,2-4H2,1H3	InChI=1S/C7H12O2/c1-5-7(8)3-2-6(7)4-9-5/h5-6,8H,2-4H2,1H3/t5-,6-,7-/m1/s1
