14
gdb 25260	3.36975	1.66154	1.12067	4.7146	70.25	-0.2356	-0.0231	0.2124	993.454	0.10471	-436.760324	-436.753837	-436.752893	-436.791236	25.28	
O	-0.0081440193	-0.0331399435	 0.0043152746	-0.374047
C	 0.0486521584	 1.1659295579	 0.0095358797	 0.406365
O	-1.080268471	 1.9670676246	 0.0287635457	-0.255647
C	-0.7443186549	 3.3747476176	 0.0310915078	-0.194993
C	 0.751636581	 3.395751283	 0.010731026	 0.271271
C	 1.1691405385	 2.0922855752	-0.0013202145	 0.12005
N	 2.5332837806	 2.0580065391	-0.0202236893	-0.387404
C	 2.984176628	 3.3538029006	-0.0200411521	-0.048634
C	 1.8998602166	 4.2197610411	-0.0009209077	-0.338236
H	-1.208553518	 3.8353609497	-0.8479731645	 0.135707
H	-1.1842298035	 3.8266202599	 0.9270434002	 0.135703
H	 3.1054508226	 1.2306582239	-0.032070853	 0.281471
H	 4.0417935652	 3.567354415	-0.0334924759	 0.135951
H	 1.9605245957	 5.2969039458	 0.0035011331	 0.112443
155.1633	212.8882	258.8439	300.5999	516.331	549.2581	628.5268	629.9158	641.2138	663.798	745.9266	773.5391	778.4569	838.407	937.302	1009.4585	1023.4952	1038.6159	1072.1506	1089.2335	1168.3228	1194.188	1274.1518	1330.6282	1390.0994	1453.4581	1478.5134	1500.5732	1543.9252	1596.0109	1866.4033	3038.6892	3073.9433	3249.2521	3267.0967	3674.0427
O=C1OCC2=C1NC=C2	O=C1OCc2c1[nH]cc2	
InChI=1S/C6H5NO2/c8-6-5-4(3-9-6)1-2-7-5/h1-2,7H,3H2	InChI=1S/C6H5NO2/c8-6-5-4(3-9-6)1-2-7-5/h1-2,7H,3H2
