20
gdb 100803	3.90968	0.72707	0.70158	4.4981	76.	-0.275	0.03	0.305	1635.0109	0.168384	-440.293439	-440.282591	-440.281647	-440.329865	38.198	
C	 0.1017614131	 1.5960911091	-0.0079097233	-0.4216
C	 0.0039599578	 0.0648049434	 0.0407833202	 0.019761
C	 0.7555621197	-0.4918956489	 1.2541768976	-0.087707
O	 2.1205521839	-0.119335433	 1.1348936025	-0.424778
C	-1.4446364266	-0.4671227684	 0.0487494804	 0.1173
O	-2.1818337561	-0.0455898189	 1.1834607965	-0.425288
C	-2.1941560996	-0.1339578001	-1.2634284858	-0.385309
C	-3.5217330027	-0.7405897791	-1.3179009305	 0.273482
N	-4.5684133851	-1.226616414	-1.3704374279	-0.303063
H	 1.1487593014	 1.8949069754	 0.0660660684	 0.151181
H	-0.3031430476	 2.0124747381	-0.9350973619	 0.114391
H	-0.4261212794	 2.0588162729	 0.8352094459	 0.106904
H	 0.4978970056	-0.3428348543	-0.8518057272	 0.08733
H	 0.3051477238	-0.0950529168	 2.1752839077	 0.101612
H	 0.6465498822	-1.5879145161	 1.2803408833	 0.088216
H	 2.5740659729	-0.3727144343	 1.9436962276	 0.290416
H	-1.4087049439	-1.5587158607	 0.1395005923	 0.109727
H	-2.2828497294	 0.9119009941	 1.1465183073	 0.286682
H	-2.302490384	 0.951348846	-1.3738074304	 0.146826
H	-1.6118258961	-0.4818966143	-2.1242066829	 0.153916
60.2177	68.0652	99.8459	119.2355	215.1337	221.8092	245.9371	273.7865	296.1508	307.2292	328.3017	396.3293	412.4542	468.5302	551.9653	671.2897	829.1817	864.7888	923.7041	945.2601	950.161	1007.9316	1025.1048	1086.1155	1104.5754	1123.3914	1173.1676	1192.9342	1240.735	1269.786	1286.1909	1304.3322	1343.8121	1370.4721	1384.2904	1406.7449	1427.178	1458.0583	1462.8754	1491.8678	1514.6576	1523.641	2366.0811	2972.3676	3011.109	3026.1417	3033.1395	3041.4028	3052.2628	3085.1624	3097.3259	3137.0785	3805.5435	3837.0735
CC(CO)C(O)CC#N	C[C@@H](CO)[C@@H](O)CC#N	
InChI=1S/C6H11NO2/c1-5(4-8)6(9)2-3-7/h5-6,8-9H,2,4H2,1H3	InChI=1S/C6H11NO2/c1-5(4-8)6(9)2-3-7/h5-6,8-9H,2,4H2,1H3/t5-,6-/m0/s1
