19
gdb 109904	2.75393	1.43176	1.20563	2.8711	69.79	-0.2514	0.0438	0.2952	1081.287	0.160629	-460.115159	-460.107121	-460.106176	-460.14796	31.216	
O	-0.2156643856	 1.6143949478	-0.0195635845	-0.427057
C	-0.0278797647	 0.2605637184	 0.3509738048	-0.088795
C	-1.3208328876	-0.5296093428	 0.1647480514	-0.054468
C	-1.8867072228	-0.5560165132	-1.3044165828	 0.109522
O	-1.0938453897	 0.0225896571	-2.3156536287	-0.439749
C	-1.8561191014	-2.1034233594	-1.2711109324	 0.073054
O	-0.5802239121	-2.5783686775	-1.7673724107	-0.308719
C	-0.0893932852	-2.7839388902	-0.4120582347	-0.089596
C	-1.321600079	-2.0924675888	 0.1914875241	-0.115174
H	-0.4049460055	 1.5938514323	-0.9671912972	 0.293752
H	 0.7932423724	-0.1892221715	-0.2267426374	 0.080381
H	 0.2800884402	 0.2550643004	 1.4025047154	 0.105787
H	-2.071102155	-0.128933887	 0.8519094885	 0.08425
H	-2.8906912191	-0.1311710004	-1.3843523535	 0.091279
H	-0.43016538	-0.6508143057	-2.5337202076	 0.295
H	-2.6970491133	-2.6836448913	-1.6578020598	 0.08048
H	-0.0340483452	-3.8557266651	-0.1862134217	 0.110974
H	 0.8959706904	-2.3356189246	-0.2548296338	 0.115356
H	-1.8135759667	-2.5816894083	 1.0299690704	 0.083721
73.1842	127.3417	190.5771	252.0515	278.5334	339.485	458.0135	521.3619	545.7749	588.6619	611.8361	681.2837	771.5193	807.0342	851.823	904.7506	920.7944	964.2757	997.0466	1011.3002	1030.1179	1067.2741	1080.5084	1114.2969	1139.7018	1152.9213	1184.4274	1197.6319	1217.6281	1245.2827	1256.0588	1292.0898	1304.7449	1332.3561	1336.9042	1363.9351	1407.9829	1439.5014	1441.5443	1505.3013	1523.8276	2987.8427	3027.4056	3057.694	3067.8189	3077.6378	3085.0132	3087.8201	3129.5422	3696.9436	3759.6265
OCC1C(O)C2OCC12	OC[C@H]1[C@@H](O)[C@H]2OC[C@@H]12	
InChI=1S/C6H10O3/c7-1-3-4-2-9-6(4)5(3)8/h3-8H,1-2H2	InChI=1S/C6H10O3/c7-1-3-4-2-9-6(4)5(3)8/h3-8H,1-2H2/t3-,4+,5-,6+/m1/s1
