16
gdb 78082	3.22162	1.36652	1.14308	4.9257	69.66	-0.2586	-0.001	0.2575	1078.7982	0.122543	-437.846528	-437.837975	-437.837031	-437.879468	31.625	
C	-0.0718239352	 1.5094325368	 0.0405672289	-0.495175
C	 0.0736338308	 0.0248479627	 0.0480253961	 0.437828
O	-1.1332692005	-0.7465197474	-0.0888619476	-0.307803
C	-0.667758427	-1.7004003704	 0.8877135209	-0.005947
C	-0.6886098022	-3.0964170935	 0.4315376374	 0.277534
N	-0.6944411097	-4.2139321975	 0.137110247	-0.329649
C	 0.6868753165	-1.0058959459	 1.0116680745	-0.285229
C	 1.252551623	-0.7850290799	-0.378725577	 0.052473
O	 1.1364070569	-1.6986100736	-1.4152441988	-0.410426
H	 0.8979404244	 1.9906042194	 0.1936897413	 0.131309
H	-0.4672549918	 1.8406019628	-0.9259327743	 0.148777
H	-0.7591370085	 1.8422965654	 0.8237358233	 0.134569
H	-1.2658614585	-1.6238168884	 1.8027800747	 0.134984
H	 1.2545463627	-0.9105531676	 1.9274980436	 0.113875
H	 2.1876409556	-0.2213514617	-0.3491219695	 0.101375
H	 1.5739683335	-2.5200478111	-1.1656565605	 0.301506
110.6248	134.8159	195.0863	222.3603	240.551	275.1823	295.0843	330.1555	467.6223	517.5856	587.4528	620.7988	675.5815	769.5585	818.7267	912.2924	929.9438	944.9334	971.5753	1017.3268	1040.609	1063.2095	1108.6869	1172.3423	1200.7861	1254.9704	1273.6259	1306.3743	1329.8661	1356.871	1413.1275	1473.8849	1484.4618	1507.2409	2355.1744	3038.9966	3047.063	3085.522	3106.4476	3123.2482	3203.8846	3806.4568
CC12OC(C#N)C1C2O	C[C@]12O[C@@H](C#N)[C@H]1[C@H]2O	
InChI=1S/C6H7NO2/c1-6-4(5(6)8)3(2-7)9-6/h3-5,8H,1H3	InChI=1S/C6H7NO2/c1-6-4(5(6)8)3(2-7)9-6/h3-5,8H,1H3/t3-,4-,5+,6-/m0/s1
