17
gdb 35230	3.1748	1.23462	1.0657	0.6815	75.22	-0.2376	0.0396	0.2772	1152.1228	0.135066	-421.771845	-421.763571	-421.762627	-421.80521	30.997	
C	-0.0766843087	-1.0868775353	-0.2638035028	-0.460746
C	-0.0207230879	 0.10924304	-0.1385603766	 0.334315
C	 0.0825923788	 1.5279108991	 0.0056250192	-0.286186
C	 0.5304095341	 2.1448753581	 1.3386250463	-0.36274
C	 1.4494379498	 2.1981433902	 0.1795817984	 0.397666
C	 2.7691683214	 1.4398239992	 0.0288326558	-0.169543
O	 3.5359149068	 2.2671193695	-0.8459602403	-0.247551
C	 2.6353339678	 3.1827891098	-1.4191799863	 0.012528
O	 1.6500155826	 3.4393869516	-0.4394693415	-0.264827
H	-0.142016182	-2.1409211469	-0.3732751395	 0.198643
H	-0.632475478	 2.1210952368	-0.5563132315	 0.123958
H	 0.0467660243	 3.0695348552	 1.6321949772	 0.135796
H	 0.7634752975	 1.4625148315	 2.1483832694	 0.133263
H	 3.3132529046	 1.3444981899	 0.9737537377	 0.117996
H	 2.6123363023	 0.4417572284	-0.3979632723	 0.125305
H	 3.1582785833	 4.1139427686	-1.6508306218	 0.12313
H	 2.1692209232	 2.7624543443	-2.3283989014	 0.088993
55.817	124.1541	131.687	225.6701	294.0752	329.3694	411.9691	515.0868	519.8043	564.4557	592.8725	656.8667	744.3044	797.78	811.2575	869.8253	900.0208	950.4884	968.2487	1027.9744	1056.5253	1083.6954	1090.2122	1112.8387	1118.2096	1175.1981	1215.5815	1232.1427	1243.204	1315.7585	1361.4441	1394.1124	1435.5614	1478.2626	1524.8523	1541.6149	2230.2591	2943.2864	3029.3521	3076.9681	3101.6078	3139.36	3157.0755	3234.4011	3503.9741
C#CC1CC11COCO1	C#C[C@H]1C[C@]21COCO2	
InChI=1S/C7H8O2/c1-2-6-3-7(6)4-8-5-9-7/h1,6H,3-5H2	InChI=1S/C7H8O2/c1-2-6-3-7(6)4-8-5-9-7/h1,6H,3-5H2/t6-,7+/m0/s1
