14
gdb 49843	2.23668	1.65809	1.1329	3.791	64.86	-0.2618	-0.053	0.2087	1048.5723	0.098486	-473.823189	-473.814917	-473.813972	-473.857044	28.708	
N	 0.0046788851	 1.3122356493	-0.4421228199	-0.535352
C	 0.0163307567	 0.1137954932	-0.0890856574	 0.447277
O	 1.0060407802	-0.6872351559	 0.4305343442	-0.233474
C	 0.1122365498	-1.8315859991	 0.538155909	 0.017224
C	-0.0142084355	-2.3540607208	 1.9608928769	 0.154642
O	 0.5544961506	-1.8657469566	 2.8974960954	-0.231801
C	-1.0414060733	-0.9846085447	-0.0626925337	-0.27174
C	-2.2624060126	-0.6941504876	 0.7778498004	 0.147337
O	-2.5436276146	-1.2909544132	 1.7843364058	-0.225908
H	 0.9113602606	 1.7617739987	-0.3071603224	 0.243881
H	 0.4448219335	-2.6483824883	-0.1133480946	 0.121873
H	-0.6383092064	-3.2674663743	 2.0424449977	 0.096803
H	-1.3584662483	-1.2777568865	-1.0685222285	 0.143054
H	-2.8909362459	 0.1322916359	 0.388852717	 0.126184
58.5195	103.0499	109.8475	188.2327	249.0113	255.3921	351.85	436.6848	600.829	644.8849	689.6753	761.8819	799.0817	846.316	864.35	955.1086	994.5234	1013.8972	1030.2682	1066.7155	1095.9434	1171.0514	1205.2247	1278.5607	1310.189	1355.0249	1408.1693	1416.605	1814.6705	1834.0654	1846.9016	2923.3769	2937.451	3048.5337	3075.746	3488.8532
N=C1OC(C=O)C1C=O	[NH][C]1O[C@@H](C=O)[C@H]1C=O	
InChI=1S/C5H5NO3/c6-5-3(1-7)4(2-8)9-5/h1-4,6H	InChI=1S/C5H5NO3/c6-5-3(1-7)4(2-8)9-5/h1-4,6H/t3-,4+/m1/s1
