25
gdb 122977	5.54499	0.46768	0.44684	2.283	87.44	-0.2502	0.0772	0.3274	2489.4941	0.226012	-426.616623	-426.604584	-426.60364	-426.655193	41.651	
C	-0.0703460226	 1.4233120933	 0.051707608	-0.226421
O	 0.0155681835	 0.0215915426	-0.0064116375	-0.230259
C	 0.6564822171	-0.5380118865	 1.1194799824	-0.04851
C	 0.6966746344	-2.0517047687	 0.957297882	-0.206623
C	 1.3965144819	-2.7466001258	 2.1305763095	-0.192651
C	 1.369763716	-4.2837707567	 2.0688213755	 0.037493
C	 2.1272468634	-4.8488954486	 0.8601840561	-0.391035
C	 1.9205109812	-4.8660886238	 3.3722522976	-0.078832
O	 1.741163686	-6.2753940457	 3.3515114012	-0.423709
H	 0.9249971598	 1.8944385359	 0.098959033	 0.100463
H	-0.5758616937	 1.7601869197	-0.8568832144	 0.124953
H	-0.6487862955	 1.7639665464	 0.9259387633	 0.100543
H	 1.6801338329	-0.1339682352	 1.2175742766	 0.080498
H	 0.1165949474	-0.2636214681	 2.0434719076	 0.080384
H	-0.3323541185	-2.4194964078	 0.8617949487	 0.104883
H	 1.2005564853	-2.2803080902	 0.0123578845	 0.111163
H	 2.4411194834	-2.406990264	 2.1853583164	 0.091422
H	 0.9221518016	-2.4223553112	 3.0675231298	 0.089118
H	 0.3213152195	-4.607140155	 2.0016925794	 0.081426
H	 2.146694285	-5.9399938334	 0.9039117981	 0.133063
H	 1.663643373	-4.552713745	-0.0846104396	 0.113794
H	 3.1649899675	-4.4917636572	 0.8506069558	 0.102981
H	 2.9877482513	-4.6034596261	 3.4694737272	 0.080067
H	 1.3926591459	-4.4164072287	 4.22887111	 0.080014
H	 2.1599045241	-6.6443222102	 4.1340661188	 0.285775
48.3381	54.0333	84.078	108.5757	128.3032	134.9775	219.4916	233.8285	239.6647	241.3614	257.3877	316.7504	381.0183	425.2602	503.8767	534.8986	755.2823	833.8505	869.1416	925.1964	943.1034	988.0395	1018.9687	1040.1542	1055.4804	1084.0315	1113.2428	1164.9982	1170.7446	1174.9912	1192.6959	1214.1036	1230.4459	1248.5671	1269.7425	1291.0101	1304.2115	1318.3262	1337.0121	1382.6084	1390.7779	1408.4461	1426.3824	1458.2732	1481.7148	1483.0642	1485.5816	1495.741	1498.6811	1507.3986	1508.	1520.6676	1532.8063	2936.0284	2953.0474	2961.0697	2965.4771	2981.8528	2997.5173	3005.6373	3010.7082	3027.6106	3033.009	3038.2798	3085.6078	3100.0098	3110.2925	3130.1407	3836.0512
COCCCC(C)CO	COCCC[C@@H](C)CO	
InChI=1S/C7H16O2/c1-7(6-8)4-3-5-9-2/h7-8H,3-6H2,1-2H3	InChI=1S/C7H16O2/c1-7(6-8)4-3-5-9-2/h7-8H,3-6H2,1-2H3/t7-/m1/s1
