15
gdb 57167	3.20895	1.23212	0.89754	3.4978	71.65	-0.2525	-0.073	0.1795	1209.0362	0.112432	-450.166488	-450.157326	-450.156382	-450.200855	32.692	
C	-1.2612553488	 0.9188388461	-0.3137547495	-0.340922
N	-0.1805611472	-0.0202036203	 0.0250057625	-0.176245
C	-0.1792405503	-0.4753011312	 1.38738872	 0.446628
N	 0.9070275626	-1.2067615119	 1.7740533899	-0.560839
N	-1.171243073	-0.0949792495	 2.0963878688	-0.555514
C	 0.7037806685	-0.4600914453	-0.9185589685	 0.399871
O	 1.6069656668	-1.2673071752	-0.7703604276	-0.369733
C	 0.5347633602	 0.1146460029	-2.266416675	 0.222084
N	 0.4964185457	 0.4967500171	-3.3565637567	-0.321506
H	-1.1366286686	 1.2556465282	-1.3407632746	 0.167
H	-2.2289501615	 0.430586293	-0.1943084185	 0.163782
H	-1.2246525814	 1.7700574805	 0.3654845472	 0.164523
H	 1.4975261258	-1.6057047517	 1.0565677107	 0.290216
H	 0.8280371509	-1.6863582094	 2.6545811922	 0.255394
H	-1.0930938998	-0.4416787434	 3.050068419	 0.21526
65.2212	70.4906	142.8534	173.6458	244.3837	326.6813	334.1779	390.4257	399.0364	434.2171	483.3097	549.5184	576.3977	634.1766	718.1114	731.4217	761.4028	807.9638	923.4539	1106.862	1117.8414	1136.1857	1158.1011	1205.8001	1393.002	1422.7163	1467.7585	1473.9391	1515.685	1608.4045	1718.3078	1748.2912	2346.8901	3082.7421	3156.4585	3182.9928	3513.2221	3531.2109	3698.5491
CN(C(N)=N)C(=O)C#N	CN(C(=N)N)C(=O)C#N	
InChI=1S/C4H6N4O/c1-8(4(6)7)3(9)2-5/h1H3,(H3,6,7)	InChI=1S/C4H6N4O/c1-8(4(6)7)3(9)2-5/h1H3,(H3,6,7)
