12
gdb 52465	159.6551	0.3771	0.3771	7.3662	130.86	-0.254	-0.0911	0.1628	2674.1664	0.076809	-361.170924	-361.161882	-361.160938	-361.205111	29.965	
C	-0.0181762936	 1.4817363386	 0.0102181057	-0.519482
C	 0.0016174366	 0.0335497122	 0.0021942071	 0.127217
C	 0.0181621345	-1.1800028783	-0.0045013254	-0.46634
C	 0.0367092493	-2.5268342656	-0.0119295562	 0.218706
C	 0.0533313174	-3.7485282793	-0.0186559397	 0.53413
C	 0.0712544131	-5.0899397215	-0.0260423139	-0.416615
C	 0.087569853	-6.3091363367	-0.0327564636	 0.298812
C	 0.1058130734	-7.6658216846	-0.0400599431	 0.036025
N	 0.1214618257	-8.8301903154	-0.0463446702	-0.325481
H	 0.999536046	 1.8875975336	 0.0027051496	 0.171008
H	-0.5435209254	 1.8713369999	-0.8688344093	 0.17101
H	-0.5265997198	 1.8617576072	 0.903306659	 0.171008
47.3792	47.6028	127.7405	127.9434	236.5306	236.6771	358.3425	358.525	419.0343	509.5298	509.5483	587.4091	587.4104	742.3309	742.3402	787.018	1042.4353	1042.8117	1106.1045	1395.2014	1419.2186	1464.171	1464.3587	2184.51	2287.648	2307.129	2360.6327	3027.6653	3093.8312	3093.97
CC#CC#CC#CC#N	CC#CC#CC#CC#N	
InChI=1S/C8H3N/c1-2-3-4-5-6-7-8-9/h1H3	InChI=1S/C8H3N/c1-2-3-4-5-6-7-8-9/h1H3
