27
gdb 123146	5.31964	0.4537	0.43206	0.8304	95.09	-0.2477	0.0846	0.3323	2673.018	0.249325	-390.701464	-390.689262	-390.688318	-390.740336	42.941	
C	-0.0233828104	 1.5333744512	 0.026493455	-0.383982
C	-0.0400443069	 0.0138778514	 0.0159261079	-0.026195
O	 0.6905849934	-0.4535298708	 1.1291828105	-0.243714
C	 0.7379321825	-1.860931703	 1.217532256	-0.049112
C	 1.5562524441	-2.2493463537	 2.4421106645	-0.207987
C	 1.6745779628	-3.768181142	 2.6092622534	-0.1681
C	 2.4059750825	-4.2258987024	 3.8850884081	 0.043057
C	 2.3024355522	-5.7488412618	 4.0447864543	-0.388557
C	 3.8749195757	-3.78072063	 3.9127147088	-0.380927
H	 1.0035028968	 1.9058932667	-0.0288005875	 0.125338
H	-0.5831511775	 1.9282120891	-0.82671554	 0.112275
H	-0.4759886849	 1.9150995285	 0.9461369638	 0.12535
H	-1.0775871692	-0.3611638832	 0.0549590576	 0.081917
H	 0.4020815316	-0.370931657	-0.9195703639	 0.081939
H	-0.2833271893	-2.2756168598	 1.2898070495	 0.079981
H	 1.1896133393	-2.2874452653	 0.3040589465	 0.080139
H	 2.545363283	-1.7882386241	 2.3498785998	 0.107951
H	 1.0859849741	-1.8080987534	 3.3298267917	 0.101861
H	 0.666221076	-4.2046754297	 2.611796553	 0.088268
H	 2.1859762014	-4.195757816	 1.7342696102	 0.089355
H	 1.8966587417	-3.7625896768	 4.7429281977	 0.070675
H	 2.7884051965	-6.2641222899	 3.2072737775	 0.110191
H	 2.7887163579	-6.0855576542	 4.9663896071	 0.108233
H	 1.2584348349	-6.0782554935	 4.0759074278	 0.107836
H	 4.4240379352	-4.1964635452	 3.0587881939	 0.109047
H	 3.9774032426	-2.6924408955	 3.8774578334	 0.116357
H	 4.370543294	-4.1290978996	 4.8249710737	 0.108803
42.4131	49.8883	78.3023	101.7484	116.3234	160.8678	198.4356	227.2142	244.8944	251.045	262.3857	342.5124	396.7259	418.8152	496.5111	503.0393	757.2656	818.9044	822.0992	863.6663	896.4512	927.2384	951.4496	967.0289	1019.4202	1040.1293	1050.544	1067.4235	1130.7205	1160.6766	1173.8325	1180.0469	1192.5825	1202.5799	1239.0742	1278.7692	1294.5364	1306.2572	1320.4065	1346.3991	1372.4911	1385.8092	1395.5722	1401.3677	1409.275	1423.5175	1453.5168	1479.2628	1483.7545	1489.6312	1495.1104	1498.5596	1501.1806	1505.3524	1512.6252	1518.1432	1538.9045	2935.3139	2951.427	2962.4158	2969.9987	2992.3336	3000.1221	3021.7768	3027.6798	3030.9667	3036.0675	3044.2116	3083.0768	3086.0953	3092.241	3097.4762	3108.1635	3118.4506	3120.5058
CCOCCCC(C)C	CCOCCCC(C)C	
InChI=1S/C8H18O/c1-4-9-7-5-6-8(2)3/h8H,4-7H2,1-3H3	InChI=1S/C8H18O/c1-4-9-7-5-6-8(2)3/h8H,4-7H2,1-3H3
