14
gdb 132103	3.04697	1.4175	0.97328	4.5285	69.64	-0.2326	-0.0584	0.1742	1120.4773	0.099801	-481.857191	-481.849426	-481.848482	-481.889838	28.445	
C	-0.0232713905	 1.5750109808	 0.0175002377	-0.502608
C	-0.016071721	 0.0705987835	 0.0114629295	-0.032556
C	-0.1477003703	-0.6639344142	-1.118092953	 0.380444
F	-0.293630643	-0.1284403175	-2.31263229	-0.036899
O	-0.1495010239	-1.9793799374	-1.1885854095	-0.241664
C	-0.0055190179	-2.8162524881	-0.0248715116	 0.438455
O	-0.0213957273	-3.9973122483	-0.2103251279	-0.327208
C	 0.1368845041	-2.0674522342	 1.1970204741	-0.278831
C	 0.1304619834	-0.709456722	 1.2011166438	-0.075732
H	 0.9125938132	 1.974194555	 0.4239265963	 0.138607
H	-0.1469597642	 1.9704722044	-0.991827432	 0.145068
H	-0.8401626855	 1.964788453	 0.6348752495	 0.138602
H	 0.2482119466	-2.65154741	 2.10069174	 0.129791
H	 0.2407390362	-0.1801757348	 2.1436802431	 0.124531
93.2708	109.6089	202.4135	279.3501	282.2449	354.4123	435.3995	461.1504	512.1819	583.2494	687.8968	721.916	744.1018	775.6203	834.5829	861.1608	997.9645	999.9587	1066.8574	1070.0668	1151.3452	1236.6561	1281.6623	1378.3456	1423.6808	1450.1951	1491.0298	1496.9071	1577.1647	1713.1805	1871.1808	3034.8234	3085.067	3140.4236	3173.5301	3229.0197
CC1=C(F)OC(=O)C=C1	Cc1c(F)oc(=O)cc1	
InChI=1S/C6H5FO2/c1-4-2-3-5(8)9-6(4)7/h2-3H,1H3	InChI=1S/C6H5FO2/c1-4-2-3-5(8)9-6(4)7/h2-3H,1H3
