19
gdb 94814	2.38674	1.69213	1.28243	1.6166	70.25	-0.2506	0.0684	0.319	1045.4777	0.158834	-460.144076	-460.135568	-460.134624	-460.177038	32.661	
C	 0.793556988	 1.3007012002	-0.2038887987	-0.413931
C	-0.1179453623	 0.1151075	 0.1017441822	 0.085509
O	-0.147695209	-0.8465555143	-0.9618140222	-0.276213
C	 0.8990275348	-1.7995683432	-0.7817579631	-0.147945
C	 1.3469693392	-1.6602368702	 0.6616703692	 0.336224
C	 2.2139454429	-2.5691359683	 1.4041723696	-0.250782
O	 2.7197970831	-1.3106343606	 0.9192376262	-0.281029
C	 0.3381983767	-0.7209019048	 1.3244495853	 0.045831
O	 0.8801619317	-0.0165713939	 2.408701597	-0.437886
H	 1.8334320338	 0.9860079423	-0.3401689917	 0.126807
H	 0.4630831803	 1.7968325707	-1.1200791321	 0.123258
H	 0.7612557705	 2.0205634063	 0.6187260622	 0.12887
H	-1.148612022	 0.4622409949	 0.2206372127	 0.084639
H	 0.4940141475	-2.7934332571	-1.0031115489	 0.113733
H	 1.7457637037	-1.6104968494	-1.4556395284	 0.115863
H	 2.1131296658	-2.6377377876	 2.4861477904	 0.129695
H	 2.6308932335	-3.4477391008	 0.9146355003	 0.125054
H	-0.5178464126	-1.2991797422	 1.6917803102	 0.097723
H	 1.8311407142	 0.0452360679	 2.2345259697	 0.294578
83.8632	122.6629	224.8978	245.2538	253.7276	299.0193	376.2171	404.6889	444.6324	492.4004	547.8294	583.636	721.432	756.9272	810.4457	848.5561	883.7929	932.8373	960.8876	1028.9716	1047.5825	1083.7404	1110.1558	1123.8268	1131.6647	1151.8048	1175.0246	1204.1521	1242.1339	1264.2342	1318.4178	1333.1655	1355.3656	1384.6203	1407.3302	1428.785	1453.3716	1492.3309	1496.1993	1512.7016	1527.9438	3011.3257	3039.9882	3043.3333	3059.5104	3066.5651	3088.3509	3116.6009	3126.6023	3177.7841	3722.7563
CC1OCC2(CO2)C1O	C[C@H]1OC[C@]2(CO2)[C@H]1O	
InChI=1S/C6H10O3/c1-4-5(7)6(2-8-4)3-9-6/h4-5,7H,2-3H2,1H3	InChI=1S/C6H10O3/c1-4-5(7)6(2-8-4)3-9-6/h4-5,7H,2-3H2,1H3/t4-,5+,6+/m1/s1
