19
gdb 93635	3.1867	1.24019	1.00964	4.4518	75.49	-0.2412	0.0245	0.2657	1200.9814	0.160201	-419.219642	-419.210541	-419.209596	-419.253551	33.813	
C	-0.3065730609	 1.5266089461	 0.0481407318	-0.414077
C	 0.0797385574	 0.0501050357	 0.047163646	 0.013737
C	 0.9139182059	-0.4141566957	-1.1606909679	-0.169357
N	 1.5651656773	-1.6727820376	-0.7490513347	-0.297675
C	 1.4898455322	-1.7746322738	 0.7165396437	-0.166454
C	 2.7900225208	-2.0950179097	 1.3258691491	 0.291531
N	 3.7958797043	-2.3059706114	 1.8555387025	-0.333561
C	 0.9755107616	-0.3855417652	 1.2178633428	 0.106392
O	 2.0148685241	 0.5586771357	 1.3491065554	-0.426733
H	 0.5842335911	 2.1582874179	 0.0402013492	 0.144821
H	-0.9113194737	 1.7671266391	-0.8321055697	 0.113657
H	-0.8937655521	 1.782016032	 0.9358447908	 0.11658
H	-0.827860293	-0.5670356717	 0.0967016937	 0.072499
H	 0.3109609098	-0.5701672017	-2.0595058334	 0.102143
H	 1.6757417031	 0.3387333523	-1.3952430551	 0.122697
H	 1.132905935	-2.4769389325	-1.1812595013	 0.230239
H	 0.7814725473	-2.5480032761	 1.0443610528	 0.115485
H	 0.4216950484	-0.502087814	 2.1597612238	 0.076437
H	 2.6860813016	 0.2071206606	 1.9460230804	 0.301638
57.8005	134.3336	149.7261	212.7367	230.3506	260.5141	316.8643	350.0881	385.1284	466.2902	548.8607	567.4575	605.4609	663.1639	819.6119	842.4089	862.3088	927.371	930.9137	977.5588	1010.5525	1033.0119	1086.7803	1118.5926	1145.0217	1172.458	1213.2987	1248.8276	1283.6151	1316.4575	1322.1941	1352.1437	1363.5046	1391.9736	1408.5274	1427.4695	1452.2175	1495.4696	1503.0359	1509.5407	2350.513	2999.6384	3007.0172	3020.2608	3035.5244	3042.4992	3090.0155	3103.3842	3134.1293	3582.5597	3790.7833
CC1CNC(C#N)C1O	C[C@H]1CN[C@@H](C#N)[C@H]1O	
InChI=1S/C6H10N2O/c1-4-3-8-5(2-7)6(4)9/h4-6,8-9H,3H2,1H3	InChI=1S/C6H10N2O/c1-4-3-8-5(2-7)6(4)9/h4-6,8-9H,3H2,1H3/t4-,5-,6-/m0/s1
