20
gdb 90557	2.65031	1.30079	1.03545	2.7251	79.11	-0.2304	-0.0253	0.2051	1207.8907	0.169979	-403.106372	-403.09747	-403.096526	-403.14024	33.281	
C	 0.3881983963	 1.8181143338	 0.4444311637	-0.428745
C	 0.1680271164	 0.3285380061	 0.2395534035	 0.097231
C	 0.7062327155	-0.4552938439	-0.9901658922	-0.29373
C	 1.2623373953	-1.4633318911	 0.0157509507	-0.047507
C	 2.2295653696	-0.8575118266	 0.9481514646	 0.006238
C	 3.2729148277	 0.1856599309	 0.5833154717	-0.331843
C	 3.6261970776	 1.0810378436	 1.7527834767	 0.177652
O	 3.6255447659	 2.2846405716	 1.7166646133	-0.238943
N	 0.7871659043	-0.6501391143	 1.220278351	-0.172394
H	 1.4265133092	 2.1394072443	 0.3540116022	 0.142731
H	-0.2038312674	 2.3780559401	-0.2883620181	 0.115874
H	 0.0402616502	 2.1077443235	 1.4417839721	 0.129622
H	-0.9066994134	 0.138650791	 0.3222487104	 0.092348
H	-0.0837059625	-0.855717031	-1.6273445099	 0.110988
H	 1.4435903543	 0.0412274177	-1.6284249853	 0.104953
H	 1.1068491243	-2.5368192756	-0.0376711374	 0.09603
H	 2.6063860779	-1.5570195305	 1.6943185887	 0.101337
H	 4.1888848487	-0.3620156267	 0.3129731655	 0.127096
H	 2.9981416633	 0.806043789	-0.2689226323	 0.127682
H	 3.9019211269	 0.536833998	 2.685368971	 0.08338
78.4502	89.8652	144.9916	211.3837	221.3171	260.538	316.867	386.873	450.5201	508.4429	602.5301	657.4165	720.8218	760.1243	797.846	847.9841	866.7349	937.1597	954.4042	990.6843	1016.2836	1065.2356	1081.4206	1104.2998	1118.3092	1137.1779	1146.3533	1191.2363	1221.9278	1249.3285	1269.5511	1286.5895	1307.7234	1358.7282	1396.6029	1413.983	1428.9409	1448.3941	1459.5007	1495.34	1498.5695	1502.0622	1831.903	2870.1993	3005.1973	3037.2804	3048.8647	3053.8285	3097.3229	3106.5583	3117.7275	3138.0126	3148.6857	3153.9204
CC1CC2C(CC=O)N12	C[C@H]1C[C@H]2[C@@H](CC=O)N12	
InChI=1S/C7H11NO/c1-5-4-7-6(2-3-9)8(5)7/h3,5-7H,2,4H2,1H3	InChI=1S/C7H11NO/c1-5-4-7-6(2-3-9)8(5)7/h3,5-7H,2,4H2,1H3/t5-,6+,7-,8?/m0/s1
