19
gdb 97061	3.20375	1.19921	0.90688	5.129	80.86	-0.2304	-0.0496	0.1808	1309.0711	0.158954	-419.239415	-419.230034	-419.22909	-419.273755	33.877	
C	-0.1946699794	 1.4548733637	-0.0231055433	-0.338211
N	 0.0075718989	 0.0219055278	 0.0850587674	-0.289549
C	 0.5910912921	-0.5540513199	-0.8884403431	 0.296267
N	 1.058158165	-0.0406074969	-2.082394334	-0.353776
C	 1.9019104182	-0.9707053707	-2.8319501118	-0.191837
C	 1.468946483	-2.3535467063	-2.3087249037	-0.088901
C	 2.5424698784	-3.4363078731	-2.2870102181	-0.403381
C	 0.8817468564	-2.0427130493	-0.927430275	 0.333786
O	 0.6972631961	-2.8306059891	-0.0397250219	-0.298289
H	 0.7550608674	 2.0065812082	-0.1295035571	 0.103704
H	-0.8221978156	 1.7197754517	-0.8891652541	 0.113642
H	-0.690978079	 1.8257094993	 0.8765993953	 0.130171
H	 1.1845013517	 0.9523932538	-2.1920357695	 0.251273
H	 1.7435313553	-0.8568973767	-3.9086296671	 0.11653
H	 2.970877954	-0.8046999882	-2.6312540465	 0.110805
H	 0.6150480479	-2.6959750484	-2.9110062349	 0.120201
H	 3.4240387917	-3.1037748959	-1.7292666884	 0.124269
H	 2.1547844933	-4.3311156296	-1.7939821012	 0.146354
H	 2.8604002247	-3.7039373405	-3.2990001827	 0.116942
63.4591	122.6222	164.5017	185.9358	195.237	204.8846	249.8203	343.481	359.6429	443.5389	501.7397	588.721	618.5329	676.43	759.4305	790.4646	905.7204	937.4666	966.3412	1046.1712	1069.6785	1088.8255	1104.1394	1137.6496	1149.9588	1180.5605	1210.2596	1264.9694	1296.2438	1331.9367	1356.24	1410.2121	1428.6116	1443.5073	1491.8497	1496.0636	1497.87	1503.6107	1530.2544	1743.2309	1856.8599	2954.1849	2991.1329	3001.6865	3012.1408	3041.871	3069.7644	3105.2368	3108.6037	3128.1082	3643.2047
CN=C1NCC(C)C1=O	CN=C1NC[C@@H](C)C1=O	
InChI=1S/C6H10N2O/c1-4-3-8-6(7-2)5(4)9/h4H,3H2,1-2H3,(H,7,8)	InChI=1S/C6H10N2O/c1-4-3-8-6(7-2)5(4)9/h4H,3H2,1-2H3,(H,7,8)/t4-/m1/s1
