14
gdb 43232	3.62588	1.25487	0.98515	3.97	80.61	-0.241	-0.0803	0.1607	1131.2714	0.100994	-399.513084	-399.505697	-399.504753	-399.545016	28.332	
O	 0.1199921935	-0.0403301501	-0.0760300542	-0.330991
C	 0.0334645997	 1.1626778604	-0.0099862822	 0.460592
C	-1.207356056	 1.9750795535	 0.0880684154	-0.335329
C	-0.9222477587	 3.2943981978	 0.0213314136	 0.255696
C	-1.8279948468	 4.3738190312	 0.0579278004	 0.219271
C	-2.5676331684	 5.3254377935	 0.0718320784	-0.390978
C	 0.5722517949	 3.5031520533	-0.055426547	-0.180191
N	 1.2417538126	 3.0003986535	 1.1687234723	-0.322524
C	 1.1825646255	 2.1593303482	-0.0631337344	-0.179318
H	-2.1883102805	 1.5359780331	 0.2071309631	 0.127617
H	-3.2324765544	 6.1537473913	 0.0930370839	 0.206827
H	 0.9800619756	 4.3529609736	-0.5887978653	 0.112685
H	 2.1768990862	 3.4052484545	 1.2244232404	 0.241287
H	 2.0935148267	 1.9076938462	-0.5919026742	 0.115357
112.5683	142.7621	188.7064	314.2284	374.6571	426.3846	500.4896	537.9917	611.4269	638.9402	640.9611	688.3589	745.8546	833.3231	842.7377	850.0483	885.5697	915.7604	925.4594	1029.2424	1119.0509	1144.7332	1150.6814	1183.8055	1255.2417	1289.6821	1346.8204	1385.1328	1621.271	1817.5034	2219.3081	3192.1894	3201.8976	3236.5766	3462.9214	3499.1315
O=C1C=C(C#C)C2NC12	O=C1C=C(C#C)[C@H]2N[C@@H]12	
InChI=1S/C7H5NO/c1-2-4-3-5(9)7-6(4)8-7/h1,3,6-8H	InChI=1S/C7H5NO/c1-2-4-3-5(9)7-6(4)8-7/h1,3,6-8H/t6-,7+/m1/s1
