16
gdb 86692	2.21175	1.49436	1.03942	4.2599	69.35	-0.2654	-0.0532	0.2122	1147.4989	0.121996	-437.885452	-437.876415	-437.875471	-437.92054	31.294	
C	 0.1228462272	 1.5991722782	 0.0149144248	-0.409419
C	-0.0001820484	 0.0965373791	 0.1025834108	 0.152494
O	 0.7182578573	-0.5925067516	-0.9486778321	-0.294113
C	 1.39553014	-1.4558571666	-0.0295249948	 0.04766
C	 2.9072277779	-1.4234557568	-0.1980774717	 0.136017
O	 3.623482968	-2.3222083936	 0.1505610322	-0.22487
C	 0.7999631192	-0.6866945118	 1.1981398069	-0.268447
C	 1.7273122655	 0.0867016012	 2.0063179273	 0.301645
N	 2.4607125312	 0.7160106819	 2.6408488429	-0.324479
H	 1.1674375008	 1.9170775855	 0.0596385586	 0.144512
H	-0.3077278881	 1.9429947954	-0.9301867566	 0.139745
H	-0.4230866224	 2.0756548738	 0.8354121993	 0.135346
H	-1.054646403	-0.2071878086	 0.1026236902	 0.098871
H	 1.0520618753	-2.4955531174	-0.0806134527	 0.11667
H	 3.2873838192	-0.4917663397	-0.6698345369	 0.104633
H	 0.1868271904	-1.3107763292	 1.8496231117	 0.143735
41.0774	54.2358	128.7627	155.8395	217.7247	275.4585	331.1551	349.0958	416.3802	456.1726	547.8465	608.1885	765.165	809.5708	850.3461	905.0346	972.2184	998.224	1050.9761	1096.6505	1103.3336	1116.0868	1159.1932	1188.1897	1251.3579	1292.9344	1308.8429	1345.3435	1384.2989	1401.6705	1417.8265	1479.8539	1490.2407	1838.0458	2356.2579	2910.3752	3024.9826	3045.1055	3048.0627	3108.4507	3118.5114	3131.0784
CC1OC(C=O)C1C#N	C[C@H]1O[C@@H](C=O)[C@H]1C#N	
InChI=1S/C6H7NO2/c1-4-5(2-7)6(3-8)9-4/h3-6H,1H3	InChI=1S/C6H7NO2/c1-4-5(2-7)6(3-8)9-4/h3-6H,1H3/t4-,5+,6+/m1/s1
