16
gdb 13306	5.64257	1.2706	1.09948	2.1115	72.46	-0.2339	0.0098	0.2437	1060.7092	0.129488	-346.569494	-346.561738	-346.560794	-346.602121	28.419	
C	-0.0430674794	-1.2091793464	-0.0827615087	-0.442442
C	-0.023817047	-0.0077402293	-0.0905528873	 0.309711
C	 0.0120437925	 1.4481934147	-0.0788186515	-0.358793
C	 1.4330580641	 2.0211844204	 0.1359124721	 0.092566
O	 2.2783969543	 1.6730733014	-0.9591206151	-0.26818
C	 2.8196339098	 2.8430094148	-1.5669481992	-0.112895
C	 2.2426600327	 3.9913868648	-0.7890960592	-0.095521
C	 1.4659384086	 3.5266464046	 0.1816858454	-0.09984
H	-0.0608148125	-2.2705876896	-0.0859534275	 0.19326
H	-0.3794290943	 1.8471985424	-1.0221045541	 0.131719
H	-0.6385941405	 1.8257700896	 0.7212796783	 0.12363
H	 1.8400865522	 1.5763675073	 1.0579174144	 0.093438
H	 3.9197516577	 2.8153898963	-1.5165756566	 0.108344
H	 2.5467276828	 2.8737635553	-2.6332350882	 0.108565
H	 2.4599461437	 5.0282839663	-1.0121216513	 0.109461
H	 0.9178357954	 4.1049865474	 0.9146872885	 0.106975
64.6655	89.2005	136.5977	271.8237	334.0507	355.1472	454.0666	530.1263	614.342	636.5119	707.0907	760.6146	810.4384	838.4029	933.8971	958.6153	968.5131	981.146	1005.7307	1045.5758	1061.2096	1115.2594	1129.7978	1194.005	1233.6145	1273.4	1326.432	1361.3151	1373.4862	1389.5291	1456.9861	1521.838	1691.8622	2241.1215	2972.7491	2977.7415	2993.6339	3020.2097	3063.617	3205.8721	3230.453	3508.0899
C#CCC1OCC=C1	C#CC[C@H]1OCC=C1	
InChI=1S/C7H8O/c1-2-4-7-5-3-6-8-7/h1,3,5,7H,4,6H2	InChI=1S/C7H8O/c1-2-4-7-5-3-6-8-7/h1,3,5,7H,4,6H2/t7-/m1/s1
