21
gdb 52839	2.30098	1.0974	0.9569	1.8405	87.71	-0.2414	0.0372	0.2786	1406.7471	0.179347	-387.058923	-387.048221	-387.047277	-387.096192	37.673	
C	 0.1099258286	 1.5170292408	-0.0662128511	-0.500391
C	 0.0610696879	 0.0624044394	-0.0382414796	 0.016088
C	 0.0253050926	-1.1416051565	-0.0056733278	 0.13085
C	 0.0009598523	-2.6020024432	 0.0267138074	 0.200017
C	 1.0711108355	-3.1930178573	-0.8856788382	-0.436085
O	 0.1449954827	-3.1092565223	 1.3893774229	-0.30807
C	-1.2235960208	-3.5577860462	 1.4270393801	-0.08183
C	-1.4259566366	-3.2527234813	-0.0690424157	-0.059655
C	-2.619562573	-2.4131852887	-0.4878513252	-0.419876
H	 0.9172826091	 1.877321396	-0.7131799994	 0.14914
H	-0.8292958645	 1.9408829851	-0.438434228	 0.148225
H	 0.2820441312	 1.923474996	 0.9365396026	 0.153215
H	 2.0615665708	-2.8429702641	-0.5821266585	 0.132748
H	 1.0507991209	-4.2847076907	-0.8246064918	 0.115786
H	 0.9000643632	-2.8877689423	-1.922872774	 0.121693
H	-1.3033135274	-4.6049923867	 1.7400248115	 0.099758
H	-1.8373740373	-2.9381748067	 2.0959647354	 0.097002
H	-1.3695204958	-4.160841784	-0.6763436409	 0.08019
H	-2.678088733	-1.4903747732	 0.0959662239	 0.128562
H	-2.5593419174	-2.1361233943	-1.5454722028	 0.119412
H	-3.5507648291	-2.9718335298	-0.3425166408	 0.113222
21.0755	53.479	87.5635	122.7638	200.3536	224.3032	242.0748	276.1507	299.1887	335.7174	378.1805	432.3277	499.7473	566.5112	608.5257	709.5285	852.7424	871.7713	904.5112	925.7645	1013.8751	1031.9742	1051.2545	1054.0553	1067.8125	1109.6178	1128.5754	1145.9692	1174.0059	1197.4725	1250.1333	1296.3071	1337.8582	1383.1655	1398.25	1412.9748	1413.9774	1476.7805	1477.5139	1478.3439	1488.402	1492.3672	1495.0564	1527.035	2360.836	3001.8092	3027.5047	3033.6815	3038.4487	3050.0517	3067.1879	3088.3812	3089.5043	3096.9639	3116.126	3116.2686	3122.5745
CC#CC1(C)OCC1C	CC#C[C@@]1(C)OC[C@H]1C	
InChI=1S/C8H12O/c1-4-5-8(3)7(2)6-9-8/h7H,6H2,1-3H3	InChI=1S/C8H12O/c1-4-5-8(3)7(2)6-9-8/h7H,6H2,1-3H3/t7-,8-/m1/s1
