17
gdb 70709	2.29224	1.99271	1.28305	1.3912	69.37	-0.2513	0.0087	0.26	988.6017	0.13789	-455.129637	-455.121844	-455.1209	-455.161836	30.265	
N	-0.1340375119	 1.4136095506	-0.0467830755	-0.561476
C	-0.0337230087	-0.0207557535	 0.0020389193	 0.179087
C	-0.5049280728	-0.7393198001	-1.2609130947	-0.309528
C	-1.3314181856	-0.8019240688	-0.0168177877	 0.058486
O	-1.3546937494	-2.0416579026	 0.6479006933	-0.230428
C	-0.481422348	-2.0699185879	 1.7273219248	-0.00277
O	 0.8750722438	-1.850286915	 1.333030928	-0.245708
C	 1.1114175282	-0.6298260142	 0.7542980326	 0.326698
N	 2.2325064622	-0.048420001	 0.8225337331	-0.530207
H	-0.1607781299	 1.7856342831	 0.8997904595	 0.229961
H	 0.725447053	 1.7774728979	-0.4524338199	 0.24832
H	-0.8307385732	-0.090556447	-2.0643582593	 0.130891
H	 0.002111196	-1.6524887147	-1.5484431058	 0.135553
H	-2.260995124	-0.2446405789	 0.0449058374	 0.115514
H	-0.7528164705	-1.3174462033	 2.4840609321	 0.098766
H	-0.5132087652	-3.0728077999	 2.1541859044	 0.132331
H	 2.8844763759	-0.6005595745	 1.3827059783	 0.224509
82.5793	177.4866	247.963	262.7961	311.8321	365.9528	423.5008	446.084	498.7181	556.4354	639.6266	702.6753	787.4018	819.344	887.8713	906.9828	911.7849	923.9012	978.8022	1024.0835	1050.0665	1051.3705	1076.8736	1113.0523	1169.1958	1200.8291	1238.237	1277.2878	1301.9227	1306.8377	1349.9794	1399.4063	1453.1381	1467.0856	1518.228	1671.7233	1750.0378	2983.1673	3133.3637	3150.4266	3161.0923	3251.445	3472.8325	3478.0951	3545.0747
NC12CC1OCOC2=N	N[C@]12C[C@H]1OCO[C]2[NH]	
InChI=1S/C5H8N2O2/c6-4-5(7)1-3(5)8-2-9-4/h3,6H,1-2,7H2	InChI=1S/C5H8N2O2/c6-4-5(7)1-3(5)8-2-9-4/h3,6H,1-2,7H2/t3-,5-/m1/s1
