19
gdb 116713	3.8387	0.89472	0.8566	2.5424	79.7	-0.2253	0.0276	0.2529	1432.5145	0.158889	-419.143945	-419.134891	-419.133947	-419.179052	32.365	
C	-0.5597773775	 0.5582361959	 0.2169534874	-0.249401
O	 0.4038730846	 0.3616736673	-0.8092224608	-0.192335
C	 0.711473506	-0.925739716	-1.0739741521	 0.142421
N	 1.5647863596	-1.1943032064	-1.9585805206	-0.245306
C	 1.8422170052	-2.5593499571	-2.3053779728	 0.043841
C	 1.5208202036	-3.8260386128	-1.3961703968	-0.268045
C	 0.6884490422	-4.3783784381	-2.5520199112	-0.035802
N	-0.3845963886	-3.3795640041	-2.7825983359	-0.334492
C	 0.9485110381	-3.1819714358	-3.3955797128	-0.046116
H	-1.5197935455	 0.092956458	-0.0379857692	 0.129697
H	-0.2119828963	 0.1617115847	 1.1790949568	 0.122999
H	-0.6986572962	 1.6364310468	 0.3067308256	 0.142291
H	 0.1631487664	-1.653040014	-0.4650860237	 0.087128
H	 2.8880936344	-2.6202781708	-2.6200660927	 0.085427
H	 2.4272131474	-4.3971094756	-1.1853364329	 0.103742
H	 0.9697388923	-3.6682833896	-0.4670326882	 0.101486
H	 0.5571198846	-5.4128942707	-2.8434676872	 0.091207
H	-0.9943078582	-3.7463049436	-3.5126008344	 0.228438
H	 1.0574167478	-3.0804893381	-4.4681714283	 0.092821
41.2185	70.1282	123.1477	144.6107	170.8881	240.9503	349.0342	393.5243	469.9693	503.4308	666.3181	677.1036	806.8382	821.74	851.9654	901.6103	958.4501	960.2018	990.0332	992.5648	1036.2492	1067.7688	1091.5789	1111.9436	1115.9385	1153.1087	1177.1777	1184.5969	1212.2106	1252.4863	1282.4376	1299.1393	1318.9777	1370.6162	1384.1649	1415.767	1478.5116	1485.6992	1494.4145	1501.8971	1770.6849	3010.488	3055.6801	3059.1986	3073.9932	3074.7558	3127.13	3141.3094	3185.732	3199.4348	3477.5018
COC=NC1CC2NC12	COC=N[C@H]1C[C@H]2N[C@@H]12	
InChI=1S/C6H10N2O/c1-9-3-7-4-2-5-6(4)8-5/h3-6,8H,2H2,1H3	InChI=1S/C6H10N2O/c1-9-3-7-4-2-5-6(4)8-5/h3-6,8H,2H2,1H3/t4-,5+,6-/m0/s1
