15
gdb 20260	3.66679	3.21144	2.51439	0.7175	62.03	-0.2054	0.0682	0.2736	618.1518	0.122076	-362.583991	-362.579071	-362.578127	-362.612647	21.317	
C	-0.014428181	 1.5244880828	 0.0000724437	-0.182507
C	 1.5267579318	 1.4976871789	 0.0093662473	 0.059095
O	 1.9918184942	 1.48244876	 1.3522975161	-0.257867
C	 1.6881325884	 0.2000142301	 1.8432691158	 0.094656
C	 1.8178274781	-0.8622706185	 0.7970436895	-0.143024
C	 0.4350526997	-0.5074759881	 1.3550486484	-0.077263
N	-0.0406940861	 0.0186410265	 0.0472768817	-0.14699
C	 1.4057994624	-0.0249167218	-0.4135294951	-0.027951
H	-0.4921547448	 2.0394921766	 0.8372312923	 0.111748
H	-0.4479862882	 1.8615586436	-0.9465639838	 0.105981
H	 2.1081275604	 2.2248641276	-0.561106542	 0.079745
H	 2.0211922449	 0.0437411243	 2.86161355	 0.110903
H	 2.4194338123	-1.7589982913	 0.8349542475	 0.099488
H	-0.2329357942	-1.0587673825	 2.0088127318	 0.093952
H	 1.6071658022	-0.3315761881	-1.4384538831	 0.080034
328.3348	419.5485	578.2706	626.9954	689.2261	719.1924	769.0268	796.745	817.6813	844.8776	906.3263	916.3863	937.1077	951.6021	965.9889	1001.7922	1024.9001	1050.9919	1057.331	1087.2326	1111.9793	1128.8941	1171.782	1205.2456	1217.8681	1235.9123	1256.4194	1278.2188	1301.2921	1335.6338	1404.4709	1483.7955	3049.1093	3090.5569	3114.3028	3130.2294	3159.1786	3202.2754	3218.2542
C1C2OC3C4C3N1C24	C1[C@H]2O[C@@H]3[C@H]4[C@@H]3N1[C@@H]24	
InChI=1S/C6H7NO/c1-2-4-3-5(7(1)4)6(3)8-2/h2-6H,1H2	InChI=1S/C6H7NO/c1-2-4-3-5(7(1)4)6(3)8-2/h2-6H,1H2/t2-,3-,4+,5+,6-/m1/s1
