27
gdb 93691	2.92233	1.07226	0.98823	0.0646	95.53	-0.2823	0.0764	0.3588	1418.8991	0.253052	-353.597915	-353.587988	-353.587043	-353.631557	40.151	
C	-0.1502628869	 1.5784355451	 0.0119501217	-0.405046
C	-0.0238669035	 0.0524002964	 0.002556732	 0.062252
C	 0.6803126045	-0.4555172373	-1.2661001442	-0.203978
C	 0.8260981206	-1.9842591736	-1.2737330907	-0.213959
C	 1.5445978356	-2.5524378569	-0.0263945919	 0.291654
C	 1.4279443963	-4.0858840791	-0.0335088773	-0.419842
C	 3.0402658361	-2.1804907309	-0.0386775596	-0.411392
C	 0.8500961837	-1.9977494714	 1.2404560723	-0.213959
C	 0.7043594148	-0.4690274633	 1.2520132105	-0.203978
H	 0.8379278482	 2.05427623	 0.0050707353	 0.109541
H	-0.6970030555	 1.9392210194	-0.8660911957	 0.10712
H	-0.6801066537	 1.9297235645	 0.9040878773	 0.10712
H	-1.0396561215	-0.3731740965	 0.0099751108	 0.063767
H	 0.1226892041	-0.1358113171	-2.1549876848	 0.085666
H	 1.6679801673	 0.0195522461	-1.3419335365	 0.09144
H	-0.1771190051	-2.4301105451	-1.3269289504	 0.084663
H	 1.3527296321	-2.3081954358	-2.180368083	 0.08313
H	 1.8996050485	-4.5145846838	-0.9251978908	 0.104912
H	 1.916507739	-4.5240809218	 0.844356104	 0.104912
H	 0.3793085152	-4.4034927972	-0.0251963798	 0.105446
H	 3.2074047131	-1.1003022301	-0.0345130014	 0.112006
H	 3.5493493405	-2.5950269085	 0.8386936982	 0.106813
H	 3.5324746541	-2.5855958503	-0.929972604	 0.106813
H	-0.1519728193	-2.4442398737	 1.3079970415	 0.084663
H	 1.3938973815	-2.3313512174	 2.1333459859	 0.08313
H	 1.6933476772	 0.0052938036	 1.3140604191	 0.09144
H	 0.1638486933	-0.1589273254	 2.1547658716	 0.085666
99.6092	187.9375	221.3364	249.5306	254.8891	255.4633	282.3076	314.5381	315.6473	405.8052	412.2633	434.4963	438.872	482.9133	594.9689	703.9919	787.1844	787.8404	868.7568	910.0328	938.0565	941.0127	954.202	956.3992	978.42	1018.574	1027.9726	1046.9445	1054.9779	1103.839	1117.0137	1170.373	1197.1435	1215.86	1223.3506	1290.6375	1295.1369	1304.7006	1337.7145	1347.9783	1356.3391	1379.2101	1383.8383	1397.0826	1401.5795	1411.1852	1426.7355	1475.7217	1477.0498	1480.4874	1492.4483	1495.9628	1499.1362	1500.1103	1501.8275	1508.1921	1516.1125	2978.8072	3001.0947	3005.6259	3011.7267	3014.369	3019.7693	3022.6362	3031.1719	3043.623	3047.1007	3051.8119	3056.1977	3084.9939	3086.821	3090.0329	3091.1507	3093.2502	3114.9723
CC1CCC(C)(C)CC1	CC1CCC(C)(C)CC1	
InChI=1S/C9H18/c1-8-4-6-9(2,3)7-5-8/h8H,4-7H2,1-3H3	InChI=1S/C9H18/c1-8-4-6-9(2,3)7-5-8/h8H,4-7H2,1-3H3
