18
gdb 68712	2.36153	1.69897	1.35516	1.9967	83.44	-0.226	0.0273	0.2532	1032.9734	0.146388	-364.71957	-364.711291	-364.710347	-364.751981	32.572	
C	-0.0122413263	 1.5692562006	 0.0509001197	-0.488248
C	-0.0409777198	 0.0678359352	 0.0625921154	 0.25018
C	 1.1235842276	-0.7945866967	-0.3622574714	-0.377634
C	 0.5929997957	-0.9529097412	 1.0396322668	 0.136876
C	 1.3440265825	-0.746452907	 2.2281691415	 0.254549
C	 1.9588259481	-0.5617525706	 3.2467078822	-0.429098
N	-0.5965222645	-1.8492375273	 0.997227254	-0.161801
C	-1.7181886127	-1.0372956584	 1.5105737304	-0.246328
C	-1.273034095	-0.7998789765	 0.1183670833	-0.098192
H	 0.9745671017	 1.9418099295	 0.3428006039	 0.129735
H	-0.2325602454	 1.9616933352	-0.9490403996	 0.124735
H	-0.7478689053	 1.9867735022	 0.7459574181	 0.123701
H	 0.9837311603	-1.6182225253	-1.0571172912	 0.120705
H	 2.0776165828	-0.2827372859	-0.4396547918	 0.124948
H	 2.5095875394	-0.4110188895	 4.1417951073	 0.190276
H	-2.6247364826	-1.6174318069	 1.6545069767	 0.122264
H	-1.5158976015	-0.2981009124	 2.2812711805	 0.124677
H	-1.8681419548	-1.1024000551	-0.7385227457	 0.098654
114.5931	135.6936	182.1195	232.1573	284.2076	362.9878	418.2251	499.2868	542.8678	559.2578	571.9537	596.1256	669.5591	673.2593	759.3402	794.9069	829.087	839.781	953.7326	978.3417	985.8688	1026.1088	1053.5647	1082.9283	1107.5464	1114.0797	1118.0808	1153.4153	1212.6636	1233.5367	1285.7444	1357.132	1383.6486	1421.778	1484.7789	1487.2799	1495.3254	1499.3361	2229.1148	3026.5886	3088.1514	3106.1756	3114.899	3117.0755	3154.2719	3206.6297	3210.9366	3502.5925
CC12CC1(C#C)N1CC21	C[C@@]12C[C@]1(C#C)N1C[C@@H]21	
InChI=1S/C8H9N/c1-3-8-5-7(8,2)6-4-9(6)8/h1,6H,4-5H2,2H3	InChI=1S/C8H9N/c1-3-8-5-7(8,2)6-4-9(6)8/h1,6H,4-5H2,2H3/t6-,7-,8-,9?/m0/s1
