19
gdb 110871	2.21324	1.31711	1.14882	2.0539	71.8	-0.2484	0.0697	0.318	1173.3807	0.157643	-460.112474	-460.103021	-460.102076	-460.146697	35.359	
O	-0.1170578658	 1.2866268492	-0.5903315058	-0.421354
C	 0.0237038503	 0.0408106071	 0.0878228588	-0.123062
C	-1.3233455683	-0.6386997373	 0.0713465279	-0.066047
C	-1.9452655494	-1.3298534283	-1.1218184771	-0.114078
C	-0.8888695839	-2.0931792538	-1.9245362606	-0.284588
C	-0.6039837656	-2.9645875644	-0.6488759314	 0.039649
O	 0.7009606259	-3.0334093539	-0.106123329	-0.434548
C	-1.5903217287	-2.1187648986	 0.1438272464	 0.346124
O	-2.4570590635	-2.6645275225	 1.0767111224	-0.463691
H	 0.7268676692	 1.745580069	-0.5415422782	 0.283449
H	 0.7871939521	-0.5912956354	-0.3787123349	 0.105144
H	 0.3328863965	 0.1946792443	 1.1345787586	 0.080152
H	-2.0787912736	-0.094492408	 0.6356536811	 0.094233
H	-2.9265142882	-1.0490448396	-1.4815954283	 0.095245
H	-1.2971019381	-2.6767801771	-2.7525959584	 0.100693
H	-0.0462956715	-1.4996458474	-2.2888974717	 0.106605
H	-1.0271658342	-3.969351202	-0.777364338	 0.083488
H	 1.2178436507	-3.6481642905	-0.6365641783	 0.284246
H	-2.0705957339	-2.5489250708	 1.9514264466	 0.288342
53.348	134.0176	183.5762	223.6726	247.4029	260.5287	282.1402	298.1067	318.4936	421.7769	427.3876	544.5626	580.9333	654.6831	742.0485	796.3418	852.2124	901.801	941.902	960.9313	1028.5637	1044.6176	1058.9309	1083.0306	1098.0805	1123.939	1159.3836	1179.4176	1221.6638	1228.1473	1246.2933	1259.7604	1274.0143	1314.3257	1323.7382	1349.4233	1418.0053	1448.825	1481.6148	1503.5166	1531.5534	2969.6414	3020.0966	3056.7381	3063.0474	3113.4172	3132.3961	3200.7117	3799.9507	3814.4537	3823.9004
OCC1C2CC(O)C12O	OC[C@H]1[C@H]2C[C@@H](O)[C@@]12O	
InChI=1S/C6H10O3/c7-2-4-3-1-5(8)6(3,4)9/h3-5,7-9H,1-2H2	InChI=1S/C6H10O3/c7-2-4-3-1-5(8)6(3,4)9/h3-5,7-9H,1-2H2/t3-,4+,5-,6+/m1/s1
