15
gdb 27105	3.01101	1.39252	1.01093	3.7964	70.49	-0.2247	-0.0138	0.2108	1121.9706	0.11302	-454.003045	-453.994763	-453.993818	-454.036886	29.184	
C	-0.4753508711	 1.3128219393	-0.2032218675	-0.514099
C	 0.0525884933	-0.0767059108	-0.083146199	 0.204096
C	 0.3822021145	-0.9946477465	-1.0323215887	 0.329296
N	 0.3643932622	-1.0653712818	-2.4216334534	-0.411386
C	-0.6150191911	-0.5789502277	-3.2514897398	 0.138987
O	-1.5925853938	 0.0394114695	-2.9038480577	-0.290209
O	 0.8598209184	-2.1221533763	-0.4143677939	-0.178187
C	 0.7936864507	-1.8207117001	 0.9058270576	 0.068924
N	 0.3226443858	-0.6500536046	 1.1634053418	-0.293645
H	-1.132218857	 1.5256644449	 0.6441861176	 0.141129
H	 0.3372852861	 2.0488028204	-0.178912939	 0.128501
H	-1.0351614763	 1.4373760749	-1.130784305	 0.16745
H	 1.1003764184	-1.6093584969	-2.848886791	 0.265725
H	-0.3844313517	-0.815620723	-4.3074889753	 0.091062
H	 1.1436972414	-2.5761001614	 1.5913235833	 0.152356
47.3592	84.1295	163.2527	201.8752	251.5641	298.8124	350.1478	449.1262	520.0413	614.5212	657.9176	694.9701	701.2243	818.1508	866.1568	955.5518	982.7793	1016.5643	1070.7092	1108.5585	1144.8654	1163.6817	1228.9491	1303.9411	1354.701	1417.0643	1435.396	1486.3937	1493.9327	1534.0548	1567.5006	1681.9093	1813.4465	2957.3378	3035.4612	3101.892	3153.9475	3278.1218	3603.8521
CC1=C(NC=O)OC=N1	Cc1c(NC=O)ocn1	
InChI=1S/C5H6N2O2/c1-4-5(6-2-8)9-3-7-4/h2-3H,1H3,(H,6,8)	InChI=1S/C5H6N2O2/c1-4-5(6-2-8)9-3-7-4/h2-3H,1H3,(H,6,8)
