21
gdb 38973	2.90867	1.64095	1.21533	1.095	82.29	-0.2397	0.0984	0.3381	1073.0878	0.185644	-387.068678	-387.061357	-387.060413	-387.100131	30.36	
C	 0.0470439752	 1.4624077243	 0.0792742252	-0.34961
C	 1.3714731151	 0.7544966407	-0.0436884566	-0.094435
C	 1.7419852664	 0.1355931416	 1.3104613713	-0.253737
C	 0.4295685809	-0.7193109343	 1.2578357401	-0.057265
C	 0.6560006531	-2.2212811238	 1.0268224644	-0.22103
C	-0.3941175169	-2.783371376	 0.0641953017	-0.075626
O	-0.3162226598	-2.1421322751	-1.1993722365	-0.240857
C	-0.6987101683	-0.7758402285	-1.1281836639	-0.199772
C	 0.0533611276	-0.0287557626	-0.0652951311	 0.374963
H	-0.2437472172	 1.9316148855	 1.0178303241	 0.100216
H	-0.2694870312	 2.0090272266	-0.8050754974	 0.108111
H	 2.0578044451	 0.9707648739	-0.8541858207	 0.084971
H	 2.6401868016	-0.4855850395	 1.2873793716	 0.102151
H	 1.831424959	 0.8458293124	 2.139326905	 0.093803
H	-0.2794180449	-0.5617601151	 2.0802543295	 0.057879
H	 1.63667644	-2.3829491888	 0.5642060633	 0.102712
H	 0.6458824381	-2.7727398546	 1.9739501217	 0.092014
H	-0.2238506165	-3.8475596063	-0.1241154226	 0.104461
H	-1.4087228708	-2.6734599737	 0.4866244129	 0.081267
H	-0.5253057796	-0.3497777044	-2.1221512385	 0.104996
H	-1.7832833869	-0.7114321224	-0.9221983737	 0.084788
139.8555	157.9863	293.5254	356.7755	368.7603	415.0142	443.9806	472.8223	554.626	661.9686	743.3705	786.0291	830.8086	870.73	877.198	901.7265	947.4469	980.3827	999.3925	1005.9798	1016.4962	1031.1197	1054.9123	1064.1345	1091.3096	1114.6967	1153.1785	1183.7995	1213.0906	1232.1171	1252.414	1256.3842	1276.8955	1302.774	1315.9273	1342.0703	1370.3589	1374.9717	1398.8271	1425.8174	1474.2464	1485.2123	1487.3952	1498.0082	1506.1339	2932.0216	2952.046	3017.9213	3029.7322	3044.8274	3066.5899	3076.2799	3081.7065	3093.3857	3103.7628	3174.1684	3185.0505
C1C2CC3CCOCC123	C1[C@H]2C[C@@H]3CCOC[C@]123	
InChI=1S/C8H12O/c1-2-9-5-8-4-7(8)3-6(1)8/h6-7H,1-5H2	InChI=1S/C8H12O/c1-2-9-5-8-4-7(8)3-6(1)8/h6-7H,1-5H2/t6-,7+,8-/m0/s1
