16
gdb 5245	6.7928	1.03517	0.95894	3.7292	66.79	-0.2176	0.0318	0.2494	1180.1804	0.132347	-379.953631	-379.945841	-379.944897	-379.986652	27.752	
O	-0.0836416033	 1.4548022517	 0.101985302	-0.416097
C	 0.0259924875	 0.0420866705	 0.0853486514	-0.061128
C	-1.381290087	-0.5256519096	-0.1285282505	-0.309942
C	-1.4226949334	-2.0174294053	-0.1312417472	 0.285714
C	-1.5318630085	-2.9432496545	-1.1387496624	-0.162673
N	-1.4969132851	-4.2281625141	-0.6458552553	-0.251998
C	-1.3669191945	-4.0926413169	 0.6521692358	 0.009492
N	-1.3137065311	-2.7791994513	 1.0188300737	-0.295143
H	 0.800477414	 1.8270334459	 0.1674847489	 0.288786
H	 0.6848026823	-0.3087368458	-0.7231843437	 0.099506
H	 0.4427964179	-0.3394338971	 1.0323920705	 0.077925
H	-2.0385984988	-0.1120741858	 0.6469865816	 0.112895
H	-1.760601156	-0.1564827474	-1.0859361521	 0.128966
H	-1.6389667735	-2.7493489788	-2.1958811631	 0.104648
H	-1.3088431755	-4.8943852881	 1.3734245753	 0.126667
H	-1.235215895	-2.4237074334	 1.9571725151	 0.262382
55.2588	93.2377	118.0384	255.879	318.0353	344.3138	367.4538	526.1458	668.3054	685.0943	757.6708	792.4803	805.6652	851.7864	933.1352	999.8205	1015.1827	1054.8912	1081.2658	1113.5632	1147.0333	1209.1995	1239.4735	1255.5693	1279.1403	1309.3427	1338.6786	1386.9534	1427.9561	1454.6007	1484.6693	1508.0218	1526.608	1616.2682	2960.7051	3003.0001	3031.4379	3094.0154	3242.5499	3248.8619	3659.844	3832.5659
OCCC1=CN=CN1	OCCc1cnc[nH]1	
InChI=1S/C5H8N2O/c8-2-1-5-3-6-4-7-5/h3-4,8H,1-2H2,(H,6,7)	InChI=1S/C5H8N2O/c8-2-1-5-3-6-4-7-5/h3-4,8H,1-2H2,(H,6,7)
