18
gdb 76609	2.38521	1.11482	1.03766	2.6123	75.77	-0.2367	-0.0854	0.1513	1285.3906	0.144021	-439.070423	-439.060537	-439.059593	-439.105656	34.537	
C	-0.081189624	 1.6919570832	-0.2251981736	-0.420363
C	-0.1747450823	 0.1982243215	-0.4497646925	 0.000139
C	 0.7583375761	-0.4717041022	-1.435348467	-0.147465
N	 0.8176948866	-0.752411022	 0.0079595052	-0.101824
C	 2.0092229163	-0.3038857633	 0.7175164352	-0.315206
C	 0.378973412	-1.5772771719	-2.35053014	 0.310976
O	 0.8387327244	-1.6930271406	-3.4672147693	-0.29807
C	-0.6578650572	-2.6339153565	-1.9351385793	 0.084695
O	-1.5337756105	-2.4733070279	-1.1276801289	-0.216182
H	 0.9229829157	 2.0868272186	-0.3944793178	 0.125681
H	-0.762921518	 2.2099147422	-0.9067214242	 0.134762
H	-0.3808689911	 1.9444261787	 0.7978403823	 0.132056
H	-1.18082756	-0.2072057038	-0.3924470033	 0.127565
H	 1.5354238176	 0.1636597969	-1.8605244866	 0.098457
H	 2.4401028628	 0.636995635	 0.3460209525	 0.108889
H	 1.7608579651	-0.1774990749	 1.7758648608	 0.13256
H	 2.7744673087	-1.0815474924	 0.638709837	 0.133435
H	-0.5600284122	-3.5553068206	-2.5485182805	 0.109893
60.9184	100.399	131.207	154.1961	179.8094	190.2513	244.3662	284.7731	326.0978	377.2284	470.69	494.0318	559.5815	628.4059	761.9848	788.6308	843.2348	958.434	1008.8061	1027.5072	1050.2992	1098.4133	1126.3782	1163.0904	1177.2208	1186.8586	1266.8473	1296.0185	1363.2861	1384.6551	1406.5488	1426.1355	1458.5483	1486.3263	1486.9857	1499.1831	1506.4924	1776.6371	1824.0128	2914.0935	2995.4524	3040.9279	3077.9107	3102.8441	3110.8766	3114.8631	3123.7475	3162.8143
CC1C(N1C)C(=O)C=O	C[C@H]1[C@@H](N1C)C(=O)C=O	
InChI=1S/C6H9NO2/c1-4-6(7(4)2)5(9)3-8/h3-4,6H,1-2H3	InChI=1S/C6H9NO2/c1-4-6(7(4)2)5(9)3-8/h3-4,6H,1-2H3/t4-,6+,7?/m0/s1
