21
gdb 102776	2.05982	1.02725	0.79833	3.3172	80.57	-0.2477	-0.0323	0.2154	1510.5722	0.17809	-424.263295	-424.252199	-424.251255	-424.301033	37.985	
C	 0.5097322156	-0.1266330863	-1.5860446738	-0.397933
C	-0.2179082763	-0.1359830794	-0.2389008876	-0.174566
C	 0.6537410618	-0.6368984744	 0.9220750398	-0.098245
C	-0.0441341635	-0.4265899981	 2.2914896192	-0.289298
C	-0.1404960202	 1.0408165585	 2.6511207077	 0.159592
O	-1.1519959711	 1.6134717919	 2.9590489359	-0.233266
C	 0.97741265	-2.1325111015	 0.7912301837	 0.391936
C	 2.3135368542	-2.5911874414	 1.3464110474	-0.482284
O	 0.1988690214	-2.9028472838	 0.2792825483	-0.306037
H	 0.8273610588	-1.1342751537	-1.8707777902	 0.13098
H	-0.1438408782	 0.2491973046	-2.3785837667	 0.120806
H	 1.3977475751	 0.5152680173	-1.5572828974	 0.109633
H	-0.5766719055	 0.8734375311	-0.0059054334	 0.105114
H	-1.1008253231	-0.780365518	-0.30007015	 0.12678
H	 1.6036461189	-0.082888603	 0.9420864049	 0.077633
H	-1.0452011197	-0.8660179519	 2.2923224594	 0.139726
H	 0.5408233661	-0.9098411921	 3.087687322	 0.119874
H	 0.8364720928	 1.5802136373	 2.6120689859	 0.071689
H	 3.1126018952	-2.2411276839	 0.6811457796	 0.148125
H	 2.5131485275	-2.1587862022	 2.3321509126	 0.133404
H	 2.3451749802	-3.679995061	 1.3995167225	 0.146336
47.5167	52.0762	76.7435	97.81	138.3336	165.1031	189.3529	231.4385	266.7772	312.5175	406.9832	421.0107	502.9755	593.766	607.5626	724.9024	777.5126	855.2199	891.5111	955.7261	988.9131	999.2941	1021.2564	1041.6309	1104.5153	1122.0425	1142.3434	1178.9003	1220.3632	1269.8252	1300.461	1331.1269	1372.5334	1379.7146	1389.5947	1412.6419	1426.0937	1459.5732	1462.5139	1476.5362	1479.526	1499.6299	1506.7774	1811.2141	1838.3639	2843.8829	3002.7581	3012.5297	3033.1836	3035.1649	3039.3894	3081.6656	3096.5692	3103.8301	3107.0647	3113.1449	3152.9441
CCC(CC=O)C(C)=O	CC[C@@H](CC=O)C(=O)C	
InChI=1S/C7H12O2/c1-3-7(4-5-8)6(2)9/h5,7H,3-4H2,1-2H3	InChI=1S/C7H12O2/c1-3-7(4-5-8)6(2)9/h5,7H,3-4H2,1-2H3/t7-/m0/s1
