16
gdb 22183	1.68797	1.36649	0.86435	0.2283	79.37	-0.2563	-0.0044	0.2519	1338.773	0.119897	-400.636367	-400.626407	-400.625463	-400.672515	35.805	
O	-0.7603305136	 1.6214709382	-1.2278893529	-0.392695
N	-0.7109792832	 0.2279433763	-1.344140024	-0.167573
C	-0.8703385151	-0.3761682139	-0.2329755871	 0.371977
C	-0.8436679942	-1.8908285475	-0.2954228757	-0.408068
C	 0.2387674033	-2.4643847096	 0.5009404765	 0.309036
C	 1.132247912	-2.9173725211	 1.1647184812	-0.4674
C	-1.0745401352	 0.2903860035	 1.1156957966	-0.432816
C	-2.3507394159	-0.0769559009	 1.7219043689	 0.307263
C	-3.4046951429	-0.3925910116	 2.20525736	-0.463992
H	-0.6191938548	 1.9051000246	-2.1372962806	 0.311369
H	-1.8049838142	-2.2756172336	 0.0699434567	 0.154773
H	-0.7466322725	-2.1865906999	-1.3442576923	 0.151083
H	 1.9203284755	-3.3301109536	 1.7444886934	 0.201336
H	-0.2553862579	-0.0235782917	 1.7759154527	 0.157943
H	-1.0063820697	 1.3731479905	 0.9960375677	 0.166856
H	-4.3343575519	-0.6595355897	 2.6433456189	 0.200909
22.6386	58.1514	121.6921	144.7553	287.3238	299.0538	321.0426	331.3758	348.6099	375.2428	453.5147	470.0643	607.4641	618.8441	620.665	644.1629	646.9435	667.5071	805.7672	927.6396	952.5475	953.1989	978.0695	1018.9468	1191.4468	1216.4868	1266.9564	1314.7999	1323.618	1413.2389	1452.9576	1459.483	1738.3466	2239.0019	2239.2242	3027.3623	3030.6564	3089.2092	3118.2223	3504.9941	3505.5	3821.9457
ON=C(CC#C)CC#C	ON=C(CC#C)CC#C	
InChI=1S/C7H7NO/c1-3-5-7(8-9)6-4-2/h1-2,9H,5-6H2	InChI=1S/C7H7NO/c1-3-5-7(8-9)6-4-2/h1-2,9H,5-6H2
