18
gdb 79714	2.83373	1.69437	1.35826	4.2772	70.35	-0.2352	0.0678	0.303	970.5591	0.150228	-439.021112	-439.014132	-439.013187	-439.051996	29.513	
O	 0.2707323001	 1.464853907	-0.2552743209	-0.446911
C	 0.0746705859	 0.1108146237	-0.0405123114	 0.166102
C	 0.1937356766	-0.568758655	 1.3705668165	-0.165915
C	-0.9573105471	 0.028719185	 2.1858472621	-0.038326
N	-1.5050732766	 1.3161999076	 1.6770299301	-0.369982
C	-2.0554170953	 0.0267156386	 1.1798700582	-0.039921
C	-1.3417759276	-0.573288079	-0.0373214537	-0.125844
C	-0.6126722558	-1.7553419438	 0.6932281451	 0.1487
O	 0.0846244273	-2.5923259178	-0.1933220874	-0.439241
H	-0.3162838383	 1.9076935854	 0.3819954862	 0.295618
H	 0.7141401258	-0.4256975669	-0.7395617129	 0.104532
H	 1.1544087845	-0.7230358398	 1.8629523282	 0.061175
H	-1.1034844402	-0.2262682657	 3.2288247027	 0.095347
H	-2.142799992	 1.697601244	 2.371329354	 0.235576
H	-3.0813059482	-0.2311207489	 1.4144751556	 0.097196
H	-1.9113512585	-0.7353227461	-0.9512839816	 0.071501
H	-1.2403879167	-2.3357384925	 1.3822626904	 0.063831
H	 0.6424530661	-3.1815603057	 0.3239480088	 0.286561
239.8379	259.1093	268.5044	318.2541	325.0499	468.5095	473.1429	510.9833	666.8787	684.4314	710.0785	774.2462	775.3833	855.2058	864.9976	881.307	885.7326	930.326	953.6908	961.5002	1018.8614	1052.4115	1085.0286	1112.5065	1115.1373	1152.8117	1165.3118	1186.3906	1204.5634	1218.4653	1236.3696	1273.4836	1288.9607	1300.0697	1342.3912	1357.604	1407.2554	1434.8465	1506.5535	3010.167	3110.2132	3127.4139	3133.387	3177.2666	3187.4323	3503.6937	3606.4981	3820.0347
OC1C2C3NC3C1C2O	O[C@H]1[C@H]2[C@H]3N[C@H]3[C@@H]1[C@H]2O	
InChI=1S/C6H9NO2/c8-5-1-3-4(7-3)2(5)6(1)9/h1-9H	InChI=1S/C6H9NO2/c8-5-1-3-4(7-3)2(5)6(1)9/h1-9H/t1-,2+,3-,4+,5+,6+
