22
gdb 103181	2.09748	1.43158	1.13997	2.5497	78.32	-0.2147	0.0678	0.2825	1204.4077	0.192085	-441.451746	-441.441338	-441.440393	-441.486781	38.651	
C	-0.0294097447	 1.5224297056	 0.0473859945	-0.332308
N	 0.0789876587	 0.0806976458	 0.1694358794	-0.124141
C	 0.8964381739	-0.6262533854	-0.8328671658	-0.207056
C	 1.4220507209	-1.5657596378	 0.2801475054	 0.052048
O	 2.8127725248	-1.7491268101	 0.3895034687	-0.425095
C	 0.8338927828	-0.5505251058	 1.3041784272	 0.286385
C	 1.8812283101	 0.3261315914	 1.9881664417	-0.447511
C	-0.1554680649	-1.1364701165	 2.3202299768	-0.101099
O	-1.0701702065	-0.1515085304	 2.7719745762	-0.42453
H	 0.940447834	 2.0350068683	-0.0773043738	 0.098302
H	-0.6460343561	 1.7631388895	-0.8262018127	 0.117917
H	-0.520049718	 1.9384000371	 0.9318433149	 0.124259
H	 0.3308811676	-1.0641361889	-1.6639571335	 0.093806
H	 1.7185030277	-0.0159686676	-1.239713836	 0.090035
H	 0.8924686126	-2.5272925088	 0.3058826072	 0.069097
H	 3.0853334158	-2.401901614	-0.2625139531	 0.287684
H	 2.5272562807	 0.8369879613	 1.2705360784	 0.118921
H	 1.3890221552	 1.0708423047	 2.6199536523	 0.126462
H	 2.5234183949	-0.2926804546	 2.6208189807	 0.126999
H	-0.691038142	-1.9819124422	 1.8623123203	 0.077386
H	 0.3710763961	-1.5085556508	 3.2061136999	 0.105224
H	-1.5708399335	 0.1060769193	 1.9886179913	 0.287216
65.793	86.6892	177.4924	198.8494	226.298	232.7926	248.9172	265.4598	311.6781	323.4669	364.6604	456.3291	488.6762	498.3577	537.1055	663.3321	712.5054	837.5616	905.3994	934.4432	964.3971	975.5995	1043.2338	1065.5389	1081.7965	1121.179	1150.0562	1166.1942	1181.8899	1196.6555	1215.1025	1239.48	1257.814	1289.908	1318.6971	1323.2793	1388.4419	1402.7893	1416.0007	1438.2514	1447.6199	1481.6982	1489.2967	1494.5266	1500.1702	1508.8572	1515.292	2951.016	2975.9686	2982.0825	3010.3313	3047.3649	3048.7099	3054.0906	3070.8095	3105.1705	3120.5804	3127.818	3788.3952	3823.5891
CN1CC(O)C1(C)CO	CN1C[C@@H](O)[C@]1(C)CO	
InChI=1S/C6H13NO2/c1-6(4-8)5(9)3-7(6)2/h5,8-9H,3-4H2,1-2H3	InChI=1S/C6H13NO2/c1-6(4-8)5(9)3-7(6)2/h5,8-9H,3-4H2,1-2H3/t5-,6+/m1/s1
