17
gdb 71841	2.45006	1.85326	1.55553	1.9466	73.48	-0.2223	0.0006	0.2228	941.2249	0.135269	-421.782947	-421.775324	-421.77438	-421.814429	30.674	
C	-0.0484036458	 1.4619382255	-0.0581749916	-0.500641
C	-0.0902150409	-0.0277943618	-0.0696086292	 0.422093
O	 0.788899678	-0.7242458674	-0.910184832	-0.321761
C	-0.0420520029	-1.9602769038	-0.7607012067	-0.031115
C	 0.6111047849	-2.7591719459	 0.3238105313	-0.112767
C	 0.4512335915	-2.088427271	 1.4795204801	-0.059636
C	-0.4035474018	-0.9073243952	 1.2621290184	-0.266667
C	-1.1346465833	-1.0705853522	-0.0506490939	 0.257964
O	-2.4872028909	-1.002551783	-0.2736001928	-0.458683
H	 0.9334956788	 1.8149585803	 0.2733875079	 0.137467
H	-0.2348505755	 1.8608396173	-1.0603685514	 0.13702
H	-0.8070402419	 1.8606059995	 0.6203866547	 0.13067
H	-0.2370429251	-2.4067411764	-1.7340957701	 0.086297
H	 1.2376152843	-3.6243728855	 0.154230627	 0.100822
H	 0.933287838	-2.3167471526	 2.4226301017	 0.102058
H	-0.8668937433	-0.3447423388	 2.0641808763	 0.086746
H	-2.9226563842	-1.652065449	 0.2916806805	 0.290132
176.1787	187.3257	230.5875	296.6614	314.3924	364.8901	395.1273	508.1943	543.0714	601.0458	629.0021	678.456	755.5754	802.0126	805.2044	855.9763	888.4295	919.2391	936.7385	948.1875	979.3198	1027.2155	1081.2353	1103.7527	1121.8344	1171.1265	1195.5894	1259.3108	1283.1574	1310.0328	1321.3038	1365.6381	1412.8035	1471.6007	1491.5286	1532.8195	1613.6518	3038.5989	3103.5888	3122.1895	3138.7929	3188.2739	3201.5314	3229.3549	3775.5992
CC12OC3C=CC1C23O	C[C@@]12O[C@H]3C=C[C@@H]1[C@@]23O	
InChI=1S/C7H8O2/c1-6-4-2-3-5(9-6)7(4,6)8/h2-5,8H,1H3	InChI=1S/C7H8O2/c1-6-4-2-3-5(9-6)7(4,6)8/h2-5,8H,1H3/t4-,5-,6+,7-/m0/s1
