19
gdb 83967	2.18422	1.96462	1.79286	2.1583	74.53	-0.2288	0.0172	0.246	915.7454	0.162313	-423.026352	-423.019168	-423.018224	-423.057376	29.752	
O	 0.012637746	 1.3984241805	-0.105223051	-0.435805
C	-0.0003133838	-0.0081499842	 0.0393957364	 0.124768
C	 0.4602297678	-0.5609688318	 1.4175981603	-0.136645
C	-0.2953776537	 0.2373826455	 2.50437174	-0.059856
O	-1.7023901542	 0.0663520082	 2.409691354	-0.254612
C	-2.2409394518	 0.2339737795	 1.1033636229	-0.073591
C	-1.4422623795	-0.5593417964	 0.0423402782	-0.10051
C	-1.1718035552	-1.9713374559	 0.5337918093	-0.06634
C	-0.0891451189	-1.9728648137	 1.3149619261	-0.063214
H	 0.9285223491	 1.6880216131	-0.1596566448	 0.284856
H	 0.5767611628	-0.4873960008	-0.7630029943	 0.066998
H	 1.5405374278	-0.4951558924	 1.5864240933	 0.055586
H	-0.0231844269	-0.1079333088	 3.506459959	 0.100738
H	-0.0244875589	 1.3002255533	 2.4151181504	 0.089428
H	-3.2722215279	-0.1269033546	 1.1638211251	 0.100598
H	-2.2570443212	 1.2952975564	 0.818566716	 0.108083
H	-1.939316767	-0.4897194541	-0.9292657146	 0.06834
H	-1.8121313107	-2.8179516984	 0.3175174015	 0.095711
H	 0.3195007461	-2.8223188354	 1.8490684024	 0.095466
196.816	258.766	264.9008	295.234	323.1021	373.643	453.0118	542.0461	572.5831	623.6745	737.8343	776.7331	816.9601	839.0921	842.5905	880.718	926.5752	960.2065	991.6565	1029.0204	1037.0471	1052.8651	1079.4988	1105.1158	1123.8515	1135.5495	1206.9328	1220.7304	1259.8779	1269.9472	1296.8848	1320.0155	1329.0592	1337.8589	1352.7508	1391.1671	1412.4329	1432.916	1489.8098	1504.2733	1660.5443	2992.8011	3005.6582	3010.4954	3050.5795	3072.3747	3078.5672	3082.0696	3190.7336	3215.6639	3823.9021
OC1C2COCC1C=C2	O[C@H]1[C@H]2COC[C@@H]1C=C2	
InChI=1S/C7H10O2/c8-7-5-1-2-6(7)4-9-3-5/h1-2,5-8H,3-4H2	InChI=1S/C7H10O2/c8-7-5-1-2-6(7)4-9-3-5/h1-2,5-8H,3-4H2/t5-,6+,7+
