13
gdb 45405	2.28443	1.82586	1.26576	4.9054	63.18	-0.2695	-0.0381	0.2314	966.5328	0.089938	-452.735496	-452.728248	-452.727303	-452.767477	26.592	
O	-0.0540050149	 0.0342305909	-0.5023989674	-0.298963
C	-0.0273605329	 1.1432055855	-0.0979324731	 0.479152
O	-1.0146979394	 1.8448068063	 0.5610565898	-0.254164
C	-0.2336327428	 3.0707004167	 0.6227939225	 0.056726
C	 0.6125610381	 3.202981061	 1.899356283	-0.1911
N	 1.6446597616	 2.2972165517	 1.3154748198	-0.349495
C	 0.9751213426	 2.3301222017	-0.0168588594	 0.027346
C	 1.7345861426	 2.7418979853	-1.168435455	 0.195251
N	 2.3570403371	 3.0828718758	-2.0810689971	-0.320625
H	-0.771197196	 3.9152010319	 0.2002954009	 0.134336
H	 0.9545800154	 4.2328000894	 2.0500561739	 0.129164
H	 0.1559076064	 2.8266964442	 2.8180005679	 0.14058
H	 2.5859729521	 2.6707956496	 1.3024012342	 0.251793
123.4701	131.8345	182.1637	248.5133	346.3113	401.5532	512.3915	544.708	621.0449	662.9327	688.2247	771.2024	846.6154	888.7836	962.5805	977.0654	1000.1548	1038.1293	1076.3489	1128.623	1162.155	1192.0567	1234.957	1317.5008	1335.4989	1386.1754	1496.2163	1963.6697	2355.8039	3044.921	3109.5658	3163.1542	3563.8723
O=C1OC2CNC12C#N	O=C1O[C@H]2CN[C@@]12C#N	
InChI=1S/C5H4N2O2/c6-2-5-3(1-7-5)9-4(5)8/h3,7H,1H2	InChI=1S/C5H4N2O2/c6-2-5-3(1-7-5)9-4(5)8/h3,7H,1H2/t3-,5+/m0/s1
