20
gdb 120831	4.79339	0.60429	0.56978	2.6474	78.4	-0.2429	-0.0222	0.2207	1935.9936	0.168499	-440.249356	-440.239086	-440.238142	-440.286472	35.043	
C	-0.4398642944	 1.2959911671	-0.0418072273	-0.226692
O	-0.1965794742	-0.0897753838	-0.0768312934	-0.234402
C	 0.7912886898	-0.4476790024	-1.0190876282	-0.055889
C	 0.9550536381	-1.9437395586	-0.9664175959	-0.033195
N	 0.1507431647	-2.7513043373	-1.8944125864	-0.331345
C	 1.6182411227	-2.7537847078	-2.02423194	-0.039405
C	 2.1929434038	-2.187274355	-3.310930178	-0.285475
C	 2.0540064489	-3.1802591659	-4.447894466	 0.15884
O	 2.9591106219	-3.5534867006	-5.1489292832	-0.23941
H	 0.465257606	 1.8637922756	 0.2279069791	 0.103024
H	-0.8031543349	 1.6722002542	-1.0112355303	 0.10655
H	-1.2069848793	 1.4742305213	 0.7154765369	 0.12896
H	 0.494798796	-0.1292486682	-2.0299666715	 0.093812
H	 1.7488459501	 0.0476691581	-0.7776113638	 0.086097
H	 1.0656233487	-2.3145305326	 0.0513138607	 0.097178
H	-0.1793175584	-3.6004991681	-1.4452953804	 0.237569
H	 2.1458518142	-3.637091214	-1.6659901909	 0.09707
H	 1.6343676568	-1.2876445331	-3.5943600052	 0.126105
H	 3.2490816956	-1.9249333243	-3.1983690164	 0.121065
H	 1.016893024	-3.5578917645	-4.5904557299	 0.089541
46.7042	56.3475	84.6077	89.8665	114.5726	205.1754	230.3255	256.3108	338.5707	421.3348	483.5633	495.5107	544.0272	796.6417	804.9402	880.6678	887.9717	972.8923	985.7239	1003.8582	1039.4556	1064.5641	1086.8324	1145.867	1158.1462	1181.6621	1191.4192	1219.863	1241.6066	1264.8665	1267.962	1284.8255	1296.5133	1377.0915	1418.4612	1429.35	1450.5111	1474.9674	1485.1527	1490.8887	1498.7682	1522.9699	1833.5151	2888.2706	2945.8528	2969.1447	3002.0463	3012.7252	3045.6967	3100.758	3114.3603	3115.8221	3127.5127	3515.4247
COCC1NC1CC=O	COC[C@H]1N[C@H]1CC=O	
InChI=1S/C6H11NO2/c1-9-4-6-5(7-6)2-3-8/h3,5-7H,2,4H2,1H3	InChI=1S/C6H11NO2/c1-9-4-6-5(7-6)2-3-8/h3,5-7H,2,4H2,1H3/t5-,6+/m0/s1
