18
gdb 50009	3.71369	1.03435	0.95777	3.3483	78.47	-0.2447	-0.0262	0.2184	1262.0017	0.147719	-401.94322	-401.935116	-401.934171	-401.976481	30.591	
O	-0.1053940921	 0.2396881289	 0.7465605013	-0.26413
C	 0.3746476395	 0.7179320766	-0.2508989122	 0.179327
C	 1.4609410792	 1.734569092	-0.2467377591	-0.182771
N	 2.2354460224	 1.8374700755	-1.5064739162	-0.362533
C	 1.3848272195	 2.9546320506	-1.1185865361	 0.319531
C	 0.2036339566	 3.2866108534	-2.0456613936	-0.322842
C	 0.3964078541	 4.7579676324	-2.3163438198	-0.06043
C	 1.3568952009	 5.2941188915	-1.5654151903	-0.064316
C	 1.9953899601	 4.2846921808	-0.6440094649	-0.335296
H	 0.0330949317	 0.4291609835	-1.2695134551	 0.083236
H	 1.971549319	 1.8437349648	 0.70764025	 0.099733
H	 3.2116886229	 2.0270376446	-1.2906545707	 0.236552
H	 0.2384295088	 2.6690638177	-2.949676441	 0.125936
H	-0.7667577356	 3.0978106279	-1.5668122583	 0.11893
H	-0.2092808174	 5.2976571126	-3.0352817563	 0.099497
H	 1.6551257717	 6.3360694661	-1.5757369105	 0.09894
H	 1.7556248164	 4.4932053658	 0.4075412871	 0.123049
H	 3.0915372924	 4.2735958353	-0.7143812043	 0.107586
60.4511	107.0108	143.3013	230.8008	365.5092	381.7586	409.8973	425.4546	485.9344	555.7405	694.9991	775.9142	781.9421	823.9145	923.0967	949.32	957.0328	974.2403	981.3045	982.2384	1025.0534	1035.1328	1067.4122	1082.7556	1132.1907	1162.6505	1203.7391	1212.5567	1248.6918	1283.0606	1295.7673	1334.7554	1375.3266	1392.313	1451.3127	1476.1755	1483.2146	1689.7833	1822.0151	2893.2775	3008.2382	3016.9371	3034.5715	3068.3015	3139.9304	3189.4194	3213.8069	3492.9725
O=CC1NC11CC=CC1	O=C[C@H]1N[C@]21CC=CC2	
InChI=1S/C7H9NO/c9-5-6-7(8-6)3-1-2-4-7/h1-2,5-6,8H,3-4H2	InChI=1S/C7H9NO/c9-5-6-7(8-6)3-1-2-4-7/h1-2,5-6,8H,3-4H2/t6-/m1/s1
