15
gdb 132624	3.1741	1.34425	0.94623	2.1232	74.38	-0.1892	-0.0079	0.1813	1152.0943	0.114194	-458.153981	-458.146118	-458.145174	-458.185961	30.668	
N	-0.0184447562	 1.3966675294	 0.1296928914	-0.56989
C	 0.0221678177	 0.0079303807	 0.0517282123	 0.375998
N	-1.151038942	-0.6267990498	 0.0451310276	-0.335252
C	-1.1534224143	-1.9624342025	 0.043041656	-0.061527
C	-0.0114658265	-2.7612228298	 0.0323723235	 0.124481
N	-0.0353085793	-4.1618635576	 0.0890230387	-0.603247
C	 1.1980699353	-2.0589570134	 0.0219951419	 0.290596
F	 2.3356281113	-2.7684396776	-0.0103875881	-0.087616
C	 1.2451353834	-0.6833910112	 0.0369585009	-0.330144
H	 0.7427635165	 1.8829026129	-0.3202988252	 0.245529
H	-0.9244436961	 1.765859046	-0.1225976297	 0.251041
H	-2.1321365722	-2.4397450143	 0.0434633922	 0.098677
H	-0.8519106716	-4.5687353353	-0.3462802161	 0.24797
H	 0.8091258984	-4.5830182744	-0.2735205	 0.251152
H	 2.2004067756	-0.1724004931	 0.0407621346	 0.102232
142.1591	225.4048	234.9525	285.8666	318.9726	345.897	379.178	453.3558	459.7194	534.2337	578.0893	606.445	662.7105	713.8519	757.7868	780.7109	814.6049	856.5427	927.9291	975.8231	1078.6194	1127.1073	1191.3015	1261.0661	1332.4453	1339.9034	1380.5129	1469.8552	1545.3776	1621.0796	1632.4723	1642.773	1679.9138	3136.353	3201.9902	3549.2561	3563.0726	3646.1812	3671.8261
NC1=NC=C(N)C(F)=C1	Nc1ncc(N)c(F)c1	
InChI=1S/C5H6FN3/c6-3-1-5(8)9-2-4(3)7/h1-2H,7H2,(H2,8,9)	InChI=1S/C5H6FN3/c6-3-1-5(8)9-2-4(3)7/h1-2H,7H2,(H2,8,9)
