17
gdb 102948	2.22213	1.10875	0.94602	6.0128	71.53	-0.2706	0.0069	0.2776	1323.3881	0.133761	-455.130467	-455.120518	-455.119574	-455.166572	33.529	
C	 0.0345281211	 0.8086565655	-0.4605210657	-0.251275
O	-0.1365815378	-0.460233048	 0.154580713	-0.237086
C	 0.6514524358	-0.6719081525	 1.2978991201	-0.013135
C	 0.2557678464	-2.0319808827	 1.8892613605	-0.115707
O	 0.6112381246	-3.1086452908	 1.0495844388	-0.176258
C	-0.2770249525	-3.4673017348	 0.0876324101	 0.140111
N	 0.037453121	-4.3632952979	-0.7385109319	-0.433422
C	 2.1002663278	-0.6120895484	 0.9986114842	 0.279215
N	 3.2282640135	-0.5213081737	 0.7678449805	-0.314581
H	 1.0599314866	 0.9435587901	-0.825781628	 0.146414
H	-0.6568299941	 0.8397117708	-1.3039265518	 0.143714
H	-0.2075735107	 1.6230280372	 0.2373741923	 0.116904
H	 0.4477076657	 0.0987614841	 2.0618834651	 0.117662
H	 0.7811028341	-2.1832954968	 2.835343138	 0.142444
H	-0.8243409395	-2.0094838922	 2.0803726079	 0.12507
H	-1.2249212238	-2.9200753203	 0.1456121885	 0.098009
H	-0.737451018	-4.5366246497	-1.3751632716	 0.231922
54.104	63.442	107.5294	132.3738	150.4509	185.6267	244.8159	255.8401	340.7295	368.9931	445.529	596.6865	604.6181	700.1463	817.6937	858.4894	879.3668	979.7932	1023.0391	1035.3384	1093.1445	1141.3027	1169.0996	1183.6063	1218.1422	1253.4295	1318.4608	1337.673	1366.2664	1402.3482	1422.4537	1479.6254	1484.4579	1488.3011	1507.4554	1750.9798	2359.4061	2959.8683	2999.2245	3035.0149	3056.1506	3067.8986	3113.6717	3140.1245	3521.5623
COC(COC=N)C#N	CO[C@@H](CO[CH][NH])C#N	
InChI=1S/C5H8N2O2/c1-8-5(2-6)3-9-4-7/h4-5,7H,3H2,1H3	InChI=1S/C5H8N2O2/c1-8-5(2-6)3-9-4-7/h4-5,7H,3H2,1H3/t5-/m1/s1
