18
gdb 100582	4.09416	0.78683	0.72101	4.4205	70.99	-0.249	-0.0309	0.218	1556.1473	0.145133	-476.266658	-476.256269	-476.255325	-476.303308	35.418	
C	-0.0546725306	 1.5920579924	 0.1677740896	-0.395144
C	-0.0290686281	 0.0517329062	 0.1047239402	-0.111219
C	 0.8746746177	-0.5396763835	 1.1874827577	-0.080913
O	 2.1929657565	-0.0777274014	 0.9308212779	-0.427873
C	-1.4409650562	-0.511811557	 0.2520891498	 0.42951
O	-1.8714865608	-0.9754431279	 1.2773758333	-0.310243
N	-2.2004345461	-0.4135655126	-0.927821053	-0.351116
C	-3.533184369	-0.767070491	-1.1255318812	 0.165265
O	-4.2834357119	-1.222440951	-0.3090232309	-0.250578
H	 0.9672378584	 1.9720921279	 0.1186283926	 0.149678
H	-0.6290916184	 2.0257963491	-0.6563478693	 0.108031
H	-0.5058341602	 1.9279421485	 1.1070331757	 0.135223
H	 0.3782028637	-0.250925232	-0.8695247429	 0.092861
H	 0.5126498781	-0.222878979	 2.1746441959	 0.112139
H	 0.8192678969	-1.6371618538	 1.1561599702	 0.101133
H	 2.7582075786	-0.3702488142	 1.6511565242	 0.291847
H	-1.7295414922	-0.0340576316	-1.7363298599	 0.256938
H	-3.8248475667	-0.5653091291	-2.17735784	 0.08446
37.0287	56.7695	102.0532	142.5524	198.1096	221.1678	240.1246	248.3345	263.4265	309.2464	352.9229	473.715	570.1058	621.6963	739.1007	786.9228	885.1332	926.579	936.5796	1028.0446	1035.9661	1066.5423	1092.019	1117.2312	1162.2002	1168.5955	1252.376	1264.546	1332.9229	1357.2225	1401.804	1446.713	1457.2262	1489.4854	1500.0018	1508.3928	1519.5123	1806.5181	1871.471	2916.2135	2998.9973	3016.2802	3041.6718	3044.1059	3109.537	3140.5705	3610.6593	3837.7669
CC(CO)C(=O)NC=O	C[C@@H](CO)C(=O)NC=O	
InChI=1S/C5H9NO3/c1-4(2-7)5(9)6-3-8/h3-4,7H,2H2,1H3,(H,6,8,9)	InChI=1S/C5H9NO3/c1-4(2-7)5(9)6-3-8/h3-4,7H,2H2,1H3,(H,6,8,9)/t4-/m0/s1
