19
gdb 89919	4.29081	0.86902	0.80965	2.0129	76.69	-0.2425	-0.0218	0.2207	1421.419	0.1576	-423.002445	-422.993442	-422.992498	-423.037029	33.202	
O	-0.0131369015	 1.402641977	-0.1988438472	-0.431637
C	-0.008931911	 0.0002601554	-0.0447819957	 0.12738
C	 0.3370655497	-0.5999737026	 1.3650113626	-0.337132
C	-1.0629165673	-1.2330270997	 1.4018080284	 0.352286
C	-1.3617156605	-2.616453458	 1.9203844543	-0.392647
C	-1.336164113	-2.6621045667	 3.4371299858	 0.166497
O	-0.6636879637	-3.4156159713	 4.0917894213	-0.238263
C	-2.0922356616	-0.1399859321	 1.2978901159	-0.320493
C	-1.4033748052	-0.6034819832	 0.042426435	-0.121965
H	 0.8999071583	 1.7074591341	-0.2082961338	 0.284148
H	 0.5893405081	-0.4808443784	-0.8296861066	 0.072544
H	 1.147721082	-1.3320926731	 1.3238624069	 0.10616
H	 0.5531003627	 0.1323969048	 2.1494379153	 0.099134
H	-2.3709773216	-2.9135680072	 1.6004797376	 0.118447
H	-0.6515425396	-3.3588662603	 1.5417315158	 0.117889
H	-2.0032391972	-1.9137491933	 3.9244364184	 0.076907
H	-3.1260880183	-0.4587943997	 1.389326021	 0.109644
H	-1.8915386586	 0.8520690102	 1.6911469389	 0.124278
H	-1.9557947918	-1.026391166	-0.7881642441	 0.086822
49.39	73.2037	113.2832	194.5652	263.0496	294.166	340.591	367.9316	431.3406	480.7226	560.3436	644.0978	707.8771	814.8081	822.0475	863.6024	911.6759	962.817	964.4965	981.473	995.4909	1037.6172	1063.5094	1075.8276	1090.5417	1122.4331	1167.6132	1174.5295	1216.1633	1240.4451	1269.1911	1281.2176	1310.4685	1334.111	1396.9113	1423.0819	1425.1559	1453.4161	1475.6915	1502.3464	1834.4864	2866.5219	3009.8465	3011.1086	3046.5019	3083.2368	3105.3392	3121.0384	3181.5834	3206.1926	3815.0894
OC1CC2(CC=O)CC12	O[C@H]1C[C@@]2(CC=O)C[C@@H]12	
InChI=1S/C7H10O2/c8-2-1-7-3-5(7)6(9)4-7/h2,5-6,9H,1,3-4H2	InChI=1S/C7H10O2/c8-2-1-7-3-5(7)6(9)4-7/h2,5-6,9H,1,3-4H2/t5-,6-,7+/m0/s1
