23
gdb 121728	6.63414	0.50068	0.4737	1.3926	84.31	-0.2444	-0.0098	0.2346	2384.851	0.202016	-425.444655	-425.433014	-425.43207	-425.483609	39.347	
C	 0.0338379866	 1.6279080347	-0.0961662417	-0.386744
C	-0.0012933633	 0.1005126208	-0.0052973778	-0.159193
C	 0.6775648839	-0.5766592397	-1.1957866902	-0.277747
C	 0.6602893492	-2.0984721893	-1.1368772519	 0.36149
O	 0.1481487661	-2.7008115747	-0.2186201671	-0.301879
C	 1.3229815966	-2.8252852724	-2.2971004675	-0.312956
C	 1.2658178822	-4.3399020508	-2.1678525464	-0.051038
O	 1.908594833	-4.8933997722	-3.2964744984	-0.236005
C	 1.9149561402	-6.3003559016	-3.2822150557	-0.228018
H	 1.063080691	 2.0030589341	-0.1293078211	 0.112575
H	-0.4758548924	 1.9867950045	-0.9976042999	 0.112576
H	-0.4581625346	 2.085942857	 0.7672579449	 0.115718
H	 0.482572957	-0.2347087705	 0.9182661341	 0.11188
H	-1.0364970433	-0.2507695566	 0.0611661969	 0.111895
H	 0.2084184051	-0.2700015485	-2.142075846	 0.117931
H	 1.7250873289	-0.2540337021	-1.2863349006	 0.117917
H	 0.8472696915	-2.5109931537	-3.2351825856	 0.128995
H	 2.3668337236	-2.4950792862	-2.3771866281	 0.128993
H	 1.757809352	-4.6623740116	-1.2370295847	 0.099998
H	 0.2198945675	-4.6783811494	-2.1050422486	 0.100002
H	 2.4462318771	-6.6986097071	-2.4030399742	 0.104319
H	 0.8940334703	-6.7144980486	-3.2791490622	 0.10432
H	 2.4288595818	-6.6354540759	-4.1866067481	 0.124971
36.1681	42.9919	81.027	85.7739	95.6799	123.2637	190.0006	235.923	242.0646	279.7315	323.6959	360.7971	473.6289	493.1987	683.275	706.8874	776.8081	867.4568	868.2198	908.1707	989.52	1006.6636	1025.7853	1051.836	1102.6918	1138.9468	1139.4343	1166.1647	1182.1793	1219.6583	1231.7419	1255.7627	1300.441	1305.6544	1326.392	1344.4567	1395.6476	1413.8983	1422.7963	1448.2536	1462.6883	1483.4392	1485.3251	1487.3413	1499.9064	1505.1696	1508.29	1526.356	1798.6898	2966.1924	2982.8794	3006.8684	3007.2186	3012.7627	3027.7425	3032.5029	3032.5381	3049.9485	3065.7652	3075.0529	3099.9631	3103.3252	3112.324
CCCC(=O)CCOC	CCCC(=O)CCOC	
InChI=1S/C7H14O2/c1-3-4-7(8)5-6-9-2/h3-6H2,1-2H3	InChI=1S/C7H14O2/c1-3-4-7(8)5-6-9-2/h3-6H2,1-2H3
