19
gdb 90447	2.78716	1.47452	1.29007	2.3964	77.72	-0.2347	0.0072	0.242	1073.6606	0.158863	-422.989077	-422.980719	-422.979775	-423.02186	32.193	
C	 0.2108837117	 1.4859972783	 0.0974999385	-0.398131
C	-0.0118994733	-0.0115827675	 0.0554828318	 0.075081
O	 0.8923082201	-0.6982481819	-0.8808226988	-0.31975
C	 1.2275858531	-1.7014544585	 0.1193174112	 0.121314
C	 2.6625366701	-1.897866241	 0.6707909762	 0.06119
O	 3.4567415994	-0.8101184635	 0.2436560439	-0.418214
C	 2.3851143422	-1.8419907194	 2.2174658892	-0.279912
C	 1.2228073866	-0.8528751228	 2.3208762023	-0.203743
C	 0.5760141537	-0.8592878628	 1.1621168646	 0.178128
H	 1.2555338718	 1.6976693652	 0.3366301817	 0.138054
H	-0.0276384893	 1.9312658329	-0.8732706969	 0.12701
H	-0.4344791302	 1.9458793844	 0.8536688214	 0.115446
H	-1.0525787705	-0.2516899716	-0.203941377	 0.081729
H	 0.7662056646	-2.665756446	-0.1350577409	 0.075269
H	 3.1098079648	-2.8562382405	 0.3684808075	 0.058636
H	 4.3217631096	-0.8999348318	 0.6556278336	 0.283232
H	 2.1441459075	-2.8390724909	 2.6115581112	 0.108297
H	 3.2729387316	-1.4962347699	 2.7605969963	 0.097023
H	 1.0761705866	-0.1905173728	 3.1653000239	 0.099343
82.9977	146.0088	214.3831	239.8453	258.201	272.6464	374.3529	392.4515	495.2329	501.9657	644.6554	727.6532	787.8002	823.3767	847.6683	854.2392	867.2053	894.9856	928.1522	982.8733	1017.4812	1052.6616	1067.682	1082.2968	1111.2388	1144.1563	1185.3414	1191.4701	1232.6801	1264.8189	1273.6207	1309.6405	1342.1461	1348.2052	1384.4418	1400.0128	1426.7451	1474.1908	1479.8519	1495.205	1740.0518	2985.9688	3000.5279	3006.7977	3017.3703	3038.957	3056.608	3108.7782	3134.2125	3204.2403	3818.6103
CC1OC2C(O)CC=C12	C[C@H]1O[C@H]2[C@@H](O)C[CH][C]12	
InChI=1S/C7H10O2/c1-4-5-2-3-6(8)7(5)9-4/h2,4,6-8H,3H2,1H3	InChI=1S/C7H10O2/c1-4-5-2-3-6(8)7(5)9-4/h2,4,6-8H,3H2,1H3/t4-,6+,7-/m1/s1
