19
gdb 35736	4.21337	1.01013	0.91773	0.8598	82.09	-0.2354	0.0489	0.2843	1308.9551	0.158836	-385.846348	-385.837864	-385.83692	-385.880147	32.811	
C	-0.1248460764	-1.2093713312	-0.0900741139	-0.455048
C	-0.0509284303	-0.0101116735	-0.0466657348	 0.312134
C	 0.0363197259	 1.4376758946	 0.0317793262	-0.172839
C	-0.5026948119	 2.04111482	 1.3510028733	-0.10612
O	 0.0542014341	 3.3407561713	 1.3862655972	-0.279424
C	 1.3904548794	 3.22571833	 0.9360422962	 0.457744
C	 2.1282284845	 4.5081542437	 0.7477608247	-0.338019
C	 2.4864878248	 3.5849176711	 1.9032930151	-0.326358
C	 1.4816034186	 2.0145105133	 0.0014581422	-0.328
H	-0.1929564572	-2.2679933254	-0.1353854804	 0.195773
H	-0.5360987066	 1.8811546913	-0.7908677086	 0.112354
H	-1.5905257943	 2.1315429534	 1.3753389451	 0.117354
H	-0.1731632141	 1.4326408407	 2.2070568854	 0.100852
H	 2.8175223582	 4.5891743891	-0.0862788581	 0.113651
H	 1.5930220173	 5.4203434597	 0.9872571381	 0.125612
H	 2.183528434	 3.8964865092	 2.8965672094	 0.12163
H	 3.4223405548	 3.0368224507	 1.8571545237	 0.110309
H	 2.1932980374	 1.2748352272	 0.3758943066	 0.12058
H	 1.7805648115	 2.2865336548	-1.0135629171	 0.117814
28.2604	139.4954	152.1846	257.9646	298.3334	320.1515	441.6049	468.9413	509.4689	540.7444	584.5736	630.1615	634.3321	763.5246	778.4022	843.6444	874.6612	899.1291	919.5921	961.3939	979.8067	1041.7074	1048.088	1065.0786	1075.1177	1091.9378	1103.9884	1189.4079	1199.2249	1234.0676	1245.2748	1277.9726	1310.5284	1332.449	1364.6194	1390.8032	1449.5683	1495.4523	1498.8149	1516.6414	2237.5454	2990.4493	3041.098	3066.1429	3110.5721	3112.9949	3126.6019	3131.9027	3213.7254	3227.8943	3504.923
C#CC1COC2(CC2)C1	C#C[C@H]1COC2(CC2)C1	
InChI=1S/C8H10O/c1-2-7-5-8(3-4-8)9-6-7/h1,7H,3-6H2	InChI=1S/C8H10O/c1-2-7-5-8(3-4-8)9-6-7/h1,7H,3-6H2/t7-/m1/s1
