16
gdb 34231	3.41474	1.59446	1.37412	1.0557	75.	-0.2351	0.0211	0.2563	950.3925	0.125473	-400.649509	-400.642789	-400.641845	-400.680422	27.783	
C	-0.0374361265	-1.1947566765	 0.0713602565	-0.352534
C	-0.0484528863	 0.0074295492	 0.0366471744	 0.075445
C	-0.077595597	 1.4366286092	-0.0091939118	 0.226931
N	-1.0430871277	 2.2232155833	 0.8168238623	-0.365683
C	-0.6703898608	 3.3608720835	-0.0988953496	-0.089225
C	 0.7474375225	 3.6474165256	 0.4272628849	-0.190762
C	 1.2794284857	 2.2918921564	-0.0652392504	 0.026997
O	 1.134365064	 2.4329581077	-1.5093993283	-0.291662
C	-0.2640770745	 2.3323274399	-1.2601788714	 0.043403
H	-0.0231032192	-2.2562551721	 0.1015737431	 0.187257
H	-1.97442144	 1.8876158497	 0.5675427117	 0.222608
H	-1.3843778009	 4.1719437479	-0.2201271491	 0.082243
H	 1.2711609457	 4.4637755487	-0.0727382409	 0.11199
H	 0.7450693756	 3.7787886595	 1.5097562371	 0.118185
H	 2.2433170528	 1.9001722249	 0.2503856659	 0.097241
H	-0.9012439334	 2.143196183	-2.1233228042	 0.097565
142.3458	151.0224	382.0426	427.1728	493.1591	519.0363	526.0826	585.2827	620.6521	660.6256	703.8074	749.5348	796.2521	846.8966	889.4737	919.121	923.124	929.7212	970.1868	989.442	1003.7484	1040.7097	1073.8888	1120.0129	1139.4435	1172.2767	1219.4518	1230.0784	1251.7259	1275.4836	1289.3733	1341.4934	1354.5518	1465.2969	2236.4972	3085.812	3132.3379	3150.6574	3153.7218	3159.8352	3454.0276	3500.9576
C#CC12NC3CC1OC23	C#C[C@@]12N[C@H]3C[C@@H]1O[C@@H]23	
InChI=1S/C7H7NO/c1-2-7-5-3-4(8-7)6(7)9-5/h1,4-6,8H,3H2	InChI=1S/C7H7NO/c1-2-7-5-3-4(8-7)6(7)9-5/h1,4-6,8H,3H2/t4-,5-,6+,7+/m0/s1
