20
gdb 80586	2.75142	1.28328	1.16792	3.7203	80.56	-0.225	0.0329	0.2579	1176.9114	0.1698	-403.146577	-403.137217	-403.136273	-403.181459	33.996	
C	 0.2961352521	 1.6084733844	 0.0935485	-0.416544
C	 0.2034313699	 0.1045201809	-0.024902214	-0.005918
C	 0.6330231143	-0.7090077696	-1.2289145014	-0.121029
C	 1.9426827016	-0.1787722294	-1.8364346303	-0.20275
N	 2.5634831576	-0.3048327019	-0.5063789937	-0.062202
C	 1.3645657035	-0.8438422681	 0.1088240887	-0.023186
C	 3.6355961127	 0.2797958331	 0.1029117874	 0.363417
C	 4.611067617	 0.9695011826	-0.8391520133	-0.49154
O	 3.799001372	 0.2156035089	 1.308357485	-0.36759
H	 1.2417561889	 1.991579334	-0.298189982	 0.120816
H	-0.5165568608	 2.096018626	-0.4554444838	 0.117285
H	 0.2301084725	 1.9161484367	 1.1417499367	 0.131648
H	-0.6959172218	-0.318110685	 0.4207543875	 0.095099
H	-0.0155153871	-1.4211816732	-1.7196432715	 0.100119
H	 2.3844609412	-0.8607063032	-2.571337238	 0.118294
H	 1.9244307662	 0.8352807434	-2.2522723896	 0.112497
H	 1.4214562972	-1.6599879308	 0.8174043377	 0.115419
H	 4.1965015549	 1.9216590876	-1.1892724309	 0.137229
H	 5.5334255352	 1.1708943808	-0.2947061448	 0.147877
H	 4.8277216828	 0.3592497829	-1.7210788197	 0.13106
52.7277	70.6892	107.3462	169.5779	184.6153	254.234	260.8139	372.9805	438.5055	538.0286	572.2284	607.7839	659.7576	722.7622	815.7802	824.9895	869.2464	952.7965	965.5127	999.7712	1014.1177	1045.8746	1047.5176	1071.4296	1096.1097	1115.658	1131.4761	1163.1287	1196.0204	1213.3234	1265.4808	1310.0507	1338.6938	1379.5927	1410.7432	1437.008	1440.1729	1471.7344	1482.1887	1490.1913	1497.1572	1513.4066	1769.51	3024.4494	3039.7069	3040.6062	3068.7459	3101.1087	3103.4581	3114.2602	3131.2543	3158.5079	3197.7304	3213.2061
CC1C2CN(C12)C(C)=O	C[C@H]1[C@H]2CN([C@@H]12)C(=O)C	
InChI=1S/C7H11NO/c1-4-6-3-8(5(2)9)7(4)6/h4,6-7H,3H2,1-2H3	InChI=1S/C7H11NO/c1-4-6-3-8(5(2)9)7(4)6/h4,6-7H,3H2,1-2H3/t4-,6+,7-/m0/s1
