19
gdb 115887	2.47621	1.47032	1.10494	2.0085	70.97	-0.2304	0.0742	0.3046	1148.9819	0.158168	-460.125803	-460.116984	-460.11604	-460.159304	33.173	
C	 0.0342561949	 1.3380324067	-0.1766850744	-0.238505
O	 0.0062809656	-0.0357593924	 0.1461381168	-0.251689
C	-1.2924159286	-0.5946725059	 0.1487072215	 0.025867
C	-1.8688567392	-0.8492216007	-1.2705008289	-0.121582
O	-2.6051200592	-2.0695110589	-1.2147506791	-0.25725
C	-2.111969721	-2.8220185307	-0.1361007488	 0.062053
C	-0.6204030488	-3.073888065	-0.0398738895	-0.383824
C	-1.2867413626	-1.9760968281	 0.7729450871	 0.345111
O	-1.3930294539	-2.0775748859	 2.1558744265	-0.472611
H	 1.0702515602	 1.6719613165	-0.081356722	 0.12996
H	-0.3022585049	 1.5325986348	-1.2059393204	 0.110232
H	-0.5944771391	 1.9277838888	 0.5084253951	 0.108589
H	-1.9686706428	 0.0392395655	 0.7434214119	 0.078764
H	-2.5496987459	-0.0684557574	-1.6188495007	 0.112789
H	-1.0309618053	-0.9229812621	-1.9791958509	 0.105089
H	-2.8171329878	-3.5627486869	 0.2201654833	 0.11468
H	-0.3305794923	-3.9554825499	 0.5214778199	 0.118624
H	 0.0349220943	-2.8115869524	-0.8626423761	 0.124943
H	-0.5331784436	-1.8493329661	 2.5276397888	 0.288758
84.1032	112.1535	174.3185	216.1055	237.6018	292.0405	325.1927	376.5918	434.4629	471.4281	514.1095	581.7751	687.2475	727.3732	839.5595	880.7423	941.6868	983.0898	1000.5946	1017.8756	1022.46	1031.0531	1073.4471	1085.7	1148.05	1163.7049	1182.6576	1213.5743	1226.485	1250.479	1265.5797	1322.7927	1325.347	1358.1595	1397.6378	1423.4208	1479.6367	1491.4362	1492.5596	1508.4417	1519.9598	2975.6826	2985.6794	3000.1267	3025.5424	3091.5436	3115.1514	3137.4503	3195.9671	3230.5752	3789.2536
COC1COC2CC12O	CO[C@H]1CO[C@H]2C[C@@]12O	
InChI=1S/C6H10O3/c1-8-5-3-9-4-2-6(4,5)7/h4-5,7H,2-3H2,1H3	InChI=1S/C6H10O3/c1-8-5-3-9-4-2-6(4,5)7/h4-5,7H,2-3H2,1H3/t4-,5-,6-/m0/s1
