21
gdb 116327	3.01688	1.26733	0.99037	2.6705	78.61	-0.2505	0.0785	0.329	1253.7226	0.183559	-424.214007	-424.205417	-424.204473	-424.247413	32.696	
C	-0.0407005602	 1.3841367403	 0.027403369	-0.237465
O	 0.1645908915	-0.0065384962	-0.0609276593	-0.254161
C	 0.6977946194	-0.6037672295	 1.1098783257	 0.129919
C	-0.3221615027	-0.7458531129	 2.2481762528	-0.237765
C	 0.2986366315	-1.5160197423	 3.4218734576	-0.211677
C	 0.6762782221	-2.9591349486	 3.0428023034	-0.221111
C	 1.2517933046	-3.0820409573	 1.6420589538	 0.039898
O	 0.30349579	-3.014569109	 0.5697338655	-0.250037
C	 1.2479376632	-1.9508005045	 0.6973632936	 0.038793
H	 0.8791115575	 1.9127775094	 0.3255941312	 0.100133
H	-0.3356338803	 1.7279588136	-0.9671835672	 0.128432
H	-0.8364628266	 1.6530264068	 0.7368949358	 0.108023
H	 1.550410536	 0.003505106	 1.4684724931	 0.059629
H	-0.6463388686	 0.2443776966	 2.5827194011	 0.092666
H	-1.2003373412	-1.2707317519	 1.8587753119	 0.12221
H	 1.1997076041	-0.9830307496	 3.7541744206	 0.097223
H	-0.3853895171	-1.5233134181	 4.2766427388	 0.098595
H	 1.3972953065	-3.3596457998	 3.7640124766	 0.098822
H	-0.2063043405	-3.6085599853	 3.0919376014	 0.118186
H	 2.0079265703	-3.8554362282	 1.5019167302	 0.08941
H	 1.9919525804	-1.9121383594	-0.0985312556	 0.090277
78.7862	104.8065	186.3093	202.5841	261.2574	309.4775	360.5489	395.0232	433.3875	477.1481	634.8331	647.4831	781.9547	793.5302	871.0008	883.9089	900.4084	941.4357	982.0737	1025.9886	1042.7653	1071.4548	1083.0307	1133.584	1153.8612	1173.5222	1178.9472	1188.8156	1219.7381	1230.1932	1285.885	1290.3557	1340.1837	1353.6172	1369.2612	1379.9775	1388.7783	1408.0197	1463.5466	1477.8787	1482.6762	1487.852	1493.1665	1499.3848	1511.4691	2925.8676	2973.7572	3017.3464	3026.1369	3031.931	3050.6968	3067.2991	3077.2571	3097.7006	3099.3101	3111.4033	3114.4759
COC1CCCC2OC12	CO[C@H]1CCC[C@H]2O[C@@H]12	
InChI=1S/C7H12O2/c1-8-5-3-2-4-6-7(5)9-6/h5-7H,2-4H2,1H3	InChI=1S/C7H12O2/c1-8-5-3-2-4-6-7(5)9-6/h5-7H,2-4H2,1H3/t5-,6+,7-/m0/s1
