19
gdb 13564	3.50339	1.37729	1.2151	3.8401	73.07	-0.2362	0.0284	0.2646	1072.6568	0.164831	-365.074864	-365.066005	-365.065061	-365.108322	32.006	
C	-0.6079986994	 1.2651862669	 0.092464184	-0.410663
C	-0.0594465353	-0.1441543916	 0.0887762125	 0.001107
C	 1.3633233772	-0.3919627856	-0.3466642983	-0.318665
C	 0.9783165219	-0.6044466652	 1.0964439354	 0.010577
N	 1.4558059289	 0.2763442613	 2.121011523	-0.044684
C	 0.5895614766	 0.5000749855	 3.2701099689	-0.346051
C	 2.7686974975	 0.6582960457	 2.1924716128	 0.150713
O	 3.2680610022	 1.2894874811	 3.1006022649	-0.342651
H	 0.1297151954	 1.9745574358	 0.4782919493	 0.129182
H	-0.8756611996	 1.5797788098	-0.9218108432	 0.122174
H	-1.5079560004	 1.3437402479	 0.7114821567	 0.120134
H	-0.7789652953	-0.9097874457	-0.1882742366	 0.090073
H	 1.6006282307	-1.2661966025	-0.9419706174	 0.121434
H	 1.9557406002	 0.4840861632	-0.5861973658	 0.126294
H	 0.8850308478	-1.641723601	 1.4194401519	 0.095344
H	 0.3249762134	-0.451393775	 3.7490256044	 0.121393
H	 1.1329818803	 1.1212753353	 3.9818564264	 0.166542
H	-0.3332819212	 1.0026043234	 2.9670011816	 0.127481
H	 3.3374096589	 0.3320375307	 1.3037829794	 0.080264
68.064	130.4753	150.8688	189.6669	223.6224	260.6183	324.6381	344.4407	363.2683	444.5103	537.7678	661.9764	784.9986	823.9785	854.2365	906.2435	945.734	1015.2419	1036.7009	1062.7925	1088.4748	1110.749	1137.3564	1151.0037	1164.6142	1195.9812	1211.0475	1293.2413	1373.5546	1394.	1414.2506	1419.8849	1438.2957	1444.206	1487.5054	1494.6431	1498.5762	1506.0191	1516.9259	1791.1286	2977.608	3022.7783	3034.1333	3088.3639	3090.3731	3095.0298	3110.0089	3140.3057	3146.7294	3160.489	3225.4738
CC1CC1N(C)C=O	C[C@H]1C[C@H]1N(C)C=O	
InChI=1S/C6H11NO/c1-5-3-6(5)7(2)4-8/h4-6H,3H2,1-2H3	InChI=1S/C6H11NO/c1-5-3-6(5)7(2)4-8/h4-6H,3H2,1-2H3/t5-,6+/m0/s1
