16
gdb 21156	3.33488	1.80203	1.20088	4.0396	68.65	-0.2002	0.0004	0.2006	988.7522	0.130463	-379.910294	-379.902074	-379.901129	-379.943862	28.729	
C	 0.1668158283	 1.4431557479	 0.1100049422	-0.329688
N	-0.2503686814	 0.0718034056	-0.1521513106	-0.395833
C	 0.4641871682	-0.6518845475	-1.1084209901	 0.096856
C	 0.6675990771	-2.0026656541	-1.191110503	 0.345806
C	 0.2787363104	-3.1484652869	-0.3276464272	-0.50266
O	 1.3564836043	-2.2835360232	-2.3239386339	-0.211107
N	 1.6319921368	-1.1132719231	-3.0039928889	-0.145989
C	 1.1015633973	-0.1548732886	-2.28276839	-0.016029
H	 1.2290694902	 1.5420332725	 0.3840881221	 0.114521
H	-0.0141652134	 2.0635450752	-0.7735626398	 0.136335
H	-0.4425213832	 1.8477344467	 0.9215673888	 0.127382
H	-0.3872782331	-0.4548944275	 0.6995901799	 0.232097
H	-0.6359067052	-3.6402716028	-0.6802619426	 0.148014
H	 1.0735240646	-3.8997180964	-0.306171434	 0.151728
H	 0.1000359165	-2.8146067559	 0.6994284301	 0.125303
H	 1.1920825327	 0.8672201881	-2.620908203	 0.123263
44.6756	71.0809	174.3731	203.6613	228.5847	283.4479	358.6525	460.1729	595.1181	627.2459	648.171	694.6321	759.7977	885.0936	932.8267	964.9133	1005.565	1056.928	1067.5909	1126.5224	1152.194	1212.77	1241.3359	1263.5819	1409.3557	1437.0633	1468.0148	1470.631	1484.1325	1489.5473	1492.5303	1516.9017	1526.0836	1692.8071	2979.308	3027.6388	3072.6189	3084.8748	3113.7453	3119.9708	3247.5207	3574.7923
CNC1=C(C)ON=C1	CNc1c(C)onc1	
InChI=1S/C5H8N2O/c1-4-5(6-2)3-7-8-4/h3,6H,1-2H3	InChI=1S/C5H8N2O/c1-4-5(6-2)3-7-8-4/h3,6H,1-2H3
