19
gdb 117573	1.96067	1.18426	0.81094	1.5891	77.82	-0.2559	0.0484	0.3043	1443.1398	0.156107	-422.948032	-422.937985	-422.93704	-422.983899	35.32	
C	-0.0461579082	 1.3256618758	-0.634159673	-0.229245
O	 0.0853174584	-0.0231311255	-0.2530431071	-0.233536
C	 0.3934445262	-0.8683125566	-1.335826658	-0.076876
C	 0.4762251175	-2.3043974422	-0.7962875083	-0.202392
C	-0.8357413572	-2.8335795546	-0.4296375682	 0.341098
C	-1.9108777526	-3.2980733965	-0.1608334814	-0.479724
C	 1.1696536978	-3.2774186496	-1.7502674481	 0.070817
C	 1.2153634313	-3.1127188298	-3.206856343	-0.174858
O	 2.3607060407	-2.8311022313	-2.3917028905	-0.236094
H	 0.882694269	 1.717833201	-1.0778476007	 0.105645
H	-0.8604040913	 1.4667037495	-1.3624244403	 0.105546
H	-0.2762629977	 1.8976422542	 0.2677115993	 0.129929
H	-0.380995356	-0.7959635724	-2.1158989467	 0.092426
H	 1.3626805283	-0.6000912849	-1.7830594499	 0.110047
H	 1.0952818492	-2.2489068168	 0.1102047629	 0.128714
H	-2.8621820468	-3.6956196319	 0.0932088435	 0.198136
H	 1.2276750493	-4.2920744777	-1.3558984525	 0.109384
H	 1.3019525959	-3.9912497658	-3.8437287657	 0.121243
H	 0.7545620061	-2.245950105	-3.6755461221	 0.119739
68.039	71.5536	97.0888	137.0468	151.0754	211.0637	239.1613	291.0736	349.0926	395.4932	478.6321	549.5881	589.163	631.6558	648.6517	828.5388	860.2515	877.6893	963.6218	996.5292	1018.7408	1085.9582	1100.9584	1139.9128	1160.8189	1165.4159	1181.4657	1185.6785	1229.7429	1258.588	1290.3902	1302.3954	1346.5448	1410.1799	1436.1315	1479.3738	1484.6307	1503.3758	1529.5679	1538.6755	2238.8415	2964.9486	2976.2888	3010.026	3015.0043	3022.4404	3095.5416	3111.7621	3117.3408	3182.8118	3504.5287
COCC(C#C)C1CO1	COC[C@@H](C#C)[C@H]1CO1	
InChI=1S/C7H10O2/c1-3-6(4-8-2)7-5-9-7/h1,6-7H,4-5H2,2H3	InChI=1S/C7H10O2/c1-3-6(4-8-2)7-5-9-7/h1,6-7H,4-5H2,2H3/t6-,7-/m1/s1
