17
gdb 7475	3.90837	1.42407	1.31715	3.1996	68.05	-0.2746	0.0217	0.2963	981.8406	0.141779	-363.871265	-363.863233	-363.862289	-363.903714	30.022	
O	 0.0619119873	 1.5476092154	-0.306905234	-0.478395
C	-0.02054558	 0.1820808639	 0.0156569814	 0.420983
C	 0.8422944127	-0.658929139	-0.9551343734	-0.38171
C	 2.2467762039	-0.2626259592	-0.8816269503	 0.243891
N	 3.3388451943	 0.1052562901	-0.7872257883	-0.308619
C	 0.1621892529	-0.2256241171	 1.5101451943	-0.278734
C	-1.1242748508	-1.0888856121	 1.3940216215	-0.216779
C	-1.4797593654	-0.3284542182	 0.0867265759	-0.265908
H	 0.981020278	 1.8310224622	-0.2211403147	 0.291607
H	 0.7561536041	-1.7266675844	-0.7275265345	 0.150266
H	 0.4830532127	-0.50382582	-1.9781253526	 0.15782
H	 1.0952452393	-0.719790855	 1.7922509488	 0.109319
H	 0.0129534311	 0.6479885247	 2.1488199661	 0.11603
H	-0.9061861793	-2.1458252392	 1.2192999476	 0.106339
H	-1.8404840371	-1.0196357711	 2.2139298963	 0.110962
H	-2.148780635	 0.5154160072	 0.267411834	 0.12325
H	-1.8544381986	-0.9043132183	-0.7635254082	 0.099679
78.1655	128.3929	145.2336	283.894	333.1063	362.4323	400.8589	407.9305	436.9283	535.3759	658.0964	739.1017	789.8277	845.7265	892.8318	916.711	934.6605	957.7351	979.1405	1033.4661	1058.1109	1131.887	1190.695	1196.2464	1246.5384	1250.9903	1266.6291	1277.6877	1296.7064	1313.0999	1386.54	1454.3715	1469.9276	1484.8838	1506.4479	2354.7414	3049.6731	3062.5675	3064.1282	3071.0561	3095.491	3112.5975	3123.1814	3134.3042	3775.812
OC1(CC#N)CCC1	OC1(CC#N)CCC1	
InChI=1S/C6H9NO/c7-5-4-6(8)2-1-3-6/h8H,1-4H2	InChI=1S/C6H9NO/c7-5-4-6(8)2-1-3-6/h8H,1-4H2
