17
gdb 68724	2.4678	1.657	1.30237	2.0169	79.37	-0.2374	0.0209	0.2584	1034.9196	0.133777	-384.605893	-384.597717	-384.596773	-384.638254	32.007	
C	 0.0176168367	 1.5259189479	 0.0232011326	-0.492736
C	-0.0908229154	 0.0379842976	 0.1004806115	 0.317028
O	 1.0638695935	-0.7413839453	-0.2314597719	-0.327199
C	 0.4834141196	-0.939211844	 1.0784487056	 0.20899
C	 1.3001549085	-0.7302204444	 2.2247246045	 0.247997
C	 1.966086244	-0.5736582603	 3.2141625217	-0.411232
C	-0.7320774393	-1.8357475597	 0.9380609088	-0.166234
C	-1.9751569702	-1.0549473546	 1.2766580466	-0.293132
C	-1.3224941113	-0.836187361	-0.0647009032	-0.130445
H	 0.947821378	 1.8639564787	 0.4861695133	 0.14355
H	 0.0136942051	 1.8573095163	-1.0211974855	 0.134033
H	-0.8271066501	 2.0006320303	 0.531476444	 0.12892
H	 2.5615162419	-0.4350124727	 4.0823915484	 0.192533
H	-0.7099573952	-2.9151423362	 0.8630497489	 0.105646
H	-2.9022145163	-1.6201348136	 1.2630386775	 0.120105
H	-1.9402265007	-0.28004116	 2.0373203338	 0.120064
H	-1.8123945387	-1.0655946589	-1.0026054064	 0.102112
120.1983	136.4124	187.3134	219.0114	289.7982	353.8236	436.5314	526.1367	551.2593	584.5292	596.5368	606.1982	666.1314	688.9605	743.576	803.4803	835.0518	859.4648	930.4637	938.8814	996.6231	1034.2026	1060.2094	1074.1848	1097.643	1120.2659	1158.4077	1202.9091	1233.7354	1311.7005	1316.7891	1403.7408	1447.9232	1481.9052	1487.9382	1490.4682	2238.585	3037.8093	3101.2871	3118.6576	3128.636	3192.7279	3198.7546	3209.9389	3502.3207
CC12OC1(C#C)C1CC21	C[C@@]12O[C@]1(C#C)[C@H]1C[C@@H]21	
InChI=1S/C8H8O/c1-3-8-6-4-5(6)7(8,2)9-8/h1,5-6H,4H2,2H3	InChI=1S/C8H8O/c1-3-8-6-4-5(6)7(8,2)9-8/h1,5-6H,4H2,2H3/t5-,6+,7+,8-/m1/s1
