25
gdb 59760	2.44068	1.26585	0.97972	1.3481	88.45	-0.241	0.0756	0.3166	1357.8582	0.228668	-389.512374	-389.502057	-389.501113	-389.547649	38.641	
C	-0.2410539559	 1.5720192611	-0.1862665038	-0.391306
C	 0.0084826112	 0.0727600311	 0.0323266091	 0.005231
C	 0.7905934441	-0.1668647729	 1.3313470152	-0.396914
C	-1.3132103613	-0.6982241198	 0.0420240068	 0.158049
O	-2.0157827824	-0.439419597	-1.1730441041	-0.274887
C	-3.0614687299	-1.398875688	-1.2998005569	-0.066104
C	-2.714039624	-2.5687538569	-0.3446419488	-0.258211
C	-1.2766639958	-2.2418372204	 0.1205573873	-0.004694
C	-0.2224893376	-2.8818190159	-0.7911025647	-0.398589
H	 0.7061260344	 2.1192728762	-0.2354916177	 0.102624
H	-0.7930871644	 1.7446589944	-1.112013958	 0.133744
H	-0.8260475894	 1.9942388747	 0.640081651	 0.105393
H	 0.6033903612	-0.2962982069	-0.8121977872	 0.078278
H	 0.2170518186	 0.1737404095	 2.2017869996	 0.112084
H	 1.0299434637	-1.2236374165	 1.4839262284	 0.113827
H	 1.7331906546	 0.3894642719	 1.3213790025	 0.112681
H	-1.9130439329	-0.3286781046	 0.896972625	 0.049511
H	-4.0281571703	-0.9448354336	-1.0391583588	 0.091289
H	-3.1087445211	-1.7050786846	-2.3502787931	 0.102986
H	-3.3996427847	-2.5831909818	 0.5076163281	 0.101157
H	-2.7820496663	-3.543048435	-0.8356225457	 0.100457
H	-1.1188519263	-2.5735765059	 1.1515223639	 0.070439
H	-0.3285673985	-2.5292148811	-1.8219279722	 0.127788
H	 0.7967260344	-2.6563947994	-0.4635925696	 0.116809
H	-0.3337960713	-3.9709761788	-0.7952620761	 0.10836
57.6092	90.8789	131.6855	170.5688	219.0454	227.83	240.7032	270.0192	304.751	361.4122	414.6275	440.0255	491.8599	697.4844	720.7033	796.1623	808.1351	876.2819	901.4089	928.1661	940.1752	967.3429	976.0084	991.3013	1019.9465	1036.3445	1078.6861	1114.9455	1130.8296	1175.1901	1180.4602	1202.5512	1227.4326	1235.7175	1275.2287	1310.2094	1319.3891	1332.5273	1348.4374	1375.0954	1385.3644	1397.6531	1408.2164	1414.1256	1424.1837	1489.0757	1489.3647	1492.9768	1501.1871	1504.7985	1505.2454	1513.3777	1530.7247	2902.7176	2997.6334	3026.0723	3026.9547	3032.997	3037.2949	3049.7984	3057.5126	3063.6086	3088.1187	3095.1289	3100.3739	3103.4442	3104.3299	3111.2396	3132.8453
CC(C)C1OCCC1C	CC(C)[C@H]1OCC[C@H]1C	
InChI=1S/C8H16O/c1-6(2)8-7(3)4-5-9-8/h6-8H,4-5H2,1-3H3	InChI=1S/C8H16O/c1-6(2)8-7(3)4-5-9-8/h6-8H,4-5H2,1-3H3/t7-,8-/m1/s1
