18
gdb 6452	4.23261	1.27584	1.1704	2.2392	68.39	-0.2512	-0.0216	0.2296	1060.9922	0.151642	-384.940192	-384.931603	-384.930659	-384.973216	31.754	
C	-0.5766033484	 1.6729685218	-0.0491759345	-0.454685
C	-0.0198040851	 0.2593962679	 0.0240327445	 0.20856
C	 1.2441761144	-0.0741939325	-0.8495947319	-0.313287
C	 1.8627012193	-0.8212208022	 0.3591097894	 0.180525
O	 3.2350520723	-0.7032187489	 0.6245625708	-0.431507
C	 0.8352280182	-0.1242925812	 1.2865249294	-0.313335
C	-1.0953759099	-0.7765304396	-0.2062215415	 0.138263
O	-2.2551717713	-0.5332548542	-0.4224937254	-0.259782
H	 0.216122788	 2.4084972787	 0.1184854204	 0.102259
H	-1.0273485612	 1.8661808742	-1.0269923352	 0.131555
H	-1.3560145185	 1.8262248595	 0.7029515798	 0.131496
H	 1.0998160181	-0.629841042	-1.7798930225	 0.112893
H	 1.7943367381	 0.8453926845	-1.0753546521	 0.102474
H	 1.6741003243	-1.896924981	 0.2977725599	 0.09917
H	 3.4495091849	 0.2336974969	 0.6891777361	 0.277145
H	 1.2551351468	 0.7794374558	 1.7406874434	 0.102448
H	 0.3624369533	-0.7200819652	 2.0717282837	 0.112911
H	-0.7373686932	-1.8328118925	-0.162765934	 0.072898
84.5447	88.8389	195.3688	253.2589	274.4562	301.3999	339.4227	349.1886	437.9862	440.0041	476.5831	662.3749	763.7247	814.0006	856.4601	867.1798	938.4568	976.0538	995.4176	1037.5676	1079.1395	1089.251	1114.3687	1148.9371	1202.631	1224.5964	1268.6839	1283.8641	1312.5631	1344.197	1409.7088	1438.5044	1443.0935	1463.8413	1484.7789	1485.7515	1494.2898	1825.2606	2847.4137	3039.233	3045.7423	3050.575	3069.3969	3104.5948	3107.3117	3112.5089	3115.4169	3805.0786
CC1(CC(O)C1)C=O	C[C@]1(C[C@@H](O)C1)C=O	
InChI=1S/C6H10O2/c1-6(4-7)2-5(8)3-6/h4-5,8H,2-3H2,1H3	InChI=1S/C6H10O2/c1-6(4-7)2-5(8)3-6/h4-5,8H,2-3H2,1H3/t5-,6-
