17
gdb 32958	3.8256	0.97839	0.90228	2.5937	73.24	-0.2036	0.0099	0.2135	1333.9117	0.136131	-455.159698	-455.150708	-455.149764	-455.194425	31.867	
C	 0.0607912647	 0.5153819266	-0.3856905542	-0.237757
O	-0.3562682603	 0.2311954642	 0.9348265447	-0.22931
C	 0.5979360659	-0.5067139537	 1.6805852175	-0.181881
C	 0.7282771017	-1.9292479584	 1.2501003653	 0.351278
N	 1.6589936634	-2.4913930247	 0.5524199156	-0.284755
C	 1.259348761	-3.8147185602	 0.4009724156	-0.195682
C	 0.0691648046	-3.9819862042	 1.0413443922	 0.341955
N	-0.7610222631	-5.0540362567	 1.3108360758	-0.597855
O	-0.2875238833	-2.7943688873	 1.5917492309	-0.192399
H	 0.2473090356	-0.3967741479	-0.9684050367	 0.121176
H	-0.7448409325	 1.0836902619	-0.8564089198	 0.125034
H	 0.9801745042	 1.1211379061	-0.3953575903	 0.106639
H	 1.5963711817	-0.0526168122	 1.6124020795	 0.117275
H	 0.2572039731	-0.4600891045	 2.7192266427	 0.12252
H	 1.8460093021	-4.5362406202	-0.1432301818	 0.109761
H	-0.6203311794	-5.8304381235	 0.6797966422	 0.261304
H	-1.7389548493	-4.7981221752	 1.3603265811	 0.262697
37.4982	93.0975	125.803	197.1112	210.6703	239.1306	311.4417	371.4635	434.4396	474.0891	633.9972	666.0256	708.5806	734.0913	779.4429	797.2928	928.1423	954.8336	996.6526	1037.0561	1098.2848	1118.6986	1147.0684	1183.4538	1215.2218	1255.8621	1290.2788	1317.3908	1392.7223	1432.3628	1467.0042	1481.7595	1484.9681	1510.2975	1610.7768	1625.6644	1671.1041	2984.4141	3015.1984	3043.319	3090.6052	3118.427	3269.2898	3549.1203	3650.4165
COCC1=NC=C(N)O1	COCc1ncc(N)o1	
InChI=1S/C5H8N2O2/c1-8-3-5-7-2-4(6)9-5/h2H,3,6H2,1H3	InChI=1S/C5H8N2O2/c1-8-3-5-7-2-4(6)9-5/h2H,3,6H2,1H3
