17
gdb 78712	3.11836	1.6168	1.25246	1.8738	72.05	-0.2207	0.011	0.2317	993.9299	0.136089	-421.779156	-421.771806	-421.770862	-421.810344	30.31	
O	-0.0316176796	 1.3172920561	 0.1105891199	-0.435649
C	-0.0114149024	-0.0906371073	-0.0017798751	 0.119341
C	-1.4441820985	-0.5823607622	-0.0933741174	-0.136495
C	-1.3504156841	-0.6752879387	-1.6049576216	-0.09706
C	 0.2070984671	-0.5946310562	-1.4956123088	-0.158048
C	 0.6752842952	-2.0305717374	-1.4294135561	-0.097844
C	-0.3246299686	-2.785943736	-0.9669242772	-0.164277
C	-1.5559718692	-1.9407621976	-0.8324832578	 0.374469
O	-2.8217634862	-2.5180712348	-0.8648641876	-0.48296
H	 0.8733956832	 1.6309847928	 0.0097333787	 0.28063
H	 0.6511910425	-0.5411865559	 0.7521336397	 0.056984
H	-2.2672290225	-0.2383468951	 0.5216985093	 0.092704
H	-2.0086330299	-0.3091391303	-2.3823288941	 0.097496
H	 0.7611242593	 0.0943471076	-2.1325035223	 0.06763
H	 1.7046251455	-2.3364436049	-1.5696587787	 0.098928
H	-0.2947847882	-3.835224828	-0.7010867016	 0.098198
H	-3.0302311137	-2.8407100921	 0.0181460606	 0.285953
187.0456	244.2038	294.82	307.8744	322.6016	389.3713	398.2898	425.7983	591.7652	611.3929	723.3789	733.7179	782.1048	815.4783	855.6853	872.5645	906.4117	927.5107	939.1007	975.8914	987.9146	992.9907	1055.7843	1080.0102	1103.7508	1139.0693	1167.7547	1202.8298	1222.7617	1232.8956	1271.7721	1290.5343	1320.3793	1358.7566	1412.0488	1430.1099	1644.868	2985.0893	3116.6073	3184.3435	3198.3817	3199.3516	3223.7749	3804.4979	3804.9747
OC1C2C3C1C=CC23O	O[C@H]1[C@H]2[C@H]3[C@@H]1C=C[C@@]23O	
InChI=1S/C7H8O2/c8-6-3-1-2-7(9)4(3)5(6)7/h1-6,8-9H	InChI=1S/C7H8O2/c8-6-3-1-2-7(9)4(3)5(6)7/h1-6,8-9H/t3-,4+,5+,6+,7-/m0/s1
