23
gdb 86541	3.66053	0.89439	0.87286	1.3029	86.15	-0.2515	0.0754	0.3269	1460.9211	0.205037	-388.268188	-388.258594	-388.25765	-388.302785	37.136	
C	 0.1232060442	 1.5557473341	 0.2289023423	-0.479296
C	 0.0223064355	 0.0500807709	 0.0664001882	 0.3839
C	 1.0352509476	-0.6153301231	-0.8399064956	-0.306039
C	 1.1384640462	-0.7838817645	 0.6571252608	-0.305418
C	-1.3641763722	-0.5597859528	 0.0944005985	-0.024798
C	-2.3315947909	-0.292148971	 1.2865217643	-0.266824
C	-3.4998380051	-0.3228354572	 0.2833422226	 0.147975
O	-4.5102865346	 0.6223696468	 0.5496686648	-0.432602
C	-2.4844777474	-0.0467309692	-0.8597967085	-0.293902
H	 1.1685511272	 1.8775945832	 0.1940177069	 0.11085
H	-0.4088647074	 2.087455654	-0.5676791431	 0.117537
H	-0.2901234284	 1.8904116155	 1.1866677726	 0.119397
H	 0.71503465	-1.46876865	-1.4287804522	 0.105445
H	 1.7686393475	 0.0124184016	-1.3352532203	 0.106239
H	 1.9416366967	-0.2702965544	 1.1752141816	 0.106577
H	 0.8880357635	-1.7511878123	 1.0804079794	 0.106144
H	-1.2612554267	-1.6431484483	-0.0371992287	 0.061861
H	-2.3413370628	-0.996818939	 2.1208535146	 0.095063
H	-2.2230426199	 0.7239575979	 1.6761461873	 0.112495
H	-3.9175443558	-1.3369190303	 0.1970047931	 0.062299
H	-5.1853573909	 0.5429361268	-0.1318019063	 0.279614
H	-2.4121964022	 1.0321515088	-1.0248400087	 0.105481
H	-2.6193776243	-0.5519428076	-1.8197826637	 0.088
47.0069	81.1212	185.034	214.7399	255.1763	273.8424	301.65	329.7809	375.857	437.258	458.0092	495.0877	560.7463	718.8697	783.0627	810.1702	829.0047	863.176	912.0423	932.7144	947.4375	952.8876	1010.5699	1026.2684	1032.6553	1042.9456	1062.0161	1073.8383	1117.5854	1123.8533	1129.8894	1187.2316	1196.1047	1213.2908	1250.7787	1261.5158	1278.867	1294.8957	1330.092	1337.581	1402.3349	1420.0156	1434.6913	1467.3801	1469.6456	1494.6282	1496.7996	1503.0836	1507.8229	2987.0291	3028.031	3032.0641	3053.7582	3064.1005	3090.1616	3098.3152	3112.4758	3120.6111	3123.7714	3128.5087	3200.9147	3215.3287	3814.772
CC1(CC1)C1CC(O)C1	CC1(CC1)[C@H]1C[C@@H](O)C1	
InChI=1S/C8H14O/c1-8(2-3-8)6-4-7(9)5-6/h6-7,9H,2-5H2,1H3	InChI=1S/C8H14O/c1-8(2-3-8)6-4-7(9)5-6/h6-7,9H,2-5H2,1H3/t6-,7+
