21
gdb 22116	2.44661	1.15795	1.02901	8.8159	81.7	-0.1458	0.0109	0.1567	1287.1518	0.181263	-457.425547	-457.41534	-457.414396	-457.460442	37.375	
C	 0.6904986491	-0.0168534973	 0.0565360162	-0.361489
N	-0.5181709474	-0.443732427	 0.8042014878	-0.07249
H	-0.3619211498	-1.4249307183	 1.1152539106	 0.293078
C	-0.8254838547	 0.4225567006	 1.9613218348	-0.342749
C	-1.7734675207	-0.6576310157	-0.2386020423	-0.254812
C	-1.6683492547	-2.0148632909	-0.7432921176	 0.151663
C	-1.8523439132	-3.1393294663	 0.2278425883	-0.164711
O	-0.5908071928	-3.3351407535	 0.9416174159	-0.445246
N	-0.797866467	-2.1770164867	-1.7530276334	-0.067826
O	-0.2895041297	-3.3414650239	-1.8671590225	-0.465164
H	 1.5776558945	-0.1435944845	 0.6812433028	 0.146842
H	 0.7574268145	-0.6323358745	-0.8440470669	 0.211539
H	 0.5805227417	 1.0342637716	-0.2204780466	 0.14718
H	-1.0777178063	 1.4234001713	 1.6031695607	 0.157687
H	-1.6758391295	 0.005335002	 2.5035667515	 0.162947
H	 0.0369244401	 0.4828632486	 2.6298384566	 0.155863
H	-2.6410428806	-0.4417625867	 0.38967781	 0.1126
H	-1.625745367	 0.1137944089	-0.9959807202	 0.134982
H	-2.6096399889	-2.9320642902	 0.9910206904	 0.079539
H	-2.1085397887	-4.0661042362	-0.2928065145	 0.125761
H	-0.0181351991	-3.6099167714	 0.2002166683	 0.294806
92.4623	109.0291	128.1197	144.0868	215.2961	261.707	271.1761	282.6158	317.3687	363.3919	394.6163	425.9576	430.1663	522.8013	667.901	692.1588	771.3329	875.9449	891.7573	919.0939	935.2023	987.0034	1042.4379	1079.973	1124.9051	1170.8073	1183.2437	1240.5221	1265.075	1292.3998	1323.2961	1355.4299	1382.3365	1406.3821	1426.273	1437.1033	1441.2025	1465.7247	1471.2177	1476.9264	1485.0986	1489.1499	1504.1862	1512.6232	1548.4857	3044.3566	3046.4472	3053.9202	3064.8751	3099.8459	3113.9702	3137.1776	3139.4448	3142.7745	3145.1634	3151.6472	3601.5099
C[NH+](C)CC(CO)=N[O-]	C[NH](C)C[C](CO)[N][O]	
InChI=1S/C5H12N2O2/c1-7(2)3-5(4-8)6-9/h8-9H,3-4H2,1-2H3	InChI=1S/C5H12N2O2/c1-7(2)3-5(4-8)6-9/h7-8H,3-4H2,1-2H3
