15
gdb 30496	3.83657	1.22347	0.93303	3.2628	74.85	-0.2233	-0.0476	0.1757	1196.2677	0.112866	-453.983424	-453.975382	-453.974438	-454.016665	29.275	
C	-0.052176089	 1.4324197696	 0.0075404538	-0.313832
N	 0.0229702625	-0.0162183793	 0.0034069255	-0.309439
C	-1.0391152722	-0.6925083914	 0.0093983075	 0.449375
O	-2.2968554424	 0.0019053008	 0.0202982979	-0.236941
C	-3.4389303205	-0.6887275492	 0.0266053373	 0.10596
C	-3.4871094834	-2.0313674097	 0.0234460317	-0.269656
C	-2.2036562681	-2.6825563933	 0.0126869515	 0.434355
O	-2.2166673763	-4.0204063901	 0.009367229	-0.398905
N	-1.0700768796	-2.065011529	 0.006182406	-0.400511
H	 0.961962847	 1.8387975414	-0.0005284564	 0.120301
H	-0.5857107027	 1.8238526724	-0.8694597786	 0.116086
H	-0.5697345237	 1.8194023137	 0.8960251259	 0.116125
H	-4.3094786525	-0.0412519543	 0.0344931849	 0.146971
H	-4.4142291874	-2.5836550425	 0.028599039	 0.131453
H	-1.2882803916	-4.3008681091	 0.002048595	 0.308657
60.9173	100.5156	162.2508	212.0556	304.8194	382.5448	388.5405	513.2	521.7301	613.6404	628.0287	703.8627	719.6841	761.598	795.8477	842.0386	971.9531	974.9553	1020.4437	1096.127	1112.3942	1127.8785	1197.2358	1254.2637	1314.3287	1385.749	1439.7823	1484.7221	1500.7944	1502.2577	1616.3912	1712.1621	1780.3559	2997.0893	3045.3035	3104.7728	3198.3811	3256.3676	3737.3577
CN=C1OC=CC(O)=N1	C[N]C1=NC(=CCO1)O	
InChI=1S/C5H6N2O2/c1-6-5-7-4(8)2-3-9-5/h2-3H,1H3,(H,6,7,8)	InChI=1S/C5H7N2O2/c1-6-5-7-4(8)2-3-9-5/h2H,3H2,1H3,(H,7,8)
