19
gdb 57319	3.06347	1.02761	0.92455	4.1763	75.83	-0.2321	-0.0137	0.2185	1346.6999	0.156914	-456.379756	-456.369423	-456.368479	-456.415337	37.184	
C	-0.2568359727	 1.5290772234	 0.0108658136	-0.428663
C	 0.0042556567	 0.0224845119	-0.0009185118	 0.241442
C	 0.7279614958	-0.4389586059	 1.2686642809	-0.38787
O	-1.2298784698	-0.7132043076	-0.0502458745	-0.467199
C	 0.916422156	-0.3238212977	-1.2134088999	 0.37502
O	 1.9031644819	 0.3256294427	-1.4648209051	-0.33769
N	 0.4847768959	-1.445273206	-1.9000751153	-0.32759
C	 1.0582801319	-2.0896513537	-2.9908977068	 0.08246
N	 2.1084236512	-1.7015625758	-3.5846296493	-0.398325
H	 0.6894601907	 2.0709586299	-0.0199648906	 0.158436
H	-0.8364537155	 1.8319989238	-0.8699618658	 0.112405
H	-0.8117059856	 1.8100455946	 0.9103824355	 0.12061
H	 0.1507437558	-0.1519461212	 2.1518091768	 0.121416
H	 0.8402152531	-1.5270217357	 1.2690434049	 0.124737
H	 1.7199892436	 0.0145311715	 1.3185700278	 0.145072
H	-1.8625107828	-0.1963794947	-0.5608551051	 0.285261
H	-0.3617191723	-1.8432908312	-1.5167382692	 0.259847
H	 0.4684711745	-2.976199235	-3.2594868906	 0.092807
H	 2.3228357015	-2.3412203735	-4.3483975755	 0.227824
44.9223	74.9223	164.0073	168.5508	206.1282	247.2387	256.6196	288.3869	300.902	342.8729	360.7428	426.492	507.3439	517.3009	644.323	739.2539	759.216	834.926	841.8863	927.0546	943.2747	969.6866	1016.9695	1050.992	1066.3155	1116.2364	1165.2619	1220.9853	1256.4671	1269.4152	1354.005	1392.8271	1408.8731	1430.5182	1477.3335	1482.4489	1495.9335	1504.9144	1541.2911	1730.8533	1821.0706	3024.6062	3029.8318	3047.6915	3101.756	3119.502	3141.2676	3149.8383	3494.6482	3590.5728	3808.9342
CC(C)(O)C(=O)NC=N	CC(C)(O)C(=O)NC=N	
InChI=1S/C5H10N2O2/c1-5(2,9)4(8)7-3-6/h3,9H,1-2H3,(H2,6,7,8)	InChI=1S/C5H10N2O2/c1-5(2,9)4(8)7-3-6/h3,9H,1-2H3,(H2,6,7,8)
