17
gdb 78875	2.76074	1.89254	1.41192	3.1026	70.93	-0.2536	0.0825	0.3362	933.4068	0.136565	-421.749876	-421.742893	-421.741949	-421.780945	28.669	
O	 0.1024099281	 1.4686967913	-0.2428290936	-0.449909
C	-0.0252589437	 0.0816919385	-0.1475150556	 0.183038
C	-1.3923123078	-0.6203400517	-0.1369910755	-0.13952
C	-0.8215012883	-1.7973346905	-0.8857996944	-0.083645
C	-1.7976392687	-0.8753385879	-1.5964395681	-0.184185
C	-0.6746025643	-0.3359224036	-2.4344016747	 0.505068
C	-0.5299279541	-0.2466650503	-3.8803721482	-0.293693
O	-0.6320921921	 0.9427338057	-3.0697667391	-0.304102
C	 0.3201238595	-0.8183865176	-1.3741961461	-0.238752
H	-0.2382469808	 1.7486848477	-1.1012899619	 0.302023
H	 0.5498171697	-0.2294432915	 0.7293871281	 0.088143
H	-2.1355261328	-0.6297942068	 0.6498276849	 0.09383
H	-0.8480540606	-2.8602648349	-0.7079680164	 0.103189
H	-2.8232754515	-1.0681638904	-1.8797142146	 0.097666
H	 0.4420801445	-0.4115787339	-4.3435957257	 0.120911
H	-1.3870835735	-0.4333717182	-4.5260697269	 0.120777
H	 1.3472860266	-1.067177096	-1.6292866323	 0.07916
143.899	206.5992	277.8064	340.787	373.2321	423.9602	497.1995	591.519	648.0652	760.6324	781.4947	797.4215	817.1903	839.2287	866.9199	882.4491	935.9585	960.2001	981.1493	1003.5766	1027.5306	1034.7103	1048.751	1115.2816	1123.9102	1136.4888	1150.1028	1170.283	1186.8165	1204.2014	1272.9283	1289.0464	1321.1402	1348.2627	1450.0841	1461.9643	1545.8501	3076.9225	3081.9353	3150.3975	3167.8501	3200.1507	3213.6291	3250.6464	3786.8537
OC1C2C3C2C2(CO2)C13	O[C@H]1[C@@H]2[C@H]3[C@@H]2[C@]2(CO2)[C@@H]13	
InChI=1S/C7H8O2/c8-6-3-2-4(3)7(1-9-7)5(2)6/h2-6,8H,1H2	InChI=1S/C7H8O2/c8-6-3-2-4(3)7(1-9-7)5(2)6/h2-6,8H,1H2/t2-,3+,4-,5+,6-,7+/m0/s1
