15
gdb 132956	2.34269	1.94377	1.06936	1.3588	73.88	-0.2081	-0.0493	0.1589	1037.6441	0.113614	-458.118799	-458.111151	-458.110207	-458.151115	28.639	
C	-0.0320384159	 1.4611297678	 0.0087087626	-0.341748
N	 0.0081149486	 0.0004575682	 0.0004838845	-0.171499
C	-1.2259606339	-0.6852741502	 0.0042765844	 0.332524
N	-2.3020410439	 0.0156918866	 0.0147852925	-0.565851
C	-1.0791882646	-2.1388882298	-0.0049300587	-0.060037
N	 0.0455441644	-2.7781013366	-0.0149978443	-0.230461
C	 1.2109435726	-2.0589155996	-0.0176663533	-0.208404
C	 1.1696629225	-0.702738813	-0.0100108913	 0.367046
F	 2.2742748141	 0.0285521244	-0.0123419725	-0.056634
H	 0.9818578185	 1.8515828453	 0.0020505005	 0.147651
H	-0.5876357908	 1.8092277697	-0.8651190857	 0.162168
H	-0.5723506033	 1.8001539589	 0.8956438726	 0.161988
H	-3.1149155252	-0.5979518922	 0.0160023188	 0.218979
H	-2.0009158477	-2.7179600773	-0.002936112	 0.116887
H	 2.1550535146	-2.5850228122	-0.0259393981	 0.127392
95.7066	142.8525	194.2695	245.2242	353.6541	364.0241	494.728	500.4681	514.1389	593.2945	647.868	701.0743	744.177	784.9257	814.484	819.3671	913.7305	985.5716	1081.8411	1155.7989	1158.1007	1202.7154	1216.6368	1304.9239	1351.6204	1395.8451	1443.5479	1474.0967	1483.7235	1534.5575	1565.3996	1638.2394	1688.9313	3067.1902	3126.1094	3145.1682	3196.8725	3227.6737	3502.3124
CN1C(=N)C=NC=C1F	Cn1c([NH])cncc1F	
InChI=1S/C5H6FN3/c1-9-4(6)2-8-3-5(9)7/h2-3,7H,1H3	InChI=1S/C5H11FN3/c1-9-4(6)2-8-3-5(9)7/h4-5,7-8H,2-3H2,1H3
