19
gdb 22930	2.45467	1.33457	1.13208	0.5335	80.89	-0.2309	0.0081	0.239	1179.2235	0.157096	-419.121479	-419.11215	-419.111205	-419.155267	34.854	
C	-0.1192457337	 1.50653023	 0.0126127765	-0.32398
N	 0.1165577175	 0.0702781198	 0.0987559922	-0.117408
C	 1.4010970941	-0.5375130718	-0.1480969358	-0.098221
C	 2.5825021021	 0.320133643	 0.362287879	-0.353576
C	 1.9105373805	 0.2718912531	 1.7290239326	 0.379176
N	 2.2152779121	 0.6090234884	 2.9114097203	-0.259744
O	 3.4292283739	 1.3235575061	 2.9386971539	-0.391495
C	 0.7605958402	-0.5674436461	 1.2420722723	 0.241896
C	 0.0439108463	-1.629151217	 2.0198414483	-0.495438
H	 0.6835377919	 2.1372426904	 0.4165879639	 0.118499
H	-0.2743831038	 1.7714898016	-1.0378995964	 0.124266
H	-1.0379300687	 1.738563785	 0.5592452176	 0.128636
H	 1.4704470146	-1.3365511453	-0.8785394641	 0.100279
H	 3.5367509137	-0.2146454484	 0.3744680291	 0.131298
H	 2.7346959124	 1.2977735892	-0.1027325499	 0.121633
H	 3.5401142113	 1.4967037016	 3.8796746014	 0.306096
H	-0.6010748888	-1.1814958461	 2.7837727167	 0.132083
H	-0.5828281474	-2.2241496126	 1.3512271669	 0.13046
H	 0.7540788318	-2.287094101	 2.5298279456	 0.125539
86.7109	147.4061	166.8869	187.4269	217.7875	253.756	272.1205	319.9197	372.3211	465.9332	492.2268	523.1661	592.4892	663.1544	722.7346	753.0817	839.397	903.26	939.3218	964.3049	991.361	1015.9002	1078.2595	1097.2118	1120.7049	1140.3463	1164.6142	1185.346	1217.2857	1265.6399	1272.9356	1386.1827	1405.9846	1435.6872	1451.3605	1471.1298	1480.8374	1491.8808	1493.6031	1501.7192	1779.9891	3012.8064	3038.6784	3060.7352	3081.9801	3100.5283	3106.6854	3109.6081	3127.632	3170.4688	3816.7014
CN1C2CC(=NO)C12C	CN1[C@H]2CC(=NO)[C@@]12C	
InChI=1S/C6H10N2O/c1-6-4(7-9)3-5(6)8(6)2/h5,9H,3H2,1-2H3	InChI=1S/C6H10N2O/c1-6-4(7-9)3-5(6)8(6)2/h5,9H,3H2,1-2H3/t5-,6+,8?/m0/s1
