13
gdb 29234	3.2106	1.46698	1.00691	4.4172	66.4	-0.2182	-0.0496	0.1685	1069.653	0.089681	-489.910561	-489.90306	-489.902116	-489.942704	28.36	
O	-0.0784115322	 1.3807272835	 0.0110086675	-0.423792
C	 0.0309905497	 0.025312693	 0.0029072733	 0.175592
C	 1.1659411776	-0.6960465389	-0.0081263176	-0.036402
O	 1.1758502569	-2.045071855	-0.0155401368	-0.229179
C	-0.041945537	-2.7680405972	-0.0118083694	 0.426241
N	-0.0105627288	-4.032829623	-0.0193423985	-0.532006
N	-1.2116401153	-2.045570903	-0.0007027183	-0.375536
C	-1.1882461303	-0.7578018637	 0.0061808469	 0.406916
O	-2.3309317739	-0.0714809924	 0.0170944991	-0.384544
H	 0.8010118792	 1.7751961509	 0.0076716976	 0.304248
H	 2.1643727794	-0.2720388117	-0.0120501906	 0.132417
H	 0.9536308841	-4.3613094573	-0.0272577114	 0.223615
H	-3.0416816093	-0.7318212153	 0.0179044383	 0.31243
72.1656	209.2501	263.9659	299.4064	358.0993	372.4436	379.6153	473.1298	556.4708	599.5051	625.9054	725.3219	732.5869	768.1538	792.183	832.4003	839.4998	867.0355	1059.6038	1177.4159	1189.4543	1246.995	1298.0781	1328.098	1389.9451	1540.2524	1632.8314	1727.2763	1754.6734	3193.4378	3514.9298	3735.8365	3809.6525
OC1=COC(=N)N=C1O	OC1=C(N=C(OC1)[NH])O	
InChI=1S/C4H4N2O3/c5-4-6-3(8)2(7)1-9-4/h1,7H,(H2,5,6,8)	InChI=1S/C4H5N2O3/c5-4-6-3(8)2(7)1-9-4/h5,7H,1H2,(H,6,8)
