21
gdb 115813	3.74943	1.01809	0.90803	1.8034	78.03	-0.2502	0.0758	0.326	1328.4994	0.182895	-424.219121	-424.210143	-424.209199	-424.252498	34.992	
O	-0.0601382293	 1.4207930046	-0.064782506	-0.42395
C	 0.0254505597	 0.0049769948	 0.0359399634	-0.088932
C	-1.390138626	-0.5542886184	 0.0135919489	 0.031317
C	-2.1765001155	-0.2108281442	-1.2787055562	-0.229277
C	-3.2303192156	-1.3300088155	-1.4218721728	-0.286233
C	-2.5938913726	-2.549004039	-0.7662818153	 0.41168
O	-3.4359762968	-3.5603741454	-0.2968787297	-0.476247
C	-1.1743609531	-2.88801667	-1.1459692685	-0.358499
C	-1.468716379	-2.0724565429	 0.1077748891	-0.099156
H	 0.8328571208	 1.77673503	-0.0757183791	 0.285616
H	 0.6014541711	-0.4202934147	-0.8022742238	 0.081606
H	 0.5315518585	-0.2967869725	 0.9672569398	 0.08249
H	-1.9238139101	-0.1327151764	 0.8759787541	 0.081301
H	-2.6175902199	 0.7863424699	-1.2385856214	 0.11217
H	-1.4948631498	-0.2147491627	-2.1367685111	 0.098799
H	-4.1389249235	-1.088891952	-0.8576751025	 0.106803
H	-3.5266661746	-1.4984295102	-2.4640801093	 0.085977
H	-3.7237696378	-4.0812594851	-1.0544028803	 0.279553
H	-0.87603737	-3.9160817608	-0.972295662	 0.110043
H	-0.7097647134	-2.4217509073	-2.0089534706	 0.105865
H	-1.2904736833	-2.5555632723	 1.0621219632	 0.089073
88.8789	134.7296	190.786	224.0066	265.0889	280.0473	320.3211	377.5077	407.2382	448.6388	503.0589	557.6138	627.0476	690.5534	818.7966	834.5155	899.7036	921.617	953.3928	961.7936	977.7152	987.5496	1037.7284	1045.7428	1072.8898	1079.4314	1090.5619	1132.2033	1179.0164	1212.0412	1240.6642	1245.8745	1261.2914	1270.9801	1317.971	1324.7144	1326.4025	1343.5794	1375.6695	1410.9443	1457.4201	1483.7943	1493.6428	1510.9452	1521.1882	2959.7866	2986.045	3020.3153	3029.1793	3046.8266	3070.5352	3116.2834	3128.729	3172.2772	3217.3488	3797.3297	3831.7913
OCC1CCC2(O)CC12	OC[C@H]1CC[C@@]2(O)C[C@@H]12	
InChI=1S/C7H12O2/c8-4-5-1-2-7(9)3-6(5)7/h5-6,8-9H,1-4H2	InChI=1S/C7H12O2/c8-4-5-1-2-7(9)3-6(5)7/h5-6,8-9H,1-4H2/t5-,6+,7-/m1/s1
