16
gdb 53253	4.15597	0.7822	0.76308	3.9827	81.92	-0.2479	0.0066	0.2545	1535.6142	0.121492	-400.717809	-400.707965	-400.707021	-400.754224	34.162	
C	 0.0082614831	 1.468593285	-0.0272855282	-0.500371
C	 0.0015766552	 0.0150871075	 0.0332064722	 0.11939
C	-0.0136076372	-1.1878869842	 0.0804697042	 0.07923
C	 0.0039372848	-2.618894353	 0.1215614979	-0.264793
C	-0.5677936554	-3.3804542116	 1.3037451816	-0.338125
C	-1.3086163312	-3.3965365542	-0.0164506047	 0.252612
O	-2.4579593076	-2.6299468226	-0.1619324978	-0.429696
C	-1.2797252104	-4.6127462463	-0.8026228233	 0.24354
N	-1.2736914417	-5.5910124449	-1.4199728678	-0.342276
H	 0.783891835	 1.8318735686	-0.7102292728	 0.152778
H	-0.9539519534	 1.8520116111	-0.3840095258	 0.155074
H	 0.1987949502	 1.9096235246	 0.9573501373	 0.149571
H	 0.8505205287	-3.090774763	-0.3684856161	 0.140374
H	-0.060661267	-4.2814951146	 1.6275356939	 0.142061
H	-1.0349501853	-2.7885814871	 2.0817769307	 0.140916
H	-3.1875265578	-3.0924735452	 0.2669468386	 0.299716
18.0992	74.6804	81.5198	166.889	199.878	246.9584	294.6919	310.7149	374.5351	386.8959	463.4144	512.884	579.448	614.7804	692.0177	740.1779	862.2566	907.8417	944.1533	1015.9703	1050.8064	1053.7232	1068.7925	1113.1337	1202.2458	1234.6352	1260.0537	1349.847	1404.8821	1414.9066	1466.3492	1476.1076	1477.2461	2346.556	2375.8398	3027.8337	3088.8261	3091.1896	3145.8818	3152.3015	3246.6805	3793.2469
CC#CC1CC1(O)C#N	CC#C[C@H]1C[C@]1(O)C#N	
InChI=1S/C7H7NO/c1-2-3-6-4-7(6,9)5-8/h6,9H,4H2,1H3	InChI=1S/C7H7NO/c1-2-3-6-4-7(6,9)5-8/h6,9H,4H2,1H3/t6-,7-/m0/s1
