17
gdb 23317	3.54835	1.26929	1.07643	1.0848	80.74	-0.2182	-0.0372	0.181	1122.6219	0.137518	-417.950653	-417.943117	-417.942173	-417.982577	29.771	
O	-0.2581717358	 1.1681962989	 0.7660886756	-0.394554
N	-0.0784727544	-0.1768304838	 0.4079252199	-0.211093
C	-1.0997055767	-0.6523375765	-0.2086140485	 0.315517
C	-0.9995659875	-2.0958424721	-0.6700757274	-0.227946
N	-2.2429959014	-2.8669701621	-0.6017827951	-0.101274
C	-3.0790547488	-2.7546524795	 0.5779851396	-0.240267
C	-3.4984161073	-2.1068535548	-0.7155817136	-0.066117
C	-3.4385478324	-0.6352920207	-0.8246527741	-0.053515
C	-2.3217397777	 0.0593115855	-0.5550096113	-0.155885
H	 0.5854898474	 1.3802992121	 1.1789655267	 0.307128
H	-0.6864359765	-2.1045335468	-1.7215417365	 0.124944
H	-0.2278030426	-2.6142568448	-0.0962763241	 0.131155
H	-3.5583187004	-3.6765024486	 0.8975219862	 0.120481
H	-2.7772780702	-2.0840097248	 1.3800167374	 0.129492
H	-4.2691811939	-2.5985357954	-1.3046716647	 0.097869
H	-4.3500943104	-0.1250196649	-1.1225468199	 0.104486
H	-2.2990447313	 1.1413513482	-0.5791857802	 0.11958
87.2613	220.1922	250.4983	298.8165	358.0509	360.2198	433.1706	465.092	519.7371	632.6833	643.5458	731.6954	781.7253	787.2785	821.7394	886.6523	937.0269	969.3915	995.7952	1013.4544	1044.2212	1059.6348	1105.8639	1116.2471	1156.6779	1177.356	1260.7053	1281.0261	1316.4541	1343.8669	1380.3282	1400.3119	1426.6965	1477.0088	1498.0739	1665.8244	1699.0057	3030.8815	3096.7193	3105.1135	3130.3462	3170.9524	3187.4993	3217.4902	3821.0108
ON=C1CN2CC2C=C1	ON=C1CN2C[C@H]2C=C1	
InChI=1S/C6H8N2O/c9-7-5-1-2-6-4-8(6)3-5/h1-2,6,9H,3-4H2	InChI=1S/C6H8N2O/c9-7-5-1-2-6-4-8(6)3-5/h1-2,6,9H,3-4H2/t6-,8?/m1/s1
