15
gdb 131718	4.80866	0.93983	0.79898	3.653	72.47	-0.2622	-0.0462	0.2161	1350.1006	0.112877	-453.971226	-453.962995	-453.962051	-454.005007	29.116	
O	 0.0219948464	 1.30937955	 0.4623456267	-0.418164
C	-0.0244602898	-0.0086404106	-0.0621486239	-0.179453
C	-1.4482237842	-0.4709413175	-0.0213983367	 0.373596
N	-1.7405186657	-1.7517591981	 0.0983992873	-0.301669
N	-3.1013680847	-1.7978503696	 0.0588414469	-0.019439
C	-3.8194426389	-2.996092599	 0.1588659487	 0.191044
O	-3.336263022	-4.08399173	 0.276775289	-0.258486
C	-3.6543434656	-0.5438022764	-0.0753700561	 0.003271
C	-2.6183375362	 0.3404105125	-0.131783111	-0.296437
H	 0.9136184506	 1.6471154193	 0.3388044662	 0.294336
H	 0.3331227807	-0.0321988094	-1.1045391624	 0.110779
H	 0.5950878591	-0.7120599441	 0.511136817	 0.121817
H	-4.9057624564	-2.7933447429	 0.1118296446	 0.09749
H	-4.72384971	-0.4081460624	-0.1119759448	 0.149647
H	-2.6612257433	 1.4122329781	-0.2240623713	 0.131667
41.9121	128.7278	158.6932	198.9247	249.7077	261.644	342.4158	458.9565	534.4546	626.4449	660.8225	713.8174	781.7563	824.7018	872.3967	987.6278	993.5404	1022.3822	1031.6065	1076.4168	1091.9847	1195.6241	1235.7549	1242.7442	1301.8588	1374.4929	1431.7522	1442.9212	1456.1446	1492.8511	1510.9488	1604.4337	1851.8359	2964.7121	2969.4952	3024.2461	3260.1617	3291.0194	3837.1651
OCC1=NN(C=O)C=C1	OCc1nn(C=O)cc1	
InChI=1S/C5H6N2O2/c8-3-5-1-2-7(4-9)6-5/h1-2,4,8H,3H2	InChI=1S/C5H6N2O2/c8-3-5-1-2-7(4-9)6-5/h1-2,4,8H,3H2
