18
gdb 91723	2.64877	1.6948	1.52625	3.3721	72.47	-0.2511	0.0196	0.2708	965.0157	0.149801	-439.104782	-439.097529	-439.096585	-439.136282	29.103	
C	-0.192541904	 1.5393841645	-0.0203268499	-0.407625
C	 0.0182545277	 0.0359077621	 0.0270942944	 0.139074
O	 0.8075509704	-0.4045824221	-1.1067005723	-0.299038
C	 1.9119457492	-1.1593763849	-0.5682859979	 0.01104
C	 1.2928468511	-1.8646949082	 0.6466414982	-0.25709
C	 0.8418088945	-0.5062388587	 1.2090646567	 0.050308
O	 2.0861058377	 0.2404233095	 1.2503427209	-0.266192
C	 2.8071003489	-0.16002954	 0.140351436	 0.457772
N	 3.949686722	 0.2481802472	-0.1924148719	-0.565862
H	 0.7554667539	 2.0712305042	 0.0804824329	 0.139409
H	-0.6502790059	 1.8176363585	-0.9731986999	 0.131843
H	-0.8619457616	 1.8561751466	 0.7866257785	 0.113367
H	-0.9537133448	-0.4776643967	-0.0024832655	 0.081564
H	 2.3850316469	-1.7340962138	-1.3590250978	 0.109004
H	 0.4723993866	-2.533444487	 0.3821510787	 0.118738
H	 2.0167509789	-2.3699952531	 1.2886513397	 0.123635
H	 0.3744280247	-0.4629144074	 2.1907797566	 0.096262
H	 4.2962111035	 0.9427329094	 0.4729894528	 0.223792
117.2155	200.5212	234.3939	273.7161	404.5075	413.9896	470.3324	523.9761	581.5011	708.9066	757.5435	787.9874	836.6941	869.3654	875.2254	904.8438	936.7619	955.6003	962.5725	979.2163	1014.5864	1053.5297	1072.9034	1101.2121	1139.2855	1148.7283	1210.7057	1254.8815	1282.6177	1288.4513	1304.629	1338.6273	1368.2144	1385.9468	1410.9099	1484.5072	1489.6718	1493.6828	1801.2923	2996.9317	3045.7367	3083.5578	3115.1765	3141.1155	3146.5094	3147.6184	3177.5711	3461.5139
CC1OC2CC1OC2=N	C[C@H]1O[C@@H]2C[C@H]1O[C]2[NH]	
InChI=1S/C6H9NO2/c1-3-4-2-5(8-3)6(7)9-4/h3-5,7H,2H2,1H3	InChI=1S/C6H9NO2/c1-3-4-2-5(8-3)6(7)9-4/h3-5,7H,2H2,1H3/t3-,4-,5-/m1/s1
