14
gdb 19785	3.12532	2.92771	1.86655	4.8078	60.09	-0.2479	-0.0087	0.2392	709.0591	0.10933	-378.68899	-378.683138	-378.682194	-378.718808	23.076	
O	 0.0053376972	 0.0134124276	 0.2371081409	-0.305331
C	-0.0134177725	 1.1943768434	 0.0626802604	 0.378055
N	-1.2137989644	 1.985286503	-0.0723696237	-0.128691
C	-1.5667771377	 2.7176546575	 1.16803335	-0.264024
C	-0.8021211438	 3.3886535173	 0.0872783179	-0.033127
C	 0.7150814346	 3.4095052466	 0.0653136553	-0.033128
C	 1.5288461545	 2.7601965724	 1.1232160581	-0.264024
N	 1.160366832	 2.0179165118	-0.1067429434	-0.12869
H	-2.6282641151	 2.9188910252	 1.2785220906	 0.139314
H	-1.0670551424	 2.4388846828	 2.0900030751	 0.136946
H	-1.302959681	 4.1090112528	-0.5514619235	 0.11322
H	 1.1772395603	 4.1430975009	-0.5873698068	 0.11322
H	 2.5871586689	 2.9905554039	 1.2030136518	 0.139314
H	 1.0638673795	 2.468162405	 2.0591506972	 0.136946
166.4381	230.9722	333.694	464.6028	486.4077	661.764	673.4605	699.797	806.527	829.791	835.518	853.9466	880.489	985.3467	1025.442	1033.6214	1064.8457	1084.0901	1092.5242	1106.9023	1130.9285	1153.8697	1167.3752	1266.9317	1284.1101	1375.1453	1397.2609	1501.2515	1526.599	1877.0532	3119.8645	3125.9162	3157.2686	3170.3321	3205.9785	3214.3717
O=C1N2CC2C2CN12	O=C1N2C[C@H]2[C@H]2CN12	
InChI=1S/C5H6N2O/c8-5-6-1-3(6)4-2-7(4)5/h3-4H,1-2H2	InChI=1S/C5H6N2O/c8-5-6-1-3(6)4-2-7(4)5/h3-4H,1-2H2/t3-,4+,6?,7?
