18
gdb 69749	2.94149	1.51888	1.2718	2.3004	75.82	-0.2338	-0.0314	0.2024	1044.2958	0.147071	-401.894534	-401.886784	-401.88584	-401.926611	30.468	
C	 0.0003324475	 1.5766188373	 0.0386409751	-0.503504
C	 0.0099234923	 0.0764076809	 0.0108382119	 0.339877
C	-0.9109061578	-0.7954707023	 0.8262469912	-0.36525
C	 0.5814764456	-0.9596867555	 0.978981499	-0.051777
N	 1.2540338487	-1.7157404079	-0.1064696973	-0.123222
C	 0.5101704832	-2.881166371	-0.6867710221	-0.312561
C	-0.1091438755	-1.9411715741	-1.7488876774	 0.384879
O	-0.8429054277	-2.0783220198	-2.6802966337	-0.284807
C	 0.6627775674	-0.7607326206	-1.1123245107	-0.174303
H	 0.979907385	 1.9881049099	-0.2284869239	 0.12474
H	-0.7364393429	 1.9809140987	-0.665432193	 0.131059
H	-0.2598581265	 1.9470678387	 1.0354300051	 0.123234
H	-1.3778860546	-0.2820994221	 1.6616115139	 0.118391
H	-1.5476673565	-1.5516850295	 0.3768911953	 0.121837
H	 1.0824981199	-0.8302826254	 1.9321600043	 0.098276
H	 1.1860994877	-3.6311582741	-1.1109941245	 0.137304
H	-0.1998637476	-3.3820464084	-0.0210587697	 0.13511
H	 1.3589723018	-0.2186773648	-1.7594634738	 0.100717
106.8009	152.2819	197.7638	261.1235	343.4831	376.8286	428.7667	496.3762	531.0175	602.4666	673.2724	720.2533	794.044	816.3402	884.6987	903.6834	951.8947	955.7975	978.3424	1014.9016	1023.7136	1049.12	1072.8484	1096.9227	1102.5007	1123.5239	1165.2223	1182.9753	1210.4631	1241.1662	1253.8285	1283.0724	1392.8184	1423.328	1451.2965	1484.4932	1497.6258	1503.4346	1899.6648	3024.6735	3044.8982	3067.1851	3085.7274	3096.6259	3099.6739	3121.834	3167.1515	3200.5952
CC12CC1N1CC(=O)C21	C[C@]12C[C@H]1N1CC(=O)[C@@H]21	
InChI=1S/C7H9NO/c1-7-2-5(7)8-3-4(9)6(7)8/h5-6H,2-3H2,1H3	InChI=1S/C7H9NO/c1-7-2-5(7)8-3-4(9)6(7)8/h5-6H,2-3H2,1H3/t5-,6+,7+/m1/s1
