19
gdb 70924	3.45732	1.52354	1.29564	1.3603	80.71	-0.2414	0.0166	0.258	1016.8516	0.160753	-385.826918	-385.819789	-385.818845	-385.857852	30.2	
O	 0.0641661866	 1.3902123296	 0.0217394391	-0.471055
C	 0.0529118596	 0.0081589489	-0.0023234557	 0.365748
C	 0.6301946665	-0.9545834201	-1.1379293189	-0.387808
C	-0.0576364426	-1.8540409362	-0.07915446	 0.334241
C	 0.6347034147	-0.9816438728	 1.0260700449	-0.318017
C	-0.6271586438	-3.2210497788	 0.2498150836	-0.402174
C	-1.8331883627	-2.7792246665	 1.0930366418	-0.037827
C	-2.1264289672	-1.4737368683	 0.9820506603	-0.155417
C	-1.2428263297	-0.8493731077	-0.0687530829	-0.048101
H	 0.9757049053	 1.686808413	 0.1189519419	 0.281458
H	 0.153881442	-0.8908709598	-2.119488073	 0.095644
H	 1.7202376632	-1.0054714076	-1.2158746596	 0.084544
H	 1.7255160496	-1.0572792814	 1.0729226478	 0.077531
H	 0.1820085086	-0.9918703751	 2.0179498409	 0.101108
H	-0.9535803697	-3.7828572642	-0.6362547956	 0.112147
H	 0.0617067244	-3.8660384609	 0.8062519216	 0.107386
H	-2.3825445183	-3.4842947351	 1.7094050718	 0.092474
H	-2.9600825698	-0.9869097508	 1.4757111688	 0.094045
H	-1.7787869767	-0.7303868362	-1.0198367568	 0.074074
209.3586	242.2427	257.1635	292.0297	406.9091	436.604	493.2363	526.0418	586.2447	639.8739	694.6198	729.2975	783.7059	799.6123	834.5315	901.4874	915.0956	952.0451	966.0046	990.0959	1020.2184	1021.8084	1073.5371	1092.2565	1099.1405	1112.4162	1123.1892	1138.0855	1147.2286	1159.4307	1214.5551	1259.3579	1279.5575	1317.5352	1339.4024	1362.6645	1386.9863	1475.3415	1491.2767	1539.3676	1628.3208	3011.3055	3015.312	3045.5532	3054.7596	3064.7109	3117.7522	3135.5708	3173.4839	3200.6409	3805.4753
OC12CC3(C1)CC=CC23	O[C@@]12C[C@]3(C1)CC=C[C@@H]23	
InChI=1S/C8H10O/c9-8-4-7(5-8)3-1-2-6(7)8/h1-2,6,9H,3-5H2	InChI=1S/C8H10O/c9-8-4-7(5-8)3-1-2-6(7)8/h1-2,6,9H,3-5H2/t6-,7-,8-/m1/s1
