21
gdb 119621	4.11233	0.95995	0.87094	2.3245	79.32	-0.2527	0.0825	0.3352	1417.5327	0.182474	-424.215826	-424.206868	-424.205924	-424.249877	33.368	
C	-0.2323059075	 1.3590370171	-0.0946821635	-0.219605
O	-0.15683384	-0.0457602746	-0.0802524617	-0.235966
C	 0.7299448716	-0.5569087962	-1.053005395	-0.164046
C	 0.753212397	-2.0535140385	-0.9448791924	 0.426714
C	 1.0698577992	-2.7321734653	 0.3778305788	-0.274493
C	 1.2704660941	-4.2196825019	-0.0007131067	-0.21774
C	 1.7656175644	-4.2099701482	-1.4680660906	-0.24127
C	 1.1582497955	-2.9443985558	-2.0416711798	-0.017593
O	-0.22880357	-2.7724286592	-1.7160651366	-0.300629
H	 0.7470544555	 1.8234789602	 0.1052739338	 0.10121
H	-0.5995032988	 1.7391121021	-1.0611567202	 0.105897
H	-0.9313780521	 1.6571585948	 0.6902582285	 0.128739
H	 0.4132978998	-0.2660728153	-2.06706515	 0.095143
H	 1.7466039176	-0.1560824965	-0.8891754888	 0.084256
H	 1.9892496435	-2.2937416479	 0.7863964152	 0.097097
H	 0.280432323	-2.5821702418	 1.1180582487	 0.120801
H	 1.9621303195	-4.7335674248	 0.670945765	 0.095924
H	 0.311779616	-4.7392792337	 0.0532812455	 0.121008
H	 2.8588848071	-4.133742462	-1.5260892119	 0.100411
H	 1.4703415162	-5.1080081047	-2.0194529088	 0.108695
H	 1.4542290983	-2.5759771379	-3.0219994993	 0.085447
70.6394	101.2775	122.1844	206.115	231.4668	268.4908	325.0633	349.7837	418.807	454.5084	646.5346	656.8169	735.4782	819.7121	864.0662	880.0159	895.7712	945.8377	955.7616	989.0402	1015.2184	1035.4851	1044.2386	1129.0711	1158.1826	1161.8512	1184.708	1200.6464	1222.0336	1235.048	1255.958	1276.5156	1291.0775	1325.7035	1337.029	1353.3476	1406.2374	1464.9182	1478.8155	1479.3689	1485.6465	1491.644	1496.011	1499.8389	1518.4007	2942.1975	2967.8722	2996.6997	3011.4159	3032.0602	3034.2363	3072.4611	3083.491	3102.1697	3115.5385	3121.3772	3132.8804
COCC12CCCC1O2	COC[C@]12CCC[C@H]1O2	
InChI=1S/C7H12O2/c1-8-5-7-4-2-3-6(7)9-7/h6H,2-5H2,1H3	InChI=1S/C7H12O2/c1-8-5-7-4-2-3-6(7)9-7/h6H,2-5H2,1H3/t6-,7-/m1/s1
