23
gdb 72696	2.4799	1.88846	1.56586	0.0648	89.05	-0.2499	0.0899	0.3397	1003.3876	0.208644	-351.113443	-351.106036	-351.105092	-351.144396	32.574	
C	-0.1056237204	 1.4776650105	 0.1066953833	-0.45387
C	 0.0068627195	-0.051567553	 0.063950393	 0.368995
C	 1.2432785288	-0.4373999074	-0.8284027022	-0.309158
C	 2.1081569328	-0.4623974398	 0.4918401329	-0.362701
C	 0.7771314912	-0.7116253314	 1.2291013406	 0.34838
C	-0.1405194825	-0.4572611771	 2.4533573432	-0.341436
C	-1.0902219448	-1.4199381949	 1.6267917051	-0.011913
C	 0.2079992181	-2.1613937975	 1.2408242194	-0.24763
C	-1.3881329481	-0.7207288114	 0.263233103	-0.318792
H	 0.8661033984	 1.9653546174	 0.2352270919	 0.110078
H	-0.5286063426	 1.8370866998	-0.8392827226	 0.111985
H	-0.7638432863	 1.827582655	 0.9072812214	 0.112061
H	 1.1725469561	-1.4241462803	-1.2894052415	 0.102759
H	 1.5313302512	 0.2879366071	-1.5938490525	 0.090567
H	 2.8744942059	-1.2358892775	 0.5840796183	 0.094415
H	 2.5656928302	 0.509115917	 0.6934766076	 0.105874
H	 0.1754436819	-0.9391823096	 3.3822083189	 0.094622
H	-0.4606805949	 0.5667210599	 2.656830479	 0.091832
H	-1.9199564148	-1.9294069465	 2.1190563221	 0.057882
H	 0.207545732	-2.7465154823	 0.3168965208	 0.084894
H	 0.6366891443	-2.7502023084	 2.0565049124	 0.087843
H	-2.1957686393	 0.0158994788	 0.3083040113	 0.087382
H	-1.6582783365	-1.4629768884	-0.4949663354	 0.095931
198.2123	262.365	287.3161	318.7142	368.5208	414.8357	452.0583	505.7481	532.876	588.5591	672.9906	736.9529	807.2227	814.2276	841.154	876.2779	880.7019	891.6077	905.7819	936.4513	958.1269	968.6306	983.9906	1007.1044	1016.5223	1074.8594	1076.4476	1128.4635	1155.4522	1167.2737	1176.9397	1192.3237	1214.0308	1223.2641	1227.4818	1238.9214	1251.7465	1270.7956	1287.8643	1297.6121	1315.3369	1408.7077	1475.5395	1489.9337	1491.152	1495.6973	1498.3991	1510.9218	1532.5035	3027.1906	3043.8141	3047.8723	3061.0031	3061.4474	3068.1706	3086.8518	3087.0749	3102.1137	3104.4541	3106.9228	3110.8454	3119.7568	3127.792
CC12CCC11CC(C1)C2	C[C@@]12CC[C@]31C[C@H](C3)C2	
InChI=1S/C9H14/c1-8-2-3-9(8)5-7(4-8)6-9/h7H,2-6H2,1H3	InChI=1S/C9H14/c1-8-2-3-9(8)5-7(4-8)6-9/h7H,2-6H2,1H3/t7-,8-,9+/m0/s1
