21
gdb 114779	3.30029	1.35547	1.29274	1.0317	81.59	-0.242	0.0851	0.327	1100.7304	0.184578	-387.060317	-387.052584	-387.051639	-387.092467	30.974	
C	 0.0377167699	 1.4048288399	 0.0432905316	-0.23391
O	-0.1248839537	 0.0119748047	-0.0706701563	-0.241766
C	 0.6120487219	-0.5693398223	-1.1390807989	 0.114601
C	 2.1168203297	-0.8102853617	-0.814196378	-0.235122
C	 2.1920267373	-2.307656781	-0.4942459697	-0.045189
C	 1.2401026663	-2.6773699032	 0.6928934255	-0.230357
C	 0.166692435	-3.0258307867	-0.3369655129	-0.047248
C	 1.1791432041	-2.9827350973	-1.46741334	-0.090892
C	 0.0752084802	-1.9640369939	-1.4230789466	-0.059293
H	 1.0747857893	 1.6935121278	 0.2742573502	 0.101667
H	-0.2616354689	 1.9257795152	-0.8806936962	 0.100327
H	-0.6056548658	 1.7414508982	 0.8604410676	 0.123987
H	 0.5040262785	 0.0726381717	-2.0272696959	 0.056564
H	 2.7320939738	-0.5766712257	-1.6908007356	 0.092157
H	 2.457235282	-0.1785361018	 0.0125622837	 0.09856
H	 3.2026362161	-2.7124004305	-0.4403182292	 0.062852
H	 1.5880181406	-3.570623884	 1.2187809585	 0.092689
H	 1.0149859691	-1.8880120197	 1.4156034244	 0.101006
H	-0.6563804025	-3.7156959017	-0.1904504359	 0.078555
H	 1.3760610596	-3.6712109129	-2.2784822536	 0.080296
H	-0.7665169625	-2.0708293653	-2.0979395328	 0.080515
106.1949	134.5263	189.1715	246.4622	347.2975	381.2684	438.993	492.6916	633.7005	700.2498	759.2384	797.8983	813.7038	830.1971	880.0961	884.0698	937.5014	964.6475	982.1258	1000.1731	1020.575	1033.4646	1040.5941	1071.7296	1090.596	1118.5276	1130.6903	1152.7407	1181.8503	1186.203	1216.1275	1233.2487	1247.2336	1259.6069	1288.544	1308.6525	1334.0246	1348.5722	1392.7061	1407.0953	1474.4126	1478.51	1488.0251	1492.3386	1510.8092	2965.331	2974.3324	3012.4609	3036.5796	3050.5189	3085.3044	3101.2433	3107.828	3110.7158	3170.0043	3178.5504	3200.4523
COC1CC2CC3C2C13	CO[C@H]1C[C@H]2C[C@@H]3[C@H]2[C@H]13	
InChI=1S/C8H12O/c1-9-6-3-4-2-5-7(4)8(5)6/h4-8H,2-3H2,1H3	InChI=1S/C8H12O/c1-9-6-3-4-2-5-7(4)8(5)6/h4-8H,2-3H2,1H3/t4-,5-,6+,7+,8+/m1/s1
