20
gdb 118789	3.82598	0.89734	0.82177	2.7462	83.15	-0.2343	0.0449	0.2792	1445.0268	0.168403	-403.086499	-403.076279	-403.075335	-403.121724	37.641	
C	 0.1258266557	 1.7897727194	 0.072955708	-0.449441
C	-0.2590508235	 0.3252240329	 0.0815281897	 0.333157
C	-1.6991140008	 0.019961474	-0.3172642653	-0.275078
C	-1.9355544784	 0.0036838541	-1.8275257958	-0.068355
O	-1.3503740215	-1.1897416856	-2.3426834889	-0.414186
N	 0.7973597366	-0.5940313173	-0.35904397	-0.351903
C	 0.3926130595	-0.6085140457	 1.0667575652	-0.316373
C	 1.3524689493	-0.1760431365	 2.0452759326	 0.372698
C	 2.1276317462	 0.181266905	 2.8927361949	-0.435497
H	 1.1767610708	 1.9093953346	 0.3399580803	 0.142428
H	-0.0232145366	 2.2264299655	-0.920965091	 0.112133
H	-0.4820335901	 2.357148486	 0.7863514886	 0.114608
H	-2.0031518239	-0.9608315026	 0.0667350513	 0.109713
H	-2.3667015954	 0.7608115563	 0.1381155522	 0.103713
H	-3.0170291688	 0.0228609887	-2.0315463175	 0.091292
H	-1.4946660821	 0.8946231709	-2.2974520161	 0.098355
H	-1.2908246868	-1.1167367426	-3.2993374049	 0.292113
H	 0.3783552867	-1.3800537779	-0.8504728109	 0.244744
H	-0.2264408385	-1.4413656126	 1.3961137113	 0.103304
H	 2.8221192617	 0.4946282632	 3.6320432364	 0.192573
49.3703	110.6354	128.6861	162.4036	197.6348	225.3734	256.1509	316.1299	359.6999	373.5058	396.7467	470.3141	558.4098	595.0142	611.8918	651.4481	699.7472	822.188	876.4264	877.7431	944.0287	965.4923	994.4055	1023.1688	1073.7766	1087.8311	1094.6226	1139.4407	1186.9889	1216.4332	1264.5592	1280.3951	1293.6214	1371.5958	1384.3793	1421.183	1437.3078	1447.058	1469.4055	1489.6894	1495.1782	1519.7522	2236.4701	2980.4201	3013.6352	3032.8593	3036.4746	3076.6121	3091.8301	3117.7851	3141.4877	3504.7848	3509.9733	3838.4156
CC1(CCO)NC1C#C	C[C@@]1(CCO)N[C@H]1C#C	
InChI=1S/C7H11NO/c1-3-6-7(2,8-6)4-5-9/h1,6,8-9H,4-5H2,2H3	InChI=1S/C7H11NO/c1-3-6-7(2,8-6)4-5-9/h1,6,8-9H,4-5H2,2H3/t6-,7-/m0/s1
