17
gdb 117870	2.25514	0.80773	0.6152	4.7093	84.22	-0.2676	-0.0397	0.228	1754.5225	0.134709	-417.971488	-417.961251	-417.960307	-418.007899	34.801	
C	-0.8451317745	 1.1964152217	-0.6837900737	-0.230559
O	-0.8979304835	-0.2117756808	-0.6323272061	-0.229451
C	-0.7566156138	-0.7209973812	 0.6667988868	-0.033431
C	-0.888415711	-2.2504304779	 0.6000762276	-0.203039
N	-0.6113419543	-2.8121193913	 1.9280947733	-0.498554
C	-2.1903665319	-2.6509999532	 0.0543916886	 0.183187
C	-3.2763871931	-3.0195557695	-0.3297415388	-0.045037
C	-4.5023767106	-3.4305272091	-0.766493979	 0.209012
N	-5.5469033414	-3.7824056398	-1.1345182707	-0.338524
H	-0.9679046379	 1.486790872	-1.729273579	 0.136225
H	-1.6499777499	 1.6544399553	-0.0886651094	 0.111497
H	 0.1187304299	 1.5810120384	-0.3163187269	 0.109759
H	 0.2286689692	-0.4859460864	 1.0968358537	 0.110218
H	-1.5262708216	-0.3098750896	 1.3426368164	 0.092353
H	-0.1087320161	-2.6059571358	-0.0843670357	 0.139339
H	-1.3795020517	-2.593910323	 2.5576046926	 0.240639
H	-0.5743928377	-3.8252422898	 1.8704316904	 0.246365
49.5599	80.7571	112.4919	115.3618	168.2048	222.3252	245.7037	254.2329	271.9177	380.7732	404.7033	527.0031	551.0531	579.562	604.3063	688.0212	892.2051	976.1163	989.5471	1032.0904	1127.6811	1157.7498	1166.4651	1181.5311	1202.9621	1240.6501	1252.899	1339.7704	1379.917	1409.8487	1481.1294	1486.4459	1502.3398	1527.1453	1664.4139	2257.2453	2394.7002	2957.9327	2978.8042	3012.0543	3025.3405	3048.339	3124.2771	3492.7513	3572.1155
COCC(N)C#CC#N	COC[C@@H](N)C#CC#N	
InChI=1S/C6H8N2O/c1-9-5-6(8)3-2-4-7/h6H,5,8H2,1H3	InChI=1S/C6H8N2O/c1-9-5-6(8)3-2-4-7/h6H,5,8H2,1H3/t6-/m0/s1
