16
gdb 125883	3.79143	1.12733	1.05125	3.2426	71.14	-0.2823	-0.067	0.2153	1168.6169	0.123961	-434.006464	-433.998648	-433.997704	-434.039598	28.706	
C	-0.1027034025	 1.5249099119	-0.1764126923	-0.421461
C	-0.0083287753	 0.0284792443	 0.0055287006	 0.00898
C	 1.2784666524	-0.7070861381	-0.2098874499	-0.297859
C	 0.7210823526	-0.6052607017	 1.1960650189	-0.118763
C	 1.3898898859	 0.2019531931	 2.2183055848	 0.427075
N	 2.303195696	 1.1165484647	 2.0328556449	-0.173887
O	 2.5921019509	 1.5757396844	 3.2763586873	-0.138511
N	 1.8193337472	 0.8849990335	 4.2001845829	 0.044146
N	 1.1018457043	 0.0678082512	 3.5725626024	-0.214096
H	 0.8141444709	 2.0283191951	 0.1405836174	 0.147329
H	-0.2697641709	 1.7664088657	-1.2313841264	 0.125856
H	-0.9357863168	 1.9425151812	 0.3986647475	 0.125013
H	-0.9096643105	-0.51413401	-0.2667568076	 0.101825
H	 1.2636084601	-1.6843608581	-0.6789127885	 0.124224
H	 2.1634095347	-0.1158525351	-0.4201671913	 0.142821
H	 0.2567486311	-1.4884334519	 1.6186150493	 0.11731
47.4689	127.2033	172.8764	219.0556	288.831	352.317	427.0849	490.3895	661.3873	682.3395	712.3213	757.4238	796.3479	857.1658	885.2654	939.8856	956.4872	1016.5254	1060.0383	1062.5189	1082.5459	1099.5092	1140.6286	1147.6906	1202.3208	1220.0324	1240.7302	1390.039	1411.7211	1427.4944	1481.1425	1498.5451	1499.6218	1511.1972	1594.5382	3037.5031	3098.0813	3120.028	3136.923	3147.9313	3184.4043	3226.8274
CC1CC1C1=NON=N1	C[C@H]1C[C@H]1c1nonn1	
InChI=1S/C5H7N3O/c1-3-2-4(3)5-6-8-9-7-5/h3-4H,2H2,1H3	InChI=1S/C5H7N3O/c1-3-2-4(3)5-6-8-9-7-5/h3-4H,2H2,1H3/t3-,4+/m0/s1
