23
gdb 78780	2.51844	1.66664	1.28718	0.2683	88.79	-0.2446	0.0882	0.3329	1114.7618	0.205325	-351.108918	-351.100009	-351.099065	-351.141766	35.806	
C	-0.1372389756	 1.5906380342	-0.2757702176	-0.433905
C	 0.1492234293	 0.0906943224	-0.2712611345	 0.037685
C	 0.8837809026	-0.6477364635	-1.3950918813	-0.114344
C	 1.3088353418	-1.7352922759	-0.4426135872	-0.078253
C	 2.3686803415	-0.8315271988	-1.0083705222	-0.092626
C	 2.6178737933	-0.1803773252	 0.3570348842	 0.335212
C	 3.5938360472	-1.019745455	 1.19533201	-0.427434
C	 3.0456228731	 1.2889937465	 0.4260312946	-0.468569
C	 1.1477050782	-0.6322344685	 0.6874770424	-0.123407
H	 0.7112933156	 2.2007684519	-0.5836736829	 0.118419
H	-0.9603967513	 1.8061816742	-0.9666980823	 0.109709
H	-0.4524773227	 1.9296067413	 0.7180495804	 0.111111
H	-0.8115806758	-0.4237560696	-0.1373518974	 0.072659
H	 0.5701703159	-0.7708547966	-2.4251743854	 0.077953
H	 1.1677816359	-2.8057496614	-0.4621769788	 0.085004
H	 3.1041430628	-1.0767276384	-1.7667413914	 0.073912
H	 4.6103725747	-0.961215113	 0.7895135823	 0.10612
H	 3.6309440001	-0.6507637646	 2.2271234412	 0.106385
H	 3.3019794284	-2.0735759498	 1.2225997564	 0.112628
H	 2.608483999	 1.8940229266	-0.3679448598	 0.118874
H	 2.7765179117	 1.7399218226	 1.3882184757	 0.11012
H	 4.1347430193	 1.3666987129	 0.327251336	 0.106035
H	 0.872177625	-0.8126159423	 1.7271025674	 0.05671
109.7122	154.2518	164.9097	251.8948	255.5173	290.2366	327.5096	357.7817	381.4517	541.1912	577.337	624.2955	675.1099	767.9235	785.9159	795.0456	849.9457	879.0304	891.4975	900.6639	945.9793	974.2679	1001.1584	1017.8428	1022.3096	1032.241	1040.4941	1063.782	1109.5987	1136.2043	1143.5174	1164.3556	1177.4911	1212.9817	1231.4509	1243.5386	1270.7304	1347.9198	1363.018	1396.1178	1405.5765	1414.1858	1420.5165	1479.2428	1485.3325	1493.1894	1498.3263	1503.9533	1521.9875	3011.4611	3021.8081	3030.0138	3034.1071	3079.9491	3083.4833	3085.105	3105.4	3108.6293	3133.9381	3156.621	3171.6519	3183.1135	3223.2757
CC1C2C3C2C(C)(C)C13	C[C@H]1[C@@H]2[C@H]3[C@@H]2C(C)(C)[C@@H]13	
InChI=1S/C9H14/c1-4-5-6-7(4)9(2,3)8(5)6/h4-8H,1-3H3	InChI=1S/C9H14/c1-4-5-6-7(4)9(2,3)8(5)6/h4-8H,1-3H3/t4-,5+,6+,7-,8+/m0/s1
