19
gdb 47523	2.50949	1.77724	1.28714	3.2306	74.79	-0.2309	-0.0168	0.2142	1017.9799	0.161599	-423.030367	-423.022991	-423.022047	-423.062143	29.486	
O	-0.0457755653	-0.0482952301	-0.096499666	-0.314072
C	-0.0027898741	 1.1592979575	-0.0265690377	 0.374917
C	-1.3181799331	 1.9541829531	 0.0644343842	-0.180722
O	-1.3223320162	 3.2097694609	-0.5780808986	-0.235022
C	-0.6342903186	 4.2583501669	 0.082411213	-0.090321
C	 0.881780295	 4.0471123223	 0.1962466827	-0.017643
C	 1.4316556649	 3.1267063021	-0.9302461669	-0.239765
C	 1.308203784	 1.9127281743	 0.0505281628	-0.10179
C	 1.3042837152	 2.955624334	 1.2162154404	-0.249656
H	-2.0925637953	 1.3466010155	-0.4092483776	 0.136543
H	-1.5803921034	 2.0531973374	 1.1331078871	 0.11028
H	-0.8376813991	 5.1452192188	-0.5260459878	 0.113304
H	-1.066738127	 4.4292953538	 1.0830642821	 0.091715
H	 1.3602448058	 5.022870638	 0.3202897088	 0.073251
H	 0.872807805	 3.0841880954	-1.865803177	 0.120967
H	 2.4838900206	 3.3289812279	-1.1427942701	 0.106794
H	 2.1127644673	 1.1768203035	 0.0363149517	 0.08797
H	 2.3194752645	 3.1191756434	 1.5851030626	 0.11181
H	 0.6499907696	 2.7674886153	 2.0728031963	 0.10144
85.3705	211.3851	280.5051	309.9599	332.562	384.4528	441.045	486.7254	559.1708	639.2639	745.0681	786.2701	800.2953	860.6915	908.729	916.6012	943.2257	959.1578	989.247	1049.2475	1061.4316	1080.7828	1110.7575	1130.0249	1170.7377	1190.2289	1241.0257	1255.7238	1261.2888	1280.6009	1293.4474	1327.0539	1337.0377	1354.4821	1367.3197	1409.9517	1460.3525	1473.6072	1489.5972	1501.5227	1801.9484	2952.5471	2963.8132	3052.9573	3060.6513	3073.6858	3079.819	3104.7167	3108.8939	3113.5328	3135.2904
O=C1COCC2CC1C2	O=C1COC[C@@H]2C[C@H]1C2	
InChI=1S/C7H10O2/c8-7-4-9-3-5-1-6(7)2-5/h5-6H,1-4H2	InChI=1S/C7H10O2/c8-7-4-9-3-5-1-6(7)2-5/h5-6H,1-4H2/t5-,6+
