18
gdb 39481	2.59306	1.79981	1.1921	1.0329	72.79	-0.2426	-0.005	0.2376	1030.475	0.149448	-439.058213	-439.050781	-439.049837	-439.089931	29.293	
C	 0.0180911315	 1.6492868198	 0.0360108206	-0.321911
C	 1.1847931775	 0.7478761625	-0.3264630698	-0.022185
C	 2.4005601247	 0.7035695522	 0.5710606618	-0.115278
O	 3.1366458328	-0.5135760204	 0.4389886168	-0.220007
C	 2.7131729052	-1.5547149336	 1.2498921047	 0.0095
O	 1.3836689677	-1.9876867026	 0.9626071061	-0.219947
C	 0.3844099069	-1.4228840102	 1.7159096657	 0.089503
N	-0.3668052227	-0.4739892702	 1.3668151544	-0.221889
C	-0.1427854351	 0.1575367366	 0.0877504041	 0.041586
H	 0.0691708828	 2.1599056429	 0.9931753143	 0.118751
H	-0.4772837109	 2.2124787038	-0.7467588428	 0.114691
H	 1.4314332015	 0.663401358	-1.3811944011	 0.09298
H	 3.0980206777	 1.4982396755	 0.2872228942	 0.11586
H	 2.1210497746	 0.8662303798	 1.6221950087	 0.097137
H	 3.3696083436	-2.3994661228	 1.0327108933	 0.125279
H	 2.7742262027	-1.2816724759	 2.3169253425	 0.089201
H	 0.2375541759	-1.8997717933	 2.6876596206	 0.117677
H	-0.7336486763	-0.2980814222	-0.7023250443	 0.109053
133.4984	182.9046	229.9284	279.9591	321.5145	387.0448	420.6851	508.8504	538.7867	622.305	749.4173	773.227	820.4523	844.6866	917.3597	951.5685	958.0369	992.5107	1011.0623	1042.9946	1060.6436	1073.3817	1124.2824	1125.8007	1141.2962	1189.4478	1203.7732	1224.7333	1292.2447	1337.2033	1358.219	1385.3503	1405.0017	1422.0794	1450.6107	1485.5878	1493.7881	1504.2704	1733.3353	2961.3336	3003.9976	3074.8594	3111.378	3115.6616	3128.1598	3139.8673	3150.5409	3216.2538
C1C2COCOC=NC12	C1[C@H]2COCOC=N[C@@H]12	
InChI=1S/C6H9NO2/c1-5-2-8-4-9-3-7-6(1)5/h3,5-6H,1-2,4H2/b7-3-	InChI=1S/C6H9NO2/c1-5-2-8-4-9-3-7-6(1)5/h3,5-6H,1-2,4H2/b7-3-/t5-,6-/m0/s1
