20
gdb 57323	1.79701	1.6134	1.06239	3.7858	84.5	-0.2838	0.0129	0.2967	1224.0837	0.167268	-366.001519	-365.991047	-365.990103	-366.036239	39.047	
C	-0.0323347842	 1.5362970364	 0.029326855	-0.419119
C	-0.0077715366	-0.0004818056	 0.0631125307	 0.23947
C	 0.6956370329	-0.4942114221	 1.3364515839	-0.417532
C	-1.4469313941	-0.5395413802	 0.0047913063	-0.423445
C	 0.7667063154	-0.506970143	-1.2168272096	-0.329958
C	 2.139308492	-0.0052682322	-1.311865245	 0.327277
C	 3.2614166585	 0.413988577	-1.3933832334	-0.419592
C	 0.7667041136	-1.9776200106	-1.3017184189	 0.299318
N	 0.747151464	-3.1311783876	-1.3618701971	-0.336686
H	 0.976907246	 1.9548100529	 0.0571807667	 0.132553
H	-0.5312221771	 1.9075695188	-0.8728701989	 0.112459
H	-0.5832633349	 1.9171056662	 0.8946149954	 0.119073
H	 0.1649836352	-0.1315768659	 2.2221783483	 0.116516
H	 0.71746898	-1.5873956507	 1.3813479022	 0.136744
H	 1.7258881026	-0.1301627184	 1.3850762686	 0.129461
H	-1.9642991327	-0.1979512298	-0.898878285	 0.113332
H	-1.4713137921	-1.6327831714	 0.0182477808	 0.142746
H	-2.0146904306	-0.1795003339	 0.8680983709	 0.119135
H	 0.2069772213	-0.1444791785	-2.0907187825	 0.150385
H	 4.256288341	 0.7787797186	-1.4694035882	 0.207862
70.2347	134.918	155.4252	164.351	219.4151	266.6707	278.2505	304.2656	316.7198	368.6444	375.2484	398.4524	404.6265	501.3049	566.8179	585.6571	644.0737	661.4457	766.6901	855.3199	940.5564	944.3733	966.9452	968.2149	1008.3926	1050.256	1075.2324	1192.372	1240.2162	1250.2268	1307.2634	1315.1786	1401.3608	1405.6443	1435.1717	1479.3521	1487.5641	1489.2932	1504.6077	1506.9128	1520.048	2243.1797	2359.9006	3012.0068	3031.3866	3034.9938	3041.8481	3098.2987	3103.2928	3110.2539	3116.0477	3118.2232	3123.03	3501.8233
CC(C)(C)C(C#C)C#N	CC(C)(C)[C@@H](C#C)C#N	
InChI=1S/C8H11N/c1-5-7(6-9)8(2,3)4/h1,7H,2-4H3	InChI=1S/C8H11N/c1-5-7(6-9)8(2,3)4/h1,7H,2-4H3/t7-/m0/s1
