17
gdb 125858	3.17166	1.64744	1.15048	1.6194	81.34	-0.2059	-0.0013	0.2046	1045.7003	0.139365	-380.900814	-380.893628	-380.892684	-380.932214	28.559	
C	-0.0775915242	 1.5697269865	 0.0506165489	-0.387525
C	 0.020759908	 0.0344071417	 0.0354172356	-0.187911
C	 0.8045165302	-0.5224154738	-1.1526804715	-0.082676
C	 1.8529510855	-1.2808450337	-0.7748857183	-0.236053
C	 1.8927968649	-1.3267696423	 0.6816093427	 0.237184
C	 2.5294324654	-1.7922178305	 1.8095852664	-0.225776
N	 1.8166442448	-1.2826964144	 2.8603179787	-0.187391
N	 0.756464607	-0.5167014719	 2.4919273755	-0.338236
C	 0.8135406456	-0.5529034203	 1.1729985949	 0.339985
H	 0.9190449926	 2.020446202	 0.0532191168	 0.12333
H	-0.6169976075	 1.9345388459	-0.8292286811	 0.111252
H	-0.6084088608	 1.9090792368	 0.9444705233	 0.131123
H	-0.9989922231	-0.3766626754	 0.0247994347	 0.10428
H	 0.5231037946	-0.3039981281	-2.1758681405	 0.095407
H	 2.5478256064	-1.7747450494	-1.4422073627	 0.099132
H	 3.3921256185	-2.4182708133	 1.9726402107	 0.132902
H	 1.996620752	-1.4176145497	 3.8403151461	 0.270973
134.7412	175.9322	245.361	301.7167	362.5981	445.0884	488.5535	557.4424	646.0013	661.6494	691.0475	720.1236	760.4094	788.0909	816.0407	907.1022	947.0436	967.938	1019.528	1048.2289	1074.7799	1086.9284	1096.7362	1154.2768	1183.8946	1258.7783	1287.3157	1313.5308	1343.7851	1403.0965	1432.3601	1462.8525	1495.2283	1496.7018	1521.494	1598.7721	1640.0025	3009.0985	3038.4226	3109.9841	3119.1997	3198.8714	3222.1491	3261.447	3679.8954
CC1C=CC2=CNN=C12	C[C@H]1C=Cc2c[nH]nc12	
InChI=1S/C7H8N2/c1-5-2-3-6-4-8-9-7(5)6/h2-5H,1H3,(H,8,9)	InChI=1S/C7H8N2/c1-5-2-3-6-4-8-9-7(5)6/h2-5H,1H3,(H,8,9)/t5-/m0/s1
