17
gdb 41688	4.07459	1.4941	1.27169	1.6933	72.12	-0.241	-0.0031	0.2379	982.8215	0.138965	-417.989124	-417.982452	-417.981507	-418.020025	26.556	
C	 0.0063677523	 1.4941023683	 0.1395166037	-0.097041
O	 1.3456712752	 1.961314115	-0.0011189179	-0.256333
C	 2.1236408265	 1.0064385887	-0.7157892399	-0.165053
C	 1.4226685494	-0.3174375382	-0.5281640399	 0.304654
C	 1.7367175356	-1.6391812034	-1.207265589	-0.273938
N	 1.3423449458	-2.6681230019	-0.2243994676	-0.205829
C	 0.9978557678	-2.0570989068	 0.8372782908	 0.038063
N	 1.088275875	-0.6332967743	 0.8937237799	-0.165181
C	 0.0712588924	-0.0085508247	-0.0082293144	-0.102174
H	-0.3596093721	 1.8262989598	 1.1159409505	 0.122251
H	-0.6498135859	 1.9066922547	-0.644100591	 0.097461
H	 2.1776918575	 1.2503851836	-1.7896624275	 0.09682
H	 3.1373148641	 1.025597693	-0.3021498833	 0.120364
H	 1.1993917598	-1.795710189	-2.1484853476	 0.123843
H	 2.8076588494	-1.7375749997	-1.4274483509	 0.123888
H	 0.6645869048	-2.5751304752	 1.7321474755	 0.128895
H	-0.8090797375	-0.5856087799	-0.2713012314	 0.10931
173.3198	223.0193	226.3497	307.9762	384.6913	455.0362	514.1862	653.9937	748.0251	770.8149	821.4185	861.0001	913.8352	927.1218	950.282	958.1393	984.4439	996.2574	1037.8054	1079.4211	1084.9363	1105.2973	1111.8371	1195.5471	1220.0627	1234.5477	1237.1874	1275.064	1318.1852	1331.4	1366.434	1371.8985	1429.1267	1488.9105	1500.8534	1512.2597	1674.804	2969.6775	2978.3871	3027.0524	3069.3272	3070.5785	3078.3461	3173.3245	3186.5215
C1OCC23CN=CN2C13	C1OC[C@@]23CN=CN2[C@@H]13	
InChI=1S/C6H8N2O/c1-5-6(3-9-1)2-7-4-8(5)6/h4-5H,1-3H2	InChI=1S/C6H8N2O/c1-5-6(3-9-1)2-7-4-8(5)6/h4-5H,1-3H2/t5-,6+,8?/m0/s1
