21
gdb 96013	2.54432	1.42483	1.07424	2.3069	77.2	-0.2544	0.0783	0.3326	1184.6232	0.184019	-424.214458	-424.205921	-424.204977	-424.248284	32.959	
O	 0.1385714108	 1.2722250352	-0.4509866511	-0.436069
C	 0.0315905464	-0.0666519357	-0.0043943234	 0.134889
C	 0.500423319	-0.2812688865	 1.4515258191	-0.221587
C	-0.3349453802	-1.4599874819	 1.9633718651	-0.217188
C	-1.7231866978	-1.1727604345	 1.3687118581	-0.22915
C	-1.4314103442	-0.6684795304	-0.061331722	-0.058379
C	-2.4166892801	 0.3356197033	-0.6153602523	 0.079686
C	-3.7837623497	 0.5150591052	-0.1136713784	-0.191251
O	-2.7518169705	 1.4428349115	 0.2396387333	-0.252616
H	-0.468161278	 1.8080963348	 0.0738335518	 0.293988
H	 0.6746094534	-0.629426384	-0.6881769404	 0.086701
H	 1.580602335	-0.4311206206	 1.5251679761	 0.098069
H	 0.2563987304	 0.6213072718	 2.0271068804	 0.097263
H	 0.0583077361	-2.4063417355	 1.5707117892	 0.097072
H	-0.3452846171	-1.5405030997	 3.0538965923	 0.097229
H	-2.3904502087	-2.0388778275	 1.3857484592	 0.092182
H	-2.1986935042	-0.3706446471	 1.9451743737	 0.113861
H	-1.4243794222	-1.5210481057	-0.7514804073	 0.076255
H	-2.2210422704	 0.6391902888	-1.6431800078	 0.10443
H	-4.5518338257	 0.9111274	-0.7762132409	 0.117565
H	-4.1506169224	-0.1044545914	 0.7020973354	 0.117051
39.0245	97.7174	190.7657	209.2165	273.5111	352.9278	413.9054	440.1077	471.9143	539.1555	573.3443	663.4553	728.7645	815.9866	855.7167	880.4136	919.4906	923.1744	928.6275	972.8783	1017.1466	1021.6379	1066.9698	1090.7778	1101.0445	1121.2995	1158.8932	1171.0551	1176.9247	1189.5626	1234.4828	1268.5749	1298.1753	1310.8853	1318.6217	1331.3367	1347.0832	1351.0044	1377.6884	1431.8913	1448.8157	1483.7396	1492.7664	1505.6217	1529.1787	3023.1616	3025.5125	3030.5054	3040.6694	3058.5529	3088.1475	3090.853	3094.0459	3100.3367	3119.6854	3177.9768	3790.1788
OC1CCCC1C1CO1	O[C@H]1CCC[C@H]1[C@H]1CO1	
InChI=1S/C7H12O2/c8-6-3-1-2-5(6)7-4-9-7/h5-8H,1-4H2	InChI=1S/C7H12O2/c8-6-3-1-2-5(6)7-4-9-7/h5-8H,1-4H2/t5-,6+,7-/m1/s1
