15
gdb 8742	3.81541	1.30393	1.1948	5.4406	67.36	-0.2586	0.0188	0.2774	1025.0949	0.118201	-358.799705	-358.790655	-358.789711	-358.833329	32.141	
N	 0.0664967349	 1.5753795614	-0.0137755289	-0.497454
C	 0.048394303	 0.1073931466	-0.0071028624	-0.182554
C	 0.6179814397	-0.5007299937	-1.2138279534	 0.295117
C	 1.1400820808	-0.9729570247	-2.1895313886	-0.4321
C	 0.8282290653	-0.4130684119	 1.2516797065	-0.111819
N	 2.1982887034	 0.0676714361	 1.3758935915	-0.508831
C	 0.0703401188	-0.0642116018	 2.4634033764	 0.310023
N	-0.5520506886	 0.1905790522	 3.4021336856	-0.321024
H	 0.8891085659	 1.9063492635	-0.5072477449	 0.235626
H	-0.7343978089	 1.9312677597	-0.5237137888	 0.247943
H	-0.99379245	-0.2138922121	 0.1008660562	 0.131081
H	 1.5726271404	-1.3939883441	-3.0639434773	 0.20692
H	 0.8586192961	-1.5073316779	 1.1904829588	 0.139647
H	 2.7216664631	-0.2016546365	 0.5476016545	 0.241408
H	 2.1969102259	 1.0821690432	 1.4319070649	 0.246017
67.0193	122.4711	139.8935	176.1467	225.1178	235.4722	301.7008	365.0181	400.3047	500.4421	555.7254	579.7068	655.06	657.3642	703.5934	815.7735	847.5968	875.0452	935.5587	998.1439	1086.5732	1128.9132	1184.3691	1218.1819	1297.1335	1316.0383	1393.9246	1416.4832	1651.8665	1664.8985	2223.9552	2367.786	3048.1856	3052.7283	3489.2057	3499.3662	3514.7745	3579.8071	3592.8275
NC(C#C)C(N)C#N	N[C@@H](C#C)[C@@H](N)C#N	
InChI=1S/C5H7N3/c1-2-4(7)5(8)3-6/h1,4-5H,7-8H2	InChI=1S/C5H7N3/c1-2-4(7)5(8)3-6/h1,4-5H,7-8H2/t4-,5-/m0/s1
