19
gdb 77808	2.34691	1.46256	1.33191	2.7198	75.97	-0.233	-0.0079	0.2251	1084.3937	0.158924	-423.050186	-423.041608	-423.040664	-423.083054	33.176	
C	-0.026495643	 1.5037175128	-0.0339297003	-0.478308
C	 0.0010828651	-0.0057520601	 0.0055661777	 0.279304
C	-1.2789612119	-0.7532235577	-0.4032217271	-0.269997
C	-1.2716350448	-2.1057878297	 0.3334680556	-0.326842
C	-0.2436665803	-1.9619857577	 1.4610347849	 0.421415
O	-0.1812280317	-2.6518474623	 2.449921161	-0.337868
C	 0.6377072787	-0.7914677703	 1.1642531165	-0.267222
C	 1.2719721387	-0.7357304566	-0.2298892588	 0.057872
O	 1.2822057246	-1.8320032594	-1.094026624	-0.416558
H	 0.9284775977	 1.9332201011	 0.2841094055	 0.118465
H	-0.2305380921	 1.8614733004	-1.0499732791	 0.126287
H	-0.8086332839	 1.9000432625	 0.6228661921	 0.123365
H	-2.1397102052	-0.1539045169	-0.0880764235	 0.104934
H	-1.3413662966	-0.8650406894	-1.4894642552	 0.115304
H	-2.2410706601	-2.3872265206	 0.7507607852	 0.122609
H	-0.9403214355	-2.919906655	-0.317930575	 0.137144
H	 1.1704637727	-0.3335145539	 1.9893825491	 0.099007
H	 2.1744300509	-0.1249102765	-0.2713069083	 0.095517
H	 1.9516397265	-2.4534937708	-0.7873707063	 0.295573
91.2002	168.5059	198.8874	224.4137	238.5931	304.014	352.0621	414.635	459.256	512.6766	550.9742	608.8406	645.046	689.4141	766.3128	808.893	877.492	923.2285	940.7067	999.6996	1017.5135	1028.5986	1058.3965	1107.7419	1117.3598	1171.5204	1187.3128	1225.3339	1241.9436	1270.409	1297.6718	1301.4942	1334.4769	1360.6207	1415.403	1445.7385	1468.8787	1486.8324	1494.403	1508.5558	1824.4331	3025.3351	3046.9236	3067.8246	3087.719	3089.2062	3094.0289	3102.9583	3118.2752	3186.328	3801.4446
CC12CCC(=O)C1C2O	C[C@]12CCC(=O)[C@H]1[C@H]2O	
InChI=1S/C7H10O2/c1-7-3-2-4(8)5(7)6(7)9/h5-6,9H,2-3H2,1H3	InChI=1S/C7H10O2/c1-7-3-2-4(8)5(7)6(7)9/h5-6,9H,2-3H2,1H3/t5-,6+,7-/m0/s1
