21
gdb 126596	5.19998	0.69374	0.6677	2.2428	85.8	-0.2355	0.0267	0.2622	1768.645	0.184217	-383.301761	-383.292556	-383.291612	-383.337185	33.297	
C	-0.1678740711	 1.5480804595	 0.0458201611	-0.380487
C	 0.0672231684	 0.0361709013	-0.0095108456	-0.164616
C	 0.670818356	-0.5191708751	 1.2839827717	-0.164288
C	 0.9081844692	-2.0313267034	 1.2180723346	-0.16473
N	 1.5170272629	-2.5588785209	 2.427091234	 0.066238
C	 0.9208032749	-3.2439848315	 3.434224195	-0.034866
C	 1.8875400327	-3.4753044662	 4.3915749919	-0.234511
C	 3.0485441027	-2.8788402896	 3.8613552233	-0.000808
N	 2.8212195498	-2.3228187308	 2.6729279742	-0.27003
H	 0.7693308266	 2.0865618119	 0.2232096431	 0.119682
H	-0.5942636773	 1.9193369153	-0.8911034749	 0.113462
H	-0.8583057687	 1.811904713	 0.8544532552	 0.115786
H	-0.8822026962	-0.4745470963	-0.2203335846	 0.094117
H	 0.7318748639	-0.2005776174	-0.8508839758	 0.100784
H	 1.6286448538	-0.0310037821	 1.4954460852	 0.126141
H	 0.010427537	-0.2974496922	 2.132207399	 0.09977
H	-0.0343377454	-2.5666032191	 1.0653728982	 0.114178
H	 1.569877604	-2.2741294325	 0.3808177603	 0.129247
H	-0.1231700668	-3.5120324848	 3.3876573337	 0.124956
H	 1.7701827695	-4.0022689079	 5.3243511192	 0.101583
H	 4.0395178843	-2.8363664512	 4.2894558111	 0.108393
38.7189	82.1268	85.1845	118.8699	217.7723	248.8869	324.886	358.9009	431.1145	633.164	678.1719	741.054	752.0499	762.2449	797.8812	825.1832	888.5234	912.1902	934.1173	939.5493	986.6919	1019.0242	1063.7653	1066.074	1110.4167	1124.2265	1134.239	1226.2586	1251.1104	1289.5573	1302.2441	1326.1541	1328.5665	1374.9478	1387.505	1406.6589	1415.6845	1429.0436	1478.0635	1487.0662	1489.9643	1499.9663	1500.089	1513.3846	1556.9775	3011.7597	3027.539	3032.4378	3041.3007	3052.4519	3076.1232	3098.8089	3104.6853	3105.8931	3241.2736	3254.0909	3277.2121
CCCCN1C=CC=N1	CCCCn1cccn1	
InChI=1S/C7H12N2/c1-2-3-6-9-7-4-5-8-9/h4-5,7H,2-3,6H2,1H3	InChI=1S/C7H12N2/c1-2-3-6-9-7-4-5-8-9/h4-5,7H,2-3,6H2,1H3
