12
gdb 23931	9.8341	0.68631	0.64154	1.0926	94.87	-0.2313	-0.0593	0.172	1600.3396	0.077543	-398.326576	-398.31905	-398.318105	-398.359201	27.221	
C	 0.1328208656	-3.7458385159	-0.0202595616	-0.601554
C	 0.0799783388	-2.5384253589	-0.0128203505	 0.255086
C	 0.0224406955	-1.1838716765	-0.004513567	 0.009389
C	-0.0359891713	 0.0289420775	 0.0030007927	 0.346147
C	-0.1188017911	 1.4215334748	 0.0118453662	 0.057088
C	-1.1565116918	 2.312501427	 0.0313818839	-0.214964
N	-0.6623031332	 3.6007011351	 0.0315182403	-0.240595
C	 0.624271461	 3.4450713189	 0.012528946	 0.058728
O	 1.0447379973	 2.1663143139	-0.0004460096	-0.16616
H	 0.1783231001	-4.8068346992	-0.0267645424	 0.198082
H	-2.2132578923	 2.1003155307	 0.0451043613	 0.141191
H	 1.3888599815	 4.2063163525	 0.0059498507	 0.157562
74.5312	85.7429	224.1723	230.5057	432.2192	440.5831	480.9728	508.8592	536.1351	587.1704	621.8789	654.4054	691.7058	849.4807	875.0244	920.45	954.8774	1011.1372	1136.8976	1153.2799	1240.3255	1301.2068	1338.3828	1516.7323	1603.6405	2180.2101	2332.9608	3273.8557	3277.8758	3502.0655
C#CC#CC1=CN=CO1	C#CC#Cc1cnco1	
InChI=1S/C7H3NO/c1-2-3-4-7-5-8-6-9-7/h1,5-6H	InChI=1S/C7H3NO/c1-2-3-4-7-5-8-6-9-7/h1,5-6H
