20
gdb 56590	2.42277	1.17851	1.03204	2.1029	80.97	-0.2359	0.043	0.2788	1277.5535	0.168479	-403.070581	-403.06068	-403.059735	-403.105642	36.931	
C	 0.2613978013	 1.5496229971	 0.0259992252	-0.433501
C	 0.0171998478	 0.0366186596	 0.0135820319	 0.063161
C	 0.6571799047	-0.6225799889	 1.2661548899	-0.079835
O	-0.1031987456	-0.3249322992	 2.4285002501	-0.422609
C	 0.8391975904	-2.0670281118	 1.0833606984	 0.334419
C	 0.9907047104	-3.2501009439	 0.9348705838	-0.452976
N	-1.3870795965	-0.4091584228	-0.0164138575	-0.095209
C	-2.4909787434	 0.5294601348	 0.1740793282	-0.222186
C	-2.2185851849	-0.0702814285	-1.1594481407	-0.221311
H	 1.3308907758	 1.7514149084	-0.0888575509	 0.119678
H	-0.2543936012	 2.0568867529	-0.7953721321	 0.115192
H	-0.0652741057	 1.9883260331	 0.9727642543	 0.140834
H	 0.4973177907	-0.3984348068	-0.8702074073	 0.094192
H	 1.639087126	-0.1653449043	 1.437263745	 0.108771
H	-0.9631283805	-0.7404939774	 2.2846073021	 0.293438
H	 1.1241866718	-4.2959116789	 0.8075659144	 0.194049
H	-3.3114188508	 0.1633342713	 0.7857670118	 0.115451
H	-2.2737483653	 1.5858436342	 0.299823199	 0.118757
H	-1.8032292415	 0.5898369145	-1.9199356157	 0.110565
H	-2.8370905636	-0.8741902832	-1.5498889399	 0.11912
54.0151	64.7424	139.928	182.8838	229.0156	274.0881	298.9408	318.563	341.6193	401.7569	451.717	542.281	566.4949	620.0694	663.6901	669.2307	732.5707	816.7135	855.1121	902.9663	948.0066	992.7611	1004.3829	1035.6252	1060.5	1113.9637	1126.3577	1127.0024	1146.764	1175.4804	1183.2038	1263.6338	1299.9066	1327.4995	1353.7169	1370.7878	1400.7244	1426.1026	1491.1162	1495.7441	1510.2449	1528.1709	2233.7643	3037.8645	3042.3058	3047.371	3092.6899	3103.4729	3112.2944	3122.4033	3174.0652	3197.7298	3503.0974	3778.4884
CC(C(O)C#C)N1CC1	C[C@@H]([C@@H](O)C#C)N1CC1	
InChI=1S/C7H11NO/c1-3-7(9)6(2)8-4-5-8/h1,6-7,9H,4-5H2,2H3	InChI=1S/C7H11NO/c1-3-7(9)6(2)8-4-5-8/h1,6-7,9H,4-5H2,2H3/t6-,7-/m0/s1
