14
gdb 47195	2.42886	1.75359	1.06992	4.1324	65.72	-0.2733	-0.0712	0.2022	1043.1425	0.102882	-473.89182	-473.884518	-473.883574	-473.924092	26.974	
O	-0.0416093488	-0.0509544941	 0.0689230361	-0.348728
C	 0.0187966341	 1.1400938261	-0.063888022	 0.457668
N	-1.1352954408	 1.9030070686	-0.3059308263	-0.420031
C	-1.5482429942	 3.1748456623	 0.1267799104	 0.385651
O	-2.7363252568	 3.4150624274	 0.1804074794	-0.337745
C	-0.5423378321	 4.202160389	 0.4679198286	-0.112753
C	 0.7356149412	 4.1911038577	 0.0910404331	-0.083934
C	 1.3627483127	 3.0522378931	-0.6609083302	-0.148777
O	 1.1959731761	 1.7879764448	-0.0007595738	-0.218246
H	-1.9378998198	 1.2979935234	-0.4371799613	 0.274868
H	-0.9689563374	 5.0458362914	 0.9983565708	 0.135382
H	 1.3708693141	 5.0396637109	 0.3275350065	 0.127951
H	 0.9622446076	 2.9865772111	-1.680382492	 0.144562
H	 2.4437601741	 3.1792252682	-0.7296152192	 0.144134
81.5011	125.2066	221.3526	300.2626	351.496	391.3417	445.8904	542.6608	646.6671	673.5388	712.2349	757.0508	806.0381	835.7636	878.938	921.7725	966.8498	1017.8545	1049.5641	1114.3871	1206.9803	1253.4043	1288.1418	1354.1378	1402.778	1427.4846	1429.9205	1493.9303	1709.3543	1782.3091	1850.6248	3034.0454	3125.9592	3175.3903	3208.9863	3576.3671
O=C1NC(=O)C=CCO1	O=C1NC(=O)C=CCO1	
InChI=1S/C5H5NO3/c7-4-2-1-3-9-5(8)6-4/h1-2H,3H2,(H,6,7,8)	InChI=1S/C5H5NO3/c7-4-2-1-3-9-5(8)6-4/h1-2H,3H2,(H,6,7,8)
