20
gdb 119660	3.82865	1.10262	0.99249	1.8678	80.16	-0.2413	0.0871	0.3284	1279.1933	0.170513	-403.047441	-403.039125	-403.038181	-403.08105	31.611	
C	 0.0145663387	 1.506903021	 0.0982328214	-0.385786
C	-0.0281233231	-0.0087858351	 0.0212313911	-0.066778
O	 0.7385363169	-0.5328194394	 1.101954705	-0.299223
C	 0.7896655111	-1.9056868689	 1.1517317425	 0.400359
C	 1.3727093811	-2.9319719595	 0.1783813719	-0.252252
N	 0.9260312052	-3.8193970865	 1.3354860922	-0.157028
C	 1.3342886755	-2.7191391025	 2.352068188	-0.056399
C	-0.0217132233	-2.8108279073	 3.0598785554	-0.262732
C	-0.3254757607	-2.939093879	 1.5632995358	-0.071117
H	 1.0450480333	 1.8654671721	 0.0245211341	 0.129284
H	-0.5661601306	 1.9460256121	-0.7184655494	 0.11657
H	-0.4019919469	 1.8548491822	 1.047680109	 0.128386
H	-1.0639878266	-0.3746427469	 0.087599212	 0.094948
H	 0.3839050453	-0.3608145685	-0.9363588284	 0.09747
H	 0.8399864966	-3.1391978872	-0.7551371031	 0.100134
H	 2.4559685762	-2.9360556742	 0.019659934	 0.102952
H	 2.3463445091	-2.6985997823	 2.7593067174	 0.08447
H	-0.189931349	-3.7056623804	 3.6640694914	 0.107663
H	-0.3750872998	-1.9064375761	 3.5585246038	 0.108617
H	-1.2587733389	-3.1759552337	 1.0499722357	 0.080463
60.2364	72.4034	145.9898	241.7347	295.2713	341.8841	363.548	458.6197	484.7626	656.0827	737.4324	799.0174	819.3793	855.4004	872.6646	884.5185	916.5552	930.1685	945.4313	1010.83	1011.8262	1065.7877	1080.1472	1091.6863	1115.3741	1119.3987	1142.8133	1160.0893	1186.442	1199.3552	1204.505	1233.0398	1241.3139	1278.9288	1297.0332	1340.2799	1402.1254	1431.4217	1483.7414	1486.6086	1499.5851	1516.283	1527.487	2982.4517	3014.3541	3039.7624	3045.7258	3066.4114	3101.3289	3101.4129	3109.1105	3120.1652	3123.6227	3134.9325
CCOC12CN3C1CC23	CCO[C@@]12CN3[C@@H]1C[C@@H]23	
InChI=1S/C7H11NO/c1-2-9-7-4-8-5(7)3-6(7)8/h5-6H,2-4H2,1H3	InChI=1S/C7H11NO/c1-2-9-7-4-8-5(7)3-6(7)8/h5-6H,2-4H2,1H3/t5-,6+,7+
