21
gdb 58568	2.13225	1.50688	1.21372	2.3452	73.78	-0.2436	0.0553	0.2989	1151.8224	0.180083	-461.346557	-461.336553	-461.335609	-461.38099	37.724	
C	 0.0419281794	 1.4451350922	-0.18015854	-0.430974
C	-0.0928633139	-0.0610020266	 0.0005386843	 0.090123
O	 0.6870666832	-0.5540153118	 1.1026469956	-0.445707
C	-1.5457894307	-0.5512313153	 0.1364269226	 0.371708
C	-2.3261449549	 0.0881455407	 1.2746059521	-0.462215
O	-2.246956625	-0.3901908849	-1.1281507912	-0.332758
C	-2.334418463	-1.8214750178	-1.3234585323	-0.090339
C	-1.6634688193	-2.1044762756	 0.0299821036	 0.029152
O	-0.4761872529	-2.8458473155	-0.0733563879	-0.438886
H	 1.0826988574	 1.7104810306	-0.3838359242	 0.125504
H	-0.5771333689	 1.7749299061	-1.0193462995	 0.145388
H	-0.2797609791	 1.9910403463	 0.7142312239	 0.108245
H	 0.3285745516	-0.5655738923	-0.8726428078	 0.10779
H	 0.4764027837	-0.0273475926	 1.8811172024	 0.28537
H	-2.4664829466	 1.1593128831	 1.1047708592	 0.130822
H	-3.3157789615	-0.3698872739	 1.3554632295	 0.126561
H	-1.8158045692	-0.0509159476	 2.2348938456	 0.104784
H	-3.3722612981	-2.1522900851	-1.4393678934	 0.102189
H	-1.738359018	-2.164453352	-2.1764631662	 0.111268
H	-2.3384572045	-2.5312319339	 0.7851127025	 0.066869
H	 0.1244355704	-2.5095457444	 0.6066674312	 0.295108
71.089	101.1603	182.1144	211.009	237.6422	257.6482	293.5824	299.6687	310.4666	372.7983	404.6105	445.6314	489.0969	538.0454	580.6103	678.3003	774.8399	877.3642	891.5362	912.6844	943.0912	1008.108	1025.1184	1047.991	1080.1248	1097.7663	1129.609	1143.997	1174.7761	1213.9515	1219.4813	1277.2702	1280.9018	1335.9714	1371.1138	1377.821	1399.5167	1403.6953	1410.4865	1428.2267	1481.3968	1487.2808	1495.2948	1505.2179	1513.7709	2996.0771	3029.1007	3032.377	3036.0525	3080.3019	3082.341	3103.2082	3107.8626	3119.0427	3126.4829	3742.2505	3810.4902
CC(O)C1(C)OCC1O	C[C@@H](O)[C@@]1(C)OC[C@H]1O	
InChI=1S/C6H12O3/c1-4(7)6(2)5(8)3-9-6/h4-5,7-8H,3H2,1-2H3	InChI=1S/C6H12O3/c1-4(7)6(2)5(8)3-9-6/h4-5,7-8H,3H2,1-2H3/t4-,5-,6-/m1/s1
