15
gdb 42495	6.22929	0.66092	0.63187	5.9672	74.37	-0.254	-0.0769	0.1772	1668.1118	0.110243	-416.778996	-416.769423	-416.768479	-416.814868	32.716	
O	 0.3850765398	 0.0892750308	 0.4245318428	-0.28636
C	 0.1763880069	 1.2154745237	 0.0273908898	 0.222943
C	 1.2445171886	 2.0203607303	-0.7267822643	-0.276873
N	 2.53907146	 1.3816957936	-0.8211931844	-0.280559
C	 3.2709300132	 1.3467989523	 0.4464468405	-0.27424
C	 4.6035829217	 0.7668214525	 0.2568125043	 0.262246
N	 5.6479076279	 0.293494409	 0.1192439503	-0.297035
C	-1.0972163633	 1.8845496566	 0.2039236932	 0.245158
C	-2.1339734075	 2.4844025506	 0.3256492125	-0.383765
H	 0.8521427122	 2.2110806371	-1.7352271246	 0.149028
H	 1.3423875344	 3.0074422889	-0.2574698105	 0.140084
H	 2.4215626923	 0.4306802964	-1.1573667548	 0.244214
H	 3.3960617471	 2.3764116962	 0.804003533	 0.153876
H	 2.763823263	 0.7834301099	 1.2444156856	 0.157623
H	-3.0595882363	 2.994383122	 0.4451210466	 0.22366
43.0197	45.8246	105.3352	141.3444	180.6874	235.6519	261.6874	349.838	390.9768	479.833	559.9773	586.4456	596.7481	656.7267	718.8317	738.006	835.8382	915.9732	980.1739	992.6473	1080.8374	1104.3445	1174.2866	1231.8652	1297.4985	1350.4347	1387.1204	1442.4422	1489.1003	1516.0932	1767.9138	2209.7162	2369.8225	2997.7539	3021.4476	3054.0796	3063.2068	3490.8242	3526.5175
O=C(CNCC#N)C#C	O=C(CNCC#N)C#C	
InChI=1S/C6H6N2O/c1-2-6(9)5-8-4-3-7/h1,8H,4-5H2	InChI=1S/C6H6N2O/c1-2-6(9)5-8-4-3-7/h1,8H,4-5H2
