17
gdb 34518	4.2757	1.18826	1.082	1.593	82.71	-0.2283	-0.0297	0.1986	1129.9926	0.13685	-384.646168	-384.638842	-384.637897	-384.677749	29.547	
C	 0.08434563	-1.1782617727	-0.0516836144	-0.390411
C	-0.0177328563	 0.0223851416	-0.0205141674	 0.198343
C	-0.0719425194	 1.4388801935	 0.0210101187	 0.161436
C	-1.2145610298	 2.1460795962	 0.0480690064	-0.160319
C	-1.0728567786	 3.6503658063	 0.0729787282	 0.045836
C	-0.0918269636	 4.0559828421	 1.2007053629	-0.243043
C	 0.9407562372	 3.7190139517	 0.1024128403	 0.077418
C	 1.2440668663	 2.2166036414	 0.0274905475	-0.311694
O	-0.0597475278	 4.035006183	-0.9092404019	-0.291423
H	 0.1548700941	-2.2372126716	-0.0821341207	 0.192906
H	-2.1890246305	 1.671781698	 0.0575637093	 0.102261
H	-2.0102422657	 4.1923351238	-0.0613865036	 0.079351
H	-0.120751829	 5.1275572739	 1.404246787	 0.111031
H	-0.0974983312	 3.4780899898	 2.1265315401	 0.104577
H	 1.8379493774	 4.3359558243	 0.0067804061	 0.078971
H	 1.8666172409	 1.9014024754	 0.8740241096	 0.117207
H	 1.811681326	 1.9919603434	-0.8831861782	 0.127554
111.2817	154.1602	289.9637	332.7345	376.891	483.309	521.1678	529.7275	562.6323	595.5083	611.2966	638.4687	786.2132	840.9192	850.4303	875.2523	877.8167	922.7948	948.91	990.8182	1002.3954	1061.6917	1078.0813	1099.5715	1174.3354	1186.4849	1221.6396	1248.396	1298.8778	1316.1729	1323.5254	1349.612	1374.4513	1464.3179	1486.5714	1668.0572	2218.3947	3031.2573	3067.1547	3072.0221	3081.2307	3102.634	3140.41	3199.0686	3503.4707
C#CC1=CC2CC(C1)O2	C#CC1=C[C@H]2C[C@@H](C1)O2	
InChI=1S/C8H8O/c1-2-6-3-7-5-8(4-6)9-7/h1,3,7-8H,4-5H2	InChI=1S/C8H8O/c1-2-6-3-7-5-8(4-6)9-7/h1,3,7-8H,4-5H2/t7-,8+/m0/s1
