20
gdb 27242	3.01277	1.48495	1.02656	1.5733	87.55	-0.187	0.0451	0.2321	1186.96	0.173813	-366.069436	-366.061195	-366.060251	-366.102207	31.901	
C	-0.1085109662	 1.5170231713	 0.0795744215	-0.501894
C	-0.0334161335	 0.0308543785	-0.0477704286	 0.127042
C	 0.1298320507	-0.7970122628	-1.133234627	 0.231576
C	 0.3290064296	-0.7278679337	-2.6220421022	-0.355501
C	 0.0223843357	-2.1943521862	-3.0570648054	-0.193146
C	 0.327110477	-3.0992206066	-1.82351635	-0.349044
C	 0.1290647554	-2.1443162695	-0.6799950053	 0.272606
C	-0.034457199	-2.129757996	 0.6807496676	-0.263935
N	-0.1294038134	-0.80196395	 1.0525307361	-0.297073
H	 0.7366277979	 1.9333381964	 0.6433890108	 0.124462
H	-0.0958907558	 1.9747450764	-0.9124401547	 0.134559
H	-1.0273749296	 1.8458296348	 0.5819894371	 0.121042
H	-0.3192894934	-0.0086734701	-3.1342963269	 0.096978
H	 1.3625749092	-0.4558587802	-2.8784050573	 0.099688
H	-1.0431824537	-2.2743178177	-3.2975419353	 0.102756
H	 0.5796484443	-2.4948896295	-3.9488917371	 0.088768
H	-0.3211203952	-3.9811731991	-1.7946849603	 0.099308
H	 1.3606696021	-3.4704898528	-1.8606458561	 0.101211
H	-0.1002555977	-2.9142422234	 1.4177344699	 0.111047
H	-0.2950060044	-0.4833896198	 1.9916694831	 0.249549
83.7748	142.9861	169.3752	238.1994	259.0615	295.168	442.0742	488.2846	558.1916	594.9569	629.5303	666.1608	698.5513	712.8452	772.5833	850.9514	894.1833	905.847	971.7244	992.9292	1042.1698	1055.4469	1064.9339	1103.8917	1148.1493	1173.2172	1198.2137	1228.9791	1256.3446	1302.9041	1314.1289	1320.6859	1337.5705	1413.1016	1426.2817	1467.6113	1481.5928	1486.1819	1490.2706	1499.2939	1507.1025	1577.3194	1658.9951	3002.9972	3006.543	3010.0179	3040.7221	3051.8377	3057.762	3064.9276	3094.2981	3117.731	3254.7317	3671.7889
CC1=C2CCCC2=CN1	Cc1c2CCCc2c[nH]1	
InChI=1S/C8H11N/c1-6-8-4-2-3-7(8)5-9-6/h5,9H,2-4H2,1H3	InChI=1S/C8H11N/c1-6-8-4-2-3-7(8)5-9-6/h5,9H,2-4H2,1H3
