23
gdb 68784	2.30254	1.43044	1.30384	1.027	86.32	-0.2323	0.0743	0.3066	1173.044	0.203176	-388.279824	-388.269735	-388.268791	-388.313592	39.373	
C	-0.0042141149	 1.5722094347	 0.0764926977	-0.501678
C	-0.0250736188	 0.0708309151	 0.0584392848	 0.323604
C	 1.1467588115	-0.7721556021	-0.3660816844	-0.396187
C	 0.5923493289	-0.9511283509	 1.0269286335	 0.300441
C	 1.4161113318	-0.7616512318	 2.2692808813	-0.501045
C	-0.6905508951	-1.8021054889	 0.9714961913	 0.357698
C	-0.5872675388	-3.2698592997	 0.5744391266	-0.45696
O	-1.3206883568	-1.6798037759	 2.2431499394	-0.479904
C	-1.2937820285	-0.7860714224	-0.0635223789	-0.348083
H	 0.9785566183	 1.9529084625	 0.3744712635	 0.115143
H	-0.2279515654	 1.985588543	-0.9149818863	 0.116524
H	-0.7452363971	 1.9732727826	 0.7774446628	 0.117694
H	 1.0381220108	-1.5374697108	-1.1322887382	 0.096131
H	 2.1030600118	-0.2573262145	-0.4019863098	 0.104904
H	 2.1036598848	 0.0832890815	 2.1566865181	 0.109188
H	 0.7765617288	-0.5729474888	 3.135374883	 0.136414
H	 2.0231817307	-1.6490937031	 2.4868819195	 0.114058
H	-0.0537835371	-3.8358498914	 1.3444514733	 0.123001
H	-1.5870261697	-3.7090947111	 0.4612744044	 0.102363
H	-0.0657775503	-3.3995149729	-0.3775764642	 0.117168
H	-2.1703815183	-2.1306929234	 2.1934959876	 0.272297
H	-2.1803975978	-0.3065885306	 0.3588085277	 0.095864
H	-1.5268998388	-1.1639879011	-1.0661419828	 0.081365
122.8706	175.1239	182.6086	201.8557	214.3102	228.1297	269.0005	290.2286	334.5084	372.549	419.6647	445.2116	475.8503	507.745	574.4375	658.612	700.8178	790.6007	840.0103	878.95	932.6583	951.4508	954.0861	989.1745	995.5629	1052.9485	1064.9937	1085.0837	1105.4253	1126.7773	1168.506	1215.2434	1222.6338	1247.6456	1259.4298	1307.1885	1382.4259	1397.8766	1405.3598	1413.0661	1431.1728	1471.7907	1481.6272	1488.2446	1489.4298	1492.9899	1497.687	1503.363	1517.9076	3017.4465	3021.0919	3024.8147	3028.8936	3074.9419	3082.6241	3088.2929	3093.1668	3096.2136	3100.4513	3116.5037	3118.334	3181.6479	3804.6934
CC12CC1(C)C(C)(O)C2	C[C@@]12C[C@]1(C)[C@@](C)(O)C2	
InChI=1S/C8H14O/c1-6-4-7(6,2)8(3,9)5-6/h9H,4-5H2,1-3H3	InChI=1S/C8H14O/c1-6-4-7(6,2)8(3,9)5-6/h9H,4-5H2,1-3H3/t6-,7-,8-/m0/s1
