21
gdb 95919	2.25419	1.46729	1.19636	0.846	83.96	-0.2463	0.0522	0.2985	1162.5552	0.181128	-387.071272	-387.061597	-387.060653	-387.105569	36.599	
C	-0.5463772202	 1.3193779136	 0.0196471885	-0.417286
C	 0.0854229972	-0.0587799639	-0.0273129894	 0.124455
O	 1.1272646501	-0.0713062955	-0.9905252125	-0.266884
C	 1.8784314149	-1.2673468826	-0.8022385211	-0.087905
C	 1.6488911976	-1.7193219426	 0.6627800161	-0.281773
C	 0.7818334674	-0.5771894925	 1.2732215429	 0.093097
C	 1.6807359563	 0.5036820159	 1.9101459723	-0.43881
C	-0.1888917823	-1.0680144216	 2.2439187546	 0.287461
C	-1.0024886646	-1.4567672086	 3.0400518681	-0.457957
H	 0.2007826757	 2.0910262864	 0.2196446878	 0.125491
H	-1.0195686749	 1.5461145648	-0.939467684	 0.125819
H	-1.3126861854	 1.3540385887	 0.7995264031	 0.12792
H	-0.6868634314	-0.800033669	-0.296314333	 0.067148
H	 1.5440061454	-2.0420866221	-1.5067924195	 0.097057
H	 2.9254034337	-1.0396545397	-1.0238343733	 0.108438
H	 1.1041914374	-2.6648854983	 0.6992974731	 0.116223
H	 2.5816232573	-1.8525535228	 1.2154266193	 0.111191
H	 2.3582277333	 0.9197918604	 1.1592277982	 0.12858
H	 1.0872804567	 1.317226443	 2.3339981373	 0.125971
H	 2.2768129518	 0.0685136703	 2.7168232815	 0.12075
H	-1.716653266	-1.8046730938	 3.7446460098	 0.191015
56.2962	127.5442	149.3955	185.9937	225.1405	247.1485	284.7312	321.6606	355.9043	479.3335	518.6555	536.301	565.552	625.774	631.2844	688.5839	733.6324	810.9023	881.0302	906.2281	939.9681	981.1828	988.9333	1050.8813	1054.6212	1124.3604	1133.9563	1171.7822	1189.5639	1208.1602	1249.4653	1264.5366	1307.6579	1357.1214	1382.4205	1394.2216	1406.7354	1416.8965	1483.2258	1492.1255	1492.8908	1501.7368	1510.5799	1528.6188	2230.8622	2950.2164	3000.0049	3045.3307	3050.2061	3071.3095	3074.3443	3118.2042	3121.0663	3121.8654	3126.3033	3131.7454	3501.824
CC1OCCC1(C)C#C	C[C@H]1OCC[C@]1(C)C#C	
InChI=1S/C8H12O/c1-4-8(3)5-6-9-7(8)2/h1,7H,5-6H2,2-3H3	InChI=1S/C8H12O/c1-4-8(3)5-6-9-7(8)2/h1,7H,5-6H2,2-3H3/t7-,8+/m1/s1
