17
gdb 77111	3.15083	1.16506	0.96429	2.9849	74.68	-0.2371	0.0083	0.2453	1218.9839	0.135647	-417.971907	-417.9633	-417.962355	-418.005635	32.081	
O	 0.1674732099	 1.0382332018	-0.3924471925	-0.417304
C	-0.0229031142	-0.3111175262	-0.0894255195	 0.002581
C	-0.0362466074	-0.7409801501	 1.4265866609	-0.108887
N	-1.3749017709	-1.3956535324	 1.2382177503	-0.386872
C	-1.4725048254	-0.782007716	-0.1034846292	 0.354108
C	-2.6455216579	 0.0405209021	-0.534886139	-0.291813
C	-2.315951478	-1.2635951887	-1.2361365606	-0.347417
C	 1.0432522557	-1.6022712779	 1.8777293743	 0.245918
N	 1.9061302759	-2.3025437563	 2.1988904237	-0.32085
H	 1.1009391033	 1.1935047128	-0.5667260316	 0.297991
H	 0.6394736474	-0.9636061563	-0.6727775149	 0.095907
H	-0.1228082266	 0.1313668644	 2.0820828584	 0.136331
H	-1.2605472041	-2.4042224354	 1.1692554286	 0.236732
H	-3.5038181447	 0.0544771955	 0.1274911885	 0.125826
H	-2.437924486	 0.9705396537	-1.0517095516	 0.133441
H	-1.9002492	-1.2271696648	-2.2382982662	 0.121713
H	-2.964412857	-2.1139662363	-1.0504863199	 0.122596
41.7348	140.6758	194.0748	211.2695	245.7167	283.4718	368.0556	376.1701	472.1788	504.1007	565.1278	624.9808	755.265	774.4602	797.5909	878.1847	918.0508	925.6954	978.7977	992.0377	1051.2383	1055.2139	1076.5459	1089.8596	1138.9718	1188.8543	1198.6978	1218.1099	1257.1238	1271.8601	1308.9948	1376.0528	1394.1322	1451.8456	1454.1478	1501.6319	2348.5301	3019.4993	3063.314	3124.8828	3140.2271	3207.9981	3234.9802	3494.7168	3827.2676
OC1C(NC11CC1)C#N	O[C@H]1[C@@H](NC21CC2)C#N	
InChI=1S/C6H8N2O/c7-3-4-5(9)6(8-4)1-2-6/h4-5,8-9H,1-2H2	InChI=1S/C6H8N2O/c7-3-4-5(9)6(8-4)1-2-6/h4-5,8-9H,1-2H2/t4-,5-/m0/s1
