17
gdb 40308	6.60089	0.59212	0.5715	1.2604	80.16	-0.2534	0.0141	0.2675	1890.4397	0.135105	-421.741377	-421.732559	-421.731615	-421.777595	30.389	
C	 0.506755629	 1.4504510873	-0.1043112453	-0.159459
O	 1.0719264774	 0.2143342649	-0.5175758301	-0.213651
C	-0.2856452989	 0.2053956122	-0.042321648	-0.116186
C	-0.5512978572	-0.4628226796	 1.2021292982	 0.081204
C	-0.7925077607	-1.0387235723	 2.2335191533	 0.116983
C	-1.0913042622	-1.7246764519	 3.4704288011	-0.219912
C	-2.1297345882	-1.1017823086	 4.4481766073	-0.073555
O	-2.8548914637	-2.3414877438	 4.5285173764	-0.266707
C	-2.0921489801	-2.9155977335	 3.4517138522	-0.073186
H	 0.9058565991	 1.8652040264	 0.8192873626	 0.124401
H	 0.3029703692	 2.1684443726	-0.8978533957	 0.120478
H	-1.021192317	 0.0393952205	-0.8288592941	 0.118171
H	-0.1659700121	-1.9901546344	 3.9892779968	 0.117624
H	-1.7489195246	-0.7779970893	 5.4224765503	 0.112079
H	-2.7275886507	-0.2979815982	 4.000794476	 0.108947
H	-2.6720773029	-2.9877880238	 2.5233172455	 0.109765
H	-1.6849856868	-3.8990089284	 3.7084493833	 0.113005
15.2242	69.1991	89.2092	121.4275	199.5966	217.4197	439.0217	467.9207	514.3253	544.95	644.3787	795.5718	836.9449	876.8792	890.9809	934.8702	990.2607	1000.1845	1040.9654	1043.6417	1088.5303	1107.1767	1153.5781	1158.8295	1161.4733	1171.3973	1201.124	1236.5789	1282.1812	1304.8238	1345.1382	1379.2318	1410.6452	1511.0171	1519.4379	1536.3964	2359.8335	3016.5309	3026.8139	3061.5195	3075.8082	3084.9711	3085.3552	3113.7927	3179.166
C1OC1C#CC1COC1	C1O[C@H]1C#CC1COC1	
InChI=1S/C7H8O2/c1(2-7-5-9-7)6-3-8-4-6/h6-7H,3-5H2	InChI=1S/C7H8O2/c1(2-7-5-9-7)6-3-8-4-6/h6-7H,3-5H2/t7-/m0/s1
