18
gdb 92967	2.70223	1.47412	1.03509	1.6505	74.87	-0.2347	-0.0063	0.2284	1149.8059	0.149301	-435.326114	-435.317383	-435.316439	-435.359809	32.302	
C	 0.0089108194	 1.5798809779	-0.0248421883	-0.401621
C	 0.0069852072	 0.0530494737	 0.0425482458	 0.024136
C	 0.7983647438	-0.6241555384	-1.1163959694	-0.189433
N	 2.0376684626	-1.1744535743	-0.5331159417	-0.262381
C	 1.925084685	-1.0574410071	 0.7280877015	 0.072301
N	 0.7651667236	-0.4553703268	 1.207674507	-0.131513
C	 0.3173941027	-0.3221421132	 2.5113042448	 0.450976
N	 1.1021662101	-0.9436399694	 3.4717342666	-0.56491
O	-0.672595683	 0.327252518	 2.7893981045	-0.389249
H	 1.0331642246	 1.9624991454	-0.0881242803	 0.120823
H	-0.5339165885	 1.9099672995	-0.9167360968	 0.116621
H	-0.4746471046	 2.0008761202	 0.8578714084	 0.154747
H	-1.0216310029	-0.3094888996	 0.1099342917	 0.105731
H	 0.2370952909	-1.4391490343	-1.5880631855	 0.117269
H	 1.0474301888	 0.0940068091	-1.9037307052	 0.118967
H	 2.6905819931	-1.3746561362	 1.428277515	 0.135296
H	 1.5463128897	-1.8184416526	 3.2382954232	 0.256309
H	 0.6545889579	-0.9410023518	 4.3763166989	 0.265933
85.0853	91.9074	112.3067	212.1352	256.3398	319.3048	398.5691	405.0862	437.8673	514.5785	550.4268	571.0838	663.0431	751.0361	773.0296	850.4884	882.3838	929.1462	960.5365	965.2704	1049.7811	1079.4337	1112.5836	1135.341	1173.0397	1230.8916	1241.039	1315.8078	1326.1347	1363.0273	1391.8196	1404.95	1433.6293	1485.6071	1495.3425	1508.5058	1625.4225	1695.6844	1789.4499	3035.7312	3039.3293	3073.0098	3082.8288	3107.4925	3146.9602	3196.9191	3577.5757	3688.7015
CC1CN=CN1C(N)=O	C[C@H]1C[N][CH]N1C(=O)N	
InChI=1S/C5H9N3O/c1-4-2-7-3-8(4)5(6)9/h3-4H,2H2,1H3,(H2,6,9)	InChI=1S/C5H9N3O/c1-4-2-7-3-8(4)5(6)9/h3-4H,2H2,1H3,(H2,6,9)/t4-/m0/s1
