18
gdb 121774	2.76803	0.79164	0.64077	4.323	78.16	-0.2752	-0.0197	0.2555	1722.8636	0.146647	-398.136499	-398.126323	-398.125379	-398.172834	34.84	
C	 0.5735698701	 1.2753884479	 0.5802718604	-0.383558
C	-0.1042043889	 0.1713094522	-0.2350553853	-0.189783
C	 0.8771985603	-0.5675761664	-1.1430238839	-0.127032
N	 0.1760337274	-1.5874721541	-1.9313196482	-0.282833
C	 1.033928939	-2.3454098783	-2.8268937181	-0.245823
C	 2.0857707833	-3.1464386116	-2.1419146286	 0.289851
N	 2.8895050647	-3.7183763725	-1.5406964769	-0.309969
C	 0.2224165304	-3.2224998123	-3.6896709971	 0.305155
N	-0.421650044	-3.9026463963	-4.3634080248	-0.295866
H	 1.3661350821	 0.8706856031	 1.2185538815	 0.124308
H	 1.0246238994	 2.0307117469	-0.0722385766	 0.121259
H	-0.1481698737	 1.7826614078	 1.2263227098	 0.123726
H	-0.5750279229	-0.5509373015	 0.4454907013	 0.102885
H	-0.9085183113	 0.588467418	-0.8509346864	 0.118039
H	 1.3332224274	 0.1388181189	-1.8494374132	 0.112447
H	 1.6978123097	-0.9920479506	-0.5407101597	 0.114031
H	-0.3286451039	-2.2243188247	-1.3217444287	 0.242753
H	 1.5525839209	-1.6305138064	-3.4803576556	 0.180409
54.7034	70.9729	99.5299	128.6876	146.6456	218.2652	227.2036	245.0608	358.748	377.9013	392.8296	525.4468	579.5528	631.8579	754.1158	762.6813	872.1852	901.3744	922.9154	1010.5602	1032.3554	1064.9032	1131.9411	1146.1742	1190.4396	1261.7045	1298.3799	1309.4623	1330.7234	1346.8036	1412.9326	1419.9205	1490.8146	1496.2885	1501.1602	1505.2044	1521.9675	2352.8153	2377.6673	2967.7672	3018.8303	3030.0178	3034.9226	3038.0281	3070.7485	3103.8062	3113.7608	3519.9792
CCCNC(C#N)C#N	CCCNC(C#N)C#N	
InChI=1S/C6H9N3/c1-2-3-9-6(4-7)5-8/h6,9H,2-3H2,1H3	InChI=1S/C6H9N3/c1-2-3-9-6(4-7)5-8/h6,9H,2-3H2,1H3
