19
gdb 52939	4.61382	0.92056	0.87378	0.2754	90.73	-0.224	0.0138	0.2379	1410.9484	0.159473	-348.700479	-348.692055	-348.691111	-348.735711	31.987	
C	-0.0147283777	 1.4892996159	 0.0127111259	-0.514904
C	-0.0018600016	 0.0338688837	 0.0030979855	 0.390055
C	 0.0090748283	-1.171240291	-0.0052638474	-0.443205
C	 0.0110740759	-2.6116529357	-0.0034784596	 0.271717
C	 0.2518324771	-3.4702015081	 1.3017163225	-0.238885
C	-0.364219648	-4.5924185632	 0.4017603559	-0.111057
C	-1.3044137057	-3.4741696478	-0.1589246852	-0.238885
C	 0.6859224542	-4.6562473508	-0.7169463161	-0.09273
C	 0.9335055731	-3.3734509559	-0.9842195404	-0.128075
H	 0.6875213111	 1.9000202491	-0.7214353023	 0.146716
H	-1.0097281704	 1.8808447321	-0.2273384857	 0.146864
H	 0.2667206803	 1.8841103606	 0.9954957606	 0.146852
H	 1.2872341428	-3.5900497985	 1.6270476364	 0.09747
H	-0.3925850274	-3.1650260248	 2.1314375928	 0.098985
H	-0.7497078969	-5.5229771245	 0.8150080534	 0.064596
H	-2.0924943356	-3.1693557032	 0.5359568512	 0.098986
H	-1.6943194521	-3.5976554275	-1.1713405652	 0.097469
H	 1.102369812	-5.5504101884	-1.1582290463	 0.10164
H	 1.5998857406	-2.9082317819	-1.6954921057	 0.106389
8.4648	94.8221	99.8647	292.4358	292.8866	433.0842	441.5742	493.1396	505.2299	549.6762	553.0728	701.0927	724.5134	838.3303	843.0567	878.822	899.8628	908.5109	931.3699	980.1406	989.8372	1008.7037	1054.5137	1054.6517	1064.6823	1069.0605	1108.8051	1154.5516	1164.0726	1220.6821	1224.5371	1259.0083	1302.8494	1343.0969	1414.9235	1476.8586	1478.253	1478.5163	1513.0608	1627.8159	2366.9959	3023.6212	3048.4904	3058.5663	3083.3244	3083.7369	3123.3295	3128.5691	3129.9481	3223.2344	3252.1166
CC#CC12CC(C1)C=C2	CC#C[C@@]12C[C@@H](C1)C=C2	
InChI=1S/C9H10/c1-2-4-9-5-3-8(6-9)7-9/h3,5,8H,6-7H2,1H3	InChI=1S/C9H10/c1-2-4-9-5-3-8(6-9)7-9/h3,5,8H,6-7H2,1H3/t8-,9+
