12
gdb 14571	19.99697	0.60998	0.59627	1.0213	73.54	-0.3029	-0.0579	0.2449	1671.5673	0.083599	-340.388515	-340.38046	-340.379516	-340.421882	26.834	
N	 0.0100732727	-1.1757049442	-0.0042964384	-0.288374
C	-0.0188620096	-0.0209804183	 0.0021021913	 0.260214
C	-0.026676134	 1.4393198943	 0.009912923	-0.330626
C	 1.415200014	 2.0146718074	-0.0004972542	-0.371534
C	 1.4170394173	 3.4668660626	 0.0072058352	 0.051618
C	 1.395505389	 4.6742050501	 0.0138833118	 0.093182
C	 1.3777815717	 6.0397707778	 0.0213680642	 0.213358
N	 1.3609771934	 7.2010221651	 0.0278652923	-0.327815
H	-0.5786255365	 1.8004836523	-0.8632915069	 0.175412
H	-0.5621996877	 1.7911462757	 0.8970495935	 0.175412
H	 1.9642160132	 1.6402458718	 0.8709609681	 0.174579
H	 1.9477977064	 1.6495990956	-0.8859989199	 0.174576
54.162	67.9273	158.5427	171.2968	232.8341	357.6817	401.8039	457.0874	515.8318	576.3789	582.7789	738.453	767.247	954.0295	1003.7347	1030.1084	1175.8778	1200.6551	1290.0522	1308.0232	1372.72	1464.1513	1474.1541	2270.4635	2367.9578	2406.4661	3043.5335	3064.5353	3078.5925	3108.8376
N#CCCC#CC#N	N#CCCC#CC#N	
InChI=1S/C6H4N2/c7-5-3-1-2-4-6-8/h1,3H2	InChI=1S/C6H4N2/c7-5-3-1-2-4-6-8/h1,3H2
