18
gdb 17259	3.08532	2.14847	1.78103	1.7315	72.34	-0.2521	0.0981	0.3501	837.1108	0.153721	-347.734948	-347.727796	-347.726852	-347.765843	28.394	
C	-0.0218009062	 1.4847468353	 0.0239007986	-0.518209
C	 0.0063939337	-0.0184096351	 0.0235386994	 0.226444
C	 0.5703656199	-0.9761051193	-1.0864641814	-0.263085
C	 0.0173804904	-1.936178065	 0.013846877	-0.151318
C	 0.6757008731	-0.9842551378	 1.0586873783	-0.258796
C	-1.1863348502	-0.9912889004	 0.0809033262	 0.527403
C	-2.5005226908	-0.9980938933	 0.7022595384	-0.321089
O	-2.3265101661	-0.9847958034	-0.7405478568	-0.307531
H	 0.9863044777	 1.9006356923	-0.0748160484	 0.121385
H	-0.6257420061	 1.8590488162	-0.8094615743	 0.131142
H	-0.4540860164	 1.8707417588	 0.9537569536	 0.118698
H	 0.0491495855	-0.9742042703	-2.0459282447	 0.109806
H	 1.6567969323	-0.9687202722	-1.2115646627	 0.088001
H	 0.0203252894	-3.0251049241	 0.0111170291	 0.07919
H	 1.7684660202	-0.9792122745	 1.0668093774	 0.093617
H	 0.263671298	-0.9904044191	 2.0715969528	 0.091109
H	-2.9158254427	-1.9212760201	 1.1041753605	 0.117441
H	-2.9203729017	-0.0838251881	 1.1198178167	 0.115791
176.1154	190.6719	216.6155	247.7187	338.2266	418.9558	475.2065	617.6662	623.3651	642.3979	753.3297	791.5944	876.7061	898.0675	902.7934	943.4675	974.1495	1013.1174	1014.8046	1055.6598	1070.6548	1086.1523	1110.23	1117.5931	1164.5937	1177.9563	1185.8361	1219.1464	1220.1288	1230.944	1337.1784	1410.7111	1452.6025	1488.6507	1491.6707	1492.5858	1523.5538	1568.0863	3028.9067	3051.3137	3055.8056	3081.9648	3095.0481	3101.187	3118.9681	3127.9083	3129.3796	3166.2268
CC12CC(C1)C21CO1	C[C@@]12C[C@@H](C1)[C@]12CO1	
InChI=1S/C7H10O/c1-6-2-5(3-6)7(6)4-8-7/h5H,2-4H2,1H3	InChI=1S/C7H10O/c1-6-2-5(3-6)7(6)4-8-7/h5H,2-4H2,1H3/t5-,6+,7-/m0/s1
