14
gdb 125338	5.52843	1.31374	1.06858	7.6512	69.93	-0.2366	-0.0105	0.2262	1054.1725	0.103305	-429.042577	-429.035579	-429.034635	-429.073931	26.321	
C	-0.0166427128	 1.4859089112	 0.0564818437	-0.501054
C	-0.00144076	 0.0002538817	-0.0471693659	 0.329008
C	-0.048485487	-0.803898781	-1.1476658436	-0.215709
N	-0.0039081208	-2.1097960502	-0.6696068156	 0.047756
N	-0.0082265616	-3.4017928319	-1.0941451777	-0.175804
N	 0.0606732136	-4.1082041346	-0.0018714093	-0.103926
N	 0.1104677328	-3.3549419582	 1.1329093369	-0.362645
C	 0.0683089286	-2.1159121092	 0.678636854	 0.540329
N	 0.0710929531	-0.8152962689	 1.0880105396	-0.456313
H	 0.893702343	 1.8656556434	 0.5343632589	 0.147061
H	-0.0839037308	 1.9287757496	-0.9389595174	 0.15363
H	-0.8727591402	 1.8398591514	 0.6421592067	 0.146817
H	-0.1081278904	-0.5614369502	-2.1931812082	 0.164739
H	 0.1180076623	-0.5024939931	 2.0414247377	 0.286111
139.0374	147.4444	274.7735	303.3528	328.2634	384.9693	487.5728	565.1464	626.6723	691.4342	724.1557	772.0731	814.0294	846.6342	985.5338	1004.959	1023.8314	1065.5268	1099.9902	1121.0896	1204.1724	1267.2699	1299.0816	1372.5895	1392.4404	1424.9982	1470.8081	1476.5316	1499.1564	1634.0532	1645.2608	3032.2455	3083.9271	3136.2712	3305.7612	3694.5196
CC1=CN2N=NN=C2N1	Cc1cn2nnnc2[nH]1	
InChI=1S/C4H5N5/c1-3-2-9-4(5-3)6-7-8-9/h2H,1H3,(H,5,6,8)	InChI=1S/C4H5N5/c1-3-2-9-4(5-3)6-7-8-9/h2H,1H3,(H,5,6,8)
