18
gdb 121719	2.95573	0.73181	0.63967	3.8784	71.67	-0.2447	-0.024	0.2207	1730.4897	0.145202	-476.257013	-476.246682	-476.245738	-476.294957	34.936	
O	 0.2315707768	 0.9624074545	-0.8209667486	-0.424699
C	-0.1234656924	-0.3278352212	-0.3352999298	-0.081172
C	-1.4974230149	-0.1941615222	 0.3043968633	-0.147294
N	-2.4604055997	 0.3096167927	-0.6574157538	-0.315041
C	-3.6596059899	-0.2846335283	-0.8865165822	 0.402495
O	-4.0531316857	-1.2746114583	-0.2920977968	-0.381186
C	-4.510373314	 0.3675298288	-1.975942959	-0.390198
C	-4.9441544583	-0.6659808581	-3.0042058952	 0.165841
O	-4.9525530282	-0.4669743949	-4.190540795	-0.240519
H	 1.0331289134	 0.8845213925	-1.3458593753	 0.295598
H	-0.1657208965	-1.0624554147	-1.1526074648	 0.103105
H	 0.5962268538	-0.6882738071	 0.4147541114	 0.098776
H	-1.8617852104	-1.1603584181	 0.6584634481	 0.149035
H	-1.4276728014	 0.4847271429	 1.1640926574	 0.119498
H	-2.1685920113	 1.098238888	-1.2121121822	 0.258322
H	-5.4225973771	 0.7293475338	-1.4829458272	 0.157228
H	-4.0323133558	 1.2080552853	-2.4841900547	 0.118793
H	-5.2602214185	-1.6317357055	-2.5605377255	 0.11142
20.0025	43.3632	88.807	107.9539	118.3415	209.5652	267.7712	275.7885	319.4854	403.2337	465.3808	506.4437	541.9814	626.1029	731.1067	794.3867	851.4996	910.9933	974.7389	1026.7033	1055.745	1087.9078	1104.4102	1122.7181	1170.5798	1217.9291	1238.2282	1261.0722	1298.9395	1322.4041	1393.4696	1402.1271	1442.3513	1452.3817	1486.397	1514.3522	1539.6628	1766.9874	1835.3441	2938.1554	2986.8665	3016.6685	3034.5462	3036.8044	3112.9531	3128.5893	3646.8985	3838.0083
OCCNC(=O)CC=O	OCCNC(=O)CC=O	
InChI=1S/C5H9NO3/c7-3-1-5(9)6-2-4-8/h3,8H,1-2,4H2,(H,6,9)	InChI=1S/C5H9NO3/c7-3-1-5(9)6-2-4-8/h3,8H,1-2,4H2,(H,6,9)
