19
gdb 33503	2.7151	1.13786	0.94608	4.6281	80.38	-0.2268	0.0299	0.2567	1304.8967	0.158778	-382.037422	-382.028364	-382.02742	-382.07213	33.901	
N	 0.5123021139	-1.1893152463	 0.2994228998	-0.35178
C	 0.2691565503	-0.0722871039	 0.1235473364	 0.280264
C	-0.0550137917	 1.3274276385	-0.070583045	 0.199332
C	 0.0452859645	 2.2122727173	 1.1757843901	-0.287303
C	 1.0795874091	 2.3145801081	 0.0905987722	-0.315147
N	-1.0275809732	 1.5417766917	-1.107873102	-0.3577
C	-2.3874858452	 1.1857615865	-0.7926803642	 0.058384
C	-3.3482820428	 2.1061431015	-0.0664570529	-0.272704
C	-3.5092372594	 1.8256519912	-1.5474972493	-0.294125
H	-0.6937324539	 2.9999511381	 1.256299013	 0.12819
H	 0.3250080652	 1.748217603	 2.1143569047	 0.139545
H	 2.0708326452	 1.9184620666	 0.2744640582	 0.145642
H	 1.0591450913	 3.1788326745	-0.5656820932	 0.126208
H	-0.953126973	 2.4732479141	-1.4954148074	 0.224623
H	-2.485558267	 0.1244264627	-0.5822719547	 0.118641
H	-4.0625400429	 1.6750995014	 0.6268151458	 0.11842
H	-2.9968956259	 3.0942477882	 0.2118126976	 0.103672
H	-3.2596208793	 2.6261278916	-2.2379114005	 0.111697
H	-4.3315065852	 1.2030947651	-1.8809474587	 0.124141
33.3083	83.0739	138.6165	188.3017	222.4077	311.6952	352.3467	369.9039	461.0987	550.4047	584.9115	614.0558	709.3183	762.3072	776.1872	812.8641	848.3231	876.5673	923.1801	935.6642	979.2722	986.7825	1021.6662	1050.9079	1059.9707	1076.4911	1089.8019	1134.606	1187.3894	1193.715	1195.2235	1248.9179	1281.6994	1318.005	1381.3219	1458.6539	1465.1451	1489.0864	1492.091	1514.51	2351.9818	3127.4312	3132.2764	3137.1266	3148.6237	3151.2168	3207.3395	3222.4185	3225.8015	3243.7931	3567.8952
N#CC1(CC1)NC1CC1	N#CC1(CC1)NC1CC1	
InChI=1S/C7H10N2/c8-5-7(3-4-7)9-6-1-2-6/h6,9H,1-4H2	InChI=1S/C7H10N2/c8-5-7(3-4-7)9-6-1-2-6/h6,9H,1-4H2
