20
gdb 6225	3.51315	1.56985	1.48827	0.863	71.11	-0.2461	0.0872	0.3333	990.4145	0.175184	-386.164393	-386.155537	-386.154593	-386.197731	33.039	
C	-0.0841663537	 1.5296731706	 0.0684505787	-0.410589
C	 0.0907918446	 0.0226351673	 0.0379238348	 0.126201
C	 0.7881055017	-0.5476875509	-1.1974412515	-0.105049
O	 1.3602914405	-1.7508272924	-0.7171136814	-0.294889
C	 1.6269828908	-1.5868922257	 0.68080418	 0.453795
C	 1.0336866011	-2.7860587949	 1.4168164771	-0.409459
C	 3.1254739336	-1.4244195217	 0.9229114888	-0.409889
O	 0.9794717199	-0.3786421865	 1.0778502318	-0.30687
H	 0.880041022	 2.0297335593	-0.0627664984	 0.12366
H	-0.7604642333	 1.8522881518	-0.7297569365	 0.117438
H	-0.5094524355	 1.8475222342	 1.024083196	 0.130458
H	-0.8856549672	-0.4719975898	 0.167551885	 0.070756
H	 0.1074519793	-0.7880346372	-2.0189776061	 0.108316
H	 1.5583294151	 0.1488794633	-1.5654465829	 0.088652
H	 1.477618375	-3.7147436151	 1.0477197668	 0.122549
H	 1.2246921495	-2.7055891062	 2.490342446	 0.119323
H	-0.045705086	-2.8287516673	 1.2516887868	 0.117059
H	 3.5079592154	-0.5844467217	 0.3379014987	 0.116483
H	 3.319662149	-1.2280637927	 1.9810001626	 0.121953
H	 3.6577112081	-2.3328335544	 0.6285635637	 0.120103
44.0223	147.1043	199.5969	217.9477	234.4441	274.6092	328.5333	341.8967	412.3456	465.8143	503.7535	598.7492	643.7209	797.4838	851.5938	884.6656	917.5423	930.9554	959.3351	995.7229	997.8927	1090.3985	1124.6184	1142.138	1160.5823	1192.994	1237.5694	1238.8031	1263.49	1346.4655	1368.3454	1397.4503	1404.0841	1410.2736	1417.0667	1471.022	1476.6916	1485.1697	1494.1655	1494.6715	1499.0348	1517.064	2964.0063	2980.8869	3041.712	3045.3283	3050.3641	3088.0803	3114.2853	3121.6283	3122.3685	3127.3404	3129.9991	3130.9029
CC1COC(C)(C)O1	C[C@H]1COC(C)(C)O1	
InChI=1S/C6H12O2/c1-5-4-7-6(2,3)8-5/h5H,4H2,1-3H3	InChI=1S/C6H12O2/c1-5-4-7-6(2,3)8-5/h5H,4H2,1-3H3/t5-/m0/s1
