19
gdb 91871	2.37634	1.66878	1.07565	4.4919	75.65	-0.2542	0.0092	0.2634	1138.954	0.160306	-423.065078	-423.056947	-423.056002	-423.097943	31.32	
C	-0.0458300289	 1.520269076	 0.0687254765	-0.399017
C	-0.0135639659	 0.008139015	-0.0762918856	 0.136681
C	 0.8360065125	-0.4833450772	-1.2453386941	-0.235962
C	 0.9470388383	-2.0043978021	-1.2309468138	-0.053865
C	 2.1339759124	-2.6444792389	-0.5758996811	-0.279584
C	 0.7801182015	-2.6757041034	 0.116683507	-0.157773
C	 0.6085079576	-1.8506341817	 1.3516068955	 0.410398
O	 0.6137360963	-2.3107145622	 2.4611945791	-0.334072
O	 0.4924388684	-0.5054621604	 1.1808280651	-0.248778
H	 0.9655683906	 1.9134168035	 0.2097972001	 0.128782
H	-0.4755712174	 1.9774532303	-0.8276826595	 0.118387
H	-0.6496646983	 1.8089484399	 0.9323778508	 0.135197
H	-1.0379183004	-0.3716790592	-0.1960247955	 0.089195
H	 0.3790396205	-0.1449861398	-2.1806416293	 0.11065
H	 1.8260862083	-0.0160957556	-1.1882089115	 0.110545
H	 0.5157424794	-2.5252364525	-2.0790804115	 0.09612
H	 2.5059767317	-3.5871753032	-0.9600027945	 0.124602
H	 2.8980313567	-1.99328032	-0.1638856605	 0.130261
H	 0.2948522065	-3.6417296384	 0.1812934427	 0.118233
70.6237	133.9575	209.106	223.8617	280.3871	381.0291	424.9967	440.6153	454.4735	539.4447	656.2885	746.7943	757.1198	819.4318	846.7284	893.1261	903.8628	944.2933	976.6996	1000.7123	1027.2283	1061.5152	1089.9093	1119.3031	1128.982	1157.5472	1158.4585	1210.0342	1245.5924	1262.7353	1316.2516	1366.1779	1383.5223	1394.7061	1399.8756	1413.3567	1476.2275	1483.3257	1494.1579	1498.7586	1842.2027	3006.7722	3037.555	3045.4257	3084.6852	3117.9805	3128.8289	3134.9405	3162.0719	3189.7925	3224.5987
CC1CC2CC2C(=O)O1	C[C@H]1C[C@H]2C[C@H]2C(=O)O1	
InChI=1S/C7H10O2/c1-4-2-5-3-6(5)7(8)9-4/h4-6H,2-3H2,1H3	InChI=1S/C7H10O2/c1-4-2-5-3-6(5)7(8)9-4/h4-6H,2-3H2,1H3/t4-,5-,6+/m0/s1
