21
gdb 114754	2.33369	1.40814	1.07609	2.8582	76.66	-0.2539	0.0688	0.3226	1191.1139	0.183857	-424.212479	-424.20365	-424.202705	-424.24585	34.359	
O	 0.3244955783	 1.1469747618	-0.5331768905	-0.42434
C	 0.0194720253	-0.2389964109	-0.5010312853	-0.08398
C	-1.3844504979	-0.5112728662	 0.0575573898	-0.055333
C	-2.54233907	-0.0643525397	-0.8790597043	-0.250275
C	-3.1681281577	-1.3353197564	-1.441416007	-0.023447
C	-2.2546426046	-2.3214194283	-2.1230775133	-0.309103
C	-2.6378583758	-2.517226993	-0.6709524927	-0.061135
C	-1.6621767418	-2.0235178799	 0.382923058	 0.107121
O	-0.4965172991	-2.8272876151	 0.5213558103	-0.430356
H	-0.2979806431	 1.5746282517	-1.1298470517	 0.280485
H	 0.1515637944	-0.6853556148	-1.4999773078	 0.077401
H	 0.7605272493	-0.6965674662	 0.157954281	 0.126732
H	-1.4286136842	 0.0627583677	 0.9881843686	 0.087823
H	-3.2990416954	 0.4899494056	-0.31421844	 0.106249
H	-2.1995199769	 0.6113729541	-1.6752825476	 0.081956
H	-4.2041077408	-1.2989234036	-1.7596369952	 0.084733
H	-2.7011731101	-3.0021532823	-2.8395334398	 0.115855
H	-1.2471577616	-2.0147176139	-2.3857700366	 0.109714
H	-3.2665622923	-3.3643616144	-0.4208685983	 0.088724
H	-2.1485258729	-2.0822682461	 1.3627731295	 0.089977
H	-0.2242486331	-3.0963917399	-0.362575877	 0.281201
88.7198	113.4343	195.4004	203.5083	287.6105	322.9508	330.9206	349.8283	402.4521	487.9243	518.5052	614.8801	741.2196	775.0588	791.6248	836.948	885.8322	892.2425	949.9391	971.6435	1003.1764	1049.2581	1057.7944	1069.6867	1082.6511	1086.8759	1101.4755	1115.0172	1136.8109	1195.1689	1212.1025	1242.4906	1258.3619	1272.9849	1321.5988	1327.2622	1346.9515	1361.4048	1394.6923	1397.5634	1419.2978	1435.416	1489.9382	1496.3822	1512.8957	2971.1556	3005.8962	3039.9922	3055.5271	3070.7515	3108.106	3131.0805	3165.4816	3175.0767	3212.4134	3806.2128	3814.4724
OCC1CC2CC2C1O	OC[C@H]1C[C@H]2C[C@H]2[C@H]1O	
InChI=1S/C7H12O2/c8-3-5-1-4-2-6(4)7(5)9/h4-9H,1-3H2	InChI=1S/C7H12O2/c8-3-5-1-4-2-6(4)7(5)9/h4-9H,1-3H2/t4-,5+,6+,7-/m0/s1
