16
gdb 115089	2.95092	1.43737	1.02909	1.918	66.24	-0.2636	-0.0336	0.2301	1121.7923	0.124149	-475.048619	-475.04039	-475.039446	-475.08182	29.578	
C	 0.0134058158	 1.3604750533	-0.0815989599	-0.249504
O	-0.1209026507	-0.0437226834	 0.086144188	-0.228793
C	 0.6705230514	-0.6005309809	 1.0899354717	-0.047758
C	 0.0906910537	-1.9686902562	 1.4718700185	-0.192557
N	 0.9429425744	-2.6941831375	 2.4020713748	-0.240005
C	 2.1771206389	-2.461102345	 2.3549362494	 0.134171
O	 2.8531285783	-1.618903173	 1.491893631	-0.212117
C	 2.13192197	-0.7680674917	 0.6729222244	 0.415743
O	 2.6831551696	-0.223070593	-0.2332218957	-0.294212
H	 1.0166609753	 1.6301001657	-0.4250169098	 0.144608
H	-0.7206714335	 1.653834191	-0.8346778292	 0.134526
H	-0.2077483047	 1.891705837	 0.8564783601	 0.106614
H	 0.6828421793	 0.0346543897	 1.9952118089	 0.105618
H	-0.8968719868	-1.8299448564	 1.9179118653	 0.133733
H	-0.0527223064	-2.5694547427	 0.563972831	 0.142983
H	 2.8894311955	-2.9588338869	 3.0063699114	 0.146948
92.0805	116.1701	150.0141	184.58	249.5168	302.3339	407.3222	450.2461	477.8016	515.7242	581.6904	669.571	777.5486	878.1207	947.6696	977.8833	1026.807	1028.162	1086.6957	1103.0941	1122.0786	1175.7912	1180.3764	1211.2641	1242.0732	1328.6053	1332.1048	1391.0541	1405.724	1480.1185	1484.3783	1491.181	1514.1577	1749.8529	1884.3215	2938.0846	2993.861	3034.8056	3086.5714	3099.6454	3134.0713	3192.0024
COC1CN=COC1=O	CO[C@H]1CN=COC1=O	
InChI=1S/C5H7NO3/c1-8-4-2-6-3-9-5(4)7/h3-4H,2H2,1H3	InChI=1S/C5H7NO3/c1-8-4-2-6-3-9-5(4)7/h3-4H,2H2,1H3/t4-/m0/s1
