21
gdb 68448	2.75975	1.69728	1.27817	1.4594	83.19	-0.2344	0.0317	0.2661	1064.7824	0.183872	-387.0997	-387.091764	-387.09082	-387.131491	32.407	
C	-0.2732355159	 1.5475944375	 0.0084120673	-0.448987
C	 0.1132138104	 0.0795073239	-0.0168299184	 0.404633
C	 0.6242640713	-0.4994800201	-1.3587952778	-0.329287
C	-0.4573881241	-1.5721407093	-1.1271124981	 0.117326
C	 0.0430346223	-2.9022247366	-0.5851782174	-0.263312
C	 0.9921870076	-2.8220096411	 0.5818598519	-0.049578
C	 1.3685049026	-1.7633227381	 1.3024082675	-0.052136
C	 0.9715032972	-0.3141386326	 1.1858345634	-0.278411
O	-1.069120468	-0.7739632489	-0.0847334347	-0.332162
H	 0.6159376345	 2.1858482494	-0.036463494	 0.113798
H	-0.9166825134	 1.7853832393	-0.8427587964	 0.118015
H	-0.8200798247	 1.7865878847	 0.9266691941	 0.122402
H	 0.4114648754	 0.1512583172	-2.2091928857	 0.100041
H	 1.6618841363	-0.8345549892	-1.3982163749	 0.106957
H	-1.1568521099	-1.7399943728	-1.9540339344	 0.069961
H	-0.8267393514	-3.5079035994	-0.2905476077	 0.116982
H	 0.5215010456	-3.4585591388	-1.4053947417	 0.102257
H	 1.4086468749	-3.7852480397	 0.8730703982	 0.082423
H	 2.0615257048	-1.9517275053	 2.121349101	 0.082338
H	 1.8826879788	 0.3025094912	 1.1820936648	 0.102799
H	 0.4318869655	-0.0285020913	 2.1012449431	 0.11394
149.7989	194.4304	239.4385	248.9349	358.1281	377.9441	388.1082	397.0608	413.7269	580.7353	639.9901	680.9753	788.5863	829.4225	854.3566	859.3319	892.7591	906.5371	924.8399	958.9299	991.9955	1014.2578	1017.6102	1021.8267	1081.6834	1097.6317	1131.4405	1190.5401	1211.074	1250.4784	1253.042	1258.3094	1285.6931	1334.8781	1363.268	1383.1279	1398.4787	1405.4937	1434.5408	1451.5612	1454.2417	1481.9257	1487.3718	1496.3435	1732.9529	2994.8162	2995.3866	3021.3048	3022.9232	3033.4781	3037.4044	3074.6995	3102.8751	3116.2311	3120.3957	3132.0931	3145.1502
CC12CC(CC=CC1)O2	C[C@@]12C[C@@H](CC=CC1)O2	
InChI=1S/C8H12O/c1-8-5-3-2-4-7(6-8)9-8/h2-3,7H,4-6H2,1H3	InChI=1S/C8H12O/c1-8-5-3-2-4-7(6-8)9-8/h2-3,7H,4-6H2,1H3/t7-,8+/m1/s1
