20
gdb 114751	2.62949	1.49974	1.20667	1.6793	74.14	-0.2274	0.066	0.2934	1104.1285	0.171832	-440.247469	-440.238916	-440.237972	-440.280508	32.865	
C	-0.2608018237	 0.6315156095	 0.5027748134	-0.252145
O	 0.7269457122	-0.3155141403	 0.1304642419	-0.253759
C	 0.8855640308	-0.4675841729	-1.278047528	 0.030463
C	 2.3493077122	-0.7888454669	-1.6290651965	-0.178724
N	 2.512317845	-2.2533492085	-1.7544975967	-0.10375
C	 2.006434648	-2.9867679065	-0.5839840064	-0.263302
C	 1.1548033607	-2.8277756851	-1.7937945543	-0.052316
C	 0.1021077806	-1.7256699216	-1.7796557074	 0.11646
O	-1.0531028026	-2.0094920151	-1.0200092121	-0.430226
H	-0.0069392732	 1.6348288058	 0.1303024926	 0.111621
H	-1.252862553	 0.3537473838	 0.1270246619	 0.128244
H	-0.2819061347	 0.6574650953	 1.5952668354	 0.127658
H	 0.5432219302	 0.4450112231	-1.779593712	 0.075838
H	 2.6037751293	-0.3486883413	-2.5993644341	 0.109134
H	 3.0340615402	-0.38353719	-0.8791277926	 0.118972
H	 2.4965233633	-3.9393143263	-0.405028865	 0.11535
H	 1.7568176632	-2.4218741486	 0.3093462676	 0.132324
H	 0.999733254	-3.6713077343	-2.4600486582	 0.090727
H	-0.2525022707	-1.5536507078	-2.8014634864	 0.092695
H	-0.7596368319	-2.0511251821	-0.1013895231	 0.284733
103.1176	109.4827	188.0683	211.6537	271.398	324.336	366.6904	378.3029	438.0736	483.9878	561.1915	668.3714	735.5371	779.0643	815.3057	869.0773	879.8808	969.4143	988.8118	1008.1106	1040.4146	1096.43	1102.9199	1120.7208	1123.415	1139.9418	1172.1362	1181.8605	1220.5196	1237.0503	1246.02	1274.1447	1286.5209	1329.5211	1339.841	1387.4187	1399.3996	1439.3189	1478.4534	1480.3223	1488.1478	1505.4451	1517.2224	2993.17	3030.4076	3047.204	3060.4369	3062.3315	3101.5412	3114.9769	3117.0862	3151.2547	3204.4108	3785.4827
COC1CN2CC2C1O	CO[C@H]1CN2C[C@H]2[C@H]1O	
InChI=1S/C6H11NO2/c1-9-5-3-7-2-4(7)6(5)8/h4-6,8H,2-3H2,1H3	InChI=1S/C6H11NO2/c1-9-5-3-7-2-4(7)6(5)8/h4-6,8H,2-3H2,1H3/t4-,5-,6+,7?/m0/s1
