19
gdb 98167	2.70795	1.18383	1.00933	2.1543	77.95	-0.2634	0.0122	0.2756	1270.3933	0.154948	-423.027723	-423.016979	-423.016035	-423.063866	38.077	
C	-0.0673575834	 1.3487966497	 0.1030773365	-0.240746
O	 0.0170920648	-0.076662161	-0.0211582713	-0.245345
C	 0.647986254	-0.5214262983	-1.1287850693	 0.487118
O	 1.113132867	 0.2066110488	-1.9640016938	-0.358972
C	 0.6732507575	-2.0622469979	-1.1462914739	-0.121737
C	 1.4268934364	-2.5717152684	 0.1097250827	-0.41146
C	-0.7836217673	-2.5938290693	-1.1401313957	-0.411461
C	 1.3602495908	-2.524908758	-2.353139176	 0.367601
C	 1.9120804793	-2.9727332539	-3.3211921262	-0.466082
H	 0.931034967	 1.7920705693	 0.133922984	 0.143097
H	-0.6145448835	 1.7767212247	-0.7405417831	 0.143105
H	-0.5976885153	 1.5341008591	 1.037173975	 0.13343
H	 0.9195654946	-2.2358651021	 1.016357802	 0.131601
H	 1.4557432437	-3.6642324073	 0.0995224789	 0.128682
H	 2.456153313	-2.2037707407	 0.1223908011	 0.133069
H	-1.3305324779	-2.2416380056	-2.0186360321	 0.133064
H	-0.773184731	-3.686530205	-1.160769414	 0.12868
H	-1.3040623988	-2.258130055	-0.2409064835	 0.131603
H	 2.4051928291	-3.3404076993	-4.1867804012	 0.194755
29.3916	117.8274	132.2427	133.6749	182.479	226.8541	230.1241	264.56	283.1316	316.9429	348.8066	435.9769	450.7659	541.4622	625.2415	636.252	650.6944	770.3329	787.2528	875.8087	949.8022	964.5535	1016.5529	1038.9479	1142.9253	1165.8537	1179.6288	1212.7431	1227.9659	1292.6694	1391.3206	1416.8494	1471.7663	1481.4934	1481.9606	1486.1022	1496.1519	1499.3962	1511.1096	1827.716	2243.269	3049.3893	3051.7875	3053.0268	3124.5243	3126.495	3128.4741	3137.9076	3141.566	3159.7362	3502.744
COC(=O)C(C)(C)C#C	COC(=O)C(C)(C)C#C	
InChI=1S/C7H10O2/c1-5-7(2,3)6(8)9-4/h1H,2-4H3	InChI=1S/C7H10O2/c1-5-7(2,3)6(8)9-4/h1H,2-4H3
