20
gdb 112189	2.52421	1.24299	0.92425	4.3058	80.72	-0.2328	-0.0256	0.2072	1312.9936	0.169814	-403.132079	-403.122888	-403.121944	-403.166423	34.111	
C	-0.123944242	 1.6424319388	 0.0819938225	-0.383727
C	-0.1348176109	 0.1417564951	 0.3907516657	-0.194485
C	-1.4142744385	-0.5544796782	-0.0625980216	-0.077944
C	-1.6390034773	-0.7276195343	-1.6034860426	-0.378113
C	-1.889862349	-2.232263653	-1.3664150017	 0.366443
O	-2.2447413868	-3.1418847896	-2.0578387376	-0.299706
C	-1.5071703301	-2.091034054	 0.0909860915	 0.217434
C	-0.6159273089	-3.0037866411	 0.8651250774	-0.28864
N	-2.0400068984	-2.9004656631	 1.1889401009	-0.351989
H	 0.8056445659	 2.109352425	 0.4210068313	 0.117167
H	-0.2170727375	 1.8274182239	-0.9933465855	 0.122935
H	-0.9556298023	 2.1542296742	 0.5785551519	 0.117381
H	 0.7258822234	-0.3434121258	-0.0875037762	 0.099595
H	-0.0066007885	-0.005457144	 1.4718042611	 0.094507
H	-2.2839422747	-0.0707889416	 0.3986800718	 0.080642
H	-2.4740385879	-0.1837226418	-2.0509555073	 0.132319
H	-0.7419463519	-0.5474382686	-2.205707601	 0.130051
H	-0.3169313474	-3.9478322973	 0.4184259267	 0.138808
H	 0.1167493611	-2.5481305995	 1.5264282306	 0.120847
H	-2.1709023584	-2.3072885351	 2.0066682721	 0.236475
58.7668	102.9658	145.3351	196.6446	217.5051	225.8187	293.9618	342.4774	426.2328	500.1285	550.1293	615.542	704.1353	776.6926	785.6816	813.5122	905.0604	930.5831	948.59	970.1333	980.172	1003.8966	1057.6195	1062.7556	1069.7124	1125.1799	1138.1306	1170.7969	1199.0788	1248.7373	1260.1326	1284.6938	1289.407	1340.4783	1382.2892	1388.9958	1413.0488	1439.2367	1487.2926	1498.841	1502.7591	1506.7479	1892.1528	3011.04	3027.1829	3033.3191	3050.4616	3054.3896	3100.396	3106.9607	3107.9154	3116.3246	3198.6896	3481.0586
CCC1CC(=O)C11CN1	CC[C@H]1CC(=O)[C@]21CN2	
InChI=1S/C7H11NO/c1-2-5-3-6(9)7(5)4-8-7/h5,8H,2-4H2,1H3	InChI=1S/C7H11NO/c1-2-5-3-6(9)7(5)4-8-7/h5,8H,2-4H2,1H3/t5-,7+/m0/s1
