16
gdb 79553	2.67972	1.66942	1.22283	1.6915	75.13	-0.2339	0.01	0.2439	1019.8264	0.1222	-400.624374	-400.61645	-400.615505	-400.656596	30.678	
C	-0.1915935164	 1.4494371616	-0.1539791953	-0.321407
N	 0.0980973562	 0.0287155284	 0.0059111172	-0.075348
C	 1.4206144702	-0.535046751	-0.1659499506	-0.092141
C	 2.5288829176	 0.3314026448	 0.4180921657	-0.080916
O	 3.0973233482	-0.3517690724	 1.5381908738	-0.278838
C	 1.8492447138	 0.3500289068	 1.7417083459	 0.28108
C	 1.7799436256	 1.3562364254	 2.7443450975	 0.237611
C	 1.6740142286	 2.1930135995	 3.6014270886	-0.419951
C	 0.7244191848	-0.5280387839	 1.1839739988	-0.175846
H	 0.5649344815	 2.1261952706	 0.2621541126	 0.121524
H	-0.300396745	 1.6598399685	-1.2222316346	 0.126627
H	-1.1476344499	 1.6632234578	 0.3329376305	 0.130994
H	 1.5573579699	-1.3677855972	-0.845714705	 0.113712
H	 3.1296008975	 1.1061203421	-0.0429616178	 0.12241
H	 1.5918637924	 2.9337555502	 4.3581590549	 0.197512
H	 0.245475455	-1.3453817613	 1.7098670779	 0.112975
111.4301	151.9279	187.0802	232.2171	275.8934	414.6449	454.3011	507.0686	561.7185	581.7558	618.1693	651.3991	667.0052	751.8846	790.8155	865.8976	888.0052	918.2583	936.4203	968.4682	1016.4249	1043.8394	1077.9739	1149.0285	1157.0012	1180.2666	1235.7269	1246.3441	1278.9192	1351.8446	1389.0135	1451.3929	1490.7024	1501.647	2242.0368	3019.8951	3087.9435	3111.6553	3182.2147	3192.0001	3199.0483	3500.3801
CN1C2C3OC3(C#C)C12	CN1[C@H]2[C@@H]3O[C@]3(C#C)[C@@H]12	
InChI=1S/C7H7NO/c1-3-7-5-4(8(5)2)6(7)9-7/h1,4-6H,2H3	InChI=1S/C7H7NO/c1-3-7-5-4(8(5)2)6(7)9-7/h1,4-6H,2H3/t4-,5+,6+,7-,8?/m1/s1
