15
gdb 131301	4.21682	0.92159	0.79799	1.9883	69.18	-0.2252	-0.0373	0.1879	1358.4819	0.112361	-453.968723	-453.960436	-453.959492	-454.00354	29.388	
O	 0.0981653366	 1.3064907332	 0.1487398583	-0.425044
C	 0.0629396275	-0.0394661135	 0.1099102541	 0.447918
N	 0.2021810034	-0.7091705312	-1.0263769998	-0.379555
N	 0.1186197215	-2.017189443	-0.6547843284	 0.04165
C	 0.1765538923	-3.031679242	-1.6721296198	-0.24527
C	-1.0313219037	-2.9934552632	-2.6112521267	 0.155706
O	-1.0825064925	-3.6282319357	-3.6285880172	-0.226775
C	-0.0780097694	-2.1533407569	 0.6784824439	-0.01143
C	-0.1161560582	-0.8875608363	 1.2235922984	-0.333158
H	 0.2379305262	 1.6152859495	-0.7553272109	 0.305812
H	 1.0857163583	-2.9243568765	-2.2722918373	 0.160365
H	 0.208716495	-4.0140651957	-1.1898099297	 0.150884
H	-1.8607335427	-2.3379496101	-2.2683211305	 0.104588
H	-0.1674287479	-3.1272457469	 1.1346823186	 0.137076
H	-0.2458154963	-0.6100388115	 2.2554975969	 0.117234
24.234	66.0499	94.07	263.72	314.245	366.6815	417.031	427.2257	466.5938	618.2913	681.9686	711.7678	722.4837	763.3516	799.9619	829.9481	1006.362	1018.4856	1032.4566	1068.0384	1076.3983	1198.3671	1207.2233	1283.8763	1331.6775	1348.4035	1407.3636	1421.6663	1447.387	1486.1313	1566.5198	1600.7766	1844.4998	2909.4593	3055.5835	3105.8448	3254.0663	3287.2979	3795.1106
OC1=NN(CC=O)C=C1	Oc1nn(CC=O)cc1	
InChI=1S/C5H6N2O2/c8-4-3-7-2-1-5(9)6-7/h1-2,4H,3H2,(H,6,9)	InChI=1S/C5H6N2O2/c8-4-3-7-2-1-5(9)6-7/h1-2,4H,3H2,(H,6,9)
