18
gdb 10775	2.61818	2.06082	1.37532	3.3394	68.34	-0.2343	-0.0142	0.2201	952.5417	0.151616	-384.952738	-384.943815	-384.94287	-384.986065	32.257	
C	-1.115072352	 1.0998432656	-0.4331820348	-0.409089
C	-0.1198963261	-0.0483159205	-0.3713313947	-0.096733
C	 0.8776579675	-0.3066386128	-1.5453580177	 0.065433
O	 1.0699195116	 0.9003889099	-2.2542081617	-0.419105
C	 2.0210241712	-0.6063885539	-0.5090336746	-0.111716
C	 3.4215974747	-0.0564533482	-0.728458861	-0.429696
C	 1.1164299909	 0.0723649457	 0.5364052107	 0.378499
O	 1.327648738	 0.6124775921	 1.5837815615	-0.305613
H	-0.6243876668	 2.017626746	-0.76210116	 0.141469
H	-1.9318419166	 0.881299987	-1.1276183134	 0.116995
H	-1.5443338107	 1.2733777683	 0.5578916166	 0.129973
H	-0.6249467746	-0.992146627	-0.1274531432	 0.101389
H	 0.6181937063	-1.1298545833	-2.2215284298	 0.065445
H	 1.7992888541	 0.7762843088	-2.8697089802	 0.290311
H	 2.0482045099	-1.683556255	-0.2989289753	 0.098916
H	 3.3789555471	 0.9950087509	-1.0257588866	 0.130265
H	 3.9997127582	-0.1167912414	 0.1979133847	 0.140895
H	 3.9616027372	-0.6166708524	-1.4995235906	 0.11236
69.9336	159.4705	166.8256	177.2425	216.4758	237.4607	257.2968	306.4056	470.798	510.4292	542.3205	552.9898	732.0576	782.5446	800.5834	885.9654	948.5237	959.7622	999.3035	1017.3176	1100.2624	1131.697	1148.7154	1164.6664	1177.2219	1229.2368	1259.9071	1284.0108	1334.2226	1358.6126	1394.8431	1400.9035	1422.6199	1489.0573	1492.6176	1500.0942	1504.8286	1887.7955	3022.5162	3027.748	3036.8506	3041.4252	3048.1501	3105.5833	3112.6684	3121.0103	3139.82	3821.0289
CC1C(O)C(C)C1=O	C[C@H]1[C@@H](O)[C@@H](C)C1=O	
InChI=1S/C6H10O2/c1-3-5(7)4(2)6(3)8/h3-5,7H,1-2H3	InChI=1S/C6H10O2/c1-3-5(7)4(2)6(3)8/h3-5,7H,1-2H3/t3-,4+,5+
