18
gdb 56927	2.12177	1.42236	1.00564	1.1694	84.45	-0.2343	0.0303	0.2646	1231.8241	0.143967	-364.708302	-364.698643	-364.697699	-364.742754	36.022	
C	-0.1848546204	 1.4462998813	 0.1096201943	-0.388238
C	 0.1097459883	-0.0313994374	-0.190294084	-0.148082
C	 0.949710199	-0.1736527357	-1.3803284715	 0.367619
C	 1.6289240413	-0.2658813314	-2.3667595556	-0.460876
N	 0.7970745679	-0.618924782	 0.9724396934	-0.078161
C	-0.0441557949	-1.0748741392	 2.0656279785	-0.246436
C	 0.6741169059	-2.0708136484	 1.201577836	-0.175076
C	-0.079391056	-2.9231447713	 0.3223439076	 0.346031
C	-0.6818546012	-3.6589990849	-0.4142498289	-0.466015
H	 0.745174717	 1.9805410915	 0.3169015391	 0.13825
H	-0.6786536048	 1.9141574402	-0.7453809755	 0.127427
H	-0.8405719112	 1.5301778358	 0.9813297766	 0.116138
H	-0.8444203874	-0.5489268582	-0.385374959	 0.102972
H	 2.2294945417	-0.3609341452	-3.2372817477	 0.19579
H	 0.318389515	-0.8658286434	 3.0682666992	 0.123539
H	-1.1249773406	-1.0255925894	 1.9430980323	 0.121946
H	 1.5894743202	-2.5162175818	 1.5836989556	 0.121325
H	-1.2130082098	-4.3063618103	-1.0673279403	 0.201847
56.3914	108.8482	144.8485	203.7016	218.2247	240.8336	259.8515	340.5518	392.3417	502.9709	529.1205	538.5336	598.079	621.673	643.9113	657.7259	667.7428	743.5185	801.2005	866.5616	920.2769	994.6197	1026.7878	1041.8677	1104.5703	1113.846	1120.8246	1150.4338	1161.5363	1308.2927	1329.334	1360.3863	1371.3635	1401.8298	1486.8195	1495.1246	1501.0701	2233.2368	2241.9424	2961.1437	3048.0197	3095.4326	3123.1623	3133.8447	3137.4563	3186.6867	3503.243	3504.5272
CC(C#C)N1CC1C#C	C[C@@H](C#C)N1C[C@H]1C#C	
InChI=1S/C8H9N/c1-4-7(3)9-6-8(9)5-2/h1-2,7-8H,6H2,3H3	InChI=1S/C8H9N/c1-4-7(3)9-6-8(9)5-2/h1-2,7-8H,6H2,3H3/t7-,8+,9?/m0/s1
