16
gdb 39729	3.43069	1.70787	1.67163	0.9267	66.16	-0.2358	0.0732	0.309	863.8723	0.126892	-437.829076	-437.822982	-437.822038	-437.859397	25.48	
C	 0.0086065744	 1.5096737614	-0.0195894873	-0.314071
N	 1.2486361123	 0.7002342268	 0.0541648951	-0.375871
C	-0.0475622999	 0.038946125	 0.0375415091	 0.455252
C	-0.5101806748	-0.8626498649	 1.1498580293	-0.28643
C	-1.7381999283	-1.5425793439	 0.5519276808	 0.043467
O	-1.9251136573	-1.0419819033	-0.7646056685	-0.245523
C	-0.5535541096	-0.856013336	-1.0978625543	 0.007617
O	 0.0629723314	-2.1059912164	-0.8087628411	-0.247064
C	-0.4095501786	-2.2525773593	 0.5217715557	 0.04413
H	-0.2018629392	 2.1009020808	 0.8669718603	 0.124234
H	-0.2463081279	 1.9970817823	-0.9579659354	 0.115914
H	 1.6950739036	 0.6419426313	-0.8588867138	 0.234134
H	-0.3694187009	-0.6574641629	 2.2003437494	 0.107153
H	-2.6388266707	-1.8422861973	 1.0658827501	 0.118991
H	-0.4219805758	-0.5690890475	-2.1380802469	 0.098828
H	-0.1381231788	-3.1745958763	 1.0124948877	 0.119237
155.1142	260.9931	303.059	468.5106	586.2902	609.9816	615.4942	732.1881	777.2731	791.4699	803.9349	881.8392	885.0309	905.8879	916.7215	954.1061	972.4562	997.6377	1005.3484	1016.2162	1035.645	1039.5362	1080.0865	1083.6765	1099.2012	1141.2577	1211.4799	1226.6331	1247.7094	1260.791	1297.3216	1328.2876	1368.3605	1444.9781	1523.7258	3104.8771	3170.894	3190.2536	3233.349	3237.0218	3247.9495	3486.4622
C1NC11C2C3OC1OC23	C1N[C@]21[C@H]1[C@H]3O[C@@H]2O[C@@H]13	
InChI=1S/C6H7NO2/c1-6(7-1)2-3-4(2)9-5(6)8-3/h2-5,7H,1H2	InChI=1S/C6H7NO2/c1-6(7-1)2-3-4(2)9-5(6)8-3/h2-5,7H,1H2/t2-,3+,4-,5+,6-/m1/s1
