18
gdb 103876	4.32842	0.78701	0.72968	3.7889	73.07	-0.2751	0.026	0.3011	1533.6616	0.145362	-439.078785	-439.068987	-439.068043	-439.114256	34.773	
C	-0.1006243896	 1.6391774854	-0.020595985	-0.468675
C	-0.2143040918	 0.1438738017	 0.1705974709	 0.342393
C	-1.4062380183	-0.502613201	-0.517275764	-0.115864
O	-1.315570619	-0.3671123039	-1.9233944928	-0.412446
O	 1.0001925572	-0.6198387456	-0.0297143308	-0.289715
C	 0.4280330679	-0.5878341622	 1.275765342	 0.006923
C	 1.2394974907	 0.0876385606	 2.3711441489	-0.378428
C	 2.2544255704	-0.806837026	 2.9290557195	 0.266539
N	 3.0445444358	-1.5238274046	 3.3716345016	-0.296625
H	 0.8779032925	 2.0178317513	 0.2780710897	 0.128506
H	-0.2515136485	 1.8740158279	-1.077688467	 0.150738
H	-0.8736406721	 2.1615241057	 0.5534521974	 0.126798
H	-1.4733195878	-1.5583575768	-0.2174859109	 0.097403
H	-2.3352140564	-0.0049264353	-0.2185227176	 0.114901
H	-0.501793898	-0.8098277867	-2.191915911	 0.296429
H	-0.0199090336	-1.5318907581	 1.5903573584	 0.109169
H	 1.7322676199	 0.9840911921	 1.9878048473	 0.162171
H	 0.5701028408	 0.3999861056	 3.1820220131	 0.159783
46.0657	70.677	119.8437	173.4677	176.1077	249.7827	300.6685	339.9075	379.0397	387.3006	439.1738	452.4981	519.4424	647.1762	714.9068	828.9705	880.2912	921.4205	950.6634	954.626	1026.1689	1058.4044	1103.6358	1107.5053	1133.7044	1203.1795	1239.7628	1271.7365	1320.2428	1341.0885	1393.7937	1414.7459	1424.8538	1447.3816	1466.9056	1490.2291	1494.5279	1513.345	2366.7169	3000.9079	3045.3459	3048.1635	3076.2129	3095.8588	3114.2551	3117.8291	3142.1848	3795.9184
CC1(CO)OC1CC#N	C[C@@]1(CO)O[C@H]1CC#N	
InChI=1S/C6H9NO2/c1-6(4-8)5(9-6)2-3-7/h5,8H,2,4H2,1H3	InChI=1S/C6H9NO2/c1-6(4-8)5(9-6)2-3-7/h5,8H,2,4H2,1H3/t5-,6-/m0/s1
