21
gdb 116473	2.58722	1.29836	1.01223	2.7475	74.09	-0.2483	0.0698	0.3181	1235.1509	0.183976	-461.367832	-461.358987	-461.358043	-461.401104	34.388	
O	-0.0110673398	 1.3990439679	-0.0976392678	-0.42702
C	 0.0439575302	-0.0062506264	 0.048321534	-0.073571
C	-1.3530362353	-0.616361134	 0.0353899257	 0.06183
O	-1.944128508	-0.2239861024	-1.2110264379	-0.287502
C	-3.3328026352	-0.542520954	-1.2731902263	-0.071349
C	-3.5618918927	-2.0511858863	-1.1648368476	-0.21412
C	-2.8584801505	-2.6165965448	 0.0797106881	-0.222871
C	-1.3929432921	-2.1473830674	 0.1331581787	 0.129603
O	-0.6185722543	-2.7358217693	-0.905718634	-0.445348
H	-0.5844800228	 1.5585319232	-0.8567068535	 0.287375
H	 0.6537498294	-0.4767832818	-0.7359607129	 0.096323
H	 0.5221028555	-0.2147548863	 1.0110223064	 0.108291
H	-1.9358311114	-0.1780765212	 0.8621779672	 0.07364
H	-3.8641650207	-0.0161609305	-0.4633553385	 0.095175
H	-3.6939828939	-0.1477300281	-2.2271041846	 0.109953
H	-4.6365249027	-2.2610468763	-1.1359683544	 0.101752
H	-3.1678129964	-2.5391547891	-2.0641148202	 0.107556
H	-3.3727530053	-2.2754320938	 0.9879069034	 0.094818
H	-2.8877038994	-3.7101970795	 0.0785501554	 0.107868
H	-0.9324083261	-2.4698225255	 1.0739618574	 0.082893
H	-0.8088195087	-2.2318735243	-1.7064000183	 0.284703
111.2266	129.6327	160.2053	213.4352	291.8437	319.4229	360.2057	396.2255	416.0768	434.1067	488.8925	543.1194	583.6133	727.6137	807.7351	844.7009	878.5768	890.7383	936.1806	970.4128	1016.2745	1057.884	1069.3243	1085.7397	1107.6564	1115.0923	1153.2897	1208.0411	1214.5135	1243.7217	1265.3671	1294.395	1321.5391	1344.1541	1359.2146	1371.6069	1388.9943	1395.8003	1410.6658	1431.9914	1442.3389	1478.5531	1487.6476	1500.336	1504.3444	2972.7409	2977.4733	3008.6628	3024.4002	3037.1857	3050.2236	3078.8059	3080.6225	3086.3091	3090.1028	3783.48	3793.8178
OCC1OCCCC1O	OC[C@H]1OCCC[C@H]1O	
InChI=1S/C6H12O3/c7-4-6-5(8)2-1-3-9-6/h5-8H,1-4H2	InChI=1S/C6H12O3/c7-4-6-5(8)2-1-3-9-6/h5-8H,1-4H2/t5-,6-/m1/s1
