18
gdb 91247	2.57632	1.60842	1.43691	4.9732	71.22	-0.2385	0.0394	0.2779	988.276	0.149352	-439.119531	-439.111701	-439.110757	-439.151747	30.564	
O	-0.8390343793	 0.9517922949	 1.0226267823	-0.423015
C	-0.1243929314	 0.0783648637	 0.1556097053	 0.111258
C	 0.8728423531	-0.8276625363	 0.9141058888	-0.25924
C	 0.0496090545	-2.0134948522	 1.4392324389	 0.037477
N	-0.8114776544	-1.7667870698	 2.6029113819	-0.326216
C	-1.9945449434	-1.7110118884	 1.8989696742	 0.438636
O	-3.1287533897	-1.4918217808	 2.2232832191	-0.364053
C	-1.2569602372	-2.0490606982	 0.5745527238	-0.186758
C	-1.1498039568	-0.9022941202	-0.4401635117	-0.22341
H	-0.202432679	 1.5022959524	 1.4892125821	 0.28014
H	 0.3815548953	 0.6576616347	-0.6300980755	 0.066027
H	 1.6287925847	-1.2029839136	 0.2136469213	 0.105041
H	 1.4074108998	-0.2894349155	 1.7050684063	 0.090784
H	 0.629005373	-2.9369158077	 1.5232549681	 0.081296
H	-0.5920606774	-1.4356837026	 3.5315528966	 0.241461
H	-1.5459925507	-3.0068736608	 0.1408380857	 0.094206
H	-2.1056110015	-0.4040557471	-0.6182541857	 0.135272
H	-0.7810684596	-1.2841668125	-1.3979876515	 0.101091
94.4178	155.1301	192.957	284.9926	356.5347	385.4073	389.1422	420.8098	482.9715	611.4976	694.5014	765.4745	789.2117	805.6331	845.7112	855.6634	923.8641	965.9169	970.265	985.7857	1039.1553	1063.9801	1097.488	1138.5909	1164.536	1179.9659	1189.1389	1255.9213	1269.4998	1285.3872	1298.0074	1338.3912	1364.2885	1378.4067	1385.3151	1421.558	1465.0239	1480.3851	1899.428	2991.4803	3032.7266	3054.3106	3066.6189	3076.4179	3112.9001	3115.6262	3598.6707	3818.9936
OC1CC2NC(=O)C2C1	O[C@H]1C[C@H]2NC(=O)[C@H]2C1	
InChI=1S/C6H9NO2/c8-3-1-4-5(2-3)7-6(4)9/h3-5,8H,1-2H2,(H,7,9)	InChI=1S/C6H9NO2/c8-3-1-4-5(2-3)7-6(4)9/h3-5,8H,1-2H2,(H,7,9)/t3-,4+,5-/m1/s1
