16
gdb 131685	2.64825	1.48052	0.95521	2.4899	77.39	-0.2029	-0.0268	0.1761	1161.6079	0.126495	-434.068243	-434.060122	-434.059178	-434.101127	30.228	
O	-0.0118063176	 1.4349311237	 0.0065916578	-0.428965
C	 0.0088364134	 0.0159719691	 0.0021755438	-0.16437
C	-1.3949889713	-0.5020234751	 0.0122185615	 0.209511
C	-2.4708178767	 0.317945347	 0.0231614779	-0.057539
N	-3.7412124008	-0.1865853581	 0.0320971032	-0.239397
N	-4.0318972007	-1.4967653853	 0.0310507048	-0.189712
C	-3.0237390994	-2.3128349689	 0.020672857	-0.042516
C	-1.6070548337	-1.9416825673	 0.0100533935	 0.192429
N	-0.6042851287	-2.7577034464	-0.0003819348	-0.56
H	 0.8974415931	 1.7447646514	 0.0011320451	 0.293736
H	 0.5268414912	-0.3880862298	-0.8818098983	 0.119204
H	 0.5413663491	-0.3934352109	 0.8749791525	 0.119218
H	-2.3816457174	 1.3962018036	 0.0253777703	 0.153131
H	-4.5449480857	 0.4179728085	 0.0403804175	 0.276812
H	-3.2849119133	-3.3688413226	 0.0200570356	 0.117217
H	-0.9335232815	-3.7256600489	-0.0002823374	 0.201241
84.3338	137.4757	200.2703	204.8793	268.1961	333.2928	414.1663	462.8573	514.3542	526.3123	587.9802	624.4689	761.5112	786.7103	834.1782	888.5048	903.179	937.8441	1025.1377	1041.283	1071.5491	1123.0567	1209.9209	1223.5312	1233.2816	1241.7992	1330.9866	1377.6515	1430.4976	1464.2873	1497.6643	1511.7594	1610.7561	1651.8412	1688.8196	2980.7974	2999.2901	3157.847	3230.9948	3437.6147	3664.822	3848.9898
OCC1=CNN=CC1=N	OCC1=C(C=NNC1)[NH]	
InChI=1S/C5H7N3O/c6-5-2-8-7-1-4(5)3-9/h1-2,9H,3H2,(H2,6,7)	InChI=1S/C5H8N3O/c6-5-2-8-7-1-4(5)3-9/h2,6-7,9H,1,3H2
