25
gdb 59166	2.3565	1.25175	1.04401	0.2701	92.61	-0.2447	0.0813	0.326	1338.8501	0.228524	-352.335703	-352.325738	-352.324794	-352.370165	38.543	
C	-0.0771946786	 1.3224240591	-0.8908883513	-0.386666
C	 0.1493433218	-0.024612973	-0.1876547321	 0.001268
C	 0.7692861497	 0.1724117297	 1.2031761634	-0.384201
C	-1.1641346473	-0.7871256639	-0.0914666933	 0.042665
C	-1.817830432	-1.5808960202	-1.1854928549	-0.089764
C	-0.8014178734	-2.4272742169	-1.9682464704	-0.267096
C	-0.4570915596	-3.2046006473	-0.6513594329	 0.051337
C	 0.988189053	-3.4306147583	-0.2187784983	-0.415999
C	-1.3919291841	-2.2631426264	 0.1293703201	-0.120932
H	 0.8600232486	 1.8797972823	-0.9924883072	 0.105829
H	-0.4988757796	 1.181016799	-1.8911430302	 0.114549
H	-0.7752401948	 1.9479565541	-0.3211974176	 0.10836
H	 0.8568416866	-0.5975813952	-0.7956738091	 0.073119
H	 0.099127519	 0.7510622769	 1.8503872486	 0.10773
H	 0.9565497655	-0.7871179347	 1.6949142192	 0.115966
H	 1.7188724904	 0.7148984137	 1.1416311191	 0.105433
H	-1.907581148	-0.2140616763	 0.4666212767	 0.075396
H	-2.8203303131	-1.3582770525	-1.5322054455	 0.078682
H	-1.2581932146	-3.0655265057	-2.7275862787	 0.097811
H	 0.0185719509	-1.8747780899	-2.4393909671	 0.094624
H	-0.9499684696	-4.1815633401	-0.7076107377	 0.074555
H	 1.5661280453	-2.5041054207	-0.1793139489	 0.121565
H	 1.0270305332	-3.8870595305	 0.7769959232	 0.111814
H	 1.4980372466	-4.1098290648	-0.9118542531	 0.109571
H	-2.0258810759	-2.5972972286	 0.9442647476	 0.074383
66.4162	130.6328	156.6118	205.969	212.0289	227.383	250.534	303.5069	323.8558	397.6788	421.659	498.4447	574.1743	681.477	747.7899	781.9047	833.987	857.4404	871.4638	917.6803	928.1563	960.6008	963.8185	974.2994	999.7393	1016.9905	1075.3984	1085.349	1107.1705	1123.8155	1133.1328	1144.9264	1183.4245	1196.7146	1239.6019	1244.763	1276.2718	1304.9058	1320.9972	1345.9722	1364.0929	1382.5521	1396.7102	1410.476	1416.4199	1457.4194	1485.4589	1489.4548	1492.6972	1495.5324	1499.8346	1503.5882	1510.6418	3021.789	3026.081	3027.8486	3035.3788	3042.8176	3054.2609	3084.4618	3085.1956	3085.7195	3096.4796	3101.0482	3102.4713	3103.8325	3121.0434	3155.8291	3174.5772
CC(C)C1C2CC(C)C12	CC(C)[C@H]1[C@H]2C[C@@H](C)[C@@H]12	
InChI=1S/C9H16/c1-5(2)8-7-4-6(3)9(7)8/h5-9H,4H2,1-3H3	InChI=1S/C9H16/c1-5(2)8-7-4-6(3)9(7)8/h5-9H,4H2,1-3H3/t6-,7-,8+,9-/m1/s1
