17
gdb 84288	3.05061	1.6815	1.5572	1.6055	73.08	-0.2318	-0.0301	0.2017	913.6455	0.137966	-421.759958	-421.753214	-421.75227	-421.790983	27.755	
O	-0.0139129242	 1.403936274	 0.2356888017	-0.430599
C	 0.0578302163	 0.0105506237	-0.0300753059	 0.101745
C	 0.6717678631	-0.7110200283	 1.1746079067	-0.130149
C	-0.1027641874	-1.7268103431	 1.5785647155	 0.069882
C	-0.8301894312	-1.677726092	 2.8989604515	-0.127773
O	-1.9253605996	-0.8044695744	 2.4779296594	-0.277533
C	-2.1895896313	-1.0817784621	 1.1035672737	 0.092248
C	-1.2970277863	-0.6830823267	-0.1323966099	-0.124256
C	-1.1924449836	-2.0203881165	 0.5532052426	-0.174432
H	-0.6047732599	 1.5117090383	 0.9912524226	 0.286662
H	 0.6165375402	-0.0672823488	-0.9706428323	 0.094159
H	 1.3876054247	-0.1821900299	 1.7960182471	 0.106731
H	-1.2388225559	-2.6312662019	 3.2528375178	 0.105164
H	-0.2878992213	-1.1756542789	 3.7013261686	 0.119887
H	-3.2541969352	-1.1343344406	 0.9016071757	 0.106768
H	-1.8659735849	-0.5712753481	-1.051530467	 0.086563
H	-1.3603948036	-2.9996673245	 0.1202330624	 0.094931
95.6472	247.0542	336.002	361.8063	415.1063	467.0168	553.8892	638.0808	677.901	695.0307	757.1898	797.8123	816.8134	855.3889	864.1562	901.026	942.0838	982.1603	1000.5896	1014.6155	1045.0573	1060.5436	1081.8883	1111.1966	1119.6993	1163.0685	1183.3465	1237.9529	1260.8143	1284.3276	1297.9422	1322.5462	1344.8239	1381.8647	1425.6573	1509.5473	1650.5083	3033.1059	3035.6087	3128.6247	3150.9263	3165.4653	3177.2729	3185.5041	3783.3991
OC1C=C2COC3C1C23	O[C@H]1[CH][C]2CO[C@H]3[C@@H]1[C@@H]23	
InChI=1S/C7H8O2/c8-4-1-3-2-9-7-5(3)6(4)7/h1,4-8H,2H2	InChI=1S/C7H8O2/c8-4-1-3-2-9-7-5(3)6(4)7/h1,4-8H,2H2/t4-,5+,6-,7+/m0/s1
