18
gdb 9965	2.5963	1.67713	1.48432	1.1045	63.78	-0.2246	0.0503	0.2749	967.4196	0.150976	-422.045953	-422.036694	-422.03575	-422.079506	34.27	
C	-0.3242867947	 1.4652408784	 0.0793348912	-0.397795
C	 0.1589627976	 0.0208562177	-0.0977173341	-0.216926
C	 0.8000642665	-0.5291800998	 1.1586217073	 0.306934
O	 1.997503064	 0.0953294322	 1.5560609119	-0.467559
C	-0.0527434409	-1.0947601318	 2.2869688385	 0.018567
O	-1.4337817335	-1.2158407641	 2.1325119935	-0.430941
C	 0.8274938585	-2.0054732145	 1.4469401769	-0.018643
O	 0.1493156282	-2.843364359	 0.5437555491	-0.429468
H	 0.5015947699	 2.1319594224	 0.3517923877	 0.105172
H	-0.7571151676	 1.8504128006	-0.8485253655	 0.114308
H	-1.0881653728	 1.5242965667	 0.8608826121	 0.132371
H	-0.6797478277	-0.6170339387	-0.3861364453	 0.106518
H	 0.8940005602	-0.0370751536	-0.9092186854	 0.10429
H	 1.7664648326	 0.9413198429	 1.9555902065	 0.284323
H	 0.2450844382	-0.8718867175	 3.3081584282	 0.09878
H	-1.5689329789	-1.9208776203	 1.4836762475	 0.285501
H	 1.7496597471	-2.4014380214	 1.8647434839	 0.105715
H	 0.0495027932	-3.7049723102	 0.963143256	 0.298854
57.5885	136.0364	193.1968	238.187	257.1624	269.235	281.405	298.0131	358.5172	395.9031	485.3493	515.6406	563.6937	656.9817	704.2962	779.6068	843.0574	899.6183	970.9927	1010.2393	1044.9452	1069.8145	1089.1737	1143.6325	1156.7504	1202.2913	1236.9926	1291.3009	1291.7899	1314.3508	1348.0313	1379.1414	1398.4344	1404.4206	1474.7902	1485.9955	1503.5275	1508.0602	3032.988	3042.416	3090.4265	3109.8307	3115.6	3136.2945	3147.2132	3733.8881	3797.8535	3806.0489
CCC1(O)C(O)C1O	CC[C@@]1(O)[C@@H](O)[C@H]1O	
InChI=1S/C5H10O3/c1-2-5(8)3(6)4(5)7/h3-4,6-8H,2H2,1H3	InChI=1S/C5H10O3/c1-2-5(8)3(6)4(5)7/h3-4,6-8H,2H2,1H3/t3-,4+,5+
