18
gdb 56183	3.83648	0.83618	0.78886	2.9697	69.19	-0.254	0.0513	0.3054	1483.0974	0.146131	-476.248764	-476.239159	-476.238215	-476.284464	35.073	
N	-0.2042795434	 1.2570488285	-0.2186902358	-0.563171
C	 0.0344670654	-0.0737127317	-0.0121383129	 0.500647
O	 1.1067118861	-0.5598868741	 0.2564771226	-0.391561
O	-1.1240287567	-0.7736501078	-0.1219318895	-0.280999
C	-1.0128427953	-2.1883272839	 0.141663421	-0.126984
C	-2.4085079439	-2.7411306517	 0.0845811399	 0.416547
O	-3.2668548722	-2.203088885	 1.0523601017	-0.470743
C	-3.0047572729	-3.149060193	-1.242274059	-0.317135
C	-2.6179805378	-4.1916037606	-0.2105966844	-0.311301
H	 0.6079413233	 1.8298365289	-0.371991273	 0.269868
H	-1.0613625328	 1.5305899026	-0.6685611242	 0.26273
H	-0.3578932507	-2.6510565992	-0.6022925756	 0.116058
H	-0.570428641	-2.3312312512	 1.131608838	 0.130884
H	-3.2687912831	-1.2483046298	 0.916203236	 0.285461
H	-4.0624053822	-2.9540849334	-1.3753365513	 0.118815
H	-2.4024446982	-3.0581250939	-2.1397842462	 0.113217
H	-1.7527811703	-4.8177802653	-0.3992768208	 0.118109
H	-3.4194619742	-4.6737366993	 0.3366092835	 0.129558
25.4581	64.7424	123.9656	170.1406	236.767	303.6595	345.9546	365.9875	370.4109	441.5461	445.9739	502.5584	555.2725	651.7038	754.3585	780.7462	783.8085	877.9237	931.9931	936.991	956.1446	988.9907	1041.6189	1056.6514	1078.0083	1084.6833	1118.3197	1189.7789	1228.1472	1286.6517	1311.2504	1345.672	1392.4355	1436.9076	1453.9622	1499.5526	1507.8294	1613.5694	1838.1083	3057.1002	3108.1963	3135.5225	3140.5504	3222.251	3235.8544	3612.6876	3740.5903	3793.169
NC(=O)OCC1(O)CC1	NC(=O)OCC1(O)CC1	
InChI=1S/C5H9NO3/c6-4(7)9-3-5(8)1-2-5/h8H,1-3H2,(H2,6,7)	InChI=1S/C5H9NO3/c6-4(7)9-3-5(8)1-2-5/h8H,1-3H2,(H2,6,7)
