17
gdb 35387	4.17129	1.30647	1.19415	3.6874	76.48	-0.252	0.0329	0.2849	1045.0261	0.138954	-380.826555	-380.819841	-380.818897	-380.857817	26.849	
N	-0.0954667342	-1.1703479232	-0.1152519483	-0.32854
C	-0.0553577401	-0.0156687142	-0.0648606904	 0.266911
C	 0.0038349911	 1.4392200686	 0.0180280933	-0.19412
C	-0.4362159522	 2.0241350862	 1.4103386033	-0.19332
N	 0.7525463399	 2.7615865825	 1.8711291395	-0.116637
C	 1.3637648381	 3.425806308	 0.6371325107	-0.036739
C	 2.7538367598	 3.22904236	 1.2685668382	-0.233804
C	 1.9700213222	 1.921256458	 1.4824857261	-0.022708
C	 1.4319151642	 1.9958770079	 0.0194633451	-0.017444
H	-0.5888795526	 1.8542650842	-0.8036138069	 0.123613
H	-1.2863049163	 2.7041942031	 1.3147964605	 0.119736
H	-0.6942103544	 1.2413353287	 2.1268765616	 0.133799
H	 0.9232280243	 4.3251395198	 0.2016771332	 0.086447
H	 3.6055424112	 3.1896448099	 0.5884145654	 0.104791
H	 2.9555217862	 3.8151724701	 2.1652621278	 0.117099
H	 2.2492807786	 1.0317749538	 2.0490446031	 0.099876
H	 2.0735708643	 1.7719553965	-0.8341445222	 0.091039
98.5169	159.619	296.6359	369.5451	426.836	494.5462	560.2151	697.7325	720.8013	760.1616	811.3916	827.3458	852.757	890.1939	924.932	951.0629	991.3092	999.9812	1030.1484	1041.2521	1080.6135	1086.6728	1117.3711	1130.243	1142.5703	1179.0733	1214.988	1227.8604	1236.6965	1246.8705	1275.8283	1310.89	1327.2035	1350.3018	1495.8001	1500.455	2351.8682	3059.1815	3071.6376	3082.7062	3095.2768	3105.9369	3116.3258	3124.0571	3158.1421
N#CC1CN2C3CC2C13	N#C[C@H]1CN2[C@H]3C[C@@H]2[C@@H]13	
InChI=1S/C7H8N2/c8-2-4-3-9-5-1-6(9)7(4)5/h4-7H,1,3H2	InChI=1S/C7H8N2/c8-2-4-3-9-5-1-6(9)7(4)5/h4-7H,1,3H2/t4-,5-,6+,7-/m0/s1
