19
gdb 50040	3.51175	0.99924	0.92075	2.165	77.12	-0.2496	-0.0232	0.2264	1308.598	0.159507	-423.025396	-423.01701	-423.016066	-423.059326	31.141	
O	-0.052423646	 0.0644581004	-0.5937474546	-0.268457
C	 0.0158481734	 1.1766764837	-0.1312375161	 0.162278
C	 1.262216354	 1.9617067663	-0.0007851666	-0.155073
C	 1.1642326218	 3.4846834007	-0.0696679752	-0.345545
C	 1.4998441276	 2.8351622374	 1.2264693153	 0.320617
C	 0.5689544088	 2.8932659638	 2.4497061088	-0.327346
C	 1.568866473	 3.0013410629	 3.6221069036	-0.07696
O	 2.7594311269	 3.5424008756	 3.0668951826	-0.238658
C	 2.9161367615	 2.9184688555	 1.8066707338	-0.146531
H	-0.8979564307	 1.7048384016	 0.2305040084	 0.065829
H	 2.133362315	 1.4855844955	-0.4408049639	 0.104861
H	 1.9414600197	 4.0018416996	-0.6223513173	 0.12795
H	 0.1695129793	 3.9057119832	-0.1895352707	 0.123036
H	-0.0748440917	 3.775987617	 2.4016812894	 0.116615
H	-0.0726864093	 2.0151377248	 2.5526107481	 0.116143
H	 1.2381562767	 3.666052857	 4.4230651529	 0.115063
H	 1.7648949547	 2.0064898085	 4.0533094507	 0.096119
H	 3.3456008735	 1.9085887435	 1.9213106507	 0.096242
H	 3.6010517817	 3.5230168629	 1.2059529802	 0.113816
42.5362	98.8317	136.7592	235.6582	276.4159	336.5047	376.5144	423.7245	456.1811	547.4796	660.7677	761.7132	839.6235	864.7607	881.8706	930.3262	949.1647	972.5492	985.8582	1024.9181	1047.8376	1070.6689	1079.1509	1105.3767	1123.6469	1180.1626	1205.9278	1227.35	1239.521	1278.0627	1290.5342	1310.1549	1352.2656	1383.8447	1408.4917	1446.7838	1485.2596	1492.7293	1507.6617	1523.2054	1817.5976	2849.4505	2959.1963	2977.3088	3060.205	3088.4138	3100.8243	3112.1029	3118.9266	3162.4097	3208.4648
O=CC1CC11CCOC1	O=C[C@H]1C[C@]21CCOC2	
InChI=1S/C7H10O2/c8-4-6-3-7(6)1-2-9-5-7/h4,6H,1-3,5H2	InChI=1S/C7H10O2/c8-4-6-3-7(6)1-2-9-5-7/h4,6H,1-3,5H2/t6-,7-/m1/s1
