21
gdb 110259	2.13741	1.41503	0.99117	1.49	79.15	-0.2471	0.0699	0.3171	1266.7685	0.181556	-424.163066	-424.153737	-424.152793	-424.197035	35.773	
C	-0.0909852994	 1.5941124325	 0.4565769438	-0.374931
C	 0.0238142082	 0.0648110188	 0.4510584542	-0.242949
C	-1.3207711375	-0.6035411489	 0.1765903196	 0.05996
C	-1.9995396789	-0.6828445062	-1.2409824335	-0.151184
C	-1.0768810106	-1.8735460872	-1.5952897848	 0.162098
O	 0.2492546267	-1.5763319897	-1.9525695501	-0.432642
C	-1.4998370986	-2.1341797025	-0.1107400397	-0.198127
C	-2.9351518002	-1.7847015561	-0.6314925905	 0.187866
O	-3.9895518012	-1.4775534512	 0.2287553083	-0.447205
H	 0.8671953128	 2.0606172868	 0.7052911157	 0.110744
H	-0.3989136111	 1.9708513063	-0.5246810439	 0.118924
H	-0.8285744472	 1.9404543739	 1.1903360628	 0.105959
H	 0.7714321003	-0.2497193751	-0.2748585562	 0.126516
H	 0.3697331294	-0.2726648711	 1.4381423922	 0.086159
H	-2.008235124	-0.2332639839	 0.9513889151	 0.030988
H	-2.2873303905	 0.1397322185	-1.8972264784	 0.07402
H	-1.5083318212	-2.5846889594	-2.3145004799	 0.064915
H	 0.737763242	-2.4046438832	-1.9886781901	 0.285194
H	-1.2133937274	-2.9725620614	 0.5278443235	 0.06596
H	-3.3495460369	-2.4897458974	-1.3564813268	 0.081491
H	-3.6913999847	-0.8491127633	 0.8940908587	 0.286244
61.2226	151.9261	187.453	197.1983	261.4117	268.2943	293.3927	295.9866	383.8408	412.0285	468.605	532.4394	652.0822	710.3833	755.6759	818.3649	834.7301	876.2507	909.9216	938.4909	965.9223	1027.0517	1060.4663	1068.2655	1069.1462	1101.9578	1119.7315	1142.0558	1145.841	1198.8777	1213.0253	1225.9878	1236.7124	1273.2414	1289.0709	1302.5839	1329.3974	1351.078	1409.5331	1439.2348	1469.7297	1482.8771	1495.9851	1499.6623	1509.2241	2971.8991	2991.4696	3013.6086	3026.6772	3080.0733	3086.9506	3092.4729	3102.9739	3107.9497	3152.3418	3811.7456	3819.4969
CCC1C2C(O)C1C2O	CC[C@H]1[C@H]2[C@@H](O)[C@@H]1[C@H]2O	
InChI=1S/C7H12O2/c1-2-3-4-6(8)5(3)7(4)9/h3-9H,2H2,1H3	InChI=1S/C7H12O2/c1-2-3-4-6(8)5(3)7(4)9/h3-9H,2H2,1H3/t3-,4-,5+,6+,7-
