17
gdb 127380	3.90762	1.13354	1.06777	3.7092	75.64	-0.2209	-0.0061	0.2148	1165.0315	0.13785	-414.152817	-414.14499	-414.144046	-414.185672	29.228	
C	 0.2647776651	 1.4950254366	-0.5030785187	-0.324817
N	 0.0690483862	 0.1012225944	-0.1164689071	-0.092683
C	 1.2564440441	-0.7251310721	 0.0313835083	-0.252649
C	 0.4678284964	-0.3336558567	 1.2373492819	-0.107834
C	 1.0313341518	 0.5794012348	 2.2515902211	 0.338173
C	 0.5466267798	 0.8484851571	 3.5136120748	-0.18337
N	 1.4291875247	 1.7374179459	 4.0241451874	-0.153435
N	 2.4088752754	 2.02039509	 3.1481001417	-0.108596
N	 2.1720136702	 1.3189506776	 2.0787045411	-0.257281
H	 1.1863968941	 1.9477405653	-0.1145416052	 0.138018
H	 0.2849716549	 1.5429195082	-1.5964230794	 0.120946
H	-0.5890379379	 2.0856474371	-0.1550921066	 0.115581
H	 1.1870556949	-1.7391178498	-0.3550202255	 0.111096
H	 2.2292314201	-0.2497344074	-0.0783984148	 0.134473
H	-0.2258322648	-1.0584557922	 1.6584460801	 0.085916
H	-0.3103608877	 0.4934258048	 4.0603830021	 0.151518
H	 1.4369845128	 2.1762752964	 4.9310601787	 0.284942
59.6498	132.52	182.5088	216.2548	299.9342	362.3181	441.6155	491.3494	578.93	666.4737	706.0607	738.0622	763.1829	810.5387	874.6825	971.795	986.8938	1033.0835	1040.8063	1054.2453	1100.4991	1127.6384	1130.7669	1135.7042	1171.7663	1212.5079	1270.9101	1292.2421	1316.8176	1346.5236	1413.1254	1450.4854	1490.6519	1491.8185	1506.4525	1509.9203	1589.6029	3011.5782	3081.9366	3095.5966	3100.4458	3123.1253	3184.3995	3284.9032	3658.6302
CN1CC1C1=CNN=N1	CN1C[C@H]1c1c[nH]nn1	
InChI=1S/C5H8N4/c1-9-3-5(9)4-2-6-8-7-4/h2,5H,3H2,1H3,(H,6,7,8)	InChI=1S/C5H8N4/c1-9-3-5(9)4-2-6-8-7-4/h2,5H,3H2,1H3,(H,6,7,8)/t5-,9?/m0/s1
