19
gdb 41788	2.53363	1.98829	1.47649	1.467	81.94	-0.2166	-0.0295	0.1871	956.3864	0.163193	-385.90817	-385.901239	-385.900295	-385.939388	28.482	
C	 0.0543399789	 1.6015080238	 0.1529413517	-0.253059
C	 1.520844635	 1.9624754809	-0.1984632577	-0.217621
C	 2.2386178364	 0.6128181653	-0.0093646299	 0.030034
O	 1.295659638	-0.3357479476	-0.4838376407	-0.246984
C	 0.0101378115	 0.0466624728	 0.0199783437	 0.048607
C	-0.2853107598	-0.6542861555	 1.3233603199	-0.089373
C	 0.6013005813	-0.7890212985	 2.32067456	-0.066615
C	 1.9626482584	-0.2582261192	 2.3775976879	-0.07533
C	 2.6652518665	 0.3645705425	 1.4175260869	-0.080702
H	-0.1936941108	 1.9061937502	 1.1713292005	 0.117448
H	-0.6554835918	 2.0854538825	-0.5217357649	 0.107383
H	 1.6089184524	 2.2789341183	-1.2421436403	 0.10411
H	 1.9182534565	 2.7572967889	 0.4377136214	 0.104323
H	 3.1163276018	 0.5218203125	-0.6589726105	 0.084095
H	-0.7162112571	-0.2707796406	-0.7344343854	 0.079822
H	-1.2764673414	-1.0860374778	 1.4355714983	 0.090358
H	 0.2812584967	-1.3225651096	 3.2124450144	 0.087548
H	 2.4496320577	-0.3721567796	 3.3437739003	 0.086265
H	 3.6601969597	 0.7291062708	 1.6658136846	 0.089691
95.3654	215.9058	272.423	347.5052	420.2699	454.0053	567.3669	616.9992	683.567	716.8605	788.1149	797.4986	814.5983	831.3465	890.5048	897.6654	919.8499	940.6635	984.52	987.89	1005.6599	1014.8789	1056.1146	1083.2882	1097.7205	1165.4443	1214.6282	1241.5821	1263.2956	1266.2218	1303.2188	1312.7608	1330.1989	1363.2994	1390.1546	1415.264	1450.7525	1482.1615	1503.7221	1664.4305	1704.2639	3044.0742	3055.3751	3057.1868	3074.7778	3101.9532	3124.4987	3131.9148	3144.6422	3156.654	3170.5663
C1CC2OC1C=CC=C2	C1C[C@@H]2O[C@H]1C=CC=C2	
InChI=1S/C8H10O/c1-2-4-8-6-5-7(3-1)9-8/h1-4,7-8H,5-6H2	InChI=1S/C8H10O/c1-2-4-8-6-5-7(3-1)9-8/h1-4,7-8H,5-6H2/t7-,8+
