23
gdb 59128	3.91532	1.07072	0.98101	0.06	90.17	-0.2786	0.0856	0.3643	1334.1189	0.205767	-351.086799	-351.078165	-351.077221	-351.12004	34.15	
C	 0.0308689441	 1.5276976098	-0.1064607932	-0.387911
C	 0.085156682	 0.0118131648	 0.1333413932	 0.008346
C	 0.7757328937	-0.3104019763	 1.4666224126	-0.38791
C	-1.314852614	-0.597653389	 0.0841040458	 0.020661
C	-2.049743161	-0.7534418235	-1.2682871732	-0.058288
C	-1.2675526226	-2.0619526472	-1.6491767053	-0.041076
C	-2.5653781337	-2.8393751811	-1.9430385358	-0.268242
C	-2.9143418616	-1.9479531316	-0.7362784406	-0.044531
C	-1.4944847616	-2.123679689	-0.09553833	-0.058288
H	 1.0338421508	 1.9675264874	-0.0972631771	 0.107329
H	-0.4304911738	 1.7653193875	-1.0703957114	 0.111693
H	-0.5561063721	 2.0258040578	 0.6748505003	 0.109781
H	 0.6820641985	-0.4365002072	-0.6731404309	 0.066603
H	 0.8483432637	-1.3904086467	 1.6303314741	 0.111693
H	 1.7896015827	 0.1025394753	 1.4988548732	 0.107329
H	 0.2175078667	 0.1167112329	 2.3086773941	 0.109781
H	-1.9399720451	-0.1686078809	 0.8813736733	 0.051718
H	-2.388610981	 0.0146111846	-1.966866675	 0.06435
H	-0.3096906368	-2.1175546392	-2.1676578473	 0.069304
H	-3.0728343334	-2.6136437286	-2.8868980171	 0.088819
H	-2.5433392725	-3.9203053702	-1.7685641682	 0.088819
H	-3.853349156	-1.8583533894	-0.1870009461	 0.065671
H	-1.191020757	-2.9407417103	 0.5625415244	 0.06435
67.7159	154.9255	155.0142	213.4551	238.3462	303.8975	357.5268	417.9348	480.4424	494.724	731.6275	775.9869	836.3963	846.7542	853.7835	882.7487	894.0068	904.9652	919.5732	929.3951	963.0499	970.1906	997.9544	1011.6892	1028.3139	1059.023	1118.8879	1121.1321	1142.853	1146.913	1151.6664	1158.1395	1190.5871	1190.6	1204.6213	1236.5174	1243.1942	1281.7799	1314.7298	1321.9101	1350.2863	1398.7935	1412.1264	1425.5143	1486.9105	1490.8151	1503.8085	1509.5846	1510.9562	2991.6163	3010.3263	3021.53	3026.3779	3033.0488	3083.4008	3084.1449	3085.6313	3088.9904	3091.468	3096.5727	3098.1462	3099.9912	3108.3963
CC(C)C1C2C3CC2C13	CC(C)[C@H]1[C@H]2[C@@H]3C[C@H]2[C@H]13	
InChI=1S/C9H14/c1-4(2)7-8-5-3-6(8)9(5)7/h4-9H,3H2,1-2H3	InChI=1S/C9H14/c1-4(2)7-8-5-3-6(8)9(5)7/h4-9H,3H2,1-2H3/t5-,6+,7-,8-,9+
