15
gdb 29851	3.91738	1.13425	0.88444	5.1819	78.25	-0.2149	-0.0551	0.1598	1242.9031	0.112322	-453.981471	-453.973015	-453.972071	-454.015799	29.57	
C	 0.0303095885	 1.4587692242	 0.0537846725	-0.325646
N	-0.0177703029	 0.0119166286	 0.0127548002	-0.074089
C	-1.1031284434	-0.8127374852	 0.1098729932	-0.164167
C	-0.6665549652	-2.0925953553	 0.0189546408	 0.218782
O	 0.7124916831	-2.0771791323	-0.1376692859	-0.233973
C	 1.1276370775	-0.7694774238	-0.1428997577	 0.463413
N	 2.2983946772	-0.3073969313	-0.2614373686	-0.603236
C	-1.4085346215	-3.3292037094	 0.0637068686	 0.064583
O	-0.9386995333	-4.4429727613	-0.0256571494	-0.288686
H	 0.6594796756	 1.7910127486	 0.8840331629	 0.162747
H	 0.4587356729	 1.8475600258	-0.8740356462	 0.16273
H	-0.98192924	 1.8447992739	 0.1817817025	 0.137865
H	-2.1055425712	-0.4369397483	 0.2361741773	 0.171098
H	 2.9808118544	-1.0537835397	-0.3632036058	 0.238803
H	-2.5005545917	-3.1553026046	 0.1937203658	 0.069775
32.0472	96.5604	157.3247	187.138	199.3928	282.2037	356.5069	437.4577	531.0911	600.1458	656.6652	729.3165	739.6066	764.3124	820.1764	859.079	959.6842	1001.6178	1037.1529	1079.4731	1158.2002	1160.6923	1212.8832	1311.8775	1366.6515	1409.7937	1449.5913	1469.2906	1484.8933	1525.647	1655.6398	1773.7115	1786.3996	2873.8296	3050.424	3115.337	3149.6957	3274.3662	3547.6355
CN1C=C(OC1=N)C=O	CN1C=C(O[C@H]1[NH])C=O	
InChI=1S/C5H6N2O2/c1-7-2-4(3-8)9-5(7)6/h2-3,6H,1H3	InChI=1S/C5H7N2O2/c1-7-2-4(3-8)9-5(7)6/h2-3,5-6H,1H3/t5-/m0/s1
