20
gdb 86755	2.80883	1.14818	0.93197	4.4173	85.8	-0.2531	0.0046	0.2577	1320.5507	0.171155	-366.055754	-366.046552	-366.045608	-366.089857	34.28	
C	 0.0310733037	 1.640913527	-0.0057013161	-0.405842
C	 0.0196603938	 0.1091856475	 0.052698938	-0.061571
C	 0.685942337	-0.5502225115	-1.1793291384	-0.23925
C	 1.3899420825	-1.8339122506	-0.645334206	-0.19279
C	 1.5199952128	-1.5416153878	 0.8402792718	-0.192552
C	 0.7824136087	-0.4983660953	 1.221824948	 0.349048
C	 0.6337181911	 0.0178846172	 2.6185404806	-0.498279
C	 0.6101987165	-3.0560915656	-0.8851541975	 0.265805
N	-0.0062239238	-4.0170673759	-1.0688762828	-0.330963
H	 1.0568509904	 2.0252021281	-0.0398760632	 0.117187
H	-0.490729639	 1.9973227017	-0.8996669256	 0.121152
H	-0.4666069995	 2.0817270518	 0.8634499172	 0.119564
H	-1.0295091704	-0.2155887135	 0.1275838048	 0.093926
H	-0.01530694	-0.7613452256	-1.9887983881	 0.121789
H	 1.4569279815	 0.119344707	-1.5736776606	 0.109518
H	 2.3634459136	-1.981152609	-1.1278212904	 0.122877
H	 2.1104590879	-2.1717367266	 1.4950995885	 0.105145
H	 1.2122266893	-0.5763634077	 3.3301811496	 0.12906
H	 0.9615680832	 1.0609594822	 2.6985247771	 0.13282
H	-0.4178906691	-0.0036307734	 2.9318746832	 0.133356
60.5699	104.1171	177.4642	199.4177	234.3316	259.9689	292.333	349.8291	364.5705	479.5577	529.8025	567.8951	606.1513	741.474	770.7449	804.4761	854.4259	914.7715	929.5741	981.4966	1015.243	1029.6397	1047.1089	1074.1116	1115.7672	1124.0008	1182.2949	1238.9996	1244.0527	1282.5369	1317.1713	1324.7934	1348.1667	1365.9984	1409.4115	1414.7286	1479.2517	1484.4785	1488.7476	1499.0398	1503.4894	1718.8216	2349.2587	2986.0136	3023.3074	3030.2944	3035.6438	3058.6469	3072.765	3099.1015	3105.256	3117.3838	3118.0925	3201.8628
CC1CC(C=C1C)C#N	C[C@H]1C[C@@H](C=C1C)C#N	
InChI=1S/C8H11N/c1-6-3-8(5-9)4-7(6)2/h3,7-8H,4H2,1-2H3	InChI=1S/C8H11N/c1-6-3-8(5-9)4-7(6)2/h3,7-8H,4H2,1-2H3/t7-,8+/m0/s1
