23
gdb 109763	1.72507	1.50357	0.94272	3.2224	82.04	-0.2423	0.0619	0.3042	1349.8023	0.204652	-425.413216	-425.402785	-425.401841	-425.448194	39.259	
C	-0.9129662092	 0.7427269236	-2.6719982526	-0.399612
C	-0.584507154	-0.5205170155	-1.8778841107	 0.108837
O	 0.5505644233	-0.2909122961	-1.0167527775	-0.426157
C	-1.7747146758	-1.0255335051	-1.0883406674	-0.050563
C	-2.7113634146	-2.1151277806	-1.5802640089	-0.041978
C	-2.5961314213	-2.7735897915	-2.9413257286	-0.412125
C	-1.7732976385	-2.391554905	-0.424591084	-0.068957
C	-0.5665699899	-3.3074249195	-0.513608479	-0.079361
O	 0.4937000404	-2.8778340473	 0.318653137	-0.433672
H	-0.0282922242	 1.1036288168	-3.2030668674	 0.125453
H	-1.706366907	 0.5466225289	-3.3998177142	 0.125113
H	-1.2634186718	 1.5397454208	-2.0046372156	 0.108825
H	-0.2266084924	-1.2883193617	-2.5683964421	 0.092962
H	 0.2847295466	 0.3557761075	-0.3524285216	 0.282031
H	-2.2546343386	-0.2307889349	-0.5170675374	 0.072529
H	-3.7476380505	-1.9655805619	-1.2857112623	 0.085644
H	-1.5638600217	-2.9320313801	-3.2600792299	 0.122955
H	-3.0859591169	-3.7534185802	-2.9347520284	 0.122024
H	-3.0882600287	-2.165898331	-3.7090995944	 0.117095
H	-2.2362457118	-2.4157353127	 0.5587533104	 0.08728
H	-0.8448405074	-4.3091433348	-0.166338687	 0.101422
H	-0.2341439791	-3.4211647631	-1.5563201082	 0.075526
H	 0.7406391731	-1.9951217164	 0.0014005097	 0.28473
82.0859	126.6209	150.3341	165.8467	198.0549	226.5488	242.6229	262.4589	318.1872	347.896	398.5463	433.244	492.4223	564.8989	576.9029	647.5063	759.896	804.5002	848.6874	897.4142	948.9142	972.6944	981.5231	1019.7117	1060.6795	1075.8214	1088.6269	1102.6827	1115.0818	1154.8039	1170.834	1183.1784	1236.3817	1267.0459	1279.9121	1326.9496	1360.3082	1396.7004	1404.	1410.7244	1419.2731	1425.8513	1454.271	1476.7871	1490.9321	1493.2944	1498.3215	1503.3503	1510.6399	2985.629	3028.7891	3034.0152	3054.9028	3077.5669	3087.3161	3094.7178	3105.4365	3115.7163	3122.6255	3130.2401	3141.7331	3685.5498	3793.6364
CC(O)C1C(C)C1CO	C[C@@H](O)[C@H]1[C@@H](C)[C@H]1CO	
InChI=1S/C7H14O2/c1-4-6(3-8)7(4)5(2)9/h4-9H,3H2,1-2H3	InChI=1S/C7H14O2/c1-4-6(3-8)7(4)5(2)9/h4-9H,3H2,1-2H3/t4-,5+,6+,7+/m0/s1
