17
gdb 42585	3.51235	1.81918	1.58128	3.3138	74.21	-0.2294	-0.0115	0.218	871.4028	0.139868	-384.691652	-384.68586	-384.684916	-384.721617	25.098	
O	-0.0487127397	-0.0488006189	 0.004846831	-0.342752
C	-0.0460905163	 1.1547189149	 0.0106231216	 0.449324
C	-1.1986961902	 2.1109968121	 0.0320676915	-0.204978
C	-0.7136872361	 3.3491856129	 0.7809363239	-0.065039
C	-0.7355188897	 3.3564580068	-0.7185598457	-0.065042
C	 0.7841414223	 3.2673615737	-1.017415572	-0.053701
C	 1.3972014184	 4.2686167602	 0.004754167	-0.229861
C	 0.814012555	 3.2573914048	 1.0345576346	-0.053701
C	 1.1244301802	 2.1225061133	-0.0017041122	-0.166653
H	-2.2283222426	 1.7819362998	 0.0454682886	 0.103836
H	-1.3786912838	 3.937737689	 1.3980035167	 0.097603
H	-1.4181254237	 3.9508694124	-1.3102686382	 0.097603
H	 1.0959964675	 3.2178294183	-2.0599477605	 0.075016
H	 2.4903873003	 4.2685968212	-0.0111566383	 0.101367
H	 1.0165662493	 5.2944610115	 0.0152793842	 0.093444
H	 1.1560725905	 3.1977787281	 2.0670409401	 0.075017
H	 2.1296216086	 1.7119328699	-0.0183303122	 0.088516
153.4836	355.5544	454.8904	484.6329	576.1503	655.4806	671.838	763.8064	792.0497	799.3625	844.6883	862.2594	870.1475	878.2738	896.6239	932.4025	952.7985	958.8658	997.5839	1000.2021	1049.0925	1067.2638	1070.9811	1095.5876	1113.0071	1166.6578	1175.6408	1216.6488	1227.8209	1246.7634	1252.0334	1276.804	1297.9645	1305.2744	1359.2468	1499.7538	1858.0824	3049.5193	3111.0188	3123.0241	3124.3974	3170.2473	3203.7158	3209.6967	3223.6805
O=C1C2C3C2C2CC3C12	O=C1[C@H]2[C@@H]3[C@H]2[C@H]2C[C@@H]3[C@@H]12	
InChI=1S/C8H8O/c9-8-4-2-1-3(4)6-5(2)7(6)8/h2-7H,1H2	InChI=1S/C8H8O/c9-8-4-2-1-3(4)6-5(2)7(6)8/h2-7H,1H2/t2-,3+,4-,5+,6-,7+
