17
gdb 46718	3.07778	1.70227	1.26741	2.0906	72.32	-0.2287	-0.0238	0.2049	976.7755	0.139191	-417.948555	-417.941812	-417.940868	-417.979856	27.16	
O	 0.0222979516	-0.1061993048	 0.0487505432	-0.315941
C	-0.0045140819	 1.0963545439	 0.1715582371	 0.377229
C	-1.3094452744	 1.861181422	 0.361378895	-0.272466
N	-1.0938658425	 3.1733286099	 0.9693231748	-0.333838
C	 0.1940485514	 3.7628487257	 0.7436771489	 0.076128
C	 1.0880645157	 3.4003962733	-0.4999801822	-0.093158
N	 2.2592352201	 3.8832529308	 0.3273802213	-0.320929
C	 1.4461789949	 3.004033241	 1.2520912329	-0.057238
C	 1.2250127606	 1.9598001518	 0.1000466281	-0.116077
H	-1.7495090087	 1.9294702408	-0.6496285935	 0.121626
H	-1.9902557253	 1.2505736044	 0.9624983373	 0.135741
H	-1.8336628883	 3.8170064344	 0.7239842322	 0.230058
H	 0.1910858307	 4.8239992578	 0.9928316874	 0.097042
H	 0.9707621674	 3.6728670497	-1.5504966171	 0.085194
H	 3.0958015317	 3.3665803326	 0.0391610159	 0.212418
H	 1.7454217447	 2.7952949485	 2.2800489483	 0.093523
H	 2.1062041922	 1.3854168781	-0.1979858098	 0.080687
90.9621	162.0982	374.7489	384.1657	444.5979	469.5841	563.4579	588.2748	621.8998	724.2107	752.3677	803.9579	850.3565	889.6795	898.8594	941.2545	973.1009	1008.8144	1025.2462	1031.16	1113.8436	1120.1364	1147.3321	1162.8949	1185.667	1198.0827	1227.4297	1254.5037	1262.4716	1268.9058	1290.7003	1309.3803	1347.4541	1420.836	1478.1639	1492.0442	1815.5725	2948.9303	3073.6041	3085.3037	3097.2236	3109.6361	3125.0709	3393.4517	3570.4237
O=C1CNC2C3NC2C13	O=C1CN[C@@H]2[C@H]3N[C@@H]2[C@@H]13	
InChI=1S/C6H8N2O/c9-2-1-7-6-4-3(2)5(6)8-4/h3-8H,1H2	InChI=1S/C6H8N2O/c9-2-1-7-6-4-3(2)5(6)8-4/h3-8H,1H2/t3-,4-,5+,6+
