22
gdb 113168	2.94344	0.98259	0.86791	2.5726	84.53	-0.2468	-0.0189	0.2279	1470.212	0.191789	-404.3613	-404.350688	-404.349744	-404.397153	38.417	
C	-0.1444710803	 1.4337454731	 0.1006474513	-0.374833
C	-0.3545949984	-0.0716663005	-0.1068340388	-0.197161
C	 0.38136648	-0.5662330705	-1.3318042204	-0.004701
N	 1.8082303791	-0.844200489	-1.213391054	-0.362258
C	 0.906975279	-1.9737391254	-1.5035824298	 0.186337
C	 0.7680854795	-3.0311846172	-0.4278886762	-0.481083
C	 0.9042874397	-2.4169394971	-2.9480933132	 0.338503
C	 0.2485578627	-3.7379558363	-3.295209575	-0.489943
O	 1.4088152618	-1.7169780423	-3.8040850288	-0.326473
H	 0.9189297875	 1.6570304911	 0.2288201066	 0.13357
H	-0.5076001811	 2.0082843774	-0.7586277449	 0.114676
H	-0.67767717	 1.7873900529	 0.9881359523	 0.112239
H	-0.0090554365	-0.6118959329	 0.7787575035	 0.104643
H	-1.4247016194	-0.2881785533	-0.2191800779	 0.096686
H	 0.0648177828	-0.0962727124	-2.2633442194	 0.095498
H	 2.2677815495	-0.5967674537	-2.090639406	 0.242619
H	 0.8750718342	-2.5839817535	 0.5606706942	 0.138368
H	-0.2015891201	-3.5369934871	-0.474083292	 0.117861
H	 1.5510691316	-3.7911992446	-0.5255559636	 0.123976
H	 0.7822245167	-4.5677766546	-2.819333282	 0.146088
H	-0.7816940384	-3.7702613847	-2.9244875409	 0.141343
H	 0.2583190503	-3.8722040793	-4.377105045	 0.144046
60.6929	76.3959	135.5333	153.4774	161.2272	190.7632	238.2443	275.3382	281.077	357.5762	414.3282	448.8815	472.4276	579.4552	627.9676	674.8979	767.7605	815.4058	851.0857	915.8478	967.9509	986.485	1024.0504	1032.0307	1077.1745	1090.4837	1107.9047	1118.4709	1139.9327	1204.5087	1260.339	1292.4946	1309.7483	1344.8688	1360.3148	1384.6808	1406.1338	1419.0257	1454.6875	1461.0887	1474.7343	1475.7205	1493.8067	1497.8596	1500.6967	1509.478	1776.9294	3029.7815	3034.9438	3037.8559	3042.3557	3083.2371	3096.4136	3102.4198	3102.5172	3111.6817	3116.3647	3143.9674	3155.6773	3458.3937
CCC1NC1(C)C(C)=O	CC[C@H]1N[C@]1(C)C(=O)C	
InChI=1S/C7H13NO/c1-4-6-7(3,8-6)5(2)9/h6,8H,4H2,1-3H3	InChI=1S/C7H13NO/c1-4-6-7(3,8-6)5(2)9/h6,8H,4H2,1-3H3/t6-,7-/m1/s1
