16
gdb 29654	2.43016	1.6361	0.98968	4.0129	68.42	-0.1722	0.0454	0.2176	1132.1165	0.124302	-471.247475	-471.238091	-471.237147	-471.281345	33.686	
C	-0.1437585837	 1.4442287376	 0.0139737064	-0.347386
N	-0.0538484387	 0.0030955765	 0.0286178357	-0.132028
C	-0.0331276149	-0.7631860826	-1.1321562712	 0.44612
O	-0.0430410064	-0.3656445591	-2.2835708675	-0.444045
N	-0.0002445662	-2.073996277	-0.6721889823	-0.425824
C	 0.1035914205	-2.092290611	 0.7307669126	 0.250051
O	 0.2225589697	-3.2477138095	 1.4396408104	-0.433859
C	 0.0374734688	-0.817806649	 1.164324911	 0.197432
N	-0.076377213	-0.2818211387	 2.4546413007	-0.61035
H	 0.8028457362	 1.9179601648	 0.3026445844	 0.121873
H	-0.379701329	 1.7377814949	-1.0101267539	 0.169045
H	-0.9295836382	 1.7865898339	 0.6931341648	 0.140747
H	 0.2646139036	-2.8326339351	-1.2767948581	 0.264856
H	-0.6198467381	-3.7213071087	 1.4305429581	 0.302413
H	-0.1467289024	-1.0336515264	 3.1310364933	 0.252379
H	 0.726147792	 0.2884434493	 2.7089671457	 0.248576
104.3641	122.1699	167.7448	193.8868	247.6792	256.5268	268.1901	281.0279	328.1286	356.069	447.9087	563.5495	622.492	642.5203	665.598	745.6634	759.5977	835.1707	933.9926	1021.1939	1158.7773	1160.2423	1218.7323	1228.9954	1264.1701	1273.996	1361.3243	1418.1347	1437.8735	1477.0539	1497.9843	1517.1371	1649.2452	1770.5829	1827.5604	3021.4163	3089.3067	3149.1696	3482.2998	3587.7465	3680.1899	3727.0395
CN1C(=O)NC(O)=C1N	Cn1c(=O)[nH]c(O)c1N	
InChI=1S/C4H7N3O2/c1-7-2(5)3(8)6-4(7)9/h8H,5H2,1H3,(H,6,9)	InChI=1S/C4H7N3O2/c1-7-2(5)3(8)6-4(7)9/h8H,5H2,1H3,(H,6,9)
