19
gdb 54309	2.64773	1.351	1.08782	1.6593	75.43	-0.2448	-0.0219	0.2229	1183.0073	0.156791	-423.011912	-423.002637	-423.001692	-423.046517	33.938	
C	-0.1182209395	 1.4824644317	 0.2085609551	-0.479895
C	-0.1947873922	-0.0298317486	 0.1999677029	 0.330758
O	-0.5168795154	-0.6754694196	 1.1714021623	-0.304381
C	 0.1710401518	-0.7427409233	-1.0896101337	 0.26828
C	-0.6025346947	-0.3908686571	-2.3023675834	-0.217344
O	 0.7273646573	 0.085204797	-2.1196609934	-0.263104
C	 0.7696802612	-2.1068933322	-0.9231816251	-0.060675
C	 1.4867798172	-2.77561647	-2.0635354452	-0.284488
C	 2.2711017817	-2.2604837681	-0.8827208048	-0.262427
H	 0.927129837	 1.7918353583	 0.1004153779	 0.155339
H	-0.6559594933	 1.924638317	-0.6348473654	 0.141245
H	-0.519449994	 1.8561906311	 1.1510318222	 0.139882
H	-0.7275099617	-1.1563268265	-3.0655536974	 0.128922
H	-1.3819670674	 0.3682593912	-2.2629379418	 0.120421
H	 0.201099326	-2.7309281361	-0.2437584428	 0.111125
H	 1.363970017	-3.8460602729	-2.1832566885	 0.112977
H	 1.5825659833	-2.2207347344	-2.9903299249	 0.123827
H	 2.8705572353	-1.3712238856	-1.0434169561	 0.122302
H	 2.6910410604	-2.9708213418	-0.1801059278	 0.117236
63.4647	74.612	111.037	170.0685	200.1369	262.842	297.4182	360.1324	458.3607	479.754	561.6881	616.2509	650.7544	789.269	811.3249	827.7376	873.7246	904.5623	931.217	964.4676	980.6005	1045.9631	1063.2785	1090.8966	1098.4738	1115.5704	1133.4609	1140.5395	1168.6268	1200.6189	1224.0171	1281.4719	1359.8288	1385.7914	1414.959	1452.781	1460.6073	1468.6426	1501.5634	1521.485	1803.865	3047.8722	3090.6976	3110.2819	3136.4912	3140.3859	3157.7226	3182.4511	3183.9248	3218.3327	3233.1154
CC(=O)C1(CO1)C1CC1	CC(=O)[C@]1(CO1)C1CC1	
InChI=1S/C7H10O2/c1-5(8)7(4-9-7)6-2-3-6/h6H,2-4H2,1H3	InChI=1S/C7H10O2/c1-5(8)7(4-9-7)6-2-3-6/h6H,2-4H2,1H3/t7-/m1/s1
