16
gdb 5316	4.65096	1.70734	1.27423	1.8192	68.34	-0.193	0.0327	0.2257	939.9648	0.131296	-379.947201	-379.939322	-379.938378	-379.979686	27.883	
C	-0.0541828991	 1.4020976076	 0.035361972	-0.331667
N	-0.2077996596	-0.0419041144	-0.0188132443	-0.167644
C	 0.110308535	-0.7843981718	 1.1882089342	-0.340118
C	-0.0571615665	-0.6341736003	-1.2379712763	 0.531939
N	 0.0069291425	-0.054482809	-2.4043397317	-0.378353
C	 0.078720399	-1.1200962949	-3.2975450611	-0.106024
C	 0.0684684149	-2.2876198362	-2.6254017384	-0.062096
O	-0.0159721107	-1.9886083713	-1.2749828676	-0.206516
H	 0.9996223689	 1.7063593983	 0.1256341396	 0.117407
H	-0.4602152475	 1.8389707538	-0.8765148675	 0.167163
H	-0.602570264	 1.7862720773	 0.9006235147	 0.12124
H	-0.4255308572	-0.3361615245	 2.0298413955	 0.127657
H	-0.2093081381	-1.8209466173	 1.0842431673	 0.154067
H	 1.1869470749	-0.7715761866	 1.4200410402	 0.118803
H	 0.1381074386	-0.9576163389	-4.3623491206	 0.117584
H	 0.1177996791	-3.3312201217	-2.878793696	 0.136559
78.8356	122.7437	164.3895	182.0658	244.4497	314.961	371.1991	519.1522	609.6043	622.232	680.1813	760.3986	861.947	918.9008	932.1221	1007.2604	1074.7091	1089.6057	1131.1057	1139.4484	1174.873	1179.9517	1220.768	1282.2553	1326.4374	1434.525	1446.5812	1468.6765	1486.0708	1497.2526	1502.8129	1516.673	1585.3513	1664.3627	2983.3359	2993.8192	3080.5706	3082.8596	3153.1695	3157.5491	3259.201	3310.0043
CN(C)C1=NC=CO1	CN(C)c1ncco1	
InChI=1S/C5H8N2O/c1-7(2)5-6-3-4-8-5/h3-4H,1-2H3	InChI=1S/C5H8N2O/c1-7(2)5-6-3-4-8-5/h3-4H,1-2H3
