15
gdb 51379	3.81697	1.03045	0.96668	2.9128	69.46	-0.2539	0.0003	0.2542	1215.4901	0.112621	-453.929955	-453.922141	-453.921197	-453.96342	28.669	
N	-0.2329670593	 1.2074667145	 0.1113568971	-0.543646
C	-0.1564695048	-0.0400369788	 0.1011668071	 0.450156
O	 0.9738670202	-0.8762762922	 0.1655556893	-0.288342
C	 0.132840628	-2.0318549957	-0.0976386012	 0.017864
C	-0.7918045981	-2.2248073668	 1.0393825491	 0.044035
N	-0.4061449165	-1.9238880223	 2.3750483021	-0.293418
C	-1.11665144	-2.3654148308	 3.4516245381	 0.158974
O	-2.1265493793	-3.0312167189	 3.3859931935	-0.319139
C	-1.1205536905	-1.1671627916	-0.0365100608	-0.23607
H	 0.6878753501	 1.6413515383	 0.1913596465	 0.235894
H	 0.495506656	-2.7519252386	-0.8189615604	 0.134115
H	-1.4527961759	-3.083500351	 0.9922720269	 0.154666
H	 0.4355226438	-1.3858139212	 2.512423726	 0.265961
H	-0.6532288735	-2.0492953589	 4.4056024747	 0.085474
H	-2.03866859	-1.1738398361	-0.6046371881	 0.133476
35.795	120.8192	170.5541	233.8247	252.1586	426.3693	437.5184	548.3941	604.1861	689.5883	710.2025	769.0915	816.21	821.4319	869.4585	903.5151	947.5484	972.7911	1014.1063	1028.8417	1031.6557	1057.9803	1088.9073	1145.6435	1187.6169	1236.4284	1294.3443	1306.0904	1395.7544	1429.5029	1534.0155	1805.4643	1838.5913	2954.5584	3191.3186	3209.633	3238.4074	3485.3189	3631.3049
N=C1OC2C(NC=O)C12	[NH][C]1O[C@H]2[C@@H](NC=O)[C@@H]12	
InChI=1S/C5H6N2O2/c6-5-2-3(7-1-8)4(2)9-5/h1-4,6H,(H,7,8)	InChI=1S/C5H6N2O2/c6-5-2-3(7-1-8)4(2)9-5/h1-4,6H,(H,7,8)/t2-,3+,4-/m1/s1
