17
gdb 8903	2.87399	1.28968	1.22214	4.3244	64.51	-0.2751	0.0373	0.3125	1079.4882	0.140503	-401.00507	-400.99571	-400.994766	-401.039273	33.093	
C	-0.3298087722	 1.364422029	-0.0923737353	-0.423819
C	 0.1373273869	-0.0754448297	 0.1953685392	-0.134226
C	 0.6998736815	-0.6792792781	-1.0150751714	 0.26731
N	 1.1402350604	-1.1584770752	-1.9702183923	-0.324774
C	 1.1552426264	-0.1784915449	 1.3673108339	 0.091383
O	 2.2694317561	 0.6771106837	 1.2147300368	-0.421674
C	 0.4788050075	 0.0384607059	 2.7311413348	-0.117999
O	-0.6177323807	-0.8318585704	 2.9484107972	-0.404446
H	 0.5104003758	 1.9946131344	-0.396850255	 0.137207
H	-1.0600992067	 1.3731824539	-0.9042586481	 0.147205
H	-0.8053159273	 1.8007334217	 0.790135882	 0.13078
H	-0.7288920389	-0.6773755092	 0.4944021204	 0.141207
H	 1.5740734884	-1.1918060789	 1.3520274097	 0.10559
H	 1.9740212971	 1.5889506911	 1.3131637674	 0.289186
H	 1.2470322195	-0.0543350416	 3.5106250312	 0.113104
H	 0.0741789226	 1.0558100787	 2.7945720176	 0.109952
H	-0.2732211163	-1.7178957105	 3.1008128119	 0.294014
49.4035	122.4695	154.626	199.4459	216.7259	264.6466	269.0203	323.1811	328.5976	382.4221	480.2929	493.0182	574.0346	645.3886	759.446	885.0769	973.0083	1006.3746	1035.9988	1082.0319	1106.1655	1110.9314	1133.9866	1181.8484	1267.8207	1314.9861	1331.5648	1369.7569	1388.3227	1406.2547	1413.8406	1426.7657	1493.6479	1502.6657	1512.345	2357.624	3015.0606	3040.1011	3050.3354	3054.6606	3069.1848	3125.6711	3131.4905	3805.9494	3817.7123
CC(C#N)C(O)CO	C[C@@H](C#N)[C@@H](O)CO	
InChI=1S/C5H9NO2/c1-4(2-6)5(8)3-7/h4-5,7-8H,3H2,1H3	InChI=1S/C5H9NO2/c1-4(2-6)5(8)3-7/h4-5,7-8H,3H2,1H3/t4-,5-/m0/s1
