22
gdb 57288	3.50833	0.69255	0.68853	1.8408	93.91	-0.228	0.0413	0.2693	1806.4388	0.192291	-367.168676	-367.158023	-367.157079	-367.205878	38.827	
C	-0.0070926226	 1.5394766652	 0.00405693	-0.389807
C	-1.121*^-7	-0.0064457713	 0.0059542644	 0.074116
C	 0.7321181918	-0.5199893457	 1.2665717776	-0.390252
C	-1.4541605487	-0.5309236504	 0.0005998544	-0.389604
C	 0.6992603943	-0.4870464867	-1.1926254844	 0.142834
C	 1.2792386834	-0.8771381941	-2.1762937418	 0.000317
C	 1.9435542282	-1.3505977449	-3.3587448298	-0.156612
C	 3.2670611094	-2.0353854857	-3.2517304567	-0.226818
N	 2.0738368937	-2.8090821795	-3.609304864	-0.308258
H	 1.0123162687	 1.9353797055	 0.0082911393	 0.120513
H	-0.5183739129	 1.9268304456	-0.8817172425	 0.12114
H	-0.5266377893	 1.9135393908	 0.8928678089	 0.110285
H	 0.2219466061	-0.1660381215	 2.1688511167	 0.110841
H	 0.7508310609	-1.6134016424	 1.2898720681	 0.117414
H	 1.7649469425	-0.1612643009	 1.291921823	 0.119771
H	-1.9924337746	-0.1810908538	-0.8847435801	 0.121436
H	-1.4756174958	-1.6244399779	 0.000303179	 0.118572
H	-1.9860605475	-0.1764345049	 0.8901976824	 0.10972
H	 1.7399789426	-0.7856277492	-4.2651177666	 0.113585
H	 3.9926931155	-1.9148209115	-4.0512755222	 0.122765
H	 3.6900868017	-2.1462037545	-2.2577632433	 0.120651
H	 1.7347432146	-3.3078586925	-2.7899336623	 0.237392
13.0272	82.442	89.1033	185.05	203.056	219.9751	276.2228	277.0134	321.2108	351.2037	355.3501	477.472	487.8499	557.5905	562.6475	637.1886	791.6752	815.4091	874.1645	930.3952	931.8041	958.2916	965.0252	985.1539	1048.3456	1048.8443	1051.1158	1115.212	1146.7825	1198.9234	1223.0231	1223.8577	1252.0822	1291.3936	1302.9133	1393.888	1394.5264	1395.8103	1427.1097	1474.4317	1485.0143	1486.2814	1498.4325	1498.9165	1504.5682	1518.6416	2350.6728	3032.0479	3032.1548	3038.7027	3104.1196	3104.3842	3110.7223	3112.9648	3113.8843	3117.6997	3118.9348	3134.8207	3203.3083	3503.1724
CC(C)(C)C#CC1CN1	CC(C)(C)C#C[C@H]1CN1	
InChI=1S/C8H13N/c1-8(2,3)5-4-7-6-9-7/h7,9H,6H2,1-3H3	InChI=1S/C8H13N/c1-8(2,3)5-4-7-6-9-7/h7,9H,6H2,1-3H3/t7-/m0/s1
