16
gdb 128409	3.70006	1.10662	0.8739	5.8897	68.73	-0.2342	-0.0188	0.2154	1277.3833	0.124455	-471.176919	-471.168645	-471.167701	-471.210105	30.028	
C	 0.1700473259	 1.4937339861	 0.0175776649	-0.321227
N	 0.1334396085	 0.0334280276	-0.0874491283	-0.314047
H	 1.1842294634	-1.2247528763	 0.8967947025	 0.303596
H	-0.7830678359	-0.2983735166	 0.2020731385	 0.241635
C	 0.3943396742	-0.4671820182	-1.4536152884	-0.272396
C	 0.6432820897	-1.9377400987	-1.3692857679	 0.097132
C	 1.1522624337	-2.6202618605	-0.2837491575	 0.438045
O	 1.483454338	-2.1714380347	 0.9120282078	-0.391561
O	 1.2740547632	-3.8945215399	-0.5595772378	-0.220141
N	 0.7874302197	-4.0211737241	-1.9778169747	-0.044778
N	 0.4531506352	-2.8718974057	-2.3409549508	-0.163589
H	 1.1848560946	 1.8465102716	-0.1891632173	 0.140261
H	-0.5150960939	 1.9965136439	-0.6817408699	 0.117954
H	-0.0923994065	 1.7914564404	 1.0358020268	 0.134082
H	-0.4221010493	-0.2467238073	-2.1574112565	 0.124785
H	 1.2797877395	 0.0667136824	-1.8247831214	 0.13025
79.021	134.6168	176.9442	250.2611	261.8018	305.5077	328.2839	369.9456	389.5005	568.4275	669.011	708.9219	753.3069	792.6424	802.6358	934.452	968.0837	982.1821	1009.574	1119.4061	1153.6526	1177.6432	1217.5534	1258.8451	1307.5396	1361.2273	1432.5883	1457.0286	1461.9674	1476.3051	1493.4149	1507.3888	1515.9776	1560.7907	1636.2871	2991.4257	2994.8606	3027.7492	3082.1707	3123.0819	3288.059	3499.2638
C[NH2+]CC1=C([O-])ON=N1	CNCc1c(O)onn1	
InChI=1S/C4H7N3O2/c1-5-2-3-4(8)9-7-6-3/h5,8H,2H2,1H3	InChI=1S/C4H7N3O2/c1-5-2-3-4(8)9-7-6-3/h5,8H,2H2,1H3
