18
gdb 89773	1.99566	1.69327	1.02577	5.7656	77.97	-0.2393	0.0144	0.2537	1181.8846	0.147412	-398.080641	-398.071912	-398.070968	-398.114256	32.098	
C	-0.0346152839	 1.5140178024	 0.0759629471	-0.334397
N	-0.0094847176	 0.0690575323	 0.1468224163	-0.067534
C	-1.254469023	-0.659775922	 0.4699019633	-0.25041
C	-0.4319042886	-1.5901880487	 1.3640699264	 0.324062
C	-0.8479128997	-2.4825647563	 2.4592894562	-0.306061
N	-0.2401153421	-3.0166349137	 1.2225275445	-0.335228
C	 0.7168982049	-0.5638341138	 1.2679456221	-0.205508
C	 2.0660220705	-1.0346688189	 0.9581693721	 0.325735
N	 3.1406830674	-1.3903900918	 0.7277174889	-0.329656
H	 0.9786975381	 1.8907094441	-0.0930368999	 0.140483
H	-0.6541406993	 1.8274264006	-0.769880103	 0.131485
H	-0.4344472567	 1.9884229693	 0.9918484369	 0.096703
H	-1.9861834837	-0.060050525	 1.0353737626	 0.098503
H	-1.7538876561	-1.1060714839	-0.3980203029	 0.115656
H	-0.2329580384	-2.5883233226	 3.3490012093	 0.132137
H	-1.9148688761	-2.6138611011	 2.6248565141	 0.119692
H	-0.9440971235	-3.418942672	 0.6084937097	 0.239121
H	 0.7649173078	 0.0677717513	 2.1710657064	 0.105219
71.8793	116.4022	159.4133	214.2457	242.7717	296.1418	313.6349	375.9482	389.8964	507.1955	553.3433	560.7184	784.877	824.9422	878.1522	899.9905	937.1494	976.8619	991.6935	1016.3655	1050.0322	1080.8192	1124.5674	1145.2535	1159.1313	1192.6542	1208.8598	1256.4937	1257.3788	1290.1479	1316.207	1362.0063	1434.1163	1452.4994	1486.9267	1496.2757	1511.7244	1521.4454	2362.2328	2931.8756	2959.3527	2971.297	3047.925	3069.0701	3103.5683	3111.9802	3189.0445	3501.959
CN1CC2(CN2)C1C#N	CN1C[C@]2(CN2)[C@H]1C#N	
InChI=1S/C6H9N3/c1-9-4-6(3-8-6)5(9)2-7/h5,8H,3-4H2,1H3	InChI=1S/C6H9N3/c1-9-4-6(3-8-6)5(9)2-7/h5,8H,3-4H2,1H3/t5-,6-/m1/s1
