13
gdb 131710	6.57742	0.86081	0.78239	3.3961	61.96	-0.2795	-0.0885	0.191	1355.8007	0.088224	-489.875288	-489.867126	-489.866182	-489.909492	27.58	
O	 0.4635367159	 0.4021861139	 0.9703151301	-0.395652
C	-0.0137885937	 0.1111857574	-0.3228681449	-0.188696
C	-1.4496377757	-0.3250018359	-0.328589588	 0.409781
N	-2.0155101409	-1.300867022	-0.967038366	-0.334249
C	-3.3339921535	-1.1676595433	-0.587534524	 0.25014
C	-4.3858473338	-2.0973836662	-1.0868579792	 0.09811
O	-5.5496798177	-2.0246630698	-0.7955312499	-0.224063
N	-3.5708156417	-0.1771628262	 0.2377325529	-0.13563
O	-2.315678024	 0.3922042315	 0.4101287842	-0.189987
H	-0.0301287827	 1.1530709678	 1.3172547979	 0.303876
H	 0.096190262	 0.9646737578	-1.0105299054	 0.13191
H	 0.5847131585	-0.7113403467	-0.7193728687	 0.162405
H	-3.9780657027	-2.8733056883	-1.7651286989	 0.112055
31.6888	89.6965	146.035	193.9717	248.9575	295.0087	352.0412	384.7441	540.4907	668.2668	707.3256	760.8439	789.2756	947.9697	980.7274	1025.5787	1039.5576	1058.4037	1088.8868	1200.446	1288.5973	1339.3727	1376.5293	1412.0624	1432.0875	1486.1461	1524.0152	1618.4131	1828.4438	2943.6465	2987.347	3122.2693	3817.1696
OCC1=NC(C=O)=NO1	OCc1nc(C=O)no1	
InChI=1S/C4H4N2O3/c7-1-3-5-4(2-8)9-6-3/h1,8H,2H2	InChI=1S/C4H4N2O3/c7-1-3-5-4(2-8)9-6-3/h1,8H,2H2
