18
gdb 65867	2.60243	1.27436	1.15814	3.8015	72.39	-0.2455	-0.0342	0.2113	1143.2494	0.147246	-439.146514	-439.137695	-439.136751	-439.180434	32.469	
C	-0.3552867852	 1.7765796603	 0.1449303413	-0.457902
C	 0.0887126632	 0.3056018785	 0.108051965	 0.185669
C	 0.9232807493	-0.0532849345	-1.1455660184	-0.205107
N	 1.8561081267	-1.0471805535	-0.6497303065	-0.303214
C	 1.996004277	-1.1048046005	 0.7081555008	 0.410488
O	 2.763002009	-1.8100013837	 1.3239523866	-0.375731
C	 1.0026450977	-0.090618461	 1.2912456026	-0.3941
C	-1.1791583237	-0.5480525177	 0.1672979108	 0.145292
O	-1.5928752531	-1.2566493041	-0.7107685962	-0.245517
H	 0.5166835704	 2.43448303	 0.20772992	 0.131137
H	-0.9222526077	 2.0421326196	-0.7534199919	 0.134088
H	-0.9895191431	 1.9770259733	 1.0151046671	 0.128971
H	 0.279591252	-0.463001897	-1.9286320631	 0.138079
H	 1.4401694912	 0.8326600732	-1.5391299814	 0.101424
H	 2.455434234	-1.5935958609	-1.2474260888	 0.255521
H	 1.5636424956	 0.769530709	 1.6728151725	 0.131438
H	 0.4699632715	-0.5282371768	 2.1405017169	 0.132365
H	-1.7314908748	-0.4446732143	 1.1304766125	 0.087099
58.8561	94.4278	134.6585	225.5279	286.2622	300.1513	322.8125	372.485	466.3848	481.4739	535.6828	595.703	639.5127	694.0472	817.6895	868.0547	885.0521	932.6665	957.8348	1007.992	1016.4399	1075.4938	1128.9284	1157.1152	1196.9997	1228.6408	1264.9964	1294.4063	1310.2696	1352.6032	1404.2842	1416.9131	1452.0018	1470.4386	1493.9939	1496.9251	1527.5769	1834.741	1836.5285	2863.1409	3006.0836	3031.521	3051.5688	3090.7272	3096.7271	3102.0201	3108.931	3646.4149
CC1(CNC(=O)C1)C=O	C[C@]1(CNC(=O)C1)C=O	
InChI=1S/C6H9NO2/c1-6(4-8)2-5(9)7-3-6/h4H,2-3H2,1H3,(H,7,9)	InChI=1S/C6H9NO2/c1-6(4-8)2-5(9)7-3-6/h4H,2-3H2,1H3,(H,7,9)/t6-/m0/s1
