17
gdb 72429	2.86009	1.60106	1.34107	2.8373	67.36	-0.2342	-0.0246	0.2096	975.5803	0.136688	-458.981611	-458.974233	-458.973289	-459.013134	29.576	
O	-0.0484764235	 1.3591584059	 0.0130545765	-0.488951
C	 0.0243215053	-0.0400102431	 0.0012786785	 0.360877
C	 0.636011344	-0.695875189	 1.2574934155	-0.115138
O	 0.1677673768	-2.053450782	 1.1957364577	-0.277244
C	-0.7544673095	-2.1300215975	 0.0829712588	-0.009125
C	-1.3584582136	-0.7279995436	 0.0117685189	-0.280996
C	 0.1614775671	-2.1404795476	-1.1559927685	 0.441996
O	 0.4261198348	-3.0579466769	-1.8819358662	-0.319582
C	 0.6951632491	-0.6929624364	-1.2303250689	-0.402094
H	 0.8437116282	 1.7140666082	-0.0631554693	 0.284021
H	 1.7330110352	-0.6879728119	 1.2576689813	 0.099275
H	 0.2753395638	-0.2068256582	 2.170861918	 0.109009
H	-1.3962760914	-2.9992914434	 0.2077193936	 0.097723
H	-1.9549951428	-0.468540992	 0.8888200662	 0.121413
H	-1.9324056508	-0.5421034544	-0.9000382411	 0.117762
H	 0.3485815213	-0.2198462429	-2.1555826256	 0.13705
H	 1.789295146	-0.6686985152	-1.2209937656	 0.124004
118.7691	244.7861	259.2309	306.1388	328.8694	416.8108	460.237	474.7547	527.8391	586.4528	612.0776	703.7688	789.8786	817.9302	894.709	922.9462	937.6769	952.7826	989.0008	1036.0199	1049.5783	1078.5334	1122.337	1159.0303	1179.1799	1198.8107	1228.6312	1256.5534	1267.1423	1285.9186	1311.1895	1352.8335	1397.9723	1450.6819	1490.859	1530.0907	1868.901	3015.957	3050.3046	3059.9293	3070.175	3100.7547	3129.5624	3154.4875	3808.8607
OC12COC(C1)C(=O)C2	O[C@@]12CO[C@@H](C1)C(=O)C2	
InChI=1S/C6H8O3/c7-4-1-6(8)2-5(4)9-3-6/h5,8H,1-3H2	InChI=1S/C6H8O3/c7-4-1-6(8)2-5(4)9-3-6/h5,8H,1-3H2/t5-,6+/m0/s1
