19
gdb 35745	3.55126	1.12911	1.03442	3.2922	79.75	-0.2315	0.0274	0.2589	1211.2847	0.161194	-382.073252	-382.065003	-382.064059	-382.107039	31.668	
N	-0.0063923352	-0.995321125	 0.7662400777	-0.327479
C	-0.030853806	 0.0914177883	 0.3714652434	 0.25648
C	-0.0251454176	 1.4736758148	-0.134987368	-0.099915
C	-0.8407190209	 2.4152937923	 0.7919585146	-0.229926
C	 0.2144909178	 2.8856065704	 1.8031862617	-0.288566
C	 1.4322082386	 3.0512519253	 0.9093548556	 0.388622
C	 1.9521337758	 4.4208218301	 0.5430502335	-0.289542
C	 2.7832096329	 3.4754458609	 1.3899422077	-0.346008
N	 1.33983074	 2.0456692709	-0.1520532638	-0.360291
H	-0.4505054797	 1.4532750627	-1.1449327793	 0.125279
H	-1.2021388537	 3.259416526	 0.197535705	 0.119747
H	-1.7008142664	 1.9134950127	 1.2374661627	 0.124574
H	-0.0695973016	 3.8042370957	 2.3211286361	 0.10663
H	 0.3879401986	 2.1075059063	 2.5567743118	 0.117916
H	 2.2609206906	 4.5684746994	-0.4853974292	 0.119104
H	 1.5168713758	 5.2911626675	 1.0236666576	 0.109325
H	 2.9073743819	 3.6932489161	 2.445546031	 0.119016
H	 3.6527351966	 3.0212051976	 0.9252840606	 0.11761
H	 2.0333323227	 1.318004098	-0.0285091986	 0.237425
24.0341	122.3463	191.4852	255.5568	286.0612	343.2058	423.8178	459.6233	506.7889	599.6687	671.7813	688.1474	772.9294	791.7354	819.4782	893.5879	895.8472	917.0144	947.7171	979.3366	985.9824	1023.3561	1052.1271	1075.1862	1082.2078	1112.5993	1158.9705	1188.8323	1215.4818	1244.5755	1293.4287	1323.3194	1337.3598	1348.2545	1373.0769	1442.0656	1458.3262	1486.9226	1498.0896	1501.751	2346.9082	3034.998	3036.9635	3068.4584	3107.2311	3125.7003	3130.2009	3130.6022	3207.2021	3226.2111	3549.4538
N#CC1CCC2(CC2)N1	N#C[C@H]1CCC2(CC2)N1	
InChI=1S/C7H10N2/c8-5-6-1-2-7(9-6)3-4-7/h6,9H,1-4H2	InChI=1S/C7H10N2/c8-5-6-1-2-7(9-6)3-4-7/h6,9H,1-4H2/t6-/m1/s1
