15
gdb 21595	3.43208	1.89422	1.29461	2.9391	63.67	-0.1939	0.0242	0.2181	904.9757	0.121444	-395.988821	-395.981281	-395.980337	-396.020463	28.374	
N	 0.1480607866	 1.4201402308	-0.0696198172	-0.617326
C	 0.0561611117	 0.0225144364	-0.0527255244	 0.141319
C	-1.0540501262	-0.7980979388	-0.025350617	-0.117016
N	-0.5758160184	-2.0759085806	 0.0554843408	-0.188302
N	 0.7599144447	-2.1419238639	 0.0714718789	-0.290689
C	 1.1601063367	-0.8702862362	 0.0173924929	 0.268317
C	 2.6041119483	-0.4864318783	 0.0205233087	-0.184633
O	 2.9189171109	 0.4226132142	-1.0433073083	-0.417956
H	 1.0011690522	 1.7163922743	-0.5301729286	 0.254784
H	-0.6518589356	 1.8734159757	-0.4903021607	 0.237598
H	-2.1104808718	-0.5846000922	-0.0535402613	 0.120407
H	-1.1083557734	-2.9275500054	 0.0850873934	 0.2719
H	 2.8646473331	 0.060343117	 0.9336675875	 0.122968
H	 3.2242302869	-1.3912340262	-0.0183046282	 0.114309
H	 2.6912698243	-0.021721847	-1.8673762864	 0.284321
99.9401	169.7872	232.8968	295.3565	331.2232	390.494	415.5541	436.2036	468.5749	645.7188	668.7097	714.1615	736.1158	758.2723	806.2727	943.5635	971.5426	1030.741	1070.6519	1115.0162	1184.8653	1220.8665	1260.7251	1341.3742	1353.2325	1418.0272	1432.9792	1475.7946	1496.5005	1534.842	1633.1328	1661.1292	3023.571	3070.3677	3262.0378	3525.292	3623.327	3684.0696	3804.6548
NC1=CNN=C1CO	Nc1c[nH]nc1CO	
InChI=1S/C4H7N3O/c5-3-1-6-7-4(3)2-8/h1,8H,2,5H2,(H,6,7)	InChI=1S/C4H7N3O/c5-3-1-6-7-4(3)2-8/h1,8H,2,5H2,(H,6,7)
