23
gdb 101193	2.8826	1.04141	0.93356	1.5857	85.22	-0.2315	0.0777	0.3092	1402.6331	0.204891	-388.250224	-388.240598	-388.239654	-388.285165	36.139	
C	 0.138864169	 1.6273134881	-0.1664315353	-0.389963
C	 0.0832484003	 0.0962726658	-0.1521310428	-0.16368
C	-1.3188831728	-0.4948406805	 0.088650701	 0.01109
C	-2.3126057744	-0.1488226644	-1.0310597346	-0.398863
C	-1.2409549899	-2.003075749	 0.2537595068	-0.01965
C	-0.7030558888	-2.736614153	 1.4733019541	-0.16762
C	-1.2047499658	-2.0756676535	 2.7533967443	-0.093738
O	-2.5766549443	-2.0868639991	 2.2755430905	-0.283271
C	-2.1726451305	-2.8081392213	 1.1053278073	 0.06471
H	 1.1698979343	 1.9802205417	-0.2697060176	 0.110138
H	-0.4359056398	 2.0509671577	-0.9956133886	 0.117918
H	-0.2634698412	 2.0456757205	 0.7633297703	 0.112718
H	 0.4782045106	-0.2934107415	-1.1011188577	 0.087513
H	 0.7545829539	-0.2794714938	 0.6300710914	 0.093713
H	-1.7135965857	-0.0767585483	 1.0225561637	 0.087443
H	-1.9613973357	-0.5283251059	-1.9987731931	 0.10618
H	-3.291005301	-0.5964803357	-0.8315469739	 0.119678
H	-2.4552798099	 0.9309681727	-1.1290539063	 0.113085
H	-0.9728655814	-2.5345730932	-0.6602786949	 0.08388
H	 0.0730002031	-3.4882406748	 1.4189753	 0.095365
H	-1.1060941058	-2.7174573869	 3.6362003352	 0.108862
H	-0.8518194506	-1.0656128598	 2.9930540298	 0.104892
H	-2.8127139437	-3.6177763758	 0.7721641204	 0.0996
51.3726	80.5009	141.5658	168.6349	211.4375	246.0554	269.5083	315.1879	382.49	414.9773	512.5662	596.4509	754.0212	777.2008	790.4022	808.8798	848.4237	897.8819	960.1233	963.6565	974.1894	987.3004	992.6906	1023.6714	1043.8792	1053.8573	1075.9024	1087.6094	1126.009	1152.1324	1164.3067	1183.7736	1212.9511	1260.6155	1278.6776	1306.5624	1317.089	1348.5738	1370.4696	1378.9433	1406.1035	1413.6265	1446.8485	1483.0642	1495.3726	1498.3183	1505.965	1511.1752	1517.4037	3007.3632	3022.4282	3025.4385	3032.2171	3036.3699	3050.1937	3069.04	3094.0181	3096.5413	3104.4853	3107.154	3112.9827	3170.2395	3199.993
CCC(C)C1C2COC12	CC[C@@H](C)[C@H]1[C@H]2CO[C@@H]12	
InChI=1S/C8H14O/c1-3-5(2)7-6-4-9-8(6)7/h5-8H,3-4H2,1-2H3	InChI=1S/C8H14O/c1-3-5(2)7-6-4-9-8(6)7/h5-8H,3-4H2,1-2H3/t5-,6-,7+,8-/m1/s1
