19
gdb 110368	4.68261	1.08597	1.0591	1.4043	75.27	-0.2382	0.0863	0.3245	1203.8585	0.159972	-422.958743	-422.951195	-422.950251	-422.99088	29.797	
C	-0.3285160572	 1.1678493056	 0.1830914795	-0.236761
O	 0.4928054324	 0.0504004192	-0.0893637586	-0.255293
C	 1.0049926013	-0.5339303202	 1.0653293574	 0.109152
C	 0.1664483476	-1.6198558025	 1.7141275642	-0.108731
C	 1.4130797222	-1.9657197538	 0.9022602975	-0.110455
C	 2.2515733618	-2.5711225075	 2.0475132156	 0.045557
C	 1.2448338835	-3.5305271129	 2.738742932	-0.215042
C	 0.6535273216	-2.1363920463	 3.0836342766	 0.046052
O	 2.0274800024	-1.6374088476	 3.1502660793	-0.291703
H	 0.2226602415	 1.9521194115	 0.7234714608	 0.10868
H	-0.6599162038	 1.5662244412	-0.7786408351	 0.126119
H	-1.208535764	 0.8901985895	 0.7813211729	 0.106724
H	 1.5930792371	 0.1286664387	 1.6965974321	 0.107238
H	-0.8368624362	-1.8172053112	 1.3581850766	 0.095061
H	 1.3729023235	-2.4286588326	-0.0753511359	 0.100759
H	 3.3002089591	-2.8123060541	 1.8759472277	 0.085339
H	 0.658419556	-4.2173225206	 2.122797669	 0.095766
H	 1.6770479899	-4.0245746629	 3.6105899132	 0.108567
H	 0.0641277614	-1.9325778833	 3.9772727053	 0.08297
92.128	161.2652	172.6807	277.5876	344.099	402.2772	444.5279	509.1305	637.4979	704.5216	793.6573	848.5223	858.2971	859.6018	868.0709	925.1505	943.8044	951.0086	972.4658	1009.4349	1046.8095	1070.8009	1087.6181	1096.1746	1111.3143	1161.7364	1174.6903	1179.3612	1183.7943	1219.8287	1233.6163	1248.1627	1268.551	1277.7552	1282.6448	1310.5915	1414.5531	1480.2037	1484.089	1486.0434	1508.5615	2983.4434	3033.0229	3063.9144	3118.3501	3124.3226	3127.1438	3128.4574	3141.2865	3193.9451	3202.9356
COC1C2C1C1CC2O1	CO[C@H]1[C@H]2[C@@H]1[C@@H]1C[C@H]2O1	
InChI=1S/C7H10O2/c1-8-7-5-3-2-4(9-3)6(5)7/h3-7H,2H2,1H3	InChI=1S/C7H10O2/c1-8-7-5-3-2-4(9-3)6(5)7/h3-7H,2H2,1H3/t3-,4+,5-,6+,7+
