19
gdb 85062	2.38852	1.56943	1.09606	5.147	71.59	-0.26	0.018	0.278	1145.6269	0.158429	-460.218538	-460.209418	-460.208474	-460.252121	34.073	
C	-0.3928604568	 1.4870653168	-0.1111839491	-0.430381
C	 0.0040712798	 0.0335455799	 0.0615865437	 0.126151
O	 0.6497623175	-0.4200935031	-1.1471124236	-0.239189
C	 1.6420002385	-1.3072008	-0.8615712025	 0.449453
O	 2.318737844	-1.8120096418	-1.7089963437	-0.345075
C	 1.6931150158	-1.5331124536	 0.6507038031	-0.150796
C	 3.0842591403	-1.8785635327	 1.1701494964	-0.407655
C	 1.0195863618	-0.2670609267	 1.1911798319	 0.059208
O	 2.0119731559	 0.7347896906	 1.3177750293	-0.418677
H	 0.4917254438	 2.1042916455	-0.2856875499	 0.139566
H	-1.0641288964	 1.598842864	-0.9658543562	 0.141892
H	-0.9165129144	 1.8486864936	 0.7807886465	 0.115309
H	-0.8897564578	-0.5866981194	 0.2185408915	 0.087277
H	 1.0090351553	-2.3726348096	 0.8418200227	 0.110291
H	 3.7558278209	-1.0244947139	 1.0720506096	 0.146617
H	 3.0482503556	-2.1695357837	 2.2238217215	 0.111146
H	 3.4925168567	-2.709050892	 0.5893714417	 0.139249
H	 0.5033434239	-0.4348561201	 2.1459047909	 0.073353
H	 1.6078696357	 1.5231638262	 1.6923361963	 0.292262
87.7596	135.0067	185.901	222.7533	244.8858	251.5509	275.5192	321.9008	344.856	468.6257	506.6335	548.2766	621.1789	704.8524	763.128	784.1627	861.0112	897.6761	960.1758	992.0163	1025.2163	1067.677	1093.4235	1130.7775	1151.5451	1185.1595	1195.4029	1198.5586	1298.687	1313.1561	1342.4231	1376.7711	1383.9888	1402.9118	1405.8967	1431.7248	1487.6104	1490.1537	1502.8343	1506.4133	1883.0196	3002.4509	3010.1773	3023.4017	3042.7203	3054.9889	3116.3	3125.3958	3135.6786	3148.8684	3831.0853
CC1OC(=O)C(C)C1O	C[C@H]1OC(=O)[C@@H](C)[C@H]1O	
InChI=1S/C6H10O3/c1-3-5(7)4(2)9-6(3)8/h3-5,7H,1-2H3	InChI=1S/C6H10O3/c1-3-5(7)4(2)9-6(3)8/h3-5,7H,1-2H3/t3-,4+,5+/m0/s1
