16
gdb 133588	3.09058	1.27564	1.1766	2.3374	60.6	-0.2694	0.0811	0.3505	1059.8482	0.121755	-532.233119	-532.225516	-532.224572	-532.265821	29.013	
F	 0.204087149	 0.0894215802	-0.1608638396	-0.081604
C	 0.0049271694	 1.4130745752	-0.0207741718	 0.272081
F	 1.2078987695	 2.0058613885	-0.0953227751	-0.081393
F	-0.7085739075	 1.8137919201	-1.088457439	-0.082687
C	-0.7029656329	 1.7717193123	 1.2665715546	-0.134943
C	-1.978628831	 0.9670179576	 1.6811383164	-0.266597
C	-1.3248627905	 0.6899885239	 3.0437826958	-0.039666
C	-0.0458225748	-0.0702221659	 2.8626411657	-0.27798
C	-0.04598508	 1.4137275905	 2.6045018613	-0.072573
H	-0.9194169594	 2.8407615538	 1.2059169706	 0.107134
H	-2.8631427867	 1.6035393467	 1.7309377651	 0.114223
H	-2.2124302866	 0.0846142885	 1.0790366401	 0.115214
H	-1.8339775218	 0.7447970822	 3.9973646461	 0.092356
H	 0.4529091529	-0.3560966175	 3.7832134923	 0.115462
H	 0.0714860235	-0.7820218296	 2.0532149972	 0.12514
H	 0.5859679867	 2.0886711834	 3.1673898704	 0.095834
57.1873	164.4609	170.0075	281.7479	355.7913	380.0622	447.6744	522.0863	572.9907	674.1473	698.7156	782.1964	797.0766	807.0279	915.6038	948.577	967.3593	1010.0786	1020.0831	1043.2226	1064.541	1079.0914	1090.8534	1142.7152	1161.5822	1194.5131	1212.2675	1244.211	1263.9401	1292.7101	1303.3914	1368.225	1401.0905	1484.0909	1503.408	3065.9653	3087.9416	3125.4501	3135.9123	3188.0981	3197.6947	3220.3838
FC(F)(F)C1CC2CC12	FC(F)(F)[C@H]1C[C@H]2C[C@@H]12	
InChI=1S/C6H7F3/c7-6(8,9)5-2-3-1-4(3)5/h3-5H,1-2H2	InChI=1S/C6H7F3/c7-6(8,9)5-2-3-1-4(3)5/h3-5H,1-2H2/t3-,4-,5+/m1/s1
