14
gdb 62413	2.40697	1.56111	1.36923	3.3748	66.47	-0.269	-0.0608	0.2082	983.4798	0.098944	-436.665577	-436.657477	-436.656533	-436.698293	29.357	
C	-0.0422689428	 1.5768968795	-0.0682432873	-0.453298
C	-0.0044250044	 0.0479306405	-0.0319445736	-0.0289
C	-1.3040510591	-0.5421664367	 0.2591324075	 0.246283
N	-2.334754496	-1.0216613512	 0.4713591301	-0.320975
C	 0.7208962238	-0.6850601614	-1.1969316206	 0.011783
O	 2.0448445984	-0.1902991531	-1.2048107847	-0.228669
C	 1.7468814287	-1.2945092504	-0.3175592463	-0.103369
C	 1.1052206505	-0.639641003	 0.8965195314	 0.408688
O	 1.2578113752	-0.6829975625	 2.0732005754	-0.270971
H	 0.9350108791	 1.9561500667	-0.3721158757	 0.151637
H	-0.8015546739	 1.9335004358	-0.7694274328	 0.143287
H	-0.2802788613	 1.9665375108	 0.924734057	 0.155798
H	 0.2918561703	-1.0707662296	-2.1129545476	 0.145151
H	 2.3415099315	-2.1941749154	-0.4127180327	 0.143554
108.9892	137.2364	179.8468	205.8457	224.0455	260.6488	404.7963	485.3153	507.9839	559.9924	659.4681	693.8912	738.5018	827.5253	854.34	893.2696	951.8572	955.0037	1014.8728	1062.9845	1129.0999	1158.9292	1180.2139	1217.7275	1267.8494	1340.9538	1405.799	1490.155	1495.8234	1919.2296	2348.5155	3053.6192	3127.8194	3146.3096	3205.0245	3217.8627
CC1(C#N)C2OC2C1=O	C[C@@]1(C#N)[C@H]2O[C@H]2C1=O	
InChI=1S/C6H5NO2/c1-6(2-7)4(8)3-5(6)9-3/h3,5H,1H3	InChI=1S/C6H5NO2/c1-6(2-7)4(8)3-5(6)9-3/h3,5H,1H3/t3-,5-,6-/m0/s1
