23
gdb 104980	2.36748	1.28003	1.0921	0.5997	81.	-0.2565	0.0724	0.3289	1254.0071	0.203053	-425.409107	-425.398466	-425.397522	-425.443988	40.886	
C	 0.1371861826	 1.5012142639	 0.163589166	-0.402272
C	 0.0467566252	-0.0234340521	 0.0067390929	 0.267714
C	 0.5218653536	-0.6788400299	 1.3140694391	-0.438344
O	-1.3552233886	-0.2946010356	-0.1645045707	-0.460028
C	 0.7945565793	-0.5145840608	-1.248518565	 0.332791
C	 0.3920870245	 0.2320298124	-2.5167009505	-0.156371
O	 0.9582576045	-0.4136241386	-3.6511444188	-0.426619
C	 2.2141599515	-1.015867332	-1.1779810204	-0.313597
C	 1.0847141538	-1.9932770172	-1.4069446583	-0.324271
H	 1.181411618	 1.8236777098	 0.2086594017	 0.115472
H	-0.3553436376	 2.0154996792	-0.6639195442	 0.122951
H	-0.3619504207	 1.8086796222	 1.0867187486	 0.116681
H	-0.1440202857	-0.3562379299	 2.1186032544	 0.12356
H	 0.4825880277	-1.7711384845	 1.2712170552	 0.110401
H	 1.5417133833	-0.3835802302	 1.5757557567	 0.118149
H	-1.4373834655	-1.2355808026	-0.3564664426	 0.275889
H	-0.7051689366	 0.2546777351	-2.5784100401	 0.101065
H	 0.7478474866	 1.2712282444	-2.4594979986	 0.087963
H	 0.7225203025	 0.0981630468	-4.4292562443	 0.289352
H	 2.8536930129	-0.7967525796	-2.0250959874	 0.122091
H	 2.7182204642	-1.0342400099	-0.2192465387	 0.10432
H	 0.8287421717	-2.6720457103	-0.6013672159	 0.10005
H	 0.9819378729	-2.4091588707	-2.400821769	 0.133054
58.7955	109.7474	202.4102	208.1886	233.6143	253.3501	273.7977	311.7168	321.1473	350.804	358.7479	369.5887	386.8594	480.3313	515.0381	543.5586	653.5967	794.194	817.5387	874.9784	900.2945	926.4279	937.4697	974.121	982.2741	1017.8292	1056.0631	1073.4277	1089.0925	1110.8581	1123.84	1178.6459	1192.5475	1201.4527	1221.007	1280.3063	1304.0826	1339.3928	1369.7407	1399.7041	1415.4593	1451.3602	1454.846	1477.9055	1491.517	1501.4646	1502.1477	1516.101	1532.0673	2983.5299	3023.2284	3043.3403	3049.7883	3113.4049	3116.2435	3123.9844	3132.1645	3145.4879	3147.2813	3227.6984	3241.0852	3798.7927	3844.6006
CC(C)(O)C1(CO)CC1	CC(C)(O)C1(CO)CC1	
InChI=1S/C7H14O2/c1-6(2,9)7(5-8)3-4-7/h8-9H,3-5H2,1-2H3	InChI=1S/C7H14O2/c1-6(2,9)7(5-8)3-4-7/h8-9H,3-5H2,1-2H3
