20
gdb 89784	2.51876	1.36752	1.0065	3.5076	79.7	-0.2322	-0.0208	0.2114	1225.5552	0.169504	-403.118872	-403.10961	-403.108665	-403.154439	33.914	
C	 0.1560010375	 1.5977391022	 0.0623719346	-0.397979
C	 0.0495037015	 0.081290423	 0.1256897263	 0.030214
C	 0.8276249979	-0.7465607273	-0.9467399159	-0.328677
C	 1.3071903112	-1.6814639531	 0.1664131976	 0.354322
C	 1.2952144689	-3.1593015072	 0.1623156832	-0.306975
N	 2.5684634802	-2.4140517947	 0.2512907828	-0.361268
C	 0.799191405	-0.7235683402	 1.2532089675	-0.197363
C	 1.8730054105	-0.0154336229	 2.0531086871	 0.134967
O	 1.724881438	 1.0548734984	 2.5905789441	-0.259127
H	 1.1971512683	 1.9287253687	 0.010471243	 0.12004
H	-0.361226983	 1.9700210832	-0.8291874552	 0.107539
H	-0.2894585832	 2.0675659053	 0.9427253186	 0.134751
H	-1.004848937	-0.2100012264	 0.1309198535	 0.08146
H	 0.2417986358	-1.1917570746	-1.7552262186	 0.104625
H	 1.6484110027	-0.1670560816	-1.3860095771	 0.104076
H	 1.0269927146	-3.7106840302	 1.0602750109	 0.119859
H	 1.0500380465	-3.6638796192	-0.7692700415	 0.11402
H	 3.0392964815	-2.4099490629	-0.6506433624	 0.232554
H	 0.1294880655	-1.1841783273	 1.9905608738	 0.10697
H	 2.8268995475	-0.578399683	 2.1372037776	 0.105994
19.3683	51.7496	169.4817	199.2229	226.6771	253.5093	322.8338	361.0373	367.5976	493.9119	502.0887	628.2648	743.9596	789.1259	835.0311	873.7464	891.4765	924.1736	957.3413	974.4997	981.1086	1016.9262	1031.0105	1095.6129	1105.4876	1125.9233	1151.9427	1158.3598	1212.1681	1249.582	1258.3369	1266.7497	1292.1449	1307.9414	1361.8039	1411.4796	1414.221	1417.0855	1481.8688	1488.0972	1493.4213	1514.0225	1812.4421	2912.0656	3028.7373	3033.2923	3037.1965	3058.0574	3095.4496	3099.9638	3104.594	3123.9466	3184.5784	3493.0888
CC1CC2(CN2)C1C=O	C[C@H]1C[C@]2(CN2)[C@H]1C=O	
InChI=1S/C7H11NO/c1-5-2-7(4-8-7)6(5)3-9/h3,5-6,8H,2,4H2,1H3	InChI=1S/C7H11NO/c1-5-2-7(4-8-7)6(5)3-9/h3,5-6,8H,2,4H2,1H3/t5-,6-,7-/m0/s1
