18
gdb 56288	6.76345	0.52365	0.49194	3.3816	74.65	-0.259	-0.0235	0.2355	2122.7703	0.143883	-439.105177	-439.094612	-439.093667	-439.143147	34.848	
C	 0.0010580531	 1.4894665496	-0.1150976225	-0.474002
C	-0.0088134016	-0.0190601672	 0.0387132886	 0.378272
O	-0.0433604252	-0.5567703725	 1.1228956159	-0.291343
C	 0.0271028184	-0.8304070419	-1.2485764947	-0.31949
C	 0.015395114	-2.3284978254	-0.9946693234	-0.051827
O	 0.050938821	-2.9774183996	-2.2574152862	-0.244048
C	 0.0432225859	-4.3764704653	-2.1360387936	-0.185673
C	 0.0791208159	-4.9772763102	-3.4729967692	 0.263908
N	 0.1069352453	-5.4782023925	-4.5126344183	-0.291765
H	 0.8983140851	 1.8121247148	-0.6550867003	 0.142791
H	-0.859944436	 1.81823099	-0.7078548999	 0.1428
H	-0.0268095271	 1.9616457077	 0.8673711795	 0.147015
H	-0.8270287751	-0.5471562792	-1.8768541495	 0.13736
H	 0.918338058	-0.5519849547	-1.8253402327	 0.13731
H	 0.8809186161	-2.6223948674	-0.3830057953	 0.11256
H	-0.8863980949	-2.6174811767	-0.4353197844	 0.11261
H	 0.912567774	-4.7404881164	-1.5638447915	 0.141763
H	-0.8592520269	-4.7350310732	-1.6138901225	 0.141759
32.3326	45.7556	80.4527	96.3829	122.577	129.5778	171.1354	294.2329	323.5739	385.9096	459.7467	481.0228	552.1825	610.2151	763.8726	840.0483	934.9709	938.1881	957.4735	1030.3412	1034.095	1107.0501	1122.2479	1151.9725	1186.5471	1217.9296	1255.326	1300.7023	1331.9065	1384.8466	1390.6613	1441.6608	1458.065	1468.0028	1477.1593	1495.3368	1519.6242	1806.9425	2374.4858	2970.2239	2994.7056	2994.8029	3026.0254	3032.7088	3040.6099	3069.8687	3098.8499	3154.8484
CC(=O)CCOCC#N	CC(=O)CCOCC#N	
InChI=1S/C6H9NO2/c1-6(8)2-4-9-5-3-7/h2,4-5H2,1H3	InChI=1S/C6H9NO2/c1-6(8)2-4-9-5-3-7/h2,4-5H2,1H3
