20
gdb 117958	1.95333	1.2228	0.78926	4.2296	73.65	-0.2505	0.0267	0.2771	1467.8178	0.169151	-477.444854	-477.434177	-477.433233	-477.481522	36.844	
C	-0.1116503497	 0.8150962451	 0.5510841663	-0.335522
N	 0.1721582835	-0.5216978981	 0.0653703265	-0.304579
C	 0.7402357478	-0.7601218686	-1.1342312409	 0.379157
O	 1.0571268061	 0.104834166	-1.9432656224	-0.406102
C	 0.9686976183	-2.241652673	-1.4997096041	 0.013459
O	 1.6844332852	-2.2963654739	-2.7014227041	-0.438912
C	 1.7375162264	-3.0242241629	-0.4292192635	-0.091197
O	 0.8964696105	-3.2084322197	 0.697982141	-0.241473
C	 1.5184311041	-3.9281927569	 1.74111833	-0.234101
H	 0.0851937604	 1.5148727663	-0.2614635596	 0.169536
H	-1.159176714	 0.9037820587	 0.8571816201	 0.129074
H	 0.5245155503	 1.0762693173	 1.4046958065	 0.127596
H	 0.052168704	-1.3207154557	 0.6738263407	 0.262276
H	-0.0217147381	-2.7159432028	-1.6048557182	 0.097153
H	 1.7358148966	-1.3660183698	-2.98764331	 0.295231
H	 2.0295099436	-3.994533805	-0.8559932772	 0.113959
H	 2.6582213104	-2.4883024002	-0.1497028365	 0.101057
H	 1.8222089589	-4.9308285327	 1.4067794178	 0.118477
H	 2.408888606	-3.4050056843	 2.1207200705	 0.113834
H	 0.7907348096	-4.0285818797	 2.5496181371	 0.131077
64.7929	69.0608	87.0166	134.6172	136.6288	173.533	230.4676	240.914	303.909	364.308	379.2875	447.5963	497.6584	554.5365	620.2454	680.119	760.6348	862.9264	984.1267	1026.1968	1067.9924	1092.3042	1149.9728	1153.8889	1168.4828	1183.2399	1185.2231	1228.4759	1230.6536	1277.5132	1304.9142	1335.2235	1413.0625	1442.064	1461.5736	1481.9417	1486.3903	1498.2038	1502.1054	1503.7845	1523.5744	1598.0684	1763.0881	2963.4708	2979.9319	2989.197	3028.7031	3029.6024	3036.8441	3083.202	3120.2174	3156.2423	3575.3835	3615.5803
CNC(=O)C(O)COC	CNC(=O)[C@@H](O)COC	
InChI=1S/C5H11NO3/c1-6-5(8)4(7)3-9-2/h4,7H,3H2,1-2H3,(H,6,8)	InChI=1S/C5H11NO3/c1-6-5(8)4(7)3-9-2/h4,7H,3H2,1-2H3,(H,6,8)/t4-/m0/s1
