15
gdb 46722	3.13726	1.72188	1.27366	1.2342	64.68	-0.2499	-0.037	0.2129	940.7983	0.113035	-457.70344	-457.696696	-457.695752	-457.735893	25.862	
O	-0.0613523748	-0.0096221847	-0.3267541855	-0.306807
C	-0.0366204198	 1.1606413019	-0.028276993	 0.33673
C	-1.3232397355	 1.914666871	 0.2989515354	-0.171512
O	-1.1544799768	 3.2608868412	 0.726633256	-0.274612
C	 0.1395754601	 3.7659809059	 0.6885938817	 0.133642
C	 1.1260166336	 3.4516012853	-0.4782030147	-0.017494
O	 2.2265071251	 3.8271406707	 0.4227679958	-0.293971
C	 1.358046881	 2.9641477057	 1.2382237132	-0.012246
C	 1.2196327278	 1.9803189626	 0.0339372755	-0.124338
H	-1.9535251045	 1.897826231	-0.6007216235	 0.143159
H	-1.8575099058	 1.3597075774	 1.0787799211	 0.146325
H	 0.1104197153	 4.8118760655	 0.9910590905	 0.115166
H	 1.1590098465	 3.812445641	-1.5058241279	 0.110005
H	 1.6673126354	 2.7411200742	 2.2588419945	 0.110745
H	 2.1175118124	 1.4278673812	-0.241867759	 0.105206
23.3368	148.4026	374.794	383.5138	444.3009	491.1645	560.8003	569.1879	654.2957	738.9748	832.1586	846.7582	885.7229	900.0748	931.4332	995.3095	998.4587	1019.6006	1031.2301	1127.4576	1145.714	1155.3007	1185.7932	1200.4306	1237.9369	1242.3026	1248.1927	1281.0043	1300.7312	1356.226	1396.2267	1472.0766	1819.6171	3019.9454	3065.8416	3124.6813	3126.3872	3136.1874	3145.1719
O=C1COC2C3OC2C13	O=C1CO[C@@H]2[C@H]3O[C@@H]2[C@@H]13	
InChI=1S/C6H6O3/c7-2-1-8-6-4-3(2)5(6)9-4/h3-6H,1H2	InChI=1S/C6H6O3/c7-2-1-8-6-4-3(2)5(6)9-4/h3-6H,1H2/t3-,4-,5+,6+
