21
gdb 89907	4.15084	0.86644	0.80556	2.7665	83.95	-0.239	-0.0198	0.2192	1484.9715	0.181086	-387.07699	-387.067716	-387.066771	-387.111745	34.49	
C	-0.266258454	 1.5363328819	 0.0496781136	-0.4049
C	 0.0091646664	 0.0378063854	 0.0603799906	 0.042968
C	 1.0561524159	-0.557872546	-0.9454362376	-0.315272
C	 1.8052471556	-1.2013319521	 0.2348454011	 0.367375
C	 2.4030359068	-2.5857216398	 0.2138066917	-0.395216
C	 3.6927356101	-2.6254987869	-0.5840454785	 0.166617
O	 3.9118516814	-3.3694544335	-1.5046394554	-0.239083
C	 2.25518108	-0.1183721523	 1.1799658673	-0.327491
C	 0.8181676664	-0.5661688064	 1.2201363286	-0.12984
H	 0.6538713876	 2.1198694772	 0.1577358233	 0.11444
H	-0.7414587772	 1.8396489135	-0.8897707483	 0.115499
H	-0.9369680913	 1.8187462226	 0.868707454	 0.115206
H	-0.9363436608	-0.5030633323	-0.0465336334	 0.076748
H	 0.6165246798	-1.287199536	-1.6300781697	 0.108099
H	 1.6312158269	 0.1660104207	-1.5333347396	 0.095774
H	 2.6445356166	-2.89169672	 1.2421151192	 0.116581
H	 1.7136119323	-3.3242210757	-0.2083995568	 0.117425
H	 4.453106054	-1.8804344285	-0.252710482	 0.074559
H	 2.8579045717	-0.4511156448	 2.0199179166	 0.109193
H	 2.5295360601	 0.8652949545	 0.8067945397	 0.108451
H	 0.3931796919	-0.9967076815	 2.1203371757	 0.082866
50.0121	72.7911	119.2957	199.4721	222.3181	254.6607	337.1242	351.0855	403.8664	478.7798	518.037	630.8618	698.991	796.962	817.1316	851.4766	879.3163	902.1716	959.2255	974.5617	981.8185	1004.0676	1026.5012	1066.4506	1080.9062	1099.8807	1108.3199	1132.9188	1177.2578	1189.2364	1243.2806	1258.8391	1272.6973	1303.4361	1316.9914	1371.1612	1391.8463	1413.9134	1423.5813	1453.1043	1481.6736	1493.616	1497.2161	1506.1866	1833.8657	2863.3074	3010.3186	3028.2356	3041.134	3049.4152	3082.6956	3093.2686	3098.4146	3104.2752	3109.5426	3166.895	3193.2728
CC1CC2(CC=O)CC12	C[C@H]1C[C@@]2(CC=O)C[C@@H]12	
InChI=1S/C8H12O/c1-6-4-8(2-3-9)5-7(6)8/h3,6-7H,2,4-5H2,1H3	InChI=1S/C8H12O/c1-6-4-8(2-3-9)5-7(6)8/h3,6-7H,2,4-5H2,1H3/t6-,7-,8-/m0/s1
