16
gdb 126252	2.07466	1.59332	0.95596	3.6881	81.27	-0.2416	-0.033	0.2085	1209.3234	0.124345	-396.909141	-396.90054	-396.899596	-396.943625	31.187	
C	-0.2756779737	 1.6143854476	 0.0692567326	-0.371397
C	 0.073064758	 0.1197628074	-0.0318337277	-0.308325
C	 0.8426986982	-0.3753792593	 1.1494324848	 0.174015
C	 2.1708427921	-0.7698407445	 1.236055744	 0.179052
N	 2.318334909	-1.1000591254	 2.5525862484	-0.282143
N	 1.1799317515	-0.9286352493	 3.2337899871	-0.108516
N	 0.2888271094	-0.4906614885	 2.3887412451	-0.233721
C	 3.2029564828	-0.8558188987	 0.2851566658	 0.314867
C	 4.0858314115	-0.9306293882	-0.5306453034	-0.469458
H	 0.6301593187	 2.2275511939	 0.104103403	 0.119766
H	-0.8687719259	 1.9304551242	-0.794015042	 0.114022
H	-0.8528977295	 1.8123629181	 0.9763105262	 0.141261
H	-0.8515723444	-0.462533102	-0.1152818517	 0.125745
H	 0.6553135874	-0.0714456251	-0.9388701307	 0.113677
H	 3.1420270614	-1.4424645607	 3.0221852038	 0.285754
H	 4.8608663935	-0.9939367595	-1.2541989153	 0.205402
21.8413	129.5404	158.8776	175.2971	222.4648	328.5714	377.6745	480.7582	536.6323	561.883	580.5881	596.0447	683.0267	686.4907	717.4862	769.3169	795.6313	973.8117	1018.2355	1068.3566	1086.7437	1105.1545	1195.2564	1219.8982	1278.5102	1337.631	1353.8244	1365.4871	1406.7068	1477.4355	1482.6225	1496.9608	1509.9702	1590.8641	2234.6301	3040.6911	3042.9753	3083.2074	3112.7284	3125.3848	3499.3035	3652.5032
CCC1=C(NN=N1)C#C	CCc1c([nH]nn1)C#C	
InChI=1S/C6H7N3/c1-3-5-6(4-2)8-9-7-5/h1H,4H2,2H3,(H,7,8,9)	InChI=1S/C6H7N3/c1-3-5-6(4-2)8-9-7-5/h1H,4H2,2H3,(H,7,8,9)
