22
gdb 104581	2.43022	1.15429	0.94487	2.4134	82.55	-0.2314	-0.0072	0.2242	1365.6547	0.192351	-404.349868	-404.339585	-404.338641	-404.385883	37.617	
C	-1.2364709542	-1.0649132937	 0.1453081225	-0.415949
C	 0.1424465871	-0.4022201949	 0.204913099	-0.251083
C	 1.0449455317	-0.5773514539	-1.0152179356	 0.320631
C	 2.2856482084	 0.3229311825	-0.9943745968	-0.345571
C	 1.8996391168	 1.778901396	-1.2586828988	 0.392993
C	 1.983476348	 2.2372965765	-2.6982973837	-0.478418
O	 1.5104601026	 2.499154894	-0.3653686476	-0.309828
C	 1.1483249441	-1.8920147384	-1.7002233993	-0.290069
N	 0.4827126685	-0.7575277759	-2.3690525706	-0.344997
H	-1.8657578862	-0.6372554655	-0.6428628083	 0.12107
H	-1.1787004369	-2.1468078215	-0.0133948966	 0.119481
H	-1.7640479449	-0.9059808439	 1.0901407155	 0.126005
H	 0.0187869516	 0.6706860253	 0.3861374822	 0.138092
H	 0.6911360388	-0.7866387627	 1.0748398503	 0.106102
H	 2.7613291321	 0.2629643824	-0.0103713975	 0.117474
H	 2.9934360955	-0.0229455816	-1.7526335425	 0.102582
H	 1.4329335254	 1.5302182421	-3.3287917674	 0.166973
H	 1.5848757513	 3.2474588429	-2.8006321226	 0.131712
H	 3.0271409848	 2.2177654419	-3.0349687363	 0.13373
H	 2.0912683675	-2.1994305296	-2.1450923512	 0.114578
H	 0.5326397673	-2.7139119456	-1.3458882092	 0.113252
H	-0.5252166092	-0.8783241364	-2.3214640857	 0.23124
40.4514	60.8004	100.7054	155.0956	195.6824	244.2813	266.9764	318.0271	330.7622	385.6623	434.6641	458.5654	525.8315	601.1379	695.8587	777.5979	794.4386	862.5034	880.4978	898.4222	939.604	982.2974	1008.7673	1024.449	1039.4196	1059.1612	1088.6714	1127.465	1135.0756	1175.0636	1230.6606	1264.6698	1294.9079	1305.4312	1321.329	1375.9228	1382.9627	1399.957	1421.0116	1463.4254	1473.8253	1474.9973	1493.5057	1499.8578	1509.229	1522.4179	1802.5919	3025.2278	3030.2028	3034.8837	3051.2612	3073.5339	3094.8126	3100.0408	3107.134	3107.5747	3109.6672	3150.9964	3191.3999	3510.8369
CCC1(CC(C)=O)CN1	CC[C@@]1(CC(=O)C)CN1	
InChI=1S/C7H13NO/c1-3-7(5-8-7)4-6(2)9/h8H,3-5H2,1-2H3	InChI=1S/C7H13NO/c1-3-7(5-8-7)4-6(2)9/h8H,3-5H2,1-2H3/t7-/m1/s1
