15
gdb 130432	6.59004	0.88777	0.79543	4.1157	77.22	-0.2365	-0.0091	0.2274	1380.791	0.114495	-412.976362	-412.968123	-412.967178	-413.009446	30.204	
N	-0.7341753667	 0.7293727249	 0.1035077129	-0.525778
H	 1.3513492347	-0.3355360139	 1.1032254239	 0.286187
H	-1.13319639	 1.1180246786	-0.7438008814	 0.243247
H	-1.4293477186	 0.0952548706	 0.4859682686	 0.241723
C	-0.450384482	 1.8032394258	 1.0636912991	-0.293988
C	 0.4811784041	 1.3004284594	 2.1224734377	 0.360147
N	 1.2949435009	 0.2419312152	 1.9273093114	-0.204588
N	 2.0497610856	 0.0037442505	 3.0181521673	-0.268462
C	 1.6432308135	 0.9669487399	 3.8459115419	 0.152141
N	 0.6703239687	 1.7878082043	 3.3328302557	-0.355748
C	 2.1756905512	 1.1169675908	 5.1527733178	 0.294486
C	 2.6240292333	 1.2544743575	 6.2596365474	-0.3932
H	 0.0400511085	 2.6206446633	 0.5209420267	 0.140812
H	-1.32929301	 2.24014999	 1.55767106	 0.130359
H	 3.0197936569	 1.3750929931	 7.237503741	 0.192663
69.8789	129.3717	154.0101	216.0657	262.5546	303.9191	421.5698	475.819	563.3535	602.3278	606.1152	644.6653	667.5963	712.0234	732.1799	777.1827	871.1217	984.119	1016.5693	1050.2713	1085.9371	1161.04	1180.698	1263.8279	1308.1418	1351.3725	1403.5983	1459.7494	1475.303	1497.7583	1581.0408	1663.4836	2249.3198	3010.1495	3052.5053	3504.0002	3505.1718	3585.7355	3658.1348
[NH3+]CC1=N[N-]C(=N1)C#C	NCc1[nH]nc(n1)C#C	
InChI=1S/C5H5N4/c1-2-4-7-5(3-6)9-8-4/h1H,3,6H2/q-1/p+1	InChI=1S/C5H6N4/c1-2-4-7-5(3-6)9-8-4/h1H,3,6H2,(H,7,8,9)
