15
gdb 9536	2.86084	1.92874	1.58134	2.1627	56.71	-0.2481	-0.0031	0.245	851.361	0.119252	-436.946143	-436.938317	-436.937373	-436.978303	28.542	
N	-0.1465434795	 1.4942638925	 0.1776282916	-0.556071
C	-0.04978987	 0.0573956655	 0.0870328723	 0.087318
C	 0.8761573727	-0.4575343919	 1.1967497447	-0.101456
O	 2.177121244	 0.0761688967	 1.0417939328	-0.420471
C	-1.3679305749	-0.7249838875	-0.1109010055	-0.116488
O	-0.8413516251	-1.3279070288	-1.3418314233	-0.2436
C	 0.3255072136	-0.6173137602	-1.2544610994	 0.412346
O	 1.2560225357	-0.6302090072	-2.0009495625	-0.344127
H	 0.7801174364	 1.8671149671	 0.3662605029	 0.250219
H	-0.4703915353	 1.9070112845	-0.6913326336	 0.238432
H	 0.5077133022	-0.1052675671	 2.1655110347	 0.127949
H	 0.8788581804	-1.5574445298	 1.2039928241	 0.104396
H	 2.5147494954	-0.2186333355	 0.1859333043	 0.302587
H	-1.6079961191	-1.4970891787	 0.6231800307	 0.128232
H	-2.2394526463	-0.1029630997	-0.3218929839	 0.130732
103.0796	124.6517	185.6915	250.2531	305.8628	323.0055	371.9951	438.0556	488.5395	565.21	728.2706	766.3824	780.8937	867.6255	919.7829	938.415	956.1376	1051.6171	1069.177	1088.4989	1132.6558	1150.6202	1217.56	1280.2494	1321.4565	1365.6506	1401.7569	1431.2929	1497.9338	1512.7328	1660.961	1908.8883	2998.5127	3074.0873	3084.6904	3139.431	3495.7864	3575.8819	3772.3024
NC1(CO)COC1=O	N[C@@]1(CO)COC1=O	
InChI=1S/C4H7NO3/c5-4(1-6)2-8-3(4)7/h6H,1-2,5H2	InChI=1S/C4H7NO3/c5-4(1-6)2-8-3(4)7/h6H,1-2,5H2/t4-/m0/s1
