15
gdb 43492	2.31515	1.87083	1.18151	1.9677	65.21	-0.2454	-0.058	0.1874	999.9745	0.112418	-457.778292	-457.770945	-457.77	-457.810687	27.336	
O	-0.0523805576	 0.1149397565	-0.4786044876	-0.303961
C	-0.030221948	 1.2536514754	-0.0936884251	 0.393428
C	-1.2298654735	 2.0603735191	 0.4097024183	-0.438811
C	-0.8327034292	 3.5170713498	 0.1850896978	 0.39863
O	-1.5664692037	 4.4457861215	-0.0169256729	-0.292705
C	 0.7031927836	 3.5816532364	 0.2082174139	 0.009661
O	 1.1807821531	 3.5321823996	 1.5768772928	-0.2885
C	 1.8415861559	 2.2686282928	 1.3478968424	-0.083564
C	 1.2125546039	 2.1456136965	-0.063125477	-0.194908
H	-2.1713183282	 1.7800452645	-0.0638395897	 0.159439
H	-1.3328541312	 1.8930248635	 1.4908965278	 0.173332
H	 1.1040995412	 4.4313248195	-0.3505396294	 0.103745
H	 2.9315100493	 2.3805763962	 1.3364240785	 0.124293
H	 1.5638860895	 1.507839392	 2.0853895231	 0.12437
H	 1.8866414747	 1.9357605967	-0.8917219628	 0.11555
88.5092	90.4023	227.1962	233.4275	388.975	447.6134	465.7736	564.7836	608.722	640.023	756.2943	802.0013	858.6261	871.7171	913.9952	940.0318	1004.3015	1024.7424	1045.2106	1119.9209	1137.2908	1159.6916	1189.5194	1214.6853	1223.2155	1255.0568	1275.6466	1302.4866	1346.4241	1407.6359	1526.3385	1836.0864	1872.9226	3030.806	3036.8521	3079.7248	3084.4579	3136.5527	3138.219
O=C1CC(=O)C2OCC12	O=C1CC(=O)[C@H]2OC[C@@H]12	
InChI=1S/C6H6O3/c7-4-1-5(8)6-3(4)2-9-6/h3,6H,1-2H2	InChI=1S/C6H6O3/c7-4-1-5(8)6-3(4)2-9-6/h3,6H,1-2H2/t3-,6-/m0/s1
