15
gdb 44040	3.46304	1.71872	1.51098	3.5954	71.1	-0.2326	-0.0159	0.2167	879.5024	0.113167	-416.649409	-416.642952	-416.642008	-416.679998	26.326	
O	-0.064501936	 0.0040939335	-0.2098974953	-0.320784
C	-0.0093496178	 1.1792370635	-0.0220090429	 0.344755
N	-1.0097334868	 2.1678079165	 0.1395020139	-0.401158
C	-0.0712209878	 3.1843106469	 0.5839125269	 0.208313
C	 0.609190014	 3.2841405537	 1.9429331441	-0.202934
N	 1.8221484329	 3.3557367662	 1.0228441433	-0.190588
C	 1.0076837855	 4.1917763262	-0.0210729722	-0.050922
C	 1.3702706385	 3.2651523003	-1.1697120826	-0.270988
C	 1.0613455042	 2.34397848	 0.018206676	 0.075306
H	-1.9949746983	 2.0199365338	 0.3247377899	 0.253131
H	 0.4628013418	 4.1928291884	 2.5334693743	 0.106311
H	 0.6094051097	 2.3931041642	 2.5795527738	 0.114802
H	 1.0301518682	 5.2820548292	 0.0492763283	 0.093749
H	 0.672595885	 3.2221591368	-2.0080360997	 0.118401
H	 2.4108371068	 3.2891120607	-1.498783938	 0.122605
133.4902	288.4682	308.3472	386.1652	461.3967	498.9571	530.3608	597.0364	664.2448	730.8741	783.0735	807.2681	862.6063	887.3697	904.916	913.839	940.6683	1011.6202	1047.5653	1062.5128	1100.7321	1121.0536	1138.6163	1151.461	1164.1465	1193.6648	1219.4655	1257.9229	1266.2875	1338.7946	1482.8512	1511.7503	1895.426	3044.4997	3072.8881	3089.7768	3110.1243	3142.8206	3551.5516
O=C1NC23CN4C2CC134	O=C1N[C@]23CN4[C@H]2C[C@]134	
InChI=1S/C6H6N2O/c9-4-6-1-3-5(6,7-4)2-8(3)6/h3H,1-2H2,(H,7,9)	InChI=1S/C6H6N2O/c9-4-6-1-3-5(6,7-4)2-8(3)6/h3H,1-2H2,(H,7,9)/t3-,5+,6-/m0/s1
