15
gdb 69716	4.0708	1.383	1.27383	5.4015	64.47	-0.2648	0.0035	0.2683	993.456	0.111637	-457.736021	-457.728791	-457.727847	-457.767652	27.714	
C	-0.1553183022	 1.4832979063	 0.0168986759	-0.513913
C	 0.1522402698	 0.0237536285	 0.0111624705	 0.401842
O	-0.7076112777	-0.8728112779	 0.7180115096	-0.261231
C	 0.6891138811	-0.9221565973	 1.013671477	-0.048631
C	 1.365919106	-1.7928182968	-0.0827811871	-0.289448
C	 0.815465707	-0.8154249863	-1.1347764662	 0.036126
O	-0.0229495982	-1.8572869996	-1.7052967355	-0.247998
C	 0.422771803	-2.7902692241	-0.7830961866	 0.472551
O	 0.121609174	-3.9336260603	-0.7085163545	-0.318076
H	 0.7088386601	 2.0644042168	-0.3203197208	 0.130764
H	-0.9930000293	 1.7002768315	-0.6549728883	 0.146478
H	-0.4288974892	 1.8114142891	 1.022875041	 0.143723
H	 0.9940659904	-0.7902978134	 2.0446845528	 0.122026
H	 2.4175839716	-2.0455639453	 0.0248031425	 0.118992
H	 1.4174605538	-0.2985178112	-1.8794567304	 0.106795
119.0504	179.9276	194.1472	292.4035	297.1887	430.9124	484.5607	553.6999	642.2903	718.9127	746.3365	799.6944	835.6719	869.2424	891.9283	903.3503	938.75	982.2334	1005.1441	1045.0704	1076.3109	1100.8418	1161.8346	1179.4506	1210.16	1234.7498	1248.8158	1301.2926	1406.4845	1461.7252	1482.163	1491.5914	1949.5032	3038.1135	3102.7677	3125.9932	3142.8993	3161.2061	3196.706
CC12OC1C1C2OC1=O	C[C@]12O[C@H]1[C@@H]1[C@H]2OC1=O	
InChI=1S/C6H6O3/c1-6-3-2(4(6)9-6)5(7)8-3/h2-4H,1H3	InChI=1S/C6H6O3/c1-6-3-2(4(6)9-6)5(7)8-3/h2-4H,1H3/t2-,3+,4-,6+/m0/s1
