20
gdb 11450	3.86722	1.26263	1.00566	1.8954	77.91	-0.2296	0.0248	0.2544	1199.0777	0.177229	-349.022359	-349.013658	-349.012713	-349.055726	32.156	
C	-0.0296790618	 1.5115872696	 0.0189975697	-0.489598
C	 0.0372411753	 0.0178138049	-0.0234376005	 0.325976
C	-0.0269176095	-0.7681239962	-1.1005071668	-0.181894
C	 0.0308884742	-2.2424990016	-0.7711079496	-0.019311
C	 1.0099213812	-3.0501362137	-1.6341131128	-0.07285
O	 0.6296973589	-3.123218936	-2.9993423693	-0.424323
C	 0.4273696845	-2.237838076	 0.7311925383	-0.236973
C	 0.1351414077	-0.8070011592	 1.243877552	-0.296962
H	 0.8666758058	 1.9352134284	 0.4900211151	 0.124346
H	-0.1250687947	 1.9432861815	-0.9810946837	 0.121041
H	-0.883372587	 1.8523046288	 0.6192805256	 0.125181
H	-0.1580548845	-0.3968993596	-2.1133067004	 0.072711
H	-0.961211784	-2.6951543212	-0.9167459708	 0.080301
H	 2.024374085	-2.6336609706	-1.5219507634	 0.081576
H	 1.0420754668	-4.086787678	-1.280295709	 0.106184
H	 0.7148425552	-2.2417696031	-3.3748907448	 0.283219
H	-0.0922957058	-3.0101233908	 1.3036018434	 0.099472
H	 1.5008274606	-2.4444360929	 0.81830512	 0.099756
H	 0.9083811539	-0.4371098232	 1.9284695429	 0.098719
H	-0.8111300319	-0.7552869309	 1.801887274	 0.103429
71.6426	117.5158	156.9124	186.6343	218.1727	304.9398	323.4438	385.6488	427.1549	499.7886	590.995	641.8278	822.2969	851.5497	861.7129	890.1677	933.0514	971.2607	1000.3799	1030.1857	1048.3214	1070.6962	1082.8387	1113.6798	1176.786	1187.5504	1199.0465	1249.7829	1281.4716	1288.2174	1327.7142	1344.4242	1374.0191	1388.7736	1411.8124	1417.6679	1479.0116	1482.7481	1488.8774	1498.0051	1504.0229	1722.2241	2968.6592	2993.2807	3001.5936	3015.0887	3030.3033	3046.7414	3059.6587	3064.4152	3095.8398	3108.1081	3162.7011	3825.333
CC1=CC(CO)CC1	CC1=C[C@@H](CO)CC1	
InChI=1S/C7H12O/c1-6-2-3-7(4-6)5-8/h4,7-8H,2-3,5H2,1H3	InChI=1S/C7H12O/c1-6-2-3-7(4-6)5-8/h4,7-8H,2-3,5H2,1H3/t7-/m0/s1
