17
gdb 54109	2.91592	1.64847	1.20019	5.1588	68.54	-0.245	0.0115	0.2565	1013.6911	0.137654	-455.103455	-455.09589	-455.094946	-455.135516	29.62	
N	-0.258004647	 1.4199507728	-0.301789476	-0.58534
C	-0.070333042	 0.0064131358	-0.0785417744	 0.203396
C	 0.000197402	-0.4637933623	 1.4131426718	-0.080405
C	-1.4947400803	-0.0667604606	 1.5784991405	-0.242361
C	-1.3641568481	-0.8495595093	 0.2496049044	-0.044664
N	-0.4322414725	-1.842289554	 0.9374573804	-0.36612
H	 0.6885194681	-2.2225881154	-0.2401001587	 0.319621
H	-0.9256345371	-2.335278517	 1.683444393	 0.227377
C	 0.9155327677	-0.5905640395	-1.123352492	 0.368692
O	 1.21832389	-1.8778275334	-1.0174703547	-0.373262
O	 1.3591795555	 0.1098161671	-2.0022832436	-0.351317
H	 0.3294976374	 1.9537429045	 0.3316374555	 0.234027
H	 0.0974370027	 1.6172916732	-1.2353100083	 0.253262
H	 0.8321559796	-0.3397405003	 2.1095225083	 0.098797
H	-2.025678019	-0.5910980164	 2.3786766575	 0.097441
H	-1.7607147617	 0.986279566	 1.5172830935	 0.136951
H	-2.1407815551	-1.1836195214	-0.4385780675	 0.103905
92.3206	168.8507	181.7171	324.7923	365.4946	390.3081	426.0536	465.5694	618.787	638.8772	678.9703	741.6974	802.5236	817.533	881.338	886.1836	915.6898	945.2719	995.4449	1007.561	1038.2293	1076.6259	1105.383	1118.1913	1138.3837	1154.4591	1208.027	1240.0396	1260.4723	1267.8713	1271.7694	1327.2333	1341.5412	1495.8865	1534.3371	1676.3781	1829.2875	3060.3066	3076.4852	3097.8916	3121.5439	3165.9211	3436.1834	3481.9393	3553.916
NC1(C2CC1[NH2+]2)C([O-])=O	N[C@]1([C@H]2C[C@@H]1N2)C(=O)O	
InChI=1S/C5H8N2O2/c6-5(4(8)9)2-1-3(5)7-2/h2-3,7H,1,6H2,(H,8,9)	InChI=1S/C5H8N2O2/c6-5(4(8)9)2-1-3(5)7-2/h2-3,7H,1,6H2,(H,8,9)/t2-,3+,5+
