23
gdb 121123	3.78753	0.81518	0.75522	1.1513	83.11	-0.2431	0.0845	0.3275	1632.1562	0.205177	-425.431911	-425.421894	-425.42095	-425.467669	36.316	
C	-0.7141158336	 1.4350560471	 0.2538568887	-0.224097
O	-0.7475228796	 0.0624556682	 0.5597049651	-0.23387
C	-0.5511349886	-0.759566986	-0.5689425248	-0.068051
C	-0.602281441	-2.2156347569	-0.1137935539	 0.109175
C	-2.0060227922	-2.6761202678	 0.3335458937	-0.2506
C	-2.524013752	-3.4363210776	-0.8963795562	-0.226929
C	-1.2321726931	-4.0310162465	-1.4661668571	 0.165811
C	-1.2497577952	-4.366496842	-2.9479394233	-0.398127
O	-0.2384630763	-3.0286159722	-1.2321984876	-0.291313
H	-0.8720593052	 1.9837832468	 1.1857252062	 0.125551
H	 0.2552497978	 1.7344039036	-0.175200124	 0.104894
H	-1.5041088978	 1.7145689544	-0.46155454	 0.102514
H	-1.3292999339	-0.5767449689	-1.3303018671	 0.079714
H	 0.4239381642	-0.5602159389	-1.0416976765	 0.094767
H	 0.1329558877	-2.3463572494	 0.6910461089	 0.079016
H	-1.9296643709	-3.3489501865	 1.1931469224	 0.102008
H	-2.6289484883	-1.8299983711	 0.6307573696	 0.115367
H	-3.2705648253	-4.1965675745	-0.6531264524	 0.098528
H	-2.9667597395	-2.7498180244	-1.6274646103	 0.100199
H	-0.9692762556	-4.9370262632	-0.8925929755	 0.062112
H	-1.5168231382	-3.4830767073	-3.536482565	 0.116525
H	-0.2656046884	-4.7123292797	-3.2763943001	 0.124674
H	-1.9774244252	-5.1581646672	-3.1532565409	 0.112131
44.8231	83.0307	100.4039	159.8965	194.3744	224.1853	234.1667	301.454	330.0209	402.5284	465.4437	479.3924	579.785	713.304	811.9532	844.7224	893.1199	907.5403	942.633	989.4377	999.6839	1018.3429	1044.2947	1092.6387	1119.9536	1156.8967	1160.3201	1175.2841	1187.8604	1204.1657	1217.4809	1230.1968	1253.2991	1307.3074	1318.7524	1333.4345	1370.0647	1376.1705	1393.9123	1409.5566	1425.4606	1480.8982	1482.8896	1485.1727	1489.9541	1497.5287	1502.4001	1508.0928	1525.6475	2944.8927	2952.8312	2970.8251	2993.7638	3012.5415	3018.6607	3037.1791	3043.6198	3060.2087	3101.4396	3111.2888	3111.524	3115.8025	3117.9281
COCC1CCC(C)O1	COC[C@H]1CC[C@@H](C)O1	
InChI=1S/C7H14O2/c1-6-3-4-7(9-6)5-8-2/h6-7H,3-5H2,1-2H3	InChI=1S/C7H14O2/c1-6-3-4-7(9-6)5-8-2/h6-7H,3-5H2,1-2H3/t6-,7-/m1/s1
