17
gdb 55066	2.84841	1.0696	0.92239	5.4977	70.78	-0.2564	-0.0243	0.232	1306.395	0.132909	-458.986531	-458.977162	-458.976218	-459.021968	32.6	
C	 0.1290786898	 1.2913191866	 0.3938240336	-0.485601
C	 0.1348408446	-0.1929378008	 0.0949834359	 0.409601
O	 1.1566696068	-0.8231480834	-0.0579153156	-0.311519
C	-1.2154479029	-0.8519427048	 0.0160272013	-0.167117
C	-1.2598524338	-2.2587796871	-0.5495156204	-0.328684
C	-1.4702921176	-2.0520834276	 0.9133155481	 0.112885
O	-0.4965702944	-2.3779177881	 1.8716036714	-0.180225
C	 0.0253587042	-3.629219678	 1.8558396207	 0.179565
O	 0.7998276423	-4.0025074598	 2.6808690643	-0.265844
H	 1.1522256441	 1.6631394844	 0.4514823182	 0.148276
H	-0.4189661766	 1.8335125561	-0.3855913485	 0.139832
H	-0.3899788947	 1.4820269463	 1.3401195089	 0.147622
H	-2.0637210436	-0.1928732628	-0.1318317258	 0.1014
H	-2.1073598715	-2.5568870471	-1.1552048016	 0.130211
H	-0.2901367123	-2.6244543133	-0.8690060906	 0.159329
H	-2.4777132776	-2.1470553118	 1.3082930249	 0.120795
H	-0.3492971366	-4.236109729	 1.0131701655	 0.089473
47.3824	58.537	132.8692	144.6409	168.3884	208.4594	271.5231	364.5461	409.0835	479.8857	591.8636	611.8451	658.2366	756.6727	821.0617	860.5933	945.6132	959.7482	1030.4332	1049.0587	1056.3349	1081.6727	1096.9319	1130.9332	1141.015	1181.9717	1187.4779	1249.3824	1375.777	1386.8144	1398.7518	1424.2523	1461.0521	1463.7352	1474.9758	1804.2541	1873.6747	2990.4915	3034.5791	3094.6619	3142.1992	3148.2514	3157.1034	3174.4558	3239.1274
CC(=O)C1CC1OC=O	CC(=O)[C@H]1C[C@H]1OC=O	
InChI=1S/C6H8O3/c1-4(8)5-2-6(5)9-3-7/h3,5-6H,2H2,1H3	InChI=1S/C6H8O3/c1-4(8)5-2-6(5)9-3-7/h3,5-6H,2H2,1H3/t5-,6-/m1/s1
