20
gdb 77067	3.04131	1.15986	1.02683	3.7217	79.91	-0.2761	0.0218	0.2979	1240.9145	0.169369	-403.161657	-403.151985	-403.151041	-403.195744	36.303	
C	-0.9075667341	 1.4626986678	 0.0202494913	-0.449752
C	-0.1512774312	 0.1395592491	 0.0258028485	 0.304208
C	-1.0872768582	-1.0357908598	-0.2703137289	-0.444532
C	 1.1438982917	 0.0867617533	-0.8461263854	-0.274187
C	 1.8742604332	-0.641755013	 0.322074482	-0.188133
C	 3.2156253143	-0.2301563914	 0.6839087013	 0.263254
N	 4.2626854798	 0.1243092399	 1.0258159408	-0.333705
C	 0.7296270823	-0.1502094473	 1.2867632308	 0.09454
O	 1.0418677746	 1.0417893573	 1.9570201704	-0.423655
H	-0.2525542556	 2.2919881582	 0.2926390643	 0.136781
H	-1.3197428046	 1.6551815263	-0.9767066437	 0.111151
H	-1.742325476	 1.4453722478	 0.7292280354	 0.116965
H	-1.5570253236	-0.9140026479	-1.2520831609	 0.121412
H	-0.5612835986	-1.9969903532	-0.2732061771	 0.11266
H	-1.8843480606	-1.0961992478	 0.4787650986	 0.121866
H	 1.0915713152	-0.4577872677	-1.7910959928	 0.110588
H	 1.5624840559	 1.0785064362	-1.0242844545	 0.127002
H	 1.8499363668	-1.7276922339	 0.2021196842	 0.123761
H	 0.3486334969	-0.9160374517	 1.9765913669	 0.070499
H	 1.8213327518	 0.8969135576	 2.5063869088	 0.299277
70.1298	126.9659	188.8693	199.6847	234.323	253.562	310.1206	323.7415	332.7996	370.2006	399.384	494.9677	520.5217	566.1509	694.6996	734.4074	844.651	869.4601	918.058	937.6216	958.5385	986.2813	1029.2843	1053.6037	1087.8529	1146.6894	1162.8521	1219.0071	1221.4518	1232.568	1279.9802	1286.8477	1334.7579	1344.781	1399.8975	1407.2781	1427.4151	1479.1789	1483.9726	1488.0921	1501.4189	1507.5318	2346.9627	3000.8425	3025.8353	3034.1753	3074.8982	3082.4322	3092.4367	3093.3664	3099.8991	3133.8432	3137.0555	3792.8355
CC1(C)CC(C#N)C1O	CC1(C)C[C@@H](C#N)[C@H]1O	
InChI=1S/C7H11NO/c1-7(2)3-5(4-8)6(7)9/h5-6,9H,3H2,1-2H3	InChI=1S/C7H11NO/c1-7(2)3-5(4-8)6(7)9/h5-6,9H,3H2,1-2H3/t5-,6+/m0/s1
