21
gdb 112748	2.28435	1.30308	0.98591	1.6709	78.94	-0.2495	0.0777	0.3272	1306.9474	0.180301	-424.196734	-424.187135	-424.186191	-424.231415	35.374	
C	-0.2893570245	 1.4876171289	 0.2515207673	-0.381446
C	-0.0606274361	-0.0075108714	 0.0086827891	-0.198158
C	 0.8407946223	-0.6305669212	 1.0595844707	 0.076823
O	 0.2682073334	-0.5828588018	 2.3952039223	-0.325976
C	 0.4922132683	-1.9991070982	 2.6266311771	 0.084967
C	-0.747058923	-2.7192759855	 3.1166118114	-0.408657
C	 0.93748205	-2.1508230075	 1.1723778106	 0.333098
C	 0.7040869581	-3.2102992083	 0.1933458926	-0.258964
O	 2.0141246877	-2.9405137107	 0.7240575361	-0.267719
H	 0.6533282338	 2.0440727893	 0.2083917307	 0.115999
H	-0.9634025802	 1.9108970447	-0.4988429354	 0.11175
H	-0.7300842848	 1.6499122592	 1.2390112185	 0.138762
H	-1.01948003	-0.5394348139	 0.0068547411	 0.096582
H	 0.3981159874	-0.1668417036	-0.9762318031	 0.099857
H	 1.8344875426	-0.1574479814	 1.047176811	 0.083257
H	 1.3307667261	-2.1503516147	 3.3217832204	 0.08742
H	-1.5722559865	-2.604592941	 2.4078381582	 0.119467
H	-0.5410218098	-3.786668703	 3.2511691032	 0.121097
H	-1.0629124102	-2.3119213282	 4.081996325	 0.131793
H	 0.2598295934	-4.1535668585	 0.5076615615	 0.119551
H	 0.5672447621	-2.9596625835	-0.8574906284	 0.120499
61.9405	97.7513	140.503	199.8482	217.6912	219.3819	262.0028	286.812	361.8315	458.1042	480.1804	519.4457	580.6021	751.7534	794.7551	857.9982	881.2281	908.4152	923.7391	953.6723	973.5415	1044.4828	1078.6402	1102.4327	1113.9301	1122.2496	1128.3052	1160.4022	1168.9323	1187.0513	1262.8307	1286.5011	1301.5848	1339.4404	1375.9572	1399.1661	1408.432	1418.6138	1449.9387	1474.8441	1486.6115	1493.7446	1497.9924	1508.9417	1542.7579	2990.3449	3002.6479	3021.1787	3036.0783	3037.9402	3062.5125	3084.8275	3105.0733	3107.9776	3117.1573	3120.7165	3171.4016
CCC1OC(C)C11CO1	CC[C@H]1O[C@@H](C)[C@]21CO2	
InChI=1S/C7H12O2/c1-3-6-7(4-8-7)5(2)9-6/h5-6H,3-4H2,1-2H3	InChI=1S/C7H12O2/c1-3-6-7(4-8-7)5(2)9-6/h5-6H,3-4H2,1-2H3/t5-,6+,7-/m0/s1
