17
gdb 19067	3.70772	2.41506	2.07664	2.3393	66.27	-0.2208	0.0774	0.2982	725.5513	0.145491	-363.810045	-363.804264	-363.80332	-363.839515	24.382	
C	-0.0037668314	 1.4395090831	-0.1826242878	-0.25467
C	 1.3021689224	 0.7527357226	 0.0250307289	-0.01451
C	 2.0296140719	 0.7845356691	 1.3553971483	 0.075574
C	 1.1324462008	 1.1566725087	 2.5529985071	-0.26236
C	 0.7423034148	-0.3276613838	 2.4325421141	 0.095118
C	-0.3310801873	-0.5604277012	 1.3604088094	-0.168957
N	 0.0386629829	-0.0042979889	 0.0428085163	-0.084652
O	 2.0457905598	-0.601690815	 1.8384232654	-0.295447
H	-0.3852287753	 2.0954655483	 0.5948165868	 0.110582
H	-0.2988090236	 1.7290584713	-1.1886246897	 0.115171
H	 1.9373501986	 0.5475319464	-0.8349360522	 0.09544
H	 3.0338420536	 1.208693945	 1.2852723576	 0.078958
H	 1.7343602886	 1.3405812562	 3.4441181721	 0.114175
H	 0.3682929827	 1.9276147157	 2.4545583218	 0.099775
H	 0.5620808875	-0.9190957771	 3.334574639	 0.076864
H	-0.4529506014	-1.6410651317	 1.2246555195	 0.117625
H	-1.2979900246	-0.1575970888	 1.6864203736	 0.101313
254.0447	278.4285	421.5064	425.9781	476.2331	561.5177	627.3764	732.4503	793.4862	830.7834	869.2527	877.8512	892.5602	939.8203	950.8217	991.1191	1011.7694	1037.7277	1074.0778	1092.8595	1112.5795	1127.7727	1137.5532	1155.309	1213.4554	1241.0652	1253.4428	1309.3583	1326.0421	1329.7393	1352.2765	1374.0529	1404.5838	1480.5069	1489.7661	1523.3762	3026.4991	3066.7548	3072.6042	3081.0224	3090.1771	3105.3776	3121.1708	3141.6397	3187.2505
C1C2C3CC(CN12)O3	C1[C@H]2[C@H]3C[C@@H](CN12)O3	
InChI=1S/C6H9NO/c1-4-2-7-3-5(7)6(1)8-4/h4-6H,1-3H2	InChI=1S/C6H9NO/c1-4-2-7-3-5(7)6(1)8-4/h4-6H,1-3H2/t4-,5-,6+,7?/m0/s1
