21
gdb 96123	2.23859	1.75615	1.19933	1.2797	77.74	-0.248	0.0815	0.3296	1114.6935	0.182586	-424.224147	-424.215389	-424.214444	-424.257092	33.983	
C	-0.0887590373	 1.5040107191	 0.012157923	-0.411667
C	 0.0120687329	-0.0274538705	 0.0026313203	-0.055188
C	 0.7417443628	-0.5083891446	-1.2609831927	-0.096237
O	 0.929365358	-1.9112188419	-1.2573775133	-0.250945
C	 1.8647140144	-2.3279219693	-0.2814761726	-0.108655
C	 1.6436194333	-1.6956305127	 1.0799660941	-0.038506
O	 2.1326295669	-0.3563098824	 1.2591010199	-0.300303
C	 0.7087951995	-0.5682969493	 1.2482021788	 0.40679
C	 0.0202889555	-0.353950705	 2.5767933928	-0.476653
H	 0.9032120406	 1.9529039499	 0.1259864087	 0.133864
H	-0.5202795556	 1.8685400617	-0.9259874931	 0.114519
H	-0.7213742416	 1.8677958049	 0.826308419	 0.118215
H	-0.9980840928	-0.4583295702	-0.0151477197	 0.080265
H	 0.1429126486	-0.2806304185	-2.1477001483	 0.105156
H	 1.7073809703	 0.0129734948	-1.3530337287	 0.100022
H	 1.7588644832	-3.4147108286	-0.2039501941	 0.110282
H	 2.894775003	-2.1083601882	-0.6093311114	 0.101826
H	 1.8330285207	-2.346499776	 1.9347192709	 0.088622
H	-0.0961457451	 0.7124094345	 2.7929939644	 0.129574
H	-0.9765023326	-0.80805247	 2.5737902633	 0.122447
H	 0.6039549555	-0.7997356575	 3.3860213687	 0.126571
94.3711	177.2268	205.3207	230.8594	245.6392	285.6146	328.5554	361.669	402.1207	479.9888	502.6406	559.1566	669.3189	709.4637	782.6852	879.3785	895.9603	917.4944	952.0203	987.7205	1019.6987	1024.572	1076.2033	1098.1047	1113.5907	1142.6797	1149.2813	1175.447	1243.2238	1269.6138	1317.5035	1321.4679	1326.0231	1375.9869	1388.6798	1405.8281	1411.2121	1424.0812	1461.09	1482.8513	1484.6773	1493.7217	1501.5101	1505.0512	1507.1418	2967.1477	2988.9758	3020.4263	3037.189	3039.7337	3074.3418	3084.6652	3100.1259	3102.1217	3105.6397	3116.1008	3123.2533
CC1COCC2OC12C	C[C@H]1COC[C@H]2O[C@@]12C	
InChI=1S/C7H12O2/c1-5-3-8-4-6-7(5,2)9-6/h5-6H,3-4H2,1-2H3	InChI=1S/C7H12O2/c1-5-3-8-4-6-7(5,2)9-6/h5-6H,3-4H2,1-2H3/t5-,6+,7-/m0/s1
