19
gdb 62070	4.01113	0.81923	0.74336	3.9893	72.93	-0.247	-0.0253	0.2217	1525.0375	0.155569	-460.133662	-460.123746	-460.122802	-460.170025	34.423	
C	-0.0123976397	 1.0715175437	 1.1936082837	-0.408014
C	 0.2572415359	-0.1358640127	 0.298384919	 0.034326
O	 0.5149775628	-1.3320008383	 1.0256284338	-0.264887
C	 1.8690674776	-1.7151012936	 1.1555735605	-0.105981
C	 2.6422373136	-0.8806797227	 2.1473145734	 0.075416
C	 4.090891103	-0.6854926428	 2.0146110612	-0.177821
O	 3.1794989422	 0.3550890562	 1.6601780305	-0.228033
C	-0.9259649202	-0.4426795951	-0.6199488616	 0.151512
O	-1.636381087	 0.3911749233	-1.115523349	-0.243987
H	 0.9003075773	 1.396087573	 1.6957650757	 0.14402
H	-0.3974049086	 1.8907734079	 0.5812432499	 0.139627
H	-0.7668083851	 0.8172730321	 1.9437235069	 0.124798
H	 1.1078310506	 0.0852771508	-0.3677162559	 0.109785
H	 1.8497609874	-2.7565572614	 1.4974206647	 0.115934
H	 2.3844870257	-1.681907564	 0.1830669404	 0.098736
H	 2.1962903257	-0.8115234981	 3.1399749671	 0.10622
H	 4.6921168943	-0.5017327623	 2.9031697946	 0.123244
H	 4.6229057458	-1.1425366774	 1.1809907589	 0.11849
H	-1.0650967011	-1.5315844985	-0.8032703139	 0.086614
34.5004	72.9778	83.2426	97.1889	216.9045	223.8312	265.0617	290.1012	344.6385	410.1255	431.9036	559.0175	592.7821	790.1178	825.1971	862.8613	897.9768	924.8379	950.1866	996.1687	1081.4908	1094.9305	1110.5927	1138.4478	1151.55	1156.2902	1163.48	1179.9786	1285.362	1298.7148	1314.338	1357.7681	1374.9345	1390.4811	1405.9218	1450.3708	1474.5505	1490.0117	1500.7921	1529.796	1839.0479	2891.1546	2975.4796	2987.795	3053.6086	3065.7476	3086.7235	3115.2934	3129.5992	3148.5506	3174.2759
CC(OCC1CO1)C=O	C[C@@H](OC[C@H]1CO1)C=O	
InChI=1S/C6H10O3/c1-5(2-7)8-3-6-4-9-6/h2,5-6H,3-4H2,1H3	InChI=1S/C6H10O3/c1-5(2-7)8-3-6-4-9-6/h2,5-6H,3-4H2,1H3/t5-,6+/m1/s1
