14
gdb 25159	3.24739	1.23871	0.97029	3.502	68.83	-0.2111	0.0094	0.2205	1148.7748	0.101694	-432.890739	-432.882837	-432.881893	-432.924632	28.321	
N	-0.005957401	 1.3081278341	-0.301508337	-0.615081
C	 0.0209723339	 0.0549244707	-0.1196270501	 0.488313
O	 1.1120814833	-0.7819147314	-0.0977525895	-0.218943
C	 0.6623573696	-2.0745081425	 0.1218592531	-0.046831
C	-0.6674452488	-2.0774538337	 0.236743386	-0.113982
N	-1.0863236329	-0.7515411948	 0.0914762075	-0.104794
C	-2.4287282927	-0.2254532299	 0.1152130655	-0.292567
C	-3.141568158	-0.5475331182	 1.3589764687	 0.264984
N	-3.7099181581	-0.8283741459	 2.3242377267	-0.296895
H	 0.9253678526	 1.689509376	-0.4327746712	 0.23486
H	 1.4101875749	-2.8449497919	 0.1706738838	 0.159892
H	-1.3587760886	-2.8806605728	 0.4245901732	 0.167427
H	-2.3328457022	 0.8601812421	 0.008692815	 0.209297
H	-3.0208150822	-0.5952408018	-0.7318750219	 0.16432
29.5413	71.9633	201.1031	233.3369	278.2439	370.5104	443.7632	542.0033	574.5488	682.2176	696.8924	711.3236	742.3614	782.8806	805.3786	905.3256	925.4321	978.3749	1002.0317	1058.1051	1132.7409	1183.6482	1242.2225	1285.0455	1343.3713	1392.3835	1448.9474	1474.8509	1663.9909	1779.6556	2367.084	3026.4055	3092.2225	3288.9229	3318.5044	3563.0694
N=C1OC=CN1CC#N	[NH][C@@H]1OC=CN1CC#N	
InChI=1S/C5H5N3O/c6-1-2-8-3-4-9-5(8)7/h3-4,7H,2H2	InChI=1S/C5H6N3O/c6-1-2-8-3-4-9-5(8)7/h3-5,7H,2H2/t5-/m0/s1
