14
gdb 18653	3.42902	2.31058	1.5567	3.9274	64.02	-0.2466	-0.0586	0.188	790.5054	0.108397	-382.552753	-382.546475	-382.54553	-382.583191	24.071	
O	 0.0438085609	 0.0569068374	 0.5048903466	-0.335071
C	-0.0198058802	 1.2067835584	 0.1168037214	 0.401909
C	-1.2985213169	 1.8980353515	-0.1375625144	-0.158215
C	-1.3779702449	 3.0337081664	-0.8411026316	-0.038223
C	-0.1991970118	 3.7469674791	-1.4374605014	-0.309853
C	 1.1358675397	 3.2602241752	-0.9218967236	 0.051623
O	 1.3043158369	 3.2812337042	 0.4871495843	-0.242885
C	 1.2313790753	 1.9981169695	-0.1571239562	-0.081484
H	-2.1855769709	 1.3963241379	 0.2351503801	 0.115184
H	-2.3519067094	 3.4795611018	-1.0295472953	 0.113898
H	-0.2262583077	 3.6404417738	-2.5315914764	 0.132747
H	-0.2858417262	 4.8258423608	-1.2487400715	 0.135798
H	 2.0120175121	 3.5827210523	-1.4845000847	 0.104187
H	 2.151304243	 1.4177804018	-0.1447932873	 0.110385
109.7348	241.4737	321.0092	365.0524	438.3796	499.9425	542.2526	653.5101	737.3059	785.516	846.5305	873.5785	904.6172	944.1205	953.6204	1012.0536	1036.2642	1067.1761	1132.1731	1174.5115	1230.4274	1268.3276	1272.7234	1361.044	1375.8184	1409.7031	1443.9951	1454.2087	1688.5809	1776.486	3011.349	3038.5397	3112.2892	3148.3373	3156.2206	3193.918
O=C1C=CCC2OC12	O=C1C=CC[C@H]2O[C@@H]12	
InChI=1S/C6H6O2/c7-4-2-1-3-5-6(4)8-5/h1-2,5-6H,3H2	InChI=1S/C6H6O2/c7-4-2-1-3-5-6(4)8-5/h1-2,5-6H,3H2/t5-,6+/m1/s1
