14
gdb 130984	4.56282	0.94215	0.81523	3.7033	63.84	-0.241	-0.0311	0.2099	1312.2548	0.100655	-470.003151	-469.995029	-469.994084	-470.037516	27.942	
O	 0.414770874	 0.9317152293	 1.2112964573	-0.232358
C	 0.5081112228	 1.7139738891	 0.3060967975	 0.175781
C	 1.2908366696	 1.4157955005	-0.9746643413	-0.263152
N	 1.4331346951	 2.5820254708	-1.8212189712	-0.385074
C	 2.346561979	 3.5427860937	-1.514711389	 0.463805
N	 2.9701911214	 3.6021368696	-0.356500462	-0.2183
O	 3.7623709217	 4.7651331071	-0.4964213728	-0.15902
C	 3.5165934441	 5.2356801256	-1.7127808363	 0.123011
N	 2.663496267	 4.551287804	-2.4048976363	-0.336163
H	 0.0072403373	 2.7072772554	 0.3153481037	 0.095504
H	 2.2586480466	 0.9823861745	-0.690622134	 0.156866
H	 0.7338444025	 0.6513937519	-1.5256943991	 0.143569
H	 1.2134443324	 2.5065414132	-2.8000777472	 0.267138
H	 4.0425891565	 6.1314044652	-2.0106053194	 0.168393
36.0688	73.25	110.2493	189.3173	280.2417	358.2604	396.054	420.9579	606.6314	627.6478	664.7782	773.5774	779.0649	912.6929	921.3666	973.4011	1007.2454	1027.1259	1109.5751	1135.2694	1169.5944	1266.9357	1301.884	1335.7443	1346.0056	1403.6277	1440.6938	1490.8525	1592.3186	1643.1504	1847.1794	2895.7831	3028.771	3093.7734	3262.8561	3660.5834
O=CCNC1=NOC=N1	O=CCNc1nocn1	
InChI=1S/C4H5N3O2/c8-2-1-5-4-6-3-9-7-4/h2-3H,1H2,(H,5,7)	InChI=1S/C4H5N3O2/c8-2-1-5-4-6-3-9-7-4/h2-3H,1H2,(H,5,7)
