19
gdb 17617	3.98201	1.39715	1.14035	3.3667	74.76	-0.2326	0.0303	0.2629	1102.3409	0.164818	-365.079674	-365.070447	-365.069502	-365.114566	32.129	
C	 0.0043087199	 1.407696307	 0.0300093844	-0.344725
N	-0.0442345058	-0.0458326402	 0.0500201487	-0.105485
C	 0.2794389514	-0.6724531694	 1.3189320428	-0.335959
C	-0.321317039	-0.7122121595	-1.1192578999	 0.443247
O	-0.6316230118	-0.1149968844	-2.1429247276	-0.406251
C	-0.2361892317	-2.2094559992	-1.1187080762	-0.141181
C	-1.3258156102	-2.9475966544	-1.8824546458	-0.24806
C	 0.0474588786	-2.8594745776	-2.4605369368	-0.247112
H	 1.0005237095	 1.7666842949	 0.3193273984	 0.117401
H	-0.2247063865	 1.7422304047	-0.9799111654	 0.171125
H	-0.7277560392	 1.83029895	 0.7294832656	 0.118492
H	-0.0856430136	-0.0344024743	 2.1301564131	 0.129169
H	-0.2109017713	-1.6398291856	 1.4244011872	 0.142772
H	 1.3614294552	-0.806290081	 1.4611999772	 0.123322
H	 0.1734284079	-2.7100442089	-0.2528269177	 0.084159
H	-1.6680709823	-3.8916168813	-1.4737983576	 0.110614
H	-2.0912453905	-2.3243708877	-2.3290815842	 0.137144
H	 0.192842891	-2.1745659052	-3.2866779185	 0.142455
H	 0.6748234083	-3.743482528	-2.4575721779	 0.108874
40.275	71.7822	92.5018	139.3787	210.3267	231.8666	295.7792	343.835	398.6083	468.3185	602.6062	744.1421	752.3606	803.0198	832.0276	903.19	916.5356	990.0163	1065.9017	1081.3843	1094.9725	1107.6722	1125.6486	1130.5182	1149.3872	1174.223	1210.3454	1230.9315	1289.0849	1366.2124	1425.2808	1444.4036	1450.8941	1476.0809	1484.0734	1496.9705	1499.166	1506.843	1537.2091	1732.3332	3001.1187	3012.4432	3057.606	3075.647	3139.7914	3141.2351	3144.8881	3173.351	3205.6096	3231.7716	3247.1245
CN(C)C(=O)C1CC1	CN(C)C(=O)C1CC1	
InChI=1S/C6H11NO/c1-7(2)6(8)5-3-4-5/h5H,3-4H2,1-2H3	InChI=1S/C6H11NO/c1-7(2)6(8)5-3-4-5/h5H,3-4H2,1-2H3
