15
gdb 133525	2.13361	1.49099	1.32316	0.7309	59.36	-0.2631	0.0338	0.2968	1025.3455	0.106606	-548.278834	-548.26945	-548.268506	-548.312684	34.673	
C	-0.0240984368	 1.5556883483	 0.0355663488	-0.412128
C	-0.007727111	 0.0149434322	 0.0443495693	-0.118353
N	 0.6811611123	-0.4520591255	 1.2513738081	-0.526404
C	-1.3755653397	-0.5136410523	 0.0322073125	 0.378396
C	-2.499211906	-0.9351862347	 0.0264253439	-0.464091
C	 0.7135731715	-0.4889730082	-1.2336488568	 0.273161
F	 1.9844498692	-0.0463943333	-1.2525119331	-0.08614
F	 0.7583085442	-1.8273657958	-1.2683527513	-0.077283
F	 0.1218999357	-0.0672618208	-2.3556557068	-0.069558
H	 0.9993159032	 1.9408565301	 0.0315842424	 0.127712
H	-0.5447042412	 1.9325075049	-0.8461613661	 0.141799
H	-0.5320388707	 1.9059173949	 0.9346686333	 0.14563
H	 0.6767273273	-1.4674458778	 1.2767682457	 0.243256
H	 1.6532084933	-0.1567417775	 1.2137214263	 0.237834
H	-3.4921257013	-1.3128210447	 0.0181744638	 0.206169
75.7378	133.7908	182.1894	221.9498	232.6077	270.9038	300.3894	341.3593	394.2643	417.3167	438.351	534.9488	562.6924	599.4179	630.1472	650.9948	669.1377	747.6005	859.6974	898.6143	985.2642	1050.631	1120.2093	1194.9336	1210.9474	1224.7625	1278.2677	1350.5555	1404.1129	1488.8286	1492.9749	1656.9817	2248.0843	3059.4526	3137.9402	3158.9989	3491.3959	3500.3429	3577.7696
CC(N)(C#C)C(F)(F)F	C[C@@](N)(C#C)C(F)(F)F	
InChI=1S/C5H6F3N/c1-3-4(2,9)5(6,7)8/h1H,9H2,2H3	InChI=1S/C5H6F3N/c1-3-4(2,9)5(6,7)8/h1H,9H2,2H3/t4-/m1/s1
