19
gdb 36483	3.9866	1.03596	0.90178	1.4272	79.79	-0.2312	0.0527	0.2839	1298.2676	0.159437	-385.841529	-385.833244	-385.8323	-385.874623	32.146	
C	-0.0007450038	-1.2053862563	-0.1134532485	-0.446081
C	-0.0229700946	-0.0066014005	-0.0253354477	 0.30054
C	-0.0149222664	 1.4485928818	 0.0810822535	-0.369465
C	 1.4044548141	 2.0489760593	 0.0512449693	-0.005843
C	 2.1727395266	 1.7424171447	-1.2589476987	-0.101394
O	 3.059888258	 2.8349089307	-1.4885478436	-0.256745
C	 2.5243023537	 3.9690506302	-0.8585647041	 0.117029
C	 1.0922014383	 4.3456392921	-1.1343043574	-0.33311
C	 1.4630620628	 3.5684892641	 0.1226626312	-0.099862
H	 0.0057616296	-2.2642333461	-0.1924304242	 0.196061
H	-0.6063393221	 1.8808025373	-0.7363734874	 0.130464
H	-0.515089164	 1.7491151074	 1.0100944834	 0.131564
H	 1.9658757641	 1.6473082447	 0.9025085082	 0.091108
H	 2.7667040585	 0.8274657606	-1.2088458253	 0.121663
H	 1.4677823415	 1.6369815811	-2.0969464554	 0.098136
H	 3.2773613525	 4.7249681678	-0.6709586903	 0.102365
H	 0.8192759775	 5.3871071179	-1.0027119712	 0.115157
H	 0.5612007286	 3.8469157656	-1.9382783198	 0.118094
H	 1.3610057454	 4.0482023477	 1.089167588	 0.090319
72.8364	108.6031	162.6146	244.934	312.6357	352.7737	412.9724	444.3415	501.7162	622.423	639.1727	662.3632	696.761	770.0056	806.0027	856.9841	904.4818	935.3781	957.3258	981.2406	993.1008	1036.3992	1043.1934	1076.6229	1082.8867	1103.2981	1121.9347	1167.6949	1199.6465	1217.8396	1251.1713	1292.4139	1320.5301	1330.2645	1364.162	1387.1928	1405.9633	1470.6658	1478.847	1525.1469	2236.828	2993.195	3020.8403	3038.7547	3058.4918	3103.6671	3133.5841	3173.0341	3187.4792	3218.6209	3505.8971
C#CCC1COC2CC12	C#CC[C@H]1CO[C@H]2C[C@@H]12	
InChI=1S/C8H10O/c1-2-3-6-5-9-8-4-7(6)8/h1,6-8H,3-5H2	InChI=1S/C8H10O/c1-2-3-6-5-9-8-4-7(6)8/h1,6-8H,3-5H2/t6-,7-,8-/m0/s1
