23
gdb 94681	2.36562	1.6056	1.17766	1.3651	85.09	-0.2207	0.0802	0.3009	1172.9928	0.204821	-388.298493	-388.288956	-388.288012	-388.331902	37.195	
C	-0.0228848606	 1.5438270394	-0.0403150288	-0.407196
C	 0.0316391715	 0.0179501413	 0.0427002401	-0.043343
C	 0.7928580494	-0.6341769157	-1.1320495671	-0.113429
O	 1.3463784524	-1.8521498149	-0.6479126303	-0.297692
C	 1.5353962956	-1.7320812021	 0.7475894411	 0.411362
C	 1.6831566493	-3.0769290828	 1.3992071432	-0.466973
C	 2.2694515637	-0.5001975506	 1.2295947889	-0.411964
C	 0.7436971271	-0.560105458	 1.2675607829	 0.270583
C	 0.0133629253	-0.5422941079	 2.5883532673	-0.486653
H	 0.9836897282	 1.9746575956	-0.0088460694	 0.117145
H	-0.5011051447	 1.8738882451	-0.9690872198	 0.114114
H	-0.594459995	 1.9674029002	 0.7915655774	 0.1173
H	-0.9957159661	-0.3714991381	 0.0585538418	 0.07203
H	 0.1514139723	-0.8697021442	-1.9863968915	 0.105916
H	 1.590021847	 0.036171041	-1.4894670467	 0.089494
H	 2.5675210622	-3.5941377326	 1.0128577248	 0.12801
H	 1.7961431446	-2.9775610832	 2.481843503	 0.115567
H	 0.8089336751	-3.7032444574	 1.1944583646	 0.121916
H	 2.7819835287	-0.5705586081	 2.1840457029	 0.105283
H	 2.770408678	 0.1372205042	 0.508404433	 0.109572
H	-0.1355120333	 0.4833422619	 2.9467022304	 0.118584
H	-0.9750974879	-1.0096844371	 2.5034359908	 0.115398
H	 0.5701379473	-1.0771472259	 3.3637908515	 0.114976
119.4661	189.5268	195.5966	205.3008	215.6292	231.9197	245.0698	304.1687	372.9888	408.0866	455.0387	510.9584	555.7377	639.5287	677.9406	723.5614	829.5421	894.9545	910.7664	933.1	944.785	956.0161	980.7942	1033.8045	1055.9538	1078.0377	1085.879	1114.0674	1145.8207	1148.9224	1185.8186	1234.5217	1248.6841	1272.2761	1342.3105	1351.8465	1389.3886	1402.4736	1410.155	1416.0043	1430.6916	1475.1911	1484.6576	1491.0014	1493.5446	1497.2125	1501.7083	1513.9318	1526.7571	2978.5838	3006.8541	3020.139	3029.5223	3038.0071	3075.6389	3077.8948	3095.0826	3098.202	3101.0985	3102.0286	3119.6683	3124.879	3207.4239
CC1COC2(C)CC12C	C[C@H]1CO[C@@]2(C)C[C@@]12C	
InChI=1S/C8H14O/c1-6-4-9-8(3)5-7(6,8)2/h6H,4-5H2,1-3H3	InChI=1S/C8H14O/c1-6-4-9-8(3)5-7(6,8)2/h6H,4-5H2,1-3H3/t6-,7-,8-/m0/s1
