20
gdb 109317	1.98927	1.56433	0.94255	2.4012	86.78	-0.2295	-0.0188	0.2106	1302.058	0.170536	-403.181013	-403.171458	-403.170513	-403.216392	34.014	
C	-0.0353034143	 1.556287056	 0.2267241204	-0.377335
C	-0.0375416979	 0.0427602406	-0.0526937097	-0.291428
C	-1.4144751353	-0.5438788312	-0.0573744116	 0.247651
C	-2.1435696615	-1.0204727107	-1.0707453619	-0.22343
C	-3.4699846037	-1.496736804	-0.5595120513	-0.13672
O	-3.4322222048	-1.2427462987	 0.8466798072	-0.258912
C	-2.2145052141	-0.6896165217	 1.1756391207	 0.387359
N	-1.846925818	-0.3741772799	 2.343453389	-0.334688
C	-2.748323163	-0.6006481081	 3.4603897818	-0.33226
H	 0.9886843553	 1.9416676503	 0.2359483765	 0.111461
H	-0.5959012388	 2.0986303737	-0.541413842	 0.111192
H	-0.4910555935	 1.7603840713	 1.1979910734	 0.148025
H	 0.4476662105	-0.1639074353	-1.0126211743	 0.097861
H	 0.5480506626	-0.4583866789	 0.726405275	 0.124301
H	-1.8556305136	-1.0798845425	-2.1123758879	 0.112808
H	-4.3216671827	-0.957378043	-0.9964577725	 0.124994
H	-3.635376056	-2.5701707952	-0.7269053589	 0.124791
H	-2.1631956349	-0.9040933588	 4.3344030222	 0.11945
H	-3.2551341552	 0.3365911221	 3.725665172	 0.123223
H	-3.5176003611	-1.356897676	 3.2653372118	 0.121658
38.3387	75.5625	143.1602	150.1046	178.8843	238.101	253.5557	301.9009	330.2145	508.3447	539.5993	603.6278	741.0943	762.714	789.2652	809.6577	831.1294	946.7904	962.3888	1031.5278	1046.6818	1049.5098	1079.6032	1095.5313	1112.4783	1131.3426	1171.6408	1197.1351	1230.721	1281.1238	1353.6905	1368.1363	1382.1025	1403.5376	1438.0065	1475.6664	1490.2392	1494.9683	1498.2561	1504.7076	1512.1725	1705.4272	1773.1029	3005.649	3009.7587	3032.1445	3037.632	3040.9585	3065.4242	3078.5154	3090.1192	3108.2111	3135.9542	3220.7211
CCC1=CCOC1=NC	CCC1=CCOC1=NC	
InChI=1S/C7H11NO/c1-3-6-4-5-9-7(6)8-2/h4H,3,5H2,1-2H3	InChI=1S/C7H11NO/c1-3-6-4-5-9-7(6)8-2/h4H,3,5H2,1-2H3
