18
gdb 77826	2.42787	1.61578	1.37742	5.1558	71.66	-0.2632	0.0174	0.2806	1033.1757	0.147491	-439.114857	-439.106454	-439.10551	-439.147599	31.547	
C	-0.0567184515	 1.5366531833	-0.0542954373	-0.434776
C	 0.0018820687	 0.0347538414	 0.0925095656	-0.047333
N	 1.2524371568	-0.753588959	-0.1678112462	-0.225912
C	 2.4252976256	 0.0604306018	-0.1574537521	 0.457128
O	 3.1208798652	 0.3081098937	-1.0924504917	-0.341631
O	 2.6869351913	 0.5339497593	 1.102518387	-0.231763
C	 1.6944954959	 0.0886541651	 2.0292781943	-0.157952
C	 0.6832322897	-0.6929900831	 1.1948177975	 0.284899
C	 0.112709829	-1.9566898616	 1.7870463569	-0.482259
H	 0.7811142874	 2.0480082563	 0.42429919	 0.147591
H	-0.0607221718	 1.8154351046	-1.1125708614	 0.148879
H	-0.9843723947	 1.9085396584	 0.3928957456	 0.128244
H	-0.8555433269	-0.4760830082	-0.3411741932	 0.107101
H	 2.1694209414	-0.5605257604	 2.7725978218	 0.125205
H	 1.2739924745	 0.9594414017	 2.5429791483	 0.124396
H	-0.5043198094	-1.7287228904	 2.6634092567	 0.126925
H	-0.5105268642	-2.4788739787	 1.0572898123	 0.138841
H	 0.912279843	-2.6358422441	 2.1008917258	 0.132418
120.0619	174.7207	181.9757	195.2298	221.6058	252.0603	319.9413	420.779	506.1444	547.6482	585.1485	691.4993	703.6771	798.4777	824.787	831.7473	939.8222	956.7687	995.7828	1029.3117	1064.1625	1086.6112	1102.6279	1131.0675	1145.7218	1167.2809	1230.2777	1290.5988	1345.2677	1385.6613	1419.4597	1423.6168	1452.9488	1487.1273	1491.8653	1495.231	1503.6498	1525.8238	1899.3366	3034.4982	3041.9489	3044.6604	3081.8506	3099.2605	3106.5995	3121.2462	3126.4022	3139.2709
CC1N2C(=O)OCC12C	C[C@H]1N2C(=O)OC[C@@]12C	
InChI=1S/C6H9NO2/c1-4-6(2)3-9-5(8)7(4)6/h4H,3H2,1-2H3	InChI=1S/C6H9NO2/c1-4-6(2)3-9-5(8)7(4)6/h4H,3H2,1-2H3/t4-,6+,7?/m1/s1
