19
gdb 105762	2.4179	1.41644	1.1727	1.503	77.46	-0.245	0.0336	0.2786	1142.5519	0.157396	-422.97915	-422.969698	-422.968754	-423.013859	34.297	
C	 0.1377890899	 1.0973390111	-0.2330740458	-0.252034
O	 0.298400837	-0.2677706841	 0.1009776454	-0.281748
C	 0.6921667352	-0.5598501205	 1.4402343991	 0.182712
C	 0.7717926969	-2.0987837026	 1.5047812036	-0.261108
C	 2.1183829517	-2.3699259102	 0.8280226295	-0.081747
O	 2.9472999133	-1.2403092573	 1.1161191848	-0.265243
C	 2.1771559965	-0.202903976	 1.697485491	-0.100679
C	-0.215657461	 0.0288422328	 2.4265815831	 0.276484
C	-0.9565217883	 0.5166526839	 3.2380838809	-0.440337
H	 1.0788976149	 1.6604490732	-0.1668907631	 0.109855
H	-0.2053517082	 1.1184799507	-1.2698157973	 0.130591
H	-0.6097230328	 1.5854895758	 0.4047673052	 0.122454
H	 0.7774678619	-2.419419771	 2.5494158479	 0.117446
H	-0.0772704411	-2.554595575	 0.9940781284	 0.12371
H	 2.6063320735	-3.2743889191	 1.2071160224	 0.101632
H	 2.0007761366	-2.4658871029	-0.2583749673	 0.109773
H	 2.4581740722	 0.7529530581	 1.2447662706	 0.111359
H	 2.3589491507	-0.1355016879	 2.7796389394	 0.099635
H	-1.6131016791	 0.9426976911	 3.9563135122	 0.197244
51.7925	100.295	133.9781	150.6248	166.4105	229.9141	295.2208	371.1956	421.2344	499.0696	531.9192	599.2935	626.9862	673.232	675.8257	774.8715	847.757	907.6558	919.7148	981.1386	1002.8536	1073.8245	1107.3322	1136.5375	1150.897	1166.7873	1183.2214	1195.4315	1232.5704	1242.8907	1266.3466	1317.7512	1366.2048	1401.9334	1474.956	1475.2161	1487.5809	1507.2186	1516.7373	1527.5535	2230.4185	2999.1767	3003.8371	3024.0197	3059.774	3062.2192	3076.9773	3080.352	3121.5443	3139.433	3499.1323
COC1(CCOC1)C#C	CO[C@]1(CCOC1)C#C	
InChI=1S/C7H10O2/c1-3-7(8-2)4-5-9-6-7/h1H,4-6H2,2H3	InChI=1S/C7H10O2/c1-3-7(8-2)4-5-9-6-7/h1H,4-6H2,2H3/t7-/m0/s1
