18
gdb 30712	3.10467	1.16148	0.8871	2.1514	77.02	-0.1875	0.0378	0.2253	1304.6986	0.146938	-439.116724	-439.106912	-439.105968	-439.151744	35.155	
C	 0.2477070396	 1.4622449899	 0.0397151442	-0.531593
C	 0.0403649527	-0.0213333637	 0.0198506756	 0.16825
C	-0.2294323045	-0.824772464	-1.0696207688	-0.168358
N	-0.3721941871	-2.1119951767	-0.6376352995	-0.29944
C	-0.1720676044	-2.1832275449	 0.7294024723	 0.186845
C	-0.2501755714	-3.4703432275	 1.4711015288	-0.18591
O	 0.5680428203	-4.4928422452	 0.8910451669	-0.422759
C	 0.0781497649	-0.8937270117	 1.1481740386	 0.153925
O	 0.3038073256	-0.5479489792	 2.4529078803	-0.452155
H	 1.235083688	 1.7397121339	 0.4333311224	 0.119504
H	 0.1782333537	 1.8799687055	-0.9684031072	 0.129098
H	-0.5014574027	 1.9795264494	 0.6541641365	 0.122773
H	-0.3252767674	-0.5674702017	-2.1128767465	 0.115162
H	-0.4696915699	-2.9239115606	-1.2217034689	 0.264078
H	 0.0044757258	-3.2849327757	 2.5232226367	 0.114639
H	-1.2627443688	-3.8927123635	 1.4512868035	 0.111884
H	 1.4672239241	-4.1472830215	 0.8664036658	 0.278418
H	 0.4872835515	 0.3951702173	 2.4893301793	 0.295639
52.0525	108.5751	111.7377	167.0387	208.3522	238.4609	254.8182	311.5784	365.5192	383.7067	451.6347	521.7424	590.6415	651.1969	695.4319	719.7915	744.9276	766.9141	963.5988	977.8995	997.6964	1045.0164	1062.6121	1116.579	1191.4991	1227.3295	1259.9573	1284.1443	1344.2422	1377.1413	1414.9673	1420.1137	1440.5261	1484.6661	1491.9283	1503.0729	1512.0474	1568.2374	1675.8817	3004.3862	3013.4156	3044.093	3048.3749	3105.2631	3254.6058	3684.529	3800.4335	3840.1381
CC1=CNC(CO)=C1O	Cc1c[nH]c(CO)c1O	
InChI=1S/C6H9NO2/c1-4-2-7-5(3-8)6(4)9/h2,7-9H,3H2,1H3	InChI=1S/C6H9NO2/c1-4-2-7-5(3-8)6(4)9/h2,7-9H,3H2,1H3
