19
gdb 90985	2.73358	1.8744	1.37636	1.3291	74.4	-0.2381	0.0635	0.3015	978.3542	0.159695	-422.984625	-422.976986	-422.976042	-423.016194	31.012	
C	-0.1017106	 1.5260400962	-0.0480013978	-0.398216
C	 0.0235685979	 0.0130236453	 0.0214662453	 0.063592
O	 0.8655008127	-0.4991000046	-1.0256911823	-0.295245
C	 1.8684585845	-1.1941997984	-0.3033806152	 0.140873
C	 1.2529288412	-1.9847713917	 0.8823946173	-0.165428
C	 2.5422051717	-1.7335508001	 1.6969462242	-0.268713
C	 2.2983185924	-0.394410422	 0.9612458911	-0.127945
C	 0.7706562972	-0.5290970116	 1.2502406832	 0.390217
O	 0.3104449318	-0.1862246372	 2.5170569041	-0.488674
H	 0.8810499714	 2.0009726261	 0.0243422073	 0.121799
H	-0.562105229	 1.8307484954	-0.9918897261	 0.122724
H	-0.7222159732	 1.8902672472	 0.7769495868	 0.116684
H	-0.9723963375	-0.4493775372	-0.0655777424	 0.065212
H	 2.6014191862	-1.6415038141	-0.9716637023	 0.090173
H	 0.6406866163	-2.8865067838	 0.8272822347	 0.067933
H	 2.4250374199	-1.7061562085	 2.7806504378	 0.111932
H	 3.428900297	-2.3021352414	 1.4036240561	 0.090899
H	 2.8905713333	 0.5199120683	 0.9988923398	 0.076404
H	-0.5703475935	-0.5588458779	 2.6347126284	 0.285779
148.9582	207.4036	234.2064	260.2051	321.4358	362.4395	427.8669	487.4552	490.9344	648.0023	676.9561	709.2332	779.5041	846.1056	866.5662	903.3633	910.5503	941.6662	953.0129	1011.6881	1045.3963	1073.6757	1080.1577	1095.4406	1099.3133	1120.9303	1142.5234	1165.1032	1177.6145	1219.9799	1231.5544	1251.7499	1280.0477	1306.4952	1332.0578	1377.815	1394.5781	1405.8033	1483.815	1494.7606	1514.1614	2976.3372	3041.5107	3062.1457	3099.7285	3113.621	3116.1002	3120.8921	3135.6137	3150.2712	3801.1876
CC1OC2C3CC2C13O	C[C@H]1O[C@@H]2[C@H]3C[C@@H]2[C@@]13O	
InChI=1S/C7H10O2/c1-3-7(8)4-2-5(7)6(4)9-3/h3-6,8H,2H2,1H3	InChI=1S/C7H10O2/c1-3-7(8)4-2-5(7)6(4)9-3/h3-6,8H,2H2,1H3/t3-,4-,5+,6-,7-/m1/s1
