17
gdb 97706	2.74697	0.86579	0.71261	2.3099	80.4	-0.2533	-0.0395	0.2138	1613.4056	0.132427	-421.785076	-421.775267	-421.774323	-421.822028	33.722	
C	 0.2163348369	 1.3371302652	 0.547855613	-0.367117
C	-0.0910561206	 0.2399568168	-0.4880165085	-0.3264
C	-1.4255495338	-0.3270982381	-0.3389857928	 0.206549
C	-2.532043687	-0.7801480504	-0.1956997362	-0.03649
C	-3.8623890962	-1.2861043086	-0.0229350135	 0.090032
C	-4.2763558318	-2.5862029471	-0.6213348258	-0.205456
O	-4.0346311811	-2.4912282142	 0.764769602	-0.252253
C	-4.9819244629	-0.3044843149	 0.2178719007	 0.112132
O	-4.8947123516	 0.885621946	 0.0953807908	-0.235223
H	 1.2236408184	 1.7335194103	 0.3908893263	 0.117261
H	-0.497718899	 2.1602189612	 0.4635326001	 0.138521
H	 0.1554019046	 0.9393254888	 1.5641446056	 0.132804
H	 0.0130101783	 0.6481095214	-1.5014817406	 0.136815
H	 0.6510862233	-0.5645903777	-0.408836194	 0.135607
H	-5.3151019379	-2.7378077731	-0.9156002425	 0.125381
H	-3.5315914312	-3.1241607725	-1.2042958398	 0.138566
H	-5.9202830684	-0.8137503231	 0.5310432851	 0.089272
14.4192	67.4295	104.5075	123.5731	190.3344	224.8753	251.9195	345.177	363.1387	449.2006	475.4496	535.9648	569.1653	667.9701	784.6308	813.5368	879.3314	900.2298	962.4664	1036.0837	1059.3265	1091.9015	1103.9962	1137.3526	1162.7907	1277.084	1285.4289	1335.1753	1359.7232	1410.1866	1419.4821	1469.8932	1495.1992	1505.5293	1513.3555	1842.1385	2368.7953	2895.9053	3023.412	3047.7628	3052.2809	3081.1649	3122.1946	3129.6683	3179.6413
CCC#CC1(CO1)C=O	CCC#C[C@]1(CO1)C=O	
InChI=1S/C7H8O2/c1-2-3-4-7(5-8)6-9-7/h5H,2,6H2,1H3	InChI=1S/C7H8O2/c1-2-3-4-7(5-8)6-9-7/h5H,2,6H2,1H3/t7-/m1/s1
