17
gdb 37563	3.91099	1.68786	1.45976	0.8921	71.78	-0.2446	0.0734	0.318	910.1891	0.13732	-421.711005	-421.704591	-421.703647	-421.741812	26.152	
C	-0.0942583214	 1.618242022	-0.0357398423	-0.266652
C	 1.4180240794	 1.3230696526	 0.0110441793	-0.105646
C	 1.2469490943	 0.1366022799	 0.9968294686	-0.110471
C	-0.0329415714	 0.0789392142	 0.0157704497	-0.149811
C	 1.2624405174	 0.0092521195	-0.8642469652	 0.465436
O	 1.7732166201	-0.1803531619	-2.139173518	-0.344328
C	 3.1310021783	-0.6215187034	-1.8435109886	-0.000391
O	 3.3279196633	-0.6988697426	-0.4243902866	-0.29147
C	 2.0038165737	-0.859742547	 0.0837282778	 0.043289
H	-0.517959889	 2.1109367093	 0.8445806391	 0.096162
H	-0.4917493768	 2.0617216633	-0.9527421864	 0.105396
H	 2.2607494743	 2.0112106559	-0.0135737288	 0.083355
H	 1.1867721813	 0.192730599	 2.0821301623	 0.086174
H	-0.837576287	-0.6547470819	 0.0642666164	 0.085176
H	 3.2622943481	-1.604549371	-2.3153035364	 0.109666
H	 3.8504075969	 0.1000533777	-2.2431631987	 0.121805
H	 1.7275595486	-1.9177879457	 0.1719240681	 0.072309
98.8843	233.1529	300.0423	354.146	508.9974	548.2524	687.1775	693.6171	731.2497	803.4344	848.9115	861.5784	886.7129	910.476	923.8172	938.1286	1002.5005	1012.5237	1028.0026	1040.2543	1061.041	1075.8815	1122.4186	1134.1107	1142.75	1154.1415	1168.4029	1194.4515	1199.589	1232.6667	1243.4443	1300.9993	1313.9056	1388.2173	1418.5238	1509.5882	1534.5852	3009.851	3031.4865	3049.0988	3080.3648	3107.6017	3118.1086	3132.0423	3141.5399
C1C2C3C1C21OCOC31	C1[C@H]2[C@H]3[C@@H]1[C@]12OCO[C@@H]31	
InChI=1S/C7H8O2/c1-3-5-4(1)7(3)6(5)8-2-9-7/h3-6H,1-2H2	InChI=1S/C7H8O2/c1-3-5-4(1)7(3)6(5)8-2-9-7/h3-6H,1-2H2/t3-,4+,5-,6-,7-/m0/s1
