17
gdb 17523	4.66822	1.78196	1.64635	1.9868	67.07	-0.225	0.0733	0.2984	838.1089	0.142526	-363.778917	-363.771962	-363.771018	-363.810113	26.776	
C	-0.0148041808	 1.3774838109	-0.0343955023	-0.268559
O	 0.0155102061	-0.0386362976	-0.0299625686	-0.293997
C	 0.6441351245	-0.5771336636	 1.0703095376	 0.403897
C	 2.1785187412	-0.4165826778	 1.3239064688	-0.310969
C	 2.0627569722	-1.7665160997	 2.0259054244	-0.028885
C	 0.8149868782	-2.1231669761	 1.3148410541	-0.124879
N	 0.7526971452	-1.8433387994	 2.7762592523	-0.148094
C	 0.0709520582	-0.5331635586	 2.5042269595	-0.208441
H	 0.9977950437	 1.8045612106	-0.0509549582	 0.116541
H	-0.5436961621	 1.6824337342	-0.939373129	 0.133402
H	-0.5481524851	 1.7747346056	 0.8409668138	 0.11618
H	 2.7405463329	-0.5098694672	 0.3910737957	 0.11202
H	 2.5256909063	 0.4511538777	 1.8949199702	 0.093483
H	 2.8522978644	-2.4098283455	 2.3910057036	 0.101138
H	 0.4395383016	-3.017203976	 0.8361307584	 0.101329
H	 0.3534865085	 0.2905722261	 3.1700094074	 0.093534
H	-1.0094875652	-0.6953638835	 2.5345551121	 0.1123
77.2837	181.4588	202.8773	361.8039	372.0706	459.0972	462.1867	634.9998	714.1455	744.5133	794.7802	842.821	918.5959	947.1419	959.4075	974.0374	993.1186	1015.7713	1057.7042	1095.2783	1122.3092	1147.6366	1160.8338	1169.9018	1182.0552	1195.3098	1226.5987	1253.8987	1264.2461	1326.0401	1351.4076	1484.5648	1489.0826	1490.6303	1505.9368	1512.5462	2991.628	3030.94	3042.3256	3045.1534	3106.2834	3110.0753	3127.1087	3200.4345	3215.5351
COC12CC3C1N3C2	CO[C@]12C[C@@H]3[C@H]1N3C2	
InChI=1S/C6H9NO/c1-8-6-2-4-5(6)7(4)3-6/h4-5H,2-3H2,1H3	InChI=1S/C6H9NO/c1-8-6-2-4-5(6)7(4)3-6/h4-5H,2-3H2,1H3/t4-,5-,6+,7?/m1/s1
