16
gdb 14616	15.65264	0.61251	0.59602	2.1806	68.52	-0.2602	-0.0314	0.2287	1745.3978	0.126145	-383.699986	-383.690519	-383.689575	-383.735769	31.313	
O	-0.2482611664	 0.2190746192	 0.5614249034	-0.235117
C	 0.0361704782	 1.1165226299	-0.185208001	 0.139168
C	 1.3551176692	 1.8688132437	-0.132271083	-0.14591
O	 1.3438394595	 2.8450112957	-1.1411611038	-0.245957
C	 2.5254963759	 3.6161201254	-1.1962163691	-0.048408
C	 2.3648289081	 4.6277113942	-2.3354458013	-0.351711
C	 3.537077724	 5.4796243658	-2.4793411376	 0.284133
C	 4.5176933554	 6.1674931966	-2.5742376119	-0.442706
H	-0.6483064394	 1.4752793745	-0.9851552153	 0.09752
H	 1.4711087796	 2.3111490594	 0.871742394	 0.124938
H	 2.179956745	 1.1476997196	-0.2621752152	 0.124898
H	 2.6935721556	 4.1413190525	-0.2432071867	 0.106808
H	 3.4017466747	 2.9749031717	-1.37879184	 0.10679
H	 2.173894383	 4.0802445877	-3.2660044857	 0.142914
H	 1.4727298094	 5.2349647566	-2.1417756523	 0.14293
H	 5.377621998	 6.7829871476	-2.6700849344	 0.19971
39.5174	55.6847	83.8647	110.7488	129.1598	181.6226	333.2726	353.7856	370.8462	528.7029	569.967	627.7106	654.3193	740.0936	797.517	966.3704	1014.9534	1045.1959	1087.2278	1097.6937	1116.4343	1176.2249	1225.0996	1243.4173	1300.4388	1303.6971	1348.5706	1399.7436	1430.7919	1475.8894	1483.0184	1527.3811	1846.2127	2243.57	2900.2303	2962.0899	2979.9227	2991.8334	3011.8858	3035.6826	3073.7293	3506.9242
O=CCOCCC#C	O=CCOCCC#C	
InChI=1S/C6H8O2/c1-2-3-5-8-6-4-7/h1,4H,3,5-6H2	InChI=1S/C6H8O2/c1-2-3-5-8-6-4-7/h1,4H,3,5-6H2
