23
gdb 81775	2.10113	1.65317	1.26741	1.0877	85.44	-0.2363	0.071	0.3074	1155.3984	0.203454	-388.274749	-388.264734	-388.26379	-388.308399	39.141	
C	-0.4568725416	 1.5451475844	 0.354617209	-0.417328
C	-0.1086887781	 0.0693974328	 0.1933649972	-0.023737
C	 0.3213174522	-0.4492214931	-1.1861983919	-0.118558
C	 1.6644152773	 0.1103514601	-1.5691191067	-0.347774
C	 1.6071462802	-1.0442987598	-0.6054691009	 0.353059
C	 2.273595693	-2.366399832	-0.8612259033	-0.498796
C	 1.2228069877	-0.538815169	 0.7998239718	 0.323446
C	 2.1927235984	 0.3769207751	 1.5373694556	-0.458228
O	 0.9453220543	-1.6884715348	 1.5942025567	-0.479818
H	 0.3187992604	 2.2022094905	-0.0507027109	 0.11304
H	-1.3895086375	 1.7781550087	-0.1712130305	 0.115446
H	-0.5994750031	 1.810933575	 1.4083494026	 0.107104
H	-0.9254031701	-0.5470398657	 0.5812735209	 0.073111
H	-0.3462915799	-0.8767295731	-1.9261238894	 0.077875
H	 2.0081682677	-0.1537763011	-2.5648401024	 0.108188
H	 1.9700565041	 1.1065992321	-1.2599897196	 0.099476
H	 2.2151999274	-2.6297215846	-1.9226136257	 0.10893
H	 3.3353650725	-2.3403732075	-0.5870159054	 0.113379
H	 1.7980547802	-3.1608031664	-0.2805425297	 0.136181
H	 2.4732579959	 1.2504766646	 0.9440353723	 0.116714
H	 1.7450734786	 0.7455716401	 2.4694129892	 0.1026
H	 3.1027685764	-0.1735961978	 1.7949967568	 0.123686
H	 0.6119593341	-1.3841695187	 2.4451379042	 0.272001
129.2747	189.9055	204.6497	209.8437	215.9048	229.6083	251.5676	262.5001	312.5858	373.6143	399.1947	454.3204	488.105	546.7758	607.549	654.6022	754.0687	811.7325	851.6015	887.4741	949.4649	970.3551	975.0893	1009.5123	1011.3409	1035.3043	1073.5463	1084.9969	1113.3959	1115.6032	1125.002	1187.0469	1196.6854	1246.5197	1262.6531	1279.5429	1358.0336	1365.524	1401.2864	1403.4646	1410.692	1424.2564	1481.9717	1485.4503	1489.2334	1494.4201	1500.9662	1503.1688	1509.6212	3022.921	3025.2864	3027.6212	3056.4493	3083.4484	3086.7479	3090.9763	3100.5061	3111.2389	3117.3217	3122.4822	3166.9144	3191.9659	3803.0319
CC1C2CC2(C)C1(C)O	C[C@H]1[C@H]2C[C@@]2(C)[C@]1(C)O	
InChI=1S/C8H14O/c1-5-6-4-7(6,2)8(5,3)9/h5-6,9H,4H2,1-3H3	InChI=1S/C8H14O/c1-5-6-4-7(6,2)8(5,3)9/h5-6,9H,4H2,1-3H3/t5-,6+,7+,8+/m0/s1
