19
gdb 26140	2.55328	1.36074	1.08071	3.3571	79.49	-0.1824	0.0483	0.2307	1193.4836	0.159237	-419.220986	-419.211643	-419.210699	-419.255024	34.86	
C	 0.0571975223	 1.4261075856	-0.0763936338	-0.328082
N	-0.0382932996	-0.0231115465	 0.0878014519	-0.170121
C	 0.8169709239	-0.5280206906	 1.1601073892	-0.328083
C	-1.3393336895	-0.5516713872	 0.0518654664	 0.163123
C	-1.8737518875	-1.3722580922	-0.9182036524	 0.301025
O	-1.2192484096	-1.8169675299	-2.0248239681	-0.45462
C	-3.2152314444	-1.6729625197	-0.5689725299	-0.241586
C	-3.4693575879	-1.0210873355	 0.6194816533	-0.081213
N	-2.3434655273	-0.3444462671	 0.9972177575	-0.298669
H	 1.0970552031	 1.7064587464	-0.2782856623	 0.117314
H	-0.5592723371	 1.7370358628	-0.9225805769	 0.133249
H	-0.2711147567	 1.9891551802	 0.8158103809	 0.091063
H	 0.5518760731	-0.1275990544	 2.1552154356	 0.091041
H	 0.7448758565	-1.617048681	 1.1997382138	 0.133237
H	 1.8587245735	-0.2525068604	 0.961357789	 0.117328
H	-0.3303750595	-1.4390916468	-1.9728453938	 0.28526
H	-3.902109583	-2.2908743002	-1.1245510409	 0.097526
H	-4.3646255477	-0.9902370788	 1.2194825552	 0.11397
H	-2.2533213526	 0.2141544653	 1.8266018953	 0.258241
59.4709	129.8383	144.8172	228.5627	231.8871	281.1612	288.8685	354.864	369.2841	447.7305	492.553	509.4754	611.6933	650.0233	678.4428	716.9801	735.6194	810.011	899.4031	951.4715	1053.4982	1075.8543	1094.7539	1119.1164	1148.1847	1182.4145	1196.1887	1229.2141	1252.3683	1315.7431	1378.7866	1438.9602	1453.3968	1462.5333	1480.3238	1490.4864	1498.6443	1499.8692	1520.2494	1539.6379	1659.0964	2941.5905	2946.8325	3055.1545	3057.6461	3121.5116	3123.9046	3253.4159	3271.6999	3692.853	3750.6828
CN(C)C1=C(O)C=CN1	CN(C)c1c(O)cc[nH]1	
InChI=1S/C6H10N2O/c1-8(2)6-5(9)3-4-7-6/h3-4,7,9H,1-2H3	InChI=1S/C6H10N2O/c1-8(2)6-5(9)3-4-7-6/h3-4,7,9H,1-2H3
