17
gdb 68644	2.42324	2.02386	1.5444	2.3973	71.88	-0.2264	-0.0279	0.1985	920.378	0.136307	-421.847725	-421.840352	-421.839408	-421.879234	29.408	
C	 0.0521814642	 1.5207730131	-0.0534040266	-0.496654
C	-0.0287651754	 0.0185508293	-0.0253618159	 0.24215
O	 0.6781689549	-0.6206312293	-1.1040399199	-0.276058
C	 0.3586136076	-1.9796607661	-0.7636873613	 0.002196
C	 1.0103739327	-2.0920976429	 0.6406988043	-0.340244
C	 0.6577308102	-0.6924915236	 1.1826360145	 0.4058
O	 0.8702758779	-0.2317184516	 2.2704985763	-0.323752
C	-1.1556136534	-1.901815673	-0.5567364834	-0.080352
C	-1.3924588719	-0.6764563761	-0.0889670718	-0.126573
H	 1.0939549894	 1.8414528222	-0.1346795257	 0.13654
H	-0.509185341	 1.9302176928	-0.8969969567	 0.127763
H	-0.3539018499	 1.924743883	 0.877989421	 0.139599
H	 0.7319095378	-2.6619248613	-1.5258210544	 0.090295
H	 0.6274607292	-2.8919024274	 1.2768602062	 0.128488
H	 2.0978813489	-2.1865218956	 0.5687364909	 0.135626
H	-1.8474357488	-2.7234369913	-0.6831156686	 0.114821
H	-2.3173363725	-0.2507642022	 0.2749431311	 0.120354
125.8585	161.9516	237.0105	309.5196	344.3145	410.3274	494.2921	569.5751	604.249	634.9535	657.541	731.4677	772.627	815.8441	858.5164	872.1373	892.9419	938.3486	941.0649	974.8902	994.3234	1050.4374	1096.5271	1121.8303	1149.0389	1161.5899	1225.4598	1264.7296	1311.0493	1326.691	1341.9054	1415.0349	1455.0042	1478.8555	1493.2509	1638.7574	1859.9637	3051.5676	3068.8029	3126.7082	3128.6024	3129.2271	3131.3281	3219.2003	3244.4993
CC12OC(CC1=O)C=C2	C[C@@]12O[C@@H](CC1=O)C=C2	
InChI=1S/C7H8O2/c1-7-3-2-5(9-7)4-6(7)8/h2-3,5H,4H2,1H3	InChI=1S/C7H8O2/c1-7-3-2-5(9-7)4-6(7)8/h2-3,5H,4H2,1H3/t5-,7+/m1/s1
