15
gdb 79687	2.7591	1.52971	1.23318	2.807	66.81	-0.2505	-0.0338	0.2167	1005.5807	0.111089	-457.684991	-457.677593	-457.676649	-457.716888	28.615	
O	 0.0967434697	 1.4116782834	-0.075553413	-0.417146
C	-0.0512467682	 0.0482441418	 0.0390253559	 0.106453
C	-0.4152902415	-0.7440081091	 1.2467259054	-0.21474
C	-1.6039346589	-0.1689264502	 2.0555716792	 0.031665
O	-2.0209791428	 1.0898280611	 1.4853980078	-0.272937
C	-2.475014787	-0.1441377923	 0.887001849	-0.038622
C	-1.3723973501	-0.7247561736	-0.0293005288	 0.129007
C	-1.6212658724	-1.8240783719	-0.9562022427	 0.066597
O	-2.7240795843	-2.2455496889	-1.2280334061	-0.281782
H	-0.6026252667	 1.8045389735	 0.4666896507	 0.303198
H	 0.7106958185	-0.4538875548	-0.5559068796	 0.125453
H	 0.1534786637	-1.6013732207	 1.5855833332	 0.118179
H	-1.8086214034	-0.3342479446	 3.1051726551	 0.132056
H	-3.5391159981	-0.2945325357	 0.7689319968	 0.142105
H	-0.7032402185	-2.262295248	-1.4104083828	 0.070513
100.7565	178.3832	238.4997	270.1298	301.1918	434.3756	449.3733	560.687	617.8165	630.484	682.2582	747.0818	764.2192	819.7789	872.5818	884.0469	930.738	957.457	975.1804	1040.6665	1051.9816	1086.4046	1113.8131	1186.9972	1214.8189	1239.9896	1295.8527	1302.616	1348.6654	1416.6191	1435.4786	1481.9996	1781.5621	2868.2737	3128.8569	3192.2365	3208.1934	3228.6024	3723.9593
OC1C2C3OC3C12C=O	O[C@H]1[C@H]2[C@H]3O[C@H]3[C@@]12C=O	
InChI=1S/C6H6O3/c7-1-6-2(4(6)8)3-5(6)9-3/h1-5,8H	InChI=1S/C6H6O3/c7-1-6-2(4(6)8)3-5(6)9-3/h1-5,8H/t2-,3-,4+,5-,6-/m1/s1
