17
gdb 73491	2.58322	2.23778	1.60498	2.0343	65.96	-0.2415	0.0546	0.2961	859.2656	0.138123	-458.938617	-458.932063	-458.931119	-458.969096	27.472	
O	-0.0138645296	 1.360156852	-0.0338198719	-0.486452
C	 0.0413484536	-0.0354542924	-0.0434359747	 0.370955
C	 0.7164663227	-0.7018263026	-1.2496356055	-0.158369
O	 0.0462250428	-1.9684405922	-1.3575337595	-0.250119
C	-0.6387448025	-2.1162168339	-0.1375980953	 0.205623
O	 0.3156741267	-2.1435569865	 0.9405524716	-0.281695
C	 0.2863873144	-0.7599420968	 1.3370457726	 0.01463
C	-1.2058764582	-0.5337043288	 1.6567248046	-0.253988
C	-1.3328115367	-0.7609680676	 0.1315766856	-0.144001
H	 0.867564926	 1.6994225606	 0.1558247031	 0.287415
H	 0.5536032621	-0.1203268046	-2.1632380627	 0.112913
H	 1.7939881173	-0.8547180661	-1.1064844487	 0.101868
H	-1.2152856502	-3.0390293556	-0.1687139836	 0.095009
H	 1.1140018763	-0.5361643894	 2.01046168	 0.077807
H	-1.6737801218	-1.247028361	 2.337779516	 0.102598
H	-1.4365620947	 0.4965745392	 1.9298861165	 0.11893
H	-2.208534728	-0.5158525643	-0.466014498	 0.086875
230.1057	263.0754	302.2111	357.373	416.5697	437.7739	533.3735	576.2885	634.6374	698.3988	753.3602	841.8165	883.4134	889.9452	928.3228	952.6867	955.8894	980.551	1008.9077	1032.6922	1058.885	1075.7501	1117.2975	1136.6929	1168.7446	1194.3258	1214.9087	1239.8159	1244.4443	1279.6184	1284.9967	1311.8296	1335.3536	1356.6217	1403.0282	1482.0214	1514.477	3018.2892	3073.39	3079.1911	3121.5846	3139.6843	3147.7344	3149.2728	3803.5044
OC12COC3OC1CC23	O[C@@]12CO[C@H]3O[C@@H]1C[C@@H]23	
InChI=1S/C6H8O3/c7-6-2-8-5-3(6)1-4(6)9-5/h3-5,7H,1-2H2	InChI=1S/C6H8O3/c7-6-2-8-5-3(6)1-4(6)9-5/h3-5,7H,1-2H2/t3-,4-,5+,6-/m1/s1
