16
gdb 127029	6.51334	0.82619	0.73998	3.9205	67.74	-0.2122	0.0495	0.2617	1485.0308	0.12476	-471.249088	-471.240215	-471.239271	-471.283486	31.228	
C	-0.1060375993	 1.5001704813	 0.020057687	-0.394591
C	 0.0019194316	-0.0106816619	-0.0079991769	-0.043756
O	-1.340466598	-0.5420897845	 0.0113678935	-0.272875
C	-1.4299135225	-1.8662795714	-0.0102254886	 0.53272
N	-0.4571995089	-2.7212259618	-0.0461639939	-0.327559
N	-1.1203241083	-3.9470589176	-0.054152731	-0.318795
C	-2.4898166144	-3.8538289426	-0.0229654632	 0.470273
O	-3.3372269991	-4.718240333	-0.0202356465	-0.419497
N	-2.6651029011	-2.4562340514	 0.0058500041	-0.441502
H	 0.8953774816	 1.9398073012	 0.0065253949	 0.128886
H	-0.6566057983	 1.8686688237	-0.849833462	 0.133665
H	-0.6193205918	 1.8383752143	 0.9243732861	 0.133672
H	 0.5080201714	-0.372355478	-0.9092300303	 0.129257
H	 0.5454314556	-0.4024673341	 0.8581870672	 0.129215
H	-0.5938590027	-4.8012073808	-0.0791973609	 0.279263
H	-3.5578124457	-1.9957666336	 0.0316866006	 0.281623
55.1439	81.0266	136.8302	143.1752	242.6748	271.1149	346.3046	382.1745	431.1312	473.7981	549.5427	699.2992	719.5654	762.2006	790.5063	812.9097	902.2814	992.095	1024.5876	1072.1642	1106.7035	1144.6004	1184.1924	1255.236	1278.9431	1292.0272	1386.1663	1392.2705	1418.7675	1484.7965	1498.1891	1516.1638	1536.9285	1677.2167	1863.2611	3046.314	3049.1329	3086.2122	3125.055	3128.7933	3694.3282	3709.452
CCOC1=NNC(=O)N1	CCOc1n[nH]c(=O)[nH]1	
InChI=1S/C4H7N3O2/c1-2-9-4-5-3(8)6-7-4/h2H2,1H3,(H2,5,6,7,8)	InChI=1S/C4H7N3O2/c1-2-9-4-5-3(8)6-7-4/h2H2,1H3,(H2,5,6,7,8)
