15
gdb 28192	5.19291	1.25722	1.01285	2.0646	73.81	-0.162	0.0591	0.2211	1093.3619	0.11488	-416.843583	-416.835904	-416.83496	-416.875282	29.736	
O	 0.1654361897	 1.310764511	 0.2247962451	-0.438356
C	 0.1385920714	-0.0304575102	 0.0036493618	 0.395931
C	 0.0968473031	-0.7902335238	-1.1346740971	-0.494654
C	 0.0230015078	-2.1638039708	-0.6899348177	 0.332579
C	 0.0169786697	-2.1254504838	 0.69471744	 0.355732
N	 0.0638141748	-3.390308465	 1.2110604454	-0.399784
C	 0.0390171603	-4.2677011942	 0.1275850973	-0.074719
C	 0.0340447175	-3.5495866832	-1.0463983877	-0.328943
N	 0.1457506117	-0.8268391834	 1.145123142	-0.449261
H	 0.0605148003	 1.7541894567	-0.6222190094	 0.306355
H	 0.1328302517	-0.4133202258	-2.1452085643	 0.085531
H	-0.0421040301	-3.6604156111	 2.1719503509	 0.255176
H	 0.0080166727	-5.3312957102	 0.299812728	 0.109621
H	 0.0404844851	-3.9791915623	-2.0364012188	 0.086365
H	-0.1045209757	-0.465809064	 2.0499477346	 0.258427
131.7416	204.1779	239.4522	262.7158	321.9166	343.8882	354.3352	522.0688	565.7909	594.7231	636.5149	652.9782	708.011	738.1977	753.4393	798.8798	823.1535	931.887	1005.8833	1069.1988	1093.6274	1154.2764	1171.5702	1195.831	1249.9103	1327.0711	1373.2729	1451.7091	1484.4246	1507.4773	1556.9451	1610.3921	1624.8649	3242.551	3244.6077	3270.7823	3667.1666	3692.1383	3848.7892
OC1=CC2=C(NC=C2)N1	Oc1cc2c([nH]cc2)[nH]1	
InChI=1S/C6H6N2O/c9-5-3-4-1-2-7-6(4)8-5/h1-3,7-9H	InChI=1S/C6H6N2O/c9-5-3-4-1-2-7-6(4)8-5/h1-3,7-9H
