24
gdb 10603	2.17152	1.64815	1.25206	0.0976	85.31	-0.2549	0.0823	0.3373	1171.9424	0.222131	-314.272914	-314.262845	-314.261901	-314.307468	37.552	
C	-0.7346015205	 1.5291099513	 0.739050685	-0.380316
C	-0.0950813954	 0.2632378675	 0.1517130406	-0.256761
C	 0.8616867336	-0.4456153606	 1.1036633732	 0.388229
C	 2.0901360048	 0.3528877756	 1.531272632	-0.248465
C	 3.0452714444	 0.7023713588	 0.3832092527	-0.381508
C	 0.2615491035	-1.3693163331	 2.1439591882	-0.348175
C	 1.0616023121	-1.9471744411	 0.9981155684	-0.031852
C	 0.4197356958	-2.8308752432	-0.050444766	-0.416524
H	 0.0092464929	 2.3025581063	 0.9540030048	 0.116989
H	-1.459668642	 1.9580021968	 0.0401233312	 0.108026
H	-1.2597048369	 1.3056014424	 1.6738456201	 0.116574
H	-0.8950022315	-0.4253103259	-0.1379367019	 0.092255
H	 0.4277331273	 0.5195075031	-0.7788180025	 0.0948
H	 1.7773351309	 1.2737399402	 2.0399182944	 0.094091
H	 2.6366254439	-0.2297206202	 2.2831017293	 0.089247
H	 3.9358089248	 1.2163256324	 0.7586382935	 0.109069
H	 3.374689028	-0.2005217641	-0.1421439606	 0.115008
H	 2.574374823	 1.3609630867	-0.3534383833	 0.116811
H	 0.6863328376	-1.3807662537	 3.1429082338	 0.101139
H	-0.814522402	-1.5184599351	 2.1223298537	 0.100761
H	 2.0660066913	-2.271773282	 1.2642784301	 0.075508
H	-0.6170639944	-2.5500048945	-0.2541049302	 0.116002
H	 0.9667875129	-2.7933091677	-0.999601488	 0.114209
H	 0.4104609656	-3.8745462398	 0.2838462016	 0.114883
60.9973	105.1083	151.4032	177.5152	211.34	227.8633	233.0486	295.565	304.8673	389.7007	418.3276	463.8643	531.5282	665.806	760.2886	794.6792	805.2631	872.6063	901.9594	909.402	977.1703	983.6937	1038.8333	1044.6432	1049.5028	1062.0435	1088.5265	1129.8978	1133.4379	1149.0079	1193.5472	1256.4128	1273.8167	1321.7348	1335.2861	1362.1684	1387.426	1407.4047	1409.7245	1412.561	1432.0105	1478.7673	1485.1515	1493.2527	1495.3303	1501.0191	1503.22	1503.6019	1507.9207	1514.2712	3019.4136	3023.4621	3027.8253	3034.6313	3035.012	3049.8683	3068.6789	3082.5618	3101.0506	3101.7467	3101.7567	3102.9608	3107.5999	3115.4705	3122.3841	3197.2045
CCC1(CC)CC1C	CCC1(CC)C[C@H]1C	
InChI=1S/C8H16/c1-4-8(5-2)6-7(8)3/h7H,4-6H2,1-3H3	InChI=1S/C8H16/c1-4-8(5-2)6-7(8)3/h7H,4-6H2,1-3H3/t7-/m1/s1
