20
gdb 103161	1.91599	1.63027	1.26413	2.6847	76.21	-0.2289	0.0301	0.259	1140.8458	0.168472	-440.304038	-440.293865	-440.292921	-440.338879	36.718	
C	 0.0356464848	 1.418722496	 0.122363219	-0.262123
O	-0.0265882037	 0.0249613248	-0.1518937517	-0.286878
C	-1.3078433938	-0.5521717789	-0.0728741418	 0.241568
C	-2.2675602863	-0.0503465061	-1.1445646949	-0.462061
C	-1.204111429	-2.1167526527	 0.0633848053	 0.011136
C	 0.1854210106	-2.731087641	 0.0734310091	-0.38974
N	-1.8407429732	-1.9608415006	 1.3820627662	-0.342375
C	-1.9129988953	-0.5952982671	 1.3708076628	 0.400868
O	-2.2950035954	 0.2191074465	 2.1730442483	-0.380472
H	 1.0966437256	 1.6696763783	 0.1905342587	 0.126223
H	-0.4130915244	 2.015800916	-0.6830246333	 0.109604
H	-0.4603356978	 1.6649275417	 1.0674207109	 0.14816
H	-1.815773087	-0.158040557	-2.1359632128	 0.124739
H	-3.2018973068	-0.6188956434	-1.1201691601	 0.125947
H	-2.5182604638	 1.0020080167	-0.9861360194	 0.136578
H	-1.8521418959	-2.6408986863	-0.6494240491	 0.080725
H	 0.84378339	-2.1936685695	 0.757955568	 0.134109
H	 0.1362323886	-3.782625477	 0.3760821756	 0.1093
H	 0.6245030496	-2.6877842192	-0.9277450665	 0.127819
H	-2.0918448568	-2.635356081	 2.0905157158	 0.246871
79.9481	101.3861	144.1196	185.837	198.1821	215.1056	220.2021	282.4195	302.7416	335.4695	424.7005	434.8916	501.6816	572.7142	702.6156	730.9104	749.0789	841.4278	897.4644	934.0969	1013.585	1072.742	1087.6676	1117.7561	1139.2436	1171.3457	1184.695	1202.0834	1243.5598	1253.1798	1294.7035	1381.9094	1394.957	1401.7972	1411.6813	1476.334	1481.304	1487.845	1488.3271	1490.6877	1504.4537	1514.5369	1875.6806	3007.4636	3028.1519	3039.9367	3042.6528	3079.7586	3107.5601	3113.5686	3118.9459	3124.7289	3142.6627	3600.112
COC1(C)C(C)NC1=O	CO[C@@]1(C)[C@@H](C)NC1=O	
InChI=1S/C6H11NO2/c1-4-6(2,9-3)5(8)7-4/h4H,1-3H3,(H,7,8)	InChI=1S/C6H11NO2/c1-4-6(2,9-3)5(8)7-4/h4H,1-3H3,(H,7,8)/t4-,6+/m1/s1
