17
gdb 84306	2.33056	1.71057	1.0618	6.1151	78.8	-0.2407	-0.0431	0.1976	1114.9348	0.136514	-418.050633	-418.042348	-418.041404	-418.083662	30.761	
C	-0.0050889009	 1.5818284882	 0.0139631201	-0.391011
C	 0.0253490937	 0.0452432305	 0.0430503865	-0.04343
C	 0.7503461246	-0.5401077214	-1.137793657	-0.088306
C	 1.8046929778	-1.2537076333	-0.74556952	-0.150056
C	 1.9037275355	-1.2635230142	 0.7285384358	 0.35545
N	 2.7532621819	-1.81028125	 1.500115392	-0.501888
N	 0.7961942507	-0.498997771	 1.17461908	-0.106621
C	 0.3408013099	-0.3612707516	 2.4732438854	 0.159162
O	 0.861970726	-0.7787595707	 3.4729935002	-0.278284
H	 1.0119967411	 1.9821415863	-0.0126656226	 0.138024
H	-0.5423908173	 1.9292421297	-0.8740541905	 0.125949
H	-0.5146603227	 1.9834717882	 0.8938135281	 0.133588
H	-1.0077787198	-0.3294692836	 0.084499629	 0.112279
H	 0.4310597598	-0.3484831522	-2.1541332531	 0.123834
H	 2.5183919986	-1.7733038318	-1.3710008037	 0.120918
H	 3.4432395647	-2.3129157764	 0.9412432847	 0.219809
H	-0.6147288739	 0.2040262432	 2.486360565	 0.070583
72.7658	141.0596	218.8385	223.174	248.7302	255.8211	336.8795	462.0424	494.8721	506.9273	679.7463	700.3496	751.6452	797.7429	804.0136	871.3482	911.11	973.2905	998.959	1028.6234	1047.1148	1087.2537	1112.4715	1115.0121	1207.5346	1258.4658	1290.4215	1344.5774	1371.0182	1407.9922	1414.2726	1461.6751	1492.5765	1495.7537	1664.028	1716.5652	1836.3564	2905.3375	3000.3942	3043.4144	3117.0997	3128.475	3213.3162	3236.7443	3476.9224
CC1C=CC(=N)N1C=O	C[C@H]1[CH]C=C([NH])N1C=O	
InChI=1S/C6H8N2O/c1-5-2-3-6(7)8(5)4-9/h2-5,7H,1H3	InChI=1S/C6H8N2O/c1-5-2-3-6(7)8(5)4-9/h2-5,7H,1H3/t5-/m0/s1
