15
gdb 33625	3.45333	1.67479	1.46812	4.9722	72.62	-0.2566	-0.0073	0.2493	896.7058	0.114997	-379.597448	-379.59124	-379.590296	-379.628008	25.124	
N	-0.004529876	-1.1524158817	-0.050036694	-0.338132
C	-0.0197434182	 0.0046204047	-0.0429466561	 0.136104
C	-0.0238362746	 1.4338813294	-0.0096804152	 0.326393
C	-0.5576721124	 2.3449369381	 1.1589502141	-0.12559
C	 0.8988341765	 2.6764912123	 1.5666700505	-0.250467
C	 1.2354520906	 2.375053106	 0.0856578662	-0.125589
C	 0.3559714508	 3.3065305165	-0.771531469	-0.042818
C	-0.9207875098	 3.2850846326	-0.0073172174	-0.042818
N	-0.6939451013	 2.2808539308	-1.1054541685	-0.200008
H	-1.3277232921	 2.032908568	 1.8591677123	 0.102745
H	 1.1108767233	 3.6780465724	 1.949027723	 0.109982
H	 1.3132601521	 1.9184418511	 2.237770336	 0.123393
H	 2.2237589231	 2.0925566698	-0.266606927	 0.102745
H	 0.6510422588	 4.0663113303	-1.4829478004	 0.112029
H	-1.7057729609	 4.0267230499	-0.0722579348	 0.112029
147.3384	160.594	382.6542	495.5445	509.1786	534.9994	567.1245	737.4327	738.731	819.3947	820.9288	839.3116	855.3455	919.8766	941.149	960.5598	979.0264	989.442	1018.1928	1038.1693	1067.1265	1094.4965	1121.4826	1142.9503	1179.3771	1230.6767	1235.5624	1258.3735	1293.0257	1305.9787	1349.3047	1483.7441	2345.4383	3058.7252	3120.0899	3160.6637	3161.4286	3201.8134	3212.6378
N#CC12C3CC1C1C3N21	N#C[C@@]12[C@H]3C[C@@H]1[C@@H]1[C@H]3N21	
InChI=1S/C7H6N2/c8-2-7-3-1-4(7)6-5(3)9(6)7/h3-6H,1H2	InChI=1S/C7H6N2/c8-2-7-3-1-4(7)6-5(3)9(6)7/h3-6H,1H2/t3-,4+,5-,6+,7+,9?
