23
gdb 108999	3.42824	1.05854	1.01066	0.2741	92.03	-0.2115	0.0252	0.2367	1353.7711	0.206531	-351.134227	-351.12532	-351.124376	-351.167716	35.048	
C	-0.3657663681	 1.7042595966	-0.0412355057	-0.371046
C	-0.273443688	 0.1771024133	-0.213098567	-0.322024
C	-1.6026688405	-0.5014724479	-0.2037718453	 0.365938
C	-2.2490765959	-1.2035821629	-1.1439729226	-0.217807
C	-3.5523452375	-1.6237789564	-0.4552489432	-0.071981
C	-3.9341580843	-0.2785638171	 0.2496089799	-0.220047
C	-2.581046538	-0.5561849057	 0.9865807158	-0.126449
C	-2.9745782035	-2.0859349538	 0.9413339625	 0.067043
C	-3.9321198103	-2.6290822239	 1.9950466943	-0.435628
H	 0.63071651	 2.1568552872	-0.0295953265	 0.110567
H	-0.9360521258	 2.1543137088	-0.8597878005	 0.119512
H	-0.8645759581	 1.9685806563	 0.8968123314	 0.118924
H	 0.2442013003	-0.0563794937	-1.1509711043	 0.101121
H	 0.3523928118	-0.2282953994	 0.5952466849	 0.10132
H	-1.9411931275	-1.4504687957	-2.1510248268	 0.089877
H	-4.2754871933	-2.2203522158	-1.0125807008	 0.05214
H	-3.9818700031	 0.6130745802	-0.37969129	 0.089107
H	-4.8167708274	-0.3373387624	 0.8912493515	 0.090376
H	-2.3034100301	-0.0546568377	 1.9153613719	 0.050697
H	-2.1126866455	-2.7551102099	 0.8537592846	 0.06197
H	-4.8182001925	-2.0062213631	 2.1423772292	 0.116657
H	-4.2751742009	-3.6321373067	 1.71658826	 0.115234
H	-3.4243557217	-2.7160498604	 2.9625292565	 0.114499
74.5754	117.0218	180.8876	192.9613	246.036	280.4835	347.2761	380.15	500.9342	503.6948	591.3809	638.8306	762.5581	774.1861	797.6107	810.737	843.1336	855.1541	878.6645	932.3487	950.6448	998.6392	1021.214	1045.6672	1058.9623	1079.668	1081.8437	1097.8944	1111.5601	1120.7727	1185.8003	1221.0619	1226.8129	1240.7485	1250.1213	1257.0488	1276.9371	1329.5737	1350.6104	1377.7272	1406.7828	1410.1872	1477.4876	1489.68	1495.5416	1496.5487	1506.2124	1512.536	1681.089	3000.0486	3029.0582	3035.0963	3050.3142	3053.6285	3060.3619	3085.4454	3097.9916	3106.0575	3108.1721	3108.9812	3111.0682	3123.4343	3219.1906
CCC1=CC2CC1C2C	CCC1=C[C@@H]2C[C@H]1[C@H]2C	
InChI=1S/C9H14/c1-3-7-4-8-5-9(7)6(8)2/h4,6,8-9H,3,5H2,1-2H3	InChI=1S/C9H14/c1-3-7-4-8-5-9(7)6(8)2/h4,6,8-9H,3,5H2,1-2H3/t6-,8+,9-/m0/s1
