19
gdb 46713	2.95416	1.68724	1.26282	3.153	79.48	-0.231	-0.0113	0.2197	1020.8026	0.162368	-385.877914	-385.871067	-385.870123	-385.909171	28.097	
O	 0.0131403459	-0.0553845758	-0.1385653011	-0.323772
C	-0.0349543303	 1.1474061673	-0.0080989377	 0.369828
C	-1.3339672186	 1.9168179582	 0.1588912437	-0.315016
C	-1.1377678864	 3.1850371818	 1.0106087901	-0.265739
C	 0.2668722884	 3.7601638199	 0.8550450701	 0.027903
C	 1.0709190278	 3.5076733334	-0.465294548	-0.082093
C	 2.363640535	 3.7825313753	 0.3491420384	-0.232498
C	 1.4878178194	 2.8751444744	 1.2520789283	-0.056781
C	 1.2010528484	 2.0067795997	-0.0281766576	-0.079353
H	-1.6383391691	 2.2064536745	-0.856976024	 0.128171
H	-2.1096398611	 1.2506330766	 0.5427824353	 0.121369
H	-1.8837823894	 3.9393475893	 0.7381494716	 0.104109
H	-1.3085299635	 2.9565361418	 2.0700262876	 0.110421
H	 0.3259256754	 4.7876109728	 1.2282159863	 0.067113
H	 0.8314603723	 3.8677877148	-1.46759371	 0.075751
H	 3.2864502813	 3.342373652	-0.0366894201	 0.097287
H	 2.5180845328	 4.8095331099	 0.6918559301	 0.093067
H	 1.7274602061	 2.4872543228	 2.2437068726	 0.080079
H	 2.0551823258	 1.4487094012	-0.4188310056	 0.080152
103.7997	173.4778	304.6972	373.7628	451.1807	463.2805	539.0763	591.4664	668.4068	748.3613	778.9585	825.4721	850.0428	869.8001	903.9552	936.7302	957.8403	997.9955	1018.0157	1028.0376	1046.4293	1064.3813	1084.9725	1120.9731	1138.641	1161.0676	1189.1522	1208.0861	1222.0556	1238.8606	1247.391	1257.1774	1269.584	1311.2704	1340.4504	1366.4217	1408.6672	1459.0518	1498.0712	1516.4501	1810.5944	3017.066	3028.1054	3049.8228	3055.1774	3068.1324	3086.7506	3093.7708	3101.7947	3108.5477	3118.1608
O=C1CCC2C3CC2C13	O=C1CC[C@@H]2[C@H]3C[C@@H]2[C@@H]13	
InChI=1S/C8H10O/c9-7-2-1-4-5-3-6(4)8(5)7/h4-6,8H,1-3H2	InChI=1S/C8H10O/c9-7-2-1-4-5-3-6(4)8(5)7/h4-6,8H,1-3H2/t4-,5-,6+,8+
