17
gdb 29912	3.25499	1.29493	0.93726	6.6728	83.62	-0.2214	0.0001	0.2215	1212.5437	0.136729	-380.938397	-380.929474	-380.928529	-380.972407	31.895	
C	 0.0061889925	 1.4508712343	 0.0184448269	-0.340888
N	 0.0043327458	 0.0008075818	 0.0121731222	-0.040657
C	-0.0297407511	-0.7863137302	-1.1214370687	-0.089139
C	-0.0210130393	-2.099764798	-0.7415070697	-0.288707
C	 0.0201768447	-2.112865654	 0.6873218236	 0.104936
C	 0.0426819189	-3.2471795975	 1.5325277638	 0.196687
N	 0.0613967306	-4.1708334877	 2.2334676507	-0.367902
C	 0.0350834348	-0.7927458601	 1.1263714491	 0.21173
C	 0.0760410218	-0.2499023588	 2.5139421187	-0.516999
H	 0.9093489156	 1.8417598252	 0.4974547498	 0.147674
H	-0.0224515729	 1.8077011023	-1.0117487839	 0.148759
H	-0.8676050166	 1.843846372	 0.5476015468	 0.147677
H	-0.0570694366	-0.3328860442	-2.0991311568	 0.129036
H	-0.0410470142	-2.9617892583	-1.3880327447	 0.120648
H	 0.9660324351	 0.3664868848	 2.6901157853	 0.135995
H	-0.8001410886	 0.3696045216	 2.7410492663	 0.13598
H	 0.0951244396	-1.076783303	 3.2264627007	 0.16517
63.6237	117.9659	139.4151	145.4688	231.0489	245.3654	272.9421	406.1097	515.948	523.801	587.8516	619.019	687.1892	695.0132	728.3253	743.3567	819.0602	953.4754	1052.0999	1059.4462	1096.7973	1119.2285	1150.5927	1195.0237	1254.9722	1376.0962	1388.6038	1418.4204	1453.1082	1476.6198	1476.8758	1482.6726	1489.7826	1515.5802	1544.8905	1588.1103	2335.2172	3021.8031	3040.1576	3068.4479	3099.0284	3134.456	3146.1634	3259.1362	3278.9819
CN1C=CC(C#N)=C1C	Cn1ccc(C#N)c1C	
InChI=1S/C7H8N2/c1-6-7(5-8)3-4-9(6)2/h3-4H,1-2H3	InChI=1S/C7H8N2/c1-6-7(5-8)3-4-9(6)2/h3-4H,1-2H3
