20
gdb 63104	2.16496	1.6602	1.17856	4.3865	84.89	-0.2619	0.0201	0.282	1131.1028	0.170709	-366.01302	-366.004055	-366.00311	-366.046072	34.505	
C	-0.0275011947	 1.5325558068	 0.0570900024	-0.463354
C	 0.0542120995	 0.0172769531	 0.0312651081	 0.267963
C	-1.1904042232	-0.6329304132	-0.5540018069	-0.462061
C	 1.3270042028	-0.7330226472	-0.2426677753	-0.131809
C	 2.5726913923	-0.0361278747	 0.3148364373	-0.244943
C	 1.9448307973	-0.0528398244	 1.7434904286	-0.299556
C	 0.6972504284	-0.7617390676	 1.179062798	 0.173672
C	 0.0245892731	-1.8222841275	 1.8529516596	 0.195884
N	-0.51515306	-2.6768999525	 2.4194050387	-0.367691
H	 0.8618337934	 2.0082245058	 0.4735187676	 0.123112
H	-0.1628667758	 1.9173319008	-0.9600005932	 0.123538
H	-0.8886844368	 1.8576417535	 0.6505399399	 0.127293
H	-1.3442144283	-0.2907547275	-1.5829122357	 0.119979
H	-1.1180394948	-1.7234936075	-0.5655312996	 0.137017
H	-2.0797993967	-0.3663108763	 0.0263040815	 0.131234
H	 1.342609539	-1.5477879302	-0.9573027635	 0.104437
H	 3.4633740167	-0.6636706005	 0.254167427	 0.116741
H	 2.8078751801	 0.9412027353	-0.1154599687	 0.108736
H	 2.4981705666	-0.6950525487	 2.42981714	 0.128252
H	 1.767107561	 0.9084077526	 2.2323867643	 0.111558
123.7541	147.6641	171.2792	224.0657	251.4832	266.1257	303.3566	360.6641	389.888	462.8347	538.1819	572.8225	591.9787	677.3021	708.8151	799.3115	888.033	943.1942	944.8901	954.1517	971.0034	1009.4637	1028.2251	1072.6511	1094.4849	1135.1174	1147.6601	1190.6676	1225.6538	1232.1432	1265.1754	1289.2334	1313.2494	1405.9225	1417.4973	1430.8064	1473.2019	1486.6363	1487.5124	1505.7481	1506.5138	1512.9933	2335.3055	3034.2751	3038.3523	3063.2152	3069.2469	3093.4582	3100.1311	3113.1785	3118.7884	3129.2186	3133.5797	3182.4808
CC1(C)C2CCC12C#N	CC1(C)[C@H]2CC[C@@]12C#N	
InChI=1S/C8H11N/c1-7(2)6-3-4-8(6,7)5-9/h6H,3-4H2,1-2H3	InChI=1S/C8H11N/c1-7(2)6-3-4-8(6,7)5-9/h6H,3-4H2,1-2H3/t6-,8+/m1/s1
