25
gdb 99699	1.76686	1.0775	0.70703	0.2648	98.53	-0.2406	0.0615	0.3022	1727.3174	0.225621	-352.350371	-352.338168	-352.337224	-352.389964	42.874	
C	-0.0953209344	 1.5992211449	 0.0184610676	-0.386797
C	 0.0376136419	 0.0747933731	-0.01229652	-0.182071
C	 0.730321011	-0.5164756855	 1.2407881992	-0.141944
C	 0.0015525328	-0.1310182301	 2.4527901909	 0.071246
C	-0.6282797501	 0.1786998583	 3.4327267289	 0.0716
C	-1.3757065575	 0.5579034105	 4.6245948256	-0.500489
C	 0.9118709115	-2.0637914407	 1.1721845458	 0.044032
C	 1.6621390154	-2.5100204341	-0.0913400638	-0.402285
C	 1.6330190583	-2.5902163818	 2.4207434957	-0.394446
H	 0.8873590684	 2.0795010245	 0.0894824737	 0.1101
H	-0.5788319739	 1.9659000315	-0.8923972094	 0.107641
H	-0.6888227175	 1.9271311806	 0.8760796888	 0.128771
H	-0.9542596922	-0.3834155712	-0.1130375445	 0.098478
H	 0.6110992148	-0.2137767188	-0.8982357523	 0.097418
H	 1.7397003256	-0.0772746942	 1.295607614	 0.089697
H	-0.916356224	 0.1487352194	 5.5314342716	 0.145543
H	-1.4181361867	 1.6468411326	 4.7394755316	 0.145717
H	-2.4073589314	 0.1907911061	 4.5835285144	 0.145137
H	-0.0949473787	-2.5029055852	 1.1496124653	 0.077362
H	 2.6365620547	-2.0116003705	-0.1669330621	 0.110265
H	 1.8479864935	-3.5884701701	-0.0587820637	 0.109406
H	 1.106122095	-2.3028039889	-1.008898906	 0.116544
H	 1.1104937528	-2.3014519099	 3.3355106257	 0.126237
H	 1.7041666177	-3.6824158832	 2.3950058305	 0.105621
H	 2.654432903	-2.1935927474	 2.4764117624	 0.107216
10.4946	52.3304	81.6282	99.058	134.8392	182.0432	229.5985	231.8898	244.9231	279.3805	317.8701	339.7166	375.9855	416.1093	424.1169	499.406	556.0445	713.8037	826.6493	842.107	899.217	930.7605	953.1397	970.2507	1034.5621	1053.8274	1054.1227	1060.2011	1100.7721	1131.6352	1158.7167	1187.0669	1190.0642	1274.7071	1287.1974	1340.9998	1350.1072	1363.8544	1372.0585	1399.6946	1410.5963	1415.4792	1420.1943	1479.4988	1479.8962	1484.1532	1489.2959	1493.1964	1496.9716	1504.5094	1508.3119	1514.6724	2361.2706	2970.6987	3012.0057	3024.055	3024.6744	3030.4043	3030.7985	3033.4676	3078.8657	3083.5719	3083.6317	3086.8963	3093.9976	3097.5471	3113.7956	3119.7902	3122.9954
CCC(C#CC)C(C)C	CC[C@@H](C#CC)C(C)C	
InChI=1S/C9H16/c1-5-7-9(6-2)8(3)4/h8-9H,6H2,1-4H3	InChI=1S/C9H16/c1-5-7-9(6-2)8(3)4/h8-9H,6H2,1-4H3/t9-/m0/s1
