17
gdb 28366	3.1829	1.40235	0.98526	1.525	81.58	-0.2264	-0.045	0.1814	1186.8029	0.135971	-418.064961	-418.05643	-418.055485	-418.09812	31.468	
C	-0.0216580747	 1.4738141179	 0.1049202411	-0.472523
C	-0.006512839	-0.0098810721	-0.0644354145	 0.412362
N	-0.0361443708	-0.585143534	-1.20679844	-0.317875
C	-0.0164587178	-1.9734663707	-1.2032227397	-0.101164
C	 0.0311686573	-2.7350303249	-0.08875383	 0.216471
C	 0.0522767125	-4.2323219448	-0.0915027735	-0.475343
C	 0.0640900211	-2.0541794338	 1.1965839586	 0.320436
N	 0.1095697142	-2.6413323706	 2.3194925905	-0.53482
O	 0.0420121521	-0.6556457595	 1.1283699966	-0.248151
H	 0.8734577064	 1.8045374795	 0.6417639458	 0.149808
H	-0.0613377149	 1.9493151949	-0.8739843681	 0.155818
H	-0.8874554659	 1.7797879869	 0.7012120796	 0.149791
H	-0.0425638963	-2.4329006158	-2.1871065535	 0.112756
H	 0.023088446	-4.6218042194	-1.1123291253	 0.117768
H	 0.9506718507	-4.6082810378	 0.4088674672	 0.145923
H	-0.7990133087	-4.6330253657	 0.468441466	 0.145959
H	 0.1253543278	-1.96715766	 3.0848832992	 0.222786
103.8079	132.8793	141.8555	173.3697	278.9227	307.9693	327.6707	398.7782	468.4024	528.5819	549.3435	643.54	737.9058	754.3588	757.9016	856.4008	947.2462	951.3768	974.8273	1035.2853	1052.3565	1063.6439	1072.5492	1185.2238	1205.6789	1251.3272	1333.5157	1404.7232	1413.7447	1422.495	1467.2969	1470.4321	1473.6208	1485.1766	1641.6415	1682.421	1743.1188	3038.9708	3047.2543	3095.7171	3103.673	3123.0922	3169.9963	3173.6175	3492.6608
CC1=NC=C(C)C(=N)O1	CC1=NCC(=C([NH])O1)C	
InChI=1S/C6H8N2O/c1-4-3-8-5(2)9-6(4)7/h3,7H,1-2H3	InChI=1S/C6H9N2O/c1-4-3-8-5(2)9-6(4)7/h7H,3H2,1-2H3
