20
gdb 122911	4.84634	0.55026	0.51044	3.8307	77.88	-0.2634	0.0096	0.2731	2127.8687	0.168261	-440.286547	-440.275705	-440.27476	-440.323877	37.081	
C	-0.1063378899	 1.5268586734	 0.0029623778	-0.385318
C	-0.0254810292	 0.0106848928	 0.0434191105	-0.032604
O	-1.3390458018	-0.5125189684	-0.0146554698	-0.245476
C	-1.379755492	-1.9187655241	 0.0184651308	-0.058364
C	-2.8441042878	-2.3432987354	-0.0138853385	-0.220881
C	-2.9992861575	-3.8714343796	 0.0125264058	-0.026217
O	-2.4167652617	-4.4758499729	 1.1546284127	-0.407448
C	-4.4225393533	-4.2498094626	-0.1174545962	 0.260266
N	-5.5404523866	-4.5335708561	-0.1873656904	-0.312942
H	 0.8961110947	 1.9626619704	 0.0469146719	 0.117179
H	-0.590500213	 1.8609066291	-0.9189918229	 0.128456
H	-0.6864417985	 1.9031414079	 0.8502723369	 0.12781
H	 0.5708922481	-0.3688972173	-0.8035074395	 0.087893
H	 0.4756653799	-0.327983968	 0.965880334	 0.087974
H	-0.8413565494	-2.3459988555	-0.846590621	 0.087022
H	-0.890189629	-2.3081565173	 0.9243742852	 0.101807
H	-3.3721529722	-1.9063466915	 0.8418077609	 0.119206
H	-3.3206092556	-1.9469327692	-0.9166301156	 0.132851
H	-2.4635942041	-4.3056240244	-0.8399941675	 0.142394
H	-2.895515591	-4.1704831414	 1.934389415	 0.296395
48.4367	59.0911	81.7307	129.9714	132.091	175.8809	219.027	245.7781	272.4974	337.7065	382.2222	404.8517	500.4982	586.6142	592.895	802.4486	821.6175	871.6023	912.496	966.3113	1044.8566	1066.4121	1101.957	1104.8784	1153.9669	1168.7043	1184.3499	1222.1429	1274.7865	1290.05	1296.0212	1324.0368	1356.815	1392.3832	1409.9949	1420.2063	1454.8644	1483.5076	1485.0457	1499.465	1519.0033	1540.0778	2356.0742	2944.2218	2958.8079	2981.4082	3001.1739	3042.6059	3046.1861	3054.949	3094.6929	3121.0034	3122.7402	3796.9801
CCOCCC(O)C#N	CCOCC[C@@H](O)C#N	
InChI=1S/C6H11NO2/c1-2-9-4-3-6(8)5-7/h6,8H,2-4H2,1H3	InChI=1S/C6H11NO2/c1-2-9-4-3-6(8)5-7/h6,8H,2-4H2,1H3/t6-/m1/s1
