18
gdb 79309	3.88491	1.25315	1.15369	1.2635	85.46	-0.2157	0.0342	0.2499	1121.448	0.147151	-364.708112	-364.700201	-364.699257	-364.7402	31.443	
C	-0.0455243296	 1.5377658597	-0.0083016529	-0.331557
N	 0.0962299895	 0.0877777787	 0.0049408201	-0.075692
C	 0.7800904458	-0.5664928514	-1.1011819577	-0.081595
C	 2.2977489264	-0.6090469349	-0.8166307565	-0.143314
C	 2.4949458877	 0.0438045656	 0.5490113898	-0.255672
C	 1.0970210145	-0.5439308346	 0.9094365715	-0.082584
C	 1.3389581717	-1.6447891049	-0.2119839167	 0.32485
C	 1.2889751998	-3.0523632878	-0.2356105588	-0.025769
C	 1.2555311585	-4.2563359625	-0.2399193194	-0.357775
H	 0.8755734868	 2.092449755	-0.2449796054	 0.102936
H	-0.801068595	 1.8095163226	-0.7529342421	 0.123402
H	-0.4079905592	 1.8694464021	 0.9703010565	 0.121779
H	 0.3578971303	-0.658967955	-2.0943123676	 0.107497
H	 3.027944189	-0.789636472	-1.5949406691	 0.100298
H	 3.2781466725	-0.4662459533	 1.1147784829	 0.112655
H	 2.6384643381	 1.1267474544	 0.6163059176	 0.095489
H	 0.7909903572	-0.7150337318	 1.9399198415	 0.088648
H	 1.220158886	-5.3171605496	-0.2469764635	 0.176404
114.9102	144.9883	189.2496	256.4978	316.7651	423.1728	456.2028	504.9726	564.6398	571.7112	617.1298	655.9006	669.8809	752.7271	790.8539	870.4158	891.5864	922.2372	954.0361	974.2116	989.6648	1003.4078	1063.1366	1091.2407	1117.3235	1127.0181	1155.5443	1170.6981	1213.1086	1238.5632	1244.9077	1263.8055	1327.9238	1421.2766	1445.8925	1481.218	1495.5312	1516.2194	2232.1801	2981.9372	3051.1926	3065.5851	3100.7612	3110.7711	3136.0658	3194.1094	3206.946	3503.5774
CN1C2C3CC1C23C#C	CN1[C@H]2[C@H]3C[C@@H]1[C@@]23C#C	
InChI=1S/C8H9N/c1-3-8-5-4-6(8)9(2)7(5)8/h1,5-7H,4H2,2H3	InChI=1S/C8H9N/c1-3-8-5-4-6(8)9(2)7(5)8/h1,5-7H,4H2,2H3/t5-,6-,7+,8+/m1/s1
