17
gdb 7385	4.11398	1.22232	1.01205	6.5412	60.79	-0.2486	0.0259	0.2745	1135.514	0.142808	-438.171662	-438.163282	-438.162338	-438.205085	30.523	
N	-0.3871212873	 1.9338859494	 0.3963220573	-0.512973
H	-0.5096125658	 1.5276664487	-0.5270820795	 0.244475
H	 0.5092342795	 2.4093758239	 0.3896847367	 0.246035
H	-2.0030157574	 2.6904907022	 0.9003940458	 0.300573
C	-0.4114403735	 0.8713281698	 1.425795791	-0.178391
C	-1.8470940941	 0.3934296227	 1.6568227998	-0.203728
C	-2.7557788588	 1.4910053281	 2.2336967878	-0.001517
O	-2.8485066921	 2.6333741607	 1.3978824836	-0.467087
C	-4.1699618014	 0.9294817338	 2.4503228357	 0.405949
O	-4.3995210895	 0.0070743524	 3.1864991456	-0.348036
O	-5.1117537254	 1.548708965	 1.7279997878	-0.365079
H	 0.2310522739	 0.0169104613	 1.1693519123	 0.103048
H	-0.0150659303	 1.3031269469	 2.3521046098	 0.120704
H	-2.270728008	 0.0354484374	 0.7085438597	 0.104409
H	-1.8574113136	-0.4517128455	 2.3504232996	 0.136764
H	-2.3760091627	 1.7727162459	 3.2286628201	 0.099593
H	-4.6404241634	 2.2463629573	 1.2309090569	 0.315262
66.6646	73.3995	182.4083	212.6262	287.9639	295.3865	366.6672	408.3033	479.9425	544.4052	618.1767	725.2924	762.6248	784.5216	851.5277	861.4364	894.5757	953.5812	988.385	1024.0275	1084.0301	1134.5486	1163.499	1220.325	1268.3127	1290.6634	1328.3129	1351.9782	1383.3895	1416.4619	1422.0897	1473.8542	1488.8196	1509.131	1651.3043	1870.401	2980.4836	2998.342	3025.0449	3065.4589	3105.6706	3411.7111	3496.9503	3577.3299	3585.3737
[NH3+]CCC(O)C([O-])=O	NCC[C@@H](O)C(=O)O	
InChI=1S/C4H9NO3/c5-2-1-3(6)4(7)8/h3,6H,1-2,5H2,(H,7,8)	InChI=1S/C4H9NO3/c5-2-1-3(6)4(7)8/h3,6H,1-2,5H2,(H,7,8)/t3-/m1/s1
