17
gdb 18155	4.29273	1.48551	1.39412	2.1527	71.79	-0.2464	0.0237	0.2701	973.6356	0.141311	-363.831217	-363.823239	-363.822295	-363.863662	29.075	
C	-0.1248067209	 1.4042817478	 0.0231553571	-0.340204
N	-0.0631766089	-0.0464682929	 0.1300695633	-0.342644
C	-1.1126465864	-0.7122782049	 0.0100683059	 0.485642
O	-2.4375380939	-0.285156988	-0.2035032238	-0.284871
C	-2.8980186838	-1.6472132059	-0.0238742364	 0.071255
C	-2.3629770344	-2.5291742311	-1.0977092828	-0.028304
C	-2.1146264071	-2.089045793	-2.5216882896	-0.417057
C	-1.4756963823	-2.1558984895	 0.10318936	-0.25529
H	 0.4666382359	 1.7246260944	-0.8419609418	 0.128067
H	-1.1405789951	 1.8033903822	-0.0787420749	 0.127504
H	 0.3423635704	 1.8468351643	 0.9094251964	 0.127225
H	-3.7767711346	-1.7901656532	 0.5907089422	 0.119314
H	-2.7155029094	-3.5545632606	-0.992695046	 0.101363
H	-1.861106491	-1.0280779826	-2.5677061051	 0.142354
H	-1.2949708842	-2.6593182161	-2.9692266569	 0.126068
H	-3.0101187788	-2.2477495914	-3.1317245889	 0.12155
H	-1.0257614057	-2.8866013297	 0.7591907313	 0.118029
100.2488	103.5885	174.1229	215.718	225.6796	276.6455	400.9814	478.8641	599.9177	693.5456	720.5237	757.0157	831.0401	856.5108	908.4031	956.5882	1001.523	1024.3948	1049.8537	1070.4406	1084.0427	1097.2356	1129.3624	1136.6954	1171.9151	1201.0576	1293.35	1312.6257	1412.701	1433.6469	1441.172	1491.5199	1493.1291	1499.2357	1500.0582	1853.4141	3018.1268	3042.1977	3082.8003	3089.5751	3102.8606	3121.7072	3138.4976	3207.441	3228.5609
CN=C1OC2C(C)C12	CN=C1O[C@H]2[C@@H](C)[C@@H]12	
InChI=1S/C6H9NO/c1-3-4-5(3)8-6(4)7-2/h3-5H,1-2H3	InChI=1S/C6H9NO/c1-3-4-5(3)8-6(4)7-2/h3-5H,1-2H3/t3-,4+,5-/m0/s1
