21
gdb 73371	2.37975	2.21173	1.57585	1.4392	80.73	-0.2303	0.0888	0.3192	950.4845	0.185285	-387.094237	-387.087101	-387.086157	-387.125163	30.42	
C	-0.0475733808	 1.4543067029	 0.041976073	-0.476933
C	 0.063068071	-0.0537659775	 0.0372680135	 0.421411
C	 0.7021373173	-0.6991731613	-1.2020844208	-0.23557
C	 0.7288562337	-2.2072615399	-0.8237364272	-0.245832
C	 0.4347030739	-2.1855750019	 0.6808455576	-0.025921
C	-1.0044407615	-1.7187070338	 1.0762360905	 0.09644
C	-0.3800359591	-0.9660364917	 2.2722180106	-0.248818
C	 0.7549465439	-0.758821918	 1.2404757894	-0.102679
O	-1.2651609854	-0.6616277191	 0.1407539722	-0.325912
H	 0.9373486794	 1.9148366876	-0.0873763882	 0.11205
H	-0.6919656336	 1.791953499	-0.7758264725	 0.125332
H	-0.4790531575	 1.8138035105	 0.9805610919	 0.11951
H	 0.1133385707	-0.4896989983	-2.0989411735	 0.101444
H	 1.7136326986	-0.3070992967	-1.3625727066	 0.088594
H	-0.025732546	-2.7789148459	-1.3721868689	 0.105599
H	 1.6995262777	-2.6651866239	-1.0346662145	 0.095333
H	 0.8063711721	-3.0233408448	 1.271125769	 0.067932
H	-1.8684044276	-2.3798296119	 1.144664717	 0.072011
H	-0.9258602092	-0.0974305836	 2.6484063454	 0.096513
H	-0.0774261361	-1.6213032771	 3.0920453916	 0.095723
H	 1.7593898885	-0.4258252746	 1.5023586605	 0.063771
202.5909	207.4954	255.5197	309.3391	374.6558	428.087	494.1385	587.7622	608.3451	712.2492	734.2143	783.1013	803.9453	839.3297	864.8626	887.043	911.1932	932.8461	948.1629	969.9609	1013.4861	1023.9687	1028.3245	1060.4965	1073.3967	1095.9219	1120.8867	1152.3428	1190.659	1214.227	1220.8953	1231.963	1253.5838	1264.9993	1282.9008	1292.9237	1326.0933	1339.9488	1359.7734	1412.5055	1474.8569	1483.676	1489.3079	1495.8535	1498.8427	3032.3459	3038.2212	3054.4134	3063.5385	3085.7341	3102.2381	3107.3455	3110.3771	3112.8545	3115.8974	3123.3341	3127.5569
CC12CCC3C(CC13)O2	C[C@@]12CC[C@@H]3[C@@H](C[C@H]13)O2	
InChI=1S/C8H12O/c1-8-3-2-5-6(8)4-7(5)9-8/h5-7H,2-4H2,1H3	InChI=1S/C8H12O/c1-8-3-2-5-6(8)4-7(5)9-8/h5-7H,2-4H2,1H3/t5-,6-,7+,8+/m0/s1
