14
gdb 123330	4.3531	1.21755	1.03896	4.7997	74.39	-0.2588	0.001	0.2598	1098.9536	0.102036	-395.64829	-395.641115	-395.640171	-395.68031	26.719	
C	-0.1682933089	-1.2774023006	-0.1676257123	-0.444474
C	-0.0879434127	-0.0812211959	-0.09276819	 0.346722
C	 0.0007652272	 1.3620389257	 0.0011460769	-0.368506
C	-0.2740278452	 2.0002090128	 1.4361787354	-0.179775
N	 1.1027591031	 2.5236146969	 1.3337604377	 0.094284
N	 2.0961012448	 3.2532232509	 1.8605760211	-0.176426
N	 3.0586705058	 3.1756354045	 0.9670022352	-0.17763
C	 2.6836574601	 2.4162115021	-0.1115196335	-0.215803
C	 1.3976163158	 1.9952804776	 0.1394912583	 0.331255
H	-0.2332732974	-2.3355558652	-0.235543374	 0.211611
H	-0.6053347044	 1.8380746768	-0.775369802	 0.139
H	-1.0406027907	 2.7760949929	 1.4669089472	 0.150422
H	-0.4097569309	 1.2772412994	 2.2406778895	 0.158136
H	 3.3538436734	 2.2475039822	-0.9364770797	 0.131184
88.3341	125.6389	181.6519	279.3747	387.7598	473.7976	527.5448	641.7505	655.0319	670.674	696.6289	751.1346	776.3476	834.3761	864.1753	967.3347	1014.0585	1048.6619	1097.4236	1112.1046	1139.4167	1180.7201	1204.0724	1247.4042	1282.0593	1308.1832	1356.1304	1476.3123	1516.0847	1535.7807	2244.8296	3067.5575	3087.3204	3157.3929	3289.9654	3501.5596
C#CC1CN2N=NC=C12	C#C[C@H]1Cn2nncc12	
InChI=1S/C6H5N3/c1-2-5-4-9-6(5)3-7-8-9/h1,3,5H,4H2	InChI=1S/C6H5N3/c1-2-5-4-9-6(5)3-7-8-9/h1,3,5H,4H2/t5-/m0/s1
