17
gdb 54543	3.39934	1.47844	1.23576	2.1281	71.83	-0.2399	-0.0278	0.2121	1029.9461	0.134316	-421.774797	-421.766915	-421.765971	-421.808096	29.86	
C	-0.0622517003	 1.4038722103	-0.4616890814	-0.481763
C	 0.0344688574	 0.0297318451	 0.1563896359	 0.249094
O	 1.0429554538	-0.4142738142	 0.6583903225	-0.304341
C	-1.2047008781	-0.8227240877	 0.1194833591	 0.343367
C	-1.7168468092	-1.615477077	 1.3568263418	-0.257595
C	-2.4438392525	-2.4881596106	 0.3388302088	-0.128638
C	-2.8116785779	-1.5201449928	-0.8041211602	 0.093346
O	-2.4092770874	-0.2051311126	-0.4208703191	-0.332538
C	-1.4528779661	-2.1211961867	-0.7604439227	-0.181464
H	 0.8901994873	 1.9240576014	-0.3566366601	 0.137589
H	-0.3388740595	 1.318569905	-1.5178536674	 0.150614
H	-0.86714189	 1.9734865864	 0.0154129142	 0.154302
H	-0.8921694703	-2.1448397401	 1.8363298647	 0.130965
H	-2.2976945663	-1.0404048014	 2.0843870534	 0.102838
H	-2.9526568626	-3.4313717538	 0.4898040029	 0.099173
H	-3.6434201453	-1.6386547064	-1.4853355708	 0.113835
H	-0.841744353	-2.6922806448	-1.4445543115	 0.111219
29.8	137.6743	175.1511	182.3435	339.5281	415.1609	493.5026	535.6839	580.2136	613.0212	760.0946	764.1276	783.5752	814.0144	870.0095	913.388	943.1542	960.0354	977.3549	1003.3638	1024.2889	1040.664	1055.7974	1067.6426	1087.4353	1113.8801	1158.1815	1167.5137	1249.1776	1279.1544	1334.7937	1360.288	1386.4693	1452.8144	1463.4504	1487.1222	1802.3172	3043.4093	3056.2163	3103.9796	3136.8741	3158.5816	3201.6386	3209.7612	3225.2993
CC(=O)C12CC3C(O1)C23	CC(=O)[C@@]12C[C@H]3[C@@H](O1)[C@@H]23	
InChI=1S/C7H8O2/c1-3(8)7-2-4-5(7)6(4)9-7/h4-6H,2H2,1H3	InChI=1S/C7H8O2/c1-3(8)7-2-4-5(7)6(4)9-7/h4-6H,2H2,1H3/t4-,5+,6-,7-/m1/s1
