20
gdb 37732	3.30939	1.8895	1.4656	1.5505	82.17	-0.2223	0.0851	0.3074	943.6274	0.174457	-365.93476	-365.928237	-365.927293	-365.965193	28.081	
C	-0.0835390659	 1.5820686616	-0.0009345111	-0.331759
C	 1.4131640802	 1.225314469	 0.0357039415	-0.017073
C	 1.2146319785	 0.0225232181	 0.9917663917	-0.081624
C	 1.8910029433	-0.9212750022	 0.0029997239	 0.014522
C	 1.298424035	-2.3335246833	-0.0800450473	-0.228955
C	-0.1485681553	-2.3045813801	-0.6265257911	-0.195075
C	-0.9694085702	-1.1015698332	-0.0979358893	-0.344296
C	-0.0123456642	 0.0511820968	 0.0252136817	 0.371139
N	 1.2083638656	 0.0609359673	-0.9603008663	-0.196106
H	-0.4970278732	 2.0738914128	 0.8837942827	 0.095922
H	-0.4507315608	 2.0352216419	-0.9264409221	 0.104714
H	 2.2832195605	 1.8785340953	-0.0511894658	 0.077283
H	 1.1976920337	 0.0162448103	 2.0887172352	 0.053691
H	 2.9848823224	-0.9057470941	-0.0595255989	 0.060499
H	 1.9105513353	-2.9712161339	-0.7266317747	 0.10126
H	 1.3319916598	-2.7841443884	 0.9210707106	 0.096654
H	-0.0897096981	-2.2066099695	-1.7144899006	 0.122061
H	-0.6601429416	-3.2488114263	-0.4176763209	 0.091764
H	-1.7910285853	-0.8745437835	-0.7860388185	 0.105149
H	-1.4170665996	-1.3141939085	 0.8807789193	 0.100229
188.6074	226.8657	354.6324	382.537	438.5366	472.3034	573.7957	668.0628	704.3517	765.2466	825.6208	841.7048	847.4144	858.7554	897.8095	907.8197	909.1714	941.0341	998.9355	1021.5335	1043.7247	1057.9795	1072.8579	1084.5463	1114.6749	1147.8238	1161.9672	1187.5062	1201.5524	1215.942	1228.1016	1243.3628	1279.4319	1300.4975	1306.1187	1352.5529	1367.7204	1376.26	1391.4685	1479.4455	1484.5116	1493.6318	1498.6767	3018.2288	3021.7391	3028.1951	3043.0424	3050.0719	3050.4296	3068.5183	3069.1989	3098.2214	3099.7042	3115.328
C1C2C3C4CCCC13N24	C1[C@H]2[C@@H]3[C@H]4CCC[C@@]13N24	
InChI=1S/C8H11N/c1-2-5-7-6-4-8(7,3-1)9(5)6/h5-7H,1-4H2	InChI=1S/C8H11N/c1-2-5-7-6-4-8(7,3-1)9(5)6/h5-7H,1-4H2/t5-,6+,7+,8-/m1/s1
