16
gdb 45031	2.40762	1.75421	1.13901	3.3312	70.19	-0.2588	-0.0263	0.2325	1041.0684	0.126812	-437.960282	-437.953023	-437.952079	-437.992238	28.096	
O	-0.0627807623	-0.008627359	 0.3472761541	-0.339501
C	-0.0824577976	 1.1826139961	 0.1411516038	 0.393805
C	-1.3639323889	 1.9528993722	-0.1431243709	-0.341942
C	-1.2991919157	 3.4467364429	 0.0923280143	-0.048272
C	-0.7309719	 3.9944191545	 1.3623667678	-0.294209
C	 0.0570402099	 4.1216108003	 0.0618485942	-0.135676
C	 1.2785636534	 3.2913550899	-0.0978919974	 0.42628
O	 2.3765053408	 3.7403126995	-0.3363486801	-0.34919
N	 1.0975841773	 1.9154349153	 0.0821470763	-0.366115
H	-1.6004628755	 1.7540092946	-1.1966995196	 0.14601
H	-2.156540035	 1.4817147869	 0.4447268102	 0.145666
H	-2.1114803467	 4.0089969019	-0.3564403466	 0.107439
H	-1.148266364	 4.9086972313	 1.7672918559	 0.133162
H	-0.3570819282	 3.3007609002	 2.1081740028	 0.136871
H	 0.1589016083	 5.1089823682	-0.3695122373	 0.120743
H	 1.9495348542	 1.3681151251	 0.1168644626	 0.264929
95.1486	132.9648	234.1667	328.451	377.5069	467.1825	497.8293	525.3112	571.8953	645.5703	714.6274	764.2224	784.7091	824.5472	865.9648	895.4777	927.8289	1004.4359	1014.0638	1054.0365	1076.2825	1112.4283	1127.6532	1209.9203	1236.0105	1266.9147	1334.0248	1343.4064	1381.2409	1402.7128	1422.0693	1461.7869	1494.3193	1807.0402	1815.8823	3035.4143	3096.1687	3139.6559	3161.6546	3202.2788	3229.6727	3581.7355
O=C1CC2CC2C(=O)N1	O=C1C[C@H]2C[C@H]2C(=O)N1	
InChI=1S/C6H7NO2/c8-5-2-3-1-4(3)6(9)7-5/h3-4H,1-2H2,(H,7,8,9)	InChI=1S/C6H7NO2/c8-5-2-3-1-4(3)6(9)7-5/h3-4H,1-2H2,(H,7,8,9)/t3-,4-/m1/s1
