17
gdb 118388	3.1706	0.78923	0.66368	5.2171	73.29	-0.2876	0.0095	0.2971	1618.2967	0.134726	-418.028576	-418.018543	-418.017598	-418.064652	34.113	
O	-0.1176114312	 1.4641971861	 0.0949274653	-0.417541
C	 0.0332383009	 0.0628107682	-0.0421169738	-0.094434
C	-1.3683061185	-0.5365936605	 0.012860231	-0.184115
C	-1.3824370648	-2.0780368288	-0.0345232178	-0.161537
C	-2.833864476	-2.6140456689	 0.0982326824	-0.352686
C	-2.9014322744	-4.066102923	 0.2403317948	 0.269977
N	-2.9453376963	-5.2128544424	 0.3704249964	-0.288969
C	-0.7595304006	-2.5769246857	-1.2659643073	 0.296889
N	-0.271366494	-2.9435473819	-2.246983691	-0.316653
H	 0.7418567118	 1.8759255285	-0.0332787275	 0.294348
H	 0.516764367	-0.2031810309	-0.9931801911	 0.120283
H	 0.649198547	-0.3578402752	 0.7702954978	 0.093195
H	-1.8480969477	-0.2149759165	 0.9435611278	 0.123193
H	-1.9614335858	-0.1331099084	-0.8147636571	 0.130763
H	-0.798091092	-2.4677031292	 0.8078396848	 0.149753
H	-3.2945785924	-2.1546462946	 0.9789356608	 0.164321
H	-3.423660793	-2.3090710567	-0.7722675754	 0.173214
56.4762	87.3938	94.7552	109.3319	161.6337	225.8061	248.7061	253.2758	341.3601	389.9272	403.1043	498.2039	561.0421	648.0673	777.6603	829.2334	930.3928	951.7356	1017.1352	1051.2806	1071.8621	1100.207	1111.9244	1210.8894	1227.8289	1246.8275	1293.4155	1315.7379	1350.8627	1354.1894	1371.0733	1464.4861	1470.2976	1491.3702	1529.9022	2360.1373	2369.2752	2964.5191	3016.6787	3042.4601	3047.9996	3057.1588	3095.2721	3101.6825	3835.232
OCCC(CC#N)C#N	OCC[C@@H](CC#N)C#N	
InChI=1S/C6H8N2O/c7-3-1-6(5-8)2-4-9/h6,9H,1-2,4H2	InChI=1S/C6H8N2O/c7-3-1-6(5-8)2-4-9/h6,9H,1-2,4H2/t6-/m1/s1
