14
gdb 131751	4.80074	1.03415	0.8554	6.7979	68.52	-0.2646	-0.0828	0.1817	1253.9004	0.099774	-473.814133	-473.806107	-473.805163	-473.847347	28.795	
O	 0.0573496325	 1.4351603278	 0.007826465	-0.388376
C	 0.0158932493	 0.0354418983	 0.0018027972	-0.146442
C	-1.4113895703	-0.4603604604	 0.0126861066	 0.318068
N	-2.3592326046	 0.413797926	 0.0229506858	-0.098697
O	-3.6630720674	-0.0616251458	 0.0327388444	-0.25956
C	-4.0152075835	-1.4068504605	 0.0320549149	 0.448026
O	-5.1837038521	-1.6851984383	 0.0407632659	-0.330694
C	-2.9004751394	-2.3456393308	 0.0201282326	-0.225835
C	-1.6392238564	-1.8856746096	 0.0108416381	-0.11081
H	 0.9796064329	 1.707518851	-0.0040029288	 0.298243
H	 0.5085145876	-0.3950543656	-0.8886078922	 0.112589
H	 0.5247577064	-0.4031028485	 0.8790936772	 0.112486
H	-3.1558309074	-3.3981673772	 0.0194240068	 0.144102
H	-0.7860603376	-2.5579816564	 0.0019662265	 0.126902
64.6343	98.4631	191.5718	214.5929	280.9704	340.9935	377.9879	478.0442	535.6213	536.5453	618.1111	742.9321	767.3288	793.9899	859.8906	917.1764	1017.3512	1033.7628	1043.8094	1116.43	1127.8944	1213.3358	1235.8059	1253.1028	1258.2855	1431.3299	1469.1686	1509.5331	1607.6712	1689.001	1842.2142	2941.111	2957.8154	3172.8067	3220.2229	3836.4377
OCC1=NOC(=O)C=C1	OCc1noc(=O)cc1	
InChI=1S/C5H5NO3/c7-3-4-1-2-5(8)9-6-4/h1-2,7H,3H2	InChI=1S/C5H5NO3/c7-3-4-1-2-5(8)9-6-4/h1-2,7H,3H2
