12
gdb 129989	3.2637	1.50663	1.03079	3.0429	61.24	-0.2483	-0.0727	0.1756	1033.3517	0.078296	-505.964512	-505.957209	-505.956265	-505.996271	27.567	
N	-0.0096133372	 1.2717162858	-0.1038774533	-0.532213
C	-0.0500241812	-0.0609871734	-0.0446797677	 0.296475
N	-1.1610680865	-0.7357745831	-0.041297411	-0.355791
C	-1.0013771834	-2.0866866403	 0.0234953802	 0.476782
O	-2.1592467387	-2.76334119	 0.0257116542	-0.387032
N	 0.0845897015	-2.797995138	 0.0819243688	-0.234565
O	 1.2885416563	-2.0447525127	 0.0772823726	-0.240211
C	 1.2980517799	-0.7076360456	 0.0174091469	 0.435252
O	 2.3281252452	-0.0771440349	 0.0137253431	-0.353456
H	 0.8945031864	 1.716921467	-0.1018123967	 0.294967
H	-0.8608531988	 1.8060797259	-0.1486423626	 0.283982
H	-1.9400310235	-3.7049083307	 0.0734401156	 0.315809
105.6507	185.0516	316.7521	323.036	341.6742	388.6362	460.5069	505.0553	523.6345	538.5209	610.49	641.8235	693.6261	734.0344	816.6138	818.2186	963.3438	1019.8873	1170.6445	1219.4373	1277.8855	1411.4354	1486.4355	1581.2696	1623.6436	1696.2439	1813.924	3594.6204	3734.9157	3771.1015
NC1=NC(O)=NOC1=O	Nc1nc(O)noc1=O	
InChI=1S/C3H3N3O3/c4-1-2(7)9-6-3(8)5-1/h(H3,4,5,6,8)	InChI=1S/C3H3N3O3/c4-1-2(7)9-6-3(8)5-1/h(H3,4,5,6,8)
