21
gdb 74441	2.79992	1.52673	1.28273	1.4144	83.59	-0.2304	0.0187	0.2491	1101.7593	0.183326	-387.103442	-387.095193	-387.094249	-387.135598	33.135	
C	-0.0100839991	 1.5114778925	 0.0642584306	-0.514694
C	-0.0802701239	 0.0236145392	-0.0148763798	 0.35005
C	-0.0780705543	-0.7865710701	-1.0816493187	-0.234081
C	 0.011920053	-2.2283858003	-0.5930325449	 0.250977
C	-0.3335124934	-3.3299454201	-1.5770263222	-0.493946
C	 1.4288291261	-2.3294300147	 0.0606665151	-0.087609
O	 1.3661843161	-1.4576041566	 1.1938832717	-0.279075
C	 0.0144515782	-0.9096667764	 1.1908090527	-0.004096
C	-0.8132435091	-2.1094217795	 0.7210884068	-0.250195
H	 0.9155788734	 1.83031555	 0.5601861613	 0.137153
H	-0.0377519057	 1.9698916748	-0.9284651925	 0.122784
H	-0.8389077008	 1.9239271097	 0.6535512984	 0.123542
H	-0.0183468799	-0.4957511014	-2.1247781135	 0.087257
H	 0.3444675651	-3.3213074814	-2.4381743721	 0.116527
H	-0.2608554314	-4.3170176112	-1.1076091198	 0.114894
H	-1.3532248331	-3.2121265422	-1.9577480655	 0.119769
H	 1.6406064271	-3.3535822909	 0.3975330953	 0.090948
H	 2.2251037622	-2.010281012	-0.6225187667	 0.092046
H	-0.1724729367	-0.4839590992	 2.1763828043	 0.066593
H	-1.8636207479	-1.8771349907	 0.5364330532	 0.097732
H	-0.7224387661	-2.9763135496	 1.3834824862	 0.093426
152.9305	180.1443	211.8292	236.9431	275.883	284.7487	369.7596	444.5629	492.862	551.7951	564.2042	626.2524	723.8797	819.5181	823.8553	858.3226	881.335	907.5022	927.3425	964.1379	991.4699	993.9952	1024.6749	1045.3635	1064.1297	1108.0092	1127.2179	1167.3853	1193.5481	1228.8318	1241.9074	1263.7213	1288.1417	1299.1901	1338.2157	1374.3421	1409.9762	1414.3454	1478.9942	1486.3942	1488.3633	1493.4164	1496.8422	1519.7051	1691.9402	3001.0953	3016.2498	3026.9583	3048.3992	3054.7872	3063.7863	3090.2699	3098.9502	3105.581	3123.3595	3125.9293	3187.562
CC1=CC2(C)COC1C2	CC1=C[C@@]2(C)CO[C@@H]1C2	
InChI=1S/C8H12O/c1-6-3-8(2)4-7(6)9-5-8/h3,7H,4-5H2,1-2H3	InChI=1S/C8H12O/c1-6-3-8(2)4-7(6)9-5-8/h3,7H,4-5H2,1-2H3/t7-,8-/m1/s1
