19
gdb 118602	1.85279	1.02308	0.68709	3.8364	79.98	-0.2768	-0.0008	0.2759	1637.0512	0.155413	-423.017368	-423.006824	-423.005879	-423.054274	36.439	
C	-0.0158486585	 1.5836669461	-0.0060961581	-0.387538
C	-0.0037455886	 0.0530509213	 0.0102089901	-0.180063
C	 0.7629387621	-0.511415095	 1.2103422929	-0.177794
C	 0.7846028407	-2.043694502	 1.2495996241	-0.117757
O	 1.4887786079	-2.4912640657	 0.0655169419	-0.181335
C	 1.2278403113	-3.7405881295	-0.3706704627	 0.177973
O	 1.7734985988	-4.2145324151	-1.3203483713	-0.270846
C	 1.428314384	-2.5647932451	 2.4534780239	 0.34686
C	 1.9555464927	-2.9849414559	 3.4477203278	-0.433613
H	 1.0014057328	 1.9863526172	-0.0598398505	 0.12123
H	-0.569723955	 1.9642557522	-0.8693281633	 0.118507
H	-0.4852826909	 1.9888425081	 0.8971930604	 0.115314
H	-1.0356801144	-0.3229388347	 0.0305807774	 0.094546
H	 0.4462651832	-0.3257612951	-0.9131978342	 0.125144
H	 1.7999271978	-0.1575688665	 1.2048597758	 0.12526
H	 0.3143917035	-0.1639606167	 2.1480664815	 0.114542
H	-0.2474727193	-2.4196303127	 1.2003479832	 0.114792
H	 0.459635171	-4.2598860607	 0.2336667188	 0.085705
H	 2.4226705811	-3.3623674003	 4.3241781924	 0.209074
42.5787	79.059	95.6101	112.7598	125.4211	218.3455	232.7607	250.3564	288.6151	322.7948	443.9273	509.9072	564.9412	639.9391	658.6164	683.3817	755.2526	869.6476	907.2386	946.6648	1007.1545	1041.315	1044.2193	1068.596	1126.8843	1135.88	1197.5712	1259.095	1286.3539	1328.3478	1352.0046	1357.4886	1398.1139	1415.7975	1436.6473	1475.6996	1494.0455	1500.2726	1510.6622	1868.0507	2240.0422	2956.2762	3003.9592	3019.3408	3031.9456	3043.5092	3070.0781	3088.6454	3104.0356	3107.7338	3500.7431
CCCC(OC=O)C#C	CCC[C@@H](OC=O)C#C	
InChI=1S/C7H10O2/c1-3-5-7(4-2)9-6-8/h2,6-7H,3,5H2,1H3	InChI=1S/C7H10O2/c1-3-5-7(4-2)9-6-8/h2,6-7H,3,5H2,1H3/t7-/m0/s1
