18
gdb 39672	3.57787	1.24821	1.20281	1.3493	71.38	-0.2405	0.0216	0.2621	1095.6949	0.14971	-439.076384	-439.068566	-439.067622	-439.109879	28.328	
C	 0.0360474003	 1.1188891547	-0.3707247659	-0.056008
C	 1.4834333469	 1.4439747607	 0.0467811496	-0.290688
C	 1.4219825382	 0.0845901586	 0.7778324067	 0.132223
O	 0.0484558135	-0.1188303624	 0.3791047644	-0.294798
C	 2.3289308926	-1.034553372	 0.2695396001	-0.015085
C	 1.8194446123	-2.4417061942	 0.6913766737	-0.120258
O	 1.618743579	-3.1354159556	-0.5652962425	-0.216916
C	 1.943151879	-2.2409035701	-1.5220192578	 0.129925
N	 2.3561474101	-1.0859625022	-1.2052849165	-0.275361
H	-0.7367653014	 1.8036352404	-0.0026638458	 0.099944
H	-0.1158576256	 0.9401337794	-1.4406399777	 0.111385
H	 2.2045034124	 1.4876548086	-0.7680588809	 0.13442
H	 1.5958858102	 2.3110980364	 0.698722955	 0.105476
H	 1.5069431833	 0.1401662337	 1.872744113	 0.07228
H	 3.3441657475	-0.8396415849	 0.6383573207	 0.086913
H	 2.5386763404	-3.0124848271	 1.2830418361	 0.117339
H	 0.8586963901	-2.4042424799	 1.2103567363	 0.137579
H	 1.8276923314	-2.610511284	-2.5351958585	 0.141629
64.0252	81.6573	94.9363	210.3875	248.9365	390.096	463.4174	647.8606	715.7143	770.7922	797.0738	853.1391	884.0907	933.9799	941.5256	964.4033	968.5112	985.6028	992.9156	1027.5591	1066.9146	1111.7147	1130.3481	1146.6853	1167.1085	1221.6608	1226.6469	1263.6247	1274.8473	1290.4691	1319.5043	1338.6837	1370.5935	1374.8275	1392.3171	1480.7438	1506.4055	1523.6175	1707.4734	2994.503	3023.2719	3026.8965	3065.959	3071.7616	3092.2463	3118.3372	3157.566	3213.7169
C1CC(O1)C1COC=N1	C1C[C@@H](O1)[C@H]1COC=N1	
InChI=1S/C6H9NO2/c1-2-9-6(1)5-3-8-4-7-5/h4-6H,1-3H2	InChI=1S/C6H9NO2/c1-2-9-6(1)5-3-8-4-7-5/h4-6H,1-3H2/t5-,6-/m1/s1
