15
gdb 44022	3.38594	1.78705	1.5507	4.0497	72.12	-0.2371	0.0073	0.2444	871.5045	0.112551	-416.632659	-416.626091	-416.625146	-416.663355	26.859	
N	-0.0510337266	 1.1553063244	-0.5436853714	-0.544867
C	-0.0095944402	-0.0275080056	-0.1157415274	 0.331682
N	 0.9785413255	-0.962047555	 0.2620448973	-0.393461
C	 0.0471638826	-1.9018667049	 0.829038625	 0.207589
C	-0.6499536979	-1.870355266	 2.2049295003	-0.303569
C	-1.8283884984	-1.9775181037	 1.2140516975	-0.141908
C	-1.013187748	-2.8766917732	 0.1804821778	 0.031378
O	-1.2811859501	-2.0485346859	-0.9605309799	-0.31934
C	-1.0899131521	-1.0970304582	 0.1412013478	 0.245944
H	 0.8806491161	 1.5597783475	-0.6530486231	 0.219528
H	 1.9769136153	-0.8509611342	 0.3664824555	 0.247311
H	-0.4829481017	-2.7171314189	 2.8745257648	 0.106168
H	-0.5834462553	-0.924312995	 2.7494080099	 0.11289
H	-2.8995462901	-2.0332247892	 1.4130386924	 0.100034
H	-1.025308399	-3.9618146621	 0.0498352836	 0.100619
114.2372	319.3596	322.9247	354.7666	387.7039	514.0545	558.3645	606.5933	645.8849	720.0114	774.6815	793.5086	837.0745	875.3028	879.119	909.0069	954.9344	986.5659	1010.686	1023.9413	1043.3615	1088.0722	1089.542	1145.3822	1148.201	1204.546	1234.4595	1238.0209	1266.6998	1275.2908	1360.3562	1509.8793	1783.3785	3058.2543	3082.5152	3114.7287	3118.4526	3465.3939	3588.7202
N=C1NC23CC4C2OC134	[NH][C]1N[C@]23C[C@@H]4[C@H]2O[C@]134	
InChI=1S/C6H6N2O/c7-4-6-2-1-5(6,8-4)3(2)9-6/h2-3H,1H2,(H2,7,8)	InChI=1S/C6H6N2O/c7-4-6-2-1-5(6,8-4)3(2)9-6/h2-3H,1H2,(H2,7,8)/t2-,3-,5-,6-/m1/s1
