21
gdb 119172	2.6303	1.10282	0.89264	1.4645	79.26	-0.2594	0.0791	0.3385	1396.1236	0.18078	-424.177924	-424.168267	-424.167323	-424.213155	35.081	
C	-0.4248330357	 1.3561293016	-0.8530710505	-0.222315
O	-0.5889726948	-0.0406938341	-0.7880341425	-0.238575
C	-0.7791935393	-0.5103599064	 0.5296073163	-0.125113
C	-1.0418727427	-2.0012820176	 0.4668741218	 0.374352
C	 0.094106549	-2.923488008	 0.6032450697	-0.218009
O	-0.7923177665	-2.6772160214	 1.7043908675	-0.284295
C	-2.2866333049	-2.4053603307	-0.2666904332	-0.064685
C	-2.934172279	-3.7369288989	-0.0061630249	-0.278665
C	-3.5976170557	-2.472465657	 0.4810333657	-0.26579
H	-0.2890088347	 1.6211714751	-1.9043108669	 0.128067
H	-1.3054063792	 1.8892717015	-0.4612599498	 0.10657
H	 0.4578426963	 1.6901610812	-0.2851448695	 0.105463
H	 0.1063374772	-0.3167978313	 1.1554846167	 0.092359
H	-1.6382861065	-0.0036892245	 1.0010480984	 0.093346
H	 0.024305081	-3.9188232577	 0.1694406334	 0.116189
H	 1.1023340716	-2.530366714	 0.7233711646	 0.113322
H	-2.323715598	-2.0182244214	-1.2795689836	 0.101957
H	-3.3719793514	-4.2654201211	-0.8454491713	 0.108208
H	-2.4807509105	-4.369299891	 0.7485410858	 0.125848
H	-3.5725835172	-2.286958057	 1.5494055774	 0.122067
H	-4.4941107092	-2.1247389072	-0.0197080753	 0.1097
57.1967	88.475	96.4416	153.641	205.2478	234.5308	243.4011	344.6732	359.6243	412.3298	490.8725	587.8391	688.7712	793.8231	827.9806	868.1186	884.0635	923.7927	949.9645	964.2251	997.4546	1061.5411	1062.6969	1091.32	1112.6268	1129.3488	1141.2229	1156.7894	1166.3999	1183.8596	1201.8781	1216.3514	1227.7437	1236.8918	1257.734	1378.7027	1421.2787	1431.1579	1458.9664	1481.3464	1486.4537	1499.9876	1503.1776	1519.5328	1528.7416	2958.6729	2973.8001	2999.5072	3016.5542	3089.4365	3115.4676	3134.6585	3139.1823	3168.3173	3180.1147	3216.9913	3232.1281
COCC1(CO1)C1CC1	COC[C@]1(CO1)C1CC1	
InChI=1S/C7H12O2/c1-8-4-7(5-9-7)6-2-3-6/h6H,2-5H2,1H3	InChI=1S/C7H12O2/c1-8-4-7(5-9-7)6-2-3-6/h6H,2-5H2,1H3/t7-/m0/s1
