16
gdb 34469	3.63265	1.52213	1.2815	5.2432	73.	-0.252	0.0135	0.2654	977.3001	0.126359	-400.72769	-400.720955	-400.720011	-400.758732	26.904	
N	 0.0422656983	-1.0463294328	 0.0006828303	-0.341254
C	 0.012300606	 0.1094878545	-0.0063360712	 0.223093
C	 0.001604193	 1.5457852108	-0.0163239811	 0.348884
O	-1.0717713313	 2.1325583921	 0.6849179519	-0.310558
C	-1.4075312942	 3.3415670222	-0.0187517732	-0.090737
C	-0.1287244204	 3.6965220195	-0.7697046132	-0.092376
C	 1.0771584633	 3.7600623699	 0.2290612233	-0.244035
C	 1.3437849412	 2.2831165676	-0.0604962973	-0.125023
C	 0.3904553174	 2.3110032442	-1.2487884269	-0.14499
H	-2.2506055549	 3.1631124497	-0.7017383861	 0.106995
H	-1.6993750458	 4.0879211451	 0.7257398596	 0.120277
H	-0.2228903352	 4.5006484244	-1.4972375184	 0.091571
H	 1.8850078113	 4.3859542668	-0.1556404998	 0.116927
H	 0.8527958542	 4.0427827995	 1.2618548676	 0.113706
H	 2.277278162	 1.7454267708	 0.0536011922	 0.111365
H	 0.458642445	 1.9050316757	-2.2484641476	 0.116156
142.9471	164.6871	261.0979	379.2166	434.1979	497.1777	539.8216	582.535	650.5354	727.1206	793.5031	846.6133	854.785	872.0141	900.4252	953.3665	981.9314	997.1062	1018.6316	1034.1577	1055.6937	1097.4265	1114.8673	1166.5377	1178.7804	1215.7944	1233.8381	1258.3435	1274.6197	1310.3591	1374.9049	1379.5052	1491.2405	1511.3044	2359.4697	3004.0509	3057.8786	3090.7691	3117.3222	3135.9753	3189.223	3215.5426
N#CC12OCC3CC1C23	N#C[C@@]12OC[C@H]3C[C@@H]1[C@@H]23	
InChI=1S/C7H7NO/c8-3-7-5-1-4(2-9-7)6(5)7/h4-6H,1-2H2	InChI=1S/C7H7NO/c8-3-7-5-1-4(2-9-7)6(5)7/h4-6H,1-2H2/t4-,5-,6+,7-/m1/s1
