19
gdb 74953	3.09933	1.49727	1.3285	2.1469	75.56	-0.2346	0.0115	0.2461	1041.8921	0.161411	-423.044326	-423.036882	-423.035938	-423.076054	29.628	
C	-0.0382799905	 1.5340130762	 0.050840877	-0.476309
C	-0.0022428414	 0.0346402724	-0.0168158086	 0.294066
C	-0.0099055953	-0.6568722306	-1.1590325868	-0.152243
C	 0.016742902	-2.1726798869	-1.1258885484	 0.135745
O	 1.3508178213	-2.6531449282	-0.9817675866	-0.260545
C	 1.6275237063	-2.5327189875	 0.4157266802	-0.100472
C	 0.2419979817	-2.2193878889	 1.0523789614	 0.037515
C	 0.0280218824	-0.7199772728	 1.2994358032	-0.301877
O	-0.6544026478	-2.6453538971	 0.0237127425	-0.244068
H	 0.8471748715	 1.9306973926	 0.5638458274	 0.1244
H	-0.0849739826	 1.9817725161	-0.9452743315	 0.124367
H	-0.909145147	 1.8799758329	 0.6228226032	 0.12633
H	-0.0027941769	-0.1638075138	-2.1264103355	 0.087436
H	-0.4223398935	-2.6352260444	-2.0120209586	 0.090196
H	 2.0413654881	-3.4824693929	 0.7682478776	 0.110878
H	 2.3554623863	-1.7346270902	 0.6051305567	 0.100081
H	 0.041475689	-2.8127316931	 1.9465317068	 0.08589
H	 0.8276024782	-0.3283120111	 1.9428569683	 0.105249
H	-0.9115109519	-0.5563974327	 1.8457464018	 0.113359
124.318	166.9048	203.2422	316.5038	340.1274	406.9451	431.9906	501.4456	555.3534	674.4259	760.8047	795.8967	828.539	848.9232	881.316	906.5717	924.6375	950.7385	1008.369	1011.2749	1025.9151	1063.1936	1079.4199	1095.03	1113.8625	1194.7982	1205.7612	1216.3582	1292.3409	1316.2911	1322.7806	1335.1505	1365.5876	1377.5419	1397.1578	1413.7524	1466.0151	1477.6993	1488.1338	1520.5907	1728.0379	3007.7721	3016.4877	3027.5907	3040.5154	3062.0581	3075.9853	3097.137	3104.0743	3113.0842	3172.9858
CC1=CC2OCC(C1)O2	CC1=C[C@H]2OC[C@@H](C1)O2	
InChI=1S/C7H10O2/c1-5-2-6-4-8-7(3-5)9-6/h3,6-7H,2,4H2,1H3	InChI=1S/C7H10O2/c1-5-2-6-4-8-7(3-5)9-6/h3,6-7H,2,4H2,1H3/t6-,7+/m1/s1
