18
gdb 5896	2.96333	1.21454	1.066	0.7471	82.64	-0.2465	0.0397	0.2862	1228.1921	0.149495	-310.616182	-310.605987	-310.605043	-310.652158	35.917	
C	-0.0221622346	 1.4858730278	-0.0115811543	-0.497901
C	 0.0013764535	 0.0300000803	-0.0056627395	 0.005949
C	 0.0287105552	-1.1731825169	 0.0108097137	 0.142143
C	 0.0407897139	-2.6448417557	-0.0003982888	-0.122803
C	-1.4132121113	-3.1779645	 0.108293085	-0.391986
C	 0.6840860278	-3.1498730474	-1.3199694971	-0.391986
C	 0.8249859916	-3.1432552598	 1.1413331747	 0.368136
C	 1.458231618	-3.5838719088	 2.0625415546	-0.502432
H	 0.5465158937	 1.8937228172	 0.8313590131	 0.150789
H	 0.4154017039	 1.8880336677	-0.931982267	 0.147489
H	-1.0460469956	 1.8684507528	 0.0634389837	 0.147489
H	-2.0033842165	-2.8159197745	-0.7380423922	 0.120943
H	-1.4116617277	-4.2715216741	 0.1011837729	 0.121632
H	-1.8802767682	-2.8342179547	 1.0333933393	 0.132405
H	 1.7095050362	-2.7861358742	-1.4112525685	 0.132405
H	 0.6969148504	-4.2432791408	-1.3347593528	 0.121632
H	 0.1061647991	-2.7876642806	-2.1746478593	 0.120943
H	 2.0212107206	-3.9569667483	 2.8818968523	 0.195153
16.9008	86.4691	112.5897	178.3758	200.7501	239.668	276.3196	297.4063	307.1131	349.2808	447.2639	493.1927	533.1155	573.2188	629.4005	634.8777	642.5957	830.6555	938.7898	940.9382	1035.6522	1052.6008	1054.2953	1076.3079	1138.5854	1216.3768	1269.94	1389.8018	1412.4228	1414.4677	1477.8765	1478.6081	1478.9215	1481.9547	1492.1533	1505.4827	2235.4855	2372.2383	3026.6895	3042.7864	3046.357	3087.277	3088.2238	3119.8948	3124.8568	3134.0373	3135.5017	3502.9911
CC#CC(C)(C)C#C	CC#CC(C)(C)C#C	
InChI=1S/C8H10/c1-5-7-8(3,4)6-2/h2H,1,3-4H3	InChI=1S/C8H10/c1-5-7-8(3,4)6-2/h2H,1,3-4H3
