21
gdb 106283	2.8196	1.29446	1.06319	1.2918	79.59	-0.2486	0.0841	0.3327	1226.8683	0.180752	-424.174991	-424.165451	-424.164507	-424.209031	36.01	
C	-0.0693918117	 1.3353249276	 0.0393674338	-0.262304
O	 0.0157955321	-0.0754151824	 0.1108945181	-0.2956
C	 0.6948915862	-0.5500223362	 1.2113195644	 0.395964
C	 2.2048129869	-0.404226962	 1.57520796	-0.340888
C	 1.5865930769	-1.3366693921	 2.6644400884	 0.30044
C	 2.2908124916	-1.9834393452	 3.8242808697	-0.511631
C	 0.37292684	-0.3502491386	 2.7274039462	-0.335907
C	 0.8580518443	-2.0599174789	 1.4969544995	 0.056369
O	-0.2624435882	-2.8263187521	 1.8584080268	-0.451019
H	 0.92522382	 1.7981006705	-0.0273893455	 0.113181
H	-0.6340294965	 1.5766854433	-0.8638339168	 0.127432
H	-0.5923187801	 1.7533217454	 0.9107391276	 0.115197
H	 2.9281059048	-0.8557214838	 0.8893766549	 0.0896
H	 2.5349500454	 0.5760193089	 1.9259521754	 0.092692
H	 2.6935755728	-1.231779537	 4.5114746389	 0.11718
H	 1.6014817334	-2.6213384126	 4.3868916908	 0.132154
H	 3.123582062	-2.6073623244	 3.4818965791	 0.11798
H	 0.5831321051	 0.635452813	 3.1509479262	 0.082189
H	-0.5679242083	-0.766719039	 3.0848967853	 0.108062
H	 1.5100636102	-2.601523944	 0.7966580156	 0.059119
H	-0.8308380568	-2.8995159204	 1.0848045815	 0.289789
72.2106	152.4433	168.2078	182.5198	205.7306	243.1235	269.9778	315.0143	348.7696	429.425	507.6942	537.0618	588.584	651.1074	655.9017	765.4397	809.3681	914.4778	958.8456	969.5088	1014.6785	1026.5347	1056.9732	1069.8681	1123.181	1131.3361	1137.5173	1155.6929	1171.1091	1180.899	1192.6891	1209.4655	1248.3703	1266.611	1330.2904	1354.223	1412.1698	1430.6055	1482.4521	1485.3197	1487.415	1489.7795	1492.8381	1506.0285	1544.3437	2993.7948	3002.4614	3029.7011	3046.5128	3051.8739	3065.6398	3095.2877	3101.8026	3119.7512	3121.5068	3151.0983	3815.5567
COC12CC(C)(C1)C2O	CO[C@@]12C[C@@](C)(C1)[C@H]2O	
InChI=1S/C7H12O2/c1-6-3-7(4-6,9-2)5(6)8/h5,8H,3-4H2,1-2H3	InChI=1S/C7H12O2/c1-6-3-7(4-6,9-2)5(6)8/h5,8H,3-4H2,1-2H3/t5-,6-,7-/m1/s1
