25
gdb 123134	5.4655	0.46651	0.44402	2.1675	87.63	-0.25	0.078	0.3281	2527.5694	0.225796	-426.622359	-426.610319	-426.609375	-426.661145	41.73	
C	 0.0131304216	 1.4944542526	-0.003414121	-0.392476
C	-0.0117561378	-0.0385079401	 0.0200895077	 0.021588
C	 0.745892084	-0.6004183113	 1.229110228	-0.379503
C	-1.4538326996	-0.5439669366	-0.0123873085	-0.038326
O	-1.4522680094	-1.9518054949	-0.1172440335	-0.249271
C	-2.7435149908	-2.5178094186	-0.1126188555	-0.052796
C	-2.6096789271	-4.0295797347	-0.2318135529	-0.183431
C	-3.9561905967	-4.7406595339	-0.230823671	-0.071767
O	-3.709271766	-6.133881025	-0.3424968878	-0.419518
H	 1.0418996406	 1.867575387	-0.0152848741	 0.114192
H	-0.498078869	 1.8942789357	-0.885861558	 0.110261
H	-0.477590428	 1.9104950889	 0.8847759933	 0.112273
H	 0.472840609	-0.4095619963	-0.8929843751	 0.082364
H	 0.3135221326	-0.2282246987	 2.1662574018	 0.104788
H	 0.6950496269	-1.6913841037	 1.2441777484	 0.13051
H	 1.7988698103	-0.3015141585	 1.2074506661	 0.106121
H	-1.9853190184	-0.2286603361	 0.9042777622	 0.07756
H	-1.9944697101	-0.0999906839	-0.8664154535	 0.078404
H	-3.2758961321	-2.2476430889	 0.816694734	 0.082243
H	-3.340971214	-2.1145173154	-0.9496635691	 0.081699
H	-2.0742837874	-4.2746146548	-1.1551469069	 0.115625
H	-2.0042747023	-4.4062052714	 0.5994859669	 0.115493
H	-4.5032319101	-4.506831104	 0.6977153606	 0.084377
H	-4.573141338	-4.3776580645	-1.0697091872	 0.084392
H	-4.5559839482	-6.589443533	-0.3464719252	 0.285197
37.7477	54.2519	77.2114	104.4185	126.8023	158.8688	197.6103	218.5358	245.4923	264.4834	265.0742	340.7968	378.9931	424.6615	512.6952	516.671	779.6099	834.6085	889.4893	923.3388	931.7043	961.3058	976.2904	1004.5128	1045.5082	1059.7458	1096.7157	1155.9657	1164.3705	1175.3938	1194.724	1200.7179	1232.4579	1245.8346	1275.2727	1302.595	1306.2452	1316.8088	1330.4428	1373.0639	1397.0239	1400.4926	1419.2433	1454.8356	1467.2591	1488.8333	1490.3046	1498.4178	1503.7796	1509.9463	1513.9621	1527.8106	1538.0279	2930.4149	2943.1595	2957.186	2961.2928	2965.2709	2980.5371	3019.7964	3024.0147	3030.151	3051.1235	3087.4295	3093.1811	3097.1923	3102.2962	3127.791	3831.0034
CC(C)COCCCO	CC(C)COCCCO	
InChI=1S/C7H16O2/c1-7(2)6-9-5-3-4-8/h7-8H,3-6H2,1-2H3	InChI=1S/C7H16O2/c1-7(2)6-9-5-3-4-8/h7-8H,3-6H2,1-2H3
