19
gdb 13987	5.35358	1.17382	1.08966	1.0419	72.38	-0.2323	0.0722	0.3045	1153.9726	0.165303	-365.001626	-364.993407	-364.992463	-365.034877	29.875	
C	-0.1089105113	 1.4351702589	-0.1244934981	-0.219999
O	-0.0279954146	 0.0342026633	-0.2303940219	-0.236956
C	-1.2288242942	-0.6123202536	 0.1426203203	-0.168253
C	-1.0207185886	-2.0923928451	 0.0482844988	 0.353983
C	-1.2400866976	-2.8568600121	-1.1953152022	-0.270993
N	-2.1924480406	-3.0548857539	-0.0843126387	-0.176159
C	-1.4813212068	-3.9728663633	 0.8799095247	-0.14885
C	-0.3258524262	-2.9618642072	 1.0964729501	-0.30488
H	 0.8588184496	 1.8428882452	-0.4266697695	 0.126912
H	-0.8904346632	 1.8509444393	-0.7805480503	 0.103868
H	-0.3240666987	 1.7568603803	 0.9071964311	 0.103076
H	-1.5119289914	-0.3296500867	 1.1717333686	 0.084427
H	-2.0617976673	-0.3153876922	-0.5164179179	 0.095043
H	-1.6752345169	-2.3301740225	-2.03902815	 0.119339
H	-0.5668246711	-3.6688482262	-1.4642425394	 0.107611
H	-2.1002115985	-4.1380810552	 1.7637744916	 0.111175
H	-1.222225313	-4.9423220744	 0.4414827878	 0.104266
H	 0.6944949064	-3.2810015278	 0.8680571068	 0.10647
H	-0.3381582561	-2.5158753366	 2.0933930981	 0.10992
56.6662	94.063	129.7151	225.3938	258.3351	337.5146	351.0251	409.6871	482.7737	712.6704	755.1272	777.6599	824.1104	894.7812	937.121	961.2616	982.5633	991.7451	1024.0233	1093.2129	1100.9673	1126.3898	1154.8695	1181.377	1193.2206	1218.9402	1223.7854	1228.8857	1250.3505	1288.1581	1339.7548	1376.3605	1432.006	1480.8103	1484.7868	1487.792	1494.257	1503.246	1516.1107	1525.4248	2947.3141	2968.7191	2983.836	3010.3222	3046.7618	3062.2396	3099.8027	3103.0405	3113.7478	3121.6324	3195.0664
COCC12CN1CC2	COC[C@]12CN1CC2	
InChI=1S/C6H11NO/c1-8-5-6-2-3-7(6)4-6/h2-5H2,1H3	InChI=1S/C6H11NO/c1-8-5-6-2-3-7(6)4-6/h2-5H2,1H3/t6-,7?/m0/s1
