20
gdb 63920	2.9669	1.53893	1.5155	2.8884	76.66	-0.2324	0.0733	0.3057	994.473	0.172117	-403.118132	-403.110355	-403.109411	-403.149752	31.91	
C	-0.2149897419	 1.5865825746	-0.0004925476	-0.445285
C	 0.0089774559	 0.0721497725	-0.0366412905	 0.389687
O	-1.2431060542	-0.596529936	 0.1403673596	-0.478695
C	 0.7601445747	-0.444454013	-1.3014501938	-0.282464
C	 2.1205316964	-0.8903662654	-0.7730125067	 0.010519
C	 2.9508663258	 0.2764353853	-0.1829579683	-0.255203
C	 2.3471251031	-0.1134083365	 1.1574410853	-0.049768
C	 0.9000016748	-0.4418565874	 1.0882020211	-0.042564
N	 1.8727959652	-1.4559668709	 0.6322820588	-0.154906
H	 0.7215200536	 2.1410467747	-0.1024614438	 0.123442
H	-0.8755716505	 1.8973417978	-0.8195185516	 0.104773
H	-0.6878265713	 1.8744764575	 0.9430971059	 0.125919
H	-1.8462859257	-0.2750281777	-0.5381319743	 0.273593
H	 0.2068571184	-1.3029334115	-1.6932952832	 0.112211
H	 0.8473170705	 0.3074639751	-2.0926874495	 0.094233
H	 2.651307477	-1.589906545	-1.4178566623	 0.079973
H	 4.0206479909	 0.0560424408	-0.2017387361	 0.112244
H	 2.7925829949	 1.2872616952	-0.5736604101	 0.09376
H	 2.8517548397	-0.0307440014	 2.1158455593	 0.090282
H	 0.4009172328	-0.6812229086	 2.0217873077	 0.098249
139.1678	219.4091	244.5228	260.3991	351.0029	352.571	394.6612	419.232	522.1941	594.1297	639.6064	759.6416	797.2797	806.4186	829.4765	856.6348	865.9639	935.4727	950.6411	965.2993	998.3466	1018.7106	1043.6033	1061.1872	1084.1382	1106.8191	1137.8836	1150.7413	1171.7283	1209.84	1222.0418	1263.0013	1272.0188	1294.3847	1309.0103	1357.8508	1383.0132	1403.641	1418.7668	1477.7519	1490.4509	1493.2509	1503.5435	3026.4326	3040.0771	3046.6188	3095.1521	3098.3921	3100.9719	3118.504	3122.7507	3147.513	3170.9457	3807.7852
CC1(O)CC2CC3C1N23	C[C@@]1(O)C[C@H]2C[C@H]3[C@@H]1N23	
InChI=1S/C7H11NO/c1-7(9)3-4-2-5-6(7)8(4)5/h4-6,9H,2-3H2,1H3	InChI=1S/C7H11NO/c1-7(9)3-4-2-5-6(7)8(4)5/h4-6,9H,2-3H2,1H3/t4-,5+,6+,7-,8?/m1/s1
