18
gdb 100745	3.19788	0.96436	0.84915	5.4441	64.58	-0.2516	0.0134	0.2649	1357.6553	0.14703	-513.380745	-513.371005	-513.370061	-513.415888	35.075	
N	-0.0794709189	 0.8392046044	-0.0925593989	-0.537643
H	-0.057231978	-0.1734387543	 0.0055912626	 0.252068
H	 1.4456184928	 1.453114317	 0.4303252342	 0.325336
H	-0.6236469623	 1.0559418234	-0.9217449815	 0.256786
C	-0.7515823259	 1.4146851613	 1.0868675828	 0.003222
C	-2.2204242322	 1.0045039792	 1.1954354318	-0.091021
O	-2.8446392341	 1.4219918198	-0.0117097939	-0.429212
C	 0.0420410053	 1.0569252862	 2.3425962109	-0.004639
O	-0.0343713714	-0.3591215766	 2.509622791	-0.449145
C	 1.5387119052	 1.4552693537	 2.3268561089	 0.387267
O	 2.1496881122	 1.4839954963	 3.3676528327	-0.353982
O	 2.1026048344	 1.6917842712	 1.1470465733	-0.371954
H	-0.7194558419	 2.5052030086	 0.9710537171	 0.109625
H	-2.2883874171	-0.0826804571	 1.3348269539	 0.111717
H	-2.6763846981	 1.4889144257	 2.0727335068	 0.095697
H	-3.7377617762	 1.0675497715	-0.0342277108	 0.294998
H	-0.3990410869	 1.5717730509	 3.2072079676	 0.098241
H	 0.5629893332	-0.5869715313	 3.2322223216	 0.30264
43.9424	106.8649	124.1859	173.7147	241.6702	254.0532	278.3875	340.7339	349.2573	381.2009	429.51	441.158	510.4885	648.6725	709.6343	783.5463	862.1249	898.3434	956.5282	962.6361	1033.1533	1051.9598	1080.2226	1084.2946	1160.4859	1170.9021	1220.7169	1243.8923	1294.1903	1311.4913	1326.1482	1361.741	1412.3717	1437.6389	1451.2256	1519.7482	1523.0862	1642.8828	1839.1235	2983.8971	3014.0405	3031.5643	3051.1058	3094.0498	3489.9606	3576.7306	3794.3845	3841.1172
[NH3+]C(CO)C(O)C([O-])=O	N[C@@H](CO)[C@@H](O)C(=O)O	
InChI=1S/C4H9NO4/c5-2(1-6)3(7)4(8)9/h2-3,6-7H,1,5H2,(H,8,9)	InChI=1S/C4H9NO4/c5-2(1-6)3(7)4(8)9/h2-3,6-7H,1,5H2,(H,8,9)/t2-,3+/m0/s1
