17
gdb 119520	4.31697	0.94241	0.88375	1.9999	67.62	-0.2499	0.0414	0.2912	1318.1408	0.133403	-458.854145	-458.845778	-458.844834	-458.887815	31.086	
O	-0.0644815874	 1.4324496017	-0.1297648059	-0.419463
C	-0.0138438522	 0.0156976371	-0.1609346891	-0.071501
C	-1.4240223065	-0.4956648203	 0.1322824532	-0.322245
C	-1.4819999139	-1.9854015871	 0.2004710911	 0.413177
O	-1.3750928427	-2.7631823658	-0.9961101508	-0.260885
C	-2.4978900299	-2.9826259652	-0.1420810852	-0.119526
C	-2.0257778397	-3.8941501695	 1.0614086731	-0.010754
O	-0.6429394765	-4.1893736087	 0.8804461878	-0.209577
C	-0.999235065	-2.9127156984	 1.4045242107	-0.067071
H	 0.8036610382	 1.7701324343	-0.3681087101	 0.288524
H	 0.3115184284	-0.3598429389	-1.1421116911	 0.110475
H	 0.6894855637	-0.3777764771	 0.591071412	 0.090223
H	-1.7611301569	-0.0692970255	 1.0850382446	 0.11513
H	-2.1053458073	-0.1365575941	-0.6455243851	 0.123113
H	-3.4940681291	-2.8854557953	-0.5565916509	 0.113001
H	-2.6255038562	-4.5557942659	 1.6733824788	 0.11455
H	-0.5859936471	-2.6058034113	 2.357781617	 0.112829
69.2839	91.0358	110.2306	259.9106	289.3575	312.5126	344.1613	427.1477	490.9373	655.18	703.2432	761.4956	770.3531	815.9829	827.8908	856.9155	883.3969	938.666	983.5286	994.1781	1018.3042	1023.4144	1057.9941	1085.9746	1154.7059	1193.8061	1214.8916	1230.4066	1252.6085	1263.0502	1314.9345	1325.3806	1367.2783	1458.8938	1467.9836	1483.9817	1527.5875	2968.9045	3011.964	3039.3253	3091.4115	3187.2182	3192.5528	3206.9003	3832.4063
OCCC12OC1C1OC21	OCC[C@]12O[C@H]1[C@H]1O[C@@H]21	
InChI=1S/C6H8O3/c7-2-1-6-4-3(8-4)5(6)9-6/h3-5,7H,1-2H2	InChI=1S/C6H8O3/c7-2-1-6-4-3(8-4)5(6)9-6/h3-5,7H,1-2H2/t3-,4+,5-,6+/m0/s1
