18
gdb 55215	3.55814	1.02246	0.88768	2.4351	73.13	-0.226	-0.027	0.199	1316.7228	0.146595	-439.125202	-439.116193	-439.115249	-439.159908	32.38	
C	 0.0033807507	 1.5063457082	-0.0034795358	-0.482024
C	-0.0092678188	-0.0055387856	 0.0293202375	 0.38329
O	-0.0319388246	-0.6364220434	 1.0624737305	-0.308214
C	 0.0305339566	-0.7257568246	-1.3157097335	-0.069496
C	 1.4899085153	-0.862913339	-1.8260943192	-0.349862
C	 1.4839428067	-2.2142681291	-2.5534297849	 0.385756
O	 2.3248400385	-2.6186995393	-3.3096633646	-0.297224
C	 0.1956101026	-2.9427307537	-2.1429669758	-0.274137
N	-0.5016998885	-2.0865619268	-1.1889626693	-0.31054
H	 0.7534440246	 1.8814112899	-0.7075283966	 0.142199
H	-0.9711805161	 1.8651089176	-0.3561820491	 0.153585
H	 0.1905084532	 1.9023414871	 0.9951247966	 0.148848
H	-0.5555455516	-0.1536255257	-2.0479713449	 0.090237
H	 1.8398371973	-0.0635421209	-2.4820467608	 0.13452
H	 2.1910365768	-0.9449668533	-0.985376697	 0.143361
H	-0.4010771137	-3.1099382072	-3.0516089797	 0.133821
H	 0.4259753397	-3.9298925989	-1.7312684065	 0.137895
H	-0.3435770887	-2.3822827155	-0.2302059169	 0.237986
58.2267	75.0674	121.0651	127.7732	179.9838	298.0632	347.6599	457.7473	460.3778	556.24	601.3999	605.539	642.4574	767.9378	769.7651	824.0723	888.4754	946.3395	953.8601	1005.5772	1025.8831	1080.1738	1115.4932	1152.6765	1176.1896	1200.578	1235.1436	1246.9712	1308.0717	1330.9013	1346.9969	1386.229	1444.7876	1460.1337	1467.8798	1473.7553	1480.1162	1806.296	1855.7498	3004.8854	3009.078	3036.9475	3037.6733	3086.4273	3098.4288	3119.2524	3155.0442	3518.5488
CC(=O)C1CC(=O)CN1	CC(=O)[C@H]1CC(=O)CN1	
InChI=1S/C6H9NO2/c1-4(8)6-2-5(9)3-7-6/h6-7H,2-3H2,1H3	InChI=1S/C6H9NO2/c1-4(8)6-2-5(9)3-7-6/h6-7H,2-3H2,1H3/t6-/m1/s1
