19
gdb 69810	3.17971	1.59215	1.26217	2.6327	80.87	-0.2276	0.0105	0.2381	1040.5869	0.161648	-382.028554	-382.021072	-382.020128	-382.060003	30.638	
C	-0.0235877749	 1.5192199597	-0.0028446514	-0.482907
C	 0.0029875675	 0.0048410219	 0.0052474332	 0.290518
N	-0.7913080543	-0.7063409287	 1.0434003045	-0.3456
C	 0.6762740179	-0.7256581297	 1.1252132227	-0.090772
C	 1.4000231285	-2.0144635753	 0.8457351684	-0.039095
N	 0.6101250708	-3.2070826617	 0.5180296547	-0.316386
C	 1.4036161554	-2.5442605784	-0.5514969451	-0.099428
C	 0.6631934838	-1.790506802	-1.5878127717	-0.042642
C	 0.0279927794	-0.6427314784	-1.3332170235	-0.094122
H	 0.8254897258	 1.9298357741	-0.5597865967	 0.126673
H	-0.9406282666	 1.8899803655	-0.4764502236	 0.124037
H	 0.0156273221	 1.9205849111	 1.0152512651	 0.11123
H	-1.1504499151	-0.0221118073	 1.7071871697	 0.222174
H	 1.1472629661	-0.1069029028	 1.8861285234	 0.073489
H	 2.3104637356	-2.151300833	 1.4242781603	 0.077249
H	 1.1117548093	-4.0342087812	 0.8344190826	 0.227903
H	 2.2921732942	-3.0694903119	-0.8948236806	 0.082314
H	 0.6597293523	-2.1979972999	-2.595295614	 0.090039
H	-0.4880782976	-0.121343002	-2.136328598	 0.085327
161.4459	178.5117	222.071	309.7418	347.1563	389.111	476.7708	495.8621	558.3949	646.4206	694.3961	716.1318	791.6504	820.1348	841.7585	871.0276	900.591	927.7344	952.2568	972.8665	985.5027	1010.4439	1041.8898	1061.1269	1109.2189	1126.4375	1152.917	1177.4738	1202.7074	1224.1356	1253.6345	1288.5019	1331.4379	1398.523	1415.8435	1437.0382	1447.1541	1458.2551	1485.6967	1502.937	1704.3036	3022.8136	3086.1794	3098.7043	3118.0374	3125.177	3138.8292	3143.5507	3168.3504	3476.1067	3488.0925
CC12NC1C1NC1C=C2	C[C@]12N[C@H]1[C@H]1N[C@H]1C=C2	
InChI=1S/C7H10N2/c1-7-3-2-4-5(8-4)6(7)9-7/h2-6,8-9H,1H3	InChI=1S/C7H10N2/c1-7-3-2-4-5(8-4)6(7)9-7/h2-6,8-9H,1H3/t4-,5-,6-,7+/m0/s1
