19
gdb 94456	2.85039	1.39955	1.21302	2.2422	77.43	-0.2357	0.0147	0.2504	1102.376	0.159463	-423.016241	-423.007834	-423.00689	-423.049845	31.7	
O	-0.0738272589	 1.2062818237	-0.5590665038	-0.422568
C	 0.0174504131	-0.0858902227	-0.0135914245	-0.003551
C	 0.1429425938	-0.2365976203	 1.5148435362	-0.109202
O	-1.028326434	-1.072465068	 1.5582785253	-0.328735
C	-1.352954271	-0.8082714874	 0.1592190754	 0.42253
C	-2.6384617647	 0.0287609852	-0.0264015343	-0.291554
C	-3.4008954931	-0.6089987094	-1.2143505301	-0.264911
C	-2.7028680065	-1.932384127	-1.4055637919	-0.065824
C	-1.6054092565	-2.0400665483	-0.6588317069	-0.141021
H	 0.8124707079	 1.519384671	-0.7618557189	 0.290189
H	 0.7374296879	-0.702396875	-0.566294568	 0.075064
H	 1.0322435941	-0.7488017943	 1.9010236942	 0.095316
H	 0.0021758423	 0.7118397561	 2.0507583302	 0.09747
H	-3.212007764	-0.0705648396	 0.8996167203	 0.117105
H	-2.4205093709	 1.086356455	-0.1782043029	 0.122692
H	-4.4730946929	-0.7272428601	-1.0185016673	 0.105509
H	-3.3222622305	 0.0040612062	-2.1216599854	 0.113184
H	-3.0614403272	-2.6857111026	-2.0994378587	 0.09615
H	-0.927016009	-2.8856016126	-0.6320771889	 0.092158
58.195	71.1152	191.494	203.933	253.7257	360.9101	366.328	467.0379	486.1122	535.0179	715.0281	731.2665	777.6702	804.3522	844.6354	899.8528	928.542	940.8585	978.2637	992.2988	1019.1401	1058.392	1078.5383	1094.8271	1114.6701	1155.0119	1161.2327	1179.6351	1197.8562	1246.9667	1265.6806	1285.3179	1305.2316	1324.3112	1330.736	1388.6418	1437.9279	1475.3265	1494.174	1515.082	1682.6538	3005.7586	3018.22	3023.0614	3050.7511	3059.8841	3072.1725	3133.4842	3178.5974	3205.2467	3831.029
OC1COC11CCC=C1	O[C@H]1CO[C@]21CCC=C2	
InChI=1S/C7H10O2/c8-6-5-9-7(6)3-1-2-4-7/h1,3,6,8H,2,4-5H2	InChI=1S/C7H10O2/c8-6-5-9-7(6)3-1-2-4-7/h1,3,6,8H,2,4-5H2/t6-,7-/m0/s1
