14
gdb 98720	2.38963	1.39752	1.06568	1.7231	63.2	-0.2913	-0.0355	0.2558	1125.2017	0.098836	-473.828935	-473.820018	-473.819074	-473.863769	29.948	
C	 0.505698605	 1.4694691969	-0.0675568587	-0.242954
O	 1.0927715808	 0.1797577807	-0.3110023113	-0.216474
C	 0.3869666224	-0.6350319989	-1.0939733266	 0.434428
O	-0.6595044936	-0.3714851021	-1.6294590011	-0.359228
C	 1.0363445749	-1.986684544	-1.2440921348	-0.051934
O	 2.4193873301	-2.1355276663	-0.958925341	-0.206505
C	 1.5099220944	-2.7792984879	-0.079125198	-0.103188
C	 1.425085576	-2.2899173398	 1.2808387727	 0.326913
N	 1.3464494945	-1.96361699	 2.3861955153	-0.324849
H	 0.3790601977	 2.0106576471	-1.0078869862	 0.147978
H	-0.4672103487	 1.3575568553	 0.4159345945	 0.151767
H	 1.2037167756	 1.9885212937	 0.5873172044	 0.149428
H	 0.6630230455	-2.5379728228	-2.104240083	 0.141132
H	 1.4727082554	-3.8645356219	-0.1598076063	 0.153485
51.3286	84.6588	101.0262	154.759	187.2857	238.334	307.532	318.5146	459.7543	540.158	568.7724	687.2001	774.8737	823.0549	865.9209	914.3103	985.8429	1040.1605	1090.3462	1130.0984	1178.6477	1210.6607	1257.5468	1316.5848	1367.043	1428.4465	1475.7195	1482.4139	1493.5097	1823.7319	2366.3249	3059.7642	3131.7953	3138.4812	3154.2917	3175.2451
COC(=O)C1OC1C#N	COC(=O)[C@H]1O[C@H]1C#N	
InChI=1S/C5H5NO3/c1-8-5(7)4-3(2-6)9-4/h3-4H,1H3	InChI=1S/C5H5NO3/c1-8-5(7)4-3(2-6)9-4/h3-4H,1H3/t3-,4-/m0/s1
