15
gdb 50258	2.96594	1.39855	1.09726	4.7864	68.	-0.2446	-0.0033	0.2413	1070.3098	0.113698	-453.960298	-453.952764	-453.95182	-453.99308	27.579	
O	 0.0032682045	 0.0918067495	-0.2771968219	-0.316727
C	 0.0472535155	 1.2869691337	-0.0832990531	 0.1329
N	 1.1920941727	 1.9664293875	 0.196243576	-0.037356
C	 2.5820641002	 1.5115787826	 0.0764447764	-0.192422
C	 3.0142929842	 3.0055121924	-0.0058885604	-0.001658
N	 2.9638582446	 3.6067815661	-1.33516242	-0.322682
C	 1.6187314535	 3.9369378452	-1.3036141675	 0.432595
O	 0.8693688888	 4.3953178161	-2.1175984579	-0.342597
C	 1.5094053908	 3.3990654894	 0.1567982847	-0.191032
H	-0.8399442793	 1.9501967049	-0.0873749826	 0.088551
H	 2.9350593245	 0.9870736016	 0.9697063943	 0.131521
H	 2.7837931663	 0.9022540921	-0.8090979495	 0.133157
H	 3.8110421816	 3.3584807025	 0.6454856715	 0.110087
H	 3.5631414751	 3.4554240567	-2.1354932509	 0.257595
H	 1.0885326571	 4.0274315197	 0.9409918909	 0.118067
54.3766	122.5803	200.5467	250.9965	323.4832	397.5303	463.7397	487.2889	546.5268	688.7103	776.1315	792.4192	846.5967	868.7072	917.9537	981.8755	1005.0215	1032.0237	1068.6478	1123.8702	1150.7285	1157.0404	1183.4357	1224.0041	1255.9582	1309.2362	1333.2658	1364.9871	1389.0186	1433.9833	1504.3186	1793.0731	1901.9536	2947.1798	3050.9087	3103.8733	3124.949	3141.0243	3589.4694
O=CN1CC2NC(=O)C12	O=CN1C[C@H]2NC(=O)[C@@H]12	
InChI=1S/C5H6N2O2/c8-2-7-1-3-4(7)5(9)6-3/h2-4H,1H2,(H,6,9)	InChI=1S/C5H6N2O2/c8-2-7-1-3-4(7)5(9)6-3/h2-4H,1H2,(H,6,9)/t3-,4+/m1/s1
