19
gdb 116753	4.68728	0.6709	0.61487	2.0444	78.68	-0.237	0.0124	0.2494	1838.1413	0.15688	-456.363857	-456.352841	-456.351897	-456.402473	36.106	
C	 0.0049251376	 1.4966288854	-0.4526393951	-0.332409
N	-0.1443404217	 0.0567551353	-0.5398012359	-0.307026
C	 0.8855971033	-0.7700603107	-0.8655242432	 0.424284
O	 2.0166466444	-0.38210806	-1.0979912655	-0.374238
C	 0.5378888555	-2.27054074	-0.8802051305	-0.287157
N	 0.9834236172	-2.8970700222	-2.1063934074	-0.22193
C	 2.2186919478	-3.1403157649	-2.1908813236	 0.155735
O	 2.7257235512	-3.6649356396	-3.3200546918	-0.191025
C	 4.1316574913	-3.885387438	-3.313027552	-0.251576
H	 1.0611149352	 1.7222327349	-0.6031447592	 0.171609
H	-0.5810690835	 2.0080370675	-1.2246875667	 0.128858
H	-0.3079905615	 1.8681659638	 0.5291166872	 0.125252
H	-1.0610792582	-0.3422251459	-0.4274606574	 0.248693
H	 1.0161302198	-2.6933566093	 0.018391037	 0.116956
H	-0.5405107271	-2.4272762084	-0.7740327033	 0.097702
H	 2.9549176321	-2.9588237794	-1.3971399617	 0.090701
H	 4.4240096014	-4.592995704	-2.5275462679	 0.124666
H	 4.3804270788	-4.3104655957	-4.2860758805	 0.143869
H	 4.6814416566	-2.9466830588	-3.1781609725	 0.137035
31.4089	37.0196	63.2778	86.8622	132.1955	150.2407	187.9178	213.2779	277.2094	352.3082	387.6406	450.5882	467.0848	581.9874	623.8306	766.2688	893.691	980.8811	983.6559	1032.7025	1084.5861	1094.1431	1153.5909	1171.0461	1177.0484	1183.9918	1219.2352	1260.0417	1297.2688	1364.4677	1416.5662	1438.9935	1484.8846	1486.7135	1492.966	1494.0633	1500.5203	1501.0201	1561.6241	1759.2582	1783.9699	2973.8034	3014.4302	3028.9216	3040.1092	3062.3057	3081.5502	3081.8119	3144.7047	3155.3708	3653.4429
CNC(=O)CN=COC	CNC(=O)CN=COC	
InChI=1S/C5H10N2O2/c1-6-5(8)3-7-4-9-2/h4H,3H2,1-2H3,(H,6,8)	InChI=1S/C5H10N2O2/c1-6-5(8)3-7-4-9-2/h4H,3H2,1-2H3,(H,6,8)
