19
gdb 56893	2.78762	1.16109	0.98894	2.5822	75.42	-0.26	0.0277	0.2877	1272.6147	0.159188	-419.20288	-419.193459	-419.192515	-419.237564	34.227	
C	-0.4642758283	 1.2752454589	 0.1679992144	-0.404213
C	 0.2770578499	-0.0403342595	 0.0672291794	 0.176154
C	 0.8941832806	-0.4339309601	-1.2961951058	-0.341904
C	 2.2375432748	-0.4057507804	-0.5442771821	 0.157877
O	 1.6035030873	 0.0260411604	 0.6743802938	-0.318665
C	 2.9946363976	-1.725353617	-0.330199849	-0.138073
N	 4.0350774771	-1.4883041903	 0.6672709233	-0.50328
C	 2.0678590776	-2.8220597176	 0.0320659326	 0.270351
N	 1.3671253406	-3.6915125048	 0.3330445824	-0.34179
H	 0.103291646	 2.0834856564	-0.3037736243	 0.119946
H	-1.439949564	 1.1986922136	-0.3243385008	 0.121325
H	-0.6316471609	 1.53900635	 1.2168745583	 0.131712
H	-0.3029276288	-0.8472867586	 0.5297210185	 0.102019
H	 0.5878721903	-1.4024688029	-1.6937126792	 0.128783
H	 0.7983647378	 0.3270274064	-2.0725471931	 0.112911
H	 2.9748390566	 0.3276741942	-0.8906166142	 0.098976
H	 3.4716974896	-2.0008041044	-1.2797123652	 0.128198
H	 3.58909205	-1.1555027128	 1.5185569228	 0.255414
H	 4.5158081862	-2.3522688915	 0.8962775383	 0.244259
55.5454	84.167	142.2722	165.6046	229.8557	247.3912	306.5097	337.3081	346.674	436.5556	455.6977	596.7585	669.2955	713.8972	793.3365	857.2993	889.5857	901.955	913.5861	961.6609	999.0054	1038.7982	1086.3735	1101.5434	1126.2408	1146.1459	1183.9845	1206.3126	1261.0238	1282.7189	1319.6885	1334.4802	1370.1714	1382.0605	1393.257	1409.8601	1481.4239	1488.3375	1494.3835	1655.2487	2342.4027	3032.5765	3033.9241	3039.927	3044.7533	3081.4159	3107.3495	3113.7323	3138.5617	3495.3657	3579.5075
CC1CC(O1)C(N)C#N	C[C@H]1C[C@@H](O1)[C@@H](N)C#N	
InChI=1S/C6H10N2O/c1-4-2-6(9-4)5(8)3-7/h4-6H,2,8H2,1H3	InChI=1S/C6H10N2O/c1-4-2-6(9-4)5(8)3-7/h4-6H,2,8H2,1H3/t4-,5-,6+/m0/s1
