18
gdb 13379	6.36613	1.03498	0.91056	2.2094	71.54	-0.2261	0.0244	0.2504	1269.1213	0.15287	-384.926466	-384.917925	-384.916981	-384.960465	29.337	
C	 0.0335370416	 1.4030799213	-0.0101258142	-0.224956
O	 0.0067967633	-0.0039137527	 0.0196586345	-0.227269
C	 0.6157693517	-0.5854006191	-1.1072690559	-0.161371
C	 0.5553250634	-2.072539119	-1.0142070688	 0.270727
C	 0.0286357347	-2.8231113726	-0.0525098005	-0.192076
C	 0.2003898506	-4.2759515356	-0.3873468582	-0.105151
O	 0.8812879126	-4.2966091568	-1.641335335	-0.266104
C	 1.1291379132	-2.9679757745	-2.0834154037	-0.148622
H	 1.063897766	 1.7922983608	-0.0320203081	 0.105833
H	-0.5026799955	 1.8040242304	-0.8849573288	 0.105826
H	-0.4585242034	 1.7575760676	 0.8984826526	 0.130161
H	 0.1192484762	-0.245799144	-2.0364305168	 0.096155
H	 1.6689996696	-0.2560850955	-1.1936274276	 0.096176
H	-0.4551517621	-2.4608083808	 0.8436537151	 0.114363
H	 0.7944630939	-4.8163644801	 0.3671287522	 0.10349
H	-0.7617354569	-4.8054615124	-0.4778317958	 0.103453
H	 0.6552719988	-2.8034032638	-3.0657368155	 0.099665
H	 2.2123759422	-2.8133662833	-2.2220660755	 0.0997
71.2987	75.0063	107.4566	138.7907	216.2943	235.9646	349.8354	382.2733	439.1293	708.5987	777.1866	812.9925	920.4739	932.6213	965.6266	997.1835	1006.8713	1043.0146	1083.4296	1107.6099	1159.9595	1172.7064	1185.6619	1194.3861	1224.7023	1225.7316	1258.6466	1277.8235	1357.3147	1398.4867	1432.9026	1479.0966	1484.3685	1497.2267	1517.6554	1521.1682	1530.4247	1739.1009	2919.565	2929.8495	2957.3668	2969.627	2970.5946	2971.3585	2983.9005	3013.4504	3117.7626	3239.5909
COCC1=CCOC1	COCC1=CCOC1	
InChI=1S/C6H10O2/c1-7-4-6-2-3-8-5-6/h2H,3-5H2,1H3	InChI=1S/C6H10O2/c1-7-4-6-2-3-8-5-6/h2H,3-5H2,1H3
