18
gdb 67015	2.26721	1.72453	1.53192	2.7665	76.11	-0.2288	-0.0033	0.2255	996.8671	0.146501	-401.913476	-401.905081	-401.904137	-401.946161	31.763	
C	 0.1135049847	 1.5571764489	 0.0567039911	-0.530833
C	-0.0148917534	 0.0739918266	-0.0216766686	 0.305459
C	 0.7742145411	-0.9515734602	-0.8122421175	-0.229309
N	 0.7750222641	-0.9388500759	 0.6921578687	-0.175221
C	-0.4890827445	-1.6577646765	 1.0968655448	-0.195023
C	-1.2491398003	-0.9458818737	-0.033713471	 0.105208
C	-2.7268135946	-0.680289897	-0.0542025352	-0.507163
C	-0.5310909289	-1.5180986597	-1.2767666665	 0.416613
O	-0.9287382938	-1.9845148098	-2.3081102916	-0.343559
H	 1.1692689405	 1.8401938663	 0.0980146315	 0.144736
H	-0.3387180282	 2.0355537678	-0.8179229351	 0.137658
H	-0.3797916976	 1.9500198642	 0.9521102734	 0.134122
H	 1.7257633834	-0.8503875107	-1.3159298073	 0.118633
H	-0.4326555127	-2.7523682124	 1.0727739971	 0.110526
H	-0.7622070445	-1.3190939373	 2.0998922066	 0.114645
H	-3.0511072707	-0.1263444421	 0.8327630175	 0.120459
H	-3.0145901269	-0.1106160189	-0.9434187962	 0.133905
H	-3.2793121076	-1.6256820095	-0.0812792815	 0.139142
118.9356	147.7514	178.3002	191.7893	217.6462	280.4761	360.7121	441.1524	490.3062	596.8573	631.2109	654.3393	745.0864	755.1154	763.472	829.5421	907.2787	917.858	966.9999	1008.3393	1027.2423	1061.1463	1102.1032	1135.0774	1148.8482	1167.1835	1205.3163	1222.2708	1272.7592	1359.1692	1390.883	1414.0198	1426.6388	1480.4605	1486.2034	1486.9746	1491.3493	1508.2763	1873.8524	3032.5694	3034.4162	3036.8117	3099.208	3099.8839	3100.8015	3105.2332	3116.6292	3218.1944
CC12C3N1CC2(C)C3=O	C[C@@]12[C@H]3N1C[C@]2(C)C3=O	
InChI=1S/C7H9NO/c1-6-3-8-4(5(6)9)7(6,8)2/h4H,3H2,1-2H3	InChI=1S/C7H9NO/c1-6-3-8-4(5(6)9)7(6,8)2/h4H,3H2,1-2H3/t4-,6+,7-,8?/m0/s1
