14
gdb 5131	3.5594	2.05314	1.31282	1.9829	60.04	-0.1769	0.042	0.2189	874.1001	0.107035	-415.887085	-415.87886	-415.877916	-415.91984	28.684	
C	-0.0602864343	 1.4529284917	-0.0006294167	-0.334479
N	-0.0159710596	 0.006444202	 0.0168786641	-0.040497
C	-0.1231105942	-0.8510192888	-1.0420089209	-0.019349
N	-0.0390807577	-2.111458937	-0.6644468646	-0.35017
C	 0.1286544879	-2.0737225362	 0.6873677896	 0.220778
O	 0.2579277936	-3.1875091569	 1.4611225033	-0.459589
C	 0.1468344276	-0.7808351863	 1.1361616717	 0.257563
O	 0.2821269724	-0.1943019092	 2.355966295	-0.454605
H	 0.8707489697	 1.8763186944	 0.3875818789	 0.148918
H	-0.1985733576	 1.7839802921	-1.0312598361	 0.141617
H	-0.8901426181	 1.8250410528	 0.6073721965	 0.148912
H	-0.2596499934	-0.4950471095	-2.0511582475	 0.125763
H	 0.2045503657	-3.9403908501	 0.8614054744	 0.300178
H	 0.383725888	-0.898755809	 3.0048712523	 0.314959
67.7275	136.9999	164.2102	245.1928	248.7359	275.965	288.6225	347.1227	539.9247	586.8593	635.7451	687.3884	722.6786	750.8459	799.7556	1037.6835	1078.8722	1133.3139	1154.4714	1246.2097	1299.6103	1315.7224	1361.7615	1423.0581	1457.7359	1477.2754	1495.6448	1531.2392	1560.3039	1713.6219	3044.3203	3105.6039	3141.933	3257.4852	3815.8316	3833.4247
CN1C=NC(O)=C1O	Cn1cnc(O)c1O	
InChI=1S/C4H6N2O2/c1-6-2-5-3(7)4(6)8/h2,7-8H,1H3	InChI=1S/C4H6N2O2/c1-6-2-5-3(7)4(6)8/h2,7-8H,1H3
