17
gdb 8301	6.13666	0.98545	0.91975	4.0812	66.62	-0.2487	0.0377	0.2865	1259.8604	0.141377	-401.009842	-401.001371	-401.000426	-401.043713	29.685	
C	-0.0031843648	 1.3689289595	-0.1345334995	-0.228362
O	-0.0311993492	-0.0399662169	-0.1364463458	-0.240813
C	-1.3026107463	-0.5695250169	 0.1664710527	-0.059314
C	-1.1979073711	-2.0810226446	 0.1046635143	 0.04012
C	-2.5375671715	-2.8726235659	 0.0892446621	-0.413945
C	-2.1159915158	-3.333555989	-1.3323356945	 0.430889
O	-2.5860822014	-4.0258061503	-2.1933302697	-0.356878
N	-0.9457652573	-2.6203325596	-1.2353482488	-0.313532
H	 1.0162238387	 1.6758912282	-0.3795513987	 0.131023
H	-0.6925235059	 1.7913645993	-0.8821627686	 0.109054
H	-0.2717534649	 1.7798994572	 0.8511576262	 0.107584
H	-1.6310504882	-0.2563713545	 1.17278475	 0.090867
H	-2.0557963996	-0.2152434042	-0.5579586608	 0.089493
H	-0.4719981918	-2.4293702289	 0.8474214078	 0.09402
H	-2.619600381	-3.6777671397	 0.8205089175	 0.134248
H	-3.4433095527	-2.262571541	 0.1094566215	 0.129391
H	-0.1915444872	-2.4577971728	-1.8854437556	 0.256155
49.244	98.164	103.296	172.6376	235.6121	345.4508	370.4033	392.2886	479.4786	524.45	564.4932	734.4628	838.0343	915.9965	937.4411	985.1589	1027.9576	1064.7888	1081.6026	1145.931	1168.4045	1183.5428	1192.7144	1201.4603	1225.3039	1256.6753	1280.4112	1368.6218	1383.1817	1431.3489	1461.8177	1480.4068	1486.2183	1499.9105	1521.3792	1898.3659	2949.314	2975.4384	2983.4006	3020.2403	3052.1989	3085.1982	3118.157	3145.346	3621.2075
COCC1CC(=O)N1	COC[C@H]1CC(=O)N1	
InChI=1S/C5H9NO2/c1-8-3-4-2-5(7)6-4/h4H,2-3H2,1H3,(H,6,7)	InChI=1S/C5H9NO2/c1-8-3-4-2-5(7)6-4/h4H,2-3H2,1H3,(H,6,7)/t4-/m1/s1
