20
gdb 30091	3.48051	1.11306	1.03371	1.848	86.24	-0.1927	0.0446	0.2373	1254.1547	0.172768	-366.042229	-366.033755	-366.032811	-366.075908	32.703	
C	-0.6551841262	 1.3206490179	 0.3176103486	-0.407838
C	-0.161854708	-0.1003269509	 0.1711020711	 0.016026
C	 1.1715865033	-0.3885122644	-0.4647734249	-0.292148
C	 0.9949211187	-0.6326749674	 1.0151574284	-0.16489
C	 1.6964162803	 0.2123161796	 2.0032651272	 0.32333
C	 2.8500665679	 0.9661795075	 1.9276137911	-0.231533
C	 3.070777176	 1.5632423888	 3.2006525049	-0.140343
C	 2.048547669	 1.1576948995	 4.0248481509	-0.098895
N	 1.2238400948	 0.3415052389	 3.291857519	-0.291872
H	 0.167919367	 1.9995798681	 0.5575177248	 0.132218
H	-1.1239967763	 1.6702389845	-0.6088678136	 0.113793
H	-1.3987526335	 1.4056545623	 1.1186016897	 0.107774
H	-0.9426993791	-0.8298375705	-0.0295369026	 0.079245
H	 1.2727784763	-1.2489615817	-1.1166830715	 0.108033
H	 1.7758798583	 0.4640454747	-0.7561964132	 0.117363
H	 0.8974273817	-1.6784557989	 1.3023830781	 0.0862
H	 3.4753453407	 1.0607474589	 1.0530485374	 0.088008
H	 3.8885407211	 2.2102357418	 3.478718623	 0.089292
H	 1.8382777013	 1.3766442677	 5.0594581995	 0.111133
H	 0.3786840965	-0.0844637663	 3.6304684122	 0.255106
40.1538	102.7391	171.0801	218.6908	260.6301	347.3239	409.5493	480.9405	514.1775	617.4974	629.8807	702.9354	725.877	778.0493	797.4091	845.8904	848.3458	877.3771	896.3866	929.1465	970.8394	1026.4542	1058.4749	1078.823	1080.3238	1111.4087	1130.6168	1141.8213	1144.9474	1197.6968	1209.5436	1248.3165	1280.9514	1380.6216	1402.4428	1424.2007	1443.6843	1448.6865	1488.1232	1494.9913	1500.5474	1503.9558	1617.6342	3027.3986	3084.2507	3104.836	3109.6518	3133.6637	3137.8385	3218.2439	3240.7255	3253.1064	3269.5389	3677.7353
CC1CC1C1=CC=CN1	C[C@H]1C[C@H]1c1ccc[nH]1	
InChI=1S/C8H11N/c1-6-5-7(6)8-3-2-4-9-8/h2-4,6-7,9H,5H2,1H3	InChI=1S/C8H11N/c1-6-5-7(6)8-3-2-4-9-8/h2-4,6-7,9H,5H2,1H3/t6-,7+/m0/s1
