21
gdb 100893	2.27666	1.1514	0.80963	3.6168	80.43	-0.2496	0.0349	0.2845	1464.8939	0.180229	-420.400313	-420.389186	-420.388242	-420.437296	38.459	
C	-0.1685635923	 1.51074604	 0.1170640094	-0.329176
N	 0.1371777228	 0.089197002	-0.0382094785	-0.279726
C	 0.7543159157	-0.5252464752	 1.1289907093	-0.126994
C	-0.1549958139	-0.5546676509	 2.300807925	 0.279501
N	-0.9384600258	-0.5336803451	 3.1509819236	-0.338635
C	 1.2585790844	-1.9533705343	 0.8173664942	 0.117777
C	 2.2643517283	-1.9614993185	-0.3316743334	-0.402069
O	 1.8227619878	-2.41955646	 2.0282240657	-0.242145
C	 1.8751933392	-3.8231225659	 2.1610592261	-0.238703
H	 0.7650375757	 2.0683709864	 0.2467567223	 0.129416
H	-0.6490413988	 1.8709321882	-0.7962178384	 0.127538
H	-0.8250907513	 1.7375917888	 0.9712152043	 0.128196
H	-0.711763774	-0.4170642046	-0.2714117796	 0.229872
H	 1.629544477	 0.0747378809	 1.4076883678	 0.133082
H	 0.384349185	-2.5727521716	 0.5527504955	 0.073821
H	 1.8230051943	-1.5199569068	-1.2270164931	 0.137294
H	 3.1509934376	-1.3817679012	-0.0556284953	 0.123852
H	 2.5802202891	-2.9823917407	-0.5628592409	 0.117944
H	 2.26142484	-4.0330493557	 3.1608842264	 0.136283
H	 0.8763713301	-4.2743945833	 2.064875808	 0.113546
H	 2.5423503891	-4.2900668126	 1.4225400615	 0.109327
55.0107	56.5547	97.1359	136.2412	172.3506	190.9183	197.719	223.4703	273.5244	313.2683	338.58	368.0789	440.216	480.4563	576.7486	613.7768	769.1436	863.2466	885.1699	966.7494	1000.0827	1068.7976	1097.7193	1121.4871	1155.3306	1161.5582	1166.7158	1182.3922	1201.5443	1237.621	1291.2849	1335.8918	1370.5007	1382.0546	1399.6957	1459.7445	1479.0708	1485.2913	1488.4892	1493.075	1495.591	1498.6523	1509.5138	1520.7918	2344.1803	2957.7901	2985.8067	2988.7225	3036.0146	3045.4756	3048.4488	3072.2342	3116.0694	3116.9677	3121.9993	3142.2235	3514.048
CNC(C#N)C(C)OC	CN[C@@H](C#N)[C@@H](C)OC	
InChI=1S/C6H12N2O/c1-5(9-3)6(4-7)8-2/h5-6,8H,1-3H3	InChI=1S/C6H12N2O/c1-5(9-3)6(4-7)8-2/h5-6,8H,1-3H3/t5-,6+/m1/s1
