17
gdb 5636	3.30133	1.9245	1.33936	1.2249	70.53	-0.1784	0.0616	0.24	936.6269	0.142668	-363.897404	-363.889302	-363.888357	-363.930159	29.998	
C	 0.009166806	 1.5555905392	 0.0395195105	-0.373943
C	-0.021388247	 0.0254285147	-0.0027011806	-0.152883
N	-1.3686009295	-0.5206868711	 0.0186074062	-0.028399
C	-2.0623547974	-0.9569760874	 1.1368632549	-0.11773
C	-3.3177583407	-1.3368071701	 0.7415975631	-0.148722
C	-3.4154316985	-1.1232124644	-0.6680726196	-0.303449
C	-2.1985611989	-0.6198915419	-1.0627760067	 0.360919
O	-1.7035273736	-0.2221722915	-2.2678981134	-0.446199
H	 1.0434961185	 1.914208292	 0.0423743418	 0.114612
H	-0.4967792645	 1.9725662787	-0.8352234881	 0.138233
H	-0.4892809211	 1.9298938159	 0.9384627177	 0.12611
H	 0.4789740378	-0.3354443513	-0.9060034081	 0.129062
H	 0.5118352025	-0.3941825297	 0.8554782701	 0.114538
H	-1.5830505481	-0.9614291041	 2.1022877034	 0.108355
H	-4.0896657126	-1.7337754178	 1.382738686	 0.090197
H	-4.2638931314	-1.3180118548	-1.3059011784	 0.082595
H	-2.3695939114	-0.4018661565	-2.9376684088	 0.306702
50.6153	112.242	216.5819	222.3147	277.0294	305.3484	397.1697	460.9268	612.485	631.8679	647.7825	690.2211	713.6886	726.6661	793.593	806.29	904.2497	966.3592	1033.1557	1073.721	1105.569	1122.7567	1149.3689	1244.557	1265.7064	1313.2266	1340.8414	1391.8999	1409.3029	1414.363	1480.9846	1491.5536	1506.9946	1528.898	1557.9986	1606.5556	3041.7866	3056.5186	3096.3583	3114.7274	3129.9481	3238.5235	3250.9687	3270.7991	3851.2985
CCN1C=CC=C1O	CCn1cccc1O	
InChI=1S/C6H9NO/c1-2-7-5-3-4-6(7)8/h3-5,8H,2H2,1H3	InChI=1S/C6H9NO/c1-2-7-5-3-4-6(7)8/h3-5,8H,2H2,1H3
