14
gdb 28989	3.0595	1.51403	1.01282	3.4122	79.08	-0.2447	-0.0516	0.193	1081.3569	0.103525	-399.639536	-399.632408	-399.631464	-399.671112	27.459	
O	 0.0724714327	 1.3436114827	-0.0565670805	-0.425983
C	 0.0507012162	-0.0043686833	-0.0129054205	 0.327059
C	 0.0335408157	-0.7030317458	-1.2210771089	-0.18271
C	 0.0109336811	-2.0901956459	-1.2185562277	-0.096072
C	 0.0049143694	-2.810269231	-0.0199654935	-0.119
C	 0.021798694	-2.1274142774	 1.1846615549	-0.186867
C	 0.0447496219	-0.7246188971	 1.1997476204	 0.059571
C	 0.0627009817	 0.0196315701	 2.4148373324	 0.196546
N	 0.0781484094	 0.6957778601	 3.356973112	-0.355229
H	 0.0826189148	 1.7024109726	 0.8417768061	 0.314679
H	 0.038376611	-0.1360818839	-2.144446228	 0.11987
H	-0.0022253439	-2.6200830369	-2.1651257	 0.113676
H	-0.0127978495	-3.8934197034	-0.030843151	 0.110195
H	 0.0176238153	-2.6597575608	 2.1285797342	 0.124266
134.4621	139.9251	238.5244	389.3985	405.4527	460.2404	472.7643	514.5438	566.6562	590.9831	611.5399	739.3421	758.3087	780.4139	856.3029	888.5115	949.0208	982.4218	1053.1195	1114.3451	1179.3128	1199.2365	1248.1798	1285.7201	1343.4206	1376.6015	1498.2054	1515.1119	1613.4494	1655.3729	2324.8874	3184.1988	3198.3569	3208.0951	3214.4325	3751.1766
OC1=CC=CC=C1C#N	Oc1ccccc1C#N	
InChI=1S/C7H5NO/c8-5-6-3-1-2-4-7(6)9/h1-4,9H	InChI=1S/C7H5NO/c8-5-6-3-1-2-4-7(6)9/h1-4,9H
