21
gdb 86407	2.3254	1.58669	1.21794	1.9969	78.17	-0.2411	0.0799	0.321	1131.654	0.181527	-424.222199	-424.213123	-424.212178	-424.256392	34.463	
C	 0.7312809623	 1.3904955011	-0.004871108	-0.392808
C	-0.0444861471	 0.0758281909	-0.0340092176	 0.14015
C	 0.2955200902	-0.813708821	-1.2467255375	-0.329257
C	 1.374172195	-1.7141687936	-0.681246964	 0.397648
C	 2.2119078993	-2.6252817205	-1.4566282348	-0.263232
O	 2.7368454811	-1.3801113984	-0.9779676016	-0.26538
C	 0.9858295271	-1.904650611	 0.7797889915	 0.076826
C	 2.138944596	-2.1296279899	 1.7440636545	-0.399208
O	 0.288365759	-0.7047384695	 1.1281948844	-0.298847
H	 1.8039371186	 1.2097257271	-0.1254958064	 0.134004
H	 0.3985830463	 2.0543099801	-0.8103917848	 0.107584
H	 0.5706822331	 1.8985951113	 0.9499768968	 0.123071
H	-1.1201479162	 0.2862949687	 0.0113214876	 0.072766
H	-0.5720512993	-1.4126168375	-1.544002001	 0.108246
H	 0.6451934068	-0.2510221591	-2.1143526971	 0.11744
H	 2.6280622858	-3.5161364264	-0.9872248946	 0.115114
H	 2.0803619869	-2.6940229941	-2.5360589064	 0.11448
H	 0.2817429386	-2.7519973527	 0.8436417182	 0.070972
H	 2.8798845915	-1.3341301832	 1.6464239947	 0.136019
H	 1.7620103922	-2.1441274459	 2.769846193	 0.123816
H	 2.6284722525	-3.0890294463	 1.547275803	 0.110596
37.7498	86.6973	214.339	241.4262	246.2628	275.8467	325.6015	387.7468	398.3154	408.8569	508.9028	560.6593	712.5493	745.7746	806.2549	815.0746	880.0013	902.6059	925.0437	953.6603	989.3487	1036.2712	1051.1704	1097.3066	1114.5975	1124.9753	1127.8574	1147.2519	1172.9792	1213.1021	1242.9793	1287.7494	1336.3408	1351.0055	1382.9439	1389.8501	1406.7175	1410.6362	1435.6061	1475.4816	1486.5075	1489.7266	1492.7755	1495.7409	1537.043	2950.5689	3019.549	3034.8216	3047.3031	3052.5568	3078.5515	3106.9356	3115.8561	3118.6791	3121.8536	3143.1974	3161.9098
CC1CC2(CO2)C(C)O1	C[C@H]1C[C@]2(CO2)[C@@H](C)O1	
InChI=1S/C7H12O2/c1-5-3-7(4-8-7)6(2)9-5/h5-6H,3-4H2,1-2H3	InChI=1S/C7H12O2/c1-5-3-7(4-8-7)6(2)9-5/h5-6H,3-4H2,1-2H3/t5-,6+,7-/m0/s1
