15
gdb 67913	2.50048	1.85997	1.36663	3.743	64.18	-0.2377	-0.0258	0.2119	933.0157	0.110446	-457.705445	-457.698041	-457.697097	-457.73718	29.015	
O	-0.0374103017	 1.4197199599	-0.0017018598	-0.474911
C	 0.0056946685	 0.0287938028	-0.0123826371	 0.37074
C	 0.4388753789	-0.7206139353	-1.3115519896	-0.427411
C	-0.8962724319	-1.497456616	-1.2585429283	 0.444364
O	-1.395455284	-2.3311338634	-1.951965721	-0.296745
C	-1.3578437329	-0.7420345588	 0.0107670178	-0.253222
C	-0.9155210201	-1.3855573085	 1.3516982018	 0.029382
O	 0.3253065796	-2.0748692849	 1.1289877673	-0.235454
C	 0.3632528688	-0.6617211728	 1.3444187928	-0.057679
H	 0.8668930772	 1.754066573	-0.0059130264	 0.28705
H	 0.4714211529	-0.0418415725	-2.1703805061	 0.134073
H	 1.3409719974	-1.3346366079	-1.2841945196	 0.136558
H	-2.3124042848	-0.2169540779	 0.0099231345	 0.111588
H	-1.5400933739	-1.743687037	 2.1609056821	 0.120435
H	 0.983884736	-0.2835684206	 2.1503737617	 0.111231
89.2269	226.7199	266.0071	283.9998	348.0706	362.5623	437.3864	492.9655	580.557	612.5185	653.9911	774.396	794.8213	840.5047	853.1098	886.5082	914.0301	972.7106	997.0108	1039.5151	1059.8386	1070.704	1087.8014	1150.9399	1184.1416	1200.3802	1220.7178	1239.4515	1299.1455	1353.1761	1385.1265	1418.6043	1899.3235	3058.5091	3130.3704	3134.9162	3170.1609	3197.7565	3792.4204
OC12CC(=O)C1C1OC21	O[C@]12CC(=O)[C@H]1[C@H]1O[C@@H]21	
InChI=1S/C6H6O3/c7-2-1-6(8)3(2)4-5(6)9-4/h3-5,8H,1H2	InChI=1S/C6H6O3/c7-2-1-6(8)3(2)4-5(6)9-4/h3-5,8H,1H2/t3-,4+,5+,6+/m0/s1
