15
gdb 41256	3.05429	2.17374	1.73224	1.3904	63.39	-0.2465	0.0282	0.2747	796.0173	0.113685	-457.635468	-457.629678	-457.628734	-457.665374	24.338	
C	 0.0195554012	 1.4871216595	-0.0869474723	-0.201668
O	 1.4580252578	 1.4193236108	 0.1882395766	-0.303968
C	 1.2959864144	 0.0763619536	 0.7355966389	 0.162251
C	 1.8846902191	-1.2163961673	 0.1726882369	-0.067457
O	 1.9386445243	-0.9916340448	-1.2491637287	-0.259075
C	 0.5203269225	-0.9770374519	-1.218691516	 0.028828
C	 0.3747223752	-1.9304121594	-0.0466531997	 0.025383
O	-0.6929860193	-1.1613893816	 0.5518372197	-0.334687
C	 0.0103257847	-0.039068525	-0.0384557134	 0.307999
H	-0.5248806755	 1.9870797068	 0.7233350508	 0.12106
H	-0.1925840521	 1.9660538893	-1.0470972299	 0.122718
H	 1.1942471174	 0.0875610028	 1.8246346235	 0.09239
H	 2.7588776121	-1.7169814898	 0.5825152994	 0.091481
H	 0.0022233437	-1.0045839733	-2.1754805409	 0.103954
H	 0.2460080944	-3.0100021295	-0.0340193448	 0.110791
240.9002	260.8916	393.1708	462.2116	524.7638	614.6527	643.2989	718.6871	756.1473	786.5102	852.5022	866.9658	910.5818	917.0165	954.4445	958.4599	997.6145	1022.8706	1038.2829	1074.2375	1091.8142	1109.1962	1143.9758	1152.7699	1177.5455	1223.153	1251.1977	1279.8403	1282.4139	1327.5792	1341.2306	1360.1313	1506.0896	3028.5039	3072.3385	3095.8342	3144.2084	3154.9749	3164.9319
C1OC2C3OC4C3OC124	C1O[C@@H]2[C@@H]3O[C@H]4[C@@H]3O[C@@]124	
InChI=1S/C6H6O3/c1-6-4(7-1)2-3(9-6)5(6)8-2/h2-5H,1H2	InChI=1S/C6H6O3/c1-6-4(7-1)2-3(9-6)5(6)8-2/h2-5H,1H2/t2-,3-,4-,5+,6+/m1/s1
