20
gdb 81841	2.31081	1.58408	1.08092	4.2236	81.54	-0.2282	0.0328	0.2609	1171.9549	0.169808	-403.148107	-403.138906	-403.137962	-403.182051	34.297	
C	-0.131209841	 1.5367596295	 0.0720260653	-0.41125
C	 0.0212885742	 0.0310500719	-0.072100049	 0.044822
C	 0.7931726121	-0.5629619731	-1.2692135899	-0.157826
C	 2.2661898536	-0.224679189	-1.20150774	-0.328533
C	 1.7125035365	-1.2860033977	-0.2872883917	 0.363284
C	 2.1788999625	-2.7083650052	-0.2030962284	-0.490456
N	 1.000241436	-0.640737023	 0.8120801182	-0.08587
C	 1.2600688535	-0.4998312878	 2.1288326179	 0.124493
O	 0.6035473711	 0.1703489129	 2.9038791083	-0.344651
H	 0.8174316066	 2.0555190285	-0.0927022722	 0.11661
H	-0.8566006477	 1.9059957477	-0.6602098022	 0.115944
H	-0.483180451	 1.7805967669	 1.0764664285	 0.158495
H	-0.957054789	-0.453610834	 0.0325291566	 0.098018
H	 0.3296845716	-0.9519633339	-2.1655722638	 0.101161
H	 2.8480575552	-0.5951240384	-2.0401453916	 0.119011
H	 2.6096853588	 0.722962549	-0.7980048549	 0.118379
H	 2.4819076895	-3.0632235713	-1.1924179846	 0.129074
H	 3.0445687628	-2.8097822628	 0.4609779794	 0.132195
H	 1.3844449373	-3.3618234856	 0.1714973585	 0.131473
H	 2.1421294773	-1.0967724749	 2.4412054857	 0.065627
55.3846	155.6582	177.7676	206.7053	215.0826	227.7885	270.8689	342.0713	366.9531	480.5566	516.7343	547.3754	636.7078	743.1434	798.6076	842.6932	855.887	944.5349	965.6174	998.0026	1007.5031	1028.9011	1047.1376	1075.4792	1107.5524	1114.7085	1146.5428	1151.7262	1227.3952	1273.5796	1315.2456	1369.6872	1384.5696	1403.9372	1407.465	1424.3341	1449.5938	1479.6459	1483.0268	1490.2767	1500.8949	1503.0945	1778.7759	2914.5324	3031.3213	3032.4942	3044.7237	3094.1959	3113.4028	3114.221	3120.3033	3138.5952	3203.1707	3210.9285
CC1C2CC2(C)N1C=O	C[C@H]1[C@H]2C[C@@]2(C)N1C=O	
InChI=1S/C7H11NO/c1-5-6-3-7(6,2)8(5)4-9/h4-6H,3H2,1-2H3	InChI=1S/C7H11NO/c1-5-6-3-7(6,2)8(5)4-9/h4-6H,3H2,1-2H3/t5-,6+,7+/m0/s1
