14
gdb 75981	2.2229	1.97321	1.15194	4.6926	59.34	-0.2761	-0.0205	0.2556	995.3269	0.101339	-510.992981	-510.98548	-510.984536	-511.02512	28.095	
O	 0.5939017385	 0.3609700337	 0.8786405149	-0.411536
C	 0.0514113669	-0.4310896641	-0.1146927207	-0.087033
C	-1.4612661668	-0.3083061876	-0.1978876091	 0.390565
N	-2.0789314364	 0.37496519	 0.6617686545	-0.540409
O	-2.0346856743	-0.9322335796	-1.2580066989	-0.226999
C	-1.1258638433	-1.5989326289	-2.1242048264	 0.004272
O	-0.0504738698	-0.7742849536	-2.5129683282	-0.219007
C	 0.6295410525	-0.1272740615	-1.5078799545	 0.403941
O	 1.5535033337	 0.578863866	-1.7523588416	-0.284982
H	-0.1582657938	 0.8213137283	 1.2871443691	 0.306826
H	 0.2827678188	-1.4978965051	 0.072821846	 0.130817
H	-3.0837015327	 0.4083078037	 0.4965326026	 0.24348
H	-0.7578048525	-2.5156002079	-1.6451650519	 0.131985
H	-1.6846140008	-1.8392820434	-3.0273495356	 0.15808
100.5534	133.974	270.9848	301.7162	330.9869	370.671	424.4604	478.7263	542.3484	562.5291	589.3897	654.3822	779.7186	872.8653	904.1884	924.8796	991.2189	1031.8458	1092.405	1116.2695	1189.778	1201.6334	1237.569	1284.1352	1314.287	1388.0256	1441.6991	1453.5173	1525.678	1775.9207	1911.1666	2922.9301	3024.257	3153.3273	3512.9634	3671.6182
OC1C(=N)OCOC1=O	O[C@H]1[C]([NH])OCOC1=O	
InChI=1S/C4H5NO4/c5-3-2(6)4(7)9-1-8-3/h2,5-6H,1H2	InChI=1S/C4H5NO4/c5-3-2(6)4(7)9-1-8-3/h2,5-6H,1H2/t2-/m0/s1
