18
gdb 80741	3.99292	1.10213	1.07839	4.3983	74.79	-0.2656	0.0352	0.3007	1157.9092	0.149532	-401.957091	-401.949101	-401.948157	-401.989947	30.676	
O	-0.2704197277	 1.5099127551	 0.0191957398	-0.411053
C	-0.0573650349	 0.1290815512	-0.0103584594	 0.085484
C	-0.3914326438	-0.729035601	 1.1911162745	-0.091395
C	-1.1841482117	-0.0654266103	 2.315404267	-0.244402
C	-2.6741023647	-0.1180095641	 1.8558304919	-0.136199
C	-2.6122854287	-0.1098796219	 0.2971410265	-0.249221
C	-1.2702838844	-0.7520916011	-0.0540538441	-0.068215
C	-3.3216403382	-1.3379121749	 2.344242206	 0.269549
N	-3.8268273033	-2.305153557	 2.7268457955	-0.330428
H	 0.4643996654	 1.918188776	 0.4892845862	 0.292932
H	 0.7944875357	-0.1826836657	-0.6140038967	 0.090175
H	 0.2624151283	-1.5586878166	 1.4334901378	 0.094624
H	-1.0364321262	-0.5712121912	 3.2709102974	 0.124202
H	-0.894323002	 0.9821899959	 2.4420612378	 0.102145
H	-3.2444023819	 0.7335370398	 2.2404847546	 0.120227
H	-3.4483307184	-0.6563432053	-0.1421557264	 0.122763
H	-2.6582711088	 0.9225778171	-0.0572625149	 0.130645
H	-1.2632499147	-1.5990391059	-0.7295814434	 0.098166
56.1906	141.2388	184.9867	254.3294	302.3526	312.4669	455.695	494.3794	575.1954	591.0619	709.4099	736.7335	764.7637	778.6272	813.4053	887.0278	894.0017	946.2844	974.0839	1023.8925	1030.0072	1046.3513	1096.076	1107.5169	1118.8977	1194.6349	1221.9496	1228.0514	1233.1629	1280.652	1307.124	1324.1485	1348.842	1353.1888	1369.0242	1449.0577	1479.4715	1495.1789	2351.8756	3053.7878	3064.7561	3078.0034	3103.6601	3118.066	3124.9681	3173.2384	3183.3878	3805.7307
OC1C2CC(CC12)C#N	O[C@H]1[C@H]2C[C@@H](C[C@@H]12)C#N	
InChI=1S/C7H9NO/c8-3-4-1-5-6(2-4)7(5)9/h4-7,9H,1-2H2	InChI=1S/C7H9NO/c8-3-4-1-5-6(2-4)7(5)9/h4-7,9H,1-2H2/t4-,5-,6+,7-
