19
gdb 39753	3.15172	1.62884	1.44919	1.9508	77.67	-0.2465	0.085	0.3315	972.6316	0.161349	-385.848143	-385.841273	-385.840329	-385.879175	28.581	
C	 0.0544423013	 1.5179843642	 0.0225678613	-0.283681
O	 1.1836827601	 0.6219259275	 0.0017859044	-0.295624
C	-0.1196139559	 0.0652325126	 0.0218519978	 0.493144
C	-0.5160890068	-0.9132888446	 1.096907884	-0.166684
C	-1.8828896455	-1.5122687496	 0.7702838036	-0.043716
C	-2.8269051856	-0.749527566	-0.1615612161	-0.238081
C	-2.0328026888	-0.6397118303	-1.4933640366	-0.209267
C	-0.5813520468	-0.917399078	-1.0757107566	-0.145494
C	-0.6711975808	-2.0061618411	 0.0406452942	-0.079907
H	-0.0725720091	 2.0819893866	 0.9461598682	 0.110655
H	-0.0962686746	 2.090975606	-0.8920988209	 0.109953
H	-0.0865111473	-0.9695308142	 2.0901118818	 0.091664
H	-2.3004768636	-2.1284079748	 1.5595541207	 0.086407
H	-3.7657834882	-1.2950911472	-0.2960915474	 0.098852
H	-3.083916055	 0.2360887433	 0.2403071368	 0.102916
H	-2.367444301	-1.4016791923	-2.2059935275	 0.099671
H	-2.1492546062	 0.3359291501	-1.9755118498	 0.097786
H	 0.1338712515	-1.057494172	-1.8859810173	 0.081138
H	-0.2886285176	-3.0170063903	 0.0213765292	 0.090267
126.164	214.6427	263.5738	328.1864	405.9701	481.2829	575.0185	642.8999	727.7282	760.2357	783.9687	829.8382	847.2779	863.2687	876.2898	899.6263	919.1759	951.6621	977.4062	979.9288	1021.0674	1049.7662	1064.3581	1078.3554	1103.124	1119.5077	1141.2365	1162.1228	1180.2391	1211.4471	1237.5526	1254.6118	1265.2872	1285.2254	1313.9478	1336.3732	1393.7157	1447.184	1485.2616	1504.1155	1536.935	3038.5948	3047.2883	3075.1122	3076.5179	3093.6851	3122.3856	3159.771	3169.4821	3183.9795	3211.5621
C1OC11C2C3CCC1C23	C1O[C@]21[C@H]1[C@H]3CC[C@@H]2[C@@H]13	
InChI=1S/C8H10O/c1-2-5-6-4(1)7(6)8(5)3-9-8/h4-7H,1-3H2	InChI=1S/C8H10O/c1-2-5-6-4(1)7(6)8(5)3-9-8/h4-7H,1-3H2/t4-,5+,6-,7-,8-/m0/s1
