18
gdb 50709	3.11342	1.36594	1.03228	2.9623	73.79	-0.2308	0.0221	0.2529	1137.8853	0.149192	-439.088771	-439.080945	-439.080001	-439.121865	29.66	
O	-0.0831609578	-0.0184338999	-0.1591208739	-0.343193
C	 0.0049796873	 1.1909670433	-0.1096100133	 0.147429
N	 1.172243633	 1.8812829516	 0.028299326	-0.063232
C	 2.4333911956	 1.1421436183	 0.1091448297	-0.160869
C	 3.4730412115	 1.9704296204	 0.8479804568	-0.096512
O	 3.6611033087	 3.2226881456	 0.1964695033	-0.254216
C	 2.5074596584	 4.0094281309	 0.2206423408	 0.073878
C	 1.7422367375	 4.1544127613	-1.0704349515	-0.331121
C	 1.1800390113	 3.3173449051	 0.0659595854	-0.00288
H	-0.872262739	 1.8656407578	-0.1573082056	 0.073206
H	 2.2332703201	 0.1955492085	 0.6166609327	 0.143428
H	 2.8045088073	 0.9061809884	-0.8970263104	 0.120298
H	 3.1762455199	 2.1204437755	 1.8965462598	 0.102587
H	 4.4412018376	 1.4644833792	 0.8290362097	 0.121572
H	 2.572053702	 4.8579861547	 0.8993172356	 0.10115
H	 1.2597594954	 5.0994252584	-1.2937083863	 0.120265
H	 2.1553539845	 3.6283906535	-1.9234578875	 0.131868
H	 0.3394992168	 3.7318672074	 0.6129467286	 0.116341
37.4969	139.2492	234.9097	269.7946	306.797	369.3554	395.605	467.6353	509.2709	604.1394	709.8549	775.2442	804.5154	822.7232	893.0479	956.1791	985.8685	1025.7402	1029.9443	1047.0606	1072.7354	1077.3081	1122.582	1129.7562	1173.6581	1221.5438	1239.8757	1275.9395	1317.3714	1340.3755	1355.9413	1389.9681	1412.4212	1427.5589	1446.7645	1479.2419	1497.3659	1505.3681	1791.2149	2939.8852	2999.7369	3022.8648	3107.0036	3108.8868	3116.5008	3139.2757	3157.4009	3234.5531
O=CN1CCOC2CC12	O=CN1CCO[C@H]2C[C@@H]12	
InChI=1S/C6H9NO2/c8-4-7-1-2-9-6-3-5(6)7/h4-6H,1-3H2	InChI=1S/C6H9NO2/c8-4-7-1-2-9-6-3-5(6)7/h4-6H,1-3H2/t5-,6+/m1/s1
