19
gdb 91279	3.47204	1.25507	1.07494	4.2164	76.79	-0.2196	0.0384	0.258	1164.8167	0.160993	-419.231935	-419.223885	-419.222941	-419.264698	30.926	
C	-0.0441715286	 1.5754931926	 0.1105459058	-0.327142
N	-0.03469703	 0.1313538325	 0.1136325325	-0.066121
C	-1.2802286471	-0.5924757289	 0.4230216687	-0.180202
C	-0.4523194242	-1.6224575658	 1.2334263086	-0.022885
N	 0.0900594323	-2.7409302155	 0.5078084672	-0.298092
C	 1.4066957659	-2.643126593	 0.122719919	 0.405024
O	 2.0117961149	-3.4675203583	-0.523199766	-0.37263
C	 1.9504782954	-1.3220568496	 0.6895569007	-0.340368
C	 0.7097014264	-0.5820190995	 1.1744857732	 0.014016
H	 0.9697397453	 1.9544913711	-0.0556538669	 0.124439
H	-0.6733794418	 1.9401302525	-0.7082212084	 0.125237
H	-0.4239632013	 2.0134782052	 1.0539096474	 0.089735
H	-1.9659972612	-0.0314542033	 1.0795000613	 0.085614
H	-1.8346136381	-0.9552048277	-0.4497493095	 0.103486
H	-0.857169299	-1.9086610682	 2.2069184377	 0.086714
H	-0.4522134819	-3.5436212072	 0.2298620469	 0.248825
H	 2.6555225008	-1.5486058245	 1.4966498043	 0.123248
H	 2.4888834308	-0.779221163	-0.089881394	 0.13559
H	 0.8519127413	 0.0028039606	 2.0925135117	 0.065512
73.5499	125.2907	208.9418	241.6841	285.3926	373.2339	409.4561	468.723	485.9604	595.9962	630.1735	659.4424	759.2234	833.7936	848.8805	869.2327	923.948	979.3496	1015.1101	1026.6683	1041.3107	1107.4695	1139.585	1148.4896	1177.2054	1202.0937	1231.6868	1243.5731	1256.334	1273.4292	1297.3136	1329.9067	1357.8167	1379.0773	1428.1149	1450.5004	1453.8278	1486.0268	1499.0541	1510.354	1832.4494	2920.563	2965.168	3014.252	3055.7803	3057.2084	3059.7945	3074.928	3099.178	3121.5966	3639.8301
CN1CC2NC(=O)CC12	CN1C[C@H]2NC(=O)C[C@@H]12	
InChI=1S/C6H10N2O/c1-8-3-4-5(8)2-6(9)7-4/h4-5H,2-3H2,1H3,(H,7,9)	InChI=1S/C6H10N2O/c1-8-3-4-5(8)2-6(9)7-4/h4-5H,2-3H2,1H3,(H,7,9)/t4-,5-/m1/s1
