20
gdb 106710	2.45857	1.48291	1.17402	1.0829	78.29	-0.2453	0.0692	0.3145	1153.678	0.1697	-403.086242	-403.077327	-403.076382	-403.119847	33.822	
C	 0.2025926635	 1.4787112835	 0.2095721428	-0.380156
C	-0.155002519	 0.0205495331	-0.1089673505	-0.279053
C	 0.5350616555	-0.4889088867	-1.3411267823	 0.275912
N	 1.9389335097	-0.9253907393	-1.2711259087	-0.406437
C	 0.9380020826	-1.892213576	-1.7468288357	 0.235207
C	 0.7594762544	-3.2038232209	-1.0449724152	-0.489082
C	 0.5384586584	-1.5676346347	-3.1833080819	-0.051612
O	-0.8410354181	-1.1636586517	-3.1998309921	-0.241232
C	 0.1489400352	-0.2045120706	-2.7909875437	-0.058213
H	 1.2798019213	 1.5853832859	 0.3704011027	 0.127858
H	-0.0846122758	 2.1478304854	-0.60891368	 0.113576
H	-0.3116159191	 1.8203179656	 1.1127908431	 0.114114
H	 0.1212480541	-0.617264661	 0.73752438	 0.108489
H	-1.2378616781	-0.0815552553	-0.248943937	 0.110615
H	 2.5039802608	-0.5463872264	-2.029030815	 0.223143
H	 0.8940604206	-3.0859769604	 0.0331979449	 0.133262
H	-0.2409078475	-3.6051448863	-1.2343452455	 0.132063
H	 1.4937298941	-3.9393728381	-1.3931657669	 0.122613
H	 0.9589588142	-1.928502835	-4.1155306234	 0.10415
H	 0.2029630233	 0.719893909	-3.3550532454	 0.104783
66.5283	134.5817	183.4644	194.3792	218.7007	253.9603	273.7402	396.9938	460.1059	545.0034	597.6161	618.3076	723.5658	772.3101	792.8848	813.8689	856.5704	876.2057	897.4904	969.6092	976.6295	1007.1005	1058.0872	1073.6356	1093.8598	1106.4329	1145.7038	1163.2117	1196.6035	1234.2598	1248.2655	1303.1977	1332.9939	1353.7786	1369.6353	1404.984	1412.5568	1459.4158	1475.1722	1487.2157	1493.1992	1498.3824	1509.021	3033.2745	3034.2895	3035.7829	3073.812	3096.4595	3103.7874	3112.8227	3122.7061	3175.1717	3189.8853	3462.3264
CCC12NC1(C)C1OC21	CC[C@@]12N[C@]1(C)[C@H]1O[C@@H]21	
InChI=1S/C7H11NO/c1-3-7-5-4(9-5)6(7,2)8-7/h4-5,8H,3H2,1-2H3	InChI=1S/C7H11NO/c1-3-7-5-4(9-5)6(7,2)8-7/h4-5,8H,3H2,1-2H3/t4-,5+,6+,7-/m0/s1
