19
gdb 74266	2.56832	1.53945	1.26609	1.8656	77.1	-0.2301	0.0157	0.2458	1083.5766	0.159113	-419.211552	-419.20294	-419.201996	-419.244017	34.022	
C	-0.0291051933	 1.5645810874	 0.059792391	-0.409391
C	 0.0198087349	 0.032904689	 0.0108710415	 0.251286
C	-1.3906328777	-0.568929945	-0.0530969551	-0.411197
N	 0.780066082	-0.3967166748	-1.1866929837	-0.322418
C	 1.717011285	-1.1967267266	-0.8359051351	 0.377315
N	 2.5144189275	-1.8904138017	-1.7131700736	-0.584842
C	 1.8608776949	-1.3858038587	 0.6488540498	-0.087673
O	 2.1428722842	-0.1279516826	 1.2946077061	-0.255507
C	 0.7830286367	-0.5606911424	 1.2040650435	 0.026679
H	 0.9804058812	 1.9684649281	 0.1642474709	 0.129797
H	-0.4654295874	 1.9526718464	-0.8644370538	 0.121128
H	-0.6351005254	 1.9119074209	 0.9033146373	 0.104356
H	-1.8916616064	-0.2453776355	-0.9692757144	 0.128221
H	-1.349009783	-1.6628462624	-0.060181779	 0.112388
H	-1.993131014	-0.2498912203	 0.804850793	 0.107122
H	 2.4449988969	-1.5800060774	-2.6723801232	 0.258346
H	 3.4582325978	-2.0790638758	-1.411351119	 0.255707
H	 2.2905241835	-2.2715290251	 1.1080566219	 0.10377
H	 0.2926624624	-0.7750509034	 2.150614752	 0.094912
134.8103	189.1465	218.0134	242.3467	265.8832	316.4843	323.5582	407.1051	416.5118	452.6644	528.3176	595.0269	603.5694	644.3462	732.8849	833.4609	862.3287	878.2257	890.8715	916.9079	943.8942	964.2361	1008.5719	1028.6155	1095.2301	1148.7481	1201.5815	1214.293	1231.3605	1244.3339	1307.519	1379.5125	1390.9401	1413.6673	1441.7495	1478.2907	1485.3433	1495.6838	1507.5177	1626.4556	1709.8881	3030.2835	3040.604	3099.499	3111.477	3119.1013	3131.487	3141.7586	3159.5143	3563.4064	3675.4997
CC1(C)N=C(N)C2OC12	CC1(C)N=C(N)[C@H]2O[C@@H]12	
InChI=1S/C6H10N2O/c1-6(2)4-3(9-4)5(7)8-6/h3-4H,1-2H3,(H2,7,8)	InChI=1S/C6H10N2O/c1-6(2)4-3(9-4)5(7)8-6/h3-4H,1-2H3,(H2,7,8)/t3-,4+/m0/s1
