23
gdb 120855	3.50926	0.60921	0.55298	1.019	84.13	-0.2483	0.0789	0.3273	2052.1806	0.203802	-425.392682	-425.381726	-425.380782	-425.430053	38.381	
C	 0.0582449752	 1.3409719686	 0.3959791254	-0.224646
O	-0.0468780784	-0.0607667601	 0.4085145917	-0.230671
C	-1.2135885822	-0.527011721	-0.2416894346	-0.073681
C	-1.2025003677	-2.0320099566	-0.2148697107	-0.032294
C	-1.725774676	-2.7875304745	 0.9815179434	-0.284866
C	-2.4617824414	-2.8618894603	-0.3363432359	-0.014417
C	-3.84558703	-2.2680300425	-0.5031690313	-0.201136
C	-4.9407924524	-3.2422664927	-0.0804870575	-0.066036
O	-6.192974722	-2.6048446883	-0.2851372266	-0.422954
H	 0.984516683	 1.605854296	 0.9120772544	 0.124708
H	 0.0967160949	 1.7418360451	-0.6301823776	 0.100598
H	-0.7867440189	 1.8216478701	 0.9156971964	 0.100483
H	-2.1106911918	-0.1269283616	 0.258120062	 0.083022
H	-1.2362738402	-0.1582276054	-1.2826672769	 0.083489
H	-0.3211155707	-2.449953681	-0.6934813634	 0.089362
H	-1.1774369437	-3.6539500554	 1.3340780582	 0.109434
H	-2.1819481034	-2.1991270328	 1.7724457762	 0.110909
H	-2.3253819087	-3.7890906422	-0.8895465035	 0.081283
H	-3.9577194143	-1.3552165596	 0.0908926308	 0.105986
H	-4.0215956176	-1.9857656545	-1.5487853923	 0.105372
H	-4.862627878	-4.1682663913	-0.6741604229	 0.081912
H	-4.7991288362	-3.5207784793	 0.9758901601	 0.08923
H	-6.8871385193	-3.2106299408	-0.0103466651	 0.284913
55.8177	73.0639	84.0999	96.5062	115.9297	182.4162	232.2823	264.4533	267.3427	295.9533	367.0222	457.5835	467.1778	543.6174	783.4695	813.1341	843.2553	907.4853	914.1919	950.7278	988.9739	1017.5942	1059.2795	1062.7363	1078.7173	1093.0934	1141.5803	1153.4179	1173.2735	1184.9683	1198.5714	1223.7221	1236.8473	1243.3969	1251.0503	1276.1462	1313.1107	1326.109	1374.7109	1418.1618	1447.3601	1461.321	1481.9026	1485.1312	1490.2007	1497.4329	1504.7665	1526.2101	1528.3276	2942.81	2960.422	2964.377	2982.2326	2990.0816	3004.2338	3032.332	3080.4968	3110.3051	3121.2705	3126.8654	3146.5368	3211.7303	3831.5489
COCC1CC1CCO	COC[C@H]1C[C@H]1CCO	
InChI=1S/C7H14O2/c1-9-5-7-4-6(7)2-3-8/h6-8H,2-5H2,1H3	InChI=1S/C7H14O2/c1-9-5-7-4-6(7)2-3-8/h6-8H,2-5H2,1H3/t6-,7-/m1/s1
