23
gdb 56251	5.28757	0.544	0.51699	2.4873	87.24	-0.2411	-0.0069	0.2342	2185.9832	0.203213	-388.307336	-388.296555	-388.295611	-388.34542	37.978	
C	-0.0738917659	 1.509104433	 0.0915194849	-0.472276
C	 0.0656462132	-0.0044618927	 0.1124880415	 0.376
O	 1.1379392076	-0.5426205792	 0.2675788332	-0.289499
C	-1.2204193275	-0.8010444928	-0.0735516403	-0.303552
C	-1.0320781146	-2.3153920572	 0.000055341	-0.161502
C	-2.3343024065	-3.0918339779	-0.2320790669	-0.214863
C	-2.148085204	-4.592968365	-0.163330467	 0.037949
C	-2.1982041548	-5.3095042043	 1.1634005809	-0.253055
C	-3.3082121943	-5.4992742341	 0.1574409043	-0.278276
H	 0.9083126669	 1.973476894	 0.186673186	 0.141489
H	-0.5521039746	 1.8399819989	-0.8370914013	 0.134994
H	-0.7170221311	 1.8417874289	 0.9143531072	 0.13729
H	-1.946017208	-0.4554904254	 0.6773250041	 0.114566
H	-1.6578934162	-0.5062484533	-1.039122396	 0.116622
H	-0.2807278109	-2.6171142027	-0.738461894	 0.109726
H	-0.6094856703	-2.5818411867	 0.9749973993	 0.112025
H	-3.0832726742	-2.7889713473	 0.513272373	 0.086523
H	-2.754302936	-2.8179640906	-1.2105520097	 0.091355
H	-1.4291740628	-4.9838066743	-0.8800271077	 0.080917
H	-1.5134580417	-6.1318920422	 1.3384770033	 0.11056
H	-2.414825982	-4.7192550259	 2.0484073172	 0.106981
H	-4.2672854349	-5.0372638057	 0.3694040824	 0.106864
H	-3.3809282773	-6.4511925477	-0.3570415856	 0.109162
25.5949	49.656	85.4853	92.6212	120.0046	128.9987	217.4829	261.7577	365.8319	390.9637	464.522	478.4518	596.6625	723.8313	771.7346	785.2291	823.2282	827.714	852.6276	914.2163	933.9665	956.2744	982.7492	1041.5269	1057.3642	1063.4401	1076.4337	1094.5552	1139.0879	1152.1077	1175.87	1198.1649	1220.9635	1230.9528	1274.6343	1298.7335	1322.9312	1354.2226	1382.6975	1395.7388	1419.7152	1449.2981	1465.6572	1469.0548	1477.6097	1480.7283	1499.5128	1508.664	1811.88	2998.2239	3004.7961	3028.6512	3030.4018	3036.6246	3045.6134	3085.363	3096.6104	3126.332	3128.9379	3132.874	3151.4416	3203.8972	3219.1518
CC(=O)CCCC1CC1	CC(=O)CCCC1CC1	
InChI=1S/C8H14O/c1-7(9)3-2-4-8-5-6-8/h8H,2-6H2,1H3	InChI=1S/C8H14O/c1-7(9)3-2-4-8-5-6-8/h8H,2-6H2,1H3
