17
gdb 79005	3.89871	1.69927	1.4469	1.8488	74.73	-0.2348	-0.0234	0.2114	921.5005	0.136951	-380.730756	-380.724234	-380.72329	-380.761273	27.1	
C	-0.2125007727	 1.6216198759	-0.09743216	-0.415232
C	-0.0487349189	 0.116552434	 0.0216084199	-0.101845
C	 1.1733048488	-0.5922465364	-0.7089070796	-0.12625
C	 2.1535672621	-0.1937258864	 0.4189171197	-0.005788
N	 2.6008292937	-1.5947025346	 0.8840706865	-0.247365
C	 2.2349192306	-1.4569351692	 2.3365353573	 0.006318
N	 1.1640593794	-0.7955769948	 2.5668664915	-0.286689
C	 0.8297465119	-0.4909520257	 1.1506150097	 0.319146
C	 1.1732361928	-1.7402969829	 0.3200812564	-0.000149
H	 0.7359279231	 2.1465406616	 0.0551084372	 0.119668
H	-0.5913982619	 1.8929776824	-1.0883741201	 0.12174
H	-0.9250412987	 1.99598784	 0.6445158568	 0.130614
H	-1.0019613803	-0.40249969	-0.1292595794	 0.0836
H	 1.3667508974	-0.6491799034	-1.778294172	 0.089678
H	 2.8055397197	 0.6749584781	 0.5099654261	 0.092777
H	 2.8664325376	-1.9045410308	 3.0954536508	 0.128878
H	 0.6486551654	-2.6963284577	 0.2956862792	 0.090899
198.2902	215.3762	229.244	419.5426	472.3116	492.3478	567.7084	694.4961	737.8293	775.9078	790.9521	802.3531	827.0482	846.3135	903.5791	907.5296	932.9946	948.08	977.2788	1036.8469	1054.5735	1058.0621	1110.5154	1123.9181	1135.6524	1167.2002	1170.5242	1177.0839	1232.3411	1249.8686	1285.7375	1311.245	1391.3194	1415.2348	1491.7206	1498.7265	1594.2198	3034.9292	3047.8502	3101.7501	3106.0623	3111.2109	3118.0074	3138.8374	3211.7182
CC1C2C3N4C=NC13C24	C[C@H]1[C@H]2[C@@H]3N4[CH][N][C@@]13[C@@H]24	
InChI=1S/C7H8N2/c1-3-4-5-7(3)6(4)9(5)2-8-7/h2-6H,1H3	InChI=1S/C7H8N2/c1-3-4-5-7(3)6(4)9(5)2-8-7/h2-6H,1H3/t3-,4-,5-,6+,7-/m0/s1
