19
gdb 103720	2.93165	1.21987	1.01519	5.608	77.22	-0.244	0.0292	0.2732	1223.7368	0.156992	-419.189998	-419.179895	-419.17895	-419.224538	36.974	
C	 0.2240980614	 1.1894987705	 0.3145128092	-0.252383
O	-0.2068821487	-0.0460880346	-0.2334245145	-0.287589
C	 0.5637738899	-0.5226097809	-1.2992178293	 0.399718
C	 0.3441917604	 0.1941344772	-2.6115555258	-0.459822
C	 1.9022069124	-1.1210916906	-0.9585743996	-0.382701
C	 0.7043552569	-2.045367067	-1.2531251878	 0.087097
N	 0.0173478933	-2.7587739033	-0.2133765644	-0.571906
C	 0.742335658	-2.7512526107	-2.5177613217	 0.293118
N	 0.8019038719	-3.3125756832	-3.5275196365	-0.358591
H	 1.2745067314	 1.1453378956	 0.6321905918	 0.115028
H	 0.1055856878	 2.0162104178	-0.3971670498	 0.122481
H	-0.4071975494	 1.3818950664	 1.1842814535	 0.136871
H	 0.715373343	 1.2226799309	-2.5605198846	 0.122194
H	 0.8646630667	-0.3098936034	-3.4281553147	 0.149942
H	-0.7233872285	 0.2214742375	-2.8484409157	 0.14061
H	 2.701690151	-1.0603814983	-1.6886785384	 0.134846
H	 2.2147667507	-1.1016885734	 0.0797858432	 0.122719
H	 0.650973881	-3.3496410072	 0.3129355787	 0.238011
H	-0.4139241793	-2.0913279634	 0.4164612863	 0.250358
89.9098	117.2362	142.6535	182.7786	202.6907	239.6869	251.7597	266.6103	317.5112	392.6906	401.9717	452.7614	465.4095	583.3242	623.447	714.3387	719.9698	827.1316	866.1648	904.7551	931.4526	958.6104	1045.916	1083.4975	1108.9715	1122.492	1181.7153	1219.4666	1249.1235	1260.2641	1322.2481	1357.4435	1420.8593	1458.852	1474.514	1481.8834	1492.2997	1503.4458	1510.4713	1647.3643	2349.3172	3005.2987	3045.3506	3063.5951	3111.5876	3128.5109	3133.6662	3138.77	3230.1799	3512.4051	3599.1923
COC1(C)CC1(N)C#N	CO[C@@]1(C)C[C@]1(N)C#N	
InChI=1S/C6H10N2O/c1-5(9-2)3-6(5,8)4-7/h3,8H2,1-2H3	InChI=1S/C6H10N2O/c1-5(9-2)3-6(5,8)4-7/h3,8H2,1-2H3/t5-,6-/m0/s1
