16
gdb 46879	3.01979	1.61456	1.24717	3.9183	74.13	-0.2464	-0.0451	0.2013	998.1408	0.126033	-437.8697	-437.862518	-437.861574	-437.901578	27.812	
N	-0.028047737	 1.1027626088	-0.9887121947	-0.505281
C	-0.0098097215	 0.165885294	-0.127864824	 0.356485
O	 1.1248147867	-0.0951074928	 0.5838928653	-0.238581
C	 1.3413725155	-1.3689966783	 1.1729763417	-0.153103
C	 0.5529324564	-1.5856810081	 2.4556864095	 0.038008
O	-0.130959159	-0.4659105161	 2.9813429743	-0.228178
C	-0.922283268	-1.5343577063	 2.4220672054	 0.001214
C	-1.6519465737	-1.2980762771	 1.1581803786	-0.069063
C	-1.2490753518	-0.6031733728	 0.0862320374	-0.120791
H	 0.8874606727	 1.5552008653	-1.0277164973	 0.222938
H	 1.1172291069	-2.1730716818	 0.4590393165	 0.122153
H	 2.412807188	-1.3977865155	 1.3879210012	 0.13165
H	 1.0368775307	-2.2302707072	 3.1915545689	 0.101198
H	-1.4698364247	-2.1006288823	 3.1731514546	 0.102295
H	-2.6372136928	-1.7545195788	 1.1135125717	 0.108598
H	-1.9358662486	-0.486716681	-0.7446956392	 0.130459
65.4967	215.6019	248.1726	288.9324	340.4101	436.9066	478.7745	538.7519	672.9717	696.4865	744.5814	772.9345	827.3426	838.4082	882.2057	907.3046	949.2032	954.7963	1013.4647	1031.4799	1059.8044	1115.0872	1141.5668	1173.7597	1234.4496	1274.0425	1310.9527	1339.0221	1385.6278	1415.2669	1431.4715	1465.3808	1493.5393	1680.4948	1719.8357	3020.0077	3089.7158	3102.497	3128.6218	3165.234	3201.4504	3470.1715
N=C1OCC2OC2C=C1	[NH][C]1OC[C@H]2O[C@H]2C=C1	
InChI=1S/C6H7NO2/c7-6-2-1-4-5(9-4)3-8-6/h1-2,4-5,7H,3H2	InChI=1S/C6H7NO2/c7-6-2-1-4-5(9-4)3-8-6/h1-2,4-5,7H,3H2/t4-,5+/m0/s1
