16
gdb 56351	3.93762	0.91108	0.84569	2.0051	71.78	-0.2523	0.0005	0.2528	1354.3537	0.123764	-434.056856	-434.047866	-434.046922	-434.091243	32.119	
N	 0.2573318364	 1.1821683523	 0.4792143395	-0.55648
C	 0.1256083213	-0.0947600425	 0.0217325077	 0.368622
N	 1.0306415826	-0.9105133272	-0.3817873222	-0.314903
C	 2.4140992601	-0.4621787264	-0.3962690879	-0.288685
C	 2.9401179006	-0.037003404	 0.9138953957	 0.247012
N	 3.2926509123	 0.3297934675	 1.9528831386	-0.32249
C	-1.2893834526	-0.592156996	-0.0275787165	 0.028154
C	-2.0984747638	-0.6708305623	 1.2005558179	-0.170385
O	-2.3122062863	 0.3698671902	 0.2441889549	-0.240115
H	 1.1228029629	 1.4981909042	 0.885567422	 0.278811
H	-0.5923710581	 1.645348701	 0.7638711503	 0.273028
H	 3.0431742107	-1.2799143709	-0.7612816093	 0.158203
H	 2.557406185	 0.3825395375	-1.0893771931	 0.149531
H	-1.4918530861	-1.2881286351	-0.83658631	 0.125887
H	-2.8910375788	-1.4129650242	 1.2675469877	 0.134791
H	-1.6637493662	-0.354008324	 2.1465472648	 0.129018
63.9368	78.0384	116.821	193.4011	233.111	314.4878	331.1251	376.4882	401.0577	413.3891	566.7461	599.6165	660.8336	726.1533	819.1297	867.8082	898.6999	923.634	980.3174	1003.3799	1047.732	1093.8068	1150.6611	1160.1793	1167.6126	1259.3631	1268.2274	1344.1694	1359.1324	1429.7594	1465.6499	1522.0183	1627.5988	1727.5742	2341.8294	2984.4439	3075.6824	3097.2779	3164.8029	3191.7306	3578.1222	3700.3877
NC(=NCC#N)C1CO1	NC(=NCC#N)[C@H]1CO1	
InChI=1S/C5H7N3O/c6-1-2-8-5(7)4-3-9-4/h4H,2-3H2,(H2,7,8)	InChI=1S/C5H7N3O/c6-1-2-8-5(7)4-3-9-4/h4H,2-3H2,(H2,7,8)/t4-/m1/s1
