22
gdb 60529	2.68683	1.13815	1.04578	2.1138	77.85	-0.2402	0.0475	0.2876	1285.9795	0.191733	-441.454429	-441.443912	-441.442968	-441.4894	39.683	
C	-0.0649531828	 1.5487178604	-0.0235920052	-0.419812
C	 0.011668476	 0.0182568628	 0.0234476557	 0.300487
C	 0.7122769375	-0.461576549	 1.2983993752	-0.416417
O	-1.3065858841	-0.5353113057	 0.0916562795	-0.450485
C	 0.7011367153	-0.5262853152	-1.2619450524	 0.066177
O	 1.9967281511	 0.0293617281	-1.4646795833	-0.436963
C	 0.7172157129	-2.0511162266	-1.3232117625	 0.006151
C	 1.5120902045	-2.7467009521	-2.3587911023	-0.252445
N	 1.9131940675	-2.8197895725	-0.9378907532	-0.324003
H	 0.9285502714	 1.9988909262	-0.0887357949	 0.121612
H	-0.6288932776	 1.8787397963	-0.9046612948	 0.105027
H	-0.5704302355	 1.9272206599	 0.8691079063	 0.121165
H	 0.1609970659	-0.107307448	 2.1731379272	 0.129623
H	 0.7574727335	-1.5522481227	 1.3344457653	 0.153272
H	 1.7323034908	-0.0676854725	 1.3735868814	 0.099461
H	-1.8285599716	-0.1449861226	-0.6182735987	 0.278748
H	 0.1070857605	-0.1636142365	-2.1134811754	 0.079564
H	 2.4666642618	 0.0086827061	-0.6245937917	 0.285354
H	-0.2146060501	-2.498449544	-0.9911600402	 0.106471
H	 1.1565121227	-3.679753317	-2.7863192601	 0.113903
H	 2.116157429	-2.1317023708	-3.0200321604	 0.120203
H	 2.6914535212	-2.1753063545	-0.8108670855	 0.212908
69.5892	88.9535	169.7999	209.6942	242.0114	243.9605	274.5009	301.3591	315.8297	328.3614	346.11	364.0923	440.1554	488.1904	536.2921	650.559	750.3102	800.2433	855.5035	900.2784	933.4786	950.9187	977.2478	996.5909	1014.9419	1021.0107	1071.7819	1117.0519	1140.5866	1161.203	1190.3767	1205.373	1239.495	1260.9163	1268.1329	1300.3484	1321.0259	1377.8864	1399.4878	1405.8306	1416.5122	1427.7463	1478.724	1487.8249	1499.0144	1501.6663	1509.2336	3000.7693	3029.9233	3040.5305	3099.9056	3107.4659	3111.5937	3129.515	3136.816	3161.2805	3200.6893	3480.1302	3799.4087	3812.7063
CC(C)(O)C(O)C1CN1	CC(C)(O)[C@@H](O)[C@H]1CN1	
InChI=1S/C6H13NO2/c1-6(2,9)5(8)4-3-7-4/h4-5,7-9H,3H2,1-2H3	InChI=1S/C6H13NO2/c1-6(2,9)5(8)4-3-7-4/h4-5,7-9H,3H2,1-2H3/t4-,5+/m1/s1
