21
gdb 41699	3.21284	1.72787	1.7244	0.2337	84.46	-0.227	0.0238	0.2507	925.9189	0.188315	-349.97776	-349.971529	-349.970585	-350.007803	28.019	
C	-0.0264066808	 1.5782909873	 0.0472431507	-0.213892
C	 1.4874343524	 1.9560410024	 0.0037438088	-0.239916
C	 2.1948115587	 0.6077992362	 0.230815751	 0.015732
C	 2.2068128614	-0.3279658202	-1.0152550727	-0.061665
C	 0.6829290163	-0.3061404308	-1.4107110379	-0.216192
C	 0.0205631055	 0.0430268985	-0.0487910234	-0.002698
C	 1.1707090911	-0.289557909	 0.9826289466	-0.049863
C	 1.7545850153	-1.6696963713	 0.8015473411	-0.099417
C	 2.4103680464	-1.6846522088	-0.3635329012	-0.088245
H	-0.4786578056	 1.8966590416	 0.993037001	 0.090283
H	-0.6068454468	 2.0329578978	-0.7609511377	 0.0911
H	 1.7753503187	 2.4114831605	-0.9498119468	 0.096003
H	 1.746003908	 2.6739721444	 0.7872827829	 0.095514
H	 3.1749006723	 0.6756191207	 0.7075413636	 0.058698
H	 2.8906657283	-0.0666705909	-1.8243492269	 0.053715
H	 0.4629825269	 0.4581340587	-2.1629596789	 0.08954
H	 0.3672555528	-1.270603687	-1.8136520829	 0.093133
H	-0.932736028	-0.4546946793	 0.13453152	 0.055498
H	 0.9189745554	 0.0025738054	 2.0043322333	 0.05369
H	 1.6014431156	-2.4990588189	 1.480867037	 0.090307
H	 2.8792226361	-2.5339070072	-0.8457492275	 0.088674
236.6572	310.1671	348.6657	413.3824	474.9851	562.9477	651.8805	728.5271	742.4483	760.0478	793.9573	817.9375	855.6766	863.1392	899.7897	908.3072	933.603	944.5657	952.1833	965.2519	984.3243	1007.7727	1023.7254	1050.6181	1083.1749	1107.2973	1122.4122	1146.1005	1172.1707	1180.0534	1224.0476	1240.1139	1268.8953	1276.35	1289.5595	1304.7691	1306.2268	1314.162	1336.1286	1356.2074	1360.9891	1491.1505	1497.6446	1514.9682	1644.6211	3036.9222	3045.6895	3049.3957	3074.642	3086.472	3089.0297	3094.7555	3096.6475	3102.8141	3107.3527	3191.657	3217.8267
C1CC2C3CC1C2C=C3	C1C[C@@H]2[C@@H]3C[C@H]1[C@H]2C=C3	
InChI=1S/C9H12/c1-3-8-7-2-4-9(8)6(1)5-7/h1,3,6-9H,2,4-5H2	InChI=1S/C9H12/c1-3-8-7-2-4-9(8)6(1)5-7/h1,3,6-9H,2,4-5H2/t6-,7-,8+,9+/m0/s1
