18
gdb 76109	3.05679	1.37184	1.13927	0.8658	78.02	-0.2405	0.0215	0.262	1115.5922	0.145522	-401.869019	-401.859945	-401.859001	-401.902398	34.313	
C	 0.1166231219	 1.5442860663	 0.0313004539	-0.501804
C	-0.0227316869	 0.0560443467	-0.0874587384	 0.32823
C	-0.951539097	-0.7491141183	 0.7291947153	-0.29813
N	 0.4945177755	-0.9174894875	 0.9790054594	-0.171026
C	 0.9964817239	-1.8252818585	-0.1293052268	-0.218926
C	 0.383176566	-3.1331819638	-0.2363336768	 0.329934
C	-0.1718647319	-4.190920029	-0.3880560465	-0.431457
C	 0.574511105	-0.7775430572	-1.2254407585	 0.060193
O	-0.2137450453	-1.1725496873	-2.3093617424	-0.427263
H	 1.1400766335	 1.8660107588	-0.1897084732	 0.123485
H	-0.5548306461	 2.0485098914	-0.6731595039	 0.131932
H	-0.1348274972	 1.881717748	 1.0408644607	 0.130389
H	-1.454995282	-0.2363116011	 1.5431461831	 0.124157
H	-1.5158325473	-1.5785932067	 0.3108810178	 0.114145
H	 2.0809629798	-1.9183320719	-0.0380438303	 0.114427
H	-0.6288472983	-5.144414325	-0.4925600369	 0.206293
H	 1.4558391872	-0.2858544643	-1.6460301989	 0.100599
H	-0.7972467009	-1.8819148105	-2.0141906974	 0.284823
105.4944	116.8114	169.2931	181.3121	248.4786	271.4726	292.8235	365.5082	422.0388	502.6429	540.8741	618.338	643.6695	657.5564	684.1731	756.033	767.7195	812.7342	879.8122	955.3069	984.2451	1039.3787	1055.1576	1088.314	1117.8714	1126.0542	1154.1403	1186.913	1240.7634	1282.6024	1324.0103	1340.0471	1384.6088	1420.2814	1446.6935	1483.0351	1491.6754	1510.9428	2220.028	3029.6449	3073.5103	3087.0004	3092.8508	3111.1392	3114.004	3198.3088	3498.5267	3782.798
CC12CN1C(C#C)C2O	C[C@]12CN1[C@@H](C#C)[C@H]2O	
InChI=1S/C7H9NO/c1-3-5-6(9)7(2)4-8(5)7/h1,5-6,9H,4H2,2H3	InChI=1S/C7H9NO/c1-3-5-6(9)7(2)4-8(5)7/h1,5-6,9H,4H2,2H3/t5-,6+,7+,8?/m0/s1
