15
gdb 42795	2.5783	1.68999	1.40685	3.9994	66.32	-0.2476	-0.0292	0.2184	944.8707	0.11535	-453.965239	-453.958197	-453.957253	-453.996855	27.076	
O	 0.0330262485	 0.0098907973	-0.1035986985	-0.308277
C	-0.0014723702	 1.192573646	 0.0472027086	 0.436219
C	-1.0981503904	 2.2800793165	 0.0229275417	-0.148228
C	-1.3097735116	 2.8721283531	 1.4148665837	-0.141806
N	-0.0059338489	 3.1070923494	 2.0270290391	-0.322795
C	 1.1935613509	 2.9290733935	 1.3893536158	 0.46083
O	 2.2701315774	 3.1702824533	 1.8874277041	-0.370095
C	 1.0105103681	 2.3563181766	-0.0204314778	-0.267733
N	-0.0913614722	 3.1565885373	-0.6810497626	-0.311047
H	-2.0400244372	 2.0884799577	-0.4931911043	 0.105084
H	-1.8679395096	 3.8127237733	 1.3254189139	 0.126363
H	-1.9001030005	 2.1756537062	 2.0231980563	 0.126834
H	 0.042252079	 3.5467430987	 2.9341248489	 0.256629
H	 1.9634735662	 2.2637955803	-0.5371487599	 0.116392
H	-0.0970488997	 2.9192350008	-1.6719085288	 0.24163
118.5917	133.8389	220.6036	367.8337	420.5663	478.5504	491.8717	525.3073	550.9951	666.8662	734.846	787.6668	831.2175	866.7453	893.8229	926.1136	997.4502	1033.4249	1054.3684	1078.1593	1121.1194	1143.0099	1170.7796	1208.981	1267.9781	1306.3776	1327.3329	1368.9145	1389.4256	1474.4095	1519.3589	1820.137	1897.4657	3016.2569	3054.6008	3115.236	3154.2962	3477.8651	3620.4495
O=C1C2CNC(=O)C1N2	O=C1[C@H]2CNC(=O)[C@@H]1N2	
InChI=1S/C5H6N2O2/c8-4-2-1-6-5(9)3(4)7-2/h2-3,7H,1H2,(H,6,9)	InChI=1S/C5H6N2O2/c8-4-2-1-6-5(9)3(4)7-2/h2-3,7H,1H2,(H,6,9)/t2-,3-/m1/s1
