23
gdb 112555	2.30336	1.22389	1.03027	2.8241	81.36	-0.2426	0.0703	0.3129	1316.0993	0.203624	-425.421527	-425.411123	-425.410179	-425.456627	39.083	
C	-0.5752145294	 1.4085915528	-0.0065520521	-0.420916
C	-0.1485541679	-0.0524106814	-0.0803587876	-0.113711
C	 0.9717591654	-0.4973442815	-1.0524302832	 0.113496
C	 1.8641829256	 0.5325447395	-1.7312593475	-0.071183
O	 3.0422380221	-0.0974268444	-2.1981297885	-0.42384
O	 1.7061604965	-1.1398963094	 0.0203589321	-0.359926
C	 0.7542540075	-0.6791533113	 1.0322713762	 0.426078
C	 1.4333170086	 0.2770904645	 2.0057995511	-0.429794
C	 0.1421272134	-1.8704931858	 1.7573169212	-0.427765
H	 0.2630787617	 2.0913597012	 0.1497787213	 0.122569
H	-1.0802139037	 1.7092277645	-0.930696423	 0.121364
H	-1.2834009009	 1.5615588915	 0.8148344686	 0.118824
H	-1.0419392759	-0.6672498606	-0.2237845209	 0.078037
H	 0.665650357	-1.2394785359	-1.8009904448	 0.079445
H	 1.3603233332	 0.9662807154	-2.6024903092	 0.103811
H	 2.1039221018	 1.3534771088	-1.0379176708	 0.080204
H	 3.3759495657	-0.6046455538	-1.4468781129	 0.291198
H	 1.9055662932	 1.1154797401	 1.4886600362	 0.11864
H	 0.71560046	 0.6768313095	 2.7300889679	 0.115585
H	 2.2124492247	-0.2566223295	 2.559584618	 0.123498
H	 0.9042186903	-2.3999975245	 2.3384422213	 0.121716
H	-0.6453421225	-1.5426857755	 2.4451296363	 0.113881
H	-0.2921933965	-2.574852494	 1.04251662	 0.118791
54.3671	109.8931	169.3504	191.7629	211.0497	227.5516	246.769	270.679	334.6703	360.5326	395.7786	435.5981	477.8488	520.8179	533.2093	663.4201	751.0646	832.8982	868.5903	925.2301	937.7538	974.8994	993.8904	1001.97	1037.7014	1053.6978	1082.4732	1140.5865	1151.7661	1181.5329	1212.0741	1226.1565	1261.1695	1290.7997	1311.61	1349.4478	1382.8344	1400.3666	1404.5392	1412.5358	1421.2439	1439.6741	1471.7939	1481.399	1490.1796	1496.02	1502.9411	1506.4768	1511.8422	2983.6063	3018.8348	3030.6029	3036.9317	3040.0609	3057.4788	3067.2123	3095.3538	3099.6703	3107.9512	3114.3049	3118.8105	3126.2282	3772.9457
CC1C(CO)OC1(C)C	C[C@H]1[C@@H](CO)OC1(C)C	
InChI=1S/C7H14O2/c1-5-6(4-8)9-7(5,2)3/h5-6,8H,4H2,1-3H3	InChI=1S/C7H14O2/c1-5-6(4-8)9-7(5,2)3/h5-6,8H,4H2,1-3H3/t5-,6+/m0/s1
