18
gdb 57081	3.0696	1.20698	0.91478	3.6077	78.19	-0.2506	0.0003	0.2509	1258.1852	0.147548	-401.970158	-401.961417	-401.960473	-402.004084	31.809	
C	-0.0523679762	 1.5456484889	-0.0280415537	-0.399808
C	-0.0559966547	 0.0079264649	 0.0379116399	-0.145219
C	 0.7721870111	-0.4779990038	 1.1438298651	 0.266093
N	 1.4031844986	-0.8684841425	 2.0304681056	-0.331329
C	-1.500424738	-0.5568714949	 0.1751453937	 0.084066
O	-2.2713726537	-0.1197201435	-0.9400949345	-0.276721
C	-2.8169476039	-1.2386970369	-1.6416954514	-0.119491
C	-2.322613559	-2.4431481276	-0.8938948272	-0.101034
C	-1.5850663965	-2.0594395181	 0.1409428442	-0.098193
H	 0.9585189312	 1.9279441432	-0.1876520606	 0.13274
H	-0.692179351	 1.8659166655	-0.8520962957	 0.147624
H	-0.4379483282	 1.9736436428	 0.9019564139	 0.134251
H	 0.3596961453	-0.3972449103	-0.8926121451	 0.127108
H	-1.932061102	-0.1415256725	 1.1003058702	 0.100287
H	-3.9153545236	-1.1683899602	-1.6483022825	 0.115083
H	-2.4837277097	-1.2216215118	-2.6903091521	 0.11313
H	-2.5601003873	-3.4584933327	-1.183943723	 0.116165
H	-1.0952192325	-2.6892260607	 0.8712495433	 0.135245
70.4935	94.2683	129.7061	217.6638	229.5829	239.9669	328.917	391.4183	449.7709	533.8186	581.1413	720.2572	770.8691	817.3765	848.0665	899.4007	939.942	953.1247	965.2292	1018.5422	1045.0072	1080.037	1095.157	1116.3514	1125.303	1135.6524	1197.2241	1272.1481	1301.8611	1326.7706	1360.1802	1368.7646	1385.7437	1406.5548	1494.6674	1499.7165	1520.7948	1692.1087	2352.6552	2970.3687	2985.8266	3005.4459	3044.4347	3053.14	3125.7762	3147.2359	3216.2604	3241.538
CC(C#N)C1OCC=C1	C[C@@H](C#N)[C@H]1OCC=C1	
InChI=1S/C7H9NO/c1-6(5-8)7-3-2-4-9-7/h2-3,6-7H,4H2,1H3	InChI=1S/C7H9NO/c1-6(5-8)7-3-2-4-9-7/h2-3,6-7H,4H2,1H3/t6-,7-/m0/s1
