20
gdb 89256	2.41467	1.76672	1.29306	2.4858	77.78	-0.2202	0.0613	0.2816	1050.3405	0.170582	-403.069457	-403.061146	-403.060202	-403.101686	33.239	
C	-0.110897835	 1.6078550604	-0.0176322628	-0.421012
C	 0.0605364425	 0.0938699392	 0.0042684259	 0.03986
C	 1.022742645	-0.6457386888	-0.9951972174	-0.350673
C	 1.5772840121	-1.4862290268	 0.2021841243	 0.421227
O	 1.4144961383	-2.8720684157	 0.1697112737	-0.485998
C	 2.8343659558	-0.9627529028	 0.9346771995	-0.108976
C	 2.9283828086	 0.5028565721	 0.9491641856	-0.247655
N	 1.9882323446	-0.1331943905	 1.8985206327	-0.152868
C	 0.7431627035	-0.6526944612	 1.1885727033	-0.040245
H	 0.8290818574	 2.1519797656	 0.0982673414	 0.123134
H	-0.5662493965	 1.9285591931	-0.9611551207	 0.116191
H	-0.7723206334	 1.9288237738	 0.7943934132	 0.123065
H	-0.9339058873	-0.3552327764	-0.0981118746	 0.087599
H	 0.5032103789	-1.2626571038	-1.7322196426	 0.102023
H	 1.7528307136	-0.0191462619	-1.5148075165	 0.096846
H	 2.022353726	-3.2325596592	-0.4861463134	 0.278827
H	 3.6178097346	-1.6195157852	 1.3036204651	 0.094914
H	 3.7749964756	 0.9435491394	 1.4693081613	 0.121666
H	 2.5765397724	 1.0925569192	 0.1120760399	 0.11415
H	 0.0944638832	-1.1187208606	 1.9302866021	 0.087924
158.5409	169.4828	206.8441	228.9548	260.4262	329.2757	341.4814	420.1402	468.4391	531.9797	619.1465	644.9417	708.7293	733.1172	818.284	858.8281	878.6322	908.6708	944.1106	958.8451	991.275	1027.964	1043.719	1071.9682	1107.9014	1122.3077	1130.7738	1170.1048	1179.0834	1186.7346	1217.2881	1241.1474	1255.1808	1283.6602	1312.0606	1343.5157	1362.8332	1399.8981	1413.5886	1476.2119	1493.9906	1497.7323	1516.1854	3031.726	3037.4659	3057.4718	3093.984	3111.0851	3113.5835	3119.5049	3127.2308	3145.3436	3217.2085	3788.2339
CC1CC2(O)C3CN3C12	C[C@H]1C[C@@]2(O)[C@H]3CN3[C@@H]12	
InChI=1S/C7H11NO/c1-4-2-7(9)5-3-8(5)6(4)7/h4-6,9H,2-3H2,1H3	InChI=1S/C7H11NO/c1-4-2-7(9)5-3-8(5)6(4)7/h4-6,9H,2-3H2,1H3/t4-,5+,6-,7+,8?/m0/s1
