20
gdb 16807	3.41066	1.81352	1.37112	0.2817	80.82	-0.2167	0.0291	0.2458	985.3282	0.177747	-311.879246	-311.871387	-311.870443	-311.910894	30.884	
C	-0.1878302336	 1.5916878647	 0.059242137	-0.38892
C	 0.0238913642	 0.070971045	 0.0120658362	-0.023847
C	 0.8241021028	-0.4170252418	-1.1815856793	-0.19099
C	 1.8206840822	-1.2447882902	-0.8480820467	 0.326047
C	 2.7850584966	-1.9299126596	-1.7645003303	-0.495673
C	 1.9039582963	-1.3937860654	 0.6408439576	-0.130706
C	 2.2494590527	-0.1177096962	 1.3846681661	-0.283037
C	 0.8048983626	-0.5094587119	 1.1978638299	-0.043771
H	 0.7671291815	 2.1238560556	 0.1088165899	 0.114858
H	-0.7207141248	 1.9412778732	-0.8316137469	 0.109063
H	-0.7796201491	 1.8775680087	 0.9350466477	 0.111025
H	-0.9735397499	-0.3952749642	-0.0099555202	 0.075429
H	 0.5999884781	-0.0957984625	-2.1942324427	 0.078675
H	 2.581409654	-1.6970117831	-2.8132004581	 0.12087
H	 3.8196039054	-1.639158205	-1.5417655914	 0.126048
H	 2.7370855702	-3.0199615276	-1.6445257715	 0.123256
H	 2.1702950715	-2.350540114	 1.0787345612	 0.077945
H	 2.6520034916	-0.212612038	 2.3881961707	 0.10503
H	 2.6613157438	 0.7046924418	 0.8087667634	 0.109538
H	 0.2524055939	-0.8041415394	 2.0827088773	 0.079159
140.2752	191.6798	202.8247	228.9755	236.0002	330.5857	397.9107	483.2428	573.3569	592.9225	686.1289	765.8039	804.7919	833.882	850.8095	904.9336	925.9544	967.1595	1013.2415	1025.7717	1044.522	1058.4487	1066.8033	1083.9662	1101.6972	1113.6269	1131.7108	1186.5126	1203.7189	1273.473	1309.4034	1338.1331	1371.1559	1380.0938	1408.5051	1414.077	1476.0507	1479.2718	1490.0961	1497.0354	1498.9573	1706.9333	2974.6175	3016.1034	3030.9886	3061.3276	3096.3177	3106.1126	3109.7102	3121.9057	3155.9108	3171.7117	3177.3555	3209.5819
CC1C=C(C)C2CC12	C[C@H]1C=C(C)[C@H]2C[C@@H]12	
InChI=1S/C8H12/c1-5-3-6(2)8-4-7(5)8/h3,5,7-8H,4H2,1-2H3	InChI=1S/C8H12/c1-5-3-6(2)8-4-7(5)8/h3,5,7-8H,4H2,1-2H3/t5-,7-,8+/m0/s1
