18
gdb 92850	3.0693	1.552	1.10637	3.8656	80.82	-0.2281	-0.0223	0.2058	1102.0917	0.15005	-401.977363	-401.969806	-401.968861	-402.009607	29.058	
C	-0.0896638366	 1.575985135	-0.0166186395	-0.393013
C	 0.0031715172	 0.0449306886	 0.022308959	-0.163624
C	 0.9084460985	-0.5626304401	-1.1302664481	-0.174702
N	 1.9967227305	-1.364110072	-0.5333493832	-0.339674
C	 1.8246150208	-1.2834466436	 0.7230276792	 0.405176
O	 2.5429108667	-1.8244444394	 1.7284630542	-0.257502
C	 1.9155621694	-1.4143459731	 2.9640053352	-0.129341
C	 0.7292671058	-0.5587250384	 2.5619874335	-0.32425
C	 0.7040949897	-0.5018972437	 1.231137587	 0.32148
H	 0.9052283754	 2.0275818191	 0.0522617823	 0.125472
H	-0.5487484505	 1.9102399044	-0.9524203336	 0.120941
H	-0.6933886989	 1.9598479427	 0.8117604353	 0.117261
H	-1.0090553931	-0.36970916	-0.047605414	 0.097404
H	 0.3222232901	-1.1937119491	-1.8078591602	 0.109309
H	 1.3426107006	 0.236927074	-1.7434847748	 0.108196
H	 1.6270760053	-2.314183113	 3.5228844896	 0.130239
H	 2.655304633	-0.8687668199	 3.564275491	 0.130196
H	 0.0658977861	-0.1091106115	 3.2891063071	 0.116432
70.1558	178.6935	239.9573	249.3667	283.3135	348.4956	462.7094	515.8389	649.4309	659.733	740.139	770.7009	823.9856	829.8653	888.2283	921.974	936.0784	974.1629	1008.851	1025.0705	1070.9042	1098.4202	1113.1192	1148.9503	1193.4939	1216.8433	1230.6174	1274.8811	1311.5674	1330.416	1354.4012	1409.0673	1416.9	1495.0896	1496.7549	1501.0327	1505.2341	1723.5273	1742.198	3016.7739	3025.4552	3033.6442	3035.0888	3047.1695	3061.0831	3105.3425	3108.3133	3221.3453
CC1CN=C2OCC=C12	C[C@H]1CN=C2OCC=C12	
InChI=1S/C7H9NO/c1-5-4-8-7-6(5)2-3-9-7/h2,5H,3-4H2,1H3	InChI=1S/C7H9NO/c1-5-4-8-7-6(5)2-3-9-7/h2,5H,3-4H2,1H3/t5-/m0/s1
