14
gdb 25628	3.67297	0.97607	0.77488	0.4295	80.68	-0.204	-0.018	0.186	1410.2501	0.100578	-436.699239	-436.690747	-436.689803	-436.734165	29.602	
C	-0.1789372474	 1.5007225907	-0.0151211727	-0.512163
C	-0.0776211064	 0.0512680836	-0.0085271988	 0.239882
C	 0.0114782453	-1.1531939909	-0.0030159991	-0.095812
C	 0.1334955844	-2.5440587384	 0.0043909933	 0.10577
C	 1.1871239741	-3.418633919	 0.0572765275	 0.199491
O	 2.492171897	-3.1189546928	 0.1212205687	-0.416826
N	 0.738886958	-4.7176266597	 0.0366343951	-0.331209
C	-0.5535176621	-4.5994915753	-0.0271698933	 0.059408
O	-1.0076605426	-3.3428313657	-0.0509323117	-0.173741
H	 0.8169000755	 1.9563250647	-0.0460897824	 0.157327
H	-0.7348589679	 1.8594449811	-0.8888168867	 0.152763
H	-0.6868445316	 1.8734404665	 0.8817432862	 0.152188
H	 2.9703094557	-3.9571868178	 0.1458293138	 0.308999
H	-1.2873489521	-5.389488387	-0.0624217398	 0.153925
20.6135	83.4719	107.3686	248.9591	278.9432	331.4157	384.0153	390.8586	476.247	487.2552	574.5088	647.2196	723.2476	742.8751	832.9985	954.9486	989.9001	1048.4009	1050.2852	1068.1533	1176.2164	1197.1411	1317.596	1352.712	1411.3496	1439.6666	1471.0481	1477.3347	1540.9861	1699.059	2350.0252	3024.1703	3082.2267	3090.9615	3274.286	3802.3277
CC#CC1=C(O)N=CO1	CC#Cc1c(O)nco1	
InChI=1S/C6H5NO2/c1-2-3-5-6(8)7-4-9-5/h4,8H,1H3	InChI=1S/C6H5NO2/c1-2-3-5-6(8)7-4-9-5/h4,8H,1H3
