18
gdb 95563	2.48259	1.61075	1.05675	2.8553	73.81	-0.2606	-0.02	0.2406	1129.0694	0.148211	-439.127696	-439.11933	-439.118385	-439.160918	31.154	
C	-0.4306467538	 1.3429813464	 0.0405764682	-0.39925
C	 0.1432522589	-0.0756047607	 0.0736249706	-0.128791
C	 0.9464111318	-0.4305721895	-1.1984305377	-0.234063
C	 0.9109649	-1.9263286277	-1.5126017095	-0.156119
N	 1.2434494475	-2.869253961	-0.4681670795	-0.233772
C	 1.4904044526	-2.6449925708	 0.7385295258	 0.134102
O	 1.582781609	-1.4966194324	 1.5105050519	-0.230461
C	 1.0373335315	-0.2499386987	 1.2853209167	 0.438535
O	 1.31493345	 0.6157511374	 2.0631048009	-0.296226
H	 0.3657725911	 2.0816622195	-0.0838592057	 0.134818
H	-1.1308996813	 1.4426926987	-0.7939132989	 0.11168
H	-0.9547947188	 1.5792377369	 0.9689859187	 0.134405
H	-0.6801202792	-0.7979698673	 0.1676397572	 0.108078
H	 0.5178513936	 0.1061821999	-2.0518083033	 0.112284
H	 1.9793005462	-0.0762880054	-1.0991504809	 0.119198
H	-0.0973951696	-2.1961794719	-1.8564760031	 0.124179
H	 1.5721423923	-2.1459665128	-2.3599449396	 0.124962
H	 1.7380483283	-3.4744231206	 1.3987859484	 0.13644
71.2341	107.7754	204.7058	226.0373	280.4453	307.6988	341.6101	396.7914	461.0036	537.3088	573.9587	688.5188	765.9552	820.2616	846.2819	854.9271	948.6213	970.0624	987.7247	1048.3527	1060.25	1105.7412	1110.4838	1144.5531	1147.1447	1216.2627	1281.6471	1324.3425	1356.5504	1377.9706	1397.8322	1416.1855	1445.6313	1473.4903	1490.2621	1491.4893	1498.1065	1781.539	1854.6326	3010.5195	3013.7522	3032.8734	3048.6566	3051.3785	3077.7094	3121.0081	3132.9837	3154.9645
CC1CCN=COC1=O	C[C@H]1CCN=COC1=O	
InChI=1S/C6H9NO2/c1-5-2-3-7-4-9-6(5)8/h4-5H,2-3H2,1H3	InChI=1S/C6H9NO2/c1-5-2-3-7-4-9-6(5)8/h4-5H,2-3H2,1H3/t5-/m0/s1
