17
gdb 76316	1.94643	1.81686	1.3002	3.7766	68.01	-0.2458	0.0146	0.2604	1030.5637	0.135995	-455.132686	-455.123609	-455.122665	-455.16644	33.512	
N	-0.0863012074	 1.5329617946	-0.0356553406	-0.509852
C	-0.0541208371	 0.0958443796	-0.0036410381	 0.01921
C	 0.3834709464	-0.6671426925	 1.2898663214	 0.065691
O	 0.1595707067	 0.1421409843	 2.4173732719	-0.437113
C	-0.802752729	-1.655543414	 1.0799294121	 0.112936
O	-1.5113964638	-1.9920873945	 2.2438206415	-0.438073
C	-1.4445453118	-0.6429120889	 0.0588803459	-0.243433
C	-2.5194070188	 0.1127189569	 0.6718221138	 0.291052
N	-3.3862432742	 0.6345299628	 1.2345236121	-0.341216
H	-0.3189193935	 1.8789161899	 0.8920879856	 0.254453
H	 0.8297000303	 1.9027949713	-0.2676157814	 0.235895
H	 0.4912542482	-0.2777228846	-0.8740796489	 0.092281
H	 1.3929808482	-1.0978646072	 1.2986621179	 0.068927
H	-0.3149283176	-0.4112303923	 3.0546499692	 0.292372
H	-0.5002588636	-2.5759094214	 0.5730431848	 0.100284
H	-2.2996289107	-1.4356579732	 2.3088797669	 0.308548
H	-1.796986912	-1.0695048709	-0.882436554	 0.128037
70.3613	126.2885	158.4119	182.4594	235.8989	278.5275	296.2688	362.6263	414.3582	497.0784	521.0267	553.2689	607.3674	681.563	765.1128	780.4892	831.0502	877.9224	920.7676	939.5411	1049.614	1098.3159	1125.0079	1142.3754	1170.548	1210.0087	1239.3871	1243.0761	1253.5166	1331.7677	1333.9695	1366.3177	1375.6735	1403.2143	1431.3445	1667.4672	2340.105	3016.0087	3072.7056	3080.3671	3098.0905	3494.1274	3575.7157	3728.6687	3746.9115
NC1C(O)C(O)C1C#N	N[C@H]1[C@@H](O)[C@@H](O)[C@H]1C#N	
InChI=1S/C5H8N2O2/c6-1-2-3(7)5(9)4(2)8/h2-5,8-9H,7H2	InChI=1S/C5H8N2O2/c6-1-2-3(7)5(9)4(2)8/h2-5,8-9H,7H2/t2-,3+,4-,5+/m0/s1
