17
gdb 10406	2.55674	2.00388	1.42916	4.1356	68.29	-0.275	0.0084	0.2834	941.1157	0.141455	-363.862382	-363.854024	-363.85308	-363.895528	29.789	
C	-0.2139286279	 1.5113828476	-0.090748359	-0.397425
C	 0.0640691278	 0.007546025	-0.0333930696	-0.230718
C	 0.8410394478	-0.5063144189	-1.2459817562	 0.279931
C	 0.8764227873	-2.0457468705	-1.4707878625	-0.335164
C	 0.1885309903	-1.7237507098	-2.8106195507	-0.067482
O	 0.1103377792	-0.3156164021	-2.4815992633	-0.301259
C	 2.1729010598	 0.1238680382	-1.3285294891	 0.269715
N	 3.2233373016	 0.6030141274	-1.3838277644	-0.343006
H	 0.7155717587	 2.0883108758	-0.0732144976	 0.142004
H	-0.7554586544	 1.7645461352	-1.0061685398	 0.142023
H	-0.8206989596	 1.8216052201	 0.7642073307	 0.119317
H	 0.6271515854	-0.2518549352	 0.8716627628	 0.116207
H	-0.8779402265	-0.5511794372	-0.0015099967	 0.10703
H	 1.8665930477	-2.4956684856	-1.5296332645	 0.136522
H	 0.2640893834	-2.5932704376	-0.7530599752	 0.124233
H	 0.8030431986	-1.894924571	-3.701178241	 0.121375
H	-0.8046084493	-2.1560357412	-2.967947114	 0.116696
70.1583	99.8634	159.7957	193.6836	209.8092	255.4075	376.7291	410.883	536.3961	576.7038	641.9692	767.0003	791.088	867.1522	900.0833	943.0902	986.8354	1005.9532	1027.3942	1050.5277	1133.0729	1161.0185	1168.3495	1204.9943	1239.8515	1263.1862	1312.8058	1346.9061	1366.5664	1412.3406	1471.3422	1487.9176	1497.4426	1508.7774	1529.2437	2349.5782	3032.6383	3037.4734	3047.1519	3074.8828	3083.2389	3092.2509	3118.6589	3126.209	3155.0951
CCC1(CCO1)C#N	CC[C@]1(CCO1)C#N	
InChI=1S/C6H9NO/c1-2-6(5-7)3-4-8-6/h2-4H2,1H3	InChI=1S/C6H9NO/c1-2-6(5-7)3-4-8-6/h2-4H2,1H3/t6-/m0/s1
