19
gdb 117744	2.40088	1.23762	1.04192	1.9574	73.23	-0.2531	-0.0535	0.1996	1217.4954	0.155378	-460.177319	-460.166987	-460.166043	-460.212864	36.43	
C	-0.3646000395	 1.6003265515	 0.0404407986	-0.453505
C	 0.010021952	 0.1189053061	 0.044206635	 0.104021
C	 1.0324244174	-0.280901711	 1.1427494792	-0.265951
C	 0.5976977712	 0.1542583323	 2.5470579674	-0.082186
O	-0.7473880438	-0.1847410379	 2.8448583023	-0.406418
C	-1.234077228	-0.7658540053	 0.1875739174	 0.136058
O	-1.1894932477	-1.9592557677	 0.363302405	-0.286339
C	 0.6436263155	-0.2906408774	-1.2949125332	 0.134104
O	 0.8602671523	 0.4654665392	-2.2028015985	-0.241518
H	 0.528247962	 2.2286015436	-0.0071310783	 0.130449
H	-0.9727671569	 1.8392016713	-0.8360262677	 0.134253
H	-0.9319646194	 1.8582370035	 0.9379949514	 0.137659
H	 1.1524804372	-1.3694163495	 1.1115077714	 0.124951
H	 2.0115376411	 0.1622188808	 0.9234879852	 0.113299
H	 1.293112079	-0.2713085998	 3.2853869683	 0.103108
H	 0.6521525414	 1.2424214816	 2.6451125277	 0.122432
H	-0.8358270273	-1.1435264455	 2.799668774	 0.297621
H	-2.2006993046	-0.2345244226	 0.0588095326	 0.094799
H	 0.9010281382	-1.3699002735	-1.3536176877	 0.103163
70.3174	84.8699	113.2431	133.3006	189.6741	232.909	238.3517	273.7321	316.1727	330.6843	376.5639	440.4744	490.127	574.5546	665.097	762.0811	852.2974	866.5014	897.5695	977.5932	985.8891	1007.7347	1050.3082	1092.1828	1130.6672	1159.4852	1204.5453	1253.6422	1283.6303	1358.2102	1386.0975	1399.5521	1417.7989	1424.3213	1425.3266	1473.7526	1490.9051	1495.4778	1513.7226	1788.7578	1836.7688	2907.5093	2909.2019	2999.8247	3035.8905	3053.6292	3074.5437	3095.2974	3124.973	3132.5684	3804.8164
CC(CCO)(C=O)C=O	CC(CCO)(C=O)C=O	
InChI=1S/C6H10O3/c1-6(4-8,5-9)2-3-7/h4-5,7H,2-3H2,1H3	InChI=1S/C6H10O3/c1-6(4-8,5-9)2-3-7/h4-5,7H,2-3H2,1H3
