16
gdb 71212	2.41698	2.11138	1.62657	2.257	67.67	-0.2216	-0.0275	0.1941	880.776	0.125003	-437.838856	-437.831815	-437.830871	-437.870141	27.742	
C	 0.0366006816	 1.5020357832	 0.0009071833	-0.517251
C	 0.0355985076	 0.0109777165	 0.0894723322	 0.276193
O	 0.7866977266	-0.7064520626	-0.9585716881	-0.332207
C	 0.8210008114	-1.8010890037	-0.0292035968	 0.128874
C	-0.6646196309	-2.1540300604	 0.3956775045	-0.186981
N	-0.285138648	-1.8158327288	 1.8095651236	-0.320456
C	 0.7091179921	-0.8984154726	 1.2079872681	-0.106168
C	-1.2707142491	-0.8108101836	-0.0424186551	 0.451924
O	-2.3810554091	-0.484341456	-0.3490783321	-0.335668
H	 1.0565079246	 1.8958753101	 0.0067081987	 0.132806
H	-0.4625377041	 1.8279810976	-0.9165470714	 0.150069
H	-0.5093080347	 1.926663214	 0.8493953108	 0.133017
H	 1.5491588936	-2.5814662121	-0.2349449386	 0.107102
H	-1.184638347	-3.0880996757	 0.2008163414	 0.097532
H	-1.0324186888	-1.3704666304	 2.3448288986	 0.225566
H	 1.5214583741	-0.5046504054	 1.817777461	 0.095649
139.5064	174.9521	216.3797	266.8986	417.4089	444.8008	510.8011	622.0747	665.5381	731.7013	771.2776	805.8347	807.0399	828.6118	855.9605	871.7225	943.0678	971.3971	1003.2619	1052.4982	1067.5532	1106.3381	1124.4529	1159.1357	1185.2823	1198.0292	1237.4997	1269.0297	1296.5242	1332.1607	1364.4977	1417.8636	1474.6203	1486.6087	1888.5256	3042.7394	3114.7922	3121.4995	3124.7254	3156.0545	3164.4824	3437.0418
CC12OC3C(NC13)C2=O	C[C@@]12O[C@@H]3[C@@H](N[C@H]13)C2=O	
InChI=1S/C6H7NO2/c1-6-4-3(9-6)2(7-4)5(6)8/h2-4,7H,1H3	InChI=1S/C6H7NO2/c1-6-4-3(9-6)2(7-4)5(6)8/h2-4,7H,1H3/t2-,3-,4+,6-/m1/s1
