21
gdb 121178	2.33957	1.01981	0.77422	4.5349	83.35	-0.2492	0.016	0.2652	1527.6008	0.183039	-383.266268	-383.256603	-383.255659	-383.301516	34.95	
C	-0.016474669	 1.5870300844	 0.2160449626	-0.381731
C	-0.019935969	 0.0718643746	-0.0042604932	-0.17668
C	-1.4255067209	-0.535994374	 0.0745378712	-0.175108
C	-1.4298023484	-2.0484308526	-0.1229551865	-0.020439
C	-0.9813360646	-2.8836277726	 1.1097923072	-0.175951
N	-2.4059812052	-3.1118832619	 1.4455649361	-0.298804
C	-2.8147857798	-2.7586941307	 0.0719565975	-0.146528
C	-4.0391476745	-1.9625823423	-0.0364670998	 0.304034
N	-5.0024319342	-1.3330664713	-0.1456161005	-0.33367
H	 0.99595578	 1.9969184491	 0.1493512517	 0.112665
H	-0.6335249404	 2.0965435896	-0.5320008405	 0.119452
H	-0.4166919208	 1.8433582085	 1.2029484441	 0.119256
H	 0.4188911369	-0.1586124212	-0.9843101052	 0.095471
H	 0.6310753763	-0.4064336771	 0.7391971816	 0.098187
H	-1.88187758	-0.2968352909	 1.0434117744	 0.118487
H	-2.0654511929	-0.0721262558	-0.6869344719	 0.112908
H	-0.9394844319	-2.3123161111	-1.0628199468	 0.083507
H	-0.4272145945	-3.7890218623	 0.8272190592	 0.096566
H	-0.4215176839	-2.3557120897	 1.8886298736	 0.112063
H	-2.6599218829	-4.0454064082	 1.7485722729	 0.228222
H	-2.9120070202	-3.6162707645	-0.6096520277	 0.108093
73.7653	92.5608	102.9985	121.359	181.9948	246.6873	256.1459	315.4654	360.7105	432.1385	546.4957	562.0909	671.8106	745.0179	813.5674	837.8519	873.6545	910.3443	943.2874	982.661	997.716	1034.0737	1048.5352	1063.4598	1108.5376	1117.8013	1147.4772	1174.6301	1218.5988	1248.8819	1273.7851	1308.8238	1321.011	1334.9739	1359.5451	1374.94	1394.0162	1401.7869	1414.6859	1481.7669	1493.5648	1500.5786	1510.5721	1521.5989	2354.0643	2992.4304	3005.9959	3012.794	3025.0809	3032.7679	3039.3447	3064.5626	3067.3681	3087.0049	3100.6781	3104.9774	3535.8702
CCCC1CNC1C#N	CCC[C@H]1CN[C@H]1C#N	
InChI=1S/C7H12N2/c1-2-3-6-5-9-7(6)4-8/h6-7,9H,2-3,5H2,1H3	InChI=1S/C7H12N2/c1-2-3-6-5-9-7(6)4-8/h6-7,9H,2-3,5H2,1H3/t6-,7-/m0/s1
