19
gdb 102939	2.95542	0.72769	0.60709	3.3994	78.31	-0.2532	-0.0385	0.2147	1777.6931	0.157029	-419.21368	-419.203204	-419.20226	-419.250708	35.592	
C	 0.1398798425	 1.5542553188	-0.0577135346	-0.331291
N	-0.1566282473	 0.1360015449	 0.1283528087	-0.285846
C	 0.6487235001	-0.5148349471	 1.154688884	-0.111135
C	 0.1567864722	-1.9521958319	 1.4265326992	-0.214509
C	-1.2307929832	-2.003016422	 2.0867795502	-0.302754
C	-1.5706685852	-3.4037422671	 2.5580470953	 0.160575
O	-2.5794712286	-3.9942076055	 2.2783359554	-0.226561
C	 2.0579040132	-0.556716562	 0.719123397	 0.30759
N	 3.1683417996	-0.5969444314	 0.4031674092	-0.324964
H	 1.1570863718	 1.6672937799	-0.4443510294	 0.1536
H	-0.5485265127	 1.9670866707	-0.7991497146	 0.130844
H	 0.0591870238	 2.1535691434	 0.8657525724	 0.101728
H	-1.1344993683	 0.0202195947	 0.3669252935	 0.231388
H	 0.6436993168	 0.0378832359	 2.1159294912	 0.101023
H	 0.1473255485	-2.4990859571	 0.478703386	 0.144382
H	 0.8866310409	-2.4437648934	 2.079077656	 0.128281
H	-1.2330644826	-1.3540326687	 2.9757706722	 0.126228
H	-2.0329340885	-1.6749502382	 1.4199798274	 0.130868
H	-0.793150013	-3.866921814	 3.209868051	 0.080552
54.9121	60.0655	88.7427	97.0128	139.1202	181.7603	237.2006	271.0959	295.9874	307.1558	446.3792	521.4973	569.8094	587.8039	725.8901	773.7532	821.6647	897.7305	976.0393	1004.133	1045.9315	1088.5567	1097.8214	1141.3622	1163.5805	1189.5962	1233.282	1265.8667	1303.3622	1340.9307	1358.2967	1387.8721	1425.9686	1460.9565	1462.3507	1482.5858	1486.1161	1495.4873	1519.9241	1841.865	2361.1124	2860.413	2895.2729	2957.7503	3006.0051	3049.6629	3079.5006	3090.9236	3107.5065	3123.7681	3546.4294
CNC(CCC=O)C#N	CN[C@@H](CCC=O)C#N	
InChI=1S/C6H10N2O/c1-8-6(5-7)3-2-4-9/h4,6,8H,2-3H2,1H3	InChI=1S/C6H10N2O/c1-8-6(5-7)3-2-4-9/h4,6,8H,2-3H2,1H3/t6-/m0/s1
