19
gdb 99383	5.57054	0.59993	0.57768	4.5591	75.43	-0.2407	-0.021	0.2197	1906.8013	0.15744	-456.38959	-456.378808	-456.377864	-456.427399	36.094	
C	-0.0238285554	 1.1383923884	 0.7170799685	-0.32363
N	-0.0272151284	-0.1210738126	-0.0053387555	-0.358059
C	-1.1884584293	-0.8554527875	-0.1076767525	 0.493007
O	-2.2094446503	-0.5933519459	 0.5079323277	-0.409957
N	-1.1001649108	-1.9318723094	-0.9774665481	-0.360554
C	-2.192189611	-2.8896217504	-1.0163029148	-0.163681
C	-2.2440920351	-3.8285499682	 0.2097830723	-0.273112
C	-3.466726129	-4.7130185077	 0.1794025503	 0.155553
O	-3.449133749	-5.9172767265	 0.1507270878	-0.239341
H	-0.2602320305	 1.9966417041	 0.0742742585	 0.12219
H	-0.784198297	 1.0775973482	 1.495736093	 0.167995
H	 0.9544429061	 1.3025504766	 1.1778381446	 0.121795
H	 0.6464905226	-0.2210201135	-0.7481655751	 0.237575
H	-0.1785126117	-2.3030946957	-1.1530508212	 0.236616
H	-3.1215589567	-2.3178884644	-1.0748051454	 0.143846
H	-2.0969176233	-3.4733857216	-1.9369908648	 0.114885
H	-1.3516554117	-4.4584526559	 0.269665133	 0.109001
H	-2.3040583277	-3.1927295164	 1.101865987	 0.14695
H	-4.4330255119	-4.1559552016	 0.1755405646	 0.078921
45.8074	54.5574	72.0676	84.568	93.6484	147.1405	229.5596	272.8247	303.081	357.5333	426.3477	478.5634	520.9805	554.5005	701.6498	768.8297	785.4672	855.7023	945.2884	979.7732	1053.7942	1088.9182	1129.3711	1151.4559	1170.7618	1182.3733	1218.0535	1261.5752	1279.0116	1340.2726	1402.6278	1430.2334	1442.0834	1461.1192	1476.4186	1487.9338	1497.4188	1517.1361	1563.9577	1777.919	1832.2492	2858.9028	3016.0082	3036.3819	3058.8763	3086.4859	3098.504	3119.4641	3157.5933	3608.7861	3624.6616
CNC(=O)NCCC=O	CNC(=O)NCCC=O	
InChI=1S/C5H10N2O2/c1-6-5(9)7-3-2-4-8/h4H,2-3H2,1H3,(H2,6,7,9)	InChI=1S/C5H10N2O2/c1-6-5(9)7-3-2-4-8/h4H,2-3H2,1H3,(H2,6,7,9)
