18
gdb 18732	3.11042	2.15912	1.47004	1.8739	67.31	-0.2413	0.0732	0.3145	873.2213	0.155337	-384.923175	-384.91597	-384.915025	-384.954379	28.384	
O	-0.0781283465	 1.4588081116	 0.0811668233	-0.436724
C	 0.0000262485	 0.0378465019	 0.0408261769	 0.112997
C	 0.8383642753	-0.5382533786	 1.1924203443	-0.256961
C	 0.5759145161	-2.0366557164	 1.3316261087	-0.069628
O	-0.7671115745	-2.2771332755	 1.7219408889	-0.256093
C	-1.7336439212	-1.7302274705	 0.8685825504	 0.093563
C	-2.3198342224	-0.3956183554	 1.2374559508	-0.297495
C	-1.4089674422	-0.5128846051	 0.0337906223	-0.045929
H	 0.8194661402	 1.8042670424	 0.0278897856	 0.277431
H	 0.472755011	-0.2817478282	-0.9036203727	 0.063575
H	 1.9037095149	-0.351679017	 1.0079387368	 0.087787
H	 0.572507924	-0.0363392219	 2.1294138352	 0.114596
H	 0.806781655	-2.5541320615	 0.3853164185	 0.087248
H	 1.1963204787	-2.4796247746	 2.1156078999	 0.109184
H	-2.3831867759	-2.4894194098	 0.4387429575	 0.09102
H	-3.3736830377	-0.2112908523	 1.0610079904	 0.110194
H	-1.9202637795	 0.0709544081	 2.1304001383	 0.124426
H	-1.8995302937	-0.4533159872	-0.9327422251	 0.090808
107.0904	196.8608	275.6952	289.5672	353.8633	403.997	437.9599	500.4167	584.3592	667.3756	746.2654	797.8984	832.6665	893.4268	921.3862	960.2998	1018.3331	1042.4074	1045.306	1055.5352	1088.6038	1099.5141	1128.4505	1161.6024	1186.2254	1219.9203	1241.7157	1265.88	1282.2377	1338.7364	1359.5936	1374.849	1410.9852	1417.3128	1442.2221	1477.7617	1491.5774	1505.3088	2946.5484	2967.5406	3029.4629	3079.3078	3089.126	3124.9005	3138.7271	3153.2712	3228.2828	3804.5945
OC1CCOC2CC12	O[C@H]1CCO[C@H]2C[C@@H]12	
InChI=1S/C6H10O2/c7-5-1-2-8-6-3-4(5)6/h4-7H,1-3H2	InChI=1S/C6H10O2/c7-5-1-2-8-6-3-4(5)6/h4-7H,1-3H2/t4-,5-,6-/m0/s1
