20
gdb 95899	2.12118	1.59583	1.29511	3.8237	77.85	-0.2821	0.0372	0.3193	1095.9347	0.171188	-403.182731	-403.173359	-403.172415	-403.21677	34.95	
C	-0.3766681191	 1.5536068132	 0.0398371051	-0.444916
C	 0.0250036873	 0.0694399577	 0.0541180797	 0.103335
C	 0.9289029106	-0.3473164385	-1.1416356429	-0.226683
C	 1.6712003697	-1.6284434559	-0.6839734432	-0.205776
C	 1.4776196746	-1.7053884767	 0.8567078859	-0.252174
C	 0.9041799545	-0.3417702242	 1.2712116048	 0.119352
O	 1.9146910252	 0.6529108085	 1.3756873123	-0.449307
C	-1.1885988765	-0.7605413981	 0.0683211815	 0.262294
N	-2.1442980741	-1.4114314862	 0.0776671421	-0.353866
H	 0.5210188324	 2.1712285613	 0.0829671681	 0.14557
H	-0.9324893382	 1.7902538117	-0.8715085406	 0.128592
H	-1.0102982047	 1.7983672221	 0.8967955236	 0.129747
H	 0.3518674065	-0.488202232	-2.0578454102	 0.112888
H	 1.6371164147	 0.4668835368	-1.3121053742	 0.119288
H	 1.2601502209	-2.5186929019	-1.1656982405	 0.117108
H	 2.7276827946	-1.5792649219	-0.9568126283	 0.108361
H	 0.7648180326	-2.4925176049	 1.119849398	 0.127322
H	 2.4051598757	-1.9220370619	 1.3961517409	 0.091012
H	 0.3135192821	-0.3934536642	 2.1958819258	 0.079544
H	 2.5488072113	 0.3615226651	 2.0376357619	 0.288307
62.6211	126.9383	150.9094	199.9035	223.1116	245.591	278.5836	319.781	384.2115	444.4175	503.3805	563.0743	622.3461	714.4972	732.5892	802.3967	856.4841	882.6568	903.432	923.1633	987.4256	1026.6384	1038.8503	1088.8074	1124.5452	1139.669	1152.7968	1220.7669	1233.8653	1258.5862	1274.8176	1306.7733	1324.0496	1341.0622	1363.5547	1401.4408	1423.8424	1480.0835	1482.0027	1492.8006	1497.8354	1509.8185	2348.7135	3011.8506	3051.8307	3052.3541	3068.0569	3075.979	3088.3601	3108.2384	3120.0904	3126.296	3150.8611	3830.0106
CC1(CCCC1O)C#N	C[C@]1(CCC[C@H]1O)C#N	
InChI=1S/C7H11NO/c1-7(5-8)4-2-3-6(7)9/h6,9H,2-4H2,1H3	InChI=1S/C7H11NO/c1-7(5-8)4-2-3-6(7)9/h6,9H,2-4H2,1H3/t6-,7+/m1/s1
