23
gdb 95167	2.55516	1.39117	1.03595	1.7612	85.18	-0.2532	0.0828	0.3361	1261.6675	0.206309	-388.310115	-388.301126	-388.300182	-388.343225	35.604	
C	 0.0378436131	 1.5821457176	-0.0050213697	-0.403466
C	-0.0111418755	 0.0522890102	-0.0578525265	 0.038792
C	 0.7217794956	-0.5080365839	-1.2847314914	-0.196285
C	 0.5056551521	-2.0210593624	-1.4155046339	-0.253291
C	 0.8169423698	-2.75161568	-0.1293427778	 0.01836
O	 2.0509305894	-2.4082504295	 0.5113043545	-0.297119
C	 0.8166168173	-2.062052599	 1.1753127093	 0.387069
C	 0.5582564171	-2.8424006293	 2.4442719867	-0.469927
C	 0.5433325329	-0.5621184865	 1.241931201	-0.264103
H	 1.0735650341	 1.9381652008	 0.0462209747	 0.115473
H	-0.4229480617	 2.0249179416	-0.8943409609	 0.109263
H	-0.4893177107	 1.9691971547	 0.8738715391	 0.108828
H	-1.0660530797	-0.2501966757	-0.1436623104	 0.065623
H	 0.3703416554	-0.0068214408	-2.1936180965	 0.08779
H	 1.7944150806	-0.2984060078	-1.1973941766	 0.109669
H	-0.53927318	-2.2307789589	-1.6830248447	 0.098126
H	 1.1224811879	-2.4328955646	-2.2237927056	 0.103551
H	 0.6067048458	-3.823632242	-0.1373349854	 0.075069
H	 0.8621261208	-3.8855261188	 2.3254140823	 0.124555
H	 1.1237888461	-2.414751302	 3.2800898599	 0.123484
H	-0.5039197361	-2.8135964952	 2.711125091	 0.116974
H	 1.4887005424	-0.0702539374	 1.5079007341	 0.108582
H	-0.1514468667	-0.3565642712	 2.0646914371	 0.092982
94.1451	172.6746	216.9069	236.9023	246.4602	282.1696	344.5909	361.4478	403.0763	418.6018	453.2004	531.6139	618.7561	720.9595	790.4286	808.7109	877.6011	898.8031	902.7032	928.7862	962.4588	984.8125	1026.6758	1058.2928	1068.5708	1081.8015	1106.6741	1145.2753	1168.7251	1204.2436	1232.7293	1261.4508	1286.6391	1326.2942	1336.6853	1349.1351	1376.1587	1380.626	1401.1471	1411.7814	1412.8078	1460.2098	1476.1387	1477.7328	1489.175	1491.1144	1496.8519	1498.9911	1505.765	2983.2673	3014.3111	3016.8409	3023.6223	3030.4536	3033.6671	3053.155	3060.2015	3075.766	3080.9381	3090.8713	3092.3179	3095.9687	3120.1894
CC1CCC2OC2(C)C1	C[C@H]1CC[C@H]2O[C@@]2(C)C1	
InChI=1S/C8H14O/c1-6-3-4-7-8(2,5-6)9-7/h6-7H,3-5H2,1-2H3	InChI=1S/C8H14O/c1-6-3-4-7-8(2,5-6)9-7/h6-7H,3-5H2,1-2H3/t6-,7+,8-/m0/s1
