15
gdb 67538	2.54167	1.87087	1.52942	6.0289	64.32	-0.2414	0.0059	0.2473	900.829	0.113396	-453.890322	-453.883148	-453.882204	-453.921696	28.237	
N	-0.0254396608	 1.4865682054	 0.1274384225	-0.602981
C	 0.0515244283	 0.0739425762	-0.0259409158	 0.135292
C	 1.2429491075	-0.6249414663	 0.6903887274	-0.079212
N	 0.9646237601	-2.0714398311	 0.7087699282	-0.318719
C	 1.5377518977	-1.4600944838	-0.5108627735	-0.082107
C	 0.364158069	-0.8062707893	-1.2831123423	 0.049103
O	-0.9203900672	-1.4716500184	-1.1547866144	-0.251532
C	-1.2734891808	-0.7335357809	-0.0389595624	 0.44007
O	-2.3015830832	-0.7608423038	 0.5507556129	-0.321647
H	 0.8661023168	 1.9350577542	-0.0557206662	 0.237951
H	-0.7229622336	 1.90080006	-0.4814352179	 0.246519
H	 1.8940426822	-0.1531145627	 1.4162336908	 0.105016
H	 1.7257508114	-2.5304457987	 1.2073028553	 0.241477
H	 2.4808452369	-1.7988074567	-0.919656699	 0.104178
H	 0.5453760658	-0.422802464	-2.2854401054	 0.096591
134.1058	195.7062	266.0476	278.4219	322.5259	373.0334	488.4674	585.1958	691.2849	695.5977	728.7893	779.4021	797.6587	830.7093	845.013	907.1832	926.9133	941.119	964.8505	993.2515	1014.2297	1066.1196	1089.4083	1123.7293	1156.6727	1222.432	1272.9355	1319.5689	1330.4316	1337.896	1384.2323	1654.8774	1943.2569	3139.4691	3189.3449	3203.3928	3485.5249	3504.9334	3591.1593
NC12C3NC3C1OC2=O	N[C@]12[C@H]3N[C@H]3[C@H]1OC2=O	
InChI=1S/C5H6N2O2/c6-5-2-1(7-2)3(5)9-4(5)8/h1-3,7H,6H2	InChI=1S/C5H6N2O2/c6-5-2-1(7-2)3(5)9-4(5)8/h1-3,7H,6H2/t1-,2+,3-,5-/m1/s1
