18
gdb 32824	3.04694	1.23982	0.92741	1.9871	75.43	-0.1744	0.0421	0.2165	1240.2993	0.148288	-439.107976	-439.099118	-439.098174	-439.142076	33.202	
N	-0.3762281011	 1.3851818006	-0.251913844	-0.603935
C	-0.2731592214	 0.0168726002	-0.0787733655	 0.273049
C	-1.1829606727	-1.0092592978	-0.1038904369	 0.179626
C	-2.6837502015	-0.9396119264	-0.1791202737	-0.325899
C	-3.2642827629	-0.2654758734	-1.4232091888	-0.071487
O	-3.1001079685	 1.1498405007	-1.2926985361	-0.409026
C	-0.3939624517	-2.2080370036	 0.0299496469	-0.26594
C	 0.8990784359	-1.8271813355	 0.1451217127	-0.033472
O	 0.9895235104	-0.4609276989	 0.0676522204	-0.168656
H	 0.0988389264	 1.9282351613	 0.4580905048	 0.243804
H	-1.3398100295	 1.6667036942	-0.3941620148	 0.26082
H	-3.0793894092	-1.960405942	-0.1393705582	 0.104223
H	-3.1038331159	-0.4173495191	 0.69227698	 0.112769
H	-2.7558672927	-0.636724874	-2.3230789517	 0.100838
H	-4.3346854721	-0.50595273	-1.508741838	 0.089149
H	-3.2225443299	 1.5531193966	-2.1568584816	 0.29295
H	-0.7693619343	-3.2204885662	 0.0565532805	 0.09656
H	 1.8304806207	-2.3479880367	 0.2854783039	 0.124625
31.6131	156.9358	167.755	233.3076	258.5476	270.0407	336.4482	341.1877	452.7142	477.4842	604.2956	639.3279	661.2014	697.035	731.7009	772.9013	817.8509	866.124	909.1285	950.4278	1040.2923	1054.4833	1071.5871	1076.0402	1160.4868	1181.6516	1238.4629	1267.8439	1278.1427	1303.7928	1331.5982	1376.5258	1443.1143	1461.6254	1474.997	1513.0374	1563.5477	1612.1325	1678.9049	2984.3447	3006.5158	3037.2001	3070.4793	3239.269	3291.2892	3505.9916	3614.0748	3837.6332
NC1=C(CCO)C=CO1	Nc1c(CCO)cco1	
InChI=1S/C6H9NO2/c7-6-5(1-3-8)2-4-9-6/h2,4,8H,1,3,7H2	InChI=1S/C6H9NO2/c7-6-5(1-3-8)2-4-9-6/h2,4,8H,1,3,7H2
