16
gdb 51443	3.20693	1.10677	0.90144	5.3791	70.14	-0.2434	-0.0334	0.21	1249.681	0.122742	-437.855702	-437.847374	-437.846429	-437.889808	29.788	
O	-0.5812719692	 0.5270538478	 0.6461275672	-0.243446
C	 0.2270907107	 0.8434738541	-0.1891484697	 0.150065
C	 1.2995931123	 1.8939964855	 0.0235809008	-0.300376
C	 1.33714271	 2.9291029645	-1.102632208	-0.138889
C	 2.5441965734	 3.8819448362	-1.2000951174	-0.067166
N	 3.7123859529	 3.0270774119	-1.4143302245	-0.326299
C	 2.8736742272	 3.4395331497	-2.5981461987	-0.183761
C	 1.6976772112	 2.4893947563	-2.5637242657	 0.445756
O	 1.1546852046	 1.7897283416	-3.3665651589	-0.307221
H	 0.237038121	 0.3661573335	-1.1927537567	 0.104235
H	 1.1310175474	 2.3662800734	 0.9963626144	 0.120271
H	 2.2720914557	 1.3851054182	 0.049789281	 0.145651
H	 0.3948428636	 3.4878335139	-1.1615627256	 0.116997
H	 2.6237778234	 4.877940879	-0.7850451507	 0.1157
H	 4.543741531	 3.6175067994	-1.4419665097	 0.246143
H	 3.3164605247	 3.9697903849	-3.4310915477	 0.122338
61.3275	72.2067	115.8357	176.3904	221.8005	316.6404	434.9276	494.3675	543.2518	614.3037	716.0836	761.1806	811.5193	829.7308	860.2661	892.4533	927.6529	980.1591	1034.1345	1041.9238	1079.0268	1100.7794	1106.2307	1126.6975	1168.4821	1203.1362	1273.6858	1291.141	1314.0428	1349.9636	1358.1017	1434.8113	1466.4589	1830.385	1893.6123	2909.4646	3031.0691	3046.9282	3094.3314	3203.4544	3214.6872	3474.6667
O=CCC1C2NC2C1=O	O=CC[C@H]1[C@H]2N[C@H]2C1=O	
InChI=1S/C6H7NO2/c8-2-1-3-4-5(7-4)6(3)9/h2-5,7H,1H2	InChI=1S/C6H7NO2/c8-2-1-3-4-5(7-4)6(3)9/h2-5,7H,1H2/t3-,4+,5+/m0/s1
