21
gdb 63169	2.33983	1.61738	1.28284	1.3548	78.28	-0.2266	0.0693	0.2959	1100.0944	0.18125	-424.213535	-424.204226	-424.203281	-424.246814	35.877	
C	-0.0343299727	 1.5369555197	 0.014599732	-0.458899
C	 0.0194724799	 0.0231529938	 0.0564135324	 0.253976
C	-1.2112539638	-0.6605490559	-0.5141606777	-0.449045
C	 1.3455383992	-0.6938713474	-0.186917824	-0.043166
O	 2.5135336687	 0.0833047645	-0.1640453595	-0.259273
C	 2.9610613911	 0.1794588999	 1.1956124658	-0.067187
C	 1.7015584443	 0.07304217	 2.0798587988	-0.320688
C	 0.72495788	-0.7075226561	 1.1882270236	 0.312763
O	 0.0716232445	-1.8138428435	 1.7370064174	-0.463674
H	 0.9392646924	 1.9899914827	 0.2096996558	 0.126173
H	-0.3519225919	 1.8710945819	-0.9792210457	 0.116235
H	-0.7555442048	 1.9287694543	 0.7409478598	 0.113874
H	-1.3643563569	-0.3545671737	-1.5550262934	 0.111043
H	-1.126822712	-1.7480394034	-0.4777750495	 0.122987
H	-2.1073942429	-0.384964812	 0.0528115072	 0.119484
H	 1.3797202908	-1.5670307168	-0.834162848	 0.089399
H	 3.6589732795	-0.6429148446	 1.4167638861	 0.09088
H	 3.5015690747	 1.1241724377	 1.2995015629	 0.109467
H	 1.8881225421	-0.4888419297	 2.9990463143	 0.102877
H	 1.3169840148	 1.0557733253	 2.366779601	 0.113817
H	 0.726889883	-2.5025538666	 1.8960401607	 0.278957
128.6051	164.7183	178.2092	189.8563	226.4419	274.8639	279.8903	330.8338	360.0604	410.4444	445.3546	525.1649	611.9064	657.6546	725.9009	742.1758	848.3889	913.4762	940.7073	965.8247	974.7303	990.6798	1010.7603	1021.4793	1071.4744	1115.7713	1151.2099	1170.3	1181.914	1205.4501	1243.2291	1264.9415	1301.4517	1305.3135	1327.8259	1381.4235	1405.6453	1416.6035	1441.1159	1480.3577	1486.4011	1492.975	1508.3555	1511.3945	1520.6131	2982.2825	3029.7444	3034.0644	3059.0856	3086.4646	3087.0965	3090.258	3105.145	3129.1013	3129.8052	3136.842	3787.6601
CC1(C)C2OCCC12O	CC1(C)[C@H]2OCC[C@@]12O	
InChI=1S/C7H12O2/c1-6(2)5-7(6,8)3-4-9-5/h5,8H,3-4H2,1-2H3	InChI=1S/C7H12O2/c1-6(2)5-7(6,8)3-4-9-5/h5,8H,3-4H2,1-2H3/t5-,7+/m1/s1
