13
gdb 8999	6.91107	0.97383	0.8838	4.1255	58.23	-0.2589	-0.1123	0.1466	1210.0393	0.091969	-435.727751	-435.719286	-435.718342	-435.762112	27.649	
N	 0.0617206897	 1.0799168733	 0.2256973574	-0.434654
C	-0.2394020059	-0.0978052933	-0.0966581552	 0.147959
O	-0.3071954678	-1.0516786045	 0.8685463662	-0.165115
C	-0.6842773288	-2.3397677009	 0.4621133679	-0.209533
C	-2.1515771409	-2.4503746718	 0.059410974	 0.290671
O	-2.8683007735	-1.5023375139	-0.1143840731	-0.245008
C	-2.6693461128	-3.8965859327	-0.1449117986	 0.086611
O	-3.7913515847	-4.1266534066	-0.496896283	-0.191246
H	 0.0882381129	 1.6743025924	-0.5998441353	 0.23604
H	-0.4450137479	-0.4770579308	-1.1051397871	 0.093044
H	-0.0700682937	-2.7124988031	-0.3763508678	 0.138456
H	-0.4867032548	-3.006960488	 1.3090292398	 0.156391
H	-1.9327528918	-4.7067134202	 0.056560125	 0.096386
47.1761	74.605	95.5411	144.5989	204.359	283.8464	338.4377	385.3367	444.7905	633.4812	725.6964	815.7871	842.5646	896.6673	969.2046	1033.5136	1036.6355	1058.3042	1186.4043	1237.1296	1317.2214	1386.7217	1415.2104	1420.289	1461.4193	1754.4862	1823.9932	1850.9904	2878.7975	2966.6997	3042.9127	3070.9343	3526.1774
N=COCC(=O)C=O	[NH][CH]OCC(=O)C=O	
InChI=1S/C4H5NO3/c5-3-8-2-4(7)1-6/h1,3,5H,2H2	InChI=1S/C4H5NO3/c5-3-8-2-4(7)1-6/h1,3,5H,2H2
