23
gdb 81035	2.38278	1.67208	1.2576	1.3848	84.39	-0.2487	0.0734	0.3221	1117.4251	0.207468	-388.300207	-388.291564	-388.29062	-388.332598	35.184	
C	-0.1393405909	 1.487326285	-0.0020770984	-0.427293
C	 0.0376115833	-0.0272311314	 0.0263325097	 0.014769
C	 1.2130915625	-0.5851874065	-0.8348386654	-0.012029
C	 2.1280868075	-0.4205553045	 0.4166976999	-0.312953
C	 0.8169832228	-0.591891	 1.2442357505	 0.436288
O	 0.6369080191	 0.1329796064	 2.436560265	-0.494644
C	 0.4789183182	-2.0845734422	 1.3964081937	-0.266027
C	 0.9533763204	-2.9005571362	 0.1676756519	-0.206004
C	 0.9585830927	-2.0702123445	-1.1396772983	-0.211329
H	 0.8065934432	 2.0203219325	 0.1303505131	 0.11622
H	-0.5678378971	 1.8011347647	-0.9603801051	 0.105548
H	-0.8122766489	 1.8133902989	 0.7960630979	 0.126151
H	-0.9326335125	-0.5082523269	-0.1504656642	 0.052254
H	 1.476644954	-0.0182382914	-1.7312241726	 0.059124
H	 2.946258716	-1.1306040749	 0.5675448856	 0.082208
H	 2.5155922335	 0.5950717437	 0.5107192372	 0.102758
H	 1.0982193243	-0.3281648154	 3.1452439853	 0.270995
H	 0.9616712671	-2.4806866411	 2.3009767206	 0.07617
H	-0.6021310677	-2.1782380156	 1.5525378804	 0.102658
H	 1.9737721483	-3.2468974966	 0.3595853513	 0.104301
H	 0.3498041693	-3.8058223344	 0.0516721376	 0.094909
H	 0.0001570549	-2.1630389309	-1.6653849349	 0.095524
H	 1.7239808101	-2.4665581787	-1.8167585507	 0.090401
163.0179	195.5707	222.0259	229.0471	243.7164	272.0586	352.9794	408.3543	432.9097	469.0605	487.9928	602.9705	657.5931	777.0649	811.8883	828.0881	829.6906	896.8157	908.7587	934.1458	954.6649	975.8039	1033.7574	1047.0146	1066.2862	1080.3666	1106.4584	1133.4972	1151.7358	1188.8852	1190.328	1216.1001	1233.1412	1254.5153	1268.6087	1291.5644	1312.7309	1346.5679	1360.5044	1362.49	1373.4947	1402.41	1410.7869	1485.383	1488.7288	1491.5466	1497.7969	1501.9864	1518.8681	3003.7764	3015.6248	3023.7328	3035.7741	3042.019	3055.2312	3059.33	3059.9462	3073.8934	3087.5072	3100.5751	3113.1661	3125.0031	3802.4304
CC1C2CC1(O)CCC2	C[C@H]1[C@H]2C[C@]1(O)CCC2	
InChI=1S/C8H14O/c1-6-7-3-2-4-8(6,9)5-7/h6-7,9H,2-5H2,1H3	InChI=1S/C8H14O/c1-6-7-3-2-4-8(6,9)5-7/h6-7,9H,2-5H2,1H3/t6-,7+,8+/m0/s1
