17
gdb 47314	3.07213	1.29049	0.9867	1.7884	68.8	-0.2559	-0.0317	0.2242	1157.6238	0.136681	-459.021218	-459.013182	-459.012238	-459.054502	29.799	
O	 0.0750328751	-0.1708162508	-0.2759898485	-0.292582
C	-0.0371388064	 1.0153796257	-0.0718061441	 0.377078
C	-1.4072924627	 1.6529947663	 0.1236303484	-0.3028
C	-1.546324237	 2.4921406706	 1.4000366144	-0.094916
O	-0.9798430527	 3.7999763198	 1.2888636152	-0.217912
C	 0.3628344809	 4.0066449384	 1.2560252523	 0.407275
O	 0.7691883402	 5.1340140781	 1.1930843605	-0.311589
C	 1.2795131215	 2.7928541759	 1.2689203053	-0.350616
C	 1.1848121611	 1.921798222	-0.0072215502	-0.298476
H	-1.6318344942	 2.3031884402	-0.7318188258	 0.138695
H	-2.1415969703	 0.8432385327	 0.1343171233	 0.133544
H	-2.6047920454	 2.6773492191	 1.5936135096	 0.138671
H	-1.140378199	 1.9658900328	 2.2718680868	 0.12279
H	 2.2892518078	 3.1961520634	 1.350330449	 0.146315
H	 1.0999486246	 2.1775501708	 2.1578282594	 0.130706
H	 2.0627049132	 1.2764548788	-0.0792486225	 0.136031
H	 1.1830865532	 2.5775055263	-0.888279323	 0.137787
59.7131	94.5734	161.3965	262.9067	326.0548	347.9693	426.7702	458.4298	505.9931	570.9556	651.2813	716.5616	733.7685	782.7329	844.5474	925.5872	956.5081	987.6075	1007.7526	1074.8082	1094.0012	1142.2187	1167.023	1216.9276	1233.0722	1283.5044	1303.4984	1339.1635	1349.8756	1357.2718	1414.7025	1449.9868	1470.7638	1480.404	1512.9861	1812.8146	1846.1894	3029.0433	3035.8374	3042.2601	3053.2248	3108.1418	3112.47	3114.171	3130.7279
O=C1CCOC(=O)CC1	O=C1CCOC(=O)CC1	
InChI=1S/C6H8O3/c7-5-1-2-6(8)9-4-3-5/h1-4H2	InChI=1S/C6H8O3/c7-5-1-2-6(8)9-4-3-5/h1-4H2
