20
gdb 99711	1.63306	1.37434	0.81732	3.2284	84.11	-0.2396	0.034	0.2736	1470.6282	0.168773	-403.080681	-403.070155	-403.069211	-403.117656	36.237	
C	 0.783289603	-1.083618303	-1.1474875055	-0.233822
O	 0.1301771046	-0.9710728486	 0.0986388043	-0.230194
C	-1.0879300588	-0.2388910272	 0.0477517769	-0.056311
C	-2.1268593895	-0.9460607184	-0.714681183	 0.083711
C	-2.9684716664	-1.5458681964	-1.3351412681	 0.033222
C	-3.980404757	-2.2638787124	-2.0974445613	-0.501341
C	-1.4868125178	 0.0286604249	 1.4918369069	-0.000159
C	-2.8839365334	 0.3636748613	 1.8521277528	-0.25192
N	-2.2941517078	-0.924655024	 2.2564984376	-0.310532
H	 1.7157942022	-1.6238126836	-0.9692549958	 0.129279
H	 0.1797593342	-1.6389891337	-1.8784499602	 0.114299
H	 1.019042949	-0.0941465718	-1.5706624925	 0.101793
H	-0.897310974	 0.7347327399	-0.4394545455	 0.091121
H	-4.9888805271	-1.9980091372	-1.7629521056	 0.154578
H	-3.912061667	-2.0309877582	-3.1655095712	 0.153371
H	-3.8675949921	-3.3472952639	-1.9832356734	 0.155827
H	-0.6701865344	 0.4728480284	 2.0554412478	 0.102196
H	-3.0783185807	 1.0579355185	 2.6645300092	 0.115532
H	-3.6243552095	 0.3651867906	 1.0570990353	 0.116023
H	-2.6272006575	-1.6539797353	 1.6277373612	 0.233328
37.9096	72.8267	82.1627	111.5892	133.1571	195.4893	225.6738	267.0657	314.4252	362.8023	403.4791	431.5695	549.1738	607.5554	791.0385	824.352	869.7985	926.9794	967.1135	992.7519	1049.8851	1053.2529	1055.4084	1107.9355	1133.1772	1149.1819	1161.1972	1183.5609	1194.0483	1217.0845	1266.4966	1311.9631	1341.5094	1351.6066	1405.5419	1415.3284	1476.4754	1476.6859	1478.1556	1484.6002	1506.3196	1511.0384	2358.4437	2934.5588	2978.088	3031.2774	3038.4203	3093.9087	3094.6486	3112.4989	3120.2181	3143.5204	3199.27	3480.4269
COC(C#CC)C1CN1	CO[C@@H](C#CC)[C@H]1CN1	
InChI=1S/C7H11NO/c1-3-4-7(9-2)6-5-8-6/h6-8H,5H2,1-2H3	InChI=1S/C7H11NO/c1-3-4-7(9-2)6-5-8-6/h6-8H,5H2,1-2H3/t6-,7+/m1/s1
