14
gdb 124420	3.36234	1.20409	0.93981	1.3598	66.84	-0.2903	-0.0554	0.2349	1171.6506	0.100499	-432.858807	-432.850792	-432.849848	-432.892312	28.304	
C	 0.0819911417	 1.5530851285	 0.1354770261	-0.393301
C	-0.0763567293	 0.0309048621	-0.0900541823	-0.264054
C	-1.4917915412	-0.3537976537	-0.122830698	 0.284422
N	-2.6084227607	-0.6468592617	-0.1646692082	-0.319054
C	 0.6106477564	-0.4303685507	-1.3455126905	 0.267139
C	 0.1484000074	-0.9914933888	-2.4929324344	-0.03491
O	 1.1750172098	-1.2056199333	-3.3103395204	-0.161215
N	 2.3390383234	-0.7487406248	-2.6218426822	 0.003174
N	 1.9751815213	-0.3123794392	-1.5008887381	-0.178593
H	 1.1449483492	 1.8016239654	 0.1561083536	 0.156015
H	-0.3953698593	 2.1129809736	-0.672026066	 0.14457
H	-0.3726482252	 1.8463561456	 1.0842809145	 0.143088
H	 0.3830108235	-0.49027625	 0.7597175772	 0.157271
H	-0.833446357	-1.2784861831	-2.8315036314	 0.195447
45.7956	117.8144	164.6518	208.9227	232.888	341.1875	395.8961	483.0512	562.3103	638.7329	644.0094	697.8088	740.3835	866.892	868.2567	983.9146	1003.8649	1054.4339	1081.8618	1114.5467	1149.5692	1227.2603	1308.4837	1311.4051	1355.5719	1409.2612	1465.264	1493.1003	1498.1897	1615.8281	2364.5642	3034.0535	3057.9341	3140.1847	3146.1716	3289.895
CC(C#N)C1=CON=N1	C[C@@H](C#N)c1conn1	
InChI=1S/C5H5N3O/c1-4(2-6)5-3-9-8-7-5/h3-4H,1H3	InChI=1S/C5H5N3O/c1-4(2-6)5-3-9-8-7-5/h3-4H,1H3/t4-/m0/s1
