25
gdb 104802	2.17918	1.33258	1.06585	0.1374	92.7	-0.2331	0.0321	0.2652	1313.7212	0.22914	-352.378015	-352.368134	-352.36719	-352.412413	38.326	
C	 0.402116737	 1.273738209	 0.2466049171	-0.400567
C	 0.232290219	-0.2233292534	-0.0369042224	-0.212618
C	 0.6371480835	-0.7103581879	-1.4520568531	 0.347929
C	-0.0795984783	 0.0730432901	-2.5714041328	-0.233701
C	-1.6117161127	 0.0385966875	-2.530005312	-0.395633
C	 2.191649059	-0.6162605912	-1.6171574772	-0.307205
C	 2.6861357816	-2.017061092	-1.3631976976	-0.060302
C	 1.6904566576	-2.8985385136	-1.3193469191	-0.063809
C	 0.3486891193	-2.2482061532	-1.5390931792	-0.298418
H	 1.4282491224	 1.6154674069	 0.0772970103	 0.116669
H	-0.2556841277	 1.8851303726	-0.3790273219	 0.117709
H	 0.1553800832	 1.4930192753	 1.2903620027	 0.111555
H	 0.8188861497	-0.798561093	 0.6909491481	 0.097235
H	-0.8144672262	-0.4964550656	 0.1434335412	 0.092804
H	 0.2577980546	 1.1170061868	-2.556003063	 0.093928
H	 0.2587298868	-0.3322846735	-3.5339370354	 0.090428
H	-2.0323666279	 0.5635563901	-3.3935079412	 0.110566
H	-1.9927424004	-0.9878746294	-2.5514032011	 0.116754
H	-2.00863621	 0.5190465981	-1.6303451058	 0.118198
H	 2.4674256603	-0.2838677608	-2.6283411475	 0.096351
H	 2.6378943777	 0.1144594354	-0.9326405457	 0.097282
H	 3.7395982205	-2.2535302318	-1.2568978692	 0.086292
H	 1.803656484	-3.9676891091	-1.1742494555	 0.086582
H	-0.3994571788	-2.5679413802	-0.803187629	 0.094983
H	-0.057501014	-2.5278715872	-2.5219871203	 0.096987
71.6107	120.5786	134.6742	198.3928	224.483	229.6015	298.0041	329.0831	372.4825	394.2405	404.8861	472.1082	609.9027	689.858	757.6731	759.945	794.0113	803.6134	872.1845	941.7292	948.437	954.4252	978.3315	990.9636	997.8484	1008.8287	1038.2047	1050.694	1085.6044	1129.981	1135.8615	1166.1064	1186.2016	1193.3153	1270.3648	1297.5165	1304.6115	1326.7732	1348.7751	1354.9209	1376.7995	1381.4119	1412.2745	1414.4337	1478.1325	1482.2572	1489.9686	1495.2504	1500.5287	1504.6746	1505.7618	1514.5791	1694.9921	2998.3444	3001.0918	3016.58	3020.7947	3035.3302	3036.7809	3038.8268	3046.926	3050.2318	3052.5636	3099.9598	3100.7605	3103.5046	3106.7093	3174.1903	3200.3238
CCC1(CC)CC=CC1	CCC1(CC)CC=CC1	
InChI=1S/C9H16/c1-3-9(4-2)7-5-6-8-9/h5-6H,3-4,7-8H2,1-2H3	InChI=1S/C9H16/c1-3-9(4-2)7-5-6-8-9/h5-6H,3-4,7-8H2,1-2H3
