18
gdb 61512	3.74236	0.82135	0.74719	4.4916	72.11	-0.2442	-0.0537	0.1905	1502.5303	0.144885	-476.246773	-476.236746	-476.235801	-476.282935	34.519	
C	-0.1229717037	 1.4242008668	 0.0164411425	-0.351687
N	 0.1026285899	-0.0098639578	-0.0134023571	-0.023288
C	 0.0423166006	-0.7569202499	 1.2203332164	-0.207051
C	-1.4101989261	-1.0142392368	 1.6984389176	 0.045347
O	-2.1159889743	-1.7442726156	 0.7388248065	-0.424305
C	-1.4050296531	-1.735215851	 3.0295725509	 0.136255
O	-1.9354486445	-2.8107815306	 3.1674985484	-0.253247
C	 0.2293119742	-0.6525880458	-1.2162569398	 0.166248
O	 0.2146972072	-0.1135070787	-2.3007713175	-0.338467
H	 0.5950959807	 1.9122901105	 0.6856223529	 0.122446
H	 0.0078021331	 1.7976712589	-0.9991537733	 0.174505
H	-1.137633111	 1.6705713704	 0.353038316	 0.128892
H	 0.5233039428	-1.7280763068	 1.0651708391	 0.131817
H	 0.6028679789	-0.2219337103	 1.9982698833	 0.109246
H	-1.8923242045	-0.0352878985	 1.8731480432	 0.102198
H	-2.4184249579	-2.5499257374	 1.1877967471	 0.298877
H	-0.8868380704	-1.2273494269	 3.8685327791	 0.102765
H	 0.3685345081	-1.7414092706	-1.0839040355	 0.079449
50.4765	57.8701	86.7514	135.6024	170.2924	254.7573	285.48	320.5262	338.4485	367.8803	409.8375	422.6586	499.0946	695.689	752.0069	839.6637	877.5417	902.1605	979.1445	1021.4718	1070.0015	1092.52	1155.299	1171.015	1232.2314	1261.3113	1286.4006	1342.0939	1374.8453	1404.3366	1429.2926	1430.8317	1441.0592	1444.6185	1476.8407	1498.4557	1520.2915	1799.2287	1813.2642	2927.1046	2954.3818	2962.7206	3016.6509	3021.7193	3070.3296	3085.4693	3157.2969	3690.101
CN(CC(O)C=O)C=O	CN(C[C@@H](O)C=O)C=O	
InChI=1S/C5H9NO3/c1-6(4-8)2-5(9)3-7/h3-5,9H,2H2,1H3	InChI=1S/C5H9NO3/c1-6(4-8)2-5(9)3-7/h3-5,9H,2H2,1H3/t5-/m1/s1
