20
gdb 96241	2.36306	1.63904	1.16421	1.5328	76.33	-0.2424	0.0159	0.2584	1119.0411	0.171536	-440.293373	-440.284572	-440.283628	-440.326727	33.237	
C	 0.117555013	 1.5045122762	-0.1616325541	-0.410434
C	 0.098504298	-0.0141121836	-0.0327259123	 0.097742
O	 0.7380065458	-0.5439746084	-1.1971904768	-0.230799
C	 0.3679067976	-1.8379467124	-1.5081303611	 0.016916
O	 0.9760177111	-2.8573773129	-0.7193410585	-0.228679
C	 0.7804359664	-2.8842545855	 0.6327823469	 0.114077
N	 0.6383057614	-1.9725397801	 1.4899262972	-0.255458
C	 0.7614123913	-0.5384706413	 1.2558071921	 0.038259
C	 2.2495872979	-0.1617091096	 1.3619453474	-0.389544
H	 1.1377812026	 1.8736230022	-0.2929469342	 0.134769
H	-0.4671761888	 1.8139066392	-1.0316382699	 0.123463
H	-0.3116735248	 1.9736135891	 0.7284574711	 0.120322
H	-0.9478885694	-0.3606501938	-0.0273350281	 0.072873
H	-0.7250957448	-1.9582817634	-1.4305734131	 0.093527
H	 0.7065277729	-2.041826575	-2.5252214688	 0.123764
H	 0.8058805203	-3.9226641929	 0.9659548643	 0.119541
H	 0.2291866588	-0.0545977529	 2.0853266277	 0.083927
H	 2.7981720999	-0.5301393986	 0.4913363318	 0.134666
H	 2.3794445042	 0.9220819092	 1.4234085911	 0.114001
H	 2.6771548665	-0.6106515654	 2.2611082975	 0.127069
77.9998	118.8978	207.5719	224.3744	272.967	283.5091	328.5351	335.247	382.6493	443.3174	569.6744	591.5325	664.3841	742.65	815.6387	863.1966	913.2929	939.6373	969.0071	990.7033	1009.8396	1057.5713	1100.4667	1127.4573	1146.617	1170.8934	1193.5088	1215.5385	1320.1963	1332.2687	1355.2973	1374.803	1397.4854	1403.661	1413.1838	1430.3811	1457.8624	1485.2469	1489.7231	1499.1759	1501.334	1507.1827	1755.7929	2965.4818	2973.7715	3016.5524	3048.3714	3051.9896	3121.1583	3122.0722	3122.9679	3128.7158	3130.3645	3134.0899
CC1OCOC=NC1C	C[C@H]1OCOC=N[C@H]1C	
InChI=1S/C6H11NO2/c1-5-6(2)9-4-8-3-7-5/h3,5-6H,4H2,1-2H3	InChI=1S/C6H11NO2/c1-5-6(2)9-4-8-3-7-5/h3,5-6H,4H2,1-2H3/t5-,6+/m0/s1
