21
gdb 115007	2.23265	1.47677	1.11589	0.9167	80.26	-0.2438	0.0209	0.2646	1198.1024	0.180523	-424.226321	-424.216519	-424.215575	-424.260827	36.59	
C	-0.4947348464	 1.5734944058	 0.0995751072	-0.235137
O	-0.3106331816	 0.2404619544	 0.5148155253	-0.246035
C	-1.2609412834	-0.6577681185	-0.0100595931	 0.110274
C	-1.0674460918	-1.0142538347	-1.5083293733	-0.295272
C	-1.474793716	-2.4658934704	-1.5553128706	-0.076777
C	-1.5624101928	-2.9996161792	-0.3395646897	-0.111636
C	-1.2266877753	-2.0085586982	 0.7575656285	 0.316725
C	 0.1278237815	-2.3047995638	 1.4096073498	-0.431091
O	-2.2474350483	-1.9371430519	 1.7597475988	-0.478015
H	 0.2539541358	 2.1799669415	 0.6154102212	 0.125025
H	-0.3578317704	 1.6961593036	-0.985451378	 0.104893
H	-1.4971517491	 1.9448535915	 0.3640987882	 0.10768
H	-2.2742102851	-0.2544748112	 0.135415579	 0.08495
H	-1.6578609179	-0.3822654075	-2.180843263	 0.102373
H	-0.0132916388	-0.8805452108	-1.7884087439	 0.113206
H	-1.6519526465	-2.9932250472	-2.4867365729	 0.094199
H	-1.8166721097	-4.0299519014	-0.1126416986	 0.086841
H	 0.935765308	-2.2950307907	 0.6732806137	 0.123078
H	 0.3461624371	-1.5549191176	 2.1725556064	 0.136032
H	 0.1109735776	-3.2984526436	 1.8744800605	 0.09525
H	-2.116694367	-2.67139746	 2.3687570546	 0.273436
65.849	90.435	189.346	199.8615	232.027	237.4711	247.433	306.5566	331.2374	368.7499	466.9122	511.1817	534.4211	595.9508	713.5977	756.3996	795.7845	889.1965	947.3698	968.3161	977.8054	996.3138	1027.8184	1036.799	1101.5569	1122.8832	1146.3541	1167.9065	1178.3048	1188.1977	1204.7409	1238.9888	1293.3328	1322.1614	1351.0574	1382.3896	1391.5818	1407.1372	1479.5377	1482.4204	1485.0615	1487.6983	1493.3882	1510.3336	1688.6541	2974.8978	2994.8136	3014.5322	3022.775	3028.038	3060.9569	3102.778	3111.3168	3136.9867	3172.957	3198.5229	3811.1757
COC1CC=CC1(C)O	CO[C@H]1CC=C[C@]1(C)O	
InChI=1S/C7H12O2/c1-7(8)5-3-4-6(7)9-2/h3,5-6,8H,4H2,1-2H3	InChI=1S/C7H12O2/c1-7(8)5-3-4-6(7)9-2/h3,5-6,8H,4H2,1-2H3/t6-,7-/m0/s1
