19
gdb 80493	2.14193	1.50411	1.25719	4.6987	81.94	-0.2238	0.0078	0.2316	1125.0777	0.158737	-382.038468	-382.029427	-382.028482	-382.071932	33.577	
C	-0.0689395223	 1.5488696913	-0.3089793341	-0.42792
C	 0.1179078883	 0.056497329	-0.1433889898	-0.049641
C	 1.3799351055	-0.7107723342	-0.4242689398	-0.161881
C	 2.6202729902	 0.0132994845	 0.1135036959	-0.189355
N	 2.0609311353	-0.0367094216	 1.4847535693	-0.121226
C	 2.0604561497	 1.1100434665	 2.3733053695	-0.345361
C	 0.8240362041	-0.6424370705	 1.0135506514	 0.197383
C	 0.1621365657	-1.6411455911	 1.7997423788	 0.237639
N	-0.3892725738	-2.4310340866	 2.4416207908	-0.353751
H	 0.8436586085	 2.1147729484	-0.1152732629	 0.128491
H	-0.3808555829	 1.7709378619	-1.335428079	 0.127035
H	-0.8457487475	 1.9239170115	 0.3645621388	 0.132432
H	-0.756199144	-0.5196099368	-0.4438171627	 0.112008
H	 1.404731958	-1.5802168683	-1.0669657676	 0.118184
H	 3.5465954895	-0.5634685653	 0.0273778466	 0.120613
H	 2.7922510691	 1.0192282765	-0.2908394585	 0.104034
H	 1.6201830214	 2.0273773802	 1.952765084	 0.103141
H	 1.5047918656	 0.850266261	 3.2796497764	 0.140429
H	 3.0911286997	 1.3313134137	 2.669382083	 0.127748
122.8127	139.796	153.9043	161.9782	217.3192	249.6193	274.1296	335.7895	433.9233	502.384	528.0825	563.998	649.4306	686.4851	756.8111	862.3771	882.0806	955.7389	958.9772	997.1961	1036.4082	1084.2068	1103.1016	1121.7701	1125.8606	1164.2667	1191.5745	1235.0129	1239.453	1274.4459	1321.9115	1335.4489	1412.8632	1444.8815	1451.145	1480.1858	1495.9228	1499.6327	1508.4479	1520.8335	2342.977	2981.8908	3019.3426	3040.5276	3066.8133	3069.6679	3099.6658	3106.8806	3119.8837	3137.2813	3212.5647
CC1C2CN(C)C12C#N	C[C@H]1[C@H]2CN(C)[C@@]12C#N	
InChI=1S/C7H10N2/c1-5-6-3-9(2)7(5,6)4-8/h5-6H,3H2,1-2H3	InChI=1S/C7H10N2/c1-5-6-3-9(2)7(5,6)4-8/h5-6H,3H2,1-2H3/t5-,6+,7-/m0/s1
