16
gdb 18493	6.14118	1.2597	1.16121	4.4896	69.04	-0.2327	0.0247	0.2574	1018.5607	0.13124	-342.742038	-342.73485	-342.733906	-342.773913	26.756	
N	 0.0664097315	-1.1500172503	-0.1933376085	-0.304447
C	 0.0239455796	-0.0144082795	 0.0132730801	 0.276438
C	-0.039085575	 1.4325416019	 0.2487700244	-0.292452
N	 1.256698389	 2.0545481259	 0.0297823563	-0.081735
C	 1.7865211761	 2.1718990009	-1.3646767551	-0.184762
C	 1.9740395518	 3.6765420497	-1.1555433344	-0.064782
C	 0.642123289	 4.3055783478	-0.8362155076	-0.295066
C	 1.3561097649	 3.5012192213	 0.2211324721	-0.007363
H	-0.8518216545	 1.8396966301	-0.3798516519	 0.128467
H	-0.3308712796	 1.6015710318	 1.2920791739	 0.155498
H	 2.709056123	 1.5988521482	-1.4884353324	 0.125585
H	 1.0799066357	 1.8886975415	-2.1560638392	 0.107772
H	 2.847726754	 4.2475440276	-1.4367706775	 0.102868
H	 0.6611211664	 5.3794549051	-0.6793327985	 0.121103
H	-0.2655551532	 3.9408453275	-1.3108498081	 0.110439
H	 1.6446437513	 3.9085440504	 1.1840240163	 0.102436
60.9978	124.3037	210.3273	313.7602	382.2144	390.739	485.1507	514.1513	703.2106	786.3709	802.9716	850.0335	922.7813	933.7729	958.1818	981.1502	992.7826	1036.7766	1063.8622	1076.7623	1098.3329	1124.9142	1154.5649	1180.2298	1236.7937	1262.5431	1277.2261	1312.5369	1356.9685	1383.6889	1470.05	1478.5428	1508.4104	2366.446	2944.1134	3017.5973	3059.0196	3089.923	3111.1862	3167.831	3200.8917	3215.7623
N#CCN1CC2CC12	N#CCN1C[C@H]2C[C@@H]12	
InChI=1S/C6H8N2/c7-1-2-8-4-5-3-6(5)8/h5-6H,2-4H2	InChI=1S/C6H8N2/c7-1-2-8-4-5-3-6(5)8/h5-6H,2-4H2/t5-,6-/m1/s1
