18
gdb 57320	3.08047	1.02541	0.92425	5.0417	70.82	-0.2433	-0.0314	0.2119	1321.9556	0.14437	-476.279476	-476.2693	-476.268356	-476.314985	36.222	
C	-0.2176213816	 1.5234436929	 0.0182630935	-0.430275
C	 0.0113684992	 0.0116746733	 0.0219274352	 0.234505
C	 0.7663030961	-0.4471426789	 1.2749880802	-0.38934
O	-1.2350085273	-0.7014003094	 0.0179736674	-0.464994
C	 0.8769052369	-0.373701798	-1.2105506663	 0.381558
O	 1.8591840753	 0.2516124033	-1.5221432278	-0.326944
N	 0.4139421591	-1.5168252294	-1.8590326552	-0.351522
C	 0.9714764954	-2.17233465	-2.9513625263	 0.165057
O	 1.957935548	-1.8502269279	-3.5531736479	-0.253898
H	 0.7379727648	 2.0460176012	-0.0442378041	 0.159716
H	-0.8145157473	 1.8267086557	-0.8506042346	 0.115223
H	-0.7418105534	 1.8271278149	 0.9285472693	 0.124261
H	 0.2176710531	-0.1410819371	 2.1696731178	 0.125545
H	 0.8620918338	-1.5366687341	 1.2860355567	 0.127268
H	 1.7657894151	-0.0077603423	 1.2928902864	 0.14627
H	-1.8786961523	-0.1757942818	-0.4693742456	 0.287601
H	-0.4292921432	-1.9032617	-1.452872502	 0.264368
H	 0.3649048883	-3.0652731126	-3.2081405869	 0.085603
42.2563	75.9107	164.1757	196.3188	209.3646	245.9926	258.1076	282.5371	300.7924	342.1759	361.0957	424.6881	507.004	531.8152	665.9081	757.3397	784.2884	848.3017	934.2391	943.3042	977.746	1016.7495	1030.9648	1082.3244	1117.6271	1159.8878	1225.212	1252.5822	1353.9211	1393.3173	1409.8548	1442.7964	1477.4826	1481.5863	1495.7324	1501.545	1509.699	1800.0101	1868.1422	2919.8744	3031.5853	3048.6445	3104.1506	3121.2997	3141.5691	3150.0749	3571.8119	3809.2101
CC(C)(O)C(=O)NC=O	CC(C)(O)C(=O)NC=O	
InChI=1S/C5H9NO3/c1-5(2,9)4(8)6-3-7/h3,9H,1-2H3,(H,6,7,8)	InChI=1S/C5H9NO3/c1-5(2,9)4(8)6-3-7/h3,9H,1-2H3,(H,6,7,8)
