17
gdb 88814	2.87975	1.41133	1.11941	4.2065	67.37	-0.238	-0.0066	0.2315	1090.6483	0.136404	-458.965477	-458.957559	-458.956615	-458.998242	30.004	
O	-0.6830705804	 0.784975133	 1.6668968307	-0.434208
C	-0.1411505324	 0.0551017753	 0.6175682436	 0.14662
C	-0.6549794438	-1.2949692324	 0.193052163	-0.357401
C	-0.8334670691	-0.0868837322	-0.7216049718	-0.096912
C	-2.1895883666	 0.5412170224	-0.9406131711	-0.206964
C	-3.1730977385	-0.06457043	-1.9681024118	-0.10179
O	-4.1734146782	-0.2514510637	-0.9066768587	-0.225779
C	-3.312812236	 0.2001456796	 0.0420904073	 0.467727
O	-3.4817845499	 0.2291858022	 1.2263432047	-0.347356
H	-1.6236054336	 0.571314479	 1.7726221384	 0.30591
H	 0.9332666664	 0.2063710925	 0.586435398	 0.107847
H	 0.0510590871	-2.0650282652	-0.0983272137	 0.115514
H	-1.532700566	-1.6723472916	 0.7083330007	 0.132701
H	-0.1962740241	-0.0421333098	-1.601451521	 0.095469
H	-2.0991678008	 1.6274272502	-1.0510406786	 0.130212
H	-3.5561957027	 0.6002027398	-2.743367112	 0.132204
H	-2.8827175614	-1.0308185191	-2.3840765377	 0.136205
79.1415	135.857	177.6877	210.2759	265.4062	388.2794	466.8879	515.4926	553.9764	559.4235	720.2883	742.6803	775.7967	794.4857	835.9721	907.6687	942.1176	966.8158	998.0456	1054.8322	1068.9919	1080.6984	1127.8882	1142.457	1154.3293	1158.3913	1164.878	1220.3777	1250.9725	1320.2455	1362.9832	1372.2526	1384.0864	1465.5306	1490.8918	1513.5673	1893.0393	3058.2145	3081.8833	3130.4516	3133.0209	3148.42	3163.5424	3217.0027	3679.2172
OC1CC1C1COC1=O	O[C@H]1C[C@H]1[C@H]1COC1=O	
InChI=1S/C6H8O3/c7-5-1-3(5)4-2-9-6(4)8/h3-5,7H,1-2H2	InChI=1S/C6H8O3/c7-5-1-3(5)4-2-9-6(4)8/h3-5,7H,1-2H2/t3-,4+,5-/m0/s1
