22
gdb 121949	4.45147	0.62084	0.5718	1.3364	80.1	-0.2474	0.0697	0.3172	1971.2628	0.192433	-441.438383	-441.427664	-441.42672	-441.475383	37.543	
C	-0.2977655779	 1.3406282905	-0.2348566594	-0.227552
O	-0.2985046028	-0.0625193893	-0.33044964	-0.23299
C	 0.7742891447	-0.559054113	-1.1018030381	-0.054821
C	 0.6855236952	-2.07921352	-1.1232764699	-0.218097
C	 1.824073745	-2.7328795638	-1.9137318131	 0.086187
O	 3.1074845747	-2.357103413	-1.4086720499	-0.431411
C	 1.6715126932	-4.2386291636	-1.9695308042	 0.005061
C	 1.1192255902	-4.8928474797	-3.1825528792	-0.241692
N	 2.5446691189	-5.0287556485	-2.8453143775	-0.319504
H	 0.6240809761	 1.7191994114	 0.2352561246	 0.102932
H	-0.3964242479	 1.8191740139	-1.2226922319	 0.10191
H	-1.1524930796	 1.6286453989	 0.382319568	 0.125204
H	 0.7259881558	-0.1585167059	-2.1303545772	 0.080721
H	 1.740538392	-0.2428626334	-0.6798947398	 0.099299
H	 0.6976172656	-2.4491718176	-0.0892649313	 0.099214
H	-0.2766543338	-2.3805388024	-1.5533132057	 0.111639
H	 1.8215665572	-2.344961272	-2.9417898788	 0.079382
H	 3.2155756426	-2.7684982763	-0.5434208206	 0.281563
H	 1.4882386865	-4.7085620881	-1.0022363281	 0.085654
H	 0.5365488395	-5.8052845966	-3.0946695156	 0.120383
H	 0.834407062	-4.254531568	-4.0157851744	 0.110948
H	 3.1070250527	-4.3996558739	-3.414620698	 0.23597
51.1714	67.3512	87.5665	106.5932	134.0575	211.0361	234.7694	264.0145	291.0325	320.9482	337.25	472.9354	509.7404	569.4715	797.8797	817.8186	872.4744	908.8712	948.7656	965.7362	989.6192	1050.466	1065.1258	1090.4182	1103.4864	1131.9445	1157.1549	1164.3573	1180.7629	1187.7459	1222.5988	1233.1083	1248.7706	1278.2418	1288.2911	1310.9128	1317.3654	1364.1807	1412.2813	1424.1787	1438.449	1481.5599	1484.7729	1485.5614	1505.8785	1512.6248	1534.3759	2944.4822	2967.4946	3002.4037	3009.2399	3014.9118	3027.3114	3075.3921	3097.0083	3105.5978	3111.395	3190.3704	3494.1428	3794.8838
COCCC(O)C1CN1	COCC[C@@H](O)[C@H]1CN1	
InChI=1S/C6H13NO2/c1-9-3-2-6(8)5-4-7-5/h5-8H,2-4H2,1H3	InChI=1S/C6H13NO2/c1-9-3-2-6(8)5-4-7-5/h5-8H,2-4H2,1H3/t5-,6-/m1/s1
