16
gdb 65906	2.9374	1.30361	1.11198	3.2162	70.04	-0.2772	-0.0922	0.1849	1112.8132	0.122304	-437.889885	-437.880926	-437.879982	-437.924156	32.213	
O	 0.0904882369	 1.5336823974	-0.3340557113	-0.46611
C	-0.0556964254	 0.1752235209	-0.0123205338	 0.289992
C	 0.1558268279	-0.2687041465	 1.4806720753	-0.284301
C	-1.1648792106	-1.0768490338	 1.3865355331	-0.210689
C	-1.5260732264	-0.2958627608	 0.0947874537	-0.256842
C	 0.7685137961	-0.7043360849	-0.9438011308	 0.266797
O	 0.4863357642	-1.8216435651	-1.2912173892	-0.272442
C	 2.042268315	-0.0798610355	-1.3867528927	 0.208914
N	 3.0459982732	 0.4092619705	-1.6886579012	-0.301197
H	 0.999392675	 1.8126233207	-0.1674805231	 0.296653
H	 1.0758930285	-0.8021135917	 1.7318056955	 0.115089
H	 0.0645379816	 0.615328031	 2.1169447246	 0.122531
H	-0.9853289349	-2.1339339867	 1.1839003465	 0.12942
H	-1.8517049014	-0.9874552377	 2.2289986737	 0.111986
H	-2.1640737773	 0.5693664283	 0.2834074694	 0.124564
H	-1.9118034523	-0.867915006	-0.7494487795	 0.125634
37.2939	116.3749	143.6959	195.9735	259.3688	266.5817	304.9269	370.3643	384.7535	457.9342	553.516	653.9891	676.0723	740.5418	786.1664	809.1122	890.7687	942.0379	974.6551	994.0409	1044.2998	1060.5653	1163.637	1200.1861	1208.9521	1249.8386	1273.3062	1278.973	1301.5568	1361.9933	1460.3591	1476.8744	1497.4221	1795.4327	2332.1156	3061.6172	3082.8966	3085.9209	3117.593	3136.479	3151.5741	3785.5856
OC1(CCC1)C(=O)C#N	OC1(CCC1)C(=O)C#N	
InChI=1S/C6H7NO2/c7-4-5(8)6(9)2-1-3-6/h9H,1-3H2	InChI=1S/C6H7NO2/c7-4-5(8)6(9)2-1-3-6/h9H,1-3H2
