19
gdb 48491	1.9159	1.63236	1.13162	1.7924	76.44	-0.2595	-0.06	0.1994	1149.0141	0.158472	-423.061793	-423.052829	-423.051885	-423.097203	32.154	
O	-0.0009713565	-0.1724160898	 0.41754868	-0.239475
C	 0.0170972888	 0.9922184277	 0.1195751371	 0.101092
C	 1.2802941719	 1.8463237384	-0.0235649857	 0.143731
C	 2.5622324568	 0.9766335065	-0.1640460115	-0.279271
C	 2.9882017262	 1.1459757551	-1.6330718892	-0.201553
C	 2.5592207883	 2.5806793308	-1.9788997241	-0.201536
C	 1.1860830159	 2.7297956608	-1.300330297	-0.279309
C	 1.3521867225	 2.6865579272	 1.2549289973	 0.101084
O	 1.0512195139	 3.847577165	 1.3381045652	-0.239456
H	-0.9221126971	 1.5536178121	-0.0783022143	 0.101184
H	 3.3470151445	 1.350842887	 0.5044731243	 0.101789
H	 2.3580955653	-0.0582185122	 0.1183156715	 0.13334
H	 4.0552605854	 0.9635876797	-1.7854309846	 0.102753
H	 2.4412288537	 0.4333872764	-2.2621454657	 0.108278
H	 3.2677914169	 3.2950700944	-1.5427077544	 0.108276
H	 2.5204998003	 2.774659827	-3.0540585709	 0.102752
H	 0.3937877187	 2.3559037507	-1.9601029572	 0.101786
H	 0.934490325	 3.75948503	-1.0381151214	 0.133344
H	 1.7163723296	 2.1183253932	 2.1386306205	 0.10119
28.8441	52.4995	79.1516	201.191	279.4078	294.8544	324.0728	366.0703	426.9032	542.1941	614.4864	685.7127	778.1866	820.8957	842.0162	880.1483	912.1764	922.7331	979.3657	987.147	1032.1549	1041.6679	1082.0904	1130.3673	1137.4903	1206.3342	1222.0986	1255.5471	1265.6443	1320.4107	1340.4468	1345.3321	1349.4593	1413.4495	1418.3944	1489.7822	1493.5777	1495.6602	1512.2343	1800.2374	1838.9914	2894.1898	2896.72	3031.0503	3031.3902	3036.2155	3042.4127	3094.4279	3099.4683	3112.7865	3113.2493
O=CC1(CCCC1)C=O	O=CC1(CCCC1)C=O	
InChI=1S/C7H10O2/c8-5-7(6-9)3-1-2-4-7/h5-6H,1-4H2	InChI=1S/C7H10O2/c8-5-7(6-9)3-1-2-4-7/h5-6H,1-4H2
