17
gdb 44955	2.60105	1.81137	1.55484	3.2897	66.31	-0.2372	-0.0325	0.2047	918.3648	0.138364	-458.988998	-458.98216	-458.981216	-459.020195	27.438	
O	-0.0005243078	 0.0017786051	-0.0032885028	-0.307648
C	-0.0440746309	 1.200458481	 0.0000745588	 0.395829
C	-1.2822145984	 2.103892187	-0.0538834199	-0.355151
C	-0.6510102086	 3.5026960149	 0.0680999497	 0.072375
C	-0.3731039185	 3.9332747688	 1.5141867393	-0.21851
C	 0.5003344059	 2.8724871077	 2.2049638743	-0.092713
O	 1.5714505538	 2.4325500889	 1.3634557483	-0.255498
C	 1.1614600895	 2.1783441358	 0.0404611771	 0.071686
O	 0.6363911499	 3.3294964801	-0.573673585	-0.251984
H	-1.7768689534	 1.979108091	-1.0219646012	 0.144584
H	-1.9965186566	 1.8388380821	 0.7298457529	 0.133707
H	-1.1888745353	 4.2714947343	-0.4878274244	 0.092207
H	 0.1564039867	 4.8901850242	 1.4844178548	 0.121241
H	-1.3035112304	 4.0747229781	 2.0751556892	 0.104754
H	 0.9705159465	 3.2714978958	 3.1064417472	 0.122743
H	-0.1113939024	 2.0099184969	 2.5102802347	 0.109046
H	 2.03550465	 1.8287180982	-0.508081503	 0.113334
102.6851	238.5697	278.7183	349.0723	428.3558	449.5289	500.8591	562.8889	625.9349	676.9242	756.6192	810.7621	828.7957	873.1484	902.2481	938.0141	968.2352	985.1834	1030.2129	1034.556	1089.5221	1119.6536	1166.0963	1174.7937	1228.5759	1253.9523	1272.8827	1276.562	1337.325	1348.8858	1369.3544	1382.6793	1413.7266	1446.0803	1472.933	1514.0216	1869.6242	2991.2082	3047.1379	3063.5314	3094.8014	3103.7996	3106.0829	3114.8501	3135.2697
O=C1CC2CCOC1O2	O=C1C[C@H]2CCO[C@@H]1O2	
InChI=1S/C6H8O3/c7-5-3-4-1-2-8-6(5)9-4/h4,6H,1-3H2	InChI=1S/C6H8O3/c7-5-3-4-1-2-8-6(5)9-4/h4,6H,1-3H2/t4-,6-/m1/s1
