22
gdb 7663	3.76497	1.67841	1.37769	0.1177	82.95	-0.2799	0.0942	0.374	1014.9573	0.20012	-313.018955	-313.010416	-313.009472	-313.051384	33.491	
C	-0.3375875559	 1.482393668	 0.8977428741	-0.448298
C	-0.0558608278	 0.0378006707	 0.501977561	 0.067913
C	 1.2299718868	-0.3763992323	-0.2923874404	-0.094777
C	 2.0197743894	-0.1574207828	 1.0325549648	-0.245853
C	 0.7359246117	-0.944938742	 1.4310762238	-0.094811
C	 0.9741223521	-1.8658902508	 0.1692263658	 0.379423
C	-0.2072632184	-2.6461168598	-0.4269377888	-0.471751
C	 2.1597492724	-2.8420227028	 0.1871002867	-0.469017
H	 0.517518351	 2.0150522484	 1.3189485751	 0.116877
H	-0.6797824549	 2.0501972736	 0.0248404702	 0.114563
H	-1.1433935305	 1.5172867699	 1.6399777046	 0.11456
H	-0.9809193846	-0.3743096098	 0.1008746481	 0.057671
H	 1.5187933665	-0.0437364329	-1.2931162686	 0.056518
H	 2.9818444179	-0.6513585871	 1.1453503652	 0.089663
H	 2.0948768428	 0.8674814382	 1.3921882384	 0.089533
H	 0.450346356	-1.2732915992	 2.434155403	 0.056524
H	-1.1407449328	-2.0907058829	-0.511967001	 0.116656
H	 0.0511592529	-3.0025929162	-1.4308177542	 0.112902
H	-0.411922827	-3.5340984078	 0.182341204	 0.11291
H	 1.906105918	-3.7267703139	 0.7825385533	 0.112365
H	 2.3698701531	-3.1930830611	-0.8298923964	 0.112381
H	 3.0873851814	-2.4357963472	 0.5884126313	 0.114048
87.6575	161.2745	183.405	202.2878	262.0117	277.8885	403.5947	425.7539	462.6673	523.3286	561.5554	671.7614	725.817	796.4214	798.1488	846.8681	893.2423	948.6761	952.463	1004.281	1008.0198	1018.1297	1028.1077	1057.7825	1092.8882	1094.9649	1128.8732	1140.1083	1171.9937	1199.4263	1204.4457	1221.3198	1236.3976	1260.5473	1299.9316	1396.8038	1415.7105	1424.1191	1435.7729	1484.8876	1490.4433	1495.3674	1498.3341	1514.7567	1515.1961	1550.7617	3029.2747	3031.6519	3036.0393	3069.5385	3072.1697	3078.931	3083.7942	3085.8669	3097.458	3111.4525	3123.7919	3137.7307	3145.7725	3164.942
CC1C2CC1C2(C)C	C[C@H]1[C@H]2C[C@@H]1C2(C)C	
InChI=1S/C8H14/c1-5-6-4-7(5)8(6,2)3/h5-7H,4H2,1-3H3	InChI=1S/C8H14/c1-5-6-4-7(5)8(6,2)3/h5-7H,4H2,1-3H3/t5-,6+,7-
