14
gdb 14633	80.02236	0.49937	0.49937	0.0005	113.25	-0.2197	-0.0349	0.1848	2173.8255	0.104726	-308.21995	-308.210488	-308.209543	-308.255531	30.762	
C	-0.0181325057	 1.4826152146	 0.0102765128	-0.517468
C	 0.0017981354	 0.0322834749	 0.0017566336	 0.131818
C	 0.0183439969	-1.1804434233	-0.0050936812	-0.41755
C	 0.0363920482	-2.5321067483	-0.0120022098	 0.326884
C	 0.0527918334	-3.751341124	-0.0183533076	 0.326872
C	 0.0711821201	-5.1029965351	-0.0258625602	-0.417542
C	 0.0876617425	-6.3157250038	-0.0326199669	 0.131811
C	 0.107331974	-7.7660634738	-0.0406532618	-0.517469
H	 0.9982378757	 1.8928229435	 0.0029276233	 0.158771
H	-0.5429352346	 1.8767352991	-0.8675551057	 0.158771
H	-0.5260319177	 1.8665968633	 0.9024305586	 0.15878
H	-0.9091032063	-8.1761109859	-0.0331837382	 0.158774
H	 0.6151773627	-8.1504087104	-0.9326802083	 0.158773
H	 0.6320670453	-8.1599853209	 0.8373079414	 0.158775
19.5963	56.9054	57.4457	148.7186	149.2058	279.5671	279.9716	372.9786	373.2133	451.1926	521.0522	521.1002	634.0873	634.1158	808.9983	1044.4849	1044.9791	1047.3864	1047.8778	1099.4958	1374.2979	1411.2323	1417.225	1469.8125	1469.8302	1470.0766	1470.0937	2225.2837	2340.0346	2345.8759	3022.113	3022.4652	3084.5563	3084.6129	3084.7602	3084.8168
CC#CC#CC#CC	CC#CC#CC#CC	
InChI=1S/C8H6/c1-3-5-7-8-6-4-2/h1-2H3	InChI=1S/C8H6/c1-3-5-7-8-6-4-2/h1-2H3
