23
gdb 60396	3.63698	0.71297	0.65664	0.9878	83.66	-0.2406	0.0797	0.3202	1809.4658	0.202891	-425.403896	-425.393057	-425.392113	-425.440912	39.282	
C	-0.4533256368	 1.3617476015	 0.0559827408	-0.39353
C	 0.0751457995	-0.0742954725	-0.0307849369	 0.166408
C	 1.1872553958	-0.2111615776	-1.0655133509	-0.386441
O	 0.6203645096	-0.5177059455	 1.2054449504	-0.262327
C	-0.3336615027	-0.8327335627	 2.2033880015	-0.078291
C	 0.3896059399	-1.4718826617	 3.3590415235	-0.031053
C	 1.080553155	-0.5971602668	 4.387765705	-0.31706
C	-0.1606941521	-1.3693631771	 4.7523463297	 0.091572
O	-1.3786556937	-0.6959661981	 4.9115051857	-0.418366
H	 0.3539910958	 2.0432473462	 0.3439144558	 0.118644
H	-0.8481103872	 1.683563347	-0.9131826292	 0.11133
H	-1.2595525459	 1.4553318483	 0.7890202238	 0.117892
H	-0.7590475756	-0.7413046416	-0.3109990535	 0.059862
H	 2.0328981464	 0.4311976877	-0.7993127272	 0.120704
H	 1.5436314621	-1.2437289189	-1.1075415826	 0.11778
H	 0.8318794338	 0.0787675818	-2.0588792598	 0.108775
H	-0.8725589999	 0.0580909169	 2.55115611	 0.098698
H	-1.0877149211	-1.5279782411	 1.7961600424	 0.084109
H	 0.8836309959	-2.4058672623	 3.1082051323	 0.090938
H	 2.0369600036	-0.9100553804	 4.7919466474	 0.110553
H	 0.9666849311	 0.4746870412	 4.2616800306	 0.11579
H	-0.0426603394	-2.2417469844	 5.3951927969	 0.085845
H	-1.3258871541	-0.17974073	 5.7223149042	 0.288169
33.5634	51.8457	102.2767	134.6004	207.0378	211.3386	247.4954	269.686	295.3249	335.509	392.899	434.6088	472.6586	490.1208	588.5146	771.3289	824.212	842.213	905.538	923.5182	927.3219	939.5863	949.7198	997.4918	1047.5329	1074.3906	1103.89	1134.7196	1149.9831	1172.6139	1179.2357	1185.6834	1200.951	1238.9061	1270.7097	1305.9193	1350.7422	1368.007	1384.0478	1395.9531	1412.479	1422.3794	1447.8669	1480.7724	1485.6205	1489.9453	1496.0666	1509.2889	1525.3779	2946.0442	2958.9124	3031.381	3037.4972	3041.7205	3096.0685	3104.901	3111.9664	3114.6394	3121.4514	3130.4139	3154.1004	3219.4656	3808.8687
CC(C)OCC1CC1O	CC(C)OC[C@H]1C[C@H]1O	
InChI=1S/C7H14O2/c1-5(2)9-4-6-3-7(6)8/h5-8H,3-4H2,1-2H3	InChI=1S/C7H14O2/c1-5(2)9-4-6-3-7(6)8/h5-8H,3-4H2,1-2H3/t6-,7-/m1/s1
