23
gdb 104343	3.02794	1.19905	1.05666	1.225	86.44	-0.235	0.0336	0.2686	1271.726	0.205852	-388.316115	-388.306614	-388.30567	-388.349843	37.072	
C	-0.1518250216	 1.5592508077	-0.097776444	-0.410278
C	 0.054877381	 0.0425812349	-0.0288048932	-0.190655
C	 0.7597884389	-0.4645784205	 1.2463181264	 0.353706
O	-0.0337951711	-0.1500775797	 2.3991624762	-0.473513
C	 0.8437260853	-1.9986906742	 1.2300869852	-0.212177
C	 1.4780167784	-2.5506054145	 2.5130387628	-0.260463
C	 2.7356285991	-1.8113747857	 2.8783040696	-0.034589
C	 3.045849379	-0.6181158674	 2.3762389793	-0.058959
C	 2.1788704088	 0.1256047612	 1.3930224601	-0.284483
H	 0.7959852178	 2.1064640119	-0.1251601081	 0.117229
H	-0.7117529429	 1.8317017948	-0.9972680936	 0.117188
H	-0.7281347944	 1.9190609009	 0.7615189331	 0.110116
H	-0.921602302	-0.453135651	-0.0799975033	 0.098432
H	 0.6249757037	-0.2915362807	-0.9048744	 0.089657
H	 0.0685680809	 0.787338583	 2.5886283993	 0.277144
H	-0.1622548921	-2.4104237182	 1.096552086	 0.096044
H	 1.4382532403	-2.3028921063	 0.3604969835	 0.094125
H	 0.7593956581	-2.4723967356	 3.3391227559	 0.124427
H	 1.6903899274	-3.6202318403	 2.3939481452	 0.093441
H	 3.4009312663	-2.2832421798	 3.5976112531	 0.079924
H	 3.97085005	-0.1280818126	 2.671811603	 0.078368
H	 2.6703442418	 0.1490411321	 0.4091285075	 0.104855
H	 2.1032467673	 1.1803624402	 1.694732576	 0.09046
93.1529	118.807	182.1831	210.4483	214.1221	265.5859	333.4314	341.4966	383.9573	413.0509	434.852	536.5255	558.5651	668.7228	696.5843	772.8771	783.3705	876.7844	891.4054	936.9874	950.4327	972.6536	988.9364	1002.0229	1036.6894	1046.4266	1064.7905	1101.3223	1129.8049	1151.723	1190.4356	1203.6744	1254.0784	1271.1356	1322.2029	1330.0228	1359.1493	1366.9732	1377.6256	1398.688	1411.7908	1420.9784	1465.8475	1471.0406	1474.5458	1486.3671	1502.9585	1509.0434	1730.2998	2994.3638	3015.9315	3021.7998	3023.3554	3034.2897	3035.6721	3051.8556	3061.6711	3081.5488	3100.9434	3106.1342	3138.6865	3163.2269	3824.7171
CCC1(O)CCC=CC1	CC[C@@]1(O)CCC=CC1	
InChI=1S/C8H14O/c1-2-8(9)6-4-3-5-7-8/h3-4,9H,2,5-7H2,1H3	InChI=1S/C8H14O/c1-2-8(9)6-4-3-5-7-8/h3-4,9H,2,5-7H2,1H3/t8-/m0/s1
