19
gdb 72928	2.55648	2.02291	1.54199	2.5746	73.41	-0.2456	0.0652	0.3108	922.2398	0.161497	-422.988616	-422.981676	-422.980731	-423.019431	29.282	
O	-0.0947280354	 1.3771808958	-0.0033826852	-0.491735
C	 0.0327973254	-0.0183733658	-0.0202059358	 0.410155
C	-1.1978970679	-0.7287314299	 0.5636428479	-0.14713
O	-0.3781604485	-1.5003990161	 1.4741098519	-0.303271
C	 0.8226683425	-0.7949615307	 1.0807485199	 0.070813
C	 1.817904954	-1.5774612907	 0.2082367329	-0.048614
C	 0.9074960736	-2.1075380092	-0.9338647253	-0.235917
C	 0.7410187746	-0.596767888	-1.2607502989	-0.116798
C	 2.2347996733	-0.4565759735	-0.7987086754	-0.245701
H	 0.6739705724	 1.7625093632	-0.4370369138	 0.279912
H	-1.8581755182	-0.0366293671	 1.0985333876	 0.111887
H	-1.7892617943	-1.3627359498	-0.1070798655	 0.100266
H	 1.2695057015	-0.2390623046	 1.9103769748	 0.075668
H	 2.552209582	-2.2118709209	 0.7043243745	 0.067509
H	 1.4785363161	-2.6254887116	-1.7071422558	 0.097893
H	 0.0306881344	-2.6930051158	-0.6561061515	 0.115848
H	 0.39148372	-0.2477700617	-2.2334408725	 0.067704
H	 2.5731122681	 0.5044320957	-0.3940021687	 0.085513
H	 2.9454606764	-0.8090572793	-1.548471031	 0.105999
196.4511	254.7399	291.5811	295.6987	377.8644	452.2819	483.4198	519.5477	615.1922	669.0406	799.4549	843.4106	849.0931	866.2045	869.1539	928.6608	941.7394	994.0269	1003.451	1011.1632	1024.6641	1035.8668	1048.0068	1068.4182	1092.7921	1105.5102	1149.5896	1165.8259	1196.9992	1223.7787	1235.9383	1242.8458	1252.6168	1291.4982	1306.0871	1335.5785	1354.2996	1398.7665	1490.2078	1513.3551	1522.1113	3023.6634	3034.9629	3067.6374	3075.2337	3077.6	3106.5391	3114.3435	3121.2225	3139.4474	3811.4854
OC12COC1C1CC2C1	O[C@]12CO[C@H]1[C@H]1C[C@@H]2C1	
InChI=1S/C7H10O2/c8-7-3-9-6(7)4-1-5(7)2-4/h4-6,8H,1-3H2	InChI=1S/C7H10O2/c8-7-3-9-6(7)4-1-5(7)2-4/h4-6,8H,1-3H2/t4-,5+,6-,7-/m0/s1
