17
gdb 88919	3.67744	0.82547	0.71439	4.3976	74.78	-0.2621	-0.0844	0.1777	1543.7668	0.134204	-418.002876	-417.993385	-417.992441	-418.038646	33.001	
C	-0.0068725294	 1.5580227205	-0.1636422875	-0.396288
C	 0.0317281127	 0.0589682191	 0.0151752106	-0.011251
N	 1.3499956556	-0.5948048388	-0.0035126837	-0.333453
C	 0.5452449236	-0.6402716054	 1.2261203271	-0.016894
C	 1.1203159999	 0.0745752943	 2.4245437427	-0.318424
C	 2.008059517	-0.8236178914	 3.2593537867	 0.297699
O	 2.1888100472	-1.9991979374	 3.0728710366	-0.263042
C	 2.6691480395	-0.1429791255	 4.398483502	 0.228776
N	 3.1743747615	 0.4027415472	 5.2839387894	-0.294267
H	 0.8403756722	 2.0443894018	 0.3249148741	 0.125954
H	 0.0366808385	 1.8138183482	-1.2273861763	 0.127954
H	-0.9331996053	 1.9768147671	 0.2443740407	 0.119964
H	-0.7780660432	-0.4646462232	-0.4926267311	 0.08904
H	 1.3171908946	-1.4866372986	-0.488393128	 0.238741
H	 0.0680408462	-1.5854872033	 1.4738317969	 0.102876
H	 1.7127832169	 0.9459387183	 2.1250910546	 0.155456
H	 0.3325132426	 0.4595340373	 3.0891572451	 0.147158
40.4834	55.8656	95.7592	171.5678	196.7759	222.5265	270.2207	340.3188	412.492	477.4658	489.7817	578.8104	612.0889	775.75	791.3208	868.6042	886.2468	939.6732	984.0764	1029.3785	1034.079	1075.0121	1094.7174	1153.0192	1187.6809	1242.7045	1266.6581	1278.655	1337.6033	1405.9953	1422.8281	1431.4442	1473.0792	1491.4493	1506.6508	1802.6905	2336.5984	3017.3763	3038.7259	3081.9576	3099.5467	3103.2614	3130.0141	3139.6875	3518.1817
CC1NC1CC(=O)C#N	C[C@H]1N[C@H]1CC(=O)C#N	
InChI=1S/C6H8N2O/c1-4-6(8-4)2-5(9)3-7/h4,6,8H,2H2,1H3	InChI=1S/C6H8N2O/c1-4-6(8-4)2-5(9)3-7/h4,6,8H,2H2,1H3/t4-,6+/m1/s1
