18
gdb 9742	4.07553	1.47144	1.41276	2.3884	68.39	-0.2644	-0.0337	0.2308	955.7934	0.15379	-384.970246	-384.962318	-384.961373	-385.003159	29.641	
O	-0.1823464383	 1.4143113726	 0.3023518994	-0.483137
C	-0.0196299638	 0.0364872208	 0.051094179	 0.32865
C	 0.6993110942	-0.6476525631	 1.242298459	-0.238817
C	-0.4375560419	-0.8489917328	 2.2534345802	-0.203717
C	-1.5984297449	-1.3639056577	 1.3824497721	-0.202553
C	-1.4066954323	-0.6807732808	 0.000301999	-0.255302
C	 0.7524388907	-0.1489039092	-1.2345904381	 0.09737
O	 1.1674816787	 0.7819310564	-1.8826222835	-0.274955
H	 0.3005085745	 1.8663758237	-0.4078709086	 0.289295
H	 1.103706291	-1.6208208796	 0.9322319657	 0.092527
H	 1.5241782252	-0.0297363226	 1.6036616408	 0.111949
H	-0.1737521643	-1.5327211522	 3.0647446009	 0.094795
H	-0.69325446	 0.118270877	 2.6978659233	 0.121796
H	-1.5318304631	-2.4521189131	 1.2769312207	 0.099867
H	-2.5777107306	-1.1458385633	 1.8157305457	 0.105483
H	-2.1585520543	 0.0833453018	-0.2042715566	 0.126703
H	-1.4525819502	-1.4134313259	-0.8125486935	 0.097733
H	 0.9241319395	-1.1996720621	-1.5492223756	 0.092314
39.3728	93.9424	193.6235	304.839	326.9314	378.3598	402.3473	428.6762	492.4989	578.6433	720.2105	785.5377	834.8238	853.768	894.1467	912.4188	917.9626	985.9075	1006.3976	1050.3502	1058.7515	1064.2738	1125.3005	1189.7445	1235.6207	1251.9887	1287.4695	1306.673	1324.7828	1335.1613	1348.8125	1389.9901	1434.436	1470.1191	1474.2638	1489.5038	1508.8873	1809.8303	2916.9495	3019.7604	3040.4212	3053.1685	3054.531	3091.3637	3103.9945	3111.9956	3121.8121	3685.5248
OC1(CCCC1)C=O	OC1(CCCC1)C=O	
InChI=1S/C6H10O2/c7-5-6(8)3-1-2-4-6/h5,8H,1-4H2	InChI=1S/C6H10O2/c7-5-6(8)3-1-2-4-6/h5,8H,1-4H2
