23
gdb 68788	2.26454	1.42588	1.30757	1.0185	85.76	-0.239	0.0773	0.3163	1168.1556	0.203428	-388.273668	-388.2637	-388.262756	-388.307268	39.227	
C	 0.0980001552	 1.5327859443	 0.0086838095	-0.504118
C	-0.0000275922	 0.0336673997	 0.0714599623	 0.273581
C	 1.1914233917	-0.8423664581	-0.2871443573	-0.413972
C	 0.5761248522	-0.9516830978	 1.0775865167	 0.368002
O	 1.2692575152	-0.6500120542	 2.239953841	-0.469856
C	-0.6818238605	-1.8210656829	 1.0208786268	-0.352738
C	-1.31210176	-0.7981477827	-0.0004227861	 0.29306
C	-2.4938134471	-0.0575623873	 0.6307620874	-0.446172
C	-1.7074537806	-1.3530521445	-1.3695162133	-0.449848
H	 1.0814731659	 1.8664562237	 0.354298145	 0.123653
H	-0.035867048	 1.9024388938	-1.0152453425	 0.115238
H	-0.6536189554	 2.0184245613	 0.6388601952	 0.118951
H	 1.1231379536	-1.6533973023	-1.0086165398	 0.09837
H	 2.1330757464	-0.3013083729	-0.3110447602	 0.106822
H	 1.9748729729	-1.2969777952	 2.348811645	 0.282697
H	-0.5447466134	-2.8498051538	 0.6682424037	 0.082961
H	-1.2237924727	-1.8389562996	 1.9695634896	 0.102085
H	-2.232217882	 0.353436894	 1.6113499973	 0.118797
H	-2.8329668642	 0.7705493418	-0.0019048431	 0.110642
H	-3.3406359905	-0.7392056314	 0.7686684084	 0.109523
H	-2.5578870074	-2.0385971157	-1.2792176304	 0.110632
H	-2.0059609635	-0.5455847993	-2.0480742927	 0.111105
H	-0.8906726457	-1.902229561	-1.8464335425	 0.110586
126.6388	168.2038	186.167	210.0757	230.6001	263.8131	273.0404	302.9758	345.1612	389.94	399.5274	446.3783	456.2775	527.6113	575.3495	649.7235	727.1066	788.4416	822.8475	896.624	927.2465	958.3377	961.2522	969.5489	990.381	1029.3714	1047.2065	1073.8994	1105.1083	1167.6995	1184.6819	1193.9819	1235.1354	1259.3827	1283.9974	1309.5226	1326.7416	1397.4288	1410.5422	1415.5501	1428.3489	1477.0484	1482.717	1487.1744	1491.0537	1499.0242	1506.3905	1509.9697	1517.475	3021.5861	3024.7936	3027.1352	3033.6775	3083.8325	3085.9392	3090.5163	3095.3622	3100.57	3103.0995	3103.9341	3107.9456	3191.6593	3791.9992
CC12CC1(O)CC2(C)C	C[C@@]12C[C@]1(O)CC2(C)C	
InChI=1S/C8H14O/c1-6(2)4-8(9)5-7(6,8)3/h9H,4-5H2,1-3H3	InChI=1S/C8H14O/c1-6(2)4-8(9)5-7(6,8)3/h9H,4-5H2,1-3H3/t7-,8+/m0/s1
