23
gdb 96365	2.28934	1.5806	1.23395	1.1745	84.82	-0.2385	0.083	0.3216	1146.1121	0.207548	-388.292496	-388.283907	-388.282963	-388.325115	34.566	
C	-0.0660290837	 1.5671297728	 0.0021299835	-0.398689
C	 0.0317565369	 0.03431976	 0.023893632	-0.064355
C	 0.777028746	-0.4943885086	-1.2142248942	-0.08234
O	 2.1530248774	-0.1477987211	-1.1916650226	-0.248583
C	 2.8276412619	-0.7291842925	-0.087493644	-0.069554
C	 2.2422775465	-0.248809808	 1.2446242587	-0.290065
C	 0.7413962847	-0.5000860244	 1.2689304891	 0.40572
C	 0.0149280147	-0.4990280996	 2.5858551653	-0.334579
C	 0.254106933	-1.8037827476	 1.8596328856	-0.321716
H	 0.9204137803	 2.023880819	-0.1146370123	 0.12888
H	-0.6844856458	 1.9021477276	-0.8373342435	 0.108362
H	-0.514051498	 1.9480890103	 0.9248448036	 0.111488
H	-0.9857613462	-0.3785352881	 0.0013057996	 0.061989
H	 0.6673097127	-1.5905487332	-1.2736912382	 0.083025
H	 0.3700185467	-0.0611366013	-2.1335013681	 0.099198
H	 2.7641835946	-1.8295281534	-0.1463429341	 0.084431
H	 3.8793132457	-0.444590716	-0.1867824979	 0.102294
H	 2.7347561826	-0.7661624725	 2.0763644334	 0.089564
H	 2.4528678543	 0.8212783117	 1.3619098775	 0.104679
H	 0.5854257789	-0.3042438079	 3.4884582318	 0.107387
H	-0.9986314169	-0.1110356335	 2.6108197871	 0.108091
H	-0.5982221985	-2.2931600913	 1.3993347178	 0.107727
H	 0.986981452	-2.4898963521	 2.27205144	 0.107045
123.3428	169.1923	209.8039	223.4614	266.1806	297.4526	378.1633	379.9068	420.8398	481.3191	558.5655	631.9284	709.8345	781.5732	827.6062	865.8545	896.9347	911.4888	931.4955	941.6788	967.4306	988.057	1002.4919	1049.5074	1063.586	1078.2907	1081.1169	1116.4754	1147.1666	1161.4237	1187.5893	1211.2052	1254.9953	1282.1929	1312.8201	1325.3154	1343.7815	1360.1892	1383.9944	1399.3284	1408.4531	1427.5893	1467.5066	1479.2476	1487.2234	1494.7127	1500.9367	1506.9032	1507.9944	2957.4096	2963.4898	3015.2416	3026.2923	3037.6511	3067.5717	3074.2399	3082.6665	3101.7987	3117.8832	3120.5358	3124.9544	3197.4892	3211.8326
CC1COCCC11CC1	C[C@H]1COCCC21CC2	
InChI=1S/C8H14O/c1-7-6-9-5-4-8(7)2-3-8/h7H,2-6H2,1H3	InChI=1S/C8H14O/c1-7-6-9-5-4-8(7)2-3-8/h7H,2-6H2,1H3/t7-/m0/s1
