23
gdb 117699	3.61304	0.71861	0.71498	2.7294	82.66	-0.2473	-0.0258	0.2215	1681.0383	0.201956	-425.433521	-425.422121	-425.421177	-425.470795	40.596	
C	 0.1108884263	 1.5807141576	 0.0912195304	-0.42084
C	 0.051036269	 0.0408123882	 0.147123696	 0.236601
C	 0.764121489	-0.4656397232	 1.4151064684	-0.414394
C	-1.4153790436	-0.4523877382	 0.1004406548	-0.17622
C	-2.2995620288	-0.1008991002	 1.2944105097	-0.101451
O	-3.5965175946	-0.6053429644	 1.0023437761	-0.418877
C	 0.7531051161	-0.5652687717	-1.1114688635	-0.283276
C	 2.1641874555	-0.0637476258	-1.3213505967	 0.139838
O	 3.1517941297	-0.6128670971	-0.8991859889	-0.243612
H	 1.1433037892	 1.9428262623	 0.1317675615	 0.120197
H	-0.3457555318	 1.9652948164	-0.8276116797	 0.112918
H	-0.4161354972	 2.0296747551	 0.9379078384	 0.118886
H	 0.367278544	 0.0192959501	 2.3121843528	 0.111642
H	 0.6366626697	-1.5472647742	 1.5317825589	 0.11548
H	 1.8379168033	-0.2643587262	 1.3741005583	 0.134779
H	-1.9027273921	-0.0532450764	-0.7978946601	 0.101856
H	-1.4241747742	-1.5443735734	-0.0037255152	 0.103729
H	-1.9011817575	-0.5527317368	 2.2149041899	 0.090378
H	-2.3299713747	 0.9884350448	 1.4495129173	 0.086454
H	-4.1666783352	-0.4189476896	 1.7538425665	 0.285875
H	 0.7921939595	-1.6542532809	-1.0073694281	 0.119838
H	 0.1601478395	-0.3181792989	-2.0009122376	 0.102328
H	 2.2524380591	 0.8841150726	-1.9000175391	 0.07787
42.3019	71.9055	79.2838	113.8999	154.0729	243.8946	255.1842	265.422	290.885	306.3224	323.7628	336.0209	404.5014	412.4848	524.0565	544.205	738.5783	797.5792	856.6752	918.4716	945.0976	960.4948	985.9976	997.5707	1023.5247	1055.5049	1074.1303	1095.855	1180.8553	1195.0463	1226.6462	1231.2823	1260.4933	1294.953	1318.7081	1343.3664	1353.7206	1405.7064	1427.9376	1432.853	1461.7936	1470.2644	1483.3143	1487.4335	1497.8831	1507.3435	1513.7274	1530.1584	1822.4178	2865.6873	2977.6058	3005.3708	3023.4438	3028.3751	3031.91	3038.5108	3067.4483	3092.6298	3097.6268	3102.0292	3106.7136	3117.7048	3829.9465
CC(C)(CCO)CC=O	CC(C)(CCO)CC=O	
InChI=1S/C7H14O2/c1-7(2,3-5-8)4-6-9/h5,9H,3-4,6H2,1-2H3	InChI=1S/C7H14O2/c1-7(2,3-5-8)4-6-9/h5,9H,3-4,6H2,1-2H3
