20
gdb 8414	3.34475	1.83908	1.54319	1.4775	74.56	-0.245	0.0748	0.3199	923.3104	0.17634	-348.976555	-348.968317	-348.967373	-349.008261	32.629	
C	-0.2055580934	 1.5969679445	 0.0226435586	-0.452775
C	 0.00070576	 0.0821181337	 0.018846173	 0.342031
C	-1.3258246755	-0.6374280472	-0.2452248857	-0.431901
C	 1.1356193933	-0.4974074257	-0.899189729	-0.282207
C	 1.7442318657	-1.2217283922	 0.3087146022	-0.115279
C	 2.1534125998	-0.2363972338	 1.3591506024	 0.091002
O	 2.6547872962	 1.0412256006	 1.0701185219	-0.418345
C	 0.7005825754	-0.5527290617	 1.2417853551	-0.115132
H	 0.7345246739	 2.1240130896	 0.1863061549	 0.139531
H	-0.6347906671	 1.928442254	-0.9308623768	 0.100293
H	-0.9046515525	 1.8899894876	 0.8150506625	 0.104151
H	-1.7389402147	-0.3451708328	-1.2172623706	 0.108626
H	-1.1986100231	-1.7252828527	-0.242776247	 0.109013
H	-2.0674466235	-0.3859859954	 0.5222333149	 0.108516
H	 0.7529958009	-1.1708024173	-1.6691806726	 0.095778
H	 1.790131816	 0.2426288638	-1.3692555347	 0.088832
H	 2.1110139683	-2.2419916598	 0.3073318586	 0.080111
H	 2.6155866804	-0.6975223892	 2.2340658949	 0.08553
H	 3.5330881057	 0.9324615202	 0.689869947	 0.284958
H	 0.1596201443	-0.9804139961	 2.0804286003	 0.077267
164.5873	186.4243	218.0987	267.0961	280.1894	295.4572	352.3232	376.0333	384.9874	513.1121	609.8844	642.1155	732.9742	785.0423	844.249	868.8119	923.1485	955.9147	969.1761	998.0278	999.32	1010.3634	1029.2309	1051.8189	1083.3364	1147.0554	1207.7114	1212.826	1237.0042	1244.2356	1276.7867	1300.2108	1307.7353	1357.014	1398.974	1419.7939	1452.1943	1481.7735	1489.2755	1490.8288	1501.4496	1515.0613	3018.5486	3024.4949	3052.7352	3076.8547	3085.3066	3086.7388	3093.8043	3108.5524	3148.5956	3152.6609	3172.1262	3802.2262
CC1(C)CC2C(O)C12	CC1(C)C[C@H]2[C@@H](O)[C@@H]12	
InChI=1S/C7H12O/c1-7(2)3-4-5(7)6(4)8/h4-6,8H,3H2,1-2H3	InChI=1S/C7H12O/c1-7(2)3-4-5(7)6(4)8/h4-6,8H,3H2,1-2H3/t4-,5+,6-/m1/s1
