16
gdb 50653	3.10392	1.19337	0.89893	2.3371	65.98	-0.2381	-0.0478	0.1903	1222.3799	0.124165	-475.050961	-475.042635	-475.041691	-475.085054	29.644	
O	-0.9332265014	 1.0678271632	 0.324551093	-0.24263
C	 0.2003283111	 0.8614955153	-0.019651401	 0.134767
C	 1.2831751612	 1.9295125416	 0.0485025468	 0.030611
C	 1.456968431	 2.4878065069	 1.4670762153	-0.194878
N	 2.6061868485	 3.3746504838	 1.5490201678	-0.288764
C	 3.8206164797	 2.6764055036	 1.1435559406	-0.309175
C	 3.7245030921	 1.7206364427	-0.0475971404	 0.394055
O	 4.6902590683	 1.2539731673	-0.5817894055	-0.310191
O	 2.486629786	 1.3408129754	-0.468355915	-0.242903
H	 0.5511072988	-0.1235558317	-0.3957579667	 0.110647
H	 0.9882404019	 2.7481530838	-0.6239850308	 0.120003
H	 0.54039632	 3.0087674985	 1.752673791	 0.14155
H	 1.6027684545	 1.6632622427	 2.1761552591	 0.12555
H	 2.4575279844	 4.1856095905	 0.9563913101	 0.228742
H	 4.6165517	 3.3906666096	 0.922786473	 0.150316
H	 4.1825666939	 2.0639068569	 1.9813969327	 0.152301
53.0392	88.3697	98.6697	192.7605	275.3583	377.6739	421.4139	437.768	504.4004	524.2	570.9763	710.6341	782.0225	820.7765	869.278	927.6707	980.588	1002.4467	1079.894	1122.4575	1127.8591	1158.6676	1196.2577	1244.7162	1293.3285	1328.1318	1339.3447	1355.7826	1380.8729	1398.1476	1453.0701	1480.5406	1490.3492	1834.1922	1854.2366	2913.3708	3005.644	3021.6856	3039.1357	3115.6958	3116.5212	3514.4007
O=CC1CNCC(=O)O1	O=C[C@H]1CNCC(=O)O1	
InChI=1S/C5H7NO3/c7-3-4-1-6-2-5(8)9-4/h3-4,6H,1-2H2	InChI=1S/C5H7NO3/c7-3-4-1-6-2-5(8)9-4/h3-4,6H,1-2H2/t4-/m1/s1
