19
gdb 109349	3.03692	1.26233	0.95873	2.4123	77.81	-0.2258	0.0214	0.2472	1230.092	0.159542	-423.003405	-422.994903	-422.993959	-423.036746	32.077	
O	 0.0429548683	 1.4246652513	 0.0940573129	-0.415274
C	 0.0066958117	 0.0136192792	 0.0025341682	-0.157503
C	-1.4146394839	-0.4727112295	-0.0282722995	 0.271145
C	-2.4754934939	 0.3323117535	 0.0121533439	-0.165436
C	-3.8725462991	-0.2271066098	-0.0602875578	-0.127477
O	-3.9501053849	-1.448552489	-0.7897382611	-0.259593
C	-3.0080253181	-2.4124333965	-0.4223406189	 0.102175
C	-1.8894049116	-2.6708334219	-1.3945231046	-0.308805
C	-1.6216759087	-1.9458428467	-0.0799157631	-0.15507
H	 0.9632775783	 1.7008066891	 0.0930777183	 0.290238
H	 0.5239135622	-0.3464095269	-0.9042995723	 0.098918
H	 0.5260964821	-0.4560899428	 0.8574294103	 0.091291
H	-2.3534827478	 1.4066340732	 0.0864954158	 0.111244
H	-4.2877660968	-0.3575210236	 0.9545465892	 0.099002
H	-4.5361787234	 0.4653275621	-0.5879924231	 0.115438
H	-3.4299094476	-3.2527649009	 0.1267314656	 0.086435
H	-1.5159989096	-3.6830057137	-1.5082712145	 0.108549
H	-1.9021594403	-2.0718481349	-2.2979811903	 0.123892
H	-1.0838030367	-2.5183038321	 0.6724918209	 0.090831
75.5876	127.8178	178.0808	206.4825	240.1993	252.7	372.7605	404.9818	515.2663	557.6077	583.277	733.1237	766.3772	813.9946	829.6678	836.0478	944.892	978.4606	1003.3752	1040.8291	1043.6885	1056.25	1075.6954	1084.0514	1110.2122	1124.8992	1171.535	1184.6146	1220.3141	1235.4414	1251.865	1268.1848	1314.6085	1365.1322	1404.481	1416.8225	1463.2553	1473.4317	1495.9278	1508.7958	1738.9142	2937.674	2949.7631	2954.9502	3070.8417	3109.1929	3128.2144	3134.0896	3204.0508	3228.9293	3843.4493
OCC1=CCOC2CC12	OCC1=CCO[C@H]2C[C@@H]12	
InChI=1S/C7H10O2/c8-4-5-1-2-9-7-3-6(5)7/h1,6-8H,2-4H2	InChI=1S/C7H10O2/c8-4-5-1-2-9-7-3-6(5)7/h1,6-8H,2-4H2/t6-,7-/m0/s1
