18
gdb 14730	7.70307	0.5813	0.56558	1.2644	75.67	-0.2495	0.0317	0.2811	1975.7683	0.150496	-384.888945	-384.878752	-384.877808	-384.925815	33.648	
C	-0.0801422104	 1.4784683634	 0.3263450679	-0.386535
C	-0.0526736689	-0.001011024	-0.0155868047	-0.016258
O	-1.3790007499	-0.4916735424	 0.0161991387	-0.240379
C	-1.4512801186	-1.86963358	-0.2913995756	-0.206492
C	-2.8305948043	-2.3314858032	-0.2358837955	-0.004702
C	-3.9608377465	-2.7407074595	-0.190537985	 0.179089
C	-5.3366681445	-3.2162265048	-0.1610693092	-0.218358
O	-5.5864623596	-3.8997293933	 1.0612529032	-0.408663
H	 0.9327941861	 1.8917423262	 0.311427003	 0.114397
H	-0.6910039288	 2.0271812615	-0.3958944206	 0.128727
H	-0.5051399052	 1.6332354071	 1.3219269773	 0.130235
H	 0.3887686804	-0.160847806	-1.0146074818	 0.085033
H	 0.5751907108	-0.5544640493	 0.7038671953	 0.086491
H	-1.0340294876	-2.0619717963	-1.2957915812	 0.113036
H	-0.8396405212	-2.4562696023	 0.416558716	 0.117989
H	-6.0111796229	-2.3527956032	-0.281812306	 0.120658
H	-5.5071743074	-3.8754327883	-1.0281742087	 0.116258
H	-6.5057445114	-4.1851658556	 1.0466253272	 0.289473
28.6716	65.9743	78.0222	112.2109	141.316	213.4285	239.4183	245.297	303.9446	350.8976	402.4036	511.1775	567.4916	791.1024	822.4017	907.964	1020.3749	1028.2469	1030.5219	1050.7318	1130.9164	1146.2182	1170.3704	1188.6666	1245.3226	1255.9596	1260.4328	1295.3545	1378.9825	1405.521	1448.0273	1459.5466	1483.1875	1494.4719	1499.9336	1500.8306	1531.5904	2376.8942	2940.672	2952.6548	2960.15	2962.4616	2973.1773	2981.2246	3045.5324	3119.6738	3123.4536	3817.2994
CCOCC#CCO	CCOCC#CCO	
InChI=1S/C6H10O2/c1-2-8-6-4-3-5-7/h7H,2,5-6H2,1H3	InChI=1S/C6H10O2/c1-2-8-6-4-3-5-7/h7H,2,5-6H2,1H3
