19
gdb 23395	2.9474	1.31751	1.22503	0.1326	78.63	-0.232	0.0152	0.2473	1109.0244	0.161983	-419.144116	-419.136277	-419.135333	-419.176418	30.919	
O	-0.1408786355	 1.3467702875	 0.0148170557	-0.402642
N	 0.0280954464	-0.0592549972	-0.0081966047	-0.292063
C	-1.0913268482	-0.6438995287	-0.0638973003	 0.471809
C	-2.5624249507	-0.3052380205	 0.0409895975	-0.105264
C	-3.2172506043	-0.4020550375	-1.3491350512	-0.199493
C	-3.1420909521	-1.8631885435	-1.8578129448	-0.188018
C	-1.8843435823	-2.6193593207	-1.3619140025	-0.198828
C	-1.480526864	-2.0990583926	 0.0307505067	-0.100712
N	-2.7518255076	-1.6466040716	 0.738470603	-0.33198
H	 0.7694215728	 1.6547444191	 0.0773366714	 0.305028
H	-2.8560890317	 0.5815539276	 0.6044873345	 0.091636
H	-4.263993647	-0.0851005957	-1.2958009811	 0.102104
H	-2.7042310714	 0.2918666923	-2.0238557359	 0.113297
H	-4.0175070072	-2.3922130397	-1.4759929089	 0.121426
H	-3.2034887167	-1.8939751285	-2.9495926551	 0.093293
H	-2.0964030328	-3.692596167	-1.3152403685	 0.101774
H	-1.0350402355	-2.4869201402	-2.0412066446	 0.110233
H	-0.836227183	-2.7856012509	 0.583488117	 0.084316
H	-2.5136176893	-1.5078046619	 1.7193278818	 0.224085
91.4987	170.0221	193.1082	259.3393	319.8544	391.2209	418.9335	469.4868	535.5522	582.8827	682.7731	743.2453	791.6579	839.1699	845.4251	867.1851	886.3407	931.419	934.2735	954.7412	1056.6512	1069.7619	1081.3839	1104.8341	1115.691	1136.0981	1184.9153	1229.3289	1255.6616	1289.3729	1305.3143	1322.0331	1343.4182	1362.6967	1371.995	1383.8481	1408.68	1480.4399	1487.3055	1500.5809	1795.2191	3039.4186	3040.5744	3064.1502	3075.3098	3080.6243	3096.0257	3106.0934	3112.5894	3474.6805	3819.592
ON=C1C2CCCC1N2	ON=C1[C@H]2CCC[C@@H]1N2	
InChI=1S/C6H10N2O/c9-8-6-4-2-1-3-5(6)7-4/h4-5,7,9H,1-3H2	InChI=1S/C6H10N2O/c9-8-6-4-2-1-3-5(6)7-4/h4-5,7,9H,1-3H2/t4-,5+
