19
gdb 37092	2.25281	1.96946	1.33192	2.1281	79.94	-0.2229	0.0727	0.2956	1018.115	0.159959	-381.973663	-381.966018	-381.965074	-382.005464	30.881	
C	 0.0766954952	 1.4449723963	-0.099369834	-0.243784
C	 1.305021019	 0.6250751446	-0.0219439271	-0.139664
N	-0.0715919421	-0.023001818	-0.0059287516	-0.174686
C	 0.2194715621	-0.544295433	-1.3737901394	 0.320085
C	-0.1916806968	-1.910427907	-1.797079548	-0.329223
C	-0.7974090272	-0.6867390962	-2.4611131452	-0.337761
C	 1.6219887193	 0.0301906648	-1.3767591025	 0.293069
C	 2.5199409249	 0.5382265678	-2.4360695584	-0.313217
N	 2.8002553449	-0.7406119088	-1.74389539	-0.367293
H	-0.2453821443	 1.9605151006	 0.8006527715	 0.120394
H	-0.1811269947	 1.9402749697	-1.0324961799	 0.118132
H	 1.9557131478	 0.599571439	 0.8471774624	 0.099753
H	 0.5361731637	-2.4963230191	-2.347627298	 0.130398
H	-0.8173447859	-2.4695693696	-1.1101692395	 0.123922
H	-1.8254789227	-0.4385509844	-2.2181803393	 0.119939
H	-0.5020666827	-0.4475412789	-3.4778034325	 0.114188
H	 2.2484601346	 0.4344802884	-3.483495547	 0.119734
H	 3.1345202213	 1.4068502815	-2.2112068181	 0.113112
H	 3.5393365036	-0.6198928279	-1.0549039134	 0.232901
125.1747	189.2135	191.7841	265.0757	303.1244	363.4863	504.4985	551.445	578.0886	585.6141	755.6346	765.3209	789.9112	850.4273	877.6686	895.9782	927.6473	946.1003	967.81	982.4837	1004.1773	1021.4931	1042.4161	1048.8976	1051.4717	1073.0087	1110.9188	1124.7262	1142.7422	1188.3079	1192.1999	1231.1547	1258.0896	1277.2256	1309.8753	1365.2415	1448.6591	1452.5728	1492.0349	1500.3125	1522.6827	3100.5117	3106.6575	3126.0731	3136.2396	3154.1366	3185.2541	3198.9467	3209.6747	3230.1641	3491.3735
C1C2N1C1(CC1)C21CN1	C1[C@H]2N1C1(CC1)[C@]12CN1	
InChI=1S/C7H10N2/c1-2-6(1)7(4-8-7)5-3-9(5)6/h5,8H,1-4H2	InChI=1S/C7H10N2/c1-2-6(1)7(4-8-7)5-3-9(5)6/h5,8H,1-4H2/t5-,7-,9?/m1/s1
