19
gdb 90020	2.83251	1.48047	1.16447	3.8796	75.87	-0.2494	-0.0348	0.2146	1096.7919	0.158833	-423.024876	-423.016597	-423.015652	-423.057973	32.117	
O	-0.0314866596	 1.4760140003	-0.1266886076	-0.445055
C	-0.0103059144	 0.0737951948	-0.0917496894	 0.156369
C	 0.3256385442	-0.5392950486	 1.3012129449	-0.309056
C	-1.2039298458	-0.682460936	 1.5578590269	 0.229465
C	-1.8801660441	-1.6995443555	 2.5191090151	-0.345564
C	-2.5223589898	-0.5319112537	 3.3353060766	-0.337246
C	-1.8410867273	 0.4429721478	 2.3691729584	 0.368805
O	-1.8020609724	 1.6419434436	 2.2619323188	-0.323775
C	-1.4126760511	-0.5975205759	 0.0167032491	-0.309058
H	-0.5830164697	 1.7976620264	 0.605066871	 0.294443
H	 0.6175273877	-0.2439470664	-0.9269789849	 0.082807
H	 0.8006315098	-1.521542472	 1.2185665428	 0.105384
H	 0.9001338535	 0.0903891512	 1.9855383164	 0.111499
H	-2.6030147088	-2.3585431582	 2.0336334361	 0.11352
H	-1.1763529576	-2.3108371606	 3.0878284622	 0.113519
H	-3.614681409	-0.4755122337	 3.3204764022	 0.13853
H	-2.1907780885	-0.4278341372	 4.3725112727	 0.138528
H	-2.2617761981	-0.0155249727	-0.3509353812	 0.1115
H	-1.430222859	-1.5962652334	-0.4299043199	 0.105385
53.3569	148.6096	156.1722	255.9039	264.7034	388.8354	405.7146	487.8793	506.3736	540.1488	581.8664	711.9675	732.6772	802.633	802.692	850.124	853.4508	919.3338	934.586	956.3234	993.4127	1054.4591	1073.2828	1093.8894	1127.4343	1153.1331	1189.9363	1197.4024	1204.786	1228.0878	1242.1047	1257.9387	1266.6407	1295.0075	1351.8223	1433.8383	1455.1671	1469.8538	1484.9781	1486.711	1852.086	3048.8635	3053.4717	3060.8589	3072.9851	3087.8568	3107.5008	3113.3872	3114.0114	3127.417	3667.907
OC1CC2(CCC2=O)C1	O[C@H]1C[C@]2(CCC2=O)C1	
InChI=1S/C7H10O2/c8-5-3-7(4-5)2-1-6(7)9/h5,8H,1-4H2	InChI=1S/C7H10O2/c8-5-3-7(4-5)2-1-6(7)9/h5,8H,1-4H2/t5-,7+
