19
gdb 89241	3.1138	1.62595	1.27207	1.9017	75.15	-0.2093	0.0732	0.2825	1023.8114	0.161008	-419.129136	-419.12171	-419.120765	-419.160588	30.423	
C	 0.034078484	 1.5045759353	-0.0910946694	-0.327368
N	-0.0419793997	 0.0601764581	 0.046399857	-0.079381
C	-1.4101290576	-0.4801917687	 0.2366363011	-0.23501
C	-1.181576384	-1.3733595455	 1.4452171453	 0.466496
O	-2.2519878531	-2.1292151866	 1.8671661039	-0.494367
C	-0.2604825542	-0.6085769322	 2.4622889599	-0.135409
N	 0.3318307907	-1.9436698598	 2.8465396266	-0.371648
C	 0.2632596197	-1.9809982205	 1.3382230088	-0.128104
C	 0.6579740469	-0.4924106985	 1.1930224107	 0.016501
H	 1.0816800394	 1.8077933458	-0.1890944017	 0.118723
H	-0.4886484006	 1.8167142463	-1.0006115779	 0.123652
H	-0.4046164021	 2.0597131669	 0.7588182217	 0.093986
H	-2.1433230954	 0.3076331582	 0.4557204326	 0.101343
H	-1.7589963103	-1.0388091438	-0.6388794857	 0.112717
H	-1.927486922	-2.6346537535	 2.6268979557	 0.293051
H	-0.5444369935	 0.1362556975	 3.2075196671	 0.077174
H	 1.3015622373	-1.8265780679	 3.1530201002	 0.211416
H	 0.5978414455	-2.8370993568	 0.7508187854	 0.080575
H	 1.700296199	-0.1890249945	 1.2995512486	 0.075653
130.5002	221.9077	261.3651	293.8844	351.9583	400.6384	453.8371	500.7587	530.9002	614.6771	677.3965	711.7521	757.3724	834.9866	863.5193	898.1591	901.7149	947.062	1009.2168	1024.1046	1059.9058	1080.9879	1118.5295	1129.0028	1136.7352	1146.2782	1156.9983	1169.5638	1203.0482	1215.8645	1242.3728	1267.8146	1279.9547	1314.4288	1332.0404	1392.5407	1437.0407	1459.3752	1488.9318	1505.2996	1517.6684	2933.498	3013.4613	3059.7802	3061.082	3099.8645	3101.3941	3106.898	3120.6634	3400.5391	3737.0041
CN1CC2(O)C3NC2C13	CN1C[C@]2(O)[C@H]3N[C@@H]2[C@@H]13	
InChI=1S/C6H10N2O/c1-8-2-6(9)4-3(8)5(6)7-4/h3-5,7,9H,2H2,1H3	InChI=1S/C6H10N2O/c1-8-2-6(9)4-3(8)5(6)7-4/h3-5,7,9H,2H2,1H3/t3-,4-,5+,6-
