22
gdb 94820	3.72694	1.10506	0.96603	1.7813	89.61	-0.2288	0.0211	0.2499	1313.5077	0.196159	-367.210885	-367.202421	-367.201477	-367.243708	33.922	
C	-0.0347987711	 1.5709461365	 0.0075849377	-0.401701
C	 0.0007490897	 0.03540816	 0.0001878261	-0.013296
C	 0.6433739599	-0.5112227005	-1.2859909745	-0.21105
C	 0.8815968808	-2.0229529172	-1.184442608	-0.306408
C	 1.8023765342	-2.3519661692	-0.0195234619	 0.317143
C	 2.3341856777	-3.7372914451	 0.0969416491	-0.292938
N	 3.2433901708	-2.6411578891	-0.2661700158	-0.355073
C	 1.5418305729	-1.5476652964	 1.2014102195	-0.084486
C	 0.7169796516	-0.4999973146	 1.2189118051	-0.070128
H	 0.9794325563	 1.9845762371	-0.0145402888	 0.119914
H	-0.5758130825	 1.9546691384	-0.8637438281	 0.110326
H	-0.53159109	 1.9520915794	 0.9060140541	 0.111547
H	-1.0437388685	-0.3156853978	 0.0350417901	 0.080073
H	 0.0096136345	-0.2800322094	-2.1493342297	 0.089557
H	 1.6023644514	-0.001551586	-1.4480930927	 0.101482
H	-0.0822224463	-2.5277919166	-1.0324826052	 0.104074
H	 1.2994360939	-2.4212908508	-2.1170425143	 0.084378
H	 2.5113465914	-4.1739141779	 1.0768685639	 0.1143
H	 2.0396829827	-4.4535470024	-0.6673722896	 0.106472
H	 3.4151290217	-2.6573147961	-1.2694855266	 0.22531
H	 2.0647038324	-1.855287742	 2.1030545489	 0.088172
H	 0.5483840865	 0.0309324397	 2.1539138805	 0.082331
67.9811	189.7378	219.2457	253.5282	290.3957	326.3314	357.3378	402.8673	418.7885	524.7526	585.7347	653.131	723.4214	751.0875	790.0267	856.9711	889.2239	920.5108	951.1256	964.2668	965.8555	986.7442	999.9033	1028.6392	1050.1158	1086.7426	1119.5848	1126.1104	1136.617	1193.9169	1228.6513	1237.0176	1266.3534	1314.5343	1325.9054	1337.7769	1357.3472	1373.7482	1386.7009	1405.6201	1440.8303	1481.9142	1489.5499	1497.0643	1500.3331	1509.1716	1713.5485	2963.9874	3010.71	3020.5978	3028.122	3053.5232	3068.5005	3094.9171	3097.895	3099.6811	3138.6898	3168.5984	3178.8156	3483.2288
CC1CCC2(CN2)C=C1	C[C@H]1CC[C@]2(CN2)C=C1	
InChI=1S/C8H13N/c1-7-2-4-8(5-3-7)6-9-8/h2,4,7,9H,3,5-6H2,1H3	InChI=1S/C8H13N/c1-7-2-4-8(5-3-7)6-9-8/h2,4,7,9H,3,5-6H2,1H3/t7-,8+/m1/s1
