23
gdb 103337	2.78594	1.33937	1.09025	1.3691	86.62	-0.2513	0.0733	0.3246	1239.1874	0.205081	-388.237863	-388.228449	-388.227505	-388.271524	37.035	
C	-1.3260753605	-0.1681695969	 0.2987774654	-0.371721
C	 0.1569164105	 0.1924168229	 0.1496335076	-0.269156
C	 0.782169153	-0.374401973	-1.133581863	 0.476662
O	 0.1502488859	 0.2685320183	-2.2304221292	-0.482476
C	 2.3362943975	-0.6267678641	-1.198586628	-0.151633
C	 2.0841802187	-1.8509552378	-0.2649213325	-0.241175
C	 0.9554514116	-1.912021489	-1.3387537711	-0.113497
C	 2.1031049301	-1.6357592211	-2.3801557831	 0.070771
C	 1.909442334	-1.2552274932	-3.8425404431	-0.447977
H	-1.8860908038	 0.1202905702	-0.5944022735	 0.126471
H	-1.4546176493	-1.2465934175	 0.4393151387	 0.11822
H	-1.7697047636	 0.3354424282	 1.1630192607	 0.107506
H	 0.2642332024	 1.2872364398	 0.1054983618	 0.078979
H	 0.7042745273	-0.1121230205	 1.0436246967	 0.102954
H	 0.1822102467	 1.2180029664	-2.0732748716	 0.274037
H	 3.1336590255	 0.1150880034	-1.1070781689	 0.058951
H	 2.8287970854	-2.6465166265	-0.3259042198	 0.094675
H	 1.8012304618	-1.6694745983	 0.7700435941	 0.09103
H	 0.1587944722	-2.6549264951	-1.41429922	 0.066536
H	 2.8457584356	-2.4422395	-2.3489853707	 0.060398
H	 1.1913908382	-0.4554031545	-3.9939287535	 0.140951
H	 2.8735103068	-0.9518065926	-4.2689725971	 0.102889
H	 1.5764135542	-2.1341718092	-4.40767537	 0.106605
87.7827	125.9407	150.5601	219.0206	255.5944	280.9413	309.7888	340.756	381.2436	443.1556	462.4714	539.8744	631.2375	660.5806	765.9346	781.6506	788.7604	805.2185	885.7903	908.672	965.9679	992.8281	1015.7001	1038.0067	1044.1661	1059.4144	1076.1983	1083.8054	1103.4412	1149.9731	1152.7407	1171.0349	1188.1417	1189.4217	1234.1287	1245.0369	1269.1776	1277.7169	1360.3091	1386.8734	1403.6467	1407.039	1448.6618	1486.4671	1493.9236	1497.7252	1511.5674	1515.6162	1540.3496	2991.353	3016.2901	3030.2739	3040.034	3073.7909	3074.5982	3082.6471	3094.5318	3098.692	3104.0572	3125.353	3152.3478	3195.9331	3805.9825
CCC1(O)C2CC1C2C	CC[C@@]1(O)[C@H]2C[C@@H]1[C@H]2C	
InChI=1S/C8H14O/c1-3-8(9)6-4-7(8)5(6)2/h5-7,9H,3-4H2,1-2H3	InChI=1S/C8H14O/c1-3-8(9)6-4-7(8)5(6)2/h5-7,9H,3-4H2,1-2H3/t5-,6-,7+,8+
