18
gdb 32647	2.04961	1.7664	1.02361	1.919	89.77	-0.198	0.0017	0.1996	1176.2742	0.147646	-364.826042	-364.817231	-364.816287	-364.859821	33.126	
C	-0.0015146933	 1.5448791545	 0.0207227896	-0.375554
C	 0.0492892793	 0.0155636505	-0.0165436529	-0.160593
N	 0.7027789253	-0.5048472231	-1.2091583693	-0.050322
C	 0.0749166003	-0.8541977152	-2.3708814475	-0.104047
C	 1.026103884	-1.2319735915	-3.2969050156	-0.153901
C	 2.2869064368	-1.1028190778	-2.6749118292	-0.262066
C	 2.0720248228	-0.6479551906	-1.3803463416	 0.168653
C	 2.9901312477	-0.3605974137	-0.3521036139	 0.272501
C	 3.7721155623	-0.1106828658	 0.5321369591	-0.482181
H	 1.008542955	 1.9626551535	 0.025786557	 0.142832
H	-0.5352147735	 1.9392715223	-0.8489347328	 0.126092
H	-0.517952427	 1.8816769842	 0.9250851398	 0.118716
H	 0.5889358536	-0.3653282814	 0.8547687645	 0.134858
H	-0.9603066016	-0.4048464417	 0.0127287735	 0.117061
H	-1.0008273138	-0.8109655822	-2.4426199069	 0.116964
H	 0.8299670283	-1.5715569584	-4.3019850801	 0.099517
H	 3.254281606	-1.3206104487	-3.0994409164	 0.103147
H	 4.4703370579	 0.1016786352	 1.3029792828	 0.188323
52.7341	123.5664	149.2159	163.9251	229.9163	350.9171	375.8229	460.8049	500.2169	529.9315	595.2864	619.5811	676.5476	677.6645	694.202	731.5416	791.3546	794.8359	849.4103	902.2976	963.3609	1039.3868	1085.5036	1105.1843	1125.0494	1191.0355	1251.681	1289.4604	1333.135	1391.1223	1409.184	1424.1337	1445.7689	1476.7693	1490.8346	1501.4713	1508.6967	1566.8426	2217.8835	3043.1634	3058.7252	3100.1115	3117.0001	3131.6318	3244.0292	3256.818	3268.66	3502.8812
CCN1C=CC=C1C#C	CCn1cccc1C#C	
InChI=1S/C8H9N/c1-3-8-6-5-7-9(8)4-2/h1,5-7H,4H2,2H3	InChI=1S/C8H9N/c1-3-8-6-5-7-9(8)4-2/h1,5-7H,4H2,2H3
