15
gdb 84623	2.49707	1.63013	1.29491	3.4286	66.55	-0.2613	-0.0466	0.2146	992.3152	0.111621	-457.748097	-457.740409	-457.739465	-457.780377	28.957	
O	 0.453071798	 1.1190061129	-0.3132796371	-0.428324
C	 0.0618456356	-0.2263654672	-0.1171258821	 0.023161
C	 0.6084569794	-0.8156578699	 1.1760213007	-0.123238
C	-0.3562187003	-1.2308159646	 1.9983504378	-0.082009
C	-1.7010581488	-0.9807453618	 1.3906203368	-0.058948
O	-1.9799087838	 0.4086856814	 1.1311902682	-0.296842
C	-1.4546173008	-0.3857750363	 0.0553556007	 0.2695
C	-2.3673308393	-0.6226119882	-1.0939650065	 0.083301
O	-1.9918778901	-0.9948345783	-2.1768537726	-0.254046
H	 0.0511717217	 1.6240768028	 0.4054848018	 0.290437
H	 0.3922417583	-0.7726795754	-1.0059000489	 0.125621
H	 1.6708788444	-0.8041211759	 1.3896059518	 0.12155
H	-0.2286515617	-1.6643268079	 2.982565642	 0.119218
H	-2.5729520117	-1.5853511	 1.6218057164	 0.11722
H	-3.4377517208	-0.4337542715	-0.8610426791	 0.0934
99.2571	156.5656	184.0599	228.6368	290.8216	435.6625	456.4016	466.0975	544.5168	593.3145	670.4147	725.466	773.6028	838.486	873.9776	900.8974	950.288	978.1607	1003.259	1038.8916	1068.5775	1086.5274	1144.122	1215.4486	1258.8105	1276.6486	1312.9785	1353.9802	1379.2659	1429.1731	1433.2354	1664.2632	1817.9049	2903.4384	3078.985	3166.8397	3199.59	3223.1631	3774.0548
OC1C=CC2OC12C=O	O[C@H]1C=C[C@H]2O[C@@]12C=O	
InChI=1S/C6H6O3/c7-3-6-4(8)1-2-5(6)9-6/h1-5,8H	InChI=1S/C6H6O3/c7-3-6-4(8)1-2-5(6)9-6/h1-5,8H/t4-,5+,6-/m0/s1
