18
gdb 45805	2.81156	1.57866	1.11844	3.1905	77.45	-0.2277	-0.0223	0.2054	1079.0373	0.148756	-401.937015	-401.929432	-401.928488	-401.969121	29.872	
O	-0.0240596645	-0.0185003268	-0.279968024	-0.297456
C	-0.0328599185	 1.1699827943	-0.0726777733	 0.396585
C	-1.3390798625	 1.944460357	 0.1323882139	-0.352894
C	-1.277110796	 2.9411247091	 1.2684839479	-0.079874
C	-0.4704188902	 4.0024377607	 1.2656479717	-0.073351
C	 0.4015545853	 4.3252528087	 0.1000969904	-0.050348
C	 1.887819688	 4.3565384636	 0.1839820492	-0.251411
N	 1.2150052721	 3.2897529877	-0.5610507056	-0.100341
C	 1.2685111881	 1.9616873154	 0.0497182611	-0.253034
H	-1.5368177756	 2.4700146739	-0.8128718166	 0.146189
H	-2.1348088458	 1.2108012863	 0.2695100876	 0.126529
H	-1.9124356575	 2.7476780425	 2.1281690996	 0.105078
H	-0.4695440741	 4.6940532603	 2.104702202	 0.098927
H	-0.0534734781	 5.0090482174	-0.6191789252	 0.106273
H	 2.4569093029	 5.0670977546	-0.4087191096	 0.119485
H	 2.3415687775	 4.0908633729	 1.1376266578	 0.113671
H	 1.5017059005	 1.9937169177	 1.1287929769	 0.11353
H	 2.0579408784	 1.3826675049	-0.4357276739	 0.132442
76.5036	171.7892	251.1965	303.0788	321.2963	397.4155	477.3652	515.9501	531.6867	539.4864	698.6637	716.1705	779.8102	807.6299	848.5313	923.6521	952.8916	964.7006	989.0815	1011.1537	1057.9213	1082.0283	1116.4857	1119.9238	1161.2723	1177.3961	1211.0326	1232.3347	1263.8549	1301.6564	1314.7413	1354.6431	1371.832	1420.5712	1459.5608	1468.2833	1508.5682	1707.2332	1820.3767	2950.7611	3015.6695	3077.4424	3095.0945	3098.0352	3121.6046	3149.6165	3176.2945	3184.0846
O=C1CC=CC2CN2C1	O=C1CC=C[C@H]2CN2C1	
InChI=1S/C7H9NO/c9-7-3-1-2-6-4-8(6)5-7/h1-2,6H,3-5H2	InChI=1S/C7H9NO/c9-7-3-1-2-6-4-8(6)5-7/h1-2,6H,3-5H2/t6-,8?/m0/s1
