25
gdb 118055	3.31105	0.6928	0.60249	2.6995	86.1	-0.2605	0.0718	0.3323	1923.2052	0.226102	-426.627086	-426.615153	-426.614209	-426.664807	42.789	
C	-0.1604458684	 1.5986573472	 0.1441016818	-0.377241
C	 0.0333561464	 0.0866835528	-0.0038389514	-0.20183
C	 0.7515607751	-0.5459795249	 1.1968261238	 0.134334
O	 0.0740058975	-0.2187684667	 2.4116751038	-0.427264
C	 0.9609808525	-2.0746450273	 1.077463938	 0.000887
C	 1.6860594768	-2.4639230803	-0.2215155969	-0.407321
C	 1.7030189306	-2.6044693118	 2.3193787098	-0.172051
C	 1.5604201702	-4.1051993246	 2.5432227037	-0.083793
O	 2.2780561172	-4.4338119003	 3.7245971477	-0.419752
H	 0.8055728977	 2.1128918969	 0.1985229086	 0.114206
H	-0.7103783442	 2.0106972014	-0.7074121064	 0.106568
H	-0.7090496163	 1.8337485839	 1.0591671982	 0.125729
H	-0.9430314146	-0.4063876654	-0.1285550084	 0.08146
H	 0.5982141753	-0.120968311	-0.9183269486	 0.102102
H	 1.7373102339	-0.0718955814	 1.3059545266	 0.084485
H	-0.8100365183	-0.6003709187	 2.3604051901	 0.274073
H	-0.0445701213	-2.5282159805	 1.0578622892	 0.053203
H	 1.9248883347	-3.5310821723	-0.2354376042	 0.115169
H	 1.0862433866	-2.2558239988	-1.1109877036	 0.116777
H	 2.6314590374	-1.9162306148	-0.3164930105	 0.117049
H	 2.7712208725	-2.3629064805	 2.2430610426	 0.096947
H	 1.3251981911	-2.0925009148	 3.2080895898	 0.123102
H	 0.4920155303	-4.3623370403	 2.6433406993	 0.078293
H	 1.9483834762	-4.6706596666	 1.6812571112	 0.081505
H	 2.214168421	-5.3835779209	 3.8601120859	 0.283362
56.0988	63.8496	87.5171	104.4902	150.2688	205.8884	229.2361	244.9957	266.5078	291.3998	314.8446	319.8995	354.7406	401.1001	472.5117	524.3172	548.4157	779.2033	795.8491	851.8976	894.566	952.1106	976.3431	988.4137	1021.8204	1039.413	1067.6839	1088.2033	1098.8411	1140.1038	1146.7106	1178.5518	1218.2406	1242.4893	1258.8396	1279.8863	1312.3082	1329.2925	1336.7709	1362.7582	1379.1587	1389.1782	1405.0458	1413.173	1420.8202	1461.9284	1482.321	1494.4652	1495.2055	1503.6195	1508.3818	1509.5195	1528.8397	2951.8066	2962.2184	2985.1627	2994.1256	3019.4974	3031.6867	3036.3481	3038.2284	3071.7227	3100.2438	3101.001	3104.8894	3115.7215	3126.6372	3790.5278	3829.5832
CCC(O)C(C)CCO	CC[C@@H](O)[C@@H](C)CCO	
InChI=1S/C7H16O2/c1-3-7(9)6(2)4-5-8/h6-9H,3-5H2,1-2H3	InChI=1S/C7H16O2/c1-3-7(9)6(2)4-5-8/h6-9H,3-5H2,1-2H3/t6-,7+/m0/s1
