13
gdb 131402	3.58641	1.14584	0.87546	3.663	63.91	-0.2333	-0.0155	0.2178	1216.9735	0.090022	-486.051093	-486.043052	-486.042107	-486.08455	28.196	
O	 0.2464178297	 1.3378714411	 0.0545754558	-0.417488
C	 0.0875768417	 0.0060409997	 0.0524808363	 0.289939
N	 0.1056771746	-0.7524352429	-1.0342445513	-0.289038
N	-0.0835689842	-1.982641035	-0.5504321472	-0.095834
N	-0.2399364354	-2.0804551522	 0.7654860047	-0.283998
C	-0.1252956491	-0.8234043271	 1.1747028442	 0.340702
O	-0.232819689	-0.4068467959	 2.4560979844	-0.213687
C	 0.0853264609	-1.291272149	 3.4501605229	 0.115294
N	-0.166928053	-0.9704566801	 4.639036282	-0.424745
H	 0.3627847212	 1.6232340911	-0.8602156977	 0.313318
H	-0.1342037396	-2.7868681642	-1.1509986318	 0.298347
H	 0.5486384472	-2.2067457014	 3.0741693278	 0.128655
H	 0.148004405	-1.704839554	 5.26997528	 0.238533
61.6711	91.8426	160.146	272.4131	281.3094	311.3827	349.1401	436.4107	482.3187	558.7433	687.9543	709.0146	746.5613	827.2373	868.6714	975.2558	1041.53	1048.407	1153.8609	1198.4036	1247.7393	1277.4027	1318.489	1407.5535	1427.1817	1477.4821	1590.1653	1636.6359	1751.2362	3102.4203	3520.2367	3694.0579	3802.2198
OC1=NNN=C1OC=N	Oc1n[nH]nc1O[CH][NH]	
InChI=1S/C3H4N4O2/c4-1-9-3-2(8)5-7-6-3/h1,4H,(H2,5,6,7,8)	InChI=1S/C3H4N4O2/c4-1-9-3-2(8)5-7-6-3/h1,4H,(H2,5,6,7,8)
