17
gdb 56858	2.92797	1.23945	1.04228	3.8824	72.02	-0.2492	0.0028	0.252	1166.9161	0.136224	-417.953599	-417.945202	-417.944258	-417.987374	30.988	
O	 0.6454249887	 1.0640413862	-0.5566832519	-0.406399
C	-0.02491668	-0.0815046384	-0.0627031212	-0.054268
C	-0.051142145	-1.1623969676	-1.072717042	 0.268954
N	-0.0403577859	-2.000587033	-1.8679496072	-0.314887
C	 0.6008359815	-0.5786397864	 1.2337081868	-0.011919
C	 0.2539315166	-0.0712265361	 2.5748181697	-0.040869
C	-1.2319761717	 0.2442735206	 2.7265341843	-0.261435
C	-1.493360634	-1.2077449083	 2.2524761608	-0.157526
N	-0.0174078643	-1.5245634461	 2.1793240549	-0.149533
H	 1.5527899609	 0.8175231231	-0.7713044213	 0.297202
H	-1.0550282463	 0.2432636752	 0.1001848292	 0.140693
H	 1.6521226906	-0.8313782304	 1.0976483906	 0.106435
H	 1.0234783522	 0.1869526246	 3.2954654746	 0.104945
H	-1.52314119	 0.4016610643	 3.7658442004	 0.122061
H	-1.625366241	 1.0734996304	 2.1305238605	 0.115535
H	-1.9479445307	-1.8380003136	 3.0178069881	 0.123949
H	-2.0362704517	-1.3605163945	 1.3148611239	 0.117062
36.4822	124.2663	173.6942	224.8663	257.4419	313.7512	322.2531	450.7674	493.8148	551.5643	610.3048	754.3466	782.4744	788.6147	797.396	902.8711	948.1526	979.0328	997.4467	1021.1062	1066.3992	1071.0151	1092.2069	1139.5418	1166.6104	1215.6907	1240.9384	1259.6797	1275.071	1294.0018	1307.8779	1363.5368	1420.724	1446.5961	1494.6726	1517.2158	2355.6509	3054.7696	3061.7533	3097.513	3113.075	3116.6511	3130.1362	3163.7559	3799.7132
OC(C#N)C1C2CCN12	O[C@@H](C#N)[C@H]1[C@H]2CCN12	
InChI=1S/C6H8N2O/c7-3-5(9)6-4-1-2-8(4)6/h4-6,9H,1-2H2	InChI=1S/C6H8N2O/c7-3-5(9)6-4-1-2-8(4)6/h4-6,9H,1-2H2/t4-,5+,6-,8?/m1/s1
