15
gdb 124409	3.43412	1.244	1.00087	5.8437	71.47	-0.2821	-0.0165	0.2656	1148.9912	0.112189	-412.93275	-412.924537	-412.923593	-412.966447	29.427	
C	 0.0079267925	 1.5474717942	-0.055385132	-0.386535
C	-0.0181749568	 0.0143697946	 0.0768245631	-0.131115
C	 0.7168757471	-0.4528992818	 1.2481894536	 0.308208
C	 1.3397860327	-0.8026525826	 2.213152396	-0.428248
N	-1.4035988929	-0.4775106758	 0.1126492006	 0.026605
C	-2.1886477172	-0.8876731667	 1.1246123	 0.07395
N	-3.3811113502	-1.1762227829	 0.6492362274	-0.231848
N	-3.3116038976	-0.929684614	-0.685354585	-0.094698
N	-2.1367784216	-0.510775084	-1.020661093	-0.124635
H	 1.0407945337	 1.8885089771	-0.155504511	 0.142494
H	-0.5579507244	 1.8453681166	-0.9403765945	 0.15666
H	-0.4321825903	 2.0149428197	 0.8286679563	 0.141263
H	 0.4206115529	-0.426476109	-0.8247386525	 0.155527
H	 1.8958043315	-1.1239888472	 3.0600250434	 0.217646
H	-1.8615050893	-0.9689811482	 2.1468955877	 0.174724
38.4269	120.391	152.8525	199.744	240.4203	326.2756	384.0147	467.6101	536.99	645.4394	682.0755	690.953	716.5792	738.6635	875.0461	877.7016	990.141	1009.5574	1050.3739	1087.6722	1115.076	1128.6075	1173.8185	1201.9594	1307.0555	1334.089	1349.1821	1406.3128	1460.1806	1489.1243	1494.266	1502.1308	2247.3922	3056.3106	3060.5104	3140.7528	3147.5798	3301.7931	3498.2452
CC(C#C)N1C=NN=N1	C[C@@H](C#C)n1cnnn1	
InChI=1S/C5H6N4/c1-3-5(2)9-4-6-7-8-9/h1,4-5H,2H3	InChI=1S/C5H6N4/c1-3-5(2)9-4-6-7-8-9/h1,4-5H,2H3/t5-/m0/s1
