17
gdb 77662	2.19011	1.42244	1.26687	5.4127	72.07	-0.242	-0.0255	0.2165	1100.3263	0.132879	-458.922555	-458.913456	-458.912512	-458.956383	32.907	
C	 0.0000638894	 1.5292008189	 0.0189258664	-0.42039
C	 0.0765522428	 0.0227573933	-0.0957607501	-0.16587
C	 0.6743973447	-0.7414668325	-1.2324075931	 0.25941
O	 0.0499856361	-1.7536512334	-1.919912521	-0.442294
C	 1.973801322	-0.1068685054	-1.7146521367	-0.144738
O	 2.4886472624	-0.0207900451	-0.3592861322	-0.300697
C	 1.3802469941	-0.7437493215	 0.1513248551	 0.298673
C	 1.5395477139	-1.79388104	 1.1588876524	 0.068812
O	 2.5801326666	-2.100779041	 1.6874608281	-0.27002
H	 0.9591721969	 1.985346998	-0.2350858768	 0.148371
H	-0.7697472624	 1.9393666186	-0.6430363725	 0.119773
H	-0.2453223344	 1.8214708737	 1.0442829688	 0.132027
H	-0.7701681656	-0.5211009477	 0.3249988026	 0.103045
H	-0.877225077	-1.5243588755	-2.0407016502	 0.298733
H	 2.5711600667	-0.8043509488	-2.3106639913	 0.13247
H	 1.9216024753	 0.8692048249	-2.2093469569	 0.112231
H	 0.5796312285	-2.3059460565	 1.4001587474	 0.070464
89.8533	120.1064	166.1833	184.3587	229.1582	237.6498	257.3647	307.5192	384.975	466.3511	549.9121	586.7231	640.4894	719.2552	780.4376	810.0923	959.2522	983.9949	997.455	1025.599	1041.2704	1079.5557	1110.3851	1127.8419	1149.1508	1210.915	1273.0894	1278.387	1344.7532	1380.3888	1410.3316	1428.3735	1473.7905	1491.222	1504.146	1519.0267	1804.7123	2863.5458	3036.7882	3042.4065	3094.3417	3104.5942	3111.725	3135.6057	3813.8674
CC1C2(O)COC12C=O	C[C@H]1[C@@]2(O)CO[C@@]12C=O	
InChI=1S/C6H8O3/c1-4-5(8)3-9-6(4,5)2-7/h2,4,8H,3H2,1H3	InChI=1S/C6H8O3/c1-4-5(8)3-9-6(4,5)2-7/h2,4,8H,3H2,1H3/t4-,5-,6-/m0/s1
