25
gdb 103624	2.06802	1.22347	1.13897	1.5217	88.09	-0.2546	0.068	0.3226	1320.061	0.227284	-389.485729	-389.474968	-389.474024	-389.5207	40.994	
C	 0.8179874723	 1.5424890491	-0.2599325003	-0.402833
C	 0.0978640767	 0.2125166753	-0.0493251637	 0.015454
C	 0.5566470825	-0.9485188184	-0.9803467855	-0.278664
C	 1.2258711717	-1.6748406696	 0.2268327623	 0.32215
C	 0.8212467359	-3.1354205152	 0.4252509321	-0.476885
C	 2.7547098674	-1.5413938596	 0.2040318533	-0.12276
O	 3.3573060609	-2.1924501331	-0.9069192619	-0.426407
C	 0.512897735	-0.6552155599	 1.1893499031	-0.017796
C	 1.2607119599	-0.0188456371	 2.3571278846	-0.417631
H	 1.9068403953	 1.4307436883	-0.2780672905	 0.117445
H	 0.5234637957	 1.9831570924	-1.2189035316	 0.113859
H	 0.5714301176	 2.264610445	 0.5262269341	 0.11113
H	-0.9801527039	 0.3996561541	-0.0844461388	 0.062878
H	-0.2755443148	-1.5130765796	-1.4102748148	 0.087129
H	 1.2391272113	-0.6782398094	-1.7908015684	 0.106187
H	 1.1860103028	-3.7711708747	-0.3911235293	 0.104556
H	 1.2131874285	-3.536984589	 1.3683653813	 0.109353
H	-0.2681222033	-3.2416580446	 0.4455971515	 0.114946
H	 3.0480802166	-0.4924677744	 0.1083633785	 0.106972
H	 3.1760691653	-1.9096718576	 1.153447292	 0.082796
H	 3.2353724877	-3.1401140943	-0.798747813	 0.282939
H	-0.3842433611	-1.1408867387	 1.5902920759	 0.063548
H	 2.1650196255	 0.5108007566	 2.0448192247	 0.116866
H	 0.6204229607	 0.7063860387	 2.8717313103	 0.112933
H	 1.5562872637	-0.7719579043	 3.0962505741	 0.111833
79.6949	115.9368	180.6468	202.3646	220.5765	226.8699	246.7361	260.9463	278.8559	319.6216	344.7646	362.3041	421.942	500.6404	513.8082	659.7633	737.1567	776.9446	838.7546	882.8321	908.2503	929.654	958.0089	988.1765	1009.5527	1032.0164	1050.1514	1072.5525	1110.6	1127.2899	1152.4398	1172.4311	1203.7114	1230.8249	1254.4418	1275.1284	1293.6932	1320.2484	1371.0593	1375.7576	1378.962	1404.61	1407.9981	1410.4284	1430.8348	1486.2808	1487.3714	1490.8644	1493.0484	1503.2696	1504.1395	1505.1292	1509.872	2972.0749	3012.5743	3023.8064	3028.5206	3031.4454	3042.6861	3055.2991	3072.8245	3085.6628	3087.6081	3091.8042	3092.3455	3100.7283	3105.0611	3112.2919	3831.4763
CC1CC(C)(CO)C1C	C[C@H]1C[C@@](C)(CO)[C@H]1C	
InChI=1S/C8H16O/c1-6-4-8(3,5-9)7(6)2/h6-7,9H,4-5H2,1-3H3	InChI=1S/C8H16O/c1-6-4-8(3,5-9)7(6)2/h6-7,9H,4-5H2,1-3H3/t6-,7-,8-/m0/s1
