21
gdb 57970	3.0221	1.03317	0.88517	2.5592	81.79	-0.2322	0.0269	0.2591	1406.1136	0.1816	-420.396738	-420.386541	-420.385596	-420.432707	35.922	
C	 0.0008987225	 1.3293928046	-0.1823679708	-0.342397
N	-0.041962694	-0.1219497396	-0.2441070389	-0.073063
C	-1.0681467966	-0.767203674	 0.5564223385	-0.344028
C	 0.9024236107	-0.7819230368	-0.9801288165	 0.412277
O	 1.7570054982	-0.2020934783	-1.6345153204	-0.386
C	 0.8735914229	-2.3169017457	-0.9708614386	-0.283903
N	-0.2991312643	-2.8361286525	-1.6730553527	-0.069072
C	-0.201979599	-2.8475272147	-3.1322023296	-0.218352
C	-0.119602125	-4.1151561495	-2.3565168063	-0.22168
H	 0.1653648322	 1.6693650659	 0.8484010118	 0.118334
H	 0.8175543746	 1.6752420496	-0.8135792739	 0.167713
H	-0.9452664382	 1.7578317591	-0.535379445	 0.119604
H	-0.8088038309	-0.771018227	 1.6248158295	 0.115117
H	-2.0090633765	-0.2160684723	 0.4455380465	 0.124102
H	-1.2418236897	-1.7842870691	 0.209606699	 0.167763
H	 1.8192754691	-2.6204969704	-1.4416658903	 0.1144
H	 0.8618959941	-2.7072024867	 0.0535856859	 0.112372
H	-1.1120059031	-2.5870003039	-3.6643066502	 0.118958
H	 0.7146832678	-2.466777954	-3.5766679432	 0.133943
H	 0.8544481197	-4.5958493488	-2.2869538432	 0.114754
H	-0.9669648145	-4.793221646	-2.3143239315	 0.119157
61.1608	69.1732	98.6478	126.4434	153.5537	182.4239	240.8544	305.043	351.4165	387.2815	413.3697	471.1962	596.1062	686.9213	768.8144	786.8458	845.3747	906.8325	979.0442	1014.1429	1031.9566	1047.3809	1087.4472	1112.4865	1120.5866	1132.2916	1160.6459	1173.9163	1179.3133	1213.8632	1271.2064	1288.5144	1314.9081	1364.1396	1427.1946	1438.5013	1470.3841	1483.2055	1494.349	1497.2797	1502.3423	1511.9131	1524.62	1543.1669	1750.3552	2999.4559	3001.5413	3013.9172	3059.0607	3059.2499	3062.7655	3101.1786	3110.2552	3163.4338	3170.2052	3184.8483	3200.872
CN(C)C(=O)CN1CC1	CN(C)C(=O)CN1CC1	
InChI=1S/C6H12N2O/c1-7(2)6(9)5-8-3-4-8/h3-5H2,1-2H3	InChI=1S/C6H12N2O/c1-7(2)6(9)5-8-3-4-8/h3-5H2,1-2H3
