17
gdb 37430	3.00738	1.8333	1.50415	1.3376	70.45	-0.2457	0.0244	0.2701	903.9117	0.139379	-417.963605	-417.95693	-417.955986	-417.994767	26.541	
C	 0.1992906738	 1.5641796976	 0.2734229494	-0.255959
C	 1.3530626321	 0.6806384459	 0.016186294	-0.04559
C	 1.7041933888	-0.1546426777	 1.236446333	 0.085792
O	 2.2229087661	 0.5422876826	 2.3672975151	-0.235795
C	 1.3612827011	 0.8289552047	 3.3778222467	 0.12354
N	 0.1407587492	 0.5443582234	 3.5250299671	-0.264468
C	-0.5632448361	-0.2524375447	 2.5250882751	-0.18874
C	 0.2252396117	-0.6157218914	 1.2647746125	-0.025608
N	-0.0779945262	 0.1464861066	-0.0091075953	-0.138967
H	 0.0162591781	 1.9726384299	 1.262973831	 0.139475
H	-0.1034647951	 2.2136534966	-0.5419765898	 0.128302
H	 1.9553185416	 0.7484526792	-0.8831009012	 0.101372
H	 2.4095055535	-0.9580104171	 1.0190241326	 0.104104
H	 1.8896677632	 1.3934440846	 4.144146042	 0.125948
H	-0.8974210331	-1.1673201006	 3.028808688	 0.12286
H	-1.479513084	 0.2810709364	 2.2436942733	 0.129517
H	 0.1323347253	-1.6787013962	 1.0370495666	 0.094217
106.7612	147.205	288.5904	405.8474	465.0145	482.7448	567.6521	598.9373	727.2185	755.0582	768.5165	807.6488	895.2834	910.131	947.051	967.6208	982.6263	1011.0295	1041.8283	1064.5359	1082.6695	1112.2878	1121.5067	1161.1047	1166.4242	1215.3375	1253.4367	1266.8767	1302.1404	1348.5996	1357.3229	1375.3941	1386.8966	1420.1226	1476.7902	1508.0719	1743.3006	3028.0252	3053.8552	3088.5696	3103.2664	3124.9575	3157.5653	3174.5335	3209.8298
C1C2C3OC=NCC3N12	C1[C@H]2[C@H]3OC=NC[C@H]3N12	
InChI=1S/C6H8N2O/c1-4-6(9-3-7-1)5-2-8(4)5/h3-6H,1-2H2	InChI=1S/C6H8N2O/c1-4-6(9-3-7-1)5-2-8(4)5/h3-6H,1-2H2/t4-,5+,6+,8?/m1/s1
