19
gdb 14306	2.98977	1.98452	1.75493	1.2832	70.26	-0.214	0.0685	0.2824	862.2535	0.166948	-365.040577	-365.032979	-365.032035	-365.072067	29.772	
C	 0.1061722539	 1.7037926338	-0.0782621398	-0.447557
C	 0.0786726178	 0.1926413282	-0.0848685196	 0.021458
C	 0.5766211557	-0.6717487642	-1.1904841266	-0.05046
C	 1.484958404	-0.098382381	-2.2694492607	-0.239938
C	 2.7597723738	 0.3963587035	-1.5473571146	 0.096189
O	 2.8694341432	 1.8076976848	-1.7330907687	-0.41578
C	 2.5774743372	-0.0420879432	-0.0633079154	-0.191906
N	 1.2607157982	-0.6731926219	 0.1228686636	-0.119438
H	 0.9184117023	 2.127406033	-0.6700685078	 0.153455
H	-0.8416670666	 2.0859386564	-0.4737019134	 0.116389
H	 0.2007146835	 2.0758527041	 0.9489989746	 0.115376
H	-0.7749650518	-0.207408554	 0.462538246	 0.085134
H	 0.0255793327	-1.575627183	-1.4405642765	 0.082458
H	 1.7268117074	-0.8763569961	-2.9985831011	 0.106218
H	 1.0386387699	 0.7348567025	-2.8199031249	 0.124466
H	 3.653451515	-0.0819923479	-1.9708820129	 0.076542
H	 3.649881702	 2.1101392824	-1.2577450429	 0.283016
H	 3.3323723354	-0.7883634493	 0.2077206959	 0.103366
H	 2.7065516063	 0.813874822	 0.6095183048	 0.101012
110.3543	171.1966	242.5442	253.8678	319.4585	399.9598	421.9124	427.5545	538.4519	680.9901	702.0117	719.7308	779.4868	823.3929	887.8432	919.7386	979.4102	991.8387	1025.8949	1038.1545	1044.947	1118.217	1135.8909	1154.2543	1180.8917	1199.3714	1236.4077	1255.622	1297.3606	1312.0192	1336.1681	1348.8274	1378.4162	1417.4003	1427.1478	1440.2509	1482.4232	1493.867	1509.2244	1519.942	2996.8153	3028.5547	3031.9856	3061.1767	3070.1961	3082.1331	3095.1177	3100.9099	3127.195	3148.1215	3817.266
CC1C2CC(O)CN12	C[C@H]1[C@H]2C[C@@H](O)CN12	
InChI=1S/C6H11NO/c1-4-6-2-5(8)3-7(4)6/h4-6,8H,2-3H2,1H3	InChI=1S/C6H11NO/c1-4-6-2-5(8)3-7(4)6/h4-6,8H,2-3H2,1H3/t4-,5+,6+,7?/m0/s1
