17
gdb 51895	4.52223	0.87262	0.77138	2.2935	66.38	-0.2729	-0.0021	0.2708	1411.7115	0.136395	-496.114741	-496.106539	-496.105595	-496.148769	29.387	
O	 0.0492234387	-0.0219791962	-0.1613823806	-0.267105
C	 0.0377042841	 1.169296854	-0.2064669387	 0.168074
O	 1.0559861592	 1.9250761274	 0.2584960922	-0.187873
C	 0.9533780433	 3.3478107745	 0.1614313651	 0.082144
C	 1.0402619281	 3.9522610643	 1.567405618	-0.110621
O	 1.1280427081	 5.3640434218	 1.4733003802	-0.230909
C	 2.2272485103	 5.7552762438	 0.6915557734	 0.017635
O	 2.1376179714	 5.2934025564	-0.6317377502	-0.230903
C	 2.1189929186	 3.8767880255	-0.6819261513	-0.110596
H	-0.7886632261	 1.7765382375	-0.6242456904	 0.085625
H	 0.0027943695	 3.6354257304	-0.3040854554	 0.105751
H	 0.1514927839	 3.718594916	 2.1585971759	 0.12328
H	 1.9210540602	 3.5337246655	 2.080771292	 0.110377
H	 2.21932667	 6.845341797	 0.6511687236	 0.127481
H	 3.1640131982	 5.3890174669	 1.1531183008	 0.084009
H	 3.0596934404	 3.4540128353	-0.29352219	 0.110374
H	 2.0167604717	 3.58808314	-1.7308434946	 0.123257
36.1494	108.7835	140.3859	251.0898	275.3769	343.2844	363.6164	421.1745	463.6652	499.3722	625.489	750.9832	914.9025	918.6641	966.9671	969.7675	1042.5721	1070.6433	1075.0208	1099.6063	1129.9725	1172.8998	1190.8791	1222.5299	1224.4803	1307.6958	1327.8668	1333.2468	1353.4374	1376.8099	1411.5617	1440.3636	1441.7548	1494.1856	1497.8322	1511.3957	1870.9487	2926.7728	2952.5891	2982.1709	2988.8703	3041.1102	3101.7225	3104.2756	3127.7144
O=COC1COCOC1	O=COC1COCOC1	
InChI=1S/C5H8O4/c6-3-9-5-1-7-4-8-2-5/h3,5H,1-2,4H2	InChI=1S/C5H8O4/c6-3-9-5-1-7-4-8-2-5/h3,5H,1-2,4H2
