16
gdb 18628	3.18811	2.13512	1.77412	3.8203	64.79	-0.2337	0.0175	0.2512	800.1311	0.13232	-379.929445	-379.922351	-379.921407	-379.96062	26.828	
C	-0.1833042715	 1.5161681608	 0.0807449739	-0.323562
N	 0.0479779312	 0.085359731	-0.0717491275	-0.086713
C	 0.6648992472	-0.4815462751	-1.2514775976	-0.036089
C	 1.4758631341	 0.4196749973	-2.1830348122	-0.201508
N	 2.528303976	 0.9312021456	-1.3239317783	-0.306127
C	 2.5856113612	 0.384957112	-0.0648146873	 0.399989
O	 3.4431562187	 0.5939111384	 0.7648646345	-0.378651
C	 1.3740979042	-0.5162491338	 0.0695835588	-0.152431
H	 0.596206382	 2.1661911947	-0.3387506258	 0.116951
H	-1.1365078485	 1.7606706716	-0.3983006083	 0.125242
H	-0.274556295	 1.7373012585	 1.1477398931	 0.137649
H	 0.169683053	-1.3445905994	-1.6857659475	 0.104004
H	 1.8791043387	-0.1694997569	-3.016749445	 0.11894
H	 0.8689048477	 1.2293946762	-2.6091101512	 0.117308
H	 3.2120878906	 1.6099759255	-1.6192342739	 0.25305
H	 1.4569216705	-1.3770881163	 0.7240127141	 0.11195
110.3726	177.3985	224.9185	246.5285	386.1692	442.0072	462.3742	517.9704	630.5931	698.1401	761.7399	789.3622	846.3167	890.1639	947.0932	991.0957	1024.4926	1077.727	1098.6195	1119.7476	1164.3771	1179.3135	1222.5332	1260.4084	1287.0877	1300.1841	1346.4582	1395.349	1443.0633	1459.2094	1492.3119	1504.8068	1525.6245	1827.8118	3009.7489	3013.0288	3040.9466	3081.9884	3113.0257	3155.6215	3176.6658	3639.418
CN1C2CNC(=O)C12	CN1[C@H]2CNC(=O)[C@@H]12	
InChI=1S/C5H8N2O/c1-7-3-2-6-5(8)4(3)7/h3-4H,2H2,1H3,(H,6,8)	InChI=1S/C5H8N2O/c1-7-3-2-6-5(8)4(3)7/h3-4H,2H2,1H3,(H,6,8)/t3-,4-,7?/m0/s1
