13
gdb 130284	7.2609	0.84688	0.76814	3.9013	64.34	-0.2441	-0.0297	0.2143	1367.0892	0.088766	-489.89023	-489.882299	-489.881355	-489.923445	28.285	
N	-0.0103606438	 1.3520241644	 0.2590429984	-0.585873
C	 0.0248366965	-0.0052929203	 0.0196471363	 0.459127
N	-1.0901529032	-0.6840630951	-0.1704722531	-0.233447
O	-0.6744313866	-2.0341393828	-0.298034645	-0.227807
C	 0.6535459176	-2.0706927551	-0.1788114117	 0.576038
O	 1.2699214117	-3.2616175769	-0.3104868212	-0.231822
C	 0.6280488978	-4.4042995775	 0.1310504732	 0.159833
O	 1.1142747583	-5.472626293	-0.0403706407	-0.236216
C	 1.1842098054	-0.8405658607	 0.0201471728	-0.479202
H	 0.7731069347	 1.8686647164	-0.1119422271	 0.260716
H	-0.8973126137	 1.7778496642	 0.0261122482	 0.265528
H	-0.3242044167	-4.1857662877	 0.6331200299	 0.140346
H	 2.216753982	-0.577893386	 0.1686372498	 0.13278
53.1809	115.0299	152.0573	247.8485	299.0062	353.7196	405.9334	459.5516	517.1599	614.8878	679.0091	707.6777	733.5083	782.3828	826.2412	923.77	997.0294	1032.1151	1043.5376	1073.5058	1134.87	1206.0659	1331.0154	1414.6034	1509.5696	1555.311	1645.8218	1676.8254	1889.1453	3062.4183	3289.9337	3563.8411	3667.1489
NC1=NOC(OC=O)=C1	Nc1noc(OC=O)c1	
InChI=1S/C4H4N2O3/c5-3-1-4(8-2-7)9-6-3/h1-2H,(H2,5,6)	InChI=1S/C4H4N2O3/c5-3-1-4(8-2-7)9-6-3/h1-2H,(H2,5,6)
