21
gdb 58744	2.40223	1.37792	1.29507	2.845	82.48	-0.2347	0.0151	0.2498	1148.1886	0.181932	-387.071057	-387.06204	-387.061096	-387.104861	34.426	
C	-0.0114850606	 1.5407677729	-0.0136241503	-0.399623
C	-0.0158419445	 0.0038774548	 0.0235060014	-0.114564
C	 0.7578652088	-0.5268756232	 1.2414003113	-0.399713
C	-1.4315316233	-0.5215285178	 0.0254916944	 0.235595
C	-2.5830343947	-0.2711906159	-1.0219022105	-0.285832
C	-3.2693358173	-1.1988535789	 0.0351576667	-0.174295
C	-1.9345284132	-2.0156917111	 0.028455134	-0.285938
C	-2.5528432991	-0.3132214925	 1.0635951742	 0.440191
O	-2.7461673585	 0.2411953408	 2.1032929294	-0.344816
H	 1.013420407	 1.9244736091	-0.0253018187	 0.111914
H	-0.5217931777	 1.9219117002	-0.9037852622	 0.112913
H	-0.5167952444	 1.9499740359	 0.8673953103	 0.138213
H	 0.4806216439	-0.3635340578	-0.8861797867	 0.074782
H	 0.7943901306	-1.6208159378	 1.247770582	 0.112877
H	 1.7881229951	-0.1575951015	 1.2359537598	 0.111882
H	 0.2848270126	-0.1986227042	 2.1727756922	 0.138391
H	-2.9644782155	 0.7460136461	-1.1277503848	 0.11243
H	-2.4133841631	-0.7458141508	-1.9919864574	 0.104577
H	-4.2865880688	-1.5818675947	 0.0271283516	 0.094007
H	-1.7416441016	-2.5521907253	-0.9043526363	 0.104592
H	-1.710354836	-2.6280326683	 0.9037931395	 0.112416
50.994	134.3893	178.8773	190.9439	232.5762	255.6136	314.8735	412.4874	420.2623	476.6331	521.9022	653.2912	744.9269	760.7292	789.0363	820.5591	884.0586	919.7117	927.7328	937.166	974.2926	984.8731	1012.0501	1038.0966	1063.7514	1091.4391	1099.1478	1157.092	1162.4407	1179.9864	1199.2167	1200.5545	1225.0878	1328.9908	1346.2787	1380.7074	1398.7152	1421.863	1489.7217	1493.8017	1495.9767	1506.1092	1514.9214	1533.2107	1901.7224	2998.8858	3032.523	3036.1838	3059.5175	3059.7977	3102.7212	3105.244	3106.1121	3111.1587	3132.1455	3132.883	3155.0948
CC(C)C12CC(C1)C2=O	CC(C)[C@@]12C[C@@H](C1)C2=O	
InChI=1S/C8H12O/c1-5(2)8-3-6(4-8)7(8)9/h5-6H,3-4H2,1-2H3	InChI=1S/C8H12O/c1-5(2)8-3-6(4-8)7(8)9/h5-6H,3-4H2,1-2H3/t6-,8+
