15
gdb 69041	3.07709	1.36776	1.11054	1.7221	68.6	-0.2586	-0.066	0.1926	1074.8695	0.109013	-457.751046	-457.74252	-457.741576	-457.784441	30.606	
C	-0.1048871318	 1.446294217	 0.2924280509	-0.5146
C	 0.1272829733	-0.0031971876	 0.0434550828	 0.220415
O	-0.7192976354	-0.9623071433	 0.6802422095	-0.275663
C	 0.6700554907	-1.1240015887	 0.9214764215	 0.245264
C	 1.222328965	-1.9186560748	-0.2694702419	-0.435469
C	 0.7328911846	-0.736497287	-1.1603341414	 0.396558
O	 0.928461224	-0.4200602146	-2.2936447241	-0.284236
C	 1.2208142214	-0.9270832572	 2.2809967306	 0.060094
O	 0.6236180876	-0.3966239585	 3.1840697825	-0.254856
H	 0.7314278822	 2.0405482127	-0.0856265568	 0.143126
H	-1.01487507	 1.7744462736	-0.2200268713	 0.154197
H	-0.2264064394	 1.6212931092	 1.3643517854	 0.16602
H	 2.3117807029	-2.0079091059	-0.3143335082	 0.142494
H	 0.7566308194	-2.8926234807	-0.4276838904	 0.146735
H	 2.2656017956	-1.2891232943	 2.3961546608	 0.089921
80.4051	110.1121	179.5761	189.7918	221.3481	260.5119	348.937	408.8083	490.7963	515.6077	581.7792	674.4288	690.2087	754.7316	781.7712	851.3224	954.5228	1006.9959	1028.6637	1063.5047	1088.9432	1119.4692	1183.505	1208.8121	1290.2484	1387.2705	1425.8318	1429.9771	1450.5569	1477.9759	1485.1864	1807.1494	1899.5138	2897.6044	3046.111	3071.4844	3115.4374	3135.9227	3136.4802
CC12OC1(CC2=O)C=O	C[C@]12O[C@]1(CC2=O)C=O	
InChI=1S/C6H6O3/c1-5-4(8)2-6(5,3-7)9-5/h3H,2H2,1H3	InChI=1S/C6H6O3/c1-5-4(8)2-6(5,3-7)9-5/h3H,2H2,1H3/t5-,6-/m1/s1
