17
gdb 24361	3.59147	1.58817	1.13094	3.0745	82.79	-0.1887	-0.0109	0.1777	1041.4124	0.140469	-380.932203	-380.925398	-380.924454	-380.963223	27.49	
C	-0.0125561572	 1.4829418286	 0.0870144987	-0.266355
C	 1.38488942	 2.1348990258	-0.0503501891	-0.326122
C	 2.1897718895	 1.3989648851	-1.0778931949	 0.234598
C	 1.9545812907	 0.0654299186	-1.3267546612	 0.29223
N	 2.9191672499	-0.3041596321	-2.2403117085	-0.355375
C	 3.6707639766	 0.8086999129	-2.4950335303	-0.013197
N	 3.260638336	 1.8526541245	-1.8021106005	-0.326848
C	 0.9168979213	-0.7043633807	-0.6802568925	-0.171568
C	-0.0008735464	-0.0330398449	 0.0340494377	-0.07742
H	-0.4914015543	 1.8255232966	 1.0097912059	 0.103363
H	-0.6550349822	 1.8395087818	-0.7344703053	 0.115206
H	 1.2850208835	 3.1933379043	-0.3073198127	 0.116037
H	 1.9092584869	 2.0985179531	 0.9166734536	 0.1092
H	 3.0301628423	-1.2089090731	-2.6664145931	 0.263289
H	 4.4923486622	 0.7971799001	-3.1953061623	 0.127054
H	 0.8949746569	-1.7866014956	-0.7650913564	 0.083988
H	-0.8023097156	-0.5662217751	 0.5353671308	 0.091919
139.5383	197.1316	271.5785	387.459	422.1758	494.9752	512.7499	582.8233	663.2007	676.7317	694.1554	745.725	779.714	801.3593	868.0432	910.8436	959.9707	964.153	1020.1423	1039.4136	1105.6269	1158.5313	1165.86	1195.5779	1239.6907	1251.767	1304.4635	1341.0419	1354.2573	1385.3766	1421.9293	1466.7901	1472.6918	1485.1978	1510.0471	1605.7353	1670.7363	2975.7728	2992.6077	3069.9936	3083.6894	3164.6419	3187.1991	3253.5017	3664.0113
C1CC2=C(NC=N2)C=C1	C1Cc2c([nH]cn2)C=C1	
InChI=1S/C7H8N2/c1-2-4-7-6(3-1)8-5-9-7/h1,3,5H,2,4H2,(H,8,9)	InChI=1S/C7H8N2/c1-2-4-7-6(3-1)8-5-9-7/h1,3,5H,2,4H2,(H,8,9)
