18
gdb 55415	2.63933	1.51694	0.99462	2.7639	73.79	-0.2564	-0.0232	0.2332	1171.7557	0.148273	-439.174728	-439.166123	-439.165179	-439.208356	31.447	
C	 0.0496990493	 1.499351013	 0.0345677547	-0.470423
C	 0.0395157552	-0.0082283666	-0.0236430665	 0.396618
O	 1.0482169714	-0.6758210708	-0.1133759788	-0.337537
N	-1.2006970409	-0.6639421221	 0.0367379344	-0.15011
C	-1.2327169749	-2.1327928169	-0.002707133	-0.156633
C	-2.6630080908	-2.4750552643	 0.4494175105	-0.238729
C	-3.4804258452	-1.2517797452	 0.018809022	-0.325167
C	-2.4820792061	-0.0979163263	 0.0476517435	 0.418553
O	-2.7418206123	 1.0814966965	 0.0589302031	-0.363948
H	 1.090749178	 1.820919894	 0.0032195194	 0.135123
H	-0.5104927521	 1.9265475222	-0.8002035575	 0.158083
H	-0.4391630623	 1.8624305177	 0.9414081886	 0.154557
H	-1.0255837272	-2.4824259395	-1.0210281294	 0.123507
H	-0.4545291346	-2.5372401438	 0.6448117265	 0.141834
H	-3.0163699204	-3.4121276406	 0.0157750587	 0.116742
H	-2.6914160996	-2.5798927825	 1.538362289	 0.121517
H	-3.8461318167	-1.3452041592	-1.0113510142	 0.137974
H	-4.3407312309	-1.0221467658	 0.649253719	 0.138039
80.8022	101.3848	158.7202	169.7216	235.7921	248.0074	382.1751	395.6802	542.0836	589.963	606.6778	613.468	655.8073	719.6429	850.5511	893.0378	935.3922	977.9048	1001.2253	1032.1133	1061.2119	1090.2902	1144.3473	1191.4875	1210.1094	1247.8521	1270.4768	1306.8055	1323.4164	1348.1436	1392.6707	1403.6197	1445.6434	1465.8638	1470.8869	1500.893	1527.036	1783.8839	1826.0473	3040.8652	3044.7261	3062.3259	3065.1328	3115.9347	3124.6708	3130.0514	3134.1428	3165.7858
CC(=O)N1CCCC1=O	CC(=O)N1CCCC1=O	
InChI=1S/C6H9NO2/c1-5(8)7-4-2-3-6(7)9/h2-4H2,1H3	InChI=1S/C6H9NO2/c1-5(8)7-4-2-3-6(7)9/h2-4H2,1H3
