17
gdb 23615	2.11449	1.15427	0.82685	2.5514	78.64	-0.2179	-0.0976	0.1203	1390.2225	0.133843	-455.040158	-455.03074	-455.029796	-455.075437	33.01	
O	 0.6801158986	 0.4015861452	-1.6598295448	-0.253703
N	 0.2668760798	 1.4132119782	-1.1130230719	-0.05949
C	 1.1571243365	 1.9572801239	-0.1430997505	 0.264111
C	 0.7588627749	 3.0657442727	 0.5119684813	-0.09055
C	-0.5101020847	 3.8375080321	 0.2893672082	-0.209733
N	-0.2638009444	 5.2168821367	-0.1581870438	-0.490177
H	 0.2947764003	 5.718549991	 0.5271770235	 0.231345
H	 0.2791140975	 5.2047081382	-1.0170030594	 0.234036
C	 2.4581275598	 1.2735545866	 0.1068015202	 0.006198
C	 3.7448131917	 1.8949472855	-0.2527828725	-0.167145
O	 3.2960854545	 1.8607158113	 1.102255077	-0.232571
H	 1.4493987985	 3.4659982117	 1.253318849	 0.126583
H	-1.1416215446	 3.3343620318	-0.4436595301	 0.147942
H	-1.0721343427	 3.8859274267	 1.2301518586	 0.124434
H	 2.4096446985	 0.1873162979	 0.1217487916	 0.123443
H	 4.6022705806	 1.2636493166	-0.4788155718	 0.128716
H	 3.7454321655	 2.8789501238	-0.7186458747	 0.116561
60.36	71.5957	100.8966	188.2776	190.265	232.7325	270.374	303.2343	360.4422	448.2423	550.5026	593.8861	680.6114	750.4849	862.4513	877.0566	886.1985	924.0945	970.9285	1009.359	1061.2852	1084.4529	1095.2566	1127.0205	1157.8909	1166.6745	1234.3997	1275.0319	1324.9635	1364.4187	1383.2824	1418.8581	1483.1661	1520.3924	1577.8441	1662.3234	1693.9705	3037.4781	3088.6074	3128.4364	3144.6844	3154.3944	3181.9434	3484.9592	3566.6469
[O-]N=C(C1C[NH2+]1)C1CO1	[O][N]C(=CCN)[C@H]1CO1	
InChI=1S/C5H8N2O2/c8-7-5(3-1-6-3)4-2-9-4/h3-4,6,8H,1-2H2	InChI=1S/C5H8N2O2/c6-2-1-4(7-8)5-3-9-5/h1,5H,2-3,6H2/t5-/m1/s1
