19
gdb 79116	4.7507	1.19235	1.08659	3.3152	80.13	-0.231	-0.008	0.223	1147.2645	0.160737	-385.877339	-385.87002	-385.869076	-385.908902	29.552	
C	-0.1756210119	 1.582110811	 0.0056440088	-0.43845
C	 0.013067274	 0.0727825954	 0.0224395882	 0.036767
C	 1.2362846145	-0.596106733	-0.6648978448	-0.071221
C	 2.1597688973	-0.1620092938	 0.5248210807	-0.022594
C	 3.2204751815	-1.2328911626	 0.7555667459	-0.366746
C	 2.3437847226	-2.4753967575	 0.5256767333	 0.408721
O	 2.6579937461	-3.6361897858	 0.5787003592	-0.330259
C	 0.9952020669	-1.8757762602	 0.2184645432	-0.129071
C	 0.8054746523	-0.629619036	 1.1603374385	-0.0712
H	 0.7420248547	 2.1315188268	 0.231739522	 0.11862
H	-0.5271817919	 1.9136656412	-0.977586693	 0.120611
H	-0.9314945686	 1.882237345	 0.739709284	 0.120613
H	-0.9356872106	-0.4241277908	-0.2106136221	 0.069198
H	 1.4946687112	-0.6002368436	-1.7264428953	 0.076581
H	 2.4573001773	 0.880983818	 0.6142115001	 0.074076
H	 4.0516593421	-1.1987788938	 0.0431552736	 0.124001
H	 3.6450433897	-1.2304576041	 1.7651716618	 0.124013
H	 0.1607792143	-2.5432426792	 0.0092716985	 0.079762
H	 0.5620995685	-0.672778317	 2.2245576674	 0.076579
120.398	190.1686	222.7724	262.0332	349.436	406.2014	539.3968	593.1178	613.6371	673.3121	735.949	793.6847	801.8473	853.854	863.5671	899.1516	928.4446	973.359	998.305	1011.0016	1047.3369	1056.3707	1099.1449	1104.0658	1118.2418	1142.258	1160.6691	1164.6564	1209.0269	1216.2335	1247.7627	1254.8286	1262.0351	1280.4428	1351.5574	1412.8091	1424.5383	1459.2118	1495.0858	1501.6037	1856.8224	3033.1956	3038.5753	3048.5451	3083.7222	3086.4428	3090.5053	3092.2336	3112.1065	3136.5428	3139.3001
CC1C2C3CC(=O)C2C13	C[C@H]1[C@H]2[C@@H]3CC(=O)[C@H]2[C@H]13	
InChI=1S/C8H10O/c1-3-6-4-2-5(9)8(6)7(3)4/h3-4,6-8H,2H2,1H3	InChI=1S/C8H10O/c1-3-6-4-2-5(9)8(6)7(3)4/h3-4,6-8H,2H2,1H3/t3-,4-,6-,7+,8+
