20
gdb 11783	4.02717	1.6741	1.54588	0.2034	78.92	-0.221	0.0179	0.2389	934.8532	0.178251	-311.842434	-311.835088	-311.834143	-311.873779	29.648	
C	 0.0715643061	 1.5319806981	-0.1382815475	-0.380386
C	 0.0032959167	 0.0181397392	 0.0984549277	-0.302731
C	-1.4052736601	-0.5386427607	 0.051951439	 0.328869
C	-2.3212467647	-0.4658020588	-1.2284935019	-0.2419
C	-3.110950756	-1.5696269293	-0.4482640258	-0.074869
C	-1.7069465221	-2.0828201676	 0.0184669032	-0.255411
C	-3.5367512143	-0.7755409171	 0.7957623292	-0.091119
C	-2.4298517623	-0.1051060445	 1.1225510851	-0.116384
H	 1.103232957	 1.8935518711	-0.0884880734	 0.110972
H	-0.327604096	 1.7955414925	-1.1233605811	 0.119343
H	-0.5105603782	 2.0808374037	 0.6094042687	 0.116871
H	 0.6172186239	-0.4950772731	-0.6526542679	 0.091579
H	 0.4506583218	-0.2232754831	 1.0722934335	 0.094994
H	-2.8391589533	 0.4751482198	-1.4284096805	 0.090051
H	-1.8263393665	-0.8392635354	-2.1319798334	 0.086695
H	-3.8398502055	-2.2187014491	-0.9320559063	 0.057594
H	-1.1510999295	-2.6106008031	-0.7646707805	 0.086275
H	-1.6578275872	-2.6265013234	 0.9652371058	 0.08871
H	-4.5089668585	-0.790648795	 1.2676347294	 0.096148
H	-2.2439844612	 0.5799242557	 1.9381803868	 0.094697
90.593	174.1892	197.5837	316.1763	374.3374	466.5464	528.915	540.0089	608.7563	698.0785	723.9493	781.3643	839.0381	841.6498	889.8441	894.0447	908.9538	938.6233	960.1456	979.6423	1009.1088	1061.9478	1064.336	1069.1307	1102.0968	1115.2355	1168.2963	1200.769	1218.8274	1228.4979	1257.3521	1278.2657	1304.7201	1347.3917	1372.3271	1411.0164	1477.377	1485.2408	1497.8919	1506.5189	1513.6613	1628.1136	3012.7037	3031.5781	3034.5956	3043.1983	3045.1915	3101.9196	3104.3194	3107.7989	3113.4593	3121.386	3214.0275	3242.4262
CCC12CC(C1)C=C2	CC[C@@]12C[C@@H](C1)C=C2	
InChI=1S/C8H12/c1-2-8-4-3-7(5-8)6-8/h3-4,7H,2,5-6H2,1H3	InChI=1S/C8H12/c1-2-8-4-3-7(5-8)6-8/h3-4,7H,2,5-6H2,1H3/t7-,8+
