18
gdb 119675	3.87063	1.01074	0.91789	2.653	71.65	-0.237	0.0537	0.2907	1287.6239	0.14677	-438.956529	-438.948341	-438.947397	-438.989985	30.777	
O	-0.1099540732	 1.4333653079	-0.0031760793	-0.415267
C	 0.041272347	 0.0243340045	-0.0356145049	-0.07702
C	-1.3498674238	-0.5882200094	 0.0998636091	-0.337288
C	-1.3486632238	-2.0859033275	 0.0595004012	 0.314188
N	-0.7150077371	-2.9811330927	 1.093511602	-0.383966
C	-1.307076824	-3.9551229525	 0.1210156404	-0.078309
C	-2.5578256151	-3.0623988388	-0.1046788129	 0.055093
O	-2.4881603343	-3.103759697	-1.5589752565	-0.328331
C	-1.0918898653	-3.0690172988	-1.1471742283	 0.034981
H	 0.7620895644	 1.8334797274	-0.0670859323	 0.28727
H	 0.5026146013	-0.3081589761	-0.9800067105	 0.086877
H	 0.6848745702	-0.326889885	 0.7870359473	 0.091622
H	-1.7965328173	-0.2482539538	 1.0409969783	 0.123015
H	-1.9827546236	-0.2204516485	-0.7161249456	 0.127974
H	 0.3040031333	-2.9694741363	 0.9997485708	 0.208888
H	-1.2453961188	-5.0377217966	 0.2295245785	 0.092798
H	-3.5308252419	-3.0670727729	 0.3842265935	 0.104498
H	-0.3151092481	-3.0868367137	-1.9139799307	 0.092976
74.6461	85.998	130.1488	253.431	262.8617	341.622	350.4886	487.279	576.3117	709.9382	743.3149	773.1575	797.9726	830.7674	836.8477	876.6659	895.9641	945.7869	958.8201	1006.9603	1037.5611	1085.2918	1092.676	1106.9809	1128.7037	1163.2579	1172.1361	1186.9009	1227.9481	1244.6142	1261.8853	1273.841	1309.5019	1313.7352	1331.7091	1403.3462	1462.9361	1475.5014	1528.4377	2960.9863	2988.725	3041.0599	3087.7797	3101.4027	3123.9479	3141.093	3402.6209	3830.8075
OCCC12NC3C1OC23	OCC[C@@]12N[C@H]3[C@@H]1O[C@@H]23	
InChI=1S/C6H9NO2/c8-2-1-6-4-3(7-6)5(6)9-4/h3-5,7-8H,1-2H2	InChI=1S/C6H9NO2/c8-2-1-6-4-3(7-6)5(6)9-4/h3-5,7-8H,1-2H2/t3-,4-,5+,6+
