21
gdb 108985	2.68678	1.37829	1.07168	1.634	84.14	-0.2093	0.027	0.2363	1200.0885	0.182387	-387.05748	-387.048687	-387.047743	-387.090738	34.236	
C	-0.0508831249	 1.5414407782	 0.0292866265	-0.511605
C	-0.0074324613	 0.0286689632	 0.0294966476	 0.234748
C	 0.937878589	-0.7932878834	-0.9222260246	-0.238145
C	 0.6091314047	-1.9273244148	 0.1047853613	-0.071669
C	 0.654683878	-0.8012660462	 1.190501788	-0.23815
C	-0.9072652063	-2.052276244	-0.0988673824	-0.193007
C	-1.3154073437	-0.7815593762	-0.1489296736	 0.319179
C	-2.6726375621	-0.2024157394	-0.3288238934	-0.220377
O	-3.6163662446	-1.252309336	-0.4544173979	-0.413533
H	 0.9513404209	 1.9605040315	 0.1652342473	 0.11497
H	-0.4464703273	 1.9325276256	-0.9152969572	 0.115653
H	-0.6817362588	 1.9260669211	 0.8390717726	 0.115705
H	 0.611185455	-0.9376915486	-1.9552976673	 0.088094
H	 1.9791744317	-0.4533677936	-0.8851066319	 0.084452
H	 1.2046799271	-2.8363356399	 0.1811913993	 0.056905
H	 1.6686689693	-0.4621500525	 1.4314687293	 0.084446
H	 0.067582937	-0.9530143014	 2.0999465259	 0.088157
H	-1.4865730416	-2.959399942	-0.1795201513	 0.108859
H	-2.9142822569	 0.4525241687	 0.5283262719	 0.09359
H	-2.6824061039	 0.4529422083	-1.2190512144	 0.093657
H	-4.4853377113	-0.8586602186	-0.5733888159	 0.28807
80.5376	157.4236	167.406	204.9969	241.0368	280.0151	307.0006	408.9091	492.787	551.7914	565.6162	587.4417	696.3208	790.1745	797.1428	828.8479	845.6286	878.0376	905.1598	948.9503	989.3537	1017.3082	1040.4956	1056.1628	1066.1263	1084.6227	1114.1233	1168.0083	1174.3058	1189.7034	1222.1053	1228.7025	1235.4115	1247.1817	1266.0355	1279.7937	1325.6955	1412.2505	1466.1757	1476.6618	1489.9017	1494.7099	1506.8048	1516.4772	1694.8709	2930.1441	2937.4223	3023.0303	3029.219	3041.0113	3084.6981	3094.7276	3104.0268	3109.3637	3121.4319	3249.7467	3835.4228
CC12CC(C1)C=C2CO	C[C@@]12C[C@@H](C1)C=C2CO	
InChI=1S/C8H12O/c1-8-3-6(4-8)2-7(8)5-9/h2,6,9H,3-5H2,1H3	InChI=1S/C8H12O/c1-8-3-6(4-8)2-7(8)5-9/h2,6,9H,3-5H2,1H3/t6-,8+
