21
gdb 96314	2.25868	1.46838	1.05005	2.3697	81.03	-0.2361	0.0117	0.2477	1222.6255	0.183274	-424.228023	-424.219002	-424.218058	-424.261872	34.512	
C	 0.2274289094	 1.5662624688	-0.005988603	-0.470712
C	-0.0409784312	 0.0816760967	 0.0225624425	 0.311256
C	 0.006841007	-0.6375235781	-1.1042736223	-0.174471
C	-0.1192496649	-2.1401783061	-1.2849239097	 0.082631
O	 1.1155432702	-2.805974286	-1.0122837647	-0.436379
C	-1.2403481943	-2.8101110608	-0.490258915	-0.110302
O	-0.9876425362	-2.7968608152	 0.9052422041	-0.25496
C	-1.3281358102	-1.5834317771	 1.5529081876	-0.072669
C	-0.283576587	-0.4763400702	 1.41401165	-0.305305
H	 1.0703557185	 1.8236924733	 0.6491346806	 0.125228
H	 0.4598174869	 1.9215649067	-1.0127741579	 0.122094
H	-0.63654439	 2.13107796	 0.368164207	 0.121418
H	 0.246643302	-0.1007441422	-2.0200589169	 0.079918
H	-0.3200129839	-2.3326793322	-2.3457327515	 0.081679
H	 1.1588133588	-2.8859285036	-0.0511670182	 0.28178
H	-2.2111590344	-2.3441456551	-0.7164526301	 0.090211
H	-1.2810351071	-3.8664759037	-0.7749690361	 0.110743
H	-2.3031362265	-1.2261195342	 1.1863390791	 0.092792
H	-1.4408190775	-1.8346853922	 2.6132225864	 0.105659
H	 0.6693148564	-0.839775005	 1.826905215	 0.117905
H	-0.594745766	 0.3419609461	 2.0761069431	 0.101481
50.6506	136.7634	162.5398	217.0183	275.8467	318.9446	328.7592	394.5736	411.1371	431.9997	483.537	542.8326	587.6007	710.6847	808.0417	828.4979	851.5398	863.216	948.4406	970.6819	1020.0397	1028.9945	1046.0192	1076.9267	1101.5449	1137.9474	1148.5389	1171.0703	1236.4217	1265.2856	1308.6385	1324.8823	1357.7342	1378.0954	1388.9303	1404.3445	1412.3503	1425.3479	1435.0544	1466.3886	1476.9038	1480.6684	1490.5374	1496.3972	1729.9728	2983.0287	2995.1099	3002.2222	3012.1762	3039.2913	3047.0062	3056.7331	3066.9502	3079.6867	3115.4705	3139.5459	3778.2499
CC1=CC(O)COCC1	CC1=C[C@@H](O)COCC1	
InChI=1S/C7H12O2/c1-6-2-3-9-5-7(8)4-6/h4,7-8H,2-3,5H2,1H3	InChI=1S/C7H12O2/c1-6-2-3-9-5-7(8)4-6/h4,7-8H,2-3,5H2,1H3/t7-/m1/s1
