23
gdb 63425	3.72539	0.79925	0.7834	0.7623	91.94	-0.2557	0.0562	0.3119	1600.7416	0.203404	-351.124838	-351.114656	-351.113711	-351.159903	38.973	
C	 0.0850608459	 1.5346274156	 0.1888670822	-0.447818
C	 0.0004900261	 0.0200214451	 0.0285039548	 0.352028
C	-1.4285160084	-0.4125103682	-0.3099708815	-0.434238
C	 1.0520787531	-0.6300446873	-0.9295705388	-0.290784
C	 1.3200026912	-1.7251609851	 0.1375567223	 0.053612
C	 2.7757054285	-2.1370594523	 0.3869761862	-0.377255
C	 2.9204105342	-3.0698825084	 1.4991208209	 0.303067
C	 3.0065505774	-3.8384612302	 2.4196439231	-0.450447
C	 0.6128695438	-0.8299821624	 1.1891685205	-0.264132
H	 1.1054813782	 1.8527949331	 0.4276490218	 0.105392
H	-0.218954987	 2.0490772578	-0.7307307526	 0.110203
H	-0.5710502421	 1.8834758679	 0.9952745618	 0.111431
H	-1.7650268085	 0.0453565373	-1.2474329563	 0.109939
H	-1.50777107	-1.4988551526	-0.4239927754	 0.111774
H	-2.1261148974	-0.1104057675	 0.4797010948	 0.111089
H	 0.6991060096	-0.9575078047	-1.9118025692	 0.092679
H	 1.9239126509	 0.0178434733	-1.0735339096	 0.089713
H	 0.7305737474	-2.6238120254	-0.0659208575	 0.082
H	 3.189977577	-2.5873492423	-0.5253840335	 0.127151
H	 3.3770587128	-1.2387296591	 0.5827317334	 0.12175
H	 3.0958466233	-4.5169424372	 3.2312114164	 0.192653
H	 1.3337582334	-0.253554648	 1.778563799	 0.092917
H	-0.0851172592	-1.3146595094	 1.8766771774	 0.097275
55.6455	75.0677	130.2347	224.2194	251.8366	279.8341	301.9106	307.8497	352.3275	368.9205	411.0375	423.9636	477.4043	613.6994	616.8636	634.1003	745.2275	829.7471	864.3282	876.5002	914.2978	932.4578	953.2208	967.2172	985.119	1005.0996	1049.4866	1088.8104	1096.4874	1146.4242	1210.5084	1228.4982	1236.6893	1251.1497	1278.5063	1299.2527	1312.9227	1329.5509	1380.3732	1405.9065	1423.7264	1468.026	1473.7201	1484.2063	1486.2858	1500.454	1504.2991	1507.3775	2236.3546	3007.8075	3017.0914	3022.3146	3036.4992	3037.1854	3045.9368	3063.1455	3080.7697	3087.429	3089.5325	3093.9117	3094.5025	3103.2296	3507.6725
CC1(C)CC(CC#C)C1	CC1(C)CC(CC#C)C1	
InChI=1S/C9H14/c1-4-5-8-6-9(2,3)7-8/h1,8H,5-7H2,2-3H3	InChI=1S/C9H14/c1-4-5-8-6-9(2,3)7-8/h1,8H,5-7H2,2-3H3
