19
gdb 81886	3.05222	1.22964	1.03583	3.6378	77.12	-0.2445	-0.0258	0.2187	1191.4241	0.157555	-423.010638	-423.001505	-423.00056	-423.044352	33.92	
C	-0.1516050171	 1.6466451675	-0.1207847495	-0.412682
C	 0.0038414418	 0.1365686227	 0.0059361209	-0.112817
C	 1.1197411926	-0.5807784807	-0.8539397379	 0.086211
O	 2.0236605388	 0.2300692367	-1.5723690032	-0.421574
C	 1.7372732778	-1.1614196248	 0.4114913319	-0.081464
C	 2.1148257232	-0.0931442362	 1.3715786333	-0.327791
C	 0.647452974	-0.4394811814	 1.274934738	 0.247132
C	-0.062393596	-1.0753304748	 2.3956876964	 0.050953
O	 0.4714863635	-1.5781073301	 3.3585264766	-0.273638
H	 0.8017976121	 2.1658933169	 0.002901219	 0.131149
H	-0.5505223985	 1.9181253598	-1.104972227	 0.107413
H	-0.8476275656	 2.0292716528	 0.6330772496	 0.120646
H	-0.9605202228	-0.3517616549	-0.1754819117	 0.074139
H	 0.6899986956	-1.359247006	-1.4964083091	 0.075138
H	 1.5719901108	 0.5695556584	-2.3517784046	 0.286919
H	 2.0614046875	-2.1865201757	 0.5392874881	 0.109449
H	 2.5769572966	-0.4399580223	 2.2891235615	 0.144261
H	 2.4602643452	 0.8673386121	 1.0058145564	 0.13226
H	-1.1719793193	-1.08781162	 2.2870919914	 0.064295
95.0307	126.0278	172.4946	183.8567	218.2352	238.4027	276.6964	312.7356	360.2409	512.089	541.3076	600.4782	693.0602	732.3561	775.9666	810.4342	904.7213	930.5961	948.636	994.861	1021.8499	1048.8339	1062.1122	1089.0207	1105.2746	1121.2831	1154.5906	1206.5385	1219.0075	1246.8206	1283.7253	1319.0545	1363.575	1392.8893	1412.3968	1427.0096	1434.0914	1479.6669	1492.3023	1499.3131	1795.2967	2858.1671	3017.7373	3032.2991	3042.9109	3092.2402	3123.2631	3141.3443	3196.8899	3233.5723	3817.3755
CC1C(O)C2CC12C=O	C[C@H]1[C@@H](O)[C@H]2C[C@@]12C=O	
InChI=1S/C7H10O2/c1-4-6(9)5-2-7(4,5)3-8/h3-6,9H,2H2,1H3	InChI=1S/C7H10O2/c1-4-6(9)5-2-7(4,5)3-8/h3-6,9H,2H2,1H3/t4-,5+,6+,7+/m0/s1
