25
gdb 113077	2.19464	1.10899	0.86322	1.5801	89.32	-0.2372	0.0825	0.3197	1520.0055	0.2276	-389.492984	-389.482177	-389.481232	-389.529731	39.524	
C	-0.3502615881	 1.4606762019	 0.4683770658	-0.381707
C	-0.1288443357	-0.0192727445	 0.1377987395	-0.1892
C	 0.8413414866	-0.6739810127	 1.1077065992	 0.164501
O	 0.3412508883	-0.6733113613	 2.4668842886	-0.318589
C	 0.6046166656	-2.088495911	 2.626106727	 0.1645
C	-0.600990668	-2.8404721621	 3.166170588	-0.1892
C	-0.9895415559	-2.3585027899	 4.5680589694	-0.381706
C	 1.0275643281	-2.2185482598	 1.1343697635	-0.105904
C	 0.1859874829	-3.0805814998	 0.200141688	-0.408696
H	 0.5837173496	 2.0282570072	 0.3903298961	 0.111613
H	-1.0766181084	 1.9148824506	-0.2121166732	 0.108395
H	-0.7232411353	 1.5689845897	 1.4906443065	 0.137073
H	-1.0873254408	-0.5489090414	 0.1660911714	 0.095937
H	 0.2670074535	-0.1253527506	-0.8809861325	 0.092331
H	 1.8047375462	-0.1420021573	 1.0622548048	 0.063555
H	 1.4540967555	-2.2371600214	 3.3112934922	 0.063556
H	-1.4488405221	-2.7093597869	 2.4850237684	 0.095934
H	-0.36686619	-3.9131795354	 3.1851174091	 0.092331
H	-1.201145193	-1.2856916933	 4.554884493	 0.137073
H	-1.8791045268	-2.8795158948	 4.9343809035	 0.108394
H	-0.1795877109	-2.5317177415	 5.2853646218	 0.111613
H	 2.0769704207	-2.5072947351	 1.0289776151	 0.072785
H	-0.8799837887	-2.8457836766	 0.2524043058	 0.123429
H	 0.5038566481	-2.9466472757	-0.8392173938	 0.115991
H	 0.3035339387	-4.1417048881	 0.4439605725	 0.115995
24.2636	88.8773	106.5636	172.5417	173.6671	218.7304	229.0195	238.11	278.6772	307.1276	427.9238	441.6053	475.9439	506.9158	733.7987	773.4184	777.9991	831.6645	835.5517	935.4474	949.6266	968.4842	971.8227	1030.2602	1033.7896	1054.8822	1060.4522	1102.1841	1127.6231	1170.8494	1181.0439	1183.0895	1255.0641	1271.8849	1285.1218	1303.8537	1313.8199	1333.694	1362.7111	1381.0545	1397.042	1406.1007	1406.3104	1413.7861	1434.218	1471.8674	1476.5019	1497.0458	1498.0724	1500.0383	1504.7407	1508.9595	1510.0699	2968.4703	2973.212	3023.5229	3023.6382	3035.7067	3035.967	3038.1559	3062.3384	3069.2363	3070.2406	3096.3545	3102.6632	3102.8217	3118.7132	3119.2664	3120.5605
CCC1OC(CC)C1C	CC[C@H]1O[C@@H](CC)[C@H]1C	
InChI=1S/C8H16O/c1-4-7-6(3)8(5-2)9-7/h6-8H,4-5H2,1-3H3	InChI=1S/C8H16O/c1-4-7-6(3)8(5-2)9-7/h6-8H,4-5H2,1-3H3/t6-,7+,8-
