17
gdb 112228	2.01309	1.50288	0.97736	3.5159	76.47	-0.2404	-0.0261	0.2144	1226.337	0.132335	-421.781365	-421.772044	-421.7711	-421.816022	33.572	
C	-0.1274139198	 1.4500454745	-0.2072980011	-0.239321
O	-0.0897471577	 0.1378718202	 0.3108392752	-0.230292
C	-1.2783625695	-0.5743658112	 0.120851376	 0.117186
C	-1.4138625669	-1.1922964349	-1.3085174018	-0.38326
C	-0.9070335282	-2.5202174479	-0.7244836104	 0.401826
O	-0.4540852646	-3.5196372947	-1.1862947575	-0.277674
C	-1.1356897362	-2.0118539494	 0.7337808537	-0.34759
C	-0.1688393247	-2.2823252461	 1.7678805812	 0.345314
C	 0.641940348	-2.5327839228	 2.6184840147	-0.426295
H	 0.8338777149	 1.9128274008	 0.025183297	 0.137661
H	-0.2724059409	 1.4631373315	-1.2978196966	 0.108983
H	-0.9323411818	 2.0416129502	 0.2551196038	 0.110617
H	-2.1448637606	-0.0026660997	 0.477323331	 0.075066
H	-2.4436972689	-1.2698178812	-1.6716348545	 0.133222
H	-0.7904403463	-0.7514944749	-2.0892016797	 0.141721
H	-2.1338056441	-2.3607927375	 1.033002495	 0.134858
H	 1.3645809973	-2.7464425868	 3.3664172739	 0.197979
56.5322	105.9037	115.7805	136.4889	201.3285	276.7483	352.9452	367.982	408.4012	425.1371	558.5366	577.0259	617.4732	645.8882	696.7763	765.1596	820.0525	893.281	967.2838	1031.2724	1043.2347	1064.2947	1097.1795	1147.7916	1182.4099	1184.6901	1212.323	1242.4124	1265.4531	1318.8096	1382.5905	1425.1116	1481.2376	1488.348	1507.5363	1911.033	2241.3623	2979.7276	3015.4682	3025.7257	3029.108	3063.4853	3125.105	3128.5781	3505.2742
COC1CC(=O)C1C#C	CO[C@H]1CC(=O)[C@H]1C#C	
InChI=1S/C7H8O2/c1-3-5-6(8)4-7(5)9-2/h1,5,7H,4H2,2H3	InChI=1S/C7H8O2/c1-3-5-6(8)4-7(5)9-2/h1,5,7H,4H2,2H3/t5-,7+/m1/s1
