14
gdb 27268	3.41619	1.58514	1.09636	1.5056	65.14	-0.1853	0.0377	0.223	1017.3961	0.102533	-473.808058	-473.800711	-473.799767	-473.839963	27.484	
N	 0.1539239211	 1.3974815855	-0.1365491755	-0.601758
C	-0.0365761944	 0.0224230929	-0.0465185083	 0.247237
C	-1.0991201258	-0.8155420543	-0.0200281051	 0.155821
O	-2.4724601296	-0.8246753668	 0.0663792858	-0.296046
C	-2.8044806376	-2.1913639405	-0.2165822543	-0.007399
O	-1.6497901516	-3.0160291158	 0.0359699692	-0.284583
C	-0.6070395363	-2.1375338739	-0.0283037386	 0.252592
C	 0.7410719857	-2.0911993258	-0.0491863758	-0.173084
O	 1.0982227579	-0.7446420914	-0.0719426031	-0.196138
H	 0.8298189647	 1.7387072373	 0.5387111259	 0.255523
H	-0.7180945187	 1.8986730552	-0.0279932941	 0.257651
H	-3.6174584128	-2.5068299817	 0.4404749682	 0.134307
H	-3.0843839737	-2.2884939695	-1.2759315316	 0.115061
H	 1.5501695009	-2.7964580314	-0.0388918827	 0.140814
123.0843	143.0207	193.8405	284.3415	307.614	376.5006	552.324	581.7385	608.1559	624.1199	666.9651	686.8114	766.9924	771.1761	824.0164	932.4196	994.1137	1052.3734	1098.7093	1105.5589	1141.9213	1221.0258	1223.9285	1301.7137	1337.392	1429.6401	1478.3475	1530.4743	1633.3055	1683.2423	1767.4201	2994.4215	3114.7034	3312.9359	3517.1739	3625.1791
NC1=C2OCOC2=CO1	Nc1c2OCOc2co1	
InChI=1S/C5H5NO3/c6-5-4-3(1-7-5)8-2-9-4/h1H,2,6H2	InChI=1S/C5H5NO3/c6-5-4-3(1-7-5)8-2-9-4/h1H,2,6H2
