14
gdb 5207	9.0336	0.99873	0.90439	3.7862	78.61	-0.2083	-0.0028	0.2055	1235.0018	0.108607	-341.607063	-341.599433	-341.598489	-341.640949	26.431	
C	-0.0676868424	 1.4721345483	 0.0107044675	-0.50935
C	-0.0126193061	 0.0192427392	 0.0028279973	 0.184843
C	 0.0431819081	-1.1870083072	-0.0037366085	-0.072213
C	 0.110305328	-2.5923198186	-0.0114096063	 0.1746
C	 1.1674915133	-3.4824258005	-0.0224016134	-0.198422
N	 0.722589904	-4.7768831434	-0.0263927709	-0.241293
C	-0.5905937072	-4.6944526448	-0.0180362938	 0.004813
N	-1.0156387322	-3.4036112626	-0.0088440388	-0.316041
H	 0.941124782	 1.8991886482	 0.0032646877	 0.156461
H	-0.5969515429	 1.8592648015	-0.8675064644	 0.150721
H	-0.5801584969	 1.8503678902	 0.9026489075	 0.150724
H	 2.2189652813	-3.2406689299	-0.0274986379	 0.113766
H	-1.277775396	-5.5273926762	-0.018187928	 0.131649
H	-1.9663925631	-3.0737856543	-0.001429618	 0.269743
14.238	98.0083	109.532	273.025	313.4402	462.7813	476.3598	523.3792	539.0336	675.7767	685.0489	812.5574	858.5712	919.232	961.3584	1048.5842	1051.1605	1054.9278	1120.7542	1158.5394	1256.1763	1306.3564	1363.0055	1411.7052	1421.2035	1473.3001	1477.356	1485.9028	1595.7711	2353.5014	3024.1632	3081.6372	3090.0223	3252.0656	3258.4871	3665.8185
CC#CC1=CN=CN1	CC#Cc1cnc[nH]1	
InChI=1S/C6H6N2/c1-2-3-6-4-7-5-8-6/h4-5H,1H3,(H,7,8)	InChI=1S/C6H6N2/c1-2-3-6-4-7-5-8-6/h4-5H,1H3,(H,7,8)
