16
gdb 65455	3.28102	0.93452	0.85134	4.1917	75.41	-0.2418	0.0167	0.2586	1363.764	0.1215	-437.851085	-437.841742	-437.840798	-437.885866	34.063	
O	-0.1024652822	 1.3585700604	-0.053432085	-0.455198
C	 0.0159590024	-0.0422362176	-0.0108909013	 0.137895
C	-0.4590998171	-0.7330211051	 1.2644778741	-0.353227
C	-1.3281269265	-0.7379506839	 0.0312230927	 0.017077
N	-2.4869373445	 0.0898209295	-0.0534263903	-0.280348
C	-3.7070084792	-0.4054380433	-0.3965861327	 0.153251
O	-3.9600925721	-1.5787794143	-0.5674743624	-0.323603
C	 1.1029593823	-0.5987043024	-0.7697810575	 0.300276
C	 2.0312574784	-1.0512825418	-1.3860247449	-0.442423
H	 0.6592858033	 1.7382303102	 0.3983517755	 0.296312
H	 0.023559562	-1.657465403	 1.5590067793	 0.13507
H	-0.7487839238	-0.0686053402	 2.0712567661	 0.122516
H	-1.443881466	-1.669489117	-0.5076066051	 0.148388
H	-2.3399862882	 1.0875029182	-0.0209433254	 0.264369
H	-4.4592603541	 0.4012166048	-0.4976608677	 0.077672
H	 2.8408737453	-1.4535857145	-1.9434405355	 0.201974
34.7069	110.8351	142.9965	199.1876	232.4698	267.4329	288.7656	347.1764	431.187	472.4375	546.9811	563.8883	583.3184	601.4289	684.7784	703.722	750.3242	880.0013	895.9651	925.3902	1020.185	1029.7647	1040.7699	1079.3425	1131.7861	1230.0043	1240.4004	1262.2718	1324.8613	1391.3962	1429.3136	1462.8971	1532.8771	1803.5454	2234.3295	2942.6674	3137.3109	3209.0619	3237.739	3500.9373	3623.3689	3804.4638
OC1(CC1NC=O)C#C	O[C@]1(C[C@H]1NC=O)C#C	
InChI=1S/C6H7NO2/c1-2-6(9)3-5(6)7-4-8/h1,4-5,9H,3H2,(H,7,8)	InChI=1S/C6H7NO2/c1-2-6(9)3-5(6)7-4-8/h1,4-5,9H,3H2,(H,7,8)/t5-,6+/m1/s1
