23
gdb 123092	6.504	0.4669	0.44277	2.0625	84.51	-0.2644	0.0205	0.2848	2513.7482	0.202852	-425.480224	-425.468664	-425.46772	-425.519364	39.075	
C	-0.0822931814	 1.5108109848	 0.0841058439	-0.380683
C	-0.0438317924	-0.0159574988	-0.0200508669	-0.164933
C	 0.7256235556	-0.5156235452	-1.2477317621	-0.163066
C	 0.7648242073	-2.0439409025	-1.353100885	-0.204213
C	 1.5322381143	-2.5165067403	-2.5767887996	-0.062021
O	 1.5098249337	-3.9570162303	-2.5825036277	-0.241462
C	 2.1506283985	-4.5515851723	-3.610049335	 0.425586
C	 2.0539334817	-6.0550559712	-3.5002534151	-0.477718
O	 2.7165529094	-3.9465084515	-4.4853539402	-0.35059
H	 0.9282537926	 1.9287892414	 0.1524643062	 0.114684
H	-0.5639407855	 1.9557498342	-0.7937488491	 0.114684
H	-0.6375344878	 1.8369022255	 0.9690224054	 0.112674
H	 0.4120263914	-0.4350824433	 0.8866073666	 0.096346
H	-1.0687717782	-0.4083277732	-0.0523797265	 0.096347
H	 0.2701408126	-0.0967294113	-2.155794788	 0.096856
H	 1.7516685457	-0.1234987641	-1.216344215	 0.096855
H	 1.2286359784	-2.4701569017	-0.4550043808	 0.10514
H	-0.2559457347	-2.4433320969	-1.3963938135	 0.10514
H	 1.0838297222	-2.148899907	-3.506112651	 0.118638
H	 2.5731765034	-2.1758188734	-2.5616994502	 0.118635
H	 1.0049966872	-6.3647338963	-3.4984402497	 0.148116
H	 2.5762650802	-6.5143227362	-4.3385136792	 0.146849
H	 2.4928733758	-6.3915814506	-2.5567123877	 0.148134
35.1116	46.7987	61.3263	77.3697	105.0765	131.9029	197.4183	197.8444	246.5636	257.2021	346.3834	443.9673	485.7769	607.8589	646.284	736.5506	768.5883	854.6813	891.498	919.9235	979.3451	983.2364	1026.7517	1058.1551	1064.5852	1068.2794	1077.4214	1144.6654	1193.6233	1241.1357	1266.7781	1276.0836	1294.9424	1317.9493	1333.8641	1352.547	1390.4368	1400.951	1413.1659	1423.5224	1469.8113	1476.3888	1485.2457	1489.2219	1499.5573	1499.9275	1510.8741	1520.6966	1823.3389	3004.3971	3015.8658	3028.134	3028.833	3029.5253	3043.1756	3049.8615	3056.4787	3065.4467	3091.9618	3096.2159	3102.0066	3120.9853	3168.393
CCCCCOC(C)=O	CCCCCOC(=O)C	
InChI=1S/C7H14O2/c1-3-4-5-6-9-7(2)8/h3-6H2,1-2H3	InChI=1S/C7H14O2/c1-3-4-5-6-9-7(2)8/h3-6H2,1-2H3
