21
gdb 83948	2.20152	1.66215	1.40827	0.6661	77.17	-0.2296	0.0726	0.3021	1061.3961	0.184019	-424.208293	-424.199936	-424.198992	-424.240612	33.199	
C	-0.1056314577	 1.5746785829	 0.0655578752	-0.432613
C	 0.066317841	 0.0671477778	-0.0019481699	 0.0324
C	 0.8121702609	-0.6376687015	-1.1861918662	-0.055867
C	 2.0855679339	 0.1469937335	-1.5372712689	-0.248956
C	 3.017226166	 0.2179170321	-0.3028222118	-0.067347
O	 2.3284920766	 0.1209183411	 0.9481522869	-0.27944
C	 1.1265243323	-0.6342670219	 0.8964434982	 0.066492
C	 1.1871596495	-1.7594054552	-0.1838207077	 0.102303
O	 0.1304875999	-2.6939808902	-0.0849816738	-0.445546
H	 0.8540866067	 2.0973325241	 0.0875171954	 0.122485
H	-0.6803212581	 1.9473528604	-0.7899109945	 0.111257
H	-0.6490725857	 1.8574551257	 0.9738662903	 0.113704
H	-0.892886897	-0.4355126213	 0.1393501882	 0.087677
H	 0.2363074261	-0.9250834733	-2.068882271	 0.06815
H	 2.6248465459	-0.3401317786	-2.3575148273	 0.100597
H	 1.8142870162	 1.1488173961	-1.8850439146	 0.109051
H	 3.7618976171	-0.588066976	-0.3599131417	 0.099881
H	 3.5693654492	 1.1621094779	-0.2738729744	 0.107276
H	 0.8764046881	-0.901416426	 1.9277377206	 0.063457
H	 2.1508862099	-2.2668445958	-0.3228925245	 0.062082
H	 0.2785787991	-3.2272596319	 0.7030578515	 0.282957
157.2156	182.8434	213.784	239.7318	276.1277	292.2049	317.3527	357.2315	460.3888	519.2426	564.0059	629.6876	745.0726	803.6244	840.0711	887.0701	910.5072	923.536	940.3635	1004.6237	1030.1021	1049.0292	1055.7299	1095.2926	1104.7568	1140.0704	1161.2119	1173.361	1200.3792	1230.3095	1238.3349	1274.7081	1286.91	1305.2505	1328.704	1347.5474	1356.3084	1382.9974	1408.3651	1410.6569	1429.3453	1489.393	1495.3664	1510.4559	1522.8865	2993.0295	3014.9721	3031.7783	3039.7567	3062.4018	3068.024	3080.9729	3085.7726	3088.7571	3091.1392	3117.9937	3808.2168
CC1C2CCOC1C2O	C[C@H]1[C@H]2CCO[C@@H]1[C@H]2O	
InChI=1S/C7H12O2/c1-4-5-2-3-9-7(4)6(5)8/h4-8H,2-3H2,1H3	InChI=1S/C7H12O2/c1-4-5-2-3-9-7(4)6(5)8/h4-8H,2-3H2,1H3/t4-,5+,6-,7-/m0/s1
