19
gdb 41240	2.90992	2.08985	1.67551	1.5561	78.01	-0.2366	0.0757	0.3123	878.1943	0.16235	-385.816139	-385.810003	-385.809059	-385.846185	27.041	
C	-0.0408852682	 1.4804169388	-0.2204276085	-0.259362
C	 1.4870959601	 1.6012226245	 0.130732489	-0.354968
C	 1.3415322136	 0.2712866438	 0.8910768865	 0.290472
C	 1.9691120631	-1.1174871391	 1.1175422688	-0.345414
C	 0.6994597222	-1.3329439011	 1.994515362	-0.077492
C	-0.6318047022	-0.7551254576	 1.2909915222	 0.030158
O	-0.715691986	 0.2883602263	 2.3023530253	-0.285273
C	 0.7072395311	 0.1601580234	 2.3578928859	 0.070072
C	 0.0472197039	-0.0382480141	 0.1190962808	 0.004313
H	-0.6703676562	 2.0183969472	 0.4898890343	 0.124385
H	-0.3333751606	 1.7384852134	-1.2399282838	 0.094572
H	 2.1182736965	 1.5161145197	-0.7593281062	 0.104024
H	 1.8098312908	 2.4732752402	 0.7064181591	 0.098086
H	 2.1403703735	-1.7376020331	 0.2335356265	 0.098622
H	 2.8555331288	-1.1358289865	 1.76064189	 0.100324
H	 0.5891275886	-2.1297214156	 2.7278974679	 0.080278
H	-1.5526503031	-1.3274317	 1.1816802129	 0.075704
H	 1.1977456124	 0.6310785535	 3.2094049706	 0.082082
H	 0.2010642516	-0.6734514436	-0.7567342831	 0.069416
225.2253	270.0328	387.7088	415.5065	509.4185	580.6937	682.0663	695.6407	703.1167	767.3616	808.7787	821.1603	850.9779	882.8699	901.9705	913.9905	936.6386	946.1558	985.1865	1021.6528	1031.9614	1038.6808	1077.4036	1100.2401	1123.1963	1137.8538	1174.4398	1187.1869	1203.8909	1218.1198	1225.8428	1232.2158	1259.5475	1264.7283	1277.3864	1296.7523	1330.3387	1343.075	1474.0064	1489.1338	1498.6922	3043.2738	3047.9069	3075.463	3079.9299	3096.0086	3100.3554	3122.6809	3124.0622	3141.1451	3141.6643
C1CC23CC4C(OC24)C13	C1C[C@@]23C[C@@H]4[C@@H](O[C@H]24)[C@@H]13	
InChI=1S/C8H10O/c1-2-8-3-4-6(5(1)8)9-7(4)8/h4-7H,1-3H2	InChI=1S/C8H10O/c1-2-8-3-4-6(5(1)8)9-7(4)8/h4-7H,1-3H2/t4-,5-,6-,7+,8+/m1/s1
