22
gdb 8380	4.37741	1.22564	1.12593	0.1203	83.25	-0.2504	0.0912	0.3417	1187.4487	0.199592	-313.056452	-313.047642	-313.046698	-313.089653	33.706	
C	 0.3547194526	 1.4941044396	-0.6332101359	-0.403264
C	 0.2776108971	 0.012628858	-0.3367456979	-0.062205
C	 1.5218313182	-0.7642272657	 0.0405590971	-0.35053
C	 0.4475167868	-0.5043830354	 1.0612609886	 0.383043
C	 0.6314460449	 0.2813289285	 2.3677369846	-0.311187
C	 0.1515584325	-0.9851247663	 3.1426235164	 0.064641
C	-0.8410881297	-0.8042735772	 4.2801771941	-0.405787
C	-0.3607291472	-1.5821581757	 1.7952709898	-0.315163
H	 1.0885774264	 1.9883893451	 0.011897375	 0.114528
H	 0.6509710927	 1.6779249222	-1.6720697618	 0.11437
H	-0.6111964269	 1.9863777553	-0.4709875225	 0.113096
H	-0.4421201892	-0.5304904787	-0.9468026439	 0.076255
H	 1.6388916275	-1.7741395509	-0.3411734985	 0.103909
H	 2.4535020705	-0.2118108955	 0.1305906285	 0.103254
H	 1.6334278268	 0.6548798239	 2.597498842	 0.092915
H	-0.0784686205	 1.1116643738	 2.4634890367	 0.092684
H	 1.0190674624	-1.5543240787	 3.4927967905	 0.071045
H	-1.7171994036	-0.2342688274	 3.949383583	 0.109822
H	-1.1958769532	-1.7700328459	 4.6578595552	 0.111994
H	-0.3909697214	-0.2635076301	 5.1205422866	 0.111937
H	-1.4429108985	-1.4512970885	 1.6750943379	 0.091499
H	-0.1124092281	-2.6267571104	 1.5854783946	 0.093145
54.4015	157.6297	182.329	198.4545	236.6315	279.7916	334.8904	392.5678	415.1412	441.7226	534.0649	715.3684	774.2273	826.8107	862.3319	889.9105	896.9477	913.3096	922.03	953.6068	990.1835	1032.4207	1068.591	1075.8818	1115.9017	1125.3851	1136.1127	1163.6533	1182.9704	1224.1954	1234.0641	1236.0468	1258.33	1289.7126	1334.5782	1368.4033	1406.5368	1410.9438	1428.289	1474.971	1488.8329	1490.6097	1493.9932	1495.4194	1499.246	1506.2257	3019.6856	3023.5047	3026.8531	3032.3142	3043.0083	3082.8482	3083.3611	3084.1706	3088.1755	3092.438	3093.4876	3110.9333	3121.322	3195.1766
CC1CC11CC(C)C1	C[C@H]1C[C@]21C[C@@H](C)C2	
InChI=1S/C8H14/c1-6-3-8(4-6)5-7(8)2/h6-7H,3-5H2,1-2H3	InChI=1S/C8H14/c1-6-3-8(4-6)5-7(8)2/h6-7H,3-5H2,1-2H3/t6-,7-,8+/m0/s1
