20
gdb 103362	2.84978	1.65663	1.3221	1.3217	80.1	-0.2172	0.0039	0.2211	1034.7339	0.170851	-403.081735	-403.073365	-403.072421	-403.114496	33.087	
C	 0.5309916803	 0.711367963	-0.4073865567	-0.211554
O	-0.597203795	 0.543897785	 0.4353670552	-0.318497
C	-1.5897239218	-0.412626502	 0.2188388633	 0.482346
C	-2.543569766	-0.1754996569	 1.3839725329	-0.439294
C	-2.1613332758	-0.594276881	-1.2754004394	-0.127021
N	-0.8943938442	-1.3511784851	-1.5397972727	-0.309871
C	-1.136591861	-1.908112012	-0.168988989	-0.127064
C	-2.4991263577	-2.5856979489	-0.3065883433	-0.096196
C	-3.1866216483	-1.7042321922	-1.0489566698	-0.096206
H	 1.0971553673	 1.5321770902	 0.0437455446	 0.107878
H	 1.1579228323	-0.1840910578	-0.4513327566	 0.116488
H	 0.253374649	 0.9783468869	-1.4313207814	 0.11655
H	-2.8973984478	 0.8591174093	 1.3492537919	 0.122203
H	-3.4001462086	-0.845299828	 1.3793223151	 0.119321
H	-1.9963187013	-0.3001370017	 2.3230387017	 0.12216
H	-2.4034458445	 0.2502322932	-1.921628087	 0.06612
H	-1.0388151977	-2.0659152126	-2.2547639902	 0.198464
H	-0.3168907843	-2.425114304	 0.3312445438	 0.066117
H	-2.8263974404	-3.4974413658	 0.1728736364	 0.104029
H	-4.2275438147	-1.7009988397	-1.3400569086	 0.104027
56.9158	179.9289	209.923	258.8491	269.7136	325.208	375.362	423.0312	499.5757	564.8323	591.8036	618.9856	728.1941	731.0828	816.0501	843.0107	900.9993	901.0446	922.5742	923.8305	969.1963	997.0115	1074.0136	1090.3309	1098.5522	1135.8825	1141.4125	1170.9004	1176.8511	1205.0159	1230.6534	1250.249	1253.4084	1289.6294	1306.8741	1327.4482	1404.8285	1481.5371	1483.888	1489.5417	1491.4206	1494.5702	1593.9546	3028.3603	3054.017	3101.1159	3105.9955	3111.6533	3112.1404	3114.4297	3172.4012	3219.2377	3245.575	3431.7168
COC1(C)C2NC1C=C2	CO[C@@]1(C)[C@H]2N[C@@H]1C=C2	
InChI=1S/C7H11NO/c1-7(9-2)5-3-4-6(7)8-5/h3-6,8H,1-2H3	InChI=1S/C7H11NO/c1-7(9-2)5-3-4-6(7)8-5/h3-6,8H,1-2H3/t5-,6+,7-
