20
gdb 59887	3.39328	0.94924	0.87353	2.2601	77.46	-0.2545	0.0354	0.2899	1438.6495	0.169118	-440.305579	-440.295713	-440.294769	-440.34102	35.232	
C	 0.1299559011	 1.4856593064	-0.2989806696	-0.397333
C	 0.0320089498	-0.0203389335	-0.0798003324	 0.15822
C	-1.3959835667	-0.545379695	-0.1033929654	-0.393742
O	 0.7303778332	-0.7170735039	-1.1459359301	-0.265821
C	 2.0629943393	-0.8495596122	-1.0035292908	 0.46812
O	 2.7167351852	-0.4186999168	-0.0834221867	-0.396097
N	 2.5747563288	-1.6238648547	-2.0396192881	-0.117122
C	 2.4637044532	-1.2535684324	-3.4386390538	-0.222385
C	 3.7859236577	-1.2421917889	-2.731567031	-0.215921
H	 1.1731894345	 1.8070930676	-0.2705930343	 0.140269
H	-0.3058990921	 1.7637355751	-1.2642426316	 0.116654
H	-0.413944348	 2.0162507481	 0.4887506583	 0.118465
H	 0.5255925725	-0.2843164489	 0.8595656418	 0.111049
H	-1.8790235155	-0.3127618275	-1.0576411783	 0.12315
H	-1.4128236691	-1.629414383	 0.0359690138	 0.127052
H	-1.9788147245	-0.0833745401	 0.698911527	 0.119421
H	 2.2126343866	-2.0600071067	-4.1214853903	 0.12813
H	 2.0059743352	-0.2957774775	-3.6703672967	 0.132103
H	 4.2201950858	-0.2791477774	-2.4775490322	 0.137595
H	 4.5012612031	-2.0411836488	-2.9020187595	 0.128192
57.2948	76.8399	97.8373	155.3406	218.222	233.6008	250.7025	272.5959	328.0173	407.5664	449.8989	521.0851	603.5008	785.1032	821.3238	832.0364	850.9152	921.8023	933.5339	950.8716	977.1259	1024.297	1050.3204	1129.9976	1135.8167	1144.769	1162.6641	1171.8141	1177.7823	1203.5203	1233.4287	1354.6664	1376.7597	1401.0693	1410.8904	1418.3907	1481.9626	1486.4343	1496.0244	1500.2149	1511.3687	1527.7272	1801.4268	3039.5415	3044.2703	3075.8865	3108.5755	3113.9841	3118.6333	3120.1574	3123.6246	3134.6835	3197.2128	3210.9362
CC(C)OC(=O)N1CC1	CC(C)OC(=O)N1CC1	
InChI=1S/C6H11NO2/c1-5(2)9-6(8)7-3-4-7/h5H,3-4H2,1-2H3	InChI=1S/C6H11NO2/c1-5(2)9-6(8)7-3-4-7/h5H,3-4H2,1-2H3
