17
gdb 51203	3.85083	1.11074	0.99964	1.9467	72.96	-0.2413	-0.0268	0.2145	1184.6457	0.134343	-421.737152	-421.729441	-421.728497	-421.770361	28.895	
O	-0.5984605607	 0.6517326652	 0.6980476983	-0.235715
C	 0.1198095557	 0.9195897788	-0.2292739238	 0.162225
C	 1.2975330162	 1.869353489	-0.16723241	-0.414402
C	 1.2067086497	 2.9660624865	-1.2007241348	 0.290909
C	 0.1752782825	 4.1037877748	-1.3890487106	-0.322497
C	 1.1735864301	 4.3492026301	-2.5415250773	-0.095958
C	 2.3870782405	 3.8746171207	-1.6870599464	 0.046013
O	 2.876002791	 2.9173458415	-2.6714718091	-0.326205
C	 1.422597596	 2.8251802092	-2.7503154454	 0.054012
H	-0.0471209914	 0.4650166296	-1.2339157597	 0.074436
H	 1.3680392061	 2.2736765303	 0.8471157971	 0.124545
H	 2.2099261183	 1.2924951179	-0.3804413718	 0.136711
H	-0.8379571611	 3.8065906807	-1.6735535655	 0.108055
H	 0.1404376235	 4.8624645729	-0.6022845453	 0.107102
H	 1.182382364	 5.119850102	-3.3107847615	 0.091285
H	 3.108881399	 4.4488034405	-1.1061207245	 0.099532
H	 0.9781323706	 2.1331441404	-3.4655715095	 0.099952
57.185	73.3474	169.6297	228.5854	340.0743	416.6168	465.0663	565.7657	673.4874	728.4636	774.6023	810.5556	833.8625	856.1138	883.1783	898.9426	923.8481	952.8027	1001.1822	1042.4964	1067.049	1076.5042	1112.0255	1130.0872	1145.3352	1169.2791	1171.0001	1206.7417	1228.4243	1268.6921	1292.9409	1313.2135	1355.6092	1428.8751	1451.6199	1516.3485	1836.4916	2858.6897	3010.6018	3053.2494	3092.8218	3109.2603	3119.0263	3120.6916	3139.5546
O=CCC12CC3C1OC23	O=CC[C@@]12C[C@H]3[C@@H]1O[C@@H]23	
InChI=1S/C7H8O2/c8-2-1-7-3-4-5(7)9-6(4)7/h2,4-6H,1,3H2	InChI=1S/C7H8O2/c8-2-1-7-3-4-5(7)9-6(4)7/h2,4-6H,1,3H2/t4-,5-,6+,7+
