21
gdb 95968	2.64317	1.46488	1.20515	1.6388	77.73	-0.2428	0.0696	0.3124	1121.4947	0.183297	-424.213559	-424.20486	-424.203915	-424.247139	33.071	
O	-0.0895272372	 1.5190277692	 0.8553796844	-0.441252
C	 0.0530954736	 0.2522883802	 0.2209561447	 0.003233
C	 0.6079751769	-0.8273386661	 1.1694875032	-0.085631
O	-0.5099718959	-1.494105359	 1.7523341881	-0.26768
C	-1.7046486944	-0.8568590354	 1.307823661	-0.123102
C	-1.3583469923	-0.265708183	-0.0597460759	 0.360743
C	-2.416706597	 0.6624830984	-0.7066023702	-0.284872
C	-2.845357117	-0.5105933883	-1.632123769	-0.21314
C	-1.5397701429	-1.2593242386	-1.2461691232	-0.284342
H	 0.7774773961	 1.803768258	 1.1605379632	 0.283651
H	 0.6559121281	 0.3430714532	-0.6937483122	 0.060085
H	 1.2191697644	-1.5639498355	 0.6310263678	 0.099213
H	 1.2328379891	-0.3738035361	 1.9526382748	 0.084538
H	-2.4980504899	-1.6104020139	 1.2761576774	 0.100174
H	-2.0033850541	-0.0559485121	 2.0008777747	 0.097606
H	-3.1741595904	 1.0787922942	-0.0374692175	 0.100554
H	-1.9539879961	 1.4889934573	-1.2514952945	 0.10795
H	-3.740382755	-1.0215127471	-1.2673168043	 0.103736
H	-2.9904236115	-0.2826322322	-2.6903170794	 0.097827
H	-0.7580480403	-1.1441327123	-2.0036746755	 0.095232
H	-1.6175024741	-2.3188847507	-0.9890301077	 0.105478
75.6585	98.2551	139.9779	195.3985	262.015	310.0864	334.1041	370.4595	470.2451	521.9159	678.8219	732.4417	789.6529	811.029	862.0481	870.4711	927.6502	938.9568	942.7731	947.1344	982.3393	1017.1139	1048.438	1097.9525	1104.2626	1143.3189	1160.0285	1196.288	1207.9179	1213.5178	1224.5072	1253.0423	1256.4108	1276.5662	1301.0107	1305.5231	1331.6984	1359.3365	1383.7859	1428.0788	1477.2539	1484.1182	1501.5011	1508.7603	1518.2927	2986.8964	2992.9575	3000.8232	3032.9361	3047.2066	3058.6389	3064.4805	3072.906	3094.9332	3105.5826	3121.1459	3819.5935
OC1COCC11CCC1	O[C@H]1COCC21CCC2	
InChI=1S/C7H12O2/c8-6-4-9-5-7(6)2-1-3-7/h6,8H,1-5H2	InChI=1S/C7H12O2/c8-6-4-9-5-7(6)2-1-3-7/h6,8H,1-5H2/t6-/m0/s1
