16
gdb 84643	2.76545	1.76819	1.18092	3.4506	72.08	-0.2242	-0.0223	0.2019	1017.2498	0.125279	-437.906981	-437.899243	-437.898299	-437.939668	28.822	
C	 0.0650811849	 1.4706867217	-0.0080297242	-0.359453
N	 0.0736430517	 0.0100559187	-0.0035844993	-0.149478
C	 0.0406383605	-0.6571176775	-1.2259237534	 0.048324
C	-0.0287024219	-1.9878011044	-1.3610497607	-0.178161
C	 0.0480598803	-2.8357780573	-0.1622714849	 0.009228
O	 1.2486921773	-2.7029725084	 0.6269382412	-0.247789
C	 0.0438346895	-2.1500029059	 1.1538991285	-0.110687
C	-0.0343033655	-0.6503533643	 1.2144469134	 0.462383
O	-0.1975420657	-0.065870861	 2.2687727755	-0.376249
H	 0.9627765387	 1.8548821432	-0.5019020513	 0.137242
H	-0.8197331929	 1.8513521491	-0.5289695896	 0.134446
H	 0.0432497896	 1.8063717114	 1.0269097421	 0.177071
H	 0.0506368139	 0.0050446143	-2.0841048134	 0.124411
H	-0.0887753535	-2.433365801	-2.344919178	 0.107937
H	-0.3270476008	-3.8551551192	-0.2164995492	 0.102915
H	-0.3414871762	-2.6317713795	 2.0494314233	 0.11786
65.1428	111.8809	167.8761	303.042	326.7144	361.324	435.9191	509.7178	553.8378	626.7018	707.0662	725.8586	761.9275	810.0243	846.8595	896.9593	938.7319	991.4039	1035.2796	1054.3137	1125.9477	1155.8026	1178.4835	1199.1778	1258.2311	1281.1662	1353.5188	1376.3412	1418.1042	1437.8814	1464.5044	1503.0373	1508.761	1704.331	1771.9137	3038.0791	3097.434	3139.1832	3151.2188	3177.2326	3195.7522	3224.5462
CN1C=CC2OC2C1=O	CN1C=C[C@H]2O[C@H]2C1=O	
InChI=1S/C6H7NO2/c1-7-3-2-4-5(9-4)6(7)8/h2-5H,1H3	InChI=1S/C6H7NO2/c1-7-3-2-4-5(9-4)6(7)8/h2-5H,1H3/t4-,5-/m1/s1
