14
gdb 25945	2.97629	1.63418	1.05494	1.8596	65.35	-0.2181	0.0047	0.2228	1037.5121	0.10236	-470.073249	-470.065709	-470.064765	-470.105446	28.632	
N	 0.9004481208	-0.0000870595	 0.4993572168	-0.569326
C	-0.1657936774	 0.3139272824	-0.2607460074	 0.489321
O	-0.2926080639	 1.2854788487	-0.9759401403	-0.394523
N	-1.2284430669	-0.6363347689	-0.1720631967	-0.19569
C	-2.4260013354	-0.4894342123	-0.8864855696	-0.079672
C	-3.1902730979	-1.5369975161	-0.5833368595	-0.072062
O	-2.5233915316	-2.3656501387	 0.3115191797	-0.218231
C	-1.3008583858	-1.8097831334	 0.5709296751	 0.525348
N	-0.4039748289	-2.2759979144	 1.3426156266	-0.63111
H	 1.6815331309	 0.6311192063	 0.4746059625	 0.268078
H	 0.8952409891	-0.8492913178	 1.0599313941	 0.295781
H	-2.5730073009	 0.3603173099	-1.5275070355	 0.184061
H	-4.1743575558	-1.8495194377	-0.8819172541	 0.160415
H	-0.6982991162	-3.1478671686	 1.7707039482	 0.23761
91.635	127.235	243.9502	260.1157	359.4239	405.9537	444.0672	576.127	581.4997	652.429	662.6847	710.6164	719.5984	756.4898	773.2352	780.0792	832.6452	911.1565	1002.2648	1039.343	1129.1916	1146.4023	1192.3108	1230.3038	1295.9163	1365.2441	1425.7583	1614.5118	1669.7043	1761.5053	1829.6563	3305.0596	3329.6445	3431.0997	3559.6261	3714.5507
NC(=O)N1C=COC1=N	NC(=O)N1C=CO[C@@H]1[NH]	
InChI=1S/C4H5N3O2/c5-3(8)7-1-2-9-4(7)6/h1-2,6H,(H2,5,8)	InChI=1S/C4H6N3O2/c5-3(8)7-1-2-9-4(7)6/h1-2,4,6H,(H2,5,8)/t4-/m1/s1
