15
gdb 26558	2.42359	1.90187	1.06876	4.9478	75.02	-0.1887	-0.0106	0.1781	1045.4889	0.115727	-450.169777	-450.162018	-450.161074	-450.201696	30.032	
N	 0.0893286564	 1.4246848432	 0.1368457287	-0.597471
C	-0.0176796929	 0.0310019462	 0.0359661076	 0.234181
C	-1.1619183729	-0.6886026071	 0.0198630764	 0.300452
O	-2.38324675	-0.1110763853	 0.0259749121	-0.458767
C	-1.1241928308	-2.1451884069	-0.0048954245	 0.276769
N	-2.270330349	-2.7340439329	-0.0129528297	-0.597824
N	 0.1190853883	-2.7791790736	-0.0378380888	-0.333184
C	 1.1761899217	-2.0387620632	-0.0178509109	 0.082027
N	 1.1802567963	-0.6797574052	 0.01135201	-0.344359
H	 0.5271767293	 1.8457879299	-0.6780133849	 0.250124
H	-0.8321532803	 1.8309303847	 0.2526420235	 0.271378
H	-2.9872504986	-0.8850835852	 0.0153268411	 0.303768
H	-2.162236539	-3.7456153588	-0.0508997325	 0.217963
H	 2.1603063228	-2.5016427159	-0.02869161	 0.128931
H	 2.0383632488	-0.1744123598	 0.1682149519	 0.266012
132.3112	195.0922	233.9171	280.0099	311.351	329.5415	440.1498	516.2797	531.3678	558.8213	571.0009	582.2699	650.1245	715.2631	780.0718	827.2313	840.0631	900.2609	940.702	1025.6304	1057.7862	1160.4237	1196.1701	1301.013	1327.7076	1362.4973	1429.275	1450.8346	1542.3784	1637.9075	1648.9254	1664.6594	1758.5744	3160.7689	3492.2483	3501.9683	3512.1751	3597.5859	3634.1122
NC1=C(O)C(=N)N=CN1	NC1=C(O)C(=NCN1)[NH]	
InChI=1S/C4H6N4O/c5-3-2(9)4(6)8-1-7-3/h1,9H,(H4,5,6,7,8)	InChI=1S/C4H7N4O/c5-3-2(9)4(6)8-1-7-3/h5,8-9H,1,6H2
