25
gdb 119464	4.50877	0.76786	0.73127	0.2516	93.89	-0.2404	0.0881	0.3285	1719.9193	0.22853	-352.342668	-352.332619	-352.331675	-352.377734	38.252	
C	 0.0797854848	 1.6518802	 0.0105192755	-0.380222
C	 0.1474828753	 0.1229904474	 0.039903286	-0.154434
C	 0.5784786081	-0.4871683717	-1.3031265129	-0.310644
C	 0.6241339777	-1.9904548135	-1.2846126538	 0.407708
C	 1.8064840907	-2.7748194395	-0.78385406	-0.326225
C	 1.3515516733	-2.9752266668	-2.2068393279	-0.137469
C	 0.1089054774	-3.8768885575	-2.2742508734	 0.043933
C	 0.2399226494	-5.3524331452	-1.9155259343	-0.403736
C	-0.6147769339	-2.9050621109	-1.2773602947	-0.314293
H	 1.0545821338	 2.0867105197	-0.2380773916	 0.111924
H	-0.6371668347	 2.0025060694	-0.7405190061	 0.112214
H	-0.2281921985	 2.058204468	 0.9791126053	 0.109566
H	 0.8461671725	-0.2037361245	 0.8203302089	 0.09769
H	-0.8329507135	-0.2825048443	 0.3216012613	 0.097631
H	-0.1122570463	-0.1489026459	-2.0892168932	 0.0885
H	 1.567854996	-0.0963272334	-1.5776710909	 0.089804
H	 2.7264386035	-2.2070266927	-0.6778155014	 0.103971
H	 1.6869963245	-3.5577146937	-0.0380521355	 0.099362
H	 2.0127962424	-2.7620231415	-3.0401391937	 0.075381
H	-0.3562533206	-3.7880346202	-3.2614486446	 0.070504
H	 0.7036334553	-5.4916945717	-0.9333831612	 0.11292
H	-0.7416551512	-5.8390857407	-1.8896000793	 0.110445
H	 0.8552635765	-5.8827173509	-2.6510779364	 0.111864
H	-0.8900742284	-3.3265865976	-0.3039268116	 0.088249
H	-1.502071334	-2.4387591722	-1.7143716044	 0.095357
68.7945	91.7473	95.9664	186.0105	219.7638	243.7674	254.5025	306.2208	350.6358	377.4564	411.7845	517.7454	644.9477	718.3821	746.86	800.1592	851.5154	868.5062	881.7886	887.7871	916.1307	965.8604	978.1924	986.6234	1020.7584	1045.6066	1053.2879	1077.0625	1099.4512	1108.2602	1118.4738	1144.1051	1188.3553	1226.6513	1241.3711	1264.2265	1280.4983	1308.8954	1313.9077	1336.5614	1372.934	1382.3313	1402.8369	1411.7667	1417.2331	1479.5668	1481.4802	1493.3218	1494.0179	1496.5672	1499.5358	1507.7561	1510.9847	2997.1065	3020.8089	3025.4776	3027.5624	3030.3441	3035.1261	3043.6902	3056.9963	3089.4233	3091.3595	3094.1262	3098.4626	3099.7265	3104.0338	3161.4034	3188.3937
CCCC12CC1C(C)C2	CCC[C@]12C[C@H]1[C@@H](C)C2	
InChI=1S/C9H16/c1-3-4-9-5-7(2)8(9)6-9/h7-8H,3-6H2,1-2H3	InChI=1S/C9H16/c1-3-4-9-5-7(2)8(9)6-9/h7-8H,3-6H2,1-2H3/t7-,8-,9-/m0/s1
