15
gdb 94524	3.1047	1.10823	1.05974	4.3947	68.23	-0.2586	-0.0966	0.162	1169.5482	0.111978	-453.924701	-453.916102	-453.915157	-453.959151	30.435	
O	 0.2188595697	 1.4306278087	-0.1168739433	-0.415216
C	 0.1286226592	 0.0475775225	-0.0010393105	 0.144705
C	 0.2070431576	-0.532141276	 1.4355909386	-0.201619
N	-1.2689182528	-0.6226633681	 1.4512846355	-0.298648
C	-1.3509971339	-0.5529850273	-0.0113229882	-0.174633
C	-2.3875418087	 0.4019943457	-0.5534471998	 0.340129
O	-2.7027643513	 1.4326096229	-0.0108836953	-0.284986
C	-2.953491394	 0.041238151	-1.869576348	 0.221039
N	-3.3890565251	-0.2739124445	-2.8936120982	-0.298056
H	-0.4462603323	 1.8323513812	 0.4591999894	 0.306327
H	 0.8015653728	-0.3807421329	-0.7436253483	 0.114399
H	 0.7329975089	-1.496183527	 1.4676608813	 0.103269
H	 0.6306742656	 0.1352900369	 2.1930389384	 0.118227
H	-1.679293711	-1.4436928506	 1.8800942205	 0.232318
H	-1.3933644649	-1.5129836426	-0.5427283122	 0.092746
31.3215	92.4787	148.7463	161.7253	270.2373	295.0602	394.3669	412.7093	463.7626	478.9562	601.6769	631.5054	749.287	809.1295	840.2392	910.99	946.7054	998.8875	1031.9999	1061.6594	1112.9592	1119.4019	1141.894	1191.9501	1241.6435	1290.0796	1335.0532	1372.3374	1407.6452	1447.1611	1515.8829	1783.2463	2334.5735	3007.0638	3017.1488	3074.9163	3123.2235	3547.2042	3757.704
OC1CNC1C(=O)C#N	O[C@H]1CN[C@H]1C(=O)C#N	
InChI=1S/C5H6N2O2/c6-1-3(8)5-4(9)2-7-5/h4-5,7,9H,2H2	InChI=1S/C5H6N2O2/c6-1-3(8)5-4(9)2-7-5/h4-5,7,9H,2H2/t4-,5-/m0/s1
