17
gdb 71034	4.11227	1.61395	1.37566	1.4298	71.52	-0.2324	0.0672	0.2996	943.4255	0.135786	-421.707193	-421.700381	-421.699437	-421.737935	28.113	
C	 0.0097808479	 1.4555795791	-0.1785516076	-0.522858
C	 0.0064666561	-0.0201200786	 0.0492621534	 0.368399
O	 0.679587205	-0.8749778442	-1.0240762022	-0.416029
C	 0.1954545564	-1.7817005012	-0.0232433274	 0.410563
C	 0.0577266263	-3.2148157656	 0.4381998026	-0.175015
O	-0.6552451117	-2.9149885291	 1.6661713782	-0.30188
C	-0.7949452739	-1.455778124	 1.6961749236	 0.067649
C	 0.5443639977	-0.8949332043	 1.2112874411	-0.170408
C	-1.1440758162	-1.0371441515	 0.2656969131	-0.170421
H	 1.0339013509	 1.8348478389	-0.2407927758	 0.139263
H	-0.5099509976	 1.7042395751	-1.1083849962	 0.139301
H	-0.4987488601	 1.9573059275	 0.6508045473	 0.131656
H	-0.5559022842	-3.8473510104	-0.2115020021	 0.116181
H	 1.0049827771	-3.7158894414	 0.6626651121	 0.11618
H	-1.3266606855	-1.1855630768	 2.6049655898	 0.088812
H	 1.5179140652	-0.8509557793	 1.6957600029	 0.089303
H	-2.0612511535	-1.1524500844	-0.3087071828	 0.089306
196.5853	225.7983	237.6037	324.5157	428.9629	463.5875	544.129	574.1347	658.2373	726.6566	735.8255	740.6674	815.7505	861.0148	872.7855	911.7346	921.7925	963.1832	987.0629	1022.8077	1063.3615	1099.438	1100.1186	1113.675	1166.2286	1170.2656	1180.6378	1216.2857	1231.4485	1242.7603	1307.2633	1350.1726	1393.0917	1432.025	1472.1873	1490.6447	1524.7914	3037.5911	3041.3667	3085.3875	3116.4618	3118.263	3138.6322	3139.4405	3158.6058
CC12OC34COC(C13)C24	C[C@@]12O[C@@]34CO[C@@H]([C@H]13)[C@@H]24	
InChI=1S/C7H8O2/c1-6-4-3-5(6)7(4,9-6)2-8-3/h3-5H,2H2,1H3	InChI=1S/C7H8O2/c1-6-4-3-5(6)7(4,9-6)2-8-3/h3-5H,2H2,1H3/t3-,4+,5-,6+,7-
