18
gdb 125043	2.89951	1.25682	0.93233	3.6848	75.67	-0.2053	0.0304	0.2357	1247.1908	0.148555	-435.284755	-435.2752	-435.274256	-435.31911	34.598	
C	 0.1028378828	 1.5492373723	 0.0743296699	-0.535113
C	 0.0283311889	 0.0536950356	 0.0351075889	 0.10289
C	 0.0322012744	-0.7700668439	-1.076678341	 0.291259
N	 0.0221599832	-0.495125842	-2.448620475	-0.609786
N	-0.0258850703	-2.0476461223	-0.6162657645	-0.248744
N	-0.0565438878	-2.1211524439	 0.7359948026	-0.302682
C	-0.037755794	-0.8511699769	 1.1305603096	 0.234727
C	-0.0378925454	-0.5187322794	 2.5908704275	-0.168633
O	 1.1188246369	 0.2192134162	 2.9910489863	-0.415114
H	 0.6437677614	 1.9487007823	-0.7924815434	 0.103051
H	-0.8870841552	 2.0233237794	 0.0826730651	 0.12492
H	 0.6310342174	 1.8746815491	 0.9741796832	 0.152625
H	 0.0302843541	 0.5013427226	-2.624070699	 0.253723
H	 0.7945859075	-0.9214792792	-2.948975385	 0.249126
H	-0.0994853373	-2.8892471202	-1.1615992096	 0.266602
H	-0.8849628238	 0.1276854892	 2.8449548824	 0.110999
H	-0.1435814036	-1.4510053064	 3.1620220411	 0.108454
H	 1.8857955706	-0.3011984726	 2.729396211	 0.281695
74.5975	126.7574	132.5507	173.2547	210.8876	244.9725	272.073	311.4133	371.4858	416.2799	448.053	504.8451	610.2932	667.9096	701.8734	732.5839	782.1591	810.8338	960.7973	971.4991	1042.821	1066.9103	1102.7608	1131.1066	1177.931	1204.1908	1256.3849	1338.2847	1362.8043	1414.6359	1418.0413	1438.143	1483.8651	1496.3423	1501.524	1512.1059	1550.436	1627.8617	1664.2922	3013.2792	3016.5586	3058.9313	3070.4212	3115.3167	3517.1647	3615.7415	3674.9975	3810.2844
CC1=C(N)NN=C1CO	Cc1c(N)[nH]nc1CO	
InChI=1S/C5H9N3O/c1-3-4(2-9)7-8-5(3)6/h9H,2H2,1H3,(H3,6,7,8)	InChI=1S/C5H9N3O/c1-3-4(2-9)7-8-5(3)6/h9H,2H2,1H3,(H3,6,7,8)
