19
gdb 26371	2.61777	1.34659	1.10377	2.6333	76.79	-0.1989	0.0526	0.2516	1182.1336	0.159893	-419.257797	-419.248782	-419.247838	-419.291956	33.737	
C	 0.0132292471	 1.5675901877	 0.033762119	-0.38203
C	-0.0047070283	 0.0345949899	 0.0455070388	 0.02091
C	 0.7864631391	-0.547490775	 1.2226953813	-0.382013
N	-1.378853174	-0.4732825211	 0.0357014303	-0.050346
C	-2.3681904152	-0.2908058723	 1.0031016762	-0.140143
C	-3.4658584917	-0.9528154475	 0.5399305532	-0.101086
N	-3.2040150034	-1.5458608341	-0.6841484103	-0.38292
C	-1.9604379985	-1.2300539299	-0.9311753618	 0.441097
O	-1.2522896544	-1.5848123674	-2.0218912823	-0.43145
H	 1.042892325	 1.9313722737	-0.0334103103	 0.120578
H	-0.5481627202	 1.9574239248	-0.8193891654	 0.130928
H	-0.4286658488	 1.9751256655	 0.9486637877	 0.122159
H	 0.4379941327	-0.3272488034	-0.8861431695	 0.119799
H	 0.3721389975	-0.2156058233	 2.1800834722	 0.12216
H	 0.7671365743	-1.6403013291	 1.2029322716	 0.130928
H	 1.8287855433	-0.2183249638	 1.1750482919	 0.120573
H	-2.1865783316	 0.2791944675	 1.8980974425	 0.122024
H	-4.4339186882	-1.0436269181	 1.0076776571	 0.105861
H	-1.8534900349	-2.1099933842	-2.564587282	 0.312971
35.8238	109.2647	193.6705	226.2993	257.8004	289.4762	298.7905	380.7146	415.407	443.8232	540.5469	620.8457	641.1058	679.3488	736.4399	754.5092	834.2955	888.2004	933.646	935.8933	950.2142	1087.2122	1091.9984	1122.6723	1146.4833	1184.3842	1210.8477	1245.233	1292.8143	1351.662	1353.9421	1401.5253	1420.4891	1434.368	1484.1817	1487.3156	1498.7943	1508.3401	1551.234	1564.6076	1598.7742	3039.2897	3043.2755	3081.5948	3108.6995	3119.1319	3121.7055	3124.4441	3251.7199	3284.2096	3807.6866
CC(C)N1C=CN=C1O	CC(C)n1ccnc1O	
InChI=1S/C6H10N2O/c1-5(2)8-4-3-7-6(8)9/h3-5H,1-2H3,(H,7,9)	InChI=1S/C6H10N2O/c1-5(2)8-4-3-7-6(8)9/h3-5H,1-2H3,(H,7,9)
