17
gdb 128634	4.82336	0.93378	0.80533	3.8429	71.85	-0.2215	0.0306	0.2522	1413.1734	0.137757	-451.332612	-451.323737	-451.322793	-451.366698	31.611	
C	-0.0884533837	 1.261440512	 0.1487551684	-0.238906
O	-0.2216629332	-0.1112028317	 0.5365793426	-0.274455
C	-1.3720358333	-0.6773847964	 0.1734981485	 0.499784
N	-1.6210239563	-1.978444526	 0.491263338	-0.374239
C	-2.8779014022	-2.2133300152	-0.0139925907	 0.377898
C	-3.5406077097	-3.5475037509	 0.0912469564	-0.275836
N	-3.207598704	-4.1679737747	 1.3825639026	-0.526297
H	-3.5174905704	-5.1343644241	 1.3888345767	 0.237572
H	-1.073744279	-2.6128302922	 1.0492019222	 0.280265
H	-3.7136731568	-3.699072866	 2.128684243	 0.237779
N	-3.3409911204	-1.1398535088	-0.5921906596	-0.28535
N	-2.3693755302	-0.1452135952	-0.4793822789	-0.336973
H	 0.8886924478	 1.5772557122	 0.5144494429	 0.132213
H	-0.1432979804	 1.3597543382	-0.9388820093	 0.147126
H	-0.8820479327	 1.8655994489	 0.5969763903	 0.146451
H	-4.6118799854	-3.4037769012	-0.1056447299	 0.126262
H	-3.1581515	-4.2107089889	-0.6958398032	 0.126704
74.8362	94.6905	147.633	160.8145	206.0581	259.1444	295.7812	384.5152	465.3517	500.3622	561.6981	663.4231	706.2041	735.9938	751.7669	874.9303	992.2767	1006.8836	1030.614	1048.8594	1061.2332	1103.7583	1175.9159	1183.6949	1201.3679	1227.9144	1301.0616	1411.5057	1424.3999	1456.6461	1477.4431	1491.8128	1499.2135	1507.0675	1590.0482	1623.1472	1660.2776	3008.7338	3041.7688	3046.8231	3120.585	3157.18	3493.4211	3575.0881	3666.4062
COC1=NC(C[NH3+])=N[N-]1	COc1[nH]c(CN)nn1	
InChI=1S/C4H7N4O/c1-9-4-6-3(2-5)7-8-4/h2,5H2,1H3/q-1/p+1	InChI=1S/C4H8N4O/c1-9-4-6-3(2-5)7-8-4/h2,5H2,1H3,(H,6,7,8)
