16
gdb 19082	3.96951	1.75822	1.492	2.6187	63.89	-0.204	0.0663	0.2703	862.7913	0.129721	-383.642507	-383.635338	-383.634393	-383.673367	28.483	
O	-0.0814696871	 1.3573144182	-0.0478919351	-0.431335
C	 0.0263471429	-0.0416805001	-0.0381784403	 0.050498
C	-0.4382352704	-0.684616554	 1.2573187701	-0.116253
C	-1.3262340497	-0.6843467041	 0.0235877416	-0.063289
C	-1.3384488184	-2.2327772265	 0.0121226291	-0.111981
C	-0.0212927777	-2.9324885963	 0.0203032196	 0.088834
O	 1.051763058	-2.6106164389	-0.8219832405	-0.413108
C	-0.4429272027	-2.2335202683	 1.2823792816	-0.145713
H	 0.6835481811	 1.7119643917	 0.4169314374	 0.285389
H	 0.8282464577	-0.4546368153	-0.6378322201	 0.112526
H	-0.5531279629	-0.0863006159	 2.1518465304	 0.08931
H	-2.2161766897	-0.0958015961	-0.1539855537	 0.098953
H	-2.25557941	-2.7818384413	-0.1653028279	 0.092135
H	-0.1686302651	-4.0118663457	 0.1177206559	 0.093271
H	 1.8642603756	-2.8224565924	-0.3489062396	 0.283835
H	-0.5861628518	-2.7851143049	 2.2047676115	 0.086927
190.3667	216.765	266.0546	288.994	303.0305	324.6781	455.0098	522.4552	636.5713	682.0387	701.6979	795.1562	827.7846	867.965	903.3804	912.3219	980.3489	996.8999	1006.109	1023.5743	1055.4388	1091.4883	1115.722	1124.9484	1168.4752	1230.1397	1238.0632	1272.128	1275.5443	1304.4499	1307.5667	1358.6168	1432.6733	1464.6736	3060.2979	3166.9088	3179.5402	3185.6695	3194.308	3208.1743	3798.2835	3806.8199
OC1C2C1C1C(O)C21	O[C@H]1[C@H]2[C@@H]1[C@H]1[C@@H](O)[C@@H]21	
InChI=1S/C6H8O2/c7-5-1-2(5)4-3(1)6(4)8/h1-8H	InChI=1S/C6H8O2/c7-5-1-2(5)4-3(1)6(4)8/h1-8H/t1-,2+,3-,4+,5-,6-
