23
gdb 66240	2.75253	1.2016	1.15647	1.3896	84.5	-0.2431	0.0826	0.3257	1235.6414	0.206664	-388.282897	-388.273758	-388.272814	-388.317428	35.073	
C	-0.0763732734	 1.762875512	-0.0872507407	-0.477563
C	 0.0691448916	 0.238915533	-0.075270305	 0.293337
C	 1.0218087997	-0.277970659	-1.200913242	-0.278853
C	 1.9382233814	-1.3046117893	-0.4895908012	-0.073648
O	 1.3979559392	-1.4954170947	 0.8138372231	-0.249518
C	 0.8223698754	-0.2554934741	 1.1827956299	-0.114074
C	-1.2596664218	-0.514361656	-0.1579452916	 0.012192
C	-2.5622582749	-0.0002304142	 0.3999865302	-0.28842
C	-2.3783304885	-0.139135208	-1.0946733473	-0.288853
H	 0.9093705176	 2.2375743876	-0.0506121654	 0.113595
H	-0.5765592051	 2.119115004	-0.993084146	 0.120051
H	-0.6463189364	 2.124332076	 0.7747446905	 0.118967
H	 0.4511226561	-0.7302905996	-2.0152726786	 0.108815
H	 1.6093263726	 0.5395521067	-1.6278187506	 0.094848
H	 1.9723990677	-2.2807705945	-0.9806946881	 0.106346
H	 2.9688347218	-0.9228035582	-0.419007159	 0.088418
H	 1.6035100281	 0.4683552682	 1.4749419765	 0.073444
H	 0.1666349302	-0.426842039	 2.040701281	 0.107658
H	-1.1095323323	-1.5845439917	-0.0382633622	 0.094082
H	-3.2132818569	-0.7024499775	 0.909293743	 0.109892
H	-2.601180632	 1.0052001088	 0.8039154557	 0.110178
H	-2.290295825	 0.7755154541	-1.6712994742	 0.109904
H	-2.9056315251	-0.9336397447	-1.6116446279	 0.109204
40.4296	61.8336	183.4744	225.9797	236.1355	273.9445	331.6875	345.1093	417.5011	469.7601	612.9007	676.5533	719.7767	788.123	820.0453	838.1462	870.9664	904.8241	939.0508	952.7407	959.2722	976.5464	1017.0294	1037.6086	1054.0582	1070.0777	1078.1082	1106.5928	1159.2941	1173.5656	1190.6849	1201.7939	1203.8189	1229.9896	1239.8479	1272.7596	1300.4691	1312.5915	1361.7583	1394.8018	1399.8658	1419.9641	1465.5575	1495.5711	1498.9734	1502.7076	1508.4219	1509.3278	1525.2325	2947.5185	2978.0097	3033.8635	3060.1554	3082.8478	3092.0911	3098.6178	3103.5103	3108.8563	3131.25	3134.4572	3139.1888	3206.8221	3222.433
CC1(CCOC1)C1CC1	C[C@]1(CCOC1)C1CC1	
InChI=1S/C8H14O/c1-8(7-2-3-7)4-5-9-6-8/h7H,2-6H2,1H3	InChI=1S/C8H14O/c1-8(7-2-3-7)4-5-9-6-8/h7H,2-6H2,1H3/t8-/m1/s1
