16
gdb 34966	3.22369	1.60707	1.52883	5.1767	71.61	-0.2369	0.0082	0.2452	910.8963	0.127109	-396.852368	-396.84574	-396.844796	-396.883383	26.485	
N	-0.2474625084	-1.1977366136	-0.1681139872	-0.332236
C	-0.1435056793	-0.0510957525	-0.0655798189	 0.30947
C	-0.0117405306	 1.3929893942	 0.0529850528	-0.11257
C	-0.2480550678	 2.0650154121	 1.4318132098	-0.044432
N	 0.4622971136	 1.3098953127	 2.5004250274	-0.313391
C	 1.7562508914	 1.9609464599	 2.1114840174	-0.029542
C	 2.3360728875	 1.2600441458	 0.870491054	-0.169597
N	 1.3811906179	 1.9839689892	-0.0522089009	-0.173917
C	 1.0201371635	 2.9083325502	 1.1200607711	-0.009835
H	-0.626154701	 1.8686958099	-0.7190189444	 0.13205
H	-1.2486096475	 2.4265552009	 1.6703590403	 0.088585
H	 0.1635808081	 1.6545778433	 3.4076114514	 0.228907
H	 2.4120042493	 2.2507298165	 2.9330484958	 0.080796
H	 3.3512594487	 1.5922988724	 0.6354823101	 0.117823
H	 2.2858562537	 0.1693273744	 0.8374124592	 0.141416
H	 1.1070426409	 3.9874059746	 1.0032146121	 0.086473
125.3029	148.9714	333.5318	343.2028	433.6849	539.2104	567.0883	671.0566	704.3568	763.6786	792.5219	832.5587	836.6851	865.6279	872.4544	952.0216	984.9402	1007.9729	1022.3413	1036.176	1057.9432	1100.5553	1165.71	1179.8576	1186.1899	1199.6598	1224.9855	1237.3142	1261.727	1308.8727	1342.6291	1361.8047	1397.7021	1488.8644	2355.7715	3053.2859	3058.2735	3103.2219	3105.7019	3122.9292	3129.081	3519.0841
N#CC1C2NC3CN1C23	N#C[C@H]1[C@H]2N[C@H]3CN1[C@@H]23	
InChI=1S/C6H7N3/c7-1-4-5-6-3(8-5)2-9(4)6/h3-6,8H,2H2	InChI=1S/C6H7N3/c7-1-4-5-6-3(8-5)2-9(4)6/h3-6,8H,2H2/t3-,4-,5+,6+/m0/s1
