20
gdb 59171	2.47564	1.31524	1.15785	1.4928	74.77	-0.2349	0.0547	0.2896	1174.3069	0.170109	-440.225604	-440.216321	-440.215376	-440.259667	35.112	
C	 0.9876125686	 0.6653100476	 1.0007486177	-0.407061
C	-0.0762038512	 0.0994537047	 0.0586010515	 0.100988
O	-1.0323176821	 1.0914330569	-0.3167112988	-0.433596
C	 0.5756712603	-0.5154948445	-1.1712976723	-0.020253
C	 0.7979263636	-1.9562362026	-1.434276479	-0.067915
C	-0.3320897897	-2.8449688271	-0.9439498339	 0.095616
O	-0.403050972	-2.9966490319	 0.4593948004	-0.423511
C	-1.3074721816	-1.896734648	-1.7001633108	-0.214301
N	-0.1576054492	-1.1239009565	-2.2957536726	-0.157363
H	 1.6561629803	-0.1269853632	 1.3526216296	 0.12582
H	 1.597069391	 1.4251302598	 0.4957714897	 0.103425
H	 0.510146365	 1.1314151534	 1.8663876838	 0.123239
H	-0.6495974929	-0.654446625	 0.5980563588	 0.111422
H	-0.6019277016	 1.7081009877	-0.9194494761	 0.27977
H	 1.3765723693	 0.1101165222	-1.5709365554	 0.086651
H	 1.7425795486	-2.3261274155	-1.8207585417	 0.092119
H	-0.2897240821	-3.8250467856	-1.4354157286	 0.085112
H	-1.1078879591	-3.6204503708	 0.6617261141	 0.286606
H	-1.8702020486	-2.3893499522	-2.4956153547	 0.10361
H	-1.9837654064	-1.2887276992	-1.0959607517	 0.129622
50.5232	137.926	160.993	234.2343	256.7006	268.8841	284.4892	333.4444	351.9699	442.9206	475.8773	540.255	595.4201	740.419	767.5598	786.2039	871.0086	896.4136	922.0981	975.2687	1006.5354	1017.9661	1060.2851	1068.2949	1096.6709	1107.2435	1137.0079	1165.0986	1187.8457	1209.0375	1254.1034	1277.9379	1288.5417	1316.1155	1351.3996	1372.3049	1399.5695	1422.5201	1439.929	1453.5099	1490.6063	1496.3087	1508.9418	3021.6515	3025.8182	3071.9097	3084.2136	3091.9162	3120.9609	3127.0759	3133.0775	3158.609	3799.2855	3814.4478
CC(O)C1C2C(O)CN12	C[C@@H](O)[C@H]1[C@H]2[C@@H](O)CN12	
InChI=1S/C6H11NO2/c1-3(8)5-6-4(9)2-7(5)6/h3-6,8-9H,2H2,1H3	InChI=1S/C6H11NO2/c1-3(8)5-6-4(9)2-7(5)6/h3-6,8-9H,2H2,1H3/t3-,4+,5+,6-,7?/m1/s1
