20
gdb 85900	2.69859	1.37749	1.22153	1.7498	73.61	-0.2385	0.073	0.3115	1114.4932	0.17097	-440.271078	-440.262272	-440.261328	-440.304051	34.825	
C	 0.0307570454	 1.5223423559	-0.0830982169	-0.448689
C	 0.0117062011	-0.0032705436	-0.0274061994	 0.399194
O	-1.3232822603	-0.4925246308	 0.1515237246	-0.48294
C	 0.688987512	-0.6843182792	-1.2409076544	-0.30642
C	 1.2225707106	-2.053278444	-0.7384617261	 0.156519
O	 2.3728878309	-2.506326212	-1.4273934799	-0.444438
C	 1.4507064954	-1.8263717834	 0.7469544707	-0.076953
N	 2.2369712396	-0.5841988708	 0.9694551862	-0.366294
C	 0.7708243394	-0.5844771961	 1.1602891819	-0.052295
H	 1.0596972586	 1.8928286679	-0.0832796726	 0.132847
H	-0.4615472221	 1.888974863	-0.9920219999	 0.104743
H	-0.4954060445	 1.939781906	 0.7809956357	 0.117421
H	-1.8610539043	-0.1406404901	-0.5656045499	 0.276408
H	-0.0077463301	-0.7910519647	-2.0768217324	 0.090301
H	 1.5358506273	-0.0860972067	-1.587858633	 0.106378
H	 0.4687355849	-2.8347620364	-0.8742851212	 0.096287
H	 3.078051912	-1.8865811247	-1.2028873361	 0.283756
H	 1.5941555785	-2.668933811	 1.4145585309	 0.088535
H	 2.68614207	-0.6332728861	 1.8801424074	 0.23536
H	 0.3568329356	-0.4468095533	 2.1537690544	 0.090281
82.7859	156.2133	235.1521	253.2049	265.1417	329.8478	346.8369	358.2764	424.3554	454.4413	498.7649	541.355	611.7808	648.1573	793.8481	830.7223	860.0502	898.7307	926.3072	935.8807	947.0668	954.0704	1022.2162	1067.3996	1084.419	1101.6469	1119.2323	1129.1609	1157.4357	1202.9712	1234.7005	1259.6708	1275.4283	1311.5994	1336.0237	1345.3256	1396.0468	1402.111	1431.4232	1434.5276	1470.7538	1491.874	1498.9123	3026.5805	3061.1139	3068.9403	3094.0194	3108.7641	3120.1551	3166.1241	3177.7449	3508.2785	3780.0348	3809.683
CC1(O)CC(O)C2NC12	C[C@@]1(O)C[C@@H](O)[C@H]2N[C@@H]12	
InChI=1S/C6H11NO2/c1-6(9)2-3(8)4-5(6)7-4/h3-5,7-9H,2H2,1H3	InChI=1S/C6H11NO2/c1-6(9)2-3(8)4-5(6)7-4/h3-5,7-9H,2H2,1H3/t3-,4-,5-,6-/m1/s1
