21
gdb 75366	2.58531	1.71036	1.35135	1.397	82.81	-0.229	0.0271	0.256	1055.0623	0.185457	-387.121128	-387.113379	-387.112434	-387.153083	31.236	
C	-0.0618059021	 1.5030415091	 0.0360361748	-0.491524
C	 0.0081622395	 0.0067614442	-0.0546410105	 0.33064
C	 0.0293063264	-0.6778219145	-1.2002342964	-0.159485
C	 0.0736159884	-2.1866155514	-1.2292481225	-0.261918
C	-0.1025580178	-2.746506608	 0.1916327719	 0.087952
C	-1.5347143623	-2.5277370587	 0.7572429002	-0.230302
C	-1.3864238519	-1.2539572867	 1.6337669211	-0.214922
C	 0.0333489171	-0.779196031	 1.2481171423	-0.010826
O	 0.7430191122	-2.0043971764	 1.0753073564	-0.25736
H	 0.8181732931	 1.9106460725	 0.5506208104	 0.125715
H	-0.1216997953	 1.9634760077	-0.9539573958	 0.121513
H	-0.936735803	 1.8300894391	 0.6135764206	 0.122457
H	 0.0288650592	-0.1534242802	-2.1536459535	 0.077029
H	-0.7097839545	-2.5843979072	-1.8884138958	 0.099094
H	 1.029014017	-2.5274902199	-1.6521787929	 0.107572
H	 0.2136517868	-3.791349137	 0.2411009603	 0.073136
H	-2.2679884817	-2.3969108671	-0.0423192351	 0.103049
H	-1.8516922416	-3.383852634	 1.3569631964	 0.104419
H	-2.156097338	-0.5050048663	 1.4312870616	 0.100271
H	-1.4227591015	-1.5003175066	 2.698549671	 0.100961
H	 0.5357601501	-0.2167120574	 2.0403752457	 0.072528
109.7692	175.142	200.2295	274.2441	321.7422	358.5779	455.9017	465.9331	565.492	638.1009	705.174	776.4937	804.6928	825.9215	830.8054	897.3531	918.5365	929.151	961.422	986.3229	1014.324	1039.9502	1059.4164	1061.1962	1076.346	1088.6663	1162.6774	1178.6057	1204.9006	1236.0327	1255.9975	1290.1619	1304.4673	1315.1392	1345.5213	1360.6087	1381.3105	1393.7458	1413.4586	1472.705	1477.7497	1484.2147	1490.4551	1506.1555	1736.2942	3006.4151	3011.2398	3035.3627	3054.6887	3056.4907	3066.9631	3073.1259	3081.2037	3099.5	3107.9788	3118.3166	3143.9945
CC1=CCC2CCC1O2	CC1=CC[C@@H]2CC[C@H]1O2	
InChI=1S/C8H12O/c1-6-2-3-7-4-5-8(6)9-7/h2,7-8H,3-5H2,1H3	InChI=1S/C8H12O/c1-6-2-3-7-4-5-8(6)9-7/h2,7-8H,3-5H2,1H3/t7-,8-/m1/s1
