21
gdb 104351	2.46739	1.43784	1.16631	3.5963	77.71	-0.2449	-0.0275	0.2174	1154.0091	0.182476	-424.267172	-424.258021	-424.257077	-424.300786	35.076	
C	 0.0466040617	 1.5223466702	 0.0228761395	-0.421286
C	-0.0492567363	-0.0168416132	-0.0409750368	 0.142315
C	-1.5271062642	-0.4613517623	-0.005048772	-0.091941
O	-2.2286135293	 0.0412190998	 1.1088900831	-0.42773
C	 0.7344449955	-0.5957310405	-1.237316291	-0.261971
C	 2.1906357229	-0.7421824729	-0.7381627033	-0.225439
C	 2.0407006749	-1.1707790693	 0.7302998901	-0.313822
C	 0.6948581115	-0.5992625022	 1.1720981555	 0.40415
O	 0.2581917165	-0.625249926	 2.3021064963	-0.352914
H	 1.0835694835	 1.8697893861	 0.0678398452	 0.112755
H	-0.4164450199	 1.9558111865	-0.8700394625	 0.119619
H	-0.485070822	 1.8958609469	 0.899759318	 0.144631
H	-2.0395094201	-0.088274587	-0.9003320346	 0.102618
H	-1.5664471232	-1.5638179584	-0.0447780794	 0.079693
H	-1.6986036628	-0.1905626007	 1.8861220675	 0.295452
H	 0.3342739735	-1.5847534081	-1.4963806166	 0.100434
H	 0.655828711	 0.0294595866	-2.1308560298	 0.104302
H	 2.7661011255	-1.4548470861	-1.3333506586	 0.106926
H	 2.70933402	 0.2200911153	-0.8001850567	 0.112229
H	 1.970310768	-2.2625620215	 0.8250035448	 0.137141
H	 2.8436532532	-0.8507216134	 1.3991150913	 0.132839
71.0845	161.0239	177.9654	194.2401	221.8861	265.8786	303.0815	354.3156	403.483	497.019	531.2146	573.4956	620.4945	642.8934	681.3183	822.4319	832.1171	902.8694	921.9325	942.1325	968.7279	1017.0245	1042.435	1059.3393	1074.7048	1102.339	1177.4304	1189.261	1198.2843	1233.8125	1248.9604	1291.4367	1305.9443	1339.1381	1348.7177	1381.7338	1403.0363	1444.9277	1459.2834	1485.16	1488.6778	1500.2	1506.3092	1508.5899	1806.0888	2951.1097	3024.0514	3033.9376	3035.5682	3047.2711	3052.9108	3090.3416	3099.5781	3099.951	3108.3351	3137.9123	3714.3862
CC1(CO)CCCC1=O	C[C@@]1(CO)CCCC1=O	
InChI=1S/C7H12O2/c1-7(5-8)4-2-3-6(7)9/h8H,2-5H2,1H3	InChI=1S/C7H12O2/c1-7(5-8)4-2-3-6(7)9/h8H,2-5H2,1H3/t7-/m0/s1
