20
gdb 107932	2.93698	1.4241	1.177	2.1793	78.66	-0.2455	0.0764	0.3219	1123.6609	0.171309	-403.099419	-403.091075	-403.090131	-403.132044	32.777	
C	-0.2041211559	 1.30828214	-0.2969147816	-0.498964
C	 0.1404459991	-0.1420106319	-0.1545026198	 0.345235
C	 0.6466013991	-1.0869955098	-1.2337807196	-0.330922
C	 0.115016948	-2.1961293873	-0.3030598038	 0.327738
C	-0.5277340687	-3.4470570666	-0.8366602392	-0.173542
O	-1.5940171795	-3.1311330641	-1.7142067426	-0.418887
C	 1.0160348631	-2.1589567727	 0.9494243516	-0.304677
C	 0.3760111963	-0.8014765664	 1.171965378	-0.081006
N	-0.8497616125	-1.1510188802	 0.3661924527	-0.243959
H	 0.7017280732	 1.9180131759	-0.3902410453	 0.122696
H	-0.8210232128	 1.4790976658	-1.1853655562	 0.125365
H	-0.7629309727	 1.6620929491	 0.5751121225	 0.128379
H	 0.0343683457	-1.0148248309	-2.1363226792	 0.117215
H	 1.7100469698	-1.0918601055	-1.4964398291	 0.090896
H	 0.1954319507	-4.0366404918	-1.4128853816	 0.110975
H	-0.8710066715	-4.0703624874	 0.0048106301	 0.090058
H	-2.1639735211	-2.5206720434	-1.2293235419	 0.294157
H	 0.6860338287	-2.8787951314	 1.7040497779	 0.109356
H	 2.0999936428	-2.2304477306	 0.8135909613	 0.097772
H	 0.2895844381	-0.2518201706	 2.1033352058	 0.092115
99.8521	145.4742	192.4366	247.2689	275.0569	318.6683	393.6299	452.9732	464.5734	487.5906	587.5003	658.8227	744.3777	764.9717	821.7783	830.3171	896.7277	941.6409	987.3584	1002.5508	1010.1972	1025.605	1035.7833	1055.6812	1103.6675	1117.5192	1144.7416	1176.4454	1200.7167	1220.9687	1256.0505	1263.3193	1307.2789	1344.5812	1383.2034	1399.8176	1426.3487	1435.8896	1483.4514	1487.7757	1493.3475	1496.4463	1510.7415	2974.8402	3029.5802	3038.2172	3044.0044	3058.546	3094.3747	3099.1217	3106.5769	3109.8183	3171.7611	3775.8456
CC12CC3(CO)CC1N23	C[C@@]12C[C@@]3(CO)C[C@@H]1N23	
InChI=1S/C7H11NO/c1-6-3-7(4-9)2-5(6)8(6)7/h5,9H,2-4H2,1H3	InChI=1S/C7H11NO/c1-6-3-7(4-9)2-5(6)8(6)7/h5,9H,2-4H2,1H3/t5-,6+,7+,8?/m0/s1
