13
gdb 25422	6.91056	0.86207	0.76646	1.7138	77.71	-0.2525	-0.0545	0.198	1347.5426	0.091026	-415.676262	-415.668764	-415.66782	-415.70865	27.017	
O	-0.0285052419	-0.0589105558	-0.0029573698	-0.276434
C	-0.0028274873	 1.1518973511	 0.0073459915	 0.076377
C	 1.2220886992	 1.9516839844	 0.0004300403	 0.18978
C	 2.5155821415	 1.4396664122	-0.0185966638	-0.124896
N	 3.3782453852	 2.4782698982	-0.0192680994	-0.312188
C	 2.677345949	 3.6764941206	-0.0012786346	 0.252725
C	 1.3317860555	 3.3675100023	 0.0115259576	-0.357058
C	 3.3430814736	 4.9210160644	 0.0017986364	 0.214363
N	 3.904697966	 5.9349455237	 0.0041371771	-0.337217
H	-0.9418127262	 1.7476804745	 0.0229941008	 0.074592
H	 2.8483214974	 0.4146794271	-0.0311996341	 0.170974
H	 4.3831827796	 2.4095236414	-0.0311430167	 0.289383
H	 0.5244949985	 4.083094936	 0.0268992249	 0.1396
90.5561	129.3421	191.3026	220.6699	279.5892	425.9442	505.1916	567.8173	569.9734	630.1604	646.8932	679.9523	768.6204	831.5686	859.3453	983.4918	1003.8571	1042.0565	1140.6708	1160.749	1255.3377	1351.1903	1383.6137	1439.844	1463.4387	1513.203	1597.1019	1790.7183	2339.7987	2891.0602	3263.0559	3279.6611	3660.2258
O=CC1=CNC(=C1)C#N	O=Cc1c[nH]c(c1)C#N	
InChI=1S/C6H4N2O/c7-2-6-1-5(4-9)3-8-6/h1,3-4,8H	InChI=1S/C6H4N2O/c7-2-6-1-5(4-9)3-8-6/h1,3-4,8H
