16
gdb 34824	5.13505	1.08721	1.01267	3.2627	74.24	-0.277	0.0215	0.2984	1148.543	0.124941	-400.681307	-400.674088	-400.673144	-400.712942	28.132	
N	-0.0536246458	-1.1964589252	-0.0753119434	-0.332069
C	-0.0273492467	-0.0412984949	-0.0286682911	 0.274638
C	-0.0184872444	 1.4108729296	 0.006996397	-0.152099
C	 0.038566662	 2.1217832586	 1.4075861217	-0.147727
C	 1.5290223821	 1.6575759553	 1.5105989794	-0.254359
C	 1.3697240945	 2.1474009714	 0.0333534185	-0.147738
C	 0.5829384761	 3.3283025885	 0.6253138903	 0.539473
C	 0.0608118886	 4.596831526	 0.1432106755	-0.322866
O	 1.1047281052	 4.5095212044	 1.1527739089	-0.298745
H	-0.7532424242	 1.8095724857	-0.6972934737	 0.118376
H	-0.7332392991	 2.0959177295	 2.1746412711	 0.102486
H	 2.1757763463	 2.2601408033	 2.1483130394	 0.127484
H	 1.6931713756	 0.5882688737	 1.6496676558	 0.132814
H	 2.1120304874	 2.150672746	-0.7626978793	 0.102483
H	 0.3862464174	 4.9976701409	-0.8150076088	 0.128925
H	-0.8938017051	 4.9730219472	 0.5064684286	 0.128925
128.6656	143.347	231.8192	287.6121	364.1952	418.5051	485.9895	555.701	595.1312	662.4327	743.1829	810.9276	878.7379	888.7847	888.9469	904.623	989.5476	1015.8471	1045.749	1050.9405	1092.506	1109.0479	1117.9206	1118.3996	1158.8216	1161.4234	1182.2957	1209.7952	1231.8153	1233.7223	1362.9315	1460.7708	1514.43	1563.81	2353.5104	3082.3513	3086.4536	3091.8615	3139.074	3141.4328	3159.4693	3180.0512
N#CC1C2CC1C21CO1	N#C[C@H]1[C@H]2C[C@@H]1[C@]12CO1	
InChI=1S/C7H7NO/c8-2-4-5-1-6(4)7(5)3-9-7/h4-6H,1,3H2	InChI=1S/C7H7NO/c8-2-4-5-1-6(4)7(5)3-9-7/h4-6H,1,3H2/t4-,5+,6-,7+
