20
gdb 40199	2.97914	1.55744	1.25908	1.2908	78.23	-0.2401	0.0685	0.3086	1056.1605	0.173592	-403.116803	-403.10928	-403.108336	-403.148825	29.978	
C	 0.0248361486	 1.452364038	-0.026828598	-0.30255
N	 1.2103882997	 0.5920593261	 0.1613393049	-0.365733
C	-0.1266235076	-0.0160615786	 0.0046259562	 0.363953
C	-0.6588031925	-0.8258383568	 1.1778893535	-0.287984
C	-0.3789572476	-2.28578888	 0.7525516972	-0.230744
C	-0.5785690365	-2.3014878668	-0.7737647476	-0.074471
C	-2.0295593985	-2.1643912564	-1.2783573663	-0.07986
O	-1.8394044412	-0.7697671032	-1.6042679866	-0.294772
C	-0.4398742824	-0.8223039301	-1.2367901602	 0.044633
H	-0.2526327618	 2.0410155286	 0.8434095984	 0.118393
H	-0.108577551	 1.9628156479	-0.9774612968	 0.116025
H	 1.7292043654	 0.5324717025	-0.7132222515	 0.225861
H	-0.1736796483	-0.5495658705	 2.1160372919	 0.110532
H	-1.7357725669	-0.6537963176	 1.2853854422	 0.11118
H	 0.6613086677	-2.5394602234	 0.9836401018	 0.110341
H	-1.015201315	-3.0135221015	 1.2659063421	 0.097505
H	 0.0224696	-3.0541456864	-1.2845479769	 0.077025
H	-2.2737561971	-2.7575103852	-2.1685296577	 0.09937
H	-2.8176561842	-2.3090872844	-0.5281097441	 0.099852
H	 0.2076063089	-0.5811271023	-2.0896472126	 0.061443
90.8865	150.7979	215.2148	287.0365	349.9694	356.1697	450.3146	548.3668	596.454	747.7668	795.4027	843.7369	863.0031	872.779	900.1883	919.8012	944.6958	947.8774	970.9635	982.2791	1011.1518	1024.5321	1073.9004	1082.6949	1112.3569	1134.9529	1157.7451	1174.9712	1189.2382	1234.8731	1257.186	1268.5973	1295.2629	1302.2419	1321.1384	1337.2652	1344.3214	1367.2268	1422.3755	1476.2344	1490.7008	1513.5408	1525.4571	3007.1748	3020.2292	3043.7243	3045.6907	3049.8584	3087.6206	3105.2886	3106.6063	3116.5878	3188.9718	3474.4492
C1NC11CCC2COC12	C1N[C@]21CC[C@H]1CO[C@@H]21	
InChI=1S/C7H11NO/c1-2-7(4-8-7)6-5(1)3-9-6/h5-6,8H,1-4H2	InChI=1S/C7H11NO/c1-2-7(4-8-7)6-5(1)3-9-6/h5-6,8H,1-4H2/t5-,6+,7-/m0/s1
