16
gdb 85219	2.52992	1.27547	0.92698	2.8728	67.55	-0.2671	-0.0156	0.2515	1238.2663	0.122803	-475.039736	-475.030797	-475.029853	-475.07455	30.886	
C	-0.2506321469	 1.536260135	 0.0056871925	-0.396646
C	 0.0749110979	 0.0625827942	-0.0415185319	 0.097271
O	 1.3913897113	-0.1996640146	-0.6676733615	-0.248418
C	 1.9143692491	-0.7008402044	 0.4881775158	 0.438257
O	 3.028369165	-1.0490634022	 0.7143035226	-0.321802
C	 0.5786461928	-0.609643801	 1.2539447583	-0.087932
O	 0.5370257588	 0.2102251416	 2.3955605585	-0.192887
C	 1.2426074505	-0.2242204575	 3.4753668311	 0.124087
N	 1.1829872795	 0.4352126218	 4.545559313	-0.430804
H	 0.5156535212	 2.091638137	 0.5498728616	 0.14851
H	-0.3277829659	 1.9325999995	-1.0102171137	 0.137617
H	-1.2076592561	 1.6877483174	 0.5134905865	 0.141672
H	-0.6851188014	-0.5137174258	-0.5738353158	 0.109398
H	 0.1366659553	-1.5936973696	 1.448632038	 0.123628
H	 1.8214209182	-1.1343852708	 3.2840388695	 0.119899
H	 1.7653514906	-0.0013637807	 5.2572190157	 0.238151
62.5254	83.8462	101.0361	129.6967	201.2816	233.8221	311.7122	384.364	464.4301	500.2263	616.3832	722.3096	770.9758	825.5734	852.4034	896.565	919.5464	1013.412	1041.5825	1049.0165	1066.9832	1141.0363	1166.0645	1197.4411	1234.045	1281.508	1321.8223	1374.1364	1384.1181	1418.2017	1428.655	1484.166	1488.7318	1750.0143	1934.8152	3043.0738	3053.836	3070.0332	3091.7476	3126.2859	3145.1028	3521.83
CC1OC(=O)C1OC=N	C[C@H]1OC(=O)[C@H]1O[CH][NH]	
InChI=1S/C5H7NO3/c1-3-4(8-2-6)5(7)9-3/h2-4,6H,1H3	InChI=1S/C5H7NO3/c1-3-4(8-2-6)5(7)9-3/h2-4,6H,1H3/t3-,4+/m1/s1
