18
gdb 67660	3.02014	1.95497	1.70308	0.6406	73.85	-0.2036	0.0732	0.2768	878.3957	0.149516	-401.882292	-401.875705	-401.874761	-401.912835	27.595	
C	-0.0527378638	 1.529633722	-0.0019393496	-0.498486
C	-0.028004261	 0.0332225641	-0.0044310732	 0.301747
C	-0.189711183	-0.8375742517	-1.2418708149	 0.049775
O	 0.6483506052	-1.9508905145	-1.4359173304	-0.257374
C	 0.9188257014	-2.4544223463	-0.1364637643	 0.061208
C	 1.8571023929	-1.4822122041	 0.6038677911	-0.19288
N	 0.6644053669	-0.7055028253	 1.0958351537	-0.183161
C	-0.2389902258	-1.8838940547	 0.7858206373	-0.028883
C	-1.1398212225	-1.0264750462	-0.0968058343	-0.197565
H	 0.953851267	 1.932828141	-0.1658060256	 0.125304
H	-0.7002909056	 1.9141158183	-0.7965614413	 0.117831
H	-0.4156441935	 1.9100204276	 0.9579666926	 0.130537
H	-0.5018824425	-0.3763490226	-2.1709370985	 0.106631
H	 1.1487291563	-3.5195371642	-0.2068015324	 0.077818
H	 2.376201319	-1.9261247547	 1.45910519	 0.104752
H	 2.5661416065	-0.9308560051	-0.0194391631	 0.10948
H	-0.6182330969	-2.4707590545	 1.6207429594	 0.077955
H	-2.2191275007	-0.965309909	-0.1207181864	 0.095312
193.4255	211.1647	274.2666	345.5117	428.4373	545.611	616.4178	640.6931	702.6748	718.0036	793.9788	831.1479	855.3254	874.3665	895.8227	926.027	940.8804	955.6743	980.2181	1012.8867	1032.0735	1044.8206	1070.7222	1105.3617	1126.3336	1160.7323	1185.8248	1209.9968	1223.1609	1249.7017	1262.4836	1276.6653	1292.0551	1342.2978	1408.6678	1438.8827	1475.8065	1482.9216	1495.9869	3026.4959	3046.3662	3090.3894	3090.5403	3107.8949	3109.2224	3127.8061	3195.4225	3208.8229
CC12C3OC4CN1C4C23	C[C@@]12[C@H]3O[C@H]4CN1[C@H]4[C@@H]23	
InChI=1S/C7H9NO/c1-7-4-5-3(2-8(5)7)9-6(4)7/h3-6H,2H2,1H3	InChI=1S/C7H9NO/c1-7-4-5-3(2-8(5)7)9-6(4)7/h3-6H,2H2,1H3/t3-,4+,5+,6-,7+/m0/s1
