18
gdb 18648	2.71177	2.27706	1.7892	3.024	66.03	-0.246	0.0592	0.3051	825.3907	0.155581	-384.932185	-384.924791	-384.923847	-384.96349	29.088	
O	-0.1978056496	 1.4369823929	-0.211263505	-0.424601
C	-0.1026682846	 0.0452188595	-0.0270752182	 0.079816
C	-0.459235688	-0.6342864897	 1.2729037489	-0.098653
C	-1.1788296581	 0.1606869719	 2.358621257	-0.228985
C	-2.3728217403	 0.8493659088	 1.6638792402	-0.238475
C	-2.650421211	 0.0581099006	 0.3537956336	 0.150952
O	-3.0751143275	 0.8745179368	-0.723065342	-0.447766
C	-1.3764707863	-0.7375331149	 0.0635345604	-0.113113
H	 0.5085599722	 1.8634177524	 0.2846548563	 0.292879
H	 0.7038802652	-0.4139604277	-0.5980307028	 0.090565
H	 0.1663608024	-1.4662096955	 1.5807329326	 0.082127
H	-1.5251685346	-0.5402058903	 3.1260956125	 0.104518
H	-0.5233718277	 0.8781461659	 2.8664448806	 0.090843
H	-3.257824845	 0.8891260973	 2.3042511953	 0.096181
H	-2.1228019908	 1.8760914067	 1.3907488975	 0.103676
H	-3.4711769744	-0.6505403485	 0.5098832515	 0.083018
H	-2.3361818917	 1.4651840963	-0.9151874456	 0.28994
H	-1.4686752502	-1.6422627026	-0.5266761628	 0.087078
122.5147	169.5645	222.9158	256.2787	343.0705	431.8322	486.4031	494.978	558.2771	679.0442	713.3489	765.945	782.7929	822.2825	861.0357	960.1427	964.42	1020.2349	1029.905	1046.6019	1075.0951	1096.4585	1104.0252	1129.9425	1181.5059	1223.3762	1235.2219	1278.8909	1279.7399	1316.2001	1329.4942	1335.9885	1350.2824	1374.7207	1448.5895	1454.884	1483.9088	1505.3445	3030.9025	3046.662	3062.9755	3070.5102	3102.3224	3119.5976	3155.6813	3174.4232	3783.7224	3809.951
OC1C2CCC(O)C12	O[C@H]1[C@H]2CC[C@@H](O)[C@@H]12	
InChI=1S/C6H10O2/c7-4-2-1-3-5(4)6(3)8/h3-8H,1-2H2	InChI=1S/C6H10O2/c7-4-2-1-3-5(4)6(3)8/h3-8H,1-2H2/t3-,4+,5-,6-/m0/s1
