12
gdb 18826	4.55883	2.3632	1.9673	4.6578	52.62	-0.2551	-0.0159	0.2393	661.8263	0.085269	-418.451233	-418.44601	-418.445066	-418.480516	20.718	
O	 0.0016182273	 0.02194264	 0.1943395332	-0.33474
C	 0.0214413671	 1.1977584134	 0.0001265428	 0.48314
O	-1.110358355	 1.9759851151	-0.0713544525	-0.221869
C	-0.7326795769	 3.287990453	-0.4364113834	 0.061494
C	 0.3627310525	 3.9566070497	 0.3806547138	 0.06679
O	 1.0754619548	 2.9692901195	 1.1143091521	-0.283102
C	 1.1986361804	 2.1714813198	-0.113416281	-0.080497
C	 0.6718835944	 3.3384021289	-0.9673318053	-0.190133
H	-1.5392173685	 3.8618591682	-0.8714015302	 0.13147
H	 0.3437352328	 4.9697039179	 0.7633563739	 0.126195
H	 2.184262643	 1.7335401273	-0.2429384687	 0.118666
H	 1.0198353882	 3.7124493673	-1.9195883048	 0.122586
172.0477	368.0665	447.2217	547.9719	641.0349	732.5385	747.2762	786.114	814.3018	831.8139	854.4104	896.6096	935.2589	1010.7629	1028.3428	1044.9255	1069.3782	1091.0397	1129.0573	1136.4858	1218.3471	1240.7272	1256.3081	1320.776	1399.6078	1901.9991	3170.085	3196.1592	3214.6186	3225.4774
O=C1OC2C3OC1C23	O=C1O[C@H]2[C@H]3O[C@@H]1[C@@H]23	
InChI=1S/C5H4O3/c6-5-4-1-2(7-4)3(1)8-5/h1-4H	InChI=1S/C5H4O3/c6-5-4-1-2(7-4)3(1)8-5/h1-4H/t1-,2+,3-,4-/m1/s1
