17
gdb 46945	2.78548	1.85537	1.39421	3.0814	71.27	-0.2301	-0.0205	0.2096	937.3773	0.138018	-421.813968	-421.807215	-421.80627	-421.845126	27.31	
O	 0.0131931152	 0.0033408544	 0.1601883699	-0.321779
C	-0.0281485128	 1.2026422369	-0.0052918377	 0.361808
C	-1.3795141229	 1.8943695746	-0.2139819611	-0.187294
O	-1.3405905367	 3.2009514732	-0.7658070501	-0.260672
C	-0.2592734866	 3.9871024824	-0.3246780096	 0.100771
C	 0.1013409062	 3.9639718602	 1.2069461982	-0.285136
C	 1.4168458506	 3.2838859896	 0.8398828969	-0.068923
C	 1.14143885	 3.434728585	-0.6419944345	-0.100633
C	 1.1956873048	 2.049863844	-0.0391432632	-0.139195
H	-1.9667436771	 1.27121613	-0.8934302938	 0.141489
H	-1.9022767147	 1.8938791686	 0.7565909625	 0.123602
H	-0.4415487225	 4.9904743483	-0.7104805643	 0.097721
H	 0.2529435938	 4.9777064346	 1.5847511636	 0.114778
H	-0.5774212705	 3.4402213613	 1.8852716303	 0.109581
H	 2.3581867722	 3.3823824264	 1.3657544299	 0.103424
H	 1.7911070576	 3.7325062702	-1.4551481668	 0.098804
H	 2.1028470334	 1.4800561204	-0.2116533603	 0.111655
94.2352	216.732	309.2089	378.897	433.6241	489.1684	506.1894	574.8431	650.5508	717.0505	790.1865	812.618	832.5502	868.2364	920.2434	966.2615	976.5325	994.0294	1020.7492	1032.2858	1072.1053	1078.76	1089.9035	1135.5658	1179.7393	1217.6012	1251.6007	1256.8554	1266.5754	1298.9893	1324.5785	1353.2846	1389.4037	1398.6273	1466.1642	1495.3116	1799.3935	2977.1818	3063.1454	3098.9913	3105.2785	3116.7846	3172.5819	3188.8685	3201.5762
O=C1COC2CC3C2C13	O=C1CO[C@H]2C[C@@H]3[C@H]2[C@H]13	
InChI=1S/C7H8O2/c8-4-2-9-5-1-3-6(4)7(3)5/h3,5-7H,1-2H2	InChI=1S/C7H8O2/c8-4-2-9-5-1-3-6(4)7(3)5/h3,5-7H,1-2H2/t3-,5-,6-,7+/m0/s1
