22
gdb 64274	2.81209	1.44725	1.30522	0.4985	81.24	-0.2176	0.0819	0.2995	1108.756	0.194805	-404.326489	-404.317844	-404.316899	-404.359191	34.596	
C	 0.0151166862	 1.5202581613	 0.0397249658	-0.417539
C	-0.0411981181	-0.0049519146	-0.0227289586	 0.358734
C	-1.49575662	-0.4878257615	 0.1088262649	-0.432558
C	 0.5985249939	-0.5078955423	-1.3341089213	-0.178111
N	 1.0543492715	-1.9099075792	-1.3130319334	-0.105443
C	 2.3897764841	-2.1507335577	-0.7626673952	-0.241718
C	 1.188009549	-2.5809628267	-0.0094616274	-0.011641
C	 0.7852407686	-1.8501941365	 1.2569057044	-0.119279
O	 0.7641134857	-0.4471623769	 1.0840962801	-0.285857
H	 1.0548765251	 1.8554703157	 0.0821997845	 0.121692
H	-0.4598934405	 1.9621628016	-0.8417885945	 0.113948
H	-0.5003523466	 1.8878401286	 0.9319113907	 0.118347
H	-2.1236698673	 0.0316434917	-0.621201168	 0.117204
H	-1.600434655	-1.5601493017	-0.0772517253	 0.126458
H	-1.8798559766	-0.2673875843	 1.1094933186	 0.12048
H	-0.1307206217	-0.4061390782	-2.1470170798	 0.100269
H	 1.4490765947	 0.1350381154	-1.5862912861	 0.097696
H	 2.997698011	-2.8735758507	-1.3010891487	 0.108541
H	 2.9327044909	-1.2930887168	-0.368532229	 0.114528
H	 0.9047042438	-3.6328143257	-0.0265795681	 0.087484
H	-0.192976369	-2.2183586112	 1.60009837	 0.094514
H	 1.5042262805	-2.0466548202	 2.0599084564	 0.112252
78.5171	205.6358	218.9715	267.5326	284.7437	312.7436	350.7595	392.3681	416.571	448.6174	491.7082	534.4148	685.4802	748.362	797.149	799.9447	878.8368	907.1558	939.1041	948.5242	965.4435	987.3123	1028.4862	1059.9415	1073.231	1119.9942	1131.9656	1150.5347	1160.1967	1194.1601	1231.4798	1246.2495	1283.6036	1305.9395	1318.9633	1369.0765	1394.436	1400.1824	1413.2143	1426.0067	1476.9554	1487.2682	1493.5509	1497.4276	1503.6404	1510.4709	1520.2759	2992.4512	3020.79	3037.9675	3043.5288	3059.8051	3061.086	3089.8707	3107.7214	3109.6711	3114.7284	3118.2517	3120.3461	3176.3644
CC1(C)CN2CC2CO1	CC1(C)CN2C[C@H]2CO1	
InChI=1S/C7H13NO/c1-7(2)5-8-3-6(8)4-9-7/h6H,3-5H2,1-2H3	InChI=1S/C7H13NO/c1-7(2)5-8-3-6(8)4-9-7/h6H,3-5H2,1-2H3/t6-,8?/m0/s1
