21
gdb 122307	3.9891	0.80605	0.74169	1.6402	80.18	-0.2484	0.0816	0.3301	1619.1765	0.180677	-424.18267	-424.173147	-424.172203	-424.218141	34.467	
C	-0.7984309835	 1.1542689136	-0.3220272243	-0.386079
C	 0.2011212498	 0.0440026764	-0.0476740675	-0.018986
O	 0.4396179688	-0.6556453792	-1.2533887957	-0.250087
C	 1.367010989	-1.7094177887	-1.10970206	-0.190214
C	 1.6060210465	-2.3146128018	-2.4551730809	 0.424446
C	 1.9522492282	-1.611924988	-3.7779750089	-0.289022
C	 1.2685923593	-2.8073723816	-4.5329510816	-0.236357
C	 0.9644707653	-3.4349021802	-3.1662494608	-0.034435
O	 2.2207440138	-3.608007113	-2.4912021884	-0.298941
H	-0.4071907154	 1.8452956041	-1.0740997664	 0.126695
H	-1.7397840239	 0.7400212925	-0.6939785464	 0.127213
H	-1.0038144329	 1.7167336529	 0.5935870388	 0.116049
H	 1.1459557516	 0.459257629	 0.3424380477	 0.087533
H	-0.1866667275	-0.6460631882	 0.7206933963	 0.087455
H	 2.3181642484	-1.3330224951	-0.6926824548	 0.093299
H	 0.9960531459	-2.4869038345	-0.4224984921	 0.099607
H	 1.4129607028	-0.6718584399	-3.904590994	 0.120769
H	 3.0193768422	-1.4578967747	-3.9550643151	 0.103136
H	 0.3710710355	-2.5016051408	-5.0752634164	 0.107691
H	 1.904948963	-3.4095330562	-5.1854581928	 0.110202
H	 0.1547058832	-4.0932287766	-2.8719434969	 0.100027
49.6122	73.1313	90.7883	133.0215	225.9073	245.1006	278.2922	319.4251	378.8938	481.7076	507.6707	683.0441	748.619	774.8492	820.592	867.2809	896.6215	909.3791	923.7307	956.1814	992.5557	1031.2013	1048.7416	1077.5011	1140.0713	1149.5928	1162.6319	1180.5781	1200.7058	1211.6542	1215.4629	1248.4155	1272.9855	1296.6188	1300.0031	1372.7773	1403.0894	1433.4562	1464.1688	1473.1752	1483.473	1498.6271	1499.3724	1508.221	1534.081	2945.1716	2958.0617	2979.7705	2990.9707	3045.3833	3066.7447	3074.1755	3120.0836	3120.7438	3121.8722	3139.7081	3182.3993
CCOCC12CCC1O2	CCOC[C@]12CC[C@H]1O2	
InChI=1S/C7H12O2/c1-2-8-5-7-4-3-6(7)9-7/h6H,2-5H2,1H3	InChI=1S/C7H12O2/c1-2-8-5-7-4-3-6(7)9-7/h6H,2-5H2,1H3/t6-,7-/m1/s1
