20
gdb 94182	2.1163	1.57035	1.38214	9.4561	75.52	-0.1975	0.0168	0.2142	1080.611	0.170782	-440.27075	-440.261412	-440.260468	-440.304955	34.776	
C	 0.0494329112	 1.4610815077	 0.3909466038	-0.361103
N	 0.1316533842	-0.0003749561	 0.1425140428	-0.084329
H	-0.8098557512	-0.3615750523	-0.008857935	 0.27086
C	 0.843619697	-0.9010112878	 1.1340221911	-0.175083
C	 1.3339399312	-1.7881939762	-0.0226510511	-0.261118
C	 1.0435884856	-0.6103454416	-0.9951855462	 0.14864
C	 0.2651626722	-0.8759965506	-2.258912942	-0.464187
C	 2.3582428272	 0.2742994488	-1.2041193228	 0.355649
O	 2.7817045425	 0.8072120705	-0.1532880241	-0.488123
O	 2.7807507562	 0.2568927268	-2.359235461	-0.431649
H	 1.073566602	 1.8239547525	 0.4777216715	 0.226995
H	-0.45434547	 1.9289019553	-0.4577194685	 0.153997
H	-0.5308129238	 1.6280077095	 1.3021694432	 0.137823
H	 1.6579976755	-0.3184395727	 1.5580216852	 0.192357
H	 0.1721760035	-1.310324072	 1.890615851	 0.122915
H	 2.3756722487	-2.0991280112	 0.0312063497	 0.154313
H	 0.6945282111	-2.6595393875	-0.1961794311	 0.104934
H	-0.5903976419	-1.5464171185	-2.1005721021	 0.085972
H	-0.0827970794	 0.0591218964	-2.7091466421	 0.134652
H	 0.9510548883	-1.3264363311	-2.9778434224	 0.176485
38.9849	158.316	175.6657	213.0837	237.4583	256.442	272.9446	317.7356	351.5816	416.4784	458.5483	573.2969	607.1098	708.4742	778.5576	793.3973	809.7418	875.3614	918.1603	972.749	987.5825	1060.4926	1073.6741	1087.7753	1123.2063	1194.7202	1215.1984	1229.5168	1246.9001	1284.3942	1314.6618	1340.5978	1346.1771	1402.5599	1417.5637	1436.3134	1458.4731	1471.1324	1478.4839	1483.0516	1500.7454	1523.5017	1794.5998	3010.4447	3050.6323	3057.537	3088.8966	3094.2322	3139.3407	3148.3054	3152.0937	3168.8918	3187.8814	3461.06
C[NH+]1CCC1(C)C([O-])=O	C[NH]1CC[C@]1(C)C(=O)[O]	
InChI=1S/C6H11NO2/c1-6(5(8)9)3-4-7(6)2/h3-4H2,1-2H3,(H,8,9)	InChI=1S/C6H11NO2/c1-6(5(8)9)3-4-7(6)2/h7H,3-4H2,1-2H3/t6-/m1/s1
