23
gdb 123060	6.23622	0.48242	0.46791	2.4494	82.65	-0.2421	0.076	0.3181	2325.085	0.204915	-425.399676	-425.389119	-425.388175	-425.437236	36.641	
O	-0.0806193596	 1.4717229415	 0.0648783074	-0.420998
C	 0.0173291246	 0.0557982158	 0.0953097607	-0.074156
C	-1.389246479	-0.5156432951	-0.0241118148	-0.165206
C	-1.4185061851	-2.0464380541	-0.0018754693	-0.186446
C	-2.8338822987	-2.6235493113	-0.126153009	-0.209168
C	-2.8682320424	-4.1463202648	-0.0947924489	-0.022122
C	-2.634247767	-4.8442156005	 1.2669296341	-0.073989
O	-3.9223482765	-5.4886553249	 1.2138564863	-0.271893
C	-4.2525145972	-4.8310431055	-0.0261345505	-0.090841
H	 0.8059928037	 1.8366502394	 0.1369610885	 0.285178
H	 0.642244907	-0.3185606997	-0.7325906814	 0.082616
H	 0.481228724	-0.2917728093	 1.0334359066	 0.083079
H	-1.9970049114	-0.1141487092	 0.7961178843	 0.106049
H	-1.8371155225	-0.1431751067	-0.9537185649	 0.105068
H	-0.7967070108	-2.4388316761	-0.8187011686	 0.09449
H	-0.9593355381	-2.4082248371	 0.928790371	 0.097993
H	-3.4622801992	-2.2321437128	 0.6859244723	 0.099723
H	-3.2893454912	-2.2709630504	-1.0616948895	 0.097981
H	-2.2358890421	-4.5532184937	-0.8897946795	 0.076251
H	-1.8138097799	-5.5707042234	 1.3134928042	 0.098863
H	-2.5517125476	-4.1626009433	 2.1255295445	 0.093769
H	-5.1021308952	-4.1432811048	 0.0870473176	 0.095408
H	-4.4827973859	-5.5489383538	-0.822906691	 0.098352
40.7665	60.5441	69.139	96.713	136.2438	149.6955	223.3692	265.0099	279.9922	375.6912	435.3256	495.1178	741.5095	760.5274	802.4444	875.0448	892.9645	910.4984	974.5679	996.2855	1010.1745	1023.9873	1041.6948	1062.8569	1072.2848	1103.9542	1125.1365	1156.8868	1165.7438	1191.9313	1217.8675	1231.863	1262.4558	1283.9154	1298.0241	1311.7641	1318.7991	1332.9861	1342.7505	1373.9467	1398.6992	1407.068	1463.6016	1482.2816	1490.4032	1505.5829	1511.7565	1529.0848	1537.0893	2955.7874	2980.6006	2992.6566	3000.331	3005.1957	3010.8189	3026.7108	3030.7769	3038.9383	3044.7446	3048.0185	3069.4648	3077.0412	3830.0444
OCCCCC1COC1	OCCCCC1COC1	
InChI=1S/C7H14O2/c8-4-2-1-3-7-5-9-6-7/h7-8H,1-6H2	InChI=1S/C7H14O2/c8-4-2-1-3-7-5-9-6-7/h7-8H,1-6H2
