19
gdb 119940	2.31924	1.10936	0.90677	3.0064	77.37	-0.2499	0.0132	0.263	1371.1698	0.157439	-419.169622	-419.159613	-419.158669	-419.205464	34.734	
C	 0.6097582108	 0.2592957586	 2.6418327098	-0.230757
O	 0.4095611153	-0.8388963077	 1.7804233545	-0.234703
C	 1.5158769878	-1.0860297289	 0.9442830284	-0.09154
C	 1.1610637531	-2.2902563286	 0.0999153496	-0.01895
C	 0.6387308289	-2.1516797662	-1.3081313213	-0.169229
C	 0.5404728465	-0.8373969434	-1.8931470315	 0.299689
N	 0.4766421442	 0.2087058368	-2.3839126994	-0.34653
N	 1.9530683601	-2.7470004543	-1.0251843617	-0.106054
C	 3.1694413982	-2.0415712467	-1.4216679171	-0.32671
H	 1.4721007689	 0.1011090376	 3.3085856338	 0.105997
H	 0.772969862	 1.1919442326	 2.0807553865	 0.115795
H	-0.292492487	 0.3637029738	 3.2483272942	 0.133134
H	 1.7428297434	-0.2056347902	 0.3259352965	 0.114392
H	 2.415629298	-1.3099330452	 1.5444845713	 0.094981
H	 0.7283757849	-3.0955776737	 0.6912064536	 0.117622
H	-0.11036074	-2.8492831454	-1.6729487311	 0.137089
H	 3.1037833547	-0.9465725473	-1.3907739191	 0.131975
H	 3.9816671022	-2.3663022655	-0.7652804382	 0.133619
H	 3.4194399481	-2.3372406461	-2.444178299	 0.140178
42.6778	83.7357	128.186	151.2641	165.0792	190.8627	231.9939	273.7894	334.391	375.6804	445.1635	508.4566	603.8022	621.1074	718.2991	851.1606	904.4264	970.6391	997.765	1027.4223	1101.793	1131.932	1143.9863	1167.032	1171.4946	1180.2477	1189.7928	1232.6889	1264.9165	1325.6494	1350.163	1381.0596	1448.9721	1460.0711	1481.7984	1486.9034	1491.0317	1502.0647	1505.8181	1526.6571	2346.1717	2949.5912	2975.878	3012.3259	3022.8654	3024.9853	3092.6345	3119.2168	3121.9985	3125.5786	3146.5744
COCC1C(C#N)N1C	COC[C@H]1[C@@H](C#N)N1C	
InChI=1S/C6H10N2O/c1-8-5(3-7)6(8)4-9-2/h5-6H,4H2,1-2H3	InChI=1S/C6H10N2O/c1-8-5(3-7)6(8)4-9-2/h5-6H,4H2,1-2H3/t5-,6+,8?/m1/s1
