17
gdb 23347	3.8752	0.92467	0.8535	1.3026	74.03	-0.2366	0.0172	0.2538	1356.9223	0.135634	-455.003351	-454.994776	-454.993831	-455.036962	31.882	
O	 0.0378605022	 1.4243998236	-0.1201674041	-0.418095
C	 0.0352007838	 0.0285493911	 0.1538798184	-0.119047
C	-1.3735778431	-0.5444445711	 0.0951756101	 0.029743
C	-2.0200738969	-0.8539637443	-1.3017993888	-0.147974
N	-1.0210564233	-2.0144352955	-1.4086888598	-0.326168
C	-1.5726277526	-2.0954537785	 0.0230182019	-0.143446
C	-2.9409063384	-1.8141766964	-0.5629143599	 0.502642
N	-4.1019428884	-2.3001235245	-0.5007775916	-0.32382
O	-4.9728497053	-1.6517126504	-1.4114895801	-0.402659
H	-0.1279872366	 1.5373426293	-1.0611934073	 0.284825
H	 0.7029686977	-0.5232123787	-0.5153998002	 0.120048
H	 0.4184327101	-0.0722915909	 1.1752661423	 0.110764
H	-2.0379843081	-0.0280735257	 0.7915446087	 0.097176
H	-2.230021049	-0.1861692849	-2.1347317725	 0.102055
H	-1.4322621546	-2.7639845852	-1.9722683349	 0.225948
H	-1.2563925095	-2.8644106689	 0.7253921923	 0.100971
H	-5.805387328	-2.105761749	-1.2433819444	 0.307037
80.9385	97.9778	142.5029	237.1886	287.8526	304.2031	332.7345	376.8328	421.0606	522.2581	606.4543	718.3345	743.8742	774.3187	784.9747	859.1989	879.5837	946.788	1008.3501	1061.5099	1066.8808	1094.2644	1095.5277	1120.3164	1134.9493	1167.6858	1188.7021	1206.045	1237.2191	1274.7006	1281.4686	1361.8999	1404.5289	1406.9209	1419.9899	1504.7034	1816.6834	3042.3222	3083.309	3101.1646	3143.5237	3146.5699	3407.4287	3820.5546	3822.206
OCC1C2NC1C2=NO	OC[C@H]1[C@H]2N[C@@H]1C2=NO	
InChI=1S/C5H8N2O2/c8-1-2-3-5(7-9)4(2)6-3/h2-4,6,8-9H,1H2	InChI=1S/C5H8N2O2/c8-1-2-3-5(7-9)4(2)6-3/h2-4,6,8-9H,1H2/t2-,3+,4-
