18
gdb 19619	4.51884	1.968	1.80971	0.3536	75.2	-0.2374	0.0989	0.3362	805.2908	0.155408	-310.597321	-310.591091	-310.590147	-310.627233	26.258	
C	-0.1233239346	 1.4768487938	-0.0423359151	-0.341773
C	 1.2242284948	 0.7690859162	 0.0024008827	-0.353564
C	-0.0468057333	-0.0168463905	-0.006792953	 0.450002
C	-0.4757005192	-1.0158682514	 1.0422564264	-0.155987
C	-1.7187220643	-1.7360868051	 0.4836927712	-0.072909
C	-2.0130915081	-1.136131533	-0.8912768142	-0.227296
C	-0.4685352504	-1.0498366006	-1.0634398547	-0.160353
C	-0.3331664582	-2.1604084203	 0.0640391702	-0.069805
H	-0.4517194034	 2.0017537583	 0.8492111228	 0.10866
H	-0.4100838761	 1.959311193	-0.9720263555	 0.107021
H	 1.8336441659	 0.7831596866	-0.8961904986	 0.107773
H	 1.7960647201	 0.8203169984	 0.9239704442	 0.108617
H	-0.2536861948	-1.0143616368	 2.1021128855	 0.081188
H	-2.398280732	-2.2581585423	 1.1456582629	 0.081973
H	-2.4545706722	-1.8811822969	-1.5593641385	 0.093664
H	-2.5755673068	-0.1975379922	-0.9549609591	 0.089062
H	-0.0066696078	-1.0626190227	-2.0490774657	 0.066497
H	 0.1965336105	-3.0994879944	 0.1254649086	 0.087231
173.3582	242.7524	271.4191	441.3645	486.3175	593.049	737.5361	764.6586	776.8629	784.2452	801.1153	844.5676	887.6106	902.7735	934.8971	955.6542	960.1487	981.0844	1008.0091	1011.56	1023.7656	1047.6524	1053.9516	1070.1331	1074.4073	1140.9708	1154.4304	1165.2059	1183.3811	1210.1906	1237.7315	1272.5864	1284.1292	1348.3247	1416.735	1462.2042	1495.4576	1510.7065	3032.8357	3093.7337	3116.8843	3121.3899	3129.9844	3187.7592	3193.6869	3195.0213	3208.7448	3225.1041
C1CC11C2C3CC1C23	C1CC21[C@H]1[C@H]3C[C@@H]2[C@@H]13	
InChI=1S/C8H10/c1-2-8(1)5-3-4-6(5)7(4)8/h4-7H,1-3H2	InChI=1S/C8H10/c1-2-8(1)5-3-4-6(5)7(4)8/h4-7H,1-3H2/t4-,5+,6-,7-/m0/s1
