21
gdb 72479	2.55949	1.78382	1.48469	2.0725	77.28	-0.2369	0.08	0.3169	1000.2989	0.184977	-424.243572	-424.235906	-424.234962	-424.275089	31.42	
C	-0.0355586775	 1.496453657	 0.0560174209	-0.455305
C	 0.0081854749	-0.019208388	-0.0266189499	 0.368246
C	 0.7700791267	-0.6065514176	-1.2243086645	-0.256373
C	 0.9082018731	-2.047014461	-0.7065527761	-0.067395
C	 1.3281567229	-1.7797747414	 0.7517763002	-0.068256
O	 0.7436825261	-0.5184061523	 1.1015991741	-0.300434
C	-0.4822804938	-2.6995650254	-0.7487589444	-0.079958
O	-1.3824023574	-2.0448747314	 0.1303898318	-0.2507
C	-1.4101812572	-0.6333899338	-0.0060662017	-0.093947
H	 0.9771786006	 1.9064579405	 0.0105888098	 0.121761
H	-0.6185175116	 1.9167187488	-0.7696490946	 0.114549
H	-0.4911706397	 1.8167271436	 0.9978498371	 0.12683
H	 0.2215055186	-0.5360325887	-2.1678131015	 0.09554
H	 1.7403873026	-0.113455446	-1.3421862449	 0.097349
H	 1.6335034147	-2.6537345854	-1.2550661137	 0.07066
H	 0.9675308888	-2.5541879518	 1.4381586622	 0.105577
H	 2.4193896368	-1.7061128763	 0.8504790958	 0.09134
H	-0.865774489	-2.6934671672	-1.7835874249	 0.084619
H	-0.4450797192	-3.7396302257	-0.409287778	 0.107188
H	-1.9676479831	-0.2642610328	 0.8596529384	 0.10955
H	-1.9512923572	-0.3354184053	-0.9209359161	 0.079158
186.2321	201.9325	245.9682	275.3054	295.3891	380.7887	402.9604	444.5753	489.1998	575.1968	624.4216	775.6076	818.6289	834.1154	870.7746	893.078	932.5452	936.6118	959.908	988.4346	1001.8556	1036.7684	1059.8379	1089.3961	1122.6619	1137.9132	1177.1103	1204.0887	1229.3818	1233.1419	1276.4707	1286.3763	1304.8618	1331.6382	1347.7117	1373.8888	1394.6993	1409.9673	1416.1159	1481.5535	1488.0504	1492.4223	1497.5945	1506.5653	1522.0385	2954.7986	2961.999	3009.9786	3039.7886	3047.6061	3058.2307	3071.839	3081.9283	3085.8661	3099.4711	3112.3294	3118.0043
CC12CC(CO1)COC2	C[C@@]12C[C@@H](CO1)COC2	
InChI=1S/C7H12O2/c1-7-2-6(4-9-7)3-8-5-7/h6H,2-5H2,1H3	InChI=1S/C7H12O2/c1-7-2-6(4-9-7)3-8-5-7/h6H,2-5H2,1H3/t6-,7+/m1/s1
