20
gdb 12838	2.86079	2.36083	1.73479	0.1298	79.04	-0.2332	0.0284	0.2616	860.5743	0.178793	-311.878856	-311.871637	-311.870693	-311.909811	29.28	
C	-0.2832000498	 1.4572141265	 0.1703648492	-0.477662
C	 0.0866354152	-0.0045714952	-0.0355459891	 0.371043
C	-1.0940524396	-1.0008674161	 0.2152118912	-0.263275
C	-0.4447278424	-1.4498449448	 1.5527923013	-0.221261
C	 0.8602003334	-0.7041855876	 1.1442249831	-0.084623
C	 1.8917151733	-1.533782888	 0.4321624965	-0.080464
C	 1.9103350417	-1.3156933342	-0.8836786583	-0.063544
C	 0.9039371752	-0.2760986783	-1.3197618988	-0.325338
H	 0.6100942073	 2.0920872889	 0.1914402155	 0.111929
H	-0.9302852296	 1.8185443127	-0.6380075982	 0.111897
H	-0.8205753663	 1.606995329	 1.1136688965	 0.109851
H	-2.0873355067	-0.5490978849	 0.2874577166	 0.09226
H	-1.1341738503	-1.8003970787	-0.5291899465	 0.097924
H	-0.9230021823	-1.0021977834	 2.4283856643	 0.095848
H	-0.3581112454	-2.5265507633	 1.7200221393	 0.093575
H	 1.2970485886	-0.0652037849	 1.9206780807	 0.062373
H	 2.5390398657	-2.2312180335	 0.9549881902	 0.087167
H	 2.5789094775	-1.8053445854	-1.584543865	 0.087727
H	 0.2653447881	-0.6270534503	-2.1416068096	 0.098559
H	 1.4058222964	 0.6297917117	-1.690748809	 0.096015
112.952	229.9418	261.0384	286.6447	331.6466	395.1448	454.5893	573.1007	643.4786	730.833	747.4094	773.5747	839.9184	869.6894	899.3299	933.6249	950.5431	965.4562	978.4581	983.0042	1000.0226	1035.6582	1101.5157	1116.2205	1130.9321	1177.4165	1192.8834	1222.8533	1236.2437	1267.017	1269.6008	1280.8224	1302.2234	1349.8858	1373.0334	1414.2366	1475.9579	1483.5578	1493.0428	1496.3935	1499.2779	1679.0072	2995.8336	3017.632	3029.1275	3030.1919	3050.7444	3058.3304	3082.193	3087.2471	3094.8884	3113.4844	3168.5484	3194.6636
CC12CCC1C=CC2	C[C@]12CC[C@H]1C=CC2	
InChI=1S/C8H12/c1-8-5-2-3-7(8)4-6-8/h2-3,7H,4-6H2,1H3	InChI=1S/C8H12/c1-8-5-2-3-7(8)4-6-8/h2-3,7H,4-6H2,1H3/t7-,8+/m1/s1
