17
gdb 56800	3.23275	1.10256	0.86803	2.1029	76.08	-0.235	0.0003	0.2353	1299.188	0.134161	-421.780163	-421.77111	-421.770165	-421.814668	32.657	
O	 1.4736781113	 1.3134328943	-0.4774472228	-0.408126
C	 0.5065984291	 0.3438961722	-0.0591877374	-0.185686
C	 0.1593475611	-0.58114333	-1.1425776847	 0.325336
C	-0.0934032204	-1.3327913485	-2.0456281033	-0.448918
C	 0.9614498449	-0.3618484242	 1.191308493	 0.286794
C	 1.1224341945	-1.6609551084	 1.4222794004	-0.219563
C	 1.6016982559	-1.8733202298	 2.8285229845	-0.104248
O	 1.7394392906	-0.5667688845	 3.3816372148	-0.268288
C	 1.3262939829	 0.4127356447	 2.4343603056	-0.144916
H	 2.2586747833	 0.8269049287	-0.7557917517	 0.287327
H	-0.3784574529	 0.9493653569	 0.1811180305	 0.127004
H	-0.3306965983	-1.987602522	-2.8477506164	 0.203584
H	 0.9294221144	-2.4642719043	 0.7235898984	 0.116458
H	 0.8897708387	-2.4660545676	 3.4260200956	 0.107162
H	 2.5691248293	-2.3983268401	 2.8695910594	 0.107867
H	 2.1384447238	 1.1306537783	 2.2541657867	 0.116119
H	 0.4691465518	 0.9857155744	 2.8264605771	 0.102097
50.9697	98.9065	124.4416	153.96	208.9458	282.3333	322.5535	383.3828	433.6322	498.1493	584.9886	638.6281	669.4418	725.8606	775.78	851.7662	897.925	921.4162	956.9216	974.8498	1028.0452	1046.7837	1062.4372	1110.1884	1167.8714	1185.6839	1219.2972	1254.8612	1263.4228	1331.6323	1376.0923	1391.5929	1413.7706	1515.6033	1528.9931	1728.3754	2235.8278	2961.9646	2970.5546	2986.8584	3015.7843	3016.1135	3226.9836	3500.2989	3795.967
OC(C#C)C1=CCOC1	O[C@@H](C#C)C1=CCOC1	
InChI=1S/C7H8O2/c1-2-7(8)6-3-4-9-5-6/h1,3,7-8H,4-5H2	InChI=1S/C7H8O2/c1-2-7(8)6-3-4-9-5-6/h1,3,7-8H,4-5H2/t7-/m0/s1
