17
gdb 104550	2.4478	1.31259	1.03784	4.0535	74.91	-0.2734	0.006	0.2794	1197.8176	0.13333	-421.825853	-421.816837	-421.815892	-421.859678	33.401	
C	 0.0683622872	 1.626870493	 0.0315484855	-0.39193
C	 0.083903822	 0.1215850102	-0.2416837796	-0.229608
C	-1.2783071601	-0.545730419	-0.0515790036	 0.210031
C	-1.261493175	-2.0916629515	 0.0965952319	-0.47223
C	-1.6744236556	-1.80423565	 1.5368411755	 0.447246
O	-1.9105670371	-2.4198267847	 2.5245144718	-0.31234
O	-1.7034609552	-0.4427933027	 1.3735420988	-0.262122
C	-2.3076969543	-0.0219409608	-0.9337670121	 0.336524
C	-3.1460809535	 0.3957433345	-1.6861979792	-0.456343
H	 1.0711590495	 2.046738551	-0.0850426012	 0.11901
H	-0.6014523683	 2.1460418365	-0.6596101381	 0.133339
H	-0.2711254217	 1.8286535686	 1.0511370027	 0.141852
H	 0.4155491949	-0.0822532911	-1.266677847	 0.116338
H	 0.7906998217	-0.3772368333	 0.4314917412	 0.109552
H	-2.0088946143	-2.6317133312	-0.4845225724	 0.154438
H	-0.2840902375	-2.5638536992	-0.014788113	 0.146281
H	-3.8931020626	 0.7688887796	-2.3432618113	 0.209963
81.8936	105.6854	159.4618	175.2566	214.4479	256.2632	377.6539	402.7619	458.8923	505.5863	527.0467	589.8331	628.3435	640.8724	677.4505	776.0779	815.1813	868.7716	884.7439	955.5464	1000.8259	1040.6047	1083.4442	1099.1088	1156.0857	1189.7207	1229.8784	1248.9439	1322.5101	1370.0538	1412.1305	1453.2834	1473.3832	1495.6658	1508.3962	1943.1323	2239.1567	3034.1551	3048.6894	3074.69	3095.4604	3120.8389	3126.8217	3158.3652	3497.9822
CCC1(CC(=O)O1)C#C	CC[C@]1(CC(=O)O1)C#C	
InChI=1S/C7H8O2/c1-3-7(4-2)5-6(8)9-7/h1H,4-5H2,2H3	InChI=1S/C7H8O2/c1-3-7(4-2)5-6(8)9-7/h1H,4-5H2,2H3/t7-/m0/s1
