18
gdb 93155	2.27242	1.72933	1.17706	1.42	72.67	-0.2461	-0.0292	0.2169	1072.1272	0.147571	-439.104356	-439.09575	-439.094806	-439.138186	31.542	
C	-0.255070635	 1.5557217352	 0.0640208878	-0.422151
C	 0.048840915	 0.0545936446	 0.0211529047	 0.037201
O	 0.7019264631	-0.3130523574	-1.2083725374	-0.244073
C	 1.9196592828	 0.2111973451	-1.5441615821	 0.100894
N	 3.0226522485	 0.0640656098	-0.9524830713	-0.218049
C	 3.080639717	-0.7469118406	 0.2565840282	-0.171678
C	 2.2636884332	-0.1849244665	 1.4349036437	-0.310014
C	 0.7662859759	-0.3867451025	 1.3074708754	 0.369955
O	 0.1025669122	-0.8408038023	 2.2112499866	-0.302288
H	 0.663421108	 2.1502508322	 0.0836885702	 0.134486
H	-0.8332087288	 1.8392285542	-0.8193778482	 0.136763
H	-0.8396696647	 1.7908513886	 0.9575969301	 0.144789
H	-0.8864621924	-0.5075474726	-0.0027173308	 0.122015
H	 1.8818580705	 0.7525725918	-2.490155152	 0.12101
H	 2.7495739786	-1.7714819809	 0.0362997223	 0.122052
H	 4.1279393424	-0.8052349237	 0.5640993022	 0.117546
H	 2.5688266337	-0.6516255698	 2.3748864287	 0.129068
H	 2.47082746	 0.8907166849	 1.5140403718	 0.132474
43.7759	100.2	178.7207	236.7697	237.0122	284.45	348.7832	361.3567	468.1607	539.7804	578.7833	664.4253	728.6334	786.12	852.9559	872.6033	920.7555	977.1431	997.3327	1007.9394	1047.0049	1092.5517	1126.7187	1140.8813	1190.3961	1244.4305	1289.938	1321.8527	1331.8546	1368.1004	1385.1375	1396.6549	1410.0727	1456.9762	1487.1784	1496.1378	1501.8015	1736.375	1804.4871	3012.3325	3029.0936	3044.4174	3084.7746	3100.3892	3105.8705	3124.0805	3129.1094	3131.981
CC1OC=NCCC1=O	C[C@H]1OC=NCCC1=O	
InChI=1S/C6H9NO2/c1-5-6(8)2-3-7-4-9-5/h4-5H,2-3H2,1H3	InChI=1S/C6H9NO2/c1-5-6(8)2-3-7-4-9-5/h4-5H,2-3H2,1H3/t5-/m1/s1
