17
gdb 43121	3.76728	1.54339	1.47332	3.2947	71.08	-0.2239	-0.0154	0.2085	929.1193	0.138785	-421.825773	-421.819369	-421.818425	-421.856424	26.352	
O	 0.0039302141	-0.0034666565	-0.0762856742	-0.321859
C	-0.0173926615	 1.1847468582	 0.0335091177	 0.460407
C	-1.0684868491	 2.3161339492	 0.0410877488	-0.046226
O	-0.8110604633	 2.9200560105	 1.3188192446	-0.295562
C	 0.6262189787	 3.1894572561	 1.220837512	 0.101647
C	 0.7428320196	 4.6377552219	 0.7517326241	-0.211111
C	 0.057369246	 4.5766041889	-0.6444265857	-0.237594
C	-0.0714952276	 3.0672057203	-0.9105534571	-0.044732
C	 1.0014135718	 2.3275701446	-0.0111934978	-0.21903
H	-2.1350769663	 2.1972164135	-0.1331757521	 0.097439
H	 1.1100338909	 2.9384265731	 2.1654166731	 0.089674
H	 0.2371774405	 5.3122940633	 1.4469692238	 0.114666
H	 1.792602313	 4.9431341157	 0.6775770607	 0.099538
H	-0.921421903	 5.0633326511	-0.6413471612	 0.11728
H	 0.6595580181	 5.0573600157	-1.4196510393	 0.108215
H	-0.1263229264	 2.7481895013	-1.9509853035	 0.093545
H	 2.0503643845	 2.2089123032	-0.2701383138	 0.093702
145.6518	215.4376	282.5847	405.0597	496.4736	534.3669	626.4575	702.1217	717.0769	783.3739	812.7538	822.3557	830.6561	901.139	914.216	938.1158	971.2861	974.046	1027.13	1042.4026	1050.6024	1073.6259	1100.8058	1126.1324	1183.5953	1203.564	1208.7609	1231.4791	1260.5392	1275.8596	1289.1761	1323.5676	1333.781	1355.5353	1473.0772	1497.9407	1908.5804	3044.685	3064.5492	3097.0607	3112.2406	3114.8996	3125.682	3158.8426	3162.0816
O=C1C2OC3CCC2C13	O=C1[C@H]2O[C@@H]3CC[C@H]2[C@H]13	
InChI=1S/C7H8O2/c8-6-5-3-1-2-4(5)9-7(3)6/h3-5,7H,1-2H2	InChI=1S/C7H8O2/c8-6-5-3-1-2-4(5)9-7(3)6/h3-5,7H,1-2H2/t3-,4+,5-,7-/m0/s1
