19
gdb 37070	3.09441	1.70599	1.45236	0.1709	73.24	-0.2211	0.0834	0.3045	964.0038	0.161535	-423.008866	-423.001768	-423.000824	-423.040036	29.093	
C	 0.1703944637	 1.4005483078	-0.169940524	-0.427028
C	 1.4360264642	 0.5851490881	 0.0534526519	 0.387062
C	 1.9776261058	 0.4154936776	 1.4530529172	-0.321329
C	 0.7101757588	-0.0301137125	 2.2362509605	-0.102882
O	-0.1989067999	-0.6195504121	 1.2912180072	-0.313993
C	 0.1230563239	-0.1077528588	 0.0286347919	 0.387046
C	 0.1489905084	-1.0204382322	-1.1744203936	-0.321304
C	 1.3547868376	-0.4573166629	-1.9789676694	-0.102895
O	 2.2168458572	 0.2217583006	-1.050192404	-0.313985
H	-0.1852341578	 2.0326871361	 0.636422796	 0.117727
H	-0.0129831382	 1.7964451301	-1.1628784335	 0.117729
H	 2.7311901031	-0.37760123	 1.4268794434	 0.119244
H	 2.4305281359	 1.3071154979	 1.8951098649	 0.108946
H	 0.9203777334	-0.7735845545	 3.0097922383	 0.115043
H	 0.2317955928	 0.8324049353	 2.7200200615	 0.103701
H	 0.3445189182	-2.0370149212	-0.8196047948	 0.119236
H	-0.7640728502	-1.0346760957	-1.7757802555	 0.108942
H	 1.9415922363	-1.2339328846	-2.4767829924	 0.115042
H	 1.0108015968	 0.2485682408	-2.7472317053	 0.103697
168.5327	198.0122	200.6578	342.601	369.3529	422.6288	544.6044	573.9546	609.5724	679.9717	751.4872	781.4433	846.0994	871.399	894.9205	902.1561	913.7416	948.6842	949.3752	1008.3354	1011.2206	1033.3731	1065.4545	1093.7817	1150.9296	1200.2085	1209.782	1225.5896	1238.4463	1242.0231	1259.3709	1309.3126	1329.0469	1380.5356	1389.9481	1404.7893	1470.3535	1492.0314	1498.1861	1523.1833	1525.3127	3008.6839	3009.6602	3056.2415	3057.192	3087.3331	3087.6654	3105.8305	3106.4744	3133.2917	3222.7552
C1C23CCOC12CCO3	C1[C@@]23CCO[C@@]12CCO3	
InChI=1S/C7H10O2/c1-3-8-7-2-4-9-6(1,7)5-7/h1-5H2	InChI=1S/C7H10O2/c1-3-8-7-2-4-9-6(1,7)5-7/h1-5H2/t6-,7-/m0/s1
