19
gdb 54694	3.41712	1.3341	1.26729	2.6895	78.16	-0.2304	-0.0095	0.2209	1080.6335	0.159017	-385.856849	-385.848795	-385.84785	-385.890383	30.719	
C	 0.0087878266	 1.4042272707	 0.3891519543	-0.483478
C	 0.1456108646	-0.0569031778	-0.007220441	 0.365269
O	 1.2187258019	-0.551124938	-0.2739129731	-0.304887
C	-1.1373086896	-0.8646173067	-0.0378217915	-0.08436
C	-1.1213773945	-2.3362983656	-0.428997925	-0.067757
C	-0.8166499456	-3.1592766193	 0.8310644631	-0.044709
C	-0.6331466434	-2.1846658888	 1.9902881987	-0.234741
C	-1.7611569085	-1.3504738884	 1.3202366576	-0.085845
C	-2.2157364403	-2.6638454464	 0.5614532252	-0.098718
H	 0.9945074969	 1.8650636287	 0.4634117449	 0.140332
H	-0.5897611625	 1.9407710826	-0.3564178975	 0.137639
H	-0.5194089045	 1.497914199	 1.3447946622	 0.136834
H	-1.9062343683	-0.3191590738	-0.5981816921	 0.08103
H	-0.9684901136	-2.7558615924	-1.4140764245	 0.091173
H	-0.4432365476	-4.1710608961	 0.7423392286	 0.087043
H	-0.976821503	-2.6213300533	 2.9320080376	 0.098359
H	 0.3435269309	-1.7105661476	 2.1340092428	 0.104874
H	-2.3949520735	-0.6843732892	 1.9019070164	 0.070717
H	-3.1673231661	-3.1624684977	 0.4527688933	 0.091224
33.1194	117.0591	143.2668	162.9489	344.86	397.2988	445.8073	568.2717	605.9207	725.6968	739.5252	784.7663	791.9421	812.0574	858.1918	899.6589	933.9516	959.6164	962.8642	993.401	1000.5158	1027.8413	1032.4432	1033.2338	1069.04	1082.7619	1130.3526	1160.4431	1166.4382	1191.8948	1200.6451	1236.4853	1275.2079	1317.5154	1359.1839	1373.4178	1388.5799	1463.0295	1475.7664	1499.7095	1802.9984	3032.2084	3040.1057	3043.8238	3093.1663	3100.7957	3135.6211	3150.3622	3199.6609	3207.7863	3229.0569
CC(=O)C1C2C3CC1C23	CC(=O)[C@H]1[C@H]2[C@H]3C[C@@H]1[C@@H]23	
InChI=1S/C8H10O/c1-3(9)6-4-2-5-7(4)8(5)6/h4-8H,2H2,1H3	InChI=1S/C8H10O/c1-3(9)6-4-2-5-7(4)8(5)6/h4-8H,2H2,1H3/t4-,5-,6+,7+,8+/m0/s1
