16
gdb 16399	3.64747	2.269	1.79166	3.7632	65.76	-0.2398	0.027	0.2668	767.7267	0.134284	-379.903735	-379.897559	-379.896614	-379.93394	24.597	
N	-0.0887855519	 1.2667135844	-0.2522891893	-0.539735
C	-0.0461057008	 0.0391296969	 0.0452062522	 0.470828
O	 1.1155442473	-0.602746115	 0.366887498	-0.27047
C	 1.0584066921	-1.982920044	 0.7787456082	-0.051396
C	-0.3357918839	-2.5641033882	 0.6099176079	-0.024834
C	-0.9328210124	-2.1422744	-0.7527272815	-0.237965
C	-1.2666620582	-0.8414561449	 0.0242063053	-0.089816
N	-1.2580904964	-1.6127250859	 1.3276838458	-0.332234
H	 0.8459794335	 1.6772254552	-0.1917828171	 0.218729
H	 1.7920162914	-2.5270910746	 0.1737166732	 0.112544
H	 1.3566931796	-2.0280210118	 1.8315086799	 0.123422
H	-0.3646566437	-3.6092850165	 0.9275227501	 0.080422
H	-0.2822186036	-2.0860499386	-1.6307214426	 0.112005
H	-1.8370930143	-2.7067013371	-0.992334901	 0.106007
H	-2.1552711254	-0.2569721152	-0.2049531997	 0.099826
H	-2.1681768233	-2.0640183046	 1.4113019206	 0.222668
127.6732	219.6162	369.9717	418.5526	423.1471	507.622	642.5909	705.3651	772.2574	843.7819	857.6052	885.3693	904.3902	922.5462	954.1791	972.5904	977.7442	1038.879	1078.45	1084.4766	1125.7469	1153.0987	1184.9698	1228.128	1249.165	1257.2824	1301.0945	1318.1297	1366.9888	1408.9389	1431.7153	1494.5759	1503.5694	1767.6492	3038.3203	3052.0013	3085.6056	3085.9815	3115.1769	3145.145	3457.9537	3465.9675
N=C1OCC2CC1N2	[NH][C]1OC[C@@H]2C[C@H]1N2	
InChI=1S/C5H8N2O/c6-5-4-1-3(7-4)2-8-5/h3-4,6-7H,1-2H2	InChI=1S/C5H8N2O/c6-5-4-1-3(7-4)2-8-5/h3-4,6-7H,1-2H2/t3-,4+/m0/s1
