15
gdb 29761	4.7993	1.27455	1.16891	2.5444	71.05	-0.219	0.0075	0.2266	1029.7115	0.114509	-416.763381	-416.756638	-416.755694	-416.79445	26.605	
O	 0.1221648331	 1.2476346085	 0.0596595996	-0.425422
C	-0.0184828808	-0.1279272738	-0.0561225533	 0.099026
C	-1.4469888251	-0.592099618	-0.0122009663	-0.047254
C	-0.6798037238	-0.667712293	-1.3360333576	-0.255162
C	-0.7577663388	-2.1631681659	-1.1536055224	 0.292299
N	-0.1191006064	-3.2996413203	-1.2779939071	-0.334103
C	-0.4948881391	-3.9866970937	-0.1293791767	-0.075019
C	-1.2693415027	-3.2192874062	 0.7162915902	-0.16832
N	-1.5062372812	-2.0658078896	-0.0061253568	-0.00074
H	 0.9303950756	 1.511241093	-0.3934498022	 0.29974
H	 0.746960851	-0.734502786	 0.429194796	 0.121942
H	-2.2831945194	 0.0291576897	 0.2769855158	 0.131096
H	-0.8077203937	-0.0627143714	-2.2219431413	 0.1217
H	-0.2059588463	-5.0183187987	 0.0121179175	 0.110228
H	-1.7388930423	-3.4457689745	 1.6589373645	 0.129988
117.8801	238.0168	285.1599	315.7763	332.7277	492.5993	513.2341	635.9049	735.2564	747.923	779.1034	818.4096	836.3204	860.7912	883.1801	907.6161	971.8397	1019.7345	1054.2525	1088.5102	1110.1016	1124.5459	1152.0219	1169.372	1189.5311	1240.1446	1264.5034	1281.7564	1348.6728	1397.1442	1441.1591	1465.7058	1566.9806	3102.6729	3218.3219	3228.9761	3238.6784	3279.7688	3809.1439
OC1C2C1C1=NC=CN21	O[C@H]1[C@H]2[C@@H]1c1nccn21	
InChI=1S/C6H6N2O/c9-5-3-4(5)8-2-1-7-6(3)8/h1-5,9H	InChI=1S/C6H6N2O/c9-5-3-4(5)8-2-1-7-6(3)8/h1-5,9H/t3-,4+,5+/m0/s1
