16
gdb 75194	3.63164	1.01983	0.87439	2.9898	68.85	-0.2364	0.0134	0.2498	1307.2002	0.125391	-471.22656	-471.218177	-471.217232	-471.260484	30.294	
N	 0.029823661	 1.3588822233	 0.2164884473	-0.581116
C	-0.0750662158	 0.0116711234	 0.0221556345	 0.472046
N	-1.124075507	-0.705122052	 0.0873052641	-0.337342
C	-0.6733669315	-2.0844480077	-0.0864962404	-0.201837
C	 0.8128566406	-1.967551737	-0.4860686861	 0.167617
O	 0.9448798564	-2.2157724877	-1.8671573682	-0.181361
C	 2.2075822669	-2.3435961991	-2.3431295067	 0.128916
N	 2.4005914181	-2.434490621	-3.5843195791	-0.432349
O	 1.133917295	-0.6061182587	-0.2005341729	-0.247833
H	 0.7903721676	 1.8078211627	-0.2702977044	 0.266798
H	-0.8509226094	 1.8475107715	 0.1691267248	 0.272404
H	-0.7919846664	-2.6558489657	 0.8418289266	 0.114125
H	-1.2320159835	-2.5962924824	-0.8748595242	 0.134042
H	 1.5102590885	-2.5945530751	 0.0777995724	 0.097805
H	 2.9710573843	-2.368820714	-1.5544480816	 0.095133
H	 3.3938477152	-2.5522056204	-3.7742556062	 0.232951
53.9963	105.2143	114.1845	198.4394	255.0811	364.1588	393.3411	411.6062	499.9899	559.1344	629.4743	704.0261	749.3014	815.6296	829.8142	899.0978	933.4604	991.7948	1013.415	1020.0945	1046.4856	1081.7556	1131.0764	1178.4654	1218.499	1281.1892	1306.0065	1338.8611	1379.6313	1423.4272	1436.879	1493.8085	1620.1934	1753.6622	1774.6674	3031.7511	3033.9808	3068.6918	3093.5152	3517.0624	3588.5097	3701.0507
NC1=NCC(OC=N)O1	N[C]1[N]C[C@@H](O[CH][NH])O1	
InChI=1S/C4H7N3O2/c5-2-8-3-1-7-4(6)9-3/h2-3,5H,1H2,(H2,6,7)	InChI=1S/C4H7N3O2/c5-2-8-3-1-7-4(6)9-3/h2-3,5H,1H2,(H2,6,7)/t3-/m0/s1
