15
gdb 85587	2.82961	1.45922	1.12911	2.3005	61.71	-0.2841	-0.0169	0.2672	1056.6774	0.112206	-494.964342	-494.956279	-494.955335	-494.997425	29.057	
C	 0.0241603418	 1.5965669692	 0.2022246616	-0.411464
C	 0.0902259957	 0.0822599585	-0.0061427288	-0.034737
O	 0.7721239878	-0.2446459162	-1.2338496352	-0.220951
C	 2.1130546278	-0.3715804194	-1.233494312	 0.406955
O	 2.7327074032	-0.4530100624	-2.2551484169	-0.31127
C	 2.7811160139	-0.404427688	 0.1316684356	-0.231782
O	 1.9741204789	-0.9365158042	 1.1856156876	-0.214061
C	 0.660398035	-0.6297206585	 1.2161347064	 0.424606
O	-0.0152002294	-0.9084420566	 2.1651972645	-0.318969
H	 1.0164300463	 2.0298706623	 0.3606086194	 0.13071
H	-0.4217446794	 2.0661760976	-0.6775315943	 0.149593
H	-0.5922226844	 1.8168028764	 1.0772612947	 0.158217
H	-0.9184809166	-0.3110632912	-0.1403406008	 0.146616
H	 3.6627608006	-1.0407144265	 0.061433214	 0.173032
H	 3.1139325688	 0.608990799	 0.3908800242	 0.153504
78.4365	107.1197	174.3074	224.7334	240.4526	374.0963	415.9401	426.5113	468.0924	583.2124	604.3871	721.8579	747.0658	792.5217	848.0856	944.7723	1018.7988	1048.0946	1094.9717	1106.7138	1136.254	1219.2922	1245.3189	1291.8878	1334.7567	1394.1963	1396.5211	1407.7088	1483.6044	1492.2813	1495.7442	1860.1304	1866.1983	3034.6618	3049.5741	3107.7331	3129.2636	3141.1434	3146.1921
CC1OC(=O)COC1=O	C[C@H]1OC(=O)COC1=O	
InChI=1S/C5H6O4/c1-3-5(7)8-2-4(6)9-3/h3H,2H2,1H3	InChI=1S/C5H6O4/c1-3-5(7)8-2-4(6)9-3/h3H,2H2,1H3/t3-/m1/s1
