16
gdb 75269	2.30552	1.7451	1.44019	3.5274	73.6	-0.2588	-0.0176	0.2412	979.563	0.125133	-396.932055	-396.924199	-396.923255	-396.964537	29.145	
C	-0.0032771724	 1.4630397939	 0.0288314616	-0.472044
C	-0.018540738	-0.0240684404	-0.048595938	 0.331831
N	-0.0436813379	-0.7114364335	-1.1179900486	-0.229775
C	-0.0249627285	-2.1336074933	-0.755246651	-0.203213
C	 0.0562087478	-2.1517219909	 0.7708707526	-0.050689
C	 1.23081504	-1.5105426477	 1.4416027464	-0.183958
C	 2.4315832684	-1.2035835582	 0.708356935	 0.316229
N	 3.4184728918	-0.967087891	 0.153248864	-0.335851
N	-0.0375711577	-0.7516395109	 1.210379572	-0.158627
H	 0.9064286053	 1.8038850887	 0.5357643166	 0.150252
H	-0.0391459904	 1.8906048806	-0.9729080141	 0.153861
H	-0.8534593011	 1.82013019	 0.618498608	 0.147271
H	-0.9445866901	-2.6192088479	-1.09960906	 0.129153
H	 0.8138228409	-2.6336632876	-1.2515337633	 0.141589
H	-0.5076883773	-2.8825708982	 1.3407759433	 0.117925
H	 1.4087551193	-1.7315238236	 2.4899553853	 0.146044
96.6858	130.8432	160.0015	237.5364	283.0282	346.33	363.4794	526.253	574.1975	644.512	678.6054	751.0814	756.9334	828.9999	865.5257	935.9338	961.8784	979.7902	1039.4438	1062.5594	1067.5308	1086.6226	1129.1483	1209.9037	1215.4057	1265.6434	1324.2411	1347.1106	1377.8495	1410.9626	1470.3975	1474.0991	1485.3535	1726.001	2351.9856	3044.6209	3045.7403	3079.3557	3101.8219	3155.6525	3161.5688	3172.219
CC1=NCC2C(C#N)N12	CC1=NC[C@H]2[C@@H](C#N)N12	
InChI=1S/C6H7N3/c1-4-8-3-6-5(2-7)9(4)6/h5-6H,3H2,1H3	InChI=1S/C6H7N3/c1-4-8-3-6-5(2-7)9(4)6/h5-6H,3H2,1H3/t5-,6+,9?/m1/s1
