17
gdb 117750	2.07711	1.22587	1.04639	2.3675	66.81	-0.2541	-0.0571	0.197	1246.7613	0.130728	-496.093834	-496.083525	-496.082581	-496.130179	34.836	
C	 0.0115790538	 1.5212129934	-0.6435101485	-0.229631
O	 0.0244664052	 0.1713547137	-1.0560188464	-0.229429
C	 0.865134774	-0.6359413216	-0.2786349458	-0.097118
C	 0.6965147808	-2.1165043582	-0.7061928597	 0.144441
O	 1.6615988688	-2.8884372943	-0.0478433161	-0.466946
C	-0.703048787	-2.6203461915	-0.3150982188	 0.11488
O	-1.7247688515	-2.2805776317	-0.8461337665	-0.234777
C	 0.8645123135	-2.2366087704	-2.2194708016	 0.135709
O	 1.783424551	-2.8712698013	-2.6777321691	-0.271946
H	-0.332853056	 1.6196451318	 0.3968832535	 0.114678
H	 1.0085201897	 1.9801606544	-0.724665615	 0.112152
H	-0.6804730894	 2.0524237083	-1.2997942855	 0.138834
H	 1.9281413331	-0.37753322	-0.4125933674	 0.109782
H	 0.637625608	-0.5463203032	 0.7965304929	 0.107279
H	 2.2204512711	-3.2600041389	-0.7514718543	 0.2994
H	-0.6623105694	-3.347025476	 0.5255680209	 0.105819
H	 0.1105177845	-1.7279286045	-2.8390183925	 0.146871
51.0862	63.6839	99.6971	121.3617	162.0809	217.4261	225.3394	271.2525	321.7164	350.1069	381.615	465.5699	518.2831	546.0722	688.949	822.271	941.2219	949.189	980.5717	1009.449	1123.8906	1150.1352	1162.8881	1187.5981	1199.5866	1238.2824	1244.4786	1362.2465	1371.5727	1405.1139	1417.4176	1480.8553	1487.2417	1501.6198	1526.0047	1797.9697	1837.2228	2903.3371	2961.5318	2983.1561	2998.4704	3031.4908	3034.6011	3128.2066	3661.0777
COCC(O)(C=O)C=O	COCC(O)(C=O)C=O	
InChI=1S/C5H8O4/c1-9-4-5(8,2-6)3-7/h2-3,8H,4H2,1H3	InChI=1S/C5H8O4/c1-9-4-5(8,2-6)3-7/h2-3,8H,4H2,1H3
