21
gdb 39619	4.42526	0.97468	0.82088	0.2277	99.05	-0.1947	-0.007	0.1877	1439.707	0.183629	-349.96634	-349.957765	-349.956821	-350.000787	32.179	
C	 0.0835175473	 1.4154996987	-0.4596758939	-0.207221
C	 1.448099758	 1.6116436937	 0.2739261491	-0.325738
C	 1.2997114089	 0.2032272464	 0.8313011208	 0.265506
C	-0.1157594768	 0.0650652071	 0.297545302	-0.322751
C	 2.1205253296	-0.6314806055	 1.4707925359	 0.170442
C	 1.7887408109	-2.0554342924	 1.9095495647	-0.328513
C	 3.0863784093	-2.5877712133	 2.5838492061	-0.266236
C	 4.0453321862	-1.4263944418	 2.4889989114	-0.072686
C	 3.4970594119	-0.3675354859	 1.8769932867	-0.1506
H	-0.6719862197	 2.1826858672	-0.2781962605	 0.097755
H	 0.1939087544	 1.2871958299	-1.5386613732	 0.104022
H	 2.3182604522	 1.7991617531	-0.3641248639	 0.104334
H	 1.4210587687	 2.3981920494	 1.0378121296	 0.10562
H	-0.8911087295	 0.1081025534	 1.0729198698	 0.105263
H	-0.3208143944	-0.8152935552	-0.3221809131	 0.102946
H	 0.9425588528	-2.0669658263	 2.6046783082	 0.111543
H	 1.4941239518	-2.6746885422	 1.0554609632	 0.110879
H	 2.9176522116	-2.888096902	 3.6258955241	 0.107265
H	 3.4815634291	-3.4776315584	 2.0770105024	 0.107342
H	 5.0565145077	-1.4709405824	 2.8774200261	 0.091874
H	 3.99390056	 0.5781666964	 1.6936760844	 0.088954
38.5654	65.4942	133.3049	157.6451	220.0896	371.6689	403.7996	470.4283	546.7296	720.5093	751.1383	752.2179	779.0257	810.641	828.9674	855.8468	921.079	924.7859	934.4749	978.0968	979.9988	1017.0016	1035.2637	1037.045	1084.817	1096.3338	1129.5542	1161.4978	1209.7948	1216.0748	1233.2621	1239.3649	1241.1577	1268.6552	1276.9953	1280.7821	1321.8747	1387.4962	1462.0982	1471.9435	1472.2787	1494.4533	1497.3425	1646.1445	1759.9483	3016.2597	3017.54	3024.5319	3035.8258	3041.5147	3055.0474	3064.4985	3070.519	3073.2178	3121.4712	3186.8402	3211.0566
C1CC(C1)=C1CCC=C1	C1CC(=C2CCC=C2)C1	
InChI=1S/C9H12/c1-2-5-8(4-1)9-6-3-7-9/h1,4H,2-3,5-7H2	InChI=1S/C9H12/c1-2-5-8(4-1)9-6-3-7-9/h1,4H,2-3,5-7H2
