18
gdb 77307	2.43725	1.46185	1.12162	3.7959	77.62	-0.2547	0.0042	0.2589	1136.6709	0.147719	-401.981904	-401.973049	-401.972105	-402.015584	32.849	
C	-0.209963459	 1.5270209252	 0.0644950967	-0.489402
C	-0.0487612536	 0.0439880264	-0.0236255292	 0.290413
C	-0.0328825875	-0.7263157136	-1.1115898607	-0.162005
C	 0.091924401	-2.1977324657	-0.7988855474	-0.274117
C	 0.5124581404	-2.1994885038	 0.7012422122	-0.202135
C	 1.9625199976	-2.3219466353	 0.8380664597	 0.273595
N	 3.1121272654	-2.3780516512	 0.9518140567	-0.332006
C	 0.0545196296	-0.7940162903	 1.2420633971	 0.045025
O	 0.8570403419	-0.2550514328	 2.2665624601	-0.420649
H	 0.5999260543	 1.973028245	 0.6513714008	 0.137339
H	-0.2242819243	 1.9905047146	-0.9249577029	 0.125509
H	-1.1423898777	 1.7895054491	 0.5807638354	 0.131895
H	-0.1419445754	-0.3651055536	-2.128560784	 0.099309
H	-0.8677998458	-2.7168104544	-0.9191802763	 0.119868
H	 0.8133027502	-2.7201926674	-1.4339055012	 0.130936
H	 0.0510550398	-3.0135840478	 1.2659191746	 0.127045
H	-0.9365722786	-0.8996321191	 1.7027865671	 0.10393
H	 1.7723385317	-0.2282454651	 1.958835381	 0.295451
57.4027	141.6268	153.9896	205.629	243.0191	262.1345	348.7501	395.2847	408.1878	462.6078	561.2408	581.7196	678.4697	742.55	784.1161	842.5234	861.1508	923.6704	970.6008	1006.5648	1035.3552	1058.4307	1066.897	1113.5967	1172.917	1198.5331	1225.1968	1264.89	1283.4594	1325.1813	1339.8524	1347.1515	1413.2132	1433.5266	1473.792	1485.8829	1492.7257	1727.187	2349.5696	3022.1111	3025.1024	3026.2506	3080.0637	3080.3563	3085.6368	3121.645	3191.1367	3770.3472
CC1=CCC(C#N)C1O	CC1=CC[C@@H](C#N)[C@H]1O	
InChI=1S/C7H9NO/c1-5-2-3-6(4-8)7(5)9/h2,6-7,9H,3H2,1H3	InChI=1S/C7H9NO/c1-5-2-3-6(4-8)7(5)9/h2,6-7,9H,3H2,1H3/t6-,7-/m0/s1
