21
gdb 74270	2.57409	1.41879	1.18171	1.3496	84.74	-0.2226	0.0206	0.2432	1170.1988	0.181312	-387.096499	-387.087347	-387.086403	-387.129605	35.975	
C	-0.0094424632	 1.5138339899	 0.0923698106	-0.495723
C	-0.0078613719	 0.0200249512	 0.0080344097	 0.322797
C	 0.0271540042	-0.7381690118	-1.0917158551	-0.253226
C	 0.0215108839	-2.2318630248	-0.7941133952	 0.352415
C	-1.2291191587	-2.9315996805	-1.3386546867	-0.438683
O	 1.1970223918	-2.8846453774	-1.2992839606	-0.466705
C	 0.0678294359	-2.2682499126	 0.7366091443	-0.047742
C	 1.2692772948	-1.6670181261	 1.4138576816	-0.290427
C	 0.0084750613	-0.8417919417	 1.2349357562	-0.136397
H	 0.8589280264	 1.8762664168	 0.6567038561	 0.130252
H	 0.0064156019	 1.97544211	-0.8984591795	 0.122015
H	-0.8984955499	 1.8778213903	 0.6228430106	 0.125381
H	 0.0931363193	-0.3626121138	-2.1090437314	 0.076055
H	-1.2953462382	-2.8195779411	-2.427565126	 0.099387
H	-1.192717951	-4.0007504127	-1.1052876193	 0.11972
H	-2.1379855322	-2.5041178485	-0.9044307889	 0.120107
H	 1.1672004899	-2.8312108427	-2.2606582664	 0.271848
H	-0.466863106	-3.064056344	 1.2419122797	 0.07911
H	 1.4972339484	-2.0255045569	 2.4124736294	 0.104984
H	 2.131246885	-1.4234269061	 0.8036471325	 0.124634
H	-0.5657571517	-0.5555146876	 2.1098890381	 0.080197
109.7416	176.5069	191.387	226.0905	246.7577	262.2287	282.6922	346.3102	381.5425	448.0608	500.884	575.9031	599.6949	619.346	762.3005	809.5224	832.2552	851.7716	902.5472	940.6062	951.3688	971.2814	1013.0506	1031.3848	1056.9813	1059.2138	1088.185	1091.3355	1105.0862	1140.9579	1180.6846	1196.8378	1214.8531	1277.3168	1339.6349	1377.2447	1394.5007	1397.0729	1413.741	1478.476	1478.6365	1486.4813	1489.0192	1490.7045	1710.4976	3018.9068	3023.415	3065.7634	3091.3595	3111.3262	3112.4089	3130.9372	3161.618	3167.5916	3175.3709	3224.6143	3802.7071
CC1=CC(C)(O)C2CC12	CC1=C[C@@](C)(O)[C@H]2C[C@@H]12	
InChI=1S/C8H12O/c1-5-4-8(2,9)7-3-6(5)7/h4,6-7,9H,3H2,1-2H3	InChI=1S/C8H12O/c1-5-4-8(2,9)7-3-6(5)7/h4,6-7,9H,3H2,1-2H3/t6-,7-,8+/m0/s1
