19
gdb 89243	2.98213	1.6059	1.27064	1.7242	74.75	-0.25	0.0738	0.3237	1021.6661	0.160336	-422.985035	-422.977448	-422.976504	-423.016644	31.125	
O	-0.0320775865	 1.4206571715	-0.0103882503	-0.442579
C	 0.0239820733	 0.0013121849	 0.0313124933	 0.096653
C	 0.5356901235	-0.5817604201	 1.3766393606	-0.346688
C	-0.7353767101	-1.2971497402	 1.841404107	 0.454156
O	-0.6825084693	-2.0326682148	 3.0259966768	-0.490573
C	-1.4058622662	-1.9891824995	 0.6180458391	-0.10506
C	-2.7970366075	-1.7128249571	 1.2436940813	-0.252903
C	-1.9882005983	-0.4135406042	 1.4795814389	-0.119032
C	-1.4020646675	-0.5395776672	 0.0403287211	-0.005401
H	 0.870091844	 1.7548852297	-0.0234192097	 0.281545
H	 0.5975503018	-0.3842009596	-0.8241468978	 0.062852
H	 1.3736478787	-1.2771946673	 1.2652573423	 0.099621
H	 0.83723464	 0.2212459115	 2.0591527284	 0.087023
H	-0.4256622145	-1.4383545537	 3.7388846467	 0.280771
H	-1.0565224789	-2.8948895743	 0.1179049607	 0.066532
H	-3.638418466	-1.6432420643	 0.54914801	 0.086227
H	-3.0526166347	-2.2969906326	 2.1287712035	 0.105619
H	-2.3089093046	 0.5070356973	 1.9695501614	 0.069784
H	-2.0423929271	-0.3070925599	-0.8102138033	 0.071453
117.1834	245.3913	261.9016	290.5998	338.878	368.1521	402.8302	474.0422	498.3347	640.719	683.875	705.6305	774.2962	844.1999	869.0767	898.2082	913.3321	915.9054	984.7366	1009.4504	1024.3962	1045.8291	1068.6701	1084.9004	1102.3463	1126.4617	1142.2838	1181.3842	1185.6504	1205.5331	1220.1514	1233.8594	1247.4559	1263.7725	1286.8882	1324.7446	1343.2979	1387.6651	1425.2447	1482.7055	1510.1368	2990.168	3035.2631	3060.8857	3086.1657	3090.8256	3101.493	3124.8664	3132.6174	3808.5793	3818.5123
OC1CC2(O)C3CC2C13	O[C@H]1C[C@]2(O)[C@H]3C[C@@H]2[C@@H]13	
InChI=1S/C7H10O2/c8-5-2-7(9)3-1-4(7)6(3)5/h3-6,8-9H,1-2H2	InChI=1S/C7H10O2/c8-5-2-7(9)3-1-4(7)6(3)5/h3-6,8-9H,1-2H2/t3-,4+,5-,6-,7-/m0/s1
