15
gdb 29564	2.35939	1.87773	1.04893	5.6916	77.47	-0.1799	-0.0476	0.1323	1060.4565	0.114142	-453.966985	-453.959149	-453.958205	-453.998927	30.554	
N	 0.0529176855	 1.4099745116	-0.0256785094	-0.609341
C	 0.0077525534	-0.0033338289	 0.0525349548	 0.099931
C	-1.1574913939	-0.7071808332	 0.2565686343	-0.001762
O	-1.1634788076	-2.0220791448	 0.4044489161	-0.134496
C	-0.0345230072	-2.7514305221	 0.3167120386	-0.097468
C	 1.2320808005	-2.1923816741	 0.0732578823	 0.244874
O	 2.3219310511	-2.7983633218	-0.0136395495	-0.484973
C	 1.2054997873	-0.7304893597	-0.0279785551	 0.237325
N	 2.4107689107	-0.16628905	-0.2160857673	-0.560369
H	 3.1631233698	-0.8469777136	-0.1362108638	 0.276681
H	 2.5649659191	 0.7980295238	 0.0293031586	 0.26376
H	-0.8608404409	 1.8349496914	 0.0754074024	 0.246321
H	 0.4570550156	 1.7234329531	-0.9030867159	 0.252303
H	-2.1431822122	-0.2679635749	 0.334235949	 0.129699
H	-0.211926951	-3.8056779868	 0.4702888549	 0.137516
138.6826	207.9134	227.6095	271.0803	308.406	325.3088	465.6552	489.3191	524.0783	536.8538	574.9704	597.5013	683.4845	692.0384	768.5789	777.0153	781.6389	811.0849	852.2785	976.2754	1105.9989	1145.9255	1240.3164	1265.894	1340.6921	1364.8995	1408.497	1417.3437	1533.5314	1601.0944	1612.1265	1655.8357	1670.7612	3222.5885	3246.8853	3478.2068	3502.3941	3600.17	3679.6802
NC1=COC=C([O-])C1=[NH2+]	NC1=CO[CH]C(=O)[C]1N	
InChI=1S/C5H6N2O2/c6-3-1-9-2-4(8)5(3)7/h1-2,7-8H,6H2	InChI=1S/C5H6N2O2/c6-3-1-9-2-4(8)5(3)7/h1-2H,6-7H2
