18
gdb 74497	3.41461	1.18002	1.00186	4.8319	83.68	-0.2419	0.0004	0.2423	1220.7204	0.148359	-364.838934	-364.830776	-364.829832	-364.871467	31.463	
C	 0.0610254497	 1.4958699615	 0.0603606221	-0.487262
C	-0.0076187635	 0.0034867817	-0.0040432377	 0.312242
C	-0.077667888	-0.7554155052	-1.1022811551	-0.262223
C	-0.0479680599	-2.2178464646	-0.7822400323	 0.198382
C	 1.2316634672	-2.7048533479	-0.1008059646	-0.308216
C	 0.0718071713	-2.2842404814	 0.7487040854	-0.088882
C	 0.0123473534	-0.8472077801	 1.2562440665	-0.323409
C	-0.83905283	-3.1452632815	-1.5378029355	 0.196671
N	-1.4733448617	-3.8901169581	-2.1562510116	-0.350901
H	 0.9969819249	 1.832164797	 0.5239542681	 0.130076
H	-0.0048615164	 1.9450340586	-0.9337947996	 0.131053
H	-0.7533999467	 1.9004873611	 0.6744597795	 0.130917
H	-0.1182688345	-0.3929034375	-2.1222825749	 0.109306
H	 1.4432822497	-3.7671281736	-0.1527761095	 0.136206
H	 2.0956921763	-2.0548137165	-0.1886925061	 0.125752
H	-0.4596012579	-3.0583855903	 1.2878455633	 0.114532
H	 0.8674167509	-0.6028340079	 1.8999230435	 0.117167
H	-0.8876586248	-0.6715043355	 1.8603905183	 0.118589
117.9912	145.0621	183.5013	195.787	315.8032	345.5983	395.1867	464.4277	491.1228	542.7434	588.8472	618.0655	752.5955	814.7353	849.6078	860.2881	888.7025	926.3092	959.589	1002.316	1019.162	1068.1587	1070.4395	1080.6737	1101.6486	1168.9983	1197.0906	1239.2307	1261.8747	1315.0791	1335.6859	1387.6404	1416.1675	1468.511	1479.1511	1479.9565	1489.1362	1708.0626	2348.381	3016.3171	3021.5241	3046.3669	3066.5083	3116.7782	3132.	3194.1596	3207.7384	3227.1487
CC1=CC2(CC2C1)C#N	CC1=C[C@]2(C[C@H]2C1)C#N	
InChI=1S/C8H9N/c1-6-2-7-4-8(7,3-6)5-9/h3,7H,2,4H2,1H3	InChI=1S/C8H9N/c1-6-2-7-4-8(7,3-6)5-9/h3,7H,2,4H2,1H3/t7-,8+/m1/s1
