19
gdb 65306	2.86328	1.23117	1.09196	3.9827	77.47	-0.2335	-0.0133	0.2202	1189.8301	0.157029	-423.007251	-422.998115	-422.99717	-423.041362	33.421	
C	-0.1401818071	 1.5299499226	 0.109319233	-0.465351
C	-0.0125552773	 0.023832683	 0.0611025574	 0.132094
C	 1.3339312267	-0.6213832078	-0.3374856571	-0.407759
C	 0.8786267847	-0.6984914637	 1.0641169816	 0.424975
C	 1.4700579188	-0.1504957167	 2.3582516124	-0.357756
C	 0.9889577995	-1.4927492817	 2.9526547962	-0.074439
O	 0.4986443405	-1.9351561396	 1.663048885	-0.30151
C	-1.219270189	-0.7161068538	-0.3865833152	 0.125053
O	-2.2670332378	-0.1846136918	-0.6695866398	-0.274473
H	 0.778842242	 1.9963292959	 0.4756552476	 0.10961
H	-0.3517455583	 1.9294113903	-0.8870361788	 0.135021
H	-0.9659612818	 1.8289643929	 0.7613923011	 0.135281
H	 1.2885103622	-1.5357940913	-0.9216398038	 0.133149
H	 2.1420453513	 0.0534852635	-0.6008072899	 0.126702
H	 2.552081534	-0.007160512	 2.3473238819	 0.121347
H	 0.9879665665	 0.7433696953	 2.7565966588	 0.125305
H	 1.770976946	-2.1575098933	 3.3332831441	 0.114298
H	 0.1808117233	-1.4211842665	 3.6884120231	 0.115506
H	-1.0974032841	-1.8186106353	-0.4467792076	 0.082947
74.5043	106.1968	152.6813	164.6276	178.7417	252.2687	296.1427	387.8392	398.884	467.8248	525.2726	602.8244	765.7306	790.8034	833.9875	870.183	887.4046	911.6855	957.7045	987.0665	1017.8756	1024.4455	1045.6886	1093.8221	1108.7425	1161.5564	1172.7083	1176.3162	1214.7326	1252.3503	1320.7415	1359.1557	1385.8441	1413.6338	1443.7815	1470.8526	1483.9621	1489.0543	1498.2172	1532.5874	1805.1331	2906.426	3036.5634	3041.8828	3079.3767	3083.3522	3110.6779	3115.2887	3122.0368	3135.6015	3213.0972
CC1(CC11CCO1)C=O	C[C@]1(C[C@]21CCO2)C=O	
InChI=1S/C7H10O2/c1-6(5-8)4-7(6)2-3-9-7/h5H,2-4H2,1H3	InChI=1S/C7H10O2/c1-6(5-8)4-7(6)2-3-9-7/h5H,2-4H2,1H3/t6-,7-/m0/s1
