22
gdb 97451	6.79983	0.56339	0.53923	2.7719	88.82	-0.2449	0.0278	0.2727	2112.8153	0.193087	-404.332982	-404.32286	-404.321916	-404.369943	35.572	
C	-0.0926977503	 1.3706100819	-0.0261176528	-0.313937
N	-0.1090563465	-0.0764317379	-0.0128187268	-0.205072
C	 0.5248992738	-0.6691273102	-0.92318556	 0.13755
O	 0.5559430701	-2.0141745902	-0.9807595416	-0.209397
C	 1.3188156681	-2.5799320584	-2.0511508146	-0.098384
C	 1.1950431851	-4.0838973492	-1.9698058916	 0.037233
C	-0.1703169223	-4.7461309691	-2.3048657006	-0.211479
C	 0.6019428987	-5.8658148629	-3.0544672374	-0.209888
C	 1.8397419015	-4.92794025	-3.1049965167	-0.239953
H	 0.3223928972	 1.7435956187	 0.9174066478	 0.12638
H	 0.4900104729	 1.8065539865	-0.8549194044	 0.09316
H	-1.1187772071	 1.7506333156	-0.0924832972	 0.126371
H	 1.0889718842	-0.1640398692	-1.7245587063	 0.068645
H	 0.9354440785	-2.2162042968	-3.015905118	 0.098751
H	 2.3709278633	-2.2705591298	-1.9658569612	 0.104065
H	 1.5504410658	-4.4168038133	-0.989337977	 0.086467
H	-0.8113711076	-5.0328170756	-1.4694137555	 0.108091
H	-0.7541798221	-4.1249687401	-2.9921136329	 0.099179
H	 0.7800415849	-6.7349356537	-2.4150236248	 0.105512
H	 0.1945169976	-6.2152068996	-4.0056760454	 0.098333
H	 1.8822808991	-4.3680164194	-4.0455830959	 0.098245
H	 2.824316995	-5.3628121873	-2.917704967	 0.100127
23.4825	59.7897	91.2038	119.7314	159.6468	208.4084	232.7703	309.3572	325.7514	384.0148	457.8152	608.0695	651.4661	768.5794	794.3285	893.8727	914.3371	935.0807	973.8388	977.3635	984.2654	1019.9868	1056.0744	1095.976	1130.0853	1141.5043	1154.7159	1180.0156	1205.6345	1230.288	1249.8101	1257.9383	1262.2783	1275.7709	1281.1469	1303.0075	1363.2507	1398.7105	1433.3899	1450.7064	1479.0539	1480.7816	1487.2086	1504.8403	1507.1278	1516.1281	1780.7231	2961.8645	2974.5325	2990.8448	3023.964	3045.019	3052.2742	3055.1069	3060.9997	3063.1551	3074.5462	3100.155	3110.3403	3123.3858
CN=COCC1CCC1	CN=COCC1CCC1	
InChI=1S/C7H13NO/c1-8-6-9-5-7-3-2-4-7/h6-7H,2-5H2,1H3	InChI=1S/C7H13NO/c1-8-6-9-5-7-3-2-4-7/h6-7H,2-5H2,1H3
