20
gdb 68402	2.23933	1.83751	1.55056	2.1681	73.43	-0.2264	0.0555	0.2819	981.7578	0.17115	-440.249842	-440.241465	-440.24052	-440.281823	34.21	
C	-0.0500867524	 1.5382584398	 0.0052735553	-0.459669
C	 0.0623289642	 0.0157137713	-0.0136423815	 0.396734
O	-1.2283713073	-0.5576626452	-0.2064663755	-0.491692
C	 1.0466938649	-0.5874995331	-1.0611499976	-0.212397
N	 2.0000075642	-1.3836079599	-0.2209296703	-0.127942
C	 2.2620541783	-0.3878165255	 0.889908678	-0.248413
C	 0.757202725	-0.5892813776	 1.2298808962	 0.32383
O	 0.1102812038	-0.2332771628	 2.4114736622	-0.500838
C	 1.0238165238	-2.0374052293	 0.7353045121	-0.246123
H	 0.9230317918	 2.0267915857	 0.1050684282	 0.112956
H	-0.5164690868	 1.8849143717	-0.9213216711	 0.123143
H	-0.6725601763	 1.860862128	 0.8467601245	 0.121062
H	-1.741798413	-0.358104328	 0.5858786776	 0.279171
H	 0.5209874457	-1.2408280305	-1.7599587808	 0.121194
H	 1.5972604716	 0.1715805867	-1.6220231348	 0.104112
H	 2.9412546236	-0.8201301512	 1.6301990318	 0.099601
H	 2.6298336401	 0.5892858682	 0.5672219884	 0.103674
H	 0.5021104638	-0.7185320863	 3.1442518715	 0.286158
H	 0.2062731758	-2.5898572033	 0.2709602079	 0.121708
H	 1.5652042692	-2.6581951988	 1.4549064581	 0.09373
169.5268	216.824	229.1061	249.128	296.3513	353.1449	369.8804	386.2435	449.2113	475.2476	520.6654	548.479	612.6077	652.0412	745.5376	843.4025	861.6272	881.0625	931.9526	957.3597	974.1101	983.792	1008.0535	1064.335	1071.103	1107.0408	1133.2219	1183.8467	1194.4291	1214.0685	1218.0176	1226.1138	1268.2926	1300.8713	1317.5585	1368.3838	1391.0531	1410.6585	1487.284	1488.6465	1493.9295	1498.7931	1531.3818	3038.3717	3052.7942	3061.6964	3071.1116	3107.028	3114.609	3121.2157	3128.9678	3140.107	3784.2937	3821.5243
CC1(O)CN2CC1(O)C2	C[C@@]1(O)CN2C[C@]1(O)C2	
InChI=1S/C6H11NO2/c1-5(8)2-7-3-6(5,9)4-7/h8-9H,2-4H2,1H3	InChI=1S/C6H11NO2/c1-5(8)2-7-3-6(5,9)4-7/h8-9H,2-4H2,1H3/t5-/m1/s1
