17
gdb 74361	3.99898	0.8896	0.76119	4.2933	71.05	-0.2309	-0.0148	0.2161	1433.6911	0.136155	-455.176844	-455.16793	-455.166986	-455.212364	31.434	
N	 0.1287970266	 1.3398483299	 0.0909708042	-0.573532
C	 0.0045164458	-0.0178585564	 0.0300453453	 0.476483
N	-1.0601743337	-0.6976198802	 0.2112168843	-0.357703
C	-0.7066923666	-2.0967635818	-0.0488757446	 0.000158
C	-1.5662594901	-2.7002366524	-1.1766830967	-0.281911
C	-3.0419597624	-2.6967235682	-0.8356038926	 0.157682
O	-3.7397709448	-3.6799263168	-0.8426174048	-0.247048
C	 0.8123458656	-2.0544528356	-0.3950589439	-0.125409
O	 1.1572481646	-0.6572792806	-0.3065357161	-0.250566
H	 1.0554490156	 1.686542684	 0.2818408593	 0.266368
H	-0.6179104127	 1.8072826195	 0.579663786	 0.271434
H	-0.8732435028	-2.6895729211	 0.8596841975	 0.092689
H	-1.4249228169	-2.0896777956	-2.0796101447	 0.117738
H	-1.26372063	-3.729202784	-1.3955271386	 0.113762
H	-3.4472202108	-1.6994322452	-0.5659524445	 0.100657
H	 1.4349398929	-2.6089050997	 0.3120674868	 0.120757
H	 1.0324780298	-2.3992525158	-1.4102768369	 0.118441
28.5168	57.2829	85.0336	174.8557	217.6528	328.5064	377.8484	409.1715	469.6401	511.6571	530.151	700.2092	722.8641	749.5207	816.7292	872.6225	936.7152	960.0852	990.8249	1042.5762	1050.8229	1097.062	1130.6041	1179.9035	1213.7339	1239.8636	1283.9509	1314.1254	1344.3895	1380.2971	1419.0282	1437.5433	1456.8407	1523.2455	1619.3215	1755.5151	1827.3396	2925.0738	3008.9827	3021.5911	3049.3111	3093.299	3099.2335	3598.2919	3713.42
NC1=NC(CC=O)CO1	NC1=N[C@@H](CC=O)CO1	
InChI=1S/C5H8N2O2/c6-5-7-4(1-2-8)3-9-5/h2,4H,1,3H2,(H2,6,7)	InChI=1S/C5H8N2O2/c6-5-7-4(1-2-8)3-9-5/h2,4H,1,3H2,(H2,6,7)/t4-/m0/s1
