16
gdb 127939	3.84236	1.15115	0.89074	3.0494	79.98	-0.2002	-0.0462	0.154	1254.7802	0.125214	-434.073197	-434.064996	-434.064052	-434.105818	30.859	
C	-0.0166234629	 1.4277986398	 0.0071255377	-0.341584
N	 0.0493494184	-0.0185992827	 0.0030845565	-0.330065
C	-1.0525717335	-0.6763070056	 0.0095790757	 0.431334
N	-2.3333022907	-0.0857813657	 0.0206312852	-0.311524
N	-3.5188801499	-0.7074487009	 0.0278140817	-0.175531
C	-3.5043802276	-2.002868124	 0.0244061851	-0.104491
C	-2.2842136322	-2.7713277523	 0.0134754776	 0.382644
O	-2.3312453233	-4.1263146179	 0.0104312305	-0.431488
C	-1.0964857983	-2.1211518726	 0.0063315009	-0.268198
H	 0.9974094592	 1.8359447207	 0.0003069275	 0.125028
H	-0.535179302	 1.8418568431	-0.8763671408	 0.101034
H	-0.5214693553	 1.837468151	 0.9005405659	 0.10105
H	-2.406545181	 0.9182189028	 0.0237754686	 0.272342
H	-4.4751266517	-2.4916920952	 0.0303359553	 0.113739
H	-3.2483731712	-4.4198403614	 0.0163911829	 0.304922
H	-0.1531333879	-2.650663959	-0.0019651903	 0.130786
109.9092	158.9805	204.0214	220.2581	296.8498	323.3713	363.7356	403.6094	475.3179	517.1021	590.8711	612.4177	689.1336	721.9127	738.3116	850.47	904.7859	935.2688	1005.8779	1047.3546	1105.7609	1143.3577	1178.3417	1203.4689	1261.731	1298.0366	1389.5253	1421.599	1439.874	1465.4067	1505.0827	1506.3722	1606.3861	1689.2395	1720.2697	2929.6029	2966.3731	3092.8888	3162.1118	3230.279	3654.9851	3822.3489
CN=C1NN=CC(O)=C1	C[N]C1=C[C@@H](C=NN1)O	
InChI=1S/C5H7N3O/c1-6-5-2-4(9)3-7-8-5/h2-3H,1H3,(H2,6,8,9)	InChI=1S/C5H8N3O/c1-6-5-2-4(9)3-7-8-5/h2-4,8-9H,1H3/t4-/m0/s1
