16
gdb 126127	4.53465	0.99643	0.82513	1.3405	71.95	-0.2617	-0.0613	0.2005	1348.3841	0.123523	-437.903955	-437.895515	-437.894571	-437.938205	29.783	
C	 0.0604500996	 1.5277030212	 0.0096568154	-0.384923
C	-0.0475206657	 0.0053508768	 0.0032287227	-0.284549
C	-1.4795787297	-0.4908170362	 0.0127334938	 0.298461
O	-2.4417272895	 0.2465945757	 0.0242535359	-0.307951
C	-1.6994576787	-1.9689775458	 0.0076050852	 0.301378
N	-0.6947239898	-2.819050055	-0.0048081189	-0.185951
O	-1.2662151849	-4.0746954019	-0.0059588645	-0.162142
C	-2.6075960812	-3.9469081868	 0.0059681631	 0.082681
C	-2.9570212235	-2.6391787854	 0.0147924536	-0.32194
H	 1.1092863545	 1.8360061732	 0.0023739452	 0.11323
H	-0.4333950857	 1.9600930265	-0.8643454139	 0.131316
H	-0.4186755191	 1.9516196286	 0.8959181965	 0.131313
H	 0.4509229646	-0.4345561182	-0.8701353602	 0.140082
H	 0.4653506811	-0.4429117987	 0.8638960761	 0.140083
H	-3.1628424225	-4.8716733987	 0.0063306204	 0.161607
H	-3.9351036395	-2.1912718652	 0.0249483392	 0.147306
50.572	67.8823	144.9978	168.4697	214.0127	279.9622	358.8802	494.8384	535.8914	621.8924	701.6932	713.6383	809.3355	828.5499	889.3325	920.5553	932.9485	965.8434	1004.4291	1028.3441	1066.1272	1091.9177	1120.3439	1141.8133	1273.4138	1293.6074	1374.7156	1414.333	1443.5175	1458.5957	1469.0651	1491.8365	1498.2464	1588.6114	1787.1466	3036.2776	3052.0124	3061.3151	3124.1127	3126.0291	3270.9438	3304.1303
CCC(=O)C1=NOC=C1	CCC(=O)c1nocc1	
InChI=1S/C6H7NO2/c1-2-6(8)5-3-4-9-7-5/h3-4H,2H2,1H3	InChI=1S/C6H7NO2/c1-2-6(8)5-3-4-9-7-5/h3-4H,2H2,1H3
