16
gdb 32457	3.2735	1.24177	0.90741	1.9641	69.19	-0.1746	0.0441	0.2187	1234.2551	0.12315	-475.021259	-475.011865	-475.010921	-475.05542	33.474	
C	 0.0462298064	 1.3245411329	-0.0230732979	-0.250782
O	-0.0048899197	-0.091473984	-0.0516384754	-0.279223
C	-1.2525958785	-0.6207680425	-0.0398949648	 0.238444
C	-2.4885445384	-0.0507256929	-0.0012157844	-0.180966
O	-3.4392340263	-1.0467412374	-0.0126224123	-0.181113
C	-2.7903326761	-2.241300388	-0.0378858179	 0.305862
N	-3.5790590098	-3.3860761776	-0.1308442183	-0.601138
C	-1.444871583	-2.0406970069	-0.0530942422	 0.085515
O	-0.475157602	-3.0046953166	-0.067203326	-0.467549
H	 1.1002983612	 1.6049116212	-0.0411721531	 0.135548
H	-0.4638399088	 1.7516746587	-0.8964805919	 0.127023
H	-0.422791729	 1.7145147459	 0.8898604509	 0.125787
H	-2.8563719716	 0.9574906355	 0.0416217638	 0.131076
H	-4.2166968011	-3.4869168927	 0.6530261017	 0.249485
H	-2.9929860696	-4.2098896019	-0.1895361578	 0.258649
H	 0.3744722164	-2.5538908639	-0.1217193145	 0.303382
77.9275	138.9618	167.2653	173.6718	200.3119	218.0764	250.4248	316.0996	353.0559	401.9318	546.5293	580.1175	608.1094	625.2544	683.5557	743.7848	781.382	803.4982	977.0769	1060.2575	1127.5404	1160.589	1182.278	1214.14	1254.024	1274.2711	1345.7382	1362.4251	1471.0765	1481.4349	1502.3788	1512.1453	1631.0744	1643.5699	1748.7732	3003.87	3061.7245	3138.9429	3303.1188	3500.6199	3609.9027	3819.6907
COC1=COC(N)=C1O	COc1coc(N)c1O	
InChI=1S/C5H7NO3/c1-8-3-2-9-5(6)4(3)7/h2,7H,6H2,1H3	InChI=1S/C5H7NO3/c1-8-3-2-9-5(6)4(3)7/h2,7H,6H2,1H3
