14
gdb 22018	2.51296	1.60798	0.9865	3.7255	72.78	-0.2387	-0.0689	0.1698	1108.4319	0.099309	-469.89848	-469.890507	-469.889563	-469.931063	29.56	
C	 0.0915971995	 1.4585009434	 0.0339938345	-0.465875
C	-0.0057894683	-0.0363389669	 0.0529814577	 0.349456
N	-0.1445990697	-0.6279602778	-1.0828621546	-0.140387
O	-0.2396120501	-2.0196049668	-1.1143355348	-0.233751
N	-0.1916257309	-2.7983265401	 0.0217110878	-0.063891
C	-0.0532958679	-2.2106634021	 1.154865695	 0.003135
C	 0.0554015556	-0.772654921	 1.3072801285	 0.221628
N	 0.1956365714	-0.1159109891	 2.4099617649	-0.222462
O	 0.235695576	-0.9680252022	 3.5107543157	-0.379319
H	 1.0357798005	 1.779987761	 0.4844236842	 0.150833
H	 0.0261146363	 1.8216638265	-0.9919451504	 0.148273
H	-0.710452209	 1.8956775932	 0.6367644413	 0.150831
H	-0.0209133642	-2.8638557085	 2.0180336339	 0.163669
H	 0.340861241	-0.3555786696	 4.2470491864	 0.317859
91.8469	174.3002	214.2379	216.8847	295.273	319.9786	402.221	482.0667	484.3328	539.1327	545.6427	626.0361	745.257	773.8587	803.3471	878.6562	905.4304	942.6687	1013.6914	1058.5573	1073.2793	1200.4863	1318.2547	1369.6018	1407.6995	1447.6735	1466.0838	1468.3137	1626.8172	1650.9266	1695.869	3049.4389	3108.2606	3157.0374	3220.5413	3817.7566
CC1=NON=CC1=NO	Cc1noncc1=NO	
InChI=1S/C4H5N3O2/c1-3-4(6-8)2-5-9-7-3/h2,8H,1H3	InChI=1S/C4H5N3O2/c1-3-4(6-8)2-5-9-7-3/h2,8H,1H3
