21
gdb 118205	3.02129	0.83447	0.72164	3.878	77.2	-0.239	0.0633	0.3023	1630.0092	0.18125	-457.580039	-457.56918	-457.568236	-457.616723	38.52	
C	 0.1263022331	 1.3657762844	-0.101213275	-0.225835
O	 0.1109332981	-0.0417415071	-0.0730761989	-0.24429
C	 0.6075151563	-0.5818599616	 1.1382778712	-0.078938
C	 0.5738077349	-2.1036811522	 1.0299695304	 0.042793
C	-0.8565918419	-2.6545385988	 0.9442314995	-0.393666
N	 1.3935482514	-2.4906840217	-0.1126825343	-0.342327
C	 1.9078951378	-3.7613866719	-0.2028661878	 0.456398
N	 2.4827735404	-4.0534936545	-1.4374574989	-0.56631
O	 1.8570789573	-4.5736643297	 0.7043876534	-0.401993
H	 1.146089298	 1.7649897909	 0.0157865956	 0.10662
H	-0.2682723207	 1.6796939844	-1.0706495602	 0.128349
H	-0.5026797996	 1.7943683985	 0.6942940161	 0.109124
H	 1.6400970003	-0.2380489169	 1.3100860929	 0.091609
H	-0.0084466894	-0.250060988	 1.9894896559	 0.090765
H	 1.0593782107	-2.5209126453	 1.9167244433	 0.111221
H	-1.3787633055	-2.2418435219	 0.0765717861	 0.121617
H	-0.8257424622	-3.743068231	 0.8627260308	 0.141589
H	-1.4258694752	-2.3926807131	 1.8427464732	 0.107678
H	 1.2070894105	-1.9773479245	-0.9610019742	 0.243664
H	 2.9063799873	-3.2894368652	-1.9430234161	 0.244698
H	 3.0557263683	-4.8832218349	-1.4012776129	 0.257235
53.1749	68.0327	100.9212	113.0699	161.0354	220.7499	229.9653	254.0517	329.6723	334.751	392.1891	429.8002	483.1222	528.4053	568.7054	609.2683	673.4343	781.3334	856.853	925.4929	936.5422	971.0884	1062.6461	1079.3838	1112.1648	1136.4896	1159.4882	1185.7136	1202.6158	1225.8249	1276.943	1290.4654	1357.5107	1387.6746	1395.6493	1417.2566	1478.565	1485.9936	1492.8047	1496.5467	1502.2542	1520.8414	1528.6468	1626.1223	1793.6473	2964.3618	2977.2764	3003.3325	3020.1636	3040.4506	3080.7709	3111.2328	3114.4925	3137.0444	3570.3939	3618.4248	3684.5781
COCC(C)NC(N)=O	COC[C@@H](C)NC(=O)N	
InChI=1S/C5H12N2O2/c1-4(3-9-2)7-5(6)8/h4H,3H2,1-2H3,(H3,6,7,8)	InChI=1S/C5H12N2O2/c1-4(3-9-2)7-5(6)8/h4H,3H2,1-2H3,(H3,6,7,8)/t4-/m1/s1
