16
gdb 35216	3.82989	1.15795	1.00218	3.9837	74.47	-0.2602	-0.0034	0.2568	1166.3986	0.124288	-400.751725	-400.74393	-400.742986	-400.784811	29.073	
N	-0.0421247267	-1.1360905717	-0.0051312908	-0.334138
C	-0.0044676184	 0.0192201855	-0.0028530085	 0.314318
C	 0.0457987428	 1.465577618	-0.0378783984	-0.194683
O	 0.5254771725	 2.1235110051	 1.1358699698	-0.258893
C	 1.342026304	 2.1776406509	-0.0370393478	 0.420291
C	 2.6995001693	 1.4683075209	 0.0141746121	-0.343961
C	 3.6480860611	 2.5323442165	-0.4774117939	-0.063711
C	 3.0209663051	 3.6429081999	-0.862402509	-0.065977
C	 1.5237558842	 3.5455529906	-0.706693067	-0.344255
H	-0.8174829303	 1.9302305985	-0.5121527395	 0.134164
H	 2.911759379	 1.1360391477	 1.0367231682	 0.137882
H	 2.7175346011	 0.5704195881	-0.6166185157	 0.13494
H	 4.7200279023	 2.3767497912	-0.508076442	 0.104969
H	 3.5024266807	 4.5308304969	-1.254865045	 0.103734
H	 1.0049743041	 3.6023183956	-1.6725091021	 0.121451
H	 1.0999255193	 4.3328148863	-0.0721232604	 0.133869
44.878	117.1412	148.6571	303.3218	371.1876	395.8456	396.8645	453.3516	581.3545	615.039	694.1585	779.8325	785.3159	807.4636	927.747	954.903	960.3754	980.4913	982.8549	1004.4419	1038.2843	1063.1411	1133.5271	1155.9209	1201.116	1209.4795	1276.0751	1294.8715	1346.2494	1372.4873	1446.3105	1469.4928	1477.5686	1689.9658	2359.1783	3022.7276	3029.9139	3060.5376	3067.2644	3125.497	3193.7329	3217.5106
N#CC1OC11CC=CC1	N#C[C@H]1O[C@]21CC=CC2	
InChI=1S/C7H7NO/c8-5-6-7(9-6)3-1-2-4-7/h1-2,6H,3-4H2	InChI=1S/C7H7NO/c8-5-6-7(9-6)3-1-2-4-7/h1-2,6H,3-4H2/t6-/m1/s1
