22
gdb 93897	2.64788	1.49783	1.19407	2.464	81.89	-0.2405	0.0692	0.3097	1149.9467	0.195755	-404.337011	-404.328362	-404.327418	-404.369914	34.111	
C	-0.2094058804	 1.5532839955	 0.0153157261	-0.38386
C	 0.03851053	 0.040205923	-0.0051393171	 0.005337
C	 0.8093754045	-0.4027987492	-1.2607430849	-0.084606
O	 2.1928018175	-0.1162127197	-1.1663351111	-0.256826
C	 2.8645264225	-0.9558996322	-0.2386147156	 0.13881
C	 4.3125714834	-0.4906573552	-0.1741624086	-0.404631
C	 2.18741809	-0.9365968445	 1.1228013664	-0.050821
N	 1.9284331544	 0.3927660711	 1.687395071	-0.32094
C	 0.7904534306	-0.4357612696	 1.2398553411	-0.05121
H	 0.741744431	 2.0886696285	-0.0169358256	 0.147364
H	-0.8172605962	 1.8579412095	-0.8432688509	 0.101657
H	-0.7351285697	 1.8562086513	 0.92665534	 0.103891
H	-0.9296224022	-0.4770595594	-0.0219590874	 0.066443
H	 0.6626504384	-1.4833362589	-1.4292604881	 0.07816
H	 0.4456490127	 0.1275428958	-2.1467898342	 0.099879
H	 2.8230296453	-1.9975162374	-0.6088573937	 0.057454
H	 4.354467791	 0.5213552442	 0.2362541416	 0.139649
H	 4.9028778266	-1.1557528325	 0.4641225927	 0.105701
H	 4.7530207387	-0.4856359509	-1.174639695	 0.120467
H	 2.5055974196	-1.730763246	 1.7964837725	 0.079264
H	 2.0025602043	 0.3685189323	 2.7002945418	 0.228891
H	 0.1728608983	-0.8738985156	 2.0209106188	 0.079927
78.8503	198.7351	216.8105	225.4501	248.8888	283.3014	331.7622	369.8007	430.2161	486.982	551.7464	662.9693	724.2001	752.0684	786.8685	864.2368	869.9342	910.5142	944.6484	959.6876	973.2968	1000.0499	1044.2332	1088.5261	1100.4104	1127.3973	1134.4692	1150.9095	1171.9048	1192.1953	1219.7998	1262.6503	1296.8442	1337.1437	1348.1147	1361.2039	1369.7593	1397.1946	1397.3126	1404.9682	1427.1902	1457.414	1483.6137	1488.5954	1498.4373	1501.3767	1502.9528	2926.7516	2957.4834	3020.6415	3036.6151	3044.6924	3072.4692	3098.0347	3113.5238	3117.3185	3126.074	3132.5692	3135.5397	3509.114
CC1COC(C)C2NC12	C[C@H]1CO[C@@H](C)[C@H]2N[C@@H]12	
InChI=1S/C7H13NO/c1-4-3-9-5(2)7-6(4)8-7/h4-8H,3H2,1-2H3	InChI=1S/C7H13NO/c1-4-3-9-5(2)7-6(4)8-7/h4-8H,3H2,1-2H3/t4-,5-,6-,7+/m0/s1
