17
gdb 19865	3.79791	2.23687	1.96615	0.9378	65.76	-0.2356	0.0715	0.3071	750.972	0.145114	-363.810646	-363.804429	-363.803485	-363.841002	24.667	
C	 0.1421321523	 1.5512344202	 0.1753145508	-0.24999
C	 1.3425053889	 0.7128860131	 0.0094660172	-0.047632
C	 1.6931559144	-0.0783433494	 1.2785651291	 0.098739
O	 1.9311527646	 0.6034187038	 2.4886944039	-0.266587
C	 0.7116075943	 0.7776698751	 3.2174422673	-0.079729
C	-0.3687250366	-0.1382098101	 2.5820749817	-0.262933
C	 0.2494197316	-0.6092376113	 1.2607619459	 0.000983
N	-0.064522158	 0.1096638966	-0.0402693925	-0.147836
H	-0.0994673047	 2.0123732316	 1.1266930175	 0.118047
H	-0.1626822538	 2.138840154	-0.6857338698	 0.124289
H	 1.9630483255	 0.7604659115	-0.8796607673	 0.093107
H	 2.4927756732	-0.8061947599	 1.1207732765	 0.086788
H	 0.9092318394	 0.5198540689	 4.263791648	 0.104805
H	 0.4117196259	 1.8337363085	 3.1924387426	 0.104137
H	-0.5688665639	-1.0004293116	 3.2231954369	 0.114156
H	-1.3167160056	 0.3857274532	 2.4325594831	 0.119744
H	 0.1302561324	-1.6791650145	 1.0921770792	 0.089912
111.765	169.7589	298.5779	415.8528	549.8799	629.5116	710.2256	721.2473	738.7202	809.8764	834.2543	872.8284	921.0164	933.9444	961.4516	991.4566	1013.5816	1050.7484	1059.7395	1099.0785	1106.5371	1141.2848	1156.6046	1203.8572	1219.0291	1228.0483	1244.9281	1271.5751	1307.8715	1331.054	1355.2607	1370.6156	1400.138	1484.9518	1509.9032	1541.2598	3008.6475	3052.3455	3065.3798	3079.3675	3105.015	3117.0581	3129.2467	3163.3034	3210.8484
C1C2C3OCCC3N12	C1[C@H]2[C@H]3OCC[C@H]3N12	
InChI=1S/C6H9NO/c1-2-8-6-4(1)7-3-5(6)7/h4-6H,1-3H2	InChI=1S/C6H9NO/c1-2-8-6-4(1)7-3-5(6)7/h4-6H,1-3H2/t4-,5+,6+,7?/m1/s1
