23
gdb 75599	2.1796	1.53098	1.06037	1.2706	87.71	-0.2362	0.0162	0.2524	1240.7177	0.207399	-388.295294	-388.286296	-388.285352	-388.328488	35.255	
C	 0.020877953	 1.5372395212	-0.0197688684	-0.479381
C	 0.0741118942	 0.033607306	 0.0042903564	 0.301513
C	 0.0621116714	-0.7101384627	-1.1063771436	-0.136065
C	 0.0356031126	-2.2196942706	-1.1647317158	-0.255891
C	-1.3570900314	-2.8369889795	-0.902306441	-0.177501
C	-1.8927112857	-2.7548713624	 0.5398805924	-0.212553
C	-2.2525918958	-1.3542939372	 1.0799004792	-0.05165
O	-1.279951914	-0.7230152641	 1.9017921773	-0.256614
C	 0.0385263514	-0.6102944861	 1.3692663898	-0.153654
H	 0.9073460381	 1.9735027285	 0.4589869523	 0.120911
H	-0.042462066	 1.9280963605	-1.0389939508	 0.115789
H	-0.8470437059	 1.9004949612	 0.5443437293	 0.135305
H	 0.0223069835	-0.1977506993	-2.0670773736	 0.078388
H	 0.3686381699	-2.5388750854	-2.1583214934	 0.096074
H	 0.7514069148	-2.6521698943	-0.4546799056	 0.106188
H	-2.086110416	-2.3671145059	-1.575845853	 0.095935
H	-1.318343213	-3.8956359648	-1.1883107071	 0.092217
H	-2.8090751597	-3.356898826	 0.5729954814	 0.098044
H	-1.198785756	-3.2372159292	 1.2400686453	 0.105456
H	-2.5367049488	-0.7026964954	 0.2398877073	 0.087182
H	-3.1234794218	-1.432510141	 1.7380062821	 0.102034
H	 0.5233129863	-1.5952671774	 1.3456499719	 0.088032
H	 0.5770063588	 0.000386564	 2.1016724975	 0.100241
113.7565	166.0617	171.5212	201.875	242.9033	289.0788	335.6933	357.8621	391.1168	472.311	476.707	539.5596	620.2197	742.6854	791.5491	838.0617	865.6555	899.0373	912.506	955.149	978.952	1008.0233	1031.7805	1067.2914	1079.9319	1091.2721	1120.1602	1134.4978	1166.1873	1228.8134	1255.1037	1277.1408	1301.0805	1328.3008	1353.8332	1365.7628	1373.515	1388.6351	1401.183	1410.795	1419.7887	1472.8704	1477.4787	1484.7989	1487.5905	1493.9293	1497.9855	1516.4272	1733.5405	2990.0926	3011.4036	3012.6464	3015.8863	3023.9449	3024.8966	3051.6499	3061.78	3064.6845	3065.9727	3069.6364	3075.223	3109.8982	3129.8176
CC1=CCCCCOC1	CC1=CCCCCOC1	
InChI=1S/C8H14O/c1-8-5-3-2-4-6-9-7-8/h5H,2-4,6-7H2,1H3/b8-5-	InChI=1S/C8H14O/c1-8-5-3-2-4-6-9-7-8/h5H,2-4,6-7H2,1H3/b8-5-
