23
gdb 117217	3.80276	0.73473	0.70862	2.3991	88.2	-0.2383	-0.0078	0.2305	1764.4842	0.203707	-388.314753	-388.304167	-388.303223	-388.351369	38.265	
C	 0.1504845169	 1.6072998092	-0.0272840975	-0.386656
C	-0.0303170176	 0.087598492	-0.00539304	-0.161701
C	 0.7260299657	-0.580472383	 1.1414155507	-0.288181
C	 0.5561132249	-2.0929773425	 1.2045874014	 0.378654
O	-0.1574813068	-2.6890737982	 0.4206133089	-0.335102
C	 1.3196226887	-2.7843210122	 2.2828568795	-0.123191
C	 0.8443293413	-4.1469159578	 2.7592434704	-0.285929
C	 2.1148597	-4.06708669	 1.9828956154	 0.017096
C	 2.2395934378	-4.6407003657	 0.5897422393	-0.417848
H	 1.205331638	 1.8833853819	-0.1386257761	 0.111263
H	-0.3995903833	 2.0588592668	-0.858567914	 0.114501
H	-0.2128196629	 2.0666094416	 0.899244038	 0.11157
H	-1.0925059418	-0.1667623911	 0.0739245422	 0.112678
H	 0.3050814617	-0.3465910543	-0.9534939417	 0.110013
H	 1.8032072367	-0.3643592597	 1.0848579286	 0.117696
H	 0.4095051699	-0.1696825113	 2.1121178615	 0.118364
H	 1.7665469381	-2.1260992834	 3.0207688939	 0.082219
H	 0.8782605023	-4.3457213697	 3.8245629078	 0.112875
H	-0.0292492596	-4.5274309848	 2.2400691238	 0.136752
H	 3.025122763	-4.1331868938	 2.5741235916	 0.091072
H	 1.3173971674	-4.5046328238	 0.022730368	 0.156572
H	 3.0562325407	-4.1636685628	 0.0366952004	 0.111919
H	 2.4581559688	-5.7129009572	 0.6445068779	 0.115363
38.3046	58.7492	104.4137	128.3404	180.2944	226.0558	245.2604	252.705	319.0685	351.4972	394.0838	410.222	582.2985	679.6155	738.4018	760.1361	806.4448	856.4928	871.4902	892.4064	912.4563	951.7531	996.4286	1048.3995	1063.9947	1081.136	1092.7432	1110.286	1120.55	1143.7447	1148.9362	1208.3749	1236.6507	1246.7181	1309.5766	1319.6231	1383.9102	1393.0322	1412.1293	1415.7374	1425.1702	1450.7803	1475.5417	1486.3749	1500.0606	1500.1492	1506.6128	1508.0302	1776.0686	3001.606	3026.8245	3027.3965	3033.9956	3049.0425	3073.7231	3088.749	3098.7774	3102.4002	3127.6932	3132.9461	3146.6963	3159.9173	3225.9015
CCCC(=O)C1CC1C	CCCC(=O)[C@H]1C[C@H]1C	
InChI=1S/C8H14O/c1-3-4-8(9)7-5-6(7)2/h6-7H,3-5H2,1-2H3	InChI=1S/C8H14O/c1-3-4-8(9)7-5-6(7)2/h6-7H,3-5H2,1-2H3/t6-,7+/m1/s1
