16
gdb 78001	3.06497	1.31336	1.09309	4.1778	71.06	-0.2613	-0.0124	0.2489	1115.2482	0.123282	-437.849577	-437.841304	-437.84036	-437.882234	31.183	
C	-0.1041097618	 1.5489795685	-0.0157790204	-0.430119
C	 0.1811559992	 0.0637618389	 0.0305090368	 0.133129
O	 1.3690014344	-0.3549921699	-0.73820086	-0.348122
C	 1.8082547559	-1.1733593776	 0.3529236398	 0.273808
C	 2.2652994159	-2.4995317151	 0.0964067642	 0.211498
N	 2.6445554067	-3.5777726189	-0.0848405025	-0.342441
C	 2.2002506289	-0.2718106482	 1.4857808846	 0.082514
O	 2.7866239496	 0.9577268167	 1.2386267516	-0.423724
C	 0.7319120486	-0.5982574348	 1.2925891053	-0.245137
H	 0.6990791491	 2.1308155392	 0.4383758409	 0.143133
H	-0.2474884544	 1.8718735128	-1.051746589	 0.137583
H	-1.0303398612	 1.7565948216	 0.5305153353	 0.132613
H	-0.6710441786	-0.5058417935	-0.3579537901	 0.109387
H	 2.6411891747	-0.7721690929	 2.3429747201	 0.137602
H	 2.7384749567	 1.0993297829	 0.2827341144	 0.302622
H	 0.1466368263	-1.1101499396	 2.0448442188	 0.125653
119.1806	149.5932	187.552	226.358	235.3945	313.0705	395.5255	445.3398	471.6283	512.3739	548.3451	620.6809	707.2711	747.2066	823.8314	855.2897	901.0153	945.2456	995.3012	1025.129	1068.4976	1084.4351	1114.5985	1153.132	1182.1281	1237.593	1297.5329	1313.7209	1363.3853	1390.0921	1412.4976	1463.4975	1487.965	1501.6637	2346.7139	3039.5246	3046.4218	3109.4641	3148.3335	3168.975	3208.9817	3750.0464
CC1OC2(C#N)C(O)C12	C[C@H]1O[C@@]2(C#N)[C@@H](O)[C@@H]12	
InChI=1S/C6H7NO2/c1-3-4-5(8)6(4,2-7)9-3/h3-5,8H,1H3	InChI=1S/C6H7NO2/c1-3-4-5(8)6(4,2-7)9-3/h3-5,8H,1H3/t3-,4-,5+,6-/m1/s1
