20
gdb 10990	2.78413	2.30059	1.68886	1.2072	74.03	-0.2493	0.0756	0.325	871.3204	0.178438	-349.000619	-348.993048	-348.992104	-349.031747	30.599	
C	-0.155549603	 1.5363831197	 0.0252454421	-0.434452
C	 0.0141934127	 0.022752434	 0.0219386074	 0.020158
C	 1.1306348916	-0.5973760704	-0.8816283068	-0.024951
C	 2.1393466059	-0.2707505311	 0.256419973	-0.304727
C	 0.8951620598	-0.5988581325	 1.1450780629	 0.429683
O	 0.7280050111	-0.1210631349	 2.4441173021	-0.493209
C	 0.7138587304	-2.1096676811	 0.8876008938	-0.277031
C	 0.8973912574	-2.1087947537	-0.6659485007	-0.216262
H	 0.7926360025	 2.0774259304	 0.0792800604	 0.116897
H	-0.6723665407	 1.8647589786	-0.8830240997	 0.109453
H	-0.7581860458	 1.846987007	 0.8846259118	 0.127508
H	-0.9715601096	-0.4471408491	-0.0847279284	 0.056034
H	 1.2905990372	-0.2509661085	-1.9024425442	 0.058741
H	 3.0246649338	-0.9079977144	 0.3515518659	 0.078823
H	 2.4286682659	 0.7783088602	 0.3035415402	 0.102473
H	 1.2653121067	-0.6552943954	 3.0386772128	 0.27696
H	 1.4703657868	-2.7102156707	 1.4052343629	 0.083611
H	-0.2728716797	-2.4572572638	 1.2068254292	 0.099559
H	 0.0100435217	-2.4723042822	-1.1922276665	 0.096344
H	 1.7511721552	-2.7114068222	-0.9890855581	 0.094388
175.6244	204.5019	235.4934	252.4224	294.8789	379.7096	421.9848	454.8521	545.9648	602.3336	665.9514	778.8455	812.9574	845.7925	875.5963	894.8941	938.316	966.5744	973.2042	1006.8163	1037.3648	1067.8107	1096.1761	1121.4915	1130.3638	1147.8287	1187.5388	1218.5509	1225.2948	1250.4295	1262.7757	1267.3689	1309.0257	1322.3708	1363.5909	1409.0138	1413.1687	1489.9285	1492.5312	1497.5972	1506.8519	1524.5011	3019.3487	3036.2272	3037.3804	3050.3431	3054.8677	3081.6849	3098.3	3100.7524	3113.3	3115.808	3142.6562	3806.2155
CC1C2CC1(O)CC2	C[C@H]1[C@H]2C[C@]1(O)CC2	
InChI=1S/C7H12O/c1-5-6-2-3-7(5,8)4-6/h5-6,8H,2-4H2,1H3	InChI=1S/C7H12O/c1-5-6-2-3-7(5,8)4-6/h5-6,8H,2-4H2,1H3/t5-,6+,7+/m0/s1
