22
gdb 94042	4.6549	0.78704	0.70785	4.1363	86.45	-0.3116	0.038	0.3497	1619.2749	0.195427	-367.25712	-367.247647	-367.246703	-367.292306	34.948	
C	-0.1634897023	 1.5519015046	 0.0144075628	-0.410086
C	 0.0606484852	 0.0412984861	 0.0161797911	 0.047929
C	 0.8526795326	-0.4854395707	-1.2078867155	-0.216817
C	 1.6176473563	-1.7489728945	-0.7233131307	-0.219651
C	 1.2565215318	-1.9111752473	 0.774778577	 0.036376
C	 2.3717925109	-2.5339637353	 1.6336448298	-0.370033
C	 2.7099639146	-3.8973972105	 1.2265425213	 0.264531
N	 2.9614708227	-4.9748969819	 0.8925674318	-0.31312
C	 0.8623469026	-0.4929824279	 1.2150717974	-0.228069
H	 0.792636885	 2.088556228	 0.0145434925	 0.112424
H	-0.7212233203	 1.8687385188	-0.8732430773	 0.115837
H	-0.7291270634	 1.8760070992	 0.8945101676	 0.112699
H	-0.9200139328	-0.454333039	 0.0303405605	 0.074007
H	 0.1938638418	-0.6946649225	-2.0551638189	 0.101859
H	 1.5599653574	 0.2803921491	-1.5453618411	 0.098492
H	 1.3656174872	-2.6446688907	-1.2958256817	 0.117951
H	 2.6987210947	-1.6065842838	-0.8324648489	 0.101741
H	 0.3715656893	-2.5539784181	 0.8587443695	 0.091834
H	 3.2783011645	-1.9190447754	 1.5720943505	 0.146442
H	 2.0748897916	-2.5552298863	 2.6888439063	 0.148124
H	 1.7649206454	 0.1188814341	 1.3610137594	 0.091218
H	 0.2997420454	-0.4743463761	 2.1542553266	 0.09631
49.7095	64.2698	95.0349	165.281	233.7956	258.0088	347.9635	396.1892	400.76	417.6623	458.0633	565.7397	635.5042	782.8069	834.5041	841.1622	894.5476	922.1017	925.8083	949.9641	994.2388	1002.4979	1031.8887	1061.9703	1081.6921	1131.3912	1157.6635	1182.7808	1218.4546	1252.7422	1267.4153	1291.0198	1302.9914	1313.2283	1330.5684	1352.9852	1358.2952	1386.3372	1388.848	1411.9872	1464.2713	1488.7001	1491.043	1497.5063	1499.5169	1514.7052	2359.8877	2998.2161	3007.9371	3024.7558	3026.3801	3035.1374	3038.0108	3051.0208	3072.3744	3077.589	3082.4532	3092.4924	3096.6248	3105.8921
CC1CCC(CC#N)C1	C[C@H]1CC[C@@H](CC#N)C1	
InChI=1S/C8H13N/c1-7-2-3-8(6-7)4-5-9/h7-8H,2-4,6H2,1H3	InChI=1S/C8H13N/c1-7-2-3-8(6-7)4-5-9/h7-8H,2-4,6H2,1H3/t7-,8-/m0/s1
