22
gdb 87998	2.59081	1.29217	1.24837	1.6149	82.52	-0.2314	0.0785	0.3099	1189.707	0.191444	-404.308292	-404.298381	-404.297437	-404.342609	37.217	
C	-0.1880647977	 1.3230201488	-0.161931209	-0.318931
N	 0.1879496946	-0.0778570948	-0.0316842712	-0.12206
C	 1.6205322978	-0.3855675936	-0.0444100944	-0.32037
C	 0.8206522581	-0.4992854252	 1.1970762687	 0.252197
C	 0.9747644029	 0.2508425716	 2.5175933215	-0.153249
O	 0.6189890226	-0.9349298317	 3.2518170699	-0.333093
C	 0.4065296113	-1.7223446866	 2.0334581386	 0.347397
C	-1.0530886381	-2.128556933	 1.8937196364	-0.415306
C	 1.3548792704	-2.9118874274	 1.9980271172	-0.429106
H	 0.5213044599	 2.0202141802	 0.3143134995	 0.101831
H	-0.2531000009	 1.5772949234	-1.2241582364	 0.126707
H	-1.1746536574	 1.4792360816	 0.2857685317	 0.126741
H	 1.9121662363	-1.2683557303	-0.6080332371	 0.116476
H	 2.3218604512	 0.4473490906	-0.1070148591	 0.105392
H	 1.9840432568	 0.6042267622	 2.7638740492	 0.102464
H	 0.2634660739	 1.0715837069	 2.6837622438	 0.100883
H	-1.7065051377	-1.2549846485	 1.9604178769	 0.115497
H	-1.2270783981	-2.6096284144	 0.9267326338	 0.122938
H	-1.3274780677	-2.8285398076	 2.6893602448	 0.117166
H	 1.134907157	-3.5919325704	 2.8271870218	 0.123759
H	 1.2457890339	-3.4697323697	 1.0618078906	 0.116133
H	 2.393930391	-2.5838988621	 2.0893501828	 0.116532
70.4396	133.7309	173.4556	190.4892	211.0186	227.6258	248.753	281.1734	343.4325	385.3275	421.3613	488.5042	516.1051	572.7324	675.3697	794.056	852.5451	873.4312	922.9617	931.4407	973.0516	993.7287	1021.6679	1046.4656	1062.7376	1108.9129	1130.2582	1153.0486	1159.7641	1172.9459	1200.6703	1219.7392	1238.8101	1289.0159	1327.7937	1396.5636	1409.2351	1435.2825	1450.7162	1470.9901	1476.5803	1492.1657	1493.8148	1496.8678	1499.0473	1518.3519	1521.7918	2965.2317	3000.592	3033.7851	3039.2787	3041.7109	3069.3853	3078.4662	3103.8822	3106.1354	3114.8743	3116.2481	3122.1016	3168.3878
CN1CC11COC1(C)C	CN1C[C@]21COC2(C)C	
InChI=1S/C7H13NO/c1-6(2)7(5-9-6)4-8(7)3/h4-5H2,1-3H3	InChI=1S/C7H13NO/c1-6(2)7(5-9-6)4-8(7)3/h4-5H2,1-3H3/t7-,8?/m0/s1
