14
gdb 11196	5.00139	1.34964	1.07683	3.3768	66.35	-0.2537	-0.0691	0.1847	1016.5036	0.106166	-382.587232	-382.58005	-382.579106	-382.619259	25.886	
O	-0.0805550769	-0.0107680671	 0.0005495163	-0.264388
C	-0.0022808316	 1.1972269175	 0.0096588849	 0.076419
C	 1.2628970083	 1.9378231728	 0.0016323994	 0.233718
C	 1.3470887444	 3.2789257738	 0.011524486	-0.151935
C	 2.7628561831	 3.7686042487	-0.0005478314	-0.374242
C	 3.5911215955	 2.4654247954	-0.0199177504	 0.393174
O	 4.7896797503	 2.4011070683	-0.0357419241	-0.292293
C	 2.6157497047	 1.2773937198	-0.0189947538	-0.428041
H	-0.912551907	 1.8373730543	 0.0248318406	 0.072266
H	 0.4882591131	 3.9421281989	 0.0263444683	 0.120074
H	 3.0042017602	 4.3872618055	-0.8746232826	 0.152274
H	 3.0238333192	 4.3733244696	 0.8776394564	 0.152198
H	 2.7948554161	 0.6319015484	 0.8486514715	 0.155351
H	 2.7752591406	 0.6462510741	-0.9008967211	 0.155424
68.6822	122.082	172.943	287.9882	423.8823	452.498	462.8782	481.1032	627.8138	734.1454	780.3096	788.7569	844.7289	886.8388	994.8368	1000.8979	1039.0871	1119.083	1124.6614	1176.8929	1194.3065	1262.8128	1282.2028	1372.8018	1418.8064	1428.7979	1438.2324	1673.7645	1788.8128	1861.6119	2882.5374	3030.3882	3048.8471	3058.6491	3078.6426	3190.3662
O=CC1=CCC(=O)C1	O=CC1=CCC(=O)C1	
InChI=1S/C6H6O2/c7-4-5-1-2-6(8)3-5/h1,4H,2-3H2	InChI=1S/C6H6O2/c7-4-5-1-2-6(8)3-5/h1,4H,2-3H2
