21
gdb 104230	2.19622	1.32232	1.06007	2.3162	81.81	-0.2299	0.0291	0.2591	1277.6865	0.180634	-420.399899	-420.389361	-420.388417	-420.435738	37.725	
C	-0.0918459743	 1.6583049402	-0.0016740261	-0.395129
C	-0.0919823809	 0.1273232142	-0.0069191986	-0.219997
C	 0.7251442252	-0.4747529543	 1.1366681585	 0.313277
O	 0.2366690217	-0.0644704546	 2.3977077164	-0.485511
C	 0.9744039224	-2.018321152	 1.0278474063	-0.21254
N	 2.3797733222	-1.7020908629	 0.697060055	-0.355038
C	 2.2502772347	-0.3608898824	 1.0287635639	 0.357943
N	 3.0180103725	 0.6105477746	 1.2816898623	-0.339961
C	 4.4543916815	 0.37493862	 1.2463413486	-0.335194
H	 0.9265704578	 2.0502394375	-0.0776970764	 0.138575
H	-0.6771138944	 2.0506123173	-0.8384869697	 0.107261
H	-0.5317274462	 2.0365491937	 0.9253104388	 0.121333
H	-1.1189021956	-0.2489661316	 0.0844535254	 0.10115
H	 0.3037535285	-0.2520025725	-0.9570020731	 0.098964
H	 0.8490088075	 0.6084141884	 2.7196391918	 0.293762
H	 0.8358001277	-2.5153845919	 1.9921776384	 0.117535
H	 0.4416337425	-2.5546262793	 0.2376112664	 0.10677
H	 3.1834491898	-2.2896262446	 0.8670381345	 0.244631
H	 4.7506975503	-0.5808191461	 1.7079488675	 0.094187
H	 4.8315860906	 0.3733870251	 0.2145721697	 0.122955
H	 4.9685496367	 1.1768098311	 1.7829234106	 0.125027
49.6806	94.9773	106.5415	141.0867	185.4469	222.925	234.4778	267.318	310.0639	325.4618	365.7316	450.5873	468.8801	573.1547	709.8757	722.0465	788.5907	804.0889	912.7929	931.5185	994.6013	1002.7651	1041.1682	1050.5802	1109.4681	1113.1869	1143.6277	1164.5351	1190.0778	1209.2678	1222.5732	1287.5742	1319.3133	1362.116	1374.9623	1380.8331	1408.756	1439.2481	1477.4064	1487.6503	1495.3042	1505.5151	1514.2808	1515.4163	1809.6981	2970.4786	3022.8911	3035.7077	3044.0033	3047.8356	3062.1596	3096.454	3105.8749	3113.9888	3122.103	3596.7332	3785.5964
CCC1(O)CNC1=NC	CC[C@@]1(O)CNC1=NC	
InChI=1S/C6H12N2O/c1-3-6(9)4-8-5(6)7-2/h9H,3-4H2,1-2H3,(H,7,8)	InChI=1S/C6H12N2O/c1-3-6(9)4-8-5(6)7-2/h9H,3-4H2,1-2H3,(H,7,8)/t6-/m1/s1
