22
gdb 119610	4.13111	0.89777	0.82836	1.1826	82.13	-0.2433	0.0856	0.3289	1489.7426	0.195521	-404.337329	-404.328342	-404.327397	-404.371425	33.935	
C	 0.170107694	 1.589398704	-0.0708370035	-0.382126
C	 0.2164124201	 0.0596967357	-0.0710233794	-0.165
C	 0.4467021217	-0.5298669638	 1.328566304	-0.272322
C	 0.5565379108	-2.034809208	 1.3296328388	 0.329682
C	-0.6633161514	-2.8954425285	 1.0183060205	-0.150101
O	-0.3153124976	-4.2201570627	 1.411823844	-0.259933
C	 0.5778699255	-4.1256521854	 2.5199393111	-0.108677
C	 1.3556848825	-2.8452941597	 2.2877464458	-0.10366
N	 1.8448051155	-2.6203869062	 0.9199246014	-0.373657
H	 1.1074067966	 2.0121500493	 0.307628542	 0.116733
H	 0.0102767477	 1.9838972693	-1.0790554802	 0.112067
H	-0.6404292427	 1.9632488859	 0.5651334143	 0.112056
H	-0.7199846782	-0.3329684417	-0.4884255438	 0.093898
H	 1.0193283165	-0.289315154	-0.7312266038	 0.113206
H	 1.3712720774	-0.1148926561	 1.7453614704	 0.105679
H	-0.3690540954	-0.2243932965	 1.9986083869	 0.091494
H	-1.5347214963	-2.5223551678	 1.5824101155	 0.093238
H	-0.9314941597	-2.9328353135	-0.0429173352	 0.111672
H	 0.0333381965	-4.0685377726	 3.4768849967	 0.096452
H	 1.1895449095	-5.03435319	 2.524187193	 0.112934
H	 1.9427937132	-2.4153040726	 3.0932034793	 0.093161
H	 1.6877265234	-3.458557995	 0.3610028224	 0.233204
71.5561	91.3373	119.3096	241.5156	249.2969	274.8993	304.4808	335.0157	414.1307	452.9776	661.2304	706.1432	744.674	767.6505	859.3612	875.1762	902.6823	907.0703	938.0792	968.0564	1019.4485	1034.2471	1047.4583	1074.3533	1092.1306	1102.646	1129.5443	1158.9688	1183.8439	1218.7522	1250.1572	1261.77	1299.5398	1306.0946	1325.5609	1337.4734	1363.2967	1373.7816	1394.7565	1414.074	1457.8643	1473.7817	1492.3634	1500.5239	1507.0089	1509.7074	1519.0615	2964.9549	2973.9594	3013.0823	3020.9875	3029.0515	3053.3895	3065.4045	3068.1531	3072.8103	3096.854	3102.4607	3163.2034	3466.4436
CCCC12COCC1N2	CCC[C@]12COC[C@H]1N2	
InChI=1S/C7H13NO/c1-2-3-7-5-9-4-6(7)8-7/h6,8H,2-5H2,1H3	InChI=1S/C7H13NO/c1-2-3-7-5-9-4-6(7)8-7/h6,8H,2-5H2,1H3/t6-,7+/m1/s1
