16
gdb 49741	3.73068	1.41659	1.30151	2.1342	75.37	-0.2221	-0.0566	0.1655	986.5365	0.123466	-400.621913	-400.614874	-400.61393	-400.65363	27.495	
O	-0.4641709151	 0.6989674608	-0.8387957736	-0.235479
C	 0.0671667041	 1.1152489262	 0.1561174711	 0.144811
C	 1.3634385975	 1.9136790213	 0.1833537084	-0.073865
C	 1.5320899745	 2.7894545408	-1.045938269	-0.119513
C	 1.9189798545	 4.0065844066	-0.6182783894	 0.01963
C	 0.7643381703	 4.9746355996	-0.3120326414	-0.269599
C	 0.8948973596	 4.3270467632	 1.1300321759	-0.046598
C	 2.2921315878	 3.9252392963	 0.8827167993	-0.082647
N	 1.3912065387	 2.8814593124	 1.3251861109	-0.142371
H	-0.3484499613	 0.9343901674	 1.1713146739	 0.102743
H	 2.1575169391	 1.1781250341	 0.3967710058	 0.123825
H	 0.8857076674	 2.6243402706	-1.9012725941	 0.129225
H	 1.0128232744	 6.0378660169	-0.2184688046	 0.117662
H	-0.1541719718	 4.847484242	-0.8890372882	 0.117638
H	 0.4685736243	 4.7517705111	 2.0325271206	 0.114722
H	 3.2204669762	 4.1729077806	 1.3836289343	 0.099816
76.0906	152.7518	210.7213	355.6249	410.9306	465.1469	551.6973	644.8063	663.1243	754.9039	758.7233	799.6791	813.6486	861.4414	892.0377	910.4568	956.5865	996.8338	1008.6104	1018.2567	1064.2639	1075.5869	1079.1962	1102.9814	1184.1348	1198.4569	1212.0371	1229.327	1255.6694	1298.788	1315.0829	1397.7492	1498.688	1580.5056	1830.4914	2902.8264	2967.7491	3036.1996	3111.9261	3173.2301	3187.4029	3191.0772
O=CC1C=C2CC3C2N13	O=C[C@H]1[CH][C]2C[C@@H]3[C@H]2N13	
InChI=1S/C7H7NO/c9-3-5-1-4-2-6-7(4)8(5)6/h1,3,5-7H,2H2	InChI=1S/C7H7NO/c9-3-5-1-4-2-6-7(4)8(5)6/h1,3,5-7H,2H2/t5-,6-,7+,8?/m1/s1
