20
gdb 97057	3.00867	1.22734	0.89094	2.921	89.1	-0.2232	-0.0125	0.2108	1344.8264	0.169412	-403.189734	-403.179699	-403.178755	-403.225312	35.218	
C	-0.050840642	 1.414253275	 0.0079628524	-0.332549
N	-0.0124549464	-0.0363162928	 0.0674180767	-0.335814
C	-1.0904705881	-0.6940337927	 0.0178444071	 0.393952
O	-2.3542455481	-0.1537730082	-0.0904875876	-0.262947
C	-3.3066340013	-1.213461795	-0.1290554202	-0.175322
C	-2.5062923068	-2.4848461756	-0.0237398603	 0.186838
C	-3.1692067661	-3.8217134062	-0.0291861386	-0.499975
C	-1.2076667891	-2.1616377879	 0.0630062831	 0.111618
C	 0.0049581489	-3.0233493249	 0.1834115467	-0.495275
H	 0.7107640538	 1.7629251958	-0.6984343679	 0.119155
H	-1.0220467166	 1.8293162101	-0.2849672363	 0.12134
H	 0.2179579994	 1.8276917255	 0.9885894346	 0.121339
H	-4.0167896101	-1.0901724614	 0.7013451705	 0.119015
H	-3.8802326914	-1.1519099737	-1.065323203	 0.118821
H	-3.8790201034	-3.9145058064	 0.8026059273	 0.134501
H	-3.7458374538	-3.9732754264	-0.9505219535	 0.134508
H	-2.4456124328	-4.6354369512	 0.0530697433	 0.136307
H	 0.6902211531	-2.8359884822	-0.6497137634	 0.144699
H	 0.558698617	-2.7779051657	 1.0955419836	 0.144376
H	-0.2453913259	-4.086596506	 0.2001606956	 0.115411
45.5265	94.6242	106.7408	149.4383	195.7168	210.5824	217.4886	267.9259	319.7059	339.1023	503.2332	505.2352	607.0562	667.9989	735.3351	747.1523	886.0049	966.0417	969.4467	1039.786	1062.7021	1070.3057	1087.5567	1091.1112	1130.3545	1142.5136	1169.9413	1202.4776	1225.2884	1358.4753	1380.7143	1418.203	1421.6866	1437.5277	1471.4599	1481.615	1483.6602	1488.5054	1492.5619	1497.9364	1505.8805	1736.4862	1778.5167	2996.1925	3010.3871	3021.1843	3022.16	3042.2921	3065.0291	3065.1991	3084.4111	3096.6178	3123.0713	3127.0602
CN=C1OCC(C)=C1C	CN=C1OCC(=C1C)C	
InChI=1S/C7H11NO/c1-5-4-9-7(8-3)6(5)2/h4H2,1-3H3	InChI=1S/C7H11NO/c1-5-4-9-7(8-3)6(5)2/h4H2,1-3H3
