23
gdb 103169	2.00978	1.42246	1.08527	2.6349	81.39	-0.2441	0.0646	0.3087	1256.7068	0.203817	-425.416743	-425.406248	-425.405304	-425.451552	39.637	
C	-0.0581514086	 1.5751970103	-0.1306655176	-0.412585
C	 0.052627354	 0.0642704521	 0.0172400867	-0.014761
C	 1.0484421386	-0.7097242359	-0.8949754413	-0.277861
C	 1.3319464163	-1.6523140304	 0.2857354846	 0.138981
O	 2.6690900373	-2.0645648513	 0.4207778536	-0.435592
C	 0.7613105104	-0.572824628	 1.2658094532	 0.27072
C	 1.8579719979	 0.2986177437	 1.8807250903	-0.440473
C	-0.1426827534	-1.1466468422	 2.3458010369	-0.152529
O	 0.650415332	-2.0467852382	 3.1203637696	-0.431496
H	 0.9177980549	 2.063171236	-0.0490120588	 0.117703
H	-0.474888227	 1.8333936549	-1.1106924185	 0.114179
H	-0.7151970718	 2.0101068142	 0.6310711354	 0.110442
H	-0.9465079808	-0.3773370511	-0.0826371349	 0.063924
H	 0.670327822	-1.1466623039	-1.8220027551	 0.093492
H	 1.9337156986	-0.1087352514	-1.1234616243	 0.109248
H	 0.6547878144	-2.5195717367	 0.2616611265	 0.058427
H	 2.7272225744	-2.5583189161	 1.2465477046	 0.286978
H	 2.5866928746	 0.6302958462	 1.1376152391	 0.120545
H	 1.4259081921	 1.1854525638	 2.3575167481	 0.103708
H	 2.3982829648	-0.2642327803	 2.6454299925	 0.124087
H	-0.5616473879	-0.3463088262	 2.9773862447	 0.083866
H	-0.9865640274	-1.6796893222	 1.8795349756	 0.079568
H	 0.0977054746	-2.4266574073	 3.8091491589	 0.289431
86.3522	104.7709	159.8653	206.4714	219.749	240.673	250.9521	269.8183	303.2702	334.5751	381.968	411.2539	445.2195	498.2385	546.2476	601.9952	729.5137	822.1494	875.8927	909.7586	952.6825	962.1793	971.6334	1024.1901	1049.2224	1055.073	1097.7806	1140.1791	1157.706	1171.4703	1207.1679	1224.4565	1243.562	1257.4527	1266.2604	1285.6431	1307.8007	1348.6474	1378.1327	1406.8708	1410.556	1434.8511	1449.9411	1483.9656	1492.0718	1494.9499	1501.1355	1506.8809	1518.4397	2959.5083	2979.2106	2992.3581	3023.9836	3028.4086	3040.3344	3059.2423	3087.9762	3104.4417	3109.1859	3114.0433	3130.087	3803.5687	3833.5004
CC1CC(O)C1(C)CO	C[C@H]1C[C@@H](O)[C@]1(C)CO	
InChI=1S/C7H14O2/c1-5-3-6(9)7(5,2)4-8/h5-6,8-9H,3-4H2,1-2H3	InChI=1S/C7H14O2/c1-5-3-6(9)7(5,2)4-8/h5-6,8-9H,3-4H2,1-2H3/t5-,6+,7+/m0/s1
