20
gdb 13455	3.55627	1.1222	1.04825	2.4129	71.13	-0.2332	0.045	0.2782	1234.0633	0.175482	-386.119219	-386.109839	-386.108894	-386.153508	34.272	
C	 0.1411425144	 1.5236646595	 0.0661569158	-0.377922
C	 0.3475748445	 0.007183797	 0.0399088632	-0.162459
C	 0.4858153382	-0.604298053	 1.4419176737	-0.193397
C	 0.6547713642	-2.1084712588	 1.4291155621	-0.100141
C	 2.0081460831	-2.7558448527	 1.1748727636	 0.020169
O	 3.1642482241	-1.95880406	 1.136548804	-0.428634
C	 1.3919716484	-2.8263179271	 2.5469871914	 0.087563
O	 2.0001517187	-2.0891322297	 3.5610490805	-0.429862
H	 0.981148218	 2.0295834701	 0.5551100209	 0.114709
H	 0.046689921	 1.9336174632	-0.9441910073	 0.111832
H	-0.7670762574	 1.7869359637	 0.6192555936	 0.118311
H	-0.4904528173	-0.470510049	-0.4841256309	 0.098449
H	 1.2400658145	-0.2306232402	-0.5570659002	 0.075383
H	 1.3275903538	-0.1438818098	 1.9685432237	 0.099511
H	-0.4042582337	-0.3536959685	 2.0335852424	 0.101991
H	-0.1845914117	-2.6553129206	 1.0037942652	 0.08285
H	 2.0613705211	-3.6498290287	 0.5563771467	 0.089893
H	 3.087056218	-1.3302315331	 0.4118066871	 0.298419
H	 0.9985316371	-3.7752973335	 2.9005639748	 0.097146
H	 2.8281672911	-1.7557783488	 3.1882159899	 0.296188
68.9208	86.1972	113.4422	212.9337	244.9934	247.932	260.7886	299.6302	363.1863	434.4435	541.131	616.5125	645.0102	739.6548	774.3301	793.61	873.3649	898.92	935.1861	1008.0792	1044.7391	1051.81	1083.1084	1116.7772	1132.1975	1166.1396	1176.6323	1232.1877	1264.8502	1286.6471	1299.1331	1325.6655	1344.3914	1373.586	1397.1773	1403.5168	1413.5641	1453.5234	1482.0924	1491.9276	1499.679	1509.4022	2998.9578	3027.2518	3031.3282	3037.3465	3081.9206	3097.7528	3102.7776	3112.7896	3126.0882	3146.3158	3743.1627	3814.9103
CCCC1C(O)C1O	CCC[C@H]1[C@@H](O)[C@H]1O	
InChI=1S/C6H12O2/c1-2-3-4-5(7)6(4)8/h4-8H,2-3H2,1H3	InChI=1S/C6H12O2/c1-2-3-4-5(7)6(4)8/h4-8H,2-3H2,1H3/t4-,5+,6-
