23
gdb 59253	2.38074	1.26071	1.05038	1.3893	85.71	-0.2266	0.0765	0.3031	1296.6506	0.204662	-388.266441	-388.256717	-388.255772	-388.300773	37.602	
C	 0.0431286686	 1.3612510867	-0.2931786848	-0.383666
C	 0.0932072198	-0.1086099944	 0.1483735208	 0.002618
C	 0.7008388896	-0.2519710889	 1.5518008715	-0.385166
C	-1.2950708178	-0.7274460677	 0.1051457779	-0.007353
C	-2.0385815728	-1.1850426555	-1.1393212757	-0.18236
C	-1.0927070332	-1.8958208261	-2.1148444663	-0.225774
C	-0.7025045517	-2.9168058502	-0.9954216963	-0.300457
C	-1.628164506	-2.174804341	-0.0248421817	 0.366164
O	-2.3584479184	-2.7861487316	 0.9787362582	-0.458619
H	 1.0419976956	 1.8103096544	-0.2929454111	 0.105833
H	-0.3737478324	 1.4584621885	-1.3007041537	 0.114016
H	-0.5859735603	 1.9507250501	 0.3846682352	 0.109855
H	 0.7448697592	-0.6460038907	-0.5518215721	 0.071169
H	 0.0956927494	 0.2796950873	 2.2956811032	 0.111712
H	 0.7510627316	-1.301921709	 1.8567115921	 0.119069
H	 1.7135582744	 0.1635418599	 1.5892235086	 0.104932
H	-1.9864645886	-0.2566852722	 0.8053537454	 0.085791
H	-3.0112743085	-0.7794894354	-1.3919973139	 0.082126
H	-1.6174648962	-2.3716285617	-2.946268451	 0.099093
H	-0.2750459067	-1.2954413888	-2.5253816144	 0.099894
H	-1.0744782996	-3.9210111395	-1.222147369	 0.091556
H	 0.3530952941	-2.9986964285	-0.7157495975	 0.099452
H	-2.8489819801	-3.5194319357	 0.5900914244	 0.280114
52.3697	129.6137	175.2173	222.6669	239.0929	244.9311	293.7809	321.43	362.5134	401.2837	418.4125	510.8341	518.0604	624.1373	769.9312	794.0833	801.8151	876.5619	901.9517	924.0647	928.1102	953.0242	964.6056	970.2606	1020.0428	1040.9731	1086.1582	1115.0816	1142.845	1162.5226	1187.0221	1207.0134	1222.488	1229.7636	1249.8109	1290.3471	1308.4846	1336.6677	1347.2539	1387.9856	1396.2598	1417.3731	1477.0539	1485.6804	1490.0292	1491.5082	1502.353	1508.9048	1519.0079	3022.586	3025.5372	3028.5158	3039.0833	3053.9044	3081.6237	3086.8314	3093.5385	3100.3163	3103.2812	3106.3249	3108.4179	3179.0648	3785.897
CC(C)C1C2CCC12O	CC(C)[C@H]1[C@H]2CC[C@@]12O	
InChI=1S/C8H14O/c1-5(2)7-6-3-4-8(6,7)9/h5-7,9H,3-4H2,1-2H3	InChI=1S/C8H14O/c1-5(2)7-6-3-4-8(6,7)9/h5-7,9H,3-4H2,1-2H3/t6-,7+,8+/m1/s1
