21
gdb 41745	3.44949	1.53799	1.42136	1.3768	80.84	-0.2301	0.0886	0.3187	1011.9174	0.187367	-387.087114	-387.080396	-387.079452	-387.117778	28.713	
C	 0.0007112954	 1.5495067986	-0.014641616	-0.23497
C	 1.5515181386	 1.7790515148	-0.0193264266	-0.233512
C	 2.0126392562	 0.3172315474	 0.0105679952	-0.036175
C	 1.0753356096	-0.3788413839	-1.028184453	-0.002659
C	 1.3230432065	-1.8888921445	-1.106353742	-0.258991
C	 0.9698720186	-2.5258189057	 0.2441196266	-0.064056
O	 1.3109982393	-1.679617674	 1.3344148901	-0.287963
C	 1.0686456537	-0.3122809	 1.0817447279	 0.159413
C	-0.0282125862	 0.0144440038	 0.0136064719	-0.065304
H	-0.4877001886	 1.9907391355	 0.8594826688	 0.097529
H	-0.4868235228	 1.9531617782	-0.9067670759	 0.09756
H	 1.8948924569	 2.3065650527	-0.9139747343	 0.096667
H	 1.8947103228	 2.3430778536	 0.853405862	 0.096962
H	 3.0837464317	 0.1093127876	 0.0298210804	 0.056862
H	 1.0116038519	 0.0815558341	-2.0199030956	 0.055242
H	 0.7095809652	-2.3476364894	-1.8904881718	 0.0965
H	 2.3713415314	-2.0756306081	-1.3694094493	 0.101457
H	-0.1090045928	-2.7409481977	 0.2729550262	 0.092733
H	 1.4967287999	-3.4703873143	 0.4063790124	 0.103785
H	 1.0029243265	 0.1782827225	 2.057875358	 0.068615
H	-1.0086654938	-0.463801851	 0.030330255	 0.060309
218.962	248.4622	293.5309	307.1904	366.6213	460.5535	535.4119	648.9841	662.7535	796.2998	812.6644	836.5813	887.8494	898.4616	920.2637	932.3872	949.6158	956.2893	979.5342	998.5482	1027.6331	1059.1529	1070.4151	1082.0039	1112.5261	1125.3632	1168.5018	1198.0474	1208.2736	1225.2446	1250.5311	1261.2161	1262.9118	1271.8251	1287.2073	1313.1615	1321.0857	1342.3748	1360.2766	1405.7589	1417.8966	1489.9713	1491.921	1511.7699	1516.2468	2985.6087	3024.4093	3044.8508	3045.3957	3053.8563	3059.9807	3065.5042	3080.4557	3083.6848	3100.1782	3102.2416	3106.3764
C1CC2C3CCOC2C13	C1C[C@@H]2[C@H]3CCO[C@@H]2[C@@H]13	
InChI=1S/C8H12O/c1-2-7-5-3-4-9-8(7)6(1)5/h5-8H,1-4H2	InChI=1S/C8H12O/c1-2-7-5-3-4-9-8(7)6(1)5/h5-8H,1-4H2/t5-,6-,7+,8+
