14
gdb 44251	3.40086	1.4893	1.20626	4.039	62.92	-0.2791	-0.0171	0.262	984.6817	0.1028	-473.856963	-473.850072	-473.849128	-473.888808	25.591	
N	-0.0588709511	 1.1803523981	-0.1760819378	-0.522116
C	-0.0411126375	-0.0771614041	-0.1163704221	 0.414713
O	 1.0354624063	-0.8781842536	-0.387501576	-0.239913
C	 0.8534557853	-2.1994135061	 0.1498185279	-0.109883
C	-0.6541534953	-2.3602301163	 0.3906384586	-0.262593
C	-1.2250573386	-0.9414456949	 0.2405543385	 0.038039
O	-1.9580149091	-1.3591893064	-0.9683044082	-0.244955
C	-1.4807241813	-2.6428479634	-0.8710574937	 0.460163
O	-1.70031526	-3.5618811149	-1.5876790706	-0.310499
H	 0.85598535	 1.5476971444	-0.4448892701	 0.234568
H	 1.2531366033	-2.9189819063	-0.5679994832	 0.150706
H	 1.4152572701	-2.2802368941	 1.0866860393	 0.12934
H	-0.9108892288	-2.9592897619	 1.2621624116	 0.131132
H	-1.8984802633	-0.5098897206	 0.9762115156	 0.131299
92.1038	125.0631	222.1398	263.545	417.0122	471.367	590.3553	654.9685	701.8583	751.5418	802.5773	850.1616	891.802	910.4608	918.8502	941.8857	988.8381	1049.3836	1058.2889	1110.9357	1119.7668	1194.3439	1241.5552	1255.4924	1276.7745	1302.0561	1320.0637	1406.101	1518.1724	1785.8561	1948.2919	3045.999	3113.1664	3143.436	3165.2162	3474.338
N=C1OCC2C1OC2=O	[NH][C]1OC[C@H]2[C@@H]1OC2=O	
InChI=1S/C5H5NO3/c6-4-3-2(1-8-4)5(7)9-3/h2-3,6H,1H2	InChI=1S/C5H5NO3/c6-4-3-2(1-8-4)5(7)9-3/h2-3,6H,1H2/t2-,3-/m0/s1
