19
gdb 91405	3.01343	1.6531	1.47719	1.5321	74.73	-0.2529	-0.0075	0.2453	976.6001	0.161534	-423.032099	-423.024916	-423.023972	-423.06325	29.653	
C	 0.1242518711	 1.5512612471	 0.0072784874	-0.399029
C	 0.0066756874	 0.0426012217	 0.0019334614	 0.237788
O	 0.5938349013	-0.4385735408	-1.1997971571	-0.294357
C	 0.874759917	-1.8512789786	-1.1784889001	 0.078752
C	 1.8879569695	-2.0962164788	-0.0480575343	-0.22657
C	 0.9224093489	-1.8632211435	 1.1257672397	 0.078749
O	 0.6429535747	-0.4508553504	 1.1732754985	-0.294347
C	-0.3042254975	-2.6499561328	 0.6616507208	-0.094886
C	-0.3318064177	-2.6430518117	-0.6722322969	-0.09488
H	 1.1771560693	 1.8421787606	-0.0122797048	 0.128078
H	-0.3771037453	 1.9645649444	-0.8712884502	 0.12368
H	-0.3415422079	 1.9556092304	 0.9092732813	 0.123658
H	-1.0492588456	-0.2660305549	 0.022194376	 0.066775
H	 1.2092681337	-2.1012798723	-2.1860814453	 0.076576
H	 2.2669553619	-3.1216678887	-0.061220799	 0.097981
H	 2.7138205522	-1.3827877248	-0.0614312361	 0.105658
H	 1.2982199267	-2.1235654516	 2.1160324247	 0.076577
H	-1.0607235939	-3.043446586	 1.3293520307	 0.104898
H	-1.1153429659	-3.0297724492	-1.312128387	 0.104899
165.1694	204.4685	261.4102	315.6041	377.2218	408.7742	465.0873	540.9877	602.965	609.0292	771.0451	808.6127	811.413	839.5224	848.8528	899.3801	905.8241	948.8291	966.4543	977.9707	993.3669	1010.4687	1077.7372	1116.5244	1121.7546	1135.896	1166.7344	1178.1542	1236.8577	1296.7726	1312.2003	1347.2748	1359.2733	1372.2232	1388.8241	1398.3828	1421.3967	1475.2293	1480.2286	1489.1549	1652.4557	2986.407	3055.063	3065.629	3105.5313	3108.5328	3129.9807	3135.9391	3138.1898	3197.5607	3222.732
CC1OC2CC(O1)C=C2	C[C@H]1O[C@H]2C[C@@H](O1)C=C2	
InChI=1S/C7H10O2/c1-5-8-6-2-3-7(4-6)9-5/h2-3,5-7H,4H2,1H3	InChI=1S/C7H10O2/c1-5-8-6-2-3-7(4-6)9-5/h2-3,5-7H,4H2,1H3/t5-,6+,7-
