21
gdb 11995	2.61951	2.05925	1.73061	1.6051	77.45	-0.2248	0.0809	0.3056	919.959	0.187865	-329.090626	-329.082084	-329.08114	-329.122649	33.382	
C	-0.2218943415	 1.5592063104	-0.0819978536	-0.411106
C	 0.0529781304	 0.0672511991	 0.0023507537	 0.023736
N	 0.9577174934	-0.521792386	-1.0586866086	-0.143277
C	 2.3126045048	 0.0145155499	-0.8281921036	-0.260897
C	 1.8376625248	-1.0636155889	 0.0559569943	-0.049215
C	 0.9056554384	-0.5601371645	 1.1674666673	 0.301199
C	 1.5159395641	 0.3656701213	 2.2198163043	-0.448159
C	 0.1644982424	-1.7155100592	 1.8446700196	-0.446074
H	 0.6781033898	 2.1711350962	 0.0203297422	 0.114247
H	-0.6815494801	 1.7969458283	-1.0471854934	 0.127585
H	-0.9189821659	 1.8630752378	 0.7063031836	 0.117426
H	-0.9010974017	-0.4627985992	-0.0796781561	 0.079044
H	 3.0019111769	-0.2582391677	-1.6220223526	 0.118465
H	 2.4483541498	 1.0252775875	-0.4547822359	 0.107315
H	 2.2440412074	-2.0706984882	 0.0107515535	 0.085608
H	 2.068219616	 1.1990541163	 1.7788092105	 0.111146
H	 0.7387617067	 0.7880154509	 2.8671609414	 0.11302
H	 2.2116342978	-0.1889147857	 2.8599214551	 0.114381
H	 0.8348911051	-2.2802713347	 2.5031245703	 0.110757
H	-0.6655580328	-1.3430865662	 2.4558054627	 0.11198
H	-0.2448327658	-2.4117609172	 1.1057387851	 0.122818
162.2976	186.7019	196.5024	227.3426	240.3323	294.7794	309.5176	347.233	405.0665	501.5417	536.7274	618.1885	729.5677	761.4098	776.3175	857.8083	908.7574	951.2471	985.5554	990.8108	1014.099	1048.1154	1061.1149	1099.2097	1109.7312	1114.976	1156.3543	1213.424	1219.9559	1226.4813	1270.1516	1291.3846	1366.3138	1388.5403	1403.0582	1405.8931	1425.9361	1482.5821	1482.9856	1487.297	1494.9568	1500.2191	1509.6629	1513.6727	3020.8415	3028.7703	3035.7719	3048.9078	3084.0136	3089.6017	3099.831	3100.5606	3109.6814	3112.2398	3120.3658	3141.8691	3196.9013
CC1N2CC2C1(C)C	C[C@H]1N2C[C@H]2C1(C)C	
InChI=1S/C7H13N/c1-5-7(2,3)6-4-8(5)6/h5-6H,4H2,1-3H3	InChI=1S/C7H13N/c1-5-7(2,3)6-4-8(5)6/h5-6H,4H2,1-3H3/t5-,6+,8?/m1/s1
