14
gdb 49616	3.05567	1.59955	1.13169	6.5467	63.29	-0.2702	-0.0272	0.243	1010.2528	0.10125	-473.864339	-473.857111	-473.856166	-473.896458	26.639	
O	-0.1860678146	 0.0282939803	-0.0061164961	-0.259588
C	-0.0485256971	 1.2188244732	 0.0175738991	 0.158473
N	 1.1634919084	 1.9055678153	-0.0077680568	-0.176938
C	 1.2577727752	 3.3404383185	 0.0052792706	-0.038522
C	 1.9429133809	 3.9566878059	 1.2111769608	-0.338307
C	 2.7347755002	 3.5862870844	-0.0130916564	 0.079842
O	 3.3727333902	 2.3284292132	-0.0190624756	-0.24301
C	 2.4497623125	 1.3120502936	-0.0174753262	 0.505522
O	 2.7355152223	 0.1593267597	-0.0015383728	-0.331809
H	-0.8919352323	 1.9362125385	 0.0569592563	 0.09139
H	 0.5415454611	 3.8855382458	-0.5964375984	 0.133305
H	 1.7771568832	 5.0151030674	 1.3785144398	 0.138216
H	 2.0573238939	 3.3515861958	 2.1038453325	 0.147054
H	 3.2356863462	 4.3182516085	-0.6322732869	 0.134372
82.9151	161.9674	205.4061	213.6118	342.1389	472.1473	487.6809	496.2104	713.6505	726.0211	762.7685	781.4443	816.914	844.4818	986.5732	999.2777	1023.9726	1035.6657	1066.6463	1078.4964	1115.9475	1155.5077	1202.9857	1237.7583	1270.3832	1371.9689	1407.1611	1449.3191	1465.7765	1822.9593	1930.6754	2939.3833	3139.3917	3191.5263	3208.4652	3236.4318
O=CN1C2CC2OC1=O	O=CN1[C@H]2C[C@H]2OC1=O	
InChI=1S/C5H5NO3/c7-2-6-3-1-4(3)9-5(6)8/h2-4H,1H2	InChI=1S/C5H5NO3/c7-2-6-3-1-4(3)9-5(6)8/h2-4H,1H2/t3-,4+/m0/s1
