23
gdb 99275	3.76286	0.72377	0.68172	3.4754	84.47	-0.2356	0.0634	0.299	1796.5445	0.204112	-421.656949	-421.645257	-421.644313	-421.695141	40.743	
C	 0.1671842218	 1.066191386	 0.5916389211	-0.322186
N	-0.3212251327	 0.1255083949	-0.3999957617	-0.362426
C	-1.2561347329	-0.8277653985	-0.0402347572	 0.494393
O	-1.8483030273	-0.8147703626	 1.0269948362	-0.40966
N	-1.4752062106	-1.7948013254	-1.000080493	-0.365203
C	-2.5703874348	-2.7440336648	-0.8308341513	-0.151546
C	-2.1838675995	-3.9840142493	-0.0054904245	 0.055994
C	-3.4231824443	-4.8488183797	 0.2514612433	-0.392149
C	-1.066820219	-4.7881844622	-0.6789387968	-0.382245
H	 0.4156421209	 2.0191179699	 0.1151287271	 0.117888
H	-0.6294511201	 1.2234323724	 1.3188682344	 0.167456
H	 1.0527533402	 0.6990682012	 1.1282650043	 0.116908
H	 0.3149573011	-0.11509081	-1.1436986899	 0.231788
H	-1.174419952	-1.5990244545	-1.9402724392	 0.234396
H	-3.4066158765	-2.2338226579	-0.3415015137	 0.122944
H	-2.9005220259	-3.0530420102	-1.8299010833	 0.087984
H	-1.816820164	-3.6104290605	 0.957896826	 0.100143
H	-3.8455196145	-5.2258119463	-0.6886858527	 0.105664
H	-3.1760577015	-5.7167367162	 0.8710465359	 0.111529
H	-4.2062517745	-4.2821907833	 0.7660706468	 0.117495
H	-0.745350103	-5.6237880842	-0.0488436881	 0.110863
H	-1.4053362054	-5.2072883925	-1.6354548438	 0.101213
H	-0.1933960156	-4.1595418763	-0.8761580297	 0.108756
38.6673	57.7345	61.7315	83.5495	141.2993	221.7982	225.8277	254.4565	266.7563	297.7478	327.3508	343.8322	407.212	416.364	467.0896	591.7513	710.3035	767.8672	819.519	869.6167	928.9716	946.9615	966.4052	980.2486	1053.5736	1144.2026	1149.5082	1156.1982	1178.742	1195.6803	1196.4566	1252.6356	1302.7177	1341.9208	1376.0246	1394.2961	1403.7455	1423.3489	1439.3285	1466.5885	1484.1297	1490.1205	1493.6942	1496.986	1504.5011	1511.3342	1515.7576	1561.8835	1779.4164	3009.9827	3019.0912	3021.8585	3027.5131	3043.2958	3080.8415	3082.2235	3084.2524	3093.2215	3101.7019	3107.2419	3157.0606	3620.912	3639.847
CNC(=O)NCC(C)C	CNC(=O)NCC(C)C	
InChI=1S/C6H14N2O/c1-5(2)4-8-6(9)7-3/h5H,4H2,1-3H3,(H2,7,8,9)	InChI=1S/C6H14N2O/c1-5(2)4-8-6(9)7-3/h5H,4H2,1-3H3,(H2,7,8,9)
