20
gdb 11953	3.44019	1.59251	1.35924	1.6975	75.64	-0.224	0.0833	0.3073	1023.4828	0.175783	-348.975645	-348.967041	-348.966097	-349.008523	32.256	
C	-0.0364241515	 1.5246101686	-0.164469831	-0.373877
C	-0.0078667409	 0.0152022716	 0.1160492389	-0.287311
C	-1.3723766982	-0.5971316693	 0.0629356601	 0.459893
C	-2.1179708667	-1.0577505529	-1.1583900064	-0.381886
C	-1.9231953749	-2.0103305046	 0.0121824146	 0.187998
C	-1.2753298204	-3.3593336444	-0.0910498677	-0.494063
C	-2.8400346032	-1.5444139781	 1.1394672412	-0.122866
O	-2.3195609016	-0.1910165722	 1.0671739362	-0.330951
H	 0.9659016336	 1.9564862672	-0.088813785	 0.108738
H	-0.4216205795	 1.7299318746	-1.1683307352	 0.117895
H	-0.6834161757	 2.0356289983	 0.5541917705	 0.137594
H	 0.6326717102	-0.4933220118	-0.6144130742	 0.099339
H	 0.427708291	-0.1684759336	 1.1059666019	 0.104274
H	-3.0957243779	-0.6388104559	-1.3839593337	 0.107426
H	-1.5044577742	-1.2858393867	-2.0256115773	 0.107346
H	-0.4591014132	-3.3510602448	-0.8206937573	 0.12035
H	-0.8595203236	-3.6798514918	 0.8711063471	 0.118723
H	-1.9924926944	-4.1237407239	-0.4147963717	 0.122195
H	-3.9236737951	-1.5849704561	 0.9720290723	 0.098572
H	-2.6007587837	-1.9971970441	 2.1100282867	 0.100612
78.7215	125.9725	189.1375	204.5903	235.0729	271.5747	330.9289	381.4218	445.8872	500.3842	595.5667	709.7334	761.4917	796.5228	858.2776	912.2813	951.5274	971.8594	987.457	990.9391	1011.9792	1038.0016	1058.9897	1102.1429	1118.3732	1158.6147	1191.1338	1235.3966	1274.6424	1309.6932	1335.9871	1370.4486	1406.7611	1411.4559	1429.99	1472.1559	1485.9581	1494.8993	1498.0479	1502.9187	1510.5669	1524.1658	3009.4674	3019.9578	3026.2399	3039.8612	3057.0159	3063.9492	3076.7028	3095.4716	3104.7947	3109.4144	3118.8367	3196.4977
CCC12CC1(C)CO2	CC[C@@]12C[C@]1(C)CO2	
InChI=1S/C7H12O/c1-3-7-4-6(7,2)5-8-7/h3-5H2,1-2H3	InChI=1S/C7H12O/c1-3-7-4-6(7,2)5-8-7/h3-5H2,1-2H3/t6-,7-/m1/s1
