19
gdb 44907	2.67055	1.71041	1.47743	2.9782	79.65	-0.2261	-0.0133	0.2129	974.7319	0.162506	-385.941115	-385.934122	-385.933178	-385.972306	28.921	
O	 0.0171731421	 0.0137613748	 0.058742125	-0.324772
C	-0.0036752748	 1.2137556617	 0.011693704	 0.420843
C	-1.2598986282	 2.1057251129	-0.032284957	-0.321807
C	-0.7273199344	 3.5537734779	-0.0722605908	-0.0247
C	 0.6428254561	 3.3808084178	-0.7736300597	-0.240398
C	 1.208693516	 2.1695787607	-0.0145079926	-0.150684
C	 1.4375070566	 2.5540701816	 1.43507818	-0.075826
C	 0.6494094584	 3.4439390167	 2.0434704372	-0.043914
C	-0.5005601145	 4.1220293582	 1.3426721881	-0.254961
H	-1.809588229	 1.8545121789	-0.9469256576	 0.128252
H	-1.9234792911	 1.8848599596	 0.8089881017	 0.125597
H	-1.3974406898	 4.2141009812	-0.6284527458	 0.070493
H	 0.51321138	 3.1536841874	-1.8376481293	 0.098328
H	 1.2801659777	 4.2646319478	-0.6840235109	 0.10407
H	 2.084659538	 1.6956262446	-0.4575533967	 0.083092
H	 2.2289294538	 2.0441162159	 1.9750393382	 0.09952
H	 0.8235833978	 3.7049662603	 3.0843526452	 0.09161
H	-0.3168980707	 5.2049084425	 1.291812283	 0.108075
H	-1.416962144	 4.0096944196	 1.9393223781	 0.107183
108.2626	200.0834	329.6417	363.3538	427.1988	445.4162	498.9156	548.4253	621.8503	654.2098	711.1885	797.3312	822.5565	862.8218	871.0697	905.0464	913.995	948.9413	982.5932	996.4148	1038.133	1047.142	1068.027	1118.0754	1136.9907	1159.2127	1174.8682	1206.5486	1232.4421	1262.1573	1290.1881	1325.7409	1335.8632	1345.2096	1373.0295	1406.5949	1447.9572	1474.1237	1497.7639	1698.1946	1850.9344	3001.6943	3025.4304	3041.4884	3046.2305	3074.2858	3095.2829	3097.2169	3112.9559	3154.2113	3184.5269
O=C1CC2CC1C=CC2	O=C1C[C@@H]2C[C@H]1C=CC2	
InChI=1S/C8H10O/c9-8-5-6-2-1-3-7(8)4-6/h1,3,6-7H,2,4-5H2	InChI=1S/C8H10O/c9-8-5-6-2-1-3-7(8)4-6/h1,3,6-7H,2,4-5H2/t6-,7+/m0/s1
