27
gdb 116188	2.06749	1.31443	1.01745	0.0177	94.84	-0.2879	0.0737	0.3616	1386.3854	0.252358	-353.588593	-353.578059	-353.577114	-353.623591	40.695	
C	-0.1518424038	 1.7152066142	-0.3687335817	-0.385465
C	-0.2246524594	 0.1847019794	-0.3107756278	-0.205042
C	 0.7989776673	-0.5090449262	-1.2161934032	 0.057253
C	 2.27424423	-0.2977659746	-0.7913690811	-0.223346
C	 3.0580865381	-1.529347136	-1.3255698501	-0.223159
C	 2.0055044189	-2.4112751195	-2.0326870714	-0.22153
C	 0.6515529774	-2.053017354	-1.3768032401	 0.278783
C	 0.5127914077	-2.7676761759	-0.0187990912	-0.421121
C	-0.5308240891	-2.4349207822	-2.2749416065	-0.440864
H	 0.8238478229	 2.0847821756	-0.0367448547	 0.117433
H	-0.3130421777	 2.0796452208	-1.3897586597	 0.11161
H	-0.9133976171	 2.1723007941	 0.2710804146	 0.108557
H	-0.0780742778	-0.1428359001	 0.7263026962	 0.094243
H	-1.2370991263	-0.1324826947	-0.5923192574	 0.091121
H	 0.6800825057	-0.0897614042	-2.2270160337	 0.057227
H	 2.6730545265	 0.6435615569	-1.1790446755	 0.095558
H	 2.3472778237	-0.2356040676	 0.3006298344	 0.092865
H	 3.865376958	-1.2434981994	-2.0054540023	 0.093604
H	 3.5284917876	-2.072883544	-0.5006147608	 0.098053
H	 1.9608606395	-2.1574692901	-3.0989516112	 0.08707
H	 2.2321935676	-3.4807684793	-1.9695173541	 0.085361
H	 1.324570233	-2.5118029482	 0.6695313672	 0.110812
H	-0.4308438505	-2.5146478656	 0.4744959711	 0.111712
H	 0.5293170708	-3.8542682243	-0.1580036233	 0.106799
H	-0.5633480927	-3.5173587574	-2.4437712351	 0.107153
H	-1.4888711023	-2.1471987168	-1.8279784087	 0.109497
H	-0.457792848	-1.9474720208	-3.2535756837	 0.105816
77.6295	95.8973	141.4787	189.4524	222.4014	233.1428	254.7191	278.8454	308.1207	344.0795	362.5156	455.0898	484.1252	550.7647	627.9402	714.9625	773.3748	799.8362	834.1165	902.8559	915.7603	938.0893	949.7325	964.3997	989.4475	998.3474	1029.1455	1037.139	1077.4119	1084.6865	1127.186	1146.9936	1193.881	1230.398	1248.1294	1256.0106	1267.6335	1299.6017	1312.5989	1326.7921	1335.4929	1349.4396	1366.5394	1393.8606	1401.1875	1411.3072	1422.1854	1481.8603	1482.4742	1487.3739	1490.6652	1498.727	1501.943	1507.7361	1508.4736	1509.7942	1516.3646	2979.2921	3016.4229	3020.1814	3025.7386	3029.8678	3032.6796	3035.4478	3050.8136	3052.8952	3068.5548	3078.2503	3085.9296	3089.7558	3095.0506	3096.2346	3098.03	3102.615	3104.6461
CCC1CCCC1(C)C	CC[C@H]1CCCC1(C)C	
InChI=1S/C9H18/c1-4-8-6-5-7-9(8,2)3/h8H,4-7H2,1-3H3	InChI=1S/C9H18/c1-4-8-6-5-7-9(8,2)3/h8H,4-7H2,1-3H3/t8-/m0/s1
