20
gdb 58656	1.87581	1.46172	1.13492	4.1842	79.86	-0.2915	0.0076	0.2991	1227.0558	0.167929	-403.155588	-403.145294	-403.14435	-403.190758	37.119	
C	 0.2510860053	 1.0537417809	 0.7336992356	-0.406293
C	-0.3194169421	-0.2049181258	 1.4037909131	-0.057935
C	-0.5929868465	 0.0088060416	 2.8993242097	-0.408716
C	-1.5767030302	-0.6703141334	 0.6762638516	 0.239868
O	-1.3997223142	-1.2773879033	-0.6105900228	-0.28506
C	-1.9360588072	-2.0921269353	 0.4358552487	 0.030858
C	-1.1296005579	-3.2752101961	 0.9021799699	-0.433469
C	-2.6895787768	 0.2728444659	 0.7281986451	 0.27246
N	-3.5620775682	 1.0280237226	 0.7984083715	-0.345389
H	 1.1904818205	 1.3458463699	 1.2122864928	 0.11798
H	 0.447501522	 0.8755862898	-0.3272938321	 0.135391
H	-0.4447070499	 1.8952769214	 0.8161340547	 0.13885
H	 0.4141979125	-1.0082363483	 1.2898112913	 0.089809
H	-0.9632116146	-0.9041675768	 3.3764757411	 0.117962
H	 0.3256098837	 0.3092799196	 3.411521834	 0.122954
H	-1.3365682319	 0.7968752157	 3.0561164193	 0.143705
H	-3.0018726274	-2.2934741541	 0.3155643431	 0.111954
H	-0.0703456806	-3.0397828892	 1.0132222485	 0.137205
H	-1.5151170666	-3.6404185252	 1.8595685442	 0.135539
H	-1.2211742999	-4.0873222802	 0.1737194609	 0.142326
55.2652	136.7494	141.6345	155.4327	185.4628	220.8897	226.5078	250.7609	319.0385	356.5028	389.3905	463.7231	510.6148	573.204	617.4491	649.1656	799.1717	880.6621	926.6029	935.9095	969.4059	974.1346	1000.8225	1064.7695	1119.3359	1144.9341	1172.3502	1193.4714	1251.5788	1304.557	1335.1541	1373.3466	1399.8278	1410.4477	1422.3688	1451.6055	1484.1981	1488.9997	1491.8121	1501.826	1503.5951	1513.3791	2351.8553	3036.699	3039.9748	3045.8415	3067.8845	3098.6981	3106.892	3108.0163	3109.7485	3115.8789	3118.7832	3146.1948
CC(C)C1(OC1C)C#N	CC(C)[C@]1(O[C@H]1C)C#N	
InChI=1S/C7H11NO/c1-5(2)7(4-8)6(3)9-7/h5-6H,1-3H3	InChI=1S/C7H11NO/c1-5(2)7(4-8)6(3)9-7/h5-6H,1-3H3/t6-,7+/m0/s1
