19
gdb 49071	2.48426	1.56629	1.24938	1.1708	75.03	-0.2562	-0.032	0.2242	1065.7033	0.160244	-423.035626	-423.02774	-423.026796	-423.068291	30.158	
O	-0.2158864144	 0.0428348268	 0.0391873662	-0.25329
C	-0.0236838069	 1.2312762477	 0.0953318949	 0.083994
C	 1.3205092599	 1.8964549337	 0.0010771084	 0.178259
C	 1.4755842494	 3.2085552111	 0.8065214736	-0.126707
O	 1.7757585941	 3.9819548723	-0.3689387251	-0.29226
C	 1.5246710327	 2.8536949	-1.234551444	 0.100467
C	 2.7698518049	 2.3621153601	-1.9614922584	-0.221878
C	 3.5928143182	 1.6555681312	-0.8679584438	-0.22305
C	 2.5291048761	 0.9522202376	 0.0011335877	-0.283553
H	-0.8766157397	 1.9414752457	 0.2044267602	 0.078219
H	 0.5562103198	 3.5558490911	 1.2980339282	 0.103374
H	 2.2956296816	 3.2178749298	 1.5342085269	 0.110241
H	 0.6642774303	 3.037824991	-1.8878411957	 0.078575
H	 2.4664561917	 1.6506854952	-2.7396419374	 0.106301
H	 3.2976272602	 3.1879218733	-2.4471942693	 0.115001
H	 4.3327547616	 0.9599002426	-1.2713203284	 0.102791
H	 4.1343610052	 2.402654204	-0.2783292119	 0.11382
H	 2.8808169852	 0.7331350241	 1.0138096382	 0.103277
H	 2.22082122	 0.0016200127	-0.4452686604	 0.126418
76.6467	127.3197	209.3922	229.3923	279.769	357.853	399.9336	476.0111	568.5793	619.6358	726.4453	820.493	843.5954	861.1723	894.1478	911.3672	946.6425	959.7593	984.2625	1019.7333	1045.8266	1050.4029	1082.5907	1138.2604	1161.4923	1178.8574	1217.4352	1236.2195	1272.5254	1281.6764	1312.0457	1335.036	1339.3982	1367.6429	1370.5792	1429.7088	1467.7282	1490.3553	1501.9667	1523.5006	1820.2142	2857.9762	3000.2627	3031.8012	3047.6177	3052.9134	3054.6102	3057.1506	3094.5636	3097.1457	3109.5287
O=CC12COC1CCC2	O=C[C@]12CO[C@H]1CCC2	
InChI=1S/C7H10O2/c8-4-7-3-1-2-6(7)9-5-7/h4,6H,1-3,5H2	InChI=1S/C7H10O2/c8-4-7-3-1-2-6(7)9-5-7/h4,6H,1-3,5H2/t6-,7+/m0/s1
