20
gdb 82136	3.06629	1.12395	0.96645	3.415	81.67	-0.2532	0.0271	0.2804	1290.9985	0.170608	-403.11827	-403.109284	-403.10834	-403.152913	33.196	
C	-0.1170991242	 1.6353501828	-0.0667705059	-0.405355
C	 0.0373413001	 0.1203817536	-0.0477636469	-0.024585
C	 0.7279618044	-0.5871942932	-1.2248872826	-0.058843
C	 2.1748147274	-0.2029029232	-1.3115745567	-0.281223
C	 1.763085562	-1.2158980311	-0.2787992096	-0.075798
C	 1.1089439671	-0.5302566878	 0.9069320526	 0.101715
O	 1.9683487817	 0.3590467872	 1.6143607551	-0.186153
C	 1.7513769617	 0.5360245054	 2.930030331	 0.123848
N	 2.4113307372	 1.3980993031	 3.5746084126	-0.446024
H	 0.8353972508	 2.1430097418	-0.2359581632	 0.133666
H	-0.8101874128	 1.9375945521	-0.8590591794	 0.114609
H	-0.517274247	 2.0003821543	 0.8850552963	 0.117996
H	-0.9338992174	-0.3433197005	 0.1542143079	 0.074276
H	 0.2106707681	-1.0617782132	-2.0493682991	 0.088387
H	 2.7120840766	-0.6188551342	-2.1575633134	 0.114791
H	 2.5208441308	 0.7791542205	-1.0064450649	 0.130871
H	 2.1645542664	-2.2214480093	-0.2677472549	 0.088792
H	 0.6540449611	-1.2344501898	 1.611893098	 0.081357
H	 0.9843328285	-0.1370746249	 3.3405333232	 0.081017
H	 2.1376347274	 1.3792723364	 4.5548119	 0.226656
37.4499	99.6833	114.0364	188.1219	219.6989	235.2619	322.3783	416.3519	450.7576	553.7883	657.0759	687.0585	774.4966	805.9361	818.4558	839.075	915.2853	933.0719	981.0933	1000.797	1014.0205	1042.7394	1046.9446	1062.5963	1086.3049	1093.5831	1099.8917	1141.7281	1150.8681	1188.012	1235.7034	1275.6028	1294.0963	1317.4845	1363.484	1369.394	1388.1736	1413.1235	1429.	1487.798	1494.0239	1502.6708	1742.1386	3006.1751	3036.04	3038.7022	3054.3948	3098.6365	3123.5079	3132.6535	3183.7999	3192.9528	3215.2942	3516.6271
CC1C2CC2C1OC=N	C[C@H]1[C@H]2C[C@H]2[C@H]1O[CH][NH]	
InChI=1S/C7H11NO/c1-4-5-2-6(5)7(4)9-3-8/h3-8H,2H2,1H3	InChI=1S/C7H11NO/c1-4-5-2-6(5)7(4)9-3-8/h3-8H,2H2,1H3/t4-,5+,6+,7-/m0/s1
