17
gdb 43076	3.80898	1.60219	1.51063	3.0562	75.59	-0.2263	-0.0053	0.221	906.3939	0.139273	-384.692928	-384.68677	-384.685826	-384.723185	26.217	
O	-0.0293943477	 0.0036429884	-0.0684788388	-0.333629
C	-0.0363370268	 1.1954062607	 0.0368029604	 0.436
C	-1.1018871052	 2.2997829521	 0.0315311183	-0.165181
C	-0.8290474345	 2.8886095191	 1.4269532451	-0.226525
C	 0.7096066232	 3.226147506	 1.2319953879	-0.081354
C	 0.7082149713	 4.6184177512	 0.6272027182	-0.083741
C	 0.2079990772	 4.5261437826	-0.6081605158	-0.092089
C	-0.0283946299	 3.0731366575	-0.9062109342	-0.068819
C	 1.005160251	 2.3087126015	-0.0009792283	-0.151523
H	-2.1280227478	 2.1294294557	-0.2837306189	 0.08685
H	-1.41108274	 3.7833781512	 1.6563641671	 0.105907
H	-1.0021906564	 2.1454249716	 2.2110569179	 0.114595
H	 1.3280714837	 3.0720634947	 2.1149796754	 0.076489
H	 0.9181422694	 5.5218180055	 1.1863546596	 0.102728
H	-0.0516184896	 5.3357142845	-1.2779801801	 0.105049
H	-0.0873512857	 2.7611584571	-1.9476283023	 0.08782
H	 2.0430450979	 2.1646745306	-0.2950275416	 0.087422
151.2465	284.3316	382.6515	457.5123	503.8337	547.7314	665.2024	705.8057	735.8704	770.4693	782.9708	792.2307	829.0621	871.2273	920.296	934.9673	946.3193	962.9098	973.3103	1010.6605	1026.6447	1065.386	1087.3498	1116.9806	1139.0678	1151.659	1184.5987	1199.9016	1220.8933	1273.0204	1281.4314	1298.0855	1317.8567	1344.8719	1501.3136	1643.3832	1897.3175	3057.8492	3110.4114	3124.4358	3131.1299	3144.9141	3158.4673	3201.0754	3227.2215
O=C1C2CC3C=CC2C13	O=C1[C@H]2C[C@@H]3C=C[C@H]2[C@H]13	
InChI=1S/C8H8O/c9-8-6-3-4-1-2-5(6)7(4)8/h1-2,4-7H,3H2	InChI=1S/C8H8O/c9-8-6-3-4-1-2-5(6)7(4)8/h1-2,4-7H,3H2/t4-,5+,6-,7+/m0/s1
