17
gdb 34817	5.00916	1.09019	1.00606	2.0902	80.83	-0.2412	0.0436	0.2848	1185.6571	0.136296	-380.721414	-380.713766	-380.712821	-380.753327	30.358	
C	-0.1152933951	-1.2101551672	-0.1474678327	-0.437688
C	-0.0231847958	-0.0172005554	-0.0313333731	 0.336854
C	 0.0258658483	 1.42577638	 0.045084794	-0.192266
C	 0.1237135509	 2.1231447395	 1.4444118443	-0.108444
N	 1.5416148195	 1.578925309	 1.5323621751	-0.310739
C	 1.4178026732	 2.144628312	 0.1270783809	-0.135047
C	 0.672934628	 3.3586678224	 0.708961665	 0.427238
N	-0.0155263619	 4.4882052171	 0.1313250533	-0.39564
C	 1.0946263573	 4.7047482645	 1.1120739048	-0.36345
H	-0.1783352301	-2.2667769867	-0.2292142046	 0.188536
H	-0.6862649098	 1.8967373838	-0.6366068172	 0.109216
H	-0.5816483757	 2.055683997	 2.2718916623	 0.097474
H	 2.107327582	 2.2207578227	 2.0973897517	 0.210228
H	 2.2345494081	 2.0996715945	-0.5947118231	 0.091156
H	 0.3128606387	 4.674997737	-0.8138186286	 0.234835
H	 0.7769619998	 5.1308989823	 2.0597834367	 0.128386
H	 2.0423145626	 5.0862161377	 0.7394191912	 0.119353
122.0451	133.4574	226.6403	273.2132	332.501	407.1395	462.1369	511.8411	596.7363	629.116	631.4325	695.984	763.6126	816.0216	864.1014	874.0005	898.2951	912.3319	956.6946	972.0585	1019.2376	1057.9993	1076.17	1109.1444	1121.2386	1132.3832	1173.221	1175.7798	1210.7054	1241.9357	1256.0555	1282.1653	1293.4265	1378.6599	1449.1335	1529.0457	2238.4443	3087.3164	3105.0289	3110.1389	3129.7827	3189.3281	3385.4822	3490.1141	3505.7735
C#CC1C2NC1C21NC1	C#C[C@H]1[C@H]2N[C@@H]1[C@]12NC1	
InChI=1S/C7H8N2/c1-2-4-5-7(3-8-7)6(4)9-5/h1,4-6,8-9H,3H2	InChI=1S/C7H8N2/c1-2-4-5-7(3-8-7)6(4)9-5/h1,4-6,8-9H,3H2/t4-,5+,6-,7-
