21
gdb 121656	6.05627	0.60334	0.57934	1.5466	81.66	-0.2453	-0.011	0.2343	1970.415	0.180317	-424.225536	-424.215248	-424.214304	-424.262271	35.829	
C	-0.042443073	 1.3402978666	 0.1015837008	-0.227579
O	 0.0225759114	-0.0628622998	 0.0227742697	-0.236021
C	 0.6532654828	-0.5140629128	-1.1571646436	-0.054369
C	 0.6630260002	-2.034061382	-1.1266666517	-0.326964
C	 1.317082831	-2.6569183593	-2.3464324582	 0.379408
O	 1.7795214578	-1.980353169	-3.2445618934	-0.338479
C	 1.3618190153	-4.147431472	-2.3836330161	-0.103466
C	 1.2501093027	-4.8150455902	-3.7477203483	-0.246929
C	 2.5670600238	-4.7929475998	-3.0540117085	-0.24695
H	 0.959899493	 1.7976336962	 0.0981056901	 0.104126
H	-0.6158258029	 1.7713947263	-0.7346244889	 0.104127
H	-0.542476992	 1.5935846282	 1.0397729518	 0.12467
H	 0.1204699271	-0.1541332549	-2.0510739208	 0.10058
H	 1.6819850514	-0.1275207457	-1.2265848695	 0.100562
H	 1.1812426166	-2.3912721913	-0.2266067485	 0.132178
H	-0.36260811	-2.4174446832	-1.0409812716	 0.13219
H	 0.9243505241	-4.6643147502	-1.5368446805	 0.088946
H	 0.6959625335	-5.7451525036	-3.7976080015	 0.118444
H	 1.1167301923	-4.1412685733	-4.5862202092	 0.138539
H	 3.3160456681	-4.1043127071	-3.4277139808	 0.138552
H	 2.9458859568	-5.7074216632	-2.6125457214	 0.118436
42.4157	68.79	84.172	102.4428	131.4318	233.3474	242.0881	259.8179	289.0383	326.3257	486.9627	577.8758	661.2575	788.3932	803.3578	828.9296	831.4111	887.739	922.7976	991.1931	1041.1054	1067.5998	1074.1537	1099.1326	1108.2893	1117.4716	1130.6614	1165.4958	1180.1153	1210.6914	1220.3686	1223.6101	1231.7706	1297.4567	1321.2853	1406.8003	1425.0782	1452.3405	1458.1523	1483.0966	1484.4412	1484.9046	1505.1133	1526.1294	1779.3019	2965.9906	2982.9294	3006.6917	3012.3858	3026.4549	3059.8305	3111.9151	3141.4125	3142.8876	3172.6934	3228.9776	3243.4609
COCCC(=O)C1CC1	COCCC(=O)C1CC1	
InChI=1S/C7H12O2/c1-9-5-4-7(8)6-2-3-6/h6H,2-5H2,1H3	InChI=1S/C7H12O2/c1-9-5-4-7(8)6-2-3-6/h6H,2-5H2,1H3
