14
gdb 6251	4.2752	1.33009	1.03586	3.918	62.59	-0.2671	-0.0777	0.1894	1076.6138	0.105545	-415.904301	-415.895703	-415.894758	-415.939102	28.731	
C	-0.0096852028	 1.3949519488	 0.0859628723	-0.497511
C	-0.3436375309	 0.0601442357	-0.551487856	 0.407889
O	-1.3585114728	-0.1457584767	-1.1843096861	-0.342551
N	 0.6175837664	-0.9159769473	-0.344542567	-0.352273
C	 0.6304659815	-2.2009140372	-0.8937743566	 0.282317
N	 1.7381404769	-2.8187803239	-0.9768758615	-0.475764
C	-0.6927640946	-2.8637399966	-1.2655653565	 0.111441
O	-0.6882787122	-3.8651020784	-1.9348119952	-0.245178
H	 0.900439303	 1.8146456067	-0.3560041509	 0.151289
H	-0.8390757372	 2.0801440067	-0.0831579015	 0.161552
H	 0.162570618	 1.2840013266	 1.1611476034	 0.149225
H	 1.5082140864	-0.6382049152	 0.0460593716	 0.264445
H	 1.5583426522	-3.7473900377	-1.3674586597	 0.250197
H	-1.612011134	-2.4163734214	-0.8624887663	 0.134924
38.4909	58.6802	79.2061	127.0268	249.0427	309.6867	371.9004	410.1003	515.3223	599.3059	610.3675	667.6693	705.5625	861.3496	912.474	986.4039	997.0887	1021.8186	1054.9461	1144.9851	1243.4048	1359.7094	1388.9534	1445.7657	1463.5458	1481.5718	1499.1095	1700.1943	1796.7058	1811.3868	3044.4053	3045.7918	3109.081	3169.7207	3455.7693	3592.5069
CC(=O)NC(=N)C=O	CC(=O)NC(=N)C=O	
InChI=1S/C4H6N2O2/c1-3(8)6-4(5)2-7/h2H,1H3,(H2,5,6,8)	InChI=1S/C4H6N2O2/c1-3(8)6-4(5)2-7/h2H,1H3,(H2,5,6,8)
