17
gdb 20579	3.26632	1.97466	1.25228	2.0922	71.71	-0.1944	0.04	0.2344	964.3003	0.142997	-360.079031	-360.070299	-360.069354	-360.112196	31.326	
C	 0.0051976924	 1.5052391071	 0.1285316468	-0.505049
C	 0.008439846	 0.0221653673	-0.0498619729	 0.29931
C	-0.011959504	-0.766214613	-1.1882824911	 0.088896
C	-0.0810633236	-0.3477843073	-2.6230458988	-0.525877
C	 0.0255333677	-2.0969785712	-0.6889951905	 0.289544
N	-0.0557225694	-3.2669859164	-1.4513088427	-0.588649
N	 0.069615135	-2.1410813279	 0.6371158325	-0.314091
N	 0.0509550203	-0.8326180918	 1.0025314704	-0.268962
H	 1.0196005421	 1.9132834237	 0.2162367732	 0.137462
H	-0.4707794496	 1.9953060481	-0.7247428419	 0.140103
H	-0.5472130733	 1.7972857109	 1.0280114416	 0.127073
H	 0.8804994496	-0.4589876198	-3.1427108459	 0.117966
H	-0.8136577904	-0.9500454341	-3.1726395884	 0.133152
H	-0.3748901727	 0.701619026	-2.7223669257	 0.119043
H	 0.5600312386	-3.2584573516	-2.2545681695	 0.241494
H	 0.132097736	-4.0833643494	-0.8821758745	 0.246413
H	 0.0582560352	-0.6013123206	 1.9801228475	 0.26217
69.8226	108.8657	162.2591	235.5132	239.9886	273.3939	297.214	326.7291	414.3898	493.5798	581.0119	655.9729	700.1967	703.7618	774.8021	812.2084	954.4446	996.839	1054.2662	1066.5097	1088.8895	1149.9452	1205.8953	1252.5126	1311.296	1413.322	1422.8099	1451.4247	1481.3275	1483.7681	1487.9276	1502.7781	1533.9154	1540.9947	1632.4492	1654.7755	3009.0511	3026.3214	3060.7528	3080.8988	3099.1051	3115.6439	3530.6608	3624.129	3686.0003
CC1=C(C)C(N)=NN1	Cc1c(C)c(N)n[nH]1	
InChI=1S/C5H9N3/c1-3-4(2)7-8-5(3)6/h1-2H3,(H3,6,7,8)	InChI=1S/C5H9N3/c1-3-4(2)7-8-5(3)6/h1-2H3,(H3,6,7,8)
