16
gdb 67227	2.66929	1.99402	1.48085	2.3364	68.15	-0.2356	-0.0153	0.2203	893.7856	0.126062	-437.846846	-437.839992	-437.839048	-437.87785	27.713	
O	 0.0820383533	 1.4251466581	 0.083484023	-0.472928
C	 0.0109738206	 0.0643449718	-0.0007628084	 0.337458
C	 0.3133940244	-0.7901827838	 1.2909607194	-0.065034
C	 0.658721609	-2.1538343995	 0.6348386594	-0.2317
C	-0.2850773578	-1.9587922346	-0.5773895745	-0.200602
C	-1.2866848571	-0.8877204164	 0.0947127235	-0.085983
N	-1.1493769079	-0.8737876683	 1.5523027414	-0.302403
C	 0.3650173897	-0.7372067536	-1.2320889485	 0.352802
O	 0.7022583628	-0.4098138274	-2.3374201349	-0.347325
H	 0.0972390259	 1.7695738747	-0.8190681695	 0.300569
H	 0.948950008	-0.399033889	 2.0847412864	 0.090103
H	 1.7066939455	-2.2649853191	 0.3420533359	 0.117408
H	 0.3823074121	-2.9912217704	 1.2829604746	 0.103044
H	-0.6273350203	-2.8121267546	-1.1544982289	 0.092538
H	-2.2452825968	-0.6928787134	-0.3803167767	 0.099676
H	-1.4349627413	-1.7360104546	 2.0183984975	 0.212376
142.2721	196.4542	287.2796	353.9406	396.4121	447.6029	551.2015	565.4236	630.0957	652.8871	776.6932	787.8606	839.4212	887.4791	905.0964	921.7173	939.342	977.2614	1001.0914	1017.738	1025.6206	1062.8976	1107.7443	1139.8063	1154.9607	1194.2751	1222.4486	1238.0206	1290.2269	1318.3796	1340.1473	1363.0822	1417.4295	1500.2876	1871.3551	3050.3085	3101.4443	3128.4928	3151.8072	3174.5146	3434.6173	3769.8578
OC12C3CC(C1N3)C2=O	O[C@@]12[C@@H]3C[C@@H]([C@H]1N3)C2=O	
InChI=1S/C6H7NO2/c8-5-2-1-3-6(5,9)4(2)7-3/h2-4,7,9H,1H2	InChI=1S/C6H7NO2/c8-5-2-1-3-6(5,9)4(2)7-3/h2-4,7,9H,1H2/t2-,3-,4+,6-/m0/s1
