14
gdb 66603	3.26539	2.11338	1.76909	3.84	63.57	-0.213	-0.0355	0.1775	775.9209	0.100823	-436.548703	-436.542674	-436.54173	-436.578644	25.397	
O	-0.3907543158	 1.2776994292	 0.2730008185	-0.440373
C	-0.2820407573	-0.0660744914	 0.1650040348	 0.417628
C	-0.1726829644	-0.8596197947	-1.1589455788	-0.186161
C	-1.3265626433	-1.0593647856	-0.1688435629	-0.165747
C	-0.3892032716	-2.0820919419	 0.5328219394	-0.050408
N	 0.3882918196	-0.948791448	 1.2123035713	-0.178645
C	 1.7741565705	-1.027673596	 0.8471544707	-0.073352
O	 1.8615815527	-1.8599512247	-0.1732831307	-0.138035
C	 0.5122336658	-2.1518020767	-0.6903602326	 0.063822
H	 0.4633011818	 1.6805869612	 0.0731518896	 0.307338
H	-0.1720998668	-0.3875403912	-2.1310825927	 0.110513
H	-2.3970610489	-0.9906943877	-0.2749375941	 0.122854
H	-0.6579955282	-2.9258912664	 1.1618628032	 0.099718
H	 0.547877106	-3.0194633863	-1.3427198257	 0.110849
229.641	300.0572	382.3185	421.2189	445.3497	565.4185	607.7935	649.6348	744.4309	784.7943	799.9546	830.0507	858.0993	877.8276	902.2629	918.7326	924.1844	961.7831	967.082	1013.999	1037.9024	1101.0384	1135.4277	1160.3092	1180.1163	1212.654	1261.1792	1276.9136	1296.6821	1317.9515	1494.9604	3158.8917	3172.1339	3224.9988	3256.0414	3784.431
OC12C3C1C1N=C2OC31	O[C@]12[C@@H]3[C@H]1[C@@H]1N2[C]O[C@H]31	
InChI=1S/C6H5NO2/c8-6-1-2(6)4-3(1)7-5(6)9-4/h1-4,8H	InChI=1S/C6H5NO2/c8-6-2-3(6)5-4(2)7(6)1-9-5/h2-5,8H/t2-,3+,4-,5+,6-/m0/s1
