21
gdb 102102	2.26611	1.20652	0.90484	3.2178	79.24	-0.2454	-0.0408	0.2046	1365.6472	0.180462	-424.2229	-424.213028	-424.212083	-424.257889	36.326	
C	-0.0467926917	 1.5142633593	 0.1835477919	-0.393217
C	-0.0865981542	-0.0105333459	 0.0371312648	-0.205294
C	-1.5094999068	-0.5771714455	-0.0735112306	-0.078395
C	-2.1843983591	-0.1810411192	-1.3813786235	 0.159357
O	-3.3534269576	-0.3723999606	-1.6268222301	-0.262316
C	-1.5600763166	-2.0974331011	 0.0542655235	-0.058417
C	-1.7397909984	-2.739435428	 1.4177517172	-0.320317
C	-2.8660570638	-2.7595443061	 0.423729986	 0.113845
O	-3.9714605862	-1.9589430981	 0.7034609814	-0.434223
H	 0.9828113902	 1.8780689525	 0.2491528787	 0.121042
H	-0.5194217797	 2.0194887043	-0.666414985	 0.117783
H	-0.573774621	 1.8346209426	 1.0888251446	 0.123654
H	 0.4920731332	-0.3167416369	-0.8454322963	 0.098291
H	 0.4051136566	-0.4770004804	 0.8972032116	 0.111487
H	-2.1391736266	-0.1617860098	 0.7228894925	 0.116249
H	-1.5305884718	 0.2879864332	-2.1504325303	 0.090445
H	-0.9289104316	-2.6290031825	-0.654281404	 0.085301
H	-1.2097487319	-3.6605696595	 1.6329891405	 0.112759
H	-1.8661844852	-2.0753841695	 2.2660758507	 0.121864
H	-3.0940990609	-3.7104791613	-0.0584511545	 0.084417
H	-4.1464825769	-1.4392847774	-0.0974735591	 0.295684
74.66	91.346	128.4889	154.7682	207.2814	213.5137	256.8561	291.5551	379.9393	389.3711	470.8097	534.2178	600.4581	617.2837	768.1211	786.9741	822.5725	872.0325	919.9261	953.2325	965.5069	1003.7557	1032.5276	1045.467	1067.2924	1124.8134	1136.7805	1151.3811	1173.9171	1177.827	1239.3932	1257.3851	1274.9048	1335.022	1366.9664	1373.6837	1390.9843	1416.3821	1424.2601	1433.6435	1482.4073	1488.1608	1501.4913	1504.5605	1801.0678	2882.5851	3016.5234	3031.3748	3043.9688	3068.0858	3092.5363	3097.9464	3108.255	3130.2699	3135.7975	3224.681	3678.5496
CCC(C=O)C1CC1O	CC[C@@H](C=O)[C@H]1C[C@H]1O	
InChI=1S/C7H12O2/c1-2-5(4-8)6-3-7(6)9/h4-7,9H,2-3H2,1H3	InChI=1S/C7H12O2/c1-2-5(4-8)6-3-7(6)9/h4-7,9H,2-3H2,1H3/t5-,6+,7+/m0/s1
