25
gdb 118754	3.27782	0.80387	0.74703	1.3081	89.73	-0.2506	0.0722	0.3228	1706.5539	0.22697	-389.495241	-389.484488	-389.483544	-389.53109	40.516	
C	 0.003373674	 1.6172214343	 0.0489654399	-0.379547
C	 0.0005736295	 0.0861830006	 0.0773494183	-0.184553
C	-1.4030557108	-0.5139784542	-0.0733171484	-0.224674
C	-1.4407336751	-2.0389248232	-0.0065198905	 0.411368
O	-0.6903455267	-2.6283869871	-1.0675049576	-0.491328
C	-1.1379936662	-2.7322208652	 1.3594327025	-0.284213
C	-2.3037612091	-3.7235061151	 1.0783566803	 0.057468
C	-3.2237998564	-4.1107707494	 2.2247272845	-0.408926
C	-2.826575312	-2.7325865028	-0.0005627351	-0.264255
H	 1.0168557574	 2.0179703156	 0.1503871136	 0.110526
H	-0.4124986683	 1.9947267798	-0.8916054215	 0.116953
H	-0.6012310499	 2.0283612142	 0.8649517587	 0.114455
H	 0.6439941741	-0.2857782732	-0.7308608591	 0.090068
H	 0.4488109034	-0.2622969104	 1.017639708	 0.097729
H	-2.0552108908	-0.1115007755	 0.7127358422	 0.085499
H	-1.8342438275	-0.200485913	-1.0334406585	 0.09798
H	 0.2417810128	-2.4517937878	-0.9030849124	 0.27557
H	-0.1339041374	-3.1472721064	 1.4885180319	 0.085487
H	-1.3602445804	-2.0759878061	 2.2081420425	 0.089646
H	-1.912274389	-4.6208517102	 0.5907370317	 0.080103
H	-3.6264672828	-3.2218670503	 2.7249308673	 0.106699
H	-4.073608825	-4.7052439139	 1.8703199616	 0.113441
H	-2.6949423391	-4.7049142669	 2.9788021946	 0.111601
H	-3.6068057952	-2.0739160029	 0.3944701202	 0.088733
H	-3.1484579496	-3.140433451	-0.9610059447	 0.10417
58.9704	86.673	96.2149	158.087	232.4303	246.9529	269.238	304.5906	312.7613	334.179	349.1517	375.935	445.5168	479.4341	651.2461	741.7138	757.4435	819.3229	873.4001	879.1306	897.7431	900.5405	937.7098	964.2407	986.824	1035.9763	1048.0753	1054.7726	1095.0638	1122.6957	1144.3743	1193.2039	1213.9091	1231.5585	1246.5523	1285.8448	1291.6804	1299.6006	1303.3303	1337.7921	1356.075	1367.1154	1401.59	1411.3543	1412.8234	1459.5844	1473.4696	1484.9136	1492.781	1495.9304	1496.4454	1499.6913	1508.9712	3007.0239	3015.3984	3018.5785	3029.6689	3034.8128	3036.183	3050.6551	3058.2666	3060.393	3085.21	3087.2956	3095.348	3097.1334	3100.9141	3117.269	3809.3712
CCCC1(O)CC(C)C1	CCC[C@@]1(O)C[C@@H](C)C1	
InChI=1S/C8H16O/c1-3-4-8(9)5-7(2)6-8/h7,9H,3-6H2,1-2H3	InChI=1S/C8H16O/c1-3-4-8(9)5-7(2)6-8/h7,9H,3-6H2,1-2H3/t7-,8-
