23
gdb 77475	1.96709	1.46039	1.35751	1.4943	86.47	-0.2305	0.076	0.3064	1188.7701	0.203678	-388.274466	-388.264219	-388.263275	-388.308523	39.059	
C	-0.2644295498	 1.5517494528	 0.0195888472	-0.420243
C	 0.0504045853	 0.0590736074	-0.0017588058	 0.002377
C	 1.1907825594	-0.4915695714	-0.9174371575	-0.304349
C	 1.7912351977	-1.2418126583	 0.2811894535	 0.234012
C	 2.3524998329	-2.6354102029	 0.2205633431	-0.497713
C	 2.1577511032	-0.2435229887	 1.3409244779	 0.003471
O	 2.6181618395	 1.0561291271	 1.070263613	-0.419654
C	 0.7113679343	-0.6092442103	 1.2187781402	 0.250587
C	-0.0685241711	-1.1964637027	 2.3639771109	-0.497434
H	 0.6331308719	 2.1385868328	 0.2203543694	 0.141403
H	-0.6853109914	 1.8712763317	-0.9409678287	 0.102409
H	-1.0051644101	 1.7839289814	 0.7936466599	 0.1053
H	-0.868163366	-0.4957515525	-0.2279074211	 0.065009
H	 0.8268226221	-1.1558246313	-1.7052207837	 0.092614
H	 1.8434267656	 0.2628350987	-1.3682458825	 0.086768
H	 3.2854439548	-2.6656227791	-0.3572175449	 0.115193
H	 2.5735263225	-3.0234477975	 1.220617861	 0.115288
H	 1.6517929562	-3.3300021393	-0.2575639517	 0.11624
H	 2.6331284724	-0.6950777589	 2.2151044552	 0.074924
H	 3.5026516307	 0.9840960862	 0.6955466021	 0.283205
H	-0.5139154739	-0.4085472374	 2.9841361333	 0.123635
H	-0.8852464527	-1.8337661589	 2.0051033075	 0.113206
H	 0.5663993266	-1.8047317087	 3.0167889418	 0.113751
157.3894	163.2849	172.9857	181.1337	204.8876	220.7143	234.741	266.8114	291.9647	310.1179	351.777	411.7975	549.5111	561.2351	594.9691	673.1992	712.7792	800.3491	855.2313	896.1164	937.9731	970.5886	1001.0649	1043.9651	1058.6614	1082.9941	1115.8884	1119.2889	1129.5996	1179.5278	1218.5746	1233.4325	1245.7367	1260.6939	1307.4241	1336.4661	1343.525	1373.7706	1404.9939	1410.2467	1417.9026	1471.4064	1484.3766	1487.5351	1493.4416	1495.509	1496.4701	1509.6514	1516.8274	3012.9462	3016.813	3021.2198	3029.924	3045.5999	3068.2678	3072.2299	3074.4329	3082.2588	3088.8626	3092.7726	3099.3411	3141.9806	3799.3009
CC1CC2(C)C(O)C12C	C[C@H]1C[C@@]2(C)[C@@H](O)[C@@]12C	
InChI=1S/C8H14O/c1-5-4-7(2)6(9)8(5,7)3/h5-6,9H,4H2,1-3H3	InChI=1S/C8H14O/c1-5-4-7(2)6(9)8(5,7)3/h5-6,9H,4H2,1-3H3/t5-,6+,7-,8+/m0/s1
