17
gdb 10620	2.52547	1.79831	1.26684	4.2303	69.98	-0.2469	0.0223	0.2691	1009.9038	0.142447	-360.025634	-360.016816	-360.015872	-360.059008	31.553	
C	-0.0113721275	 1.5059637484	-0.1326949229	-0.406821
C	 0.0524976296	 0.0098676921	 0.0579857551	-0.037911
N	 1.3661683537	-0.6376366601	 0.0045469396	-0.361351
C	 0.6093679249	-0.6685206055	 1.2804667808	 0.166743
C	 1.2618755678	 0.0627417422	 2.4411306241	-0.226369
N	 2.3866033011	-0.7311794514	 2.9280296962	-0.502473
C	-0.0215176672	-1.9244600752	 1.6334119849	 0.265158
N	-0.5434203461	-2.9243620269	 1.8901994182	-0.344294
H	 0.8753271224	 2.0027241707	 0.2639616898	 0.134917
H	-0.0719049309	 1.7369401092	-1.2013571154	 0.131271
H	-0.8996950995	 1.9230327672	 0.3523188694	 0.129873
H	-0.7721564759	-0.5310491614	-0.403317175	 0.109636
H	 1.3162009652	-1.5391533585	-0.4628780694	 0.251856
H	 1.5293718757	 1.0744838151	 2.1053675624	 0.096464
H	 0.5317758996	 0.1683791934	 3.2513278558	 0.120616
H	 3.1118170278	-0.7493729968	 2.2169504514	 0.239139
H	 2.7898363393	-0.3020441424	 3.753980085	 0.233548
77.1454	140.0554	150.2878	170.028	206.522	242.6478	314.1079	370.5603	408.7871	499.9511	577.9041	597.9787	681.4463	795.6739	856.2779	875.4778	939.2997	979.6963	1030.8655	1055.5858	1087.5358	1109.4002	1124.8549	1192.422	1243.3131	1271.0449	1333.0082	1342.7221	1407.6982	1431.0486	1453.7811	1487.7627	1492.8492	1502.0397	1653.1024	2349.1087	3001.28	3043.3217	3067.7602	3104.5292	3120.643	3143.0454	3499.3015	3512.2823	3582.6441
CC1NC1(CN)C#N	C[C@H]1N[C@]1(CN)C#N	
InChI=1S/C5H9N3/c1-4-5(2-6,3-7)8-4/h4,8H,2,6H2,1H3	InChI=1S/C5H9N3/c1-4-5(2-6,3-7)8-4/h4,8H,2,6H2,1H3/t4-,5-/m1/s1
