21
gdb 58840	2.99423	1.24713	1.18649	1.7527	82.01	-0.2408	0.0047	0.2455	1184.1159	0.181793	-387.090063	-387.081221	-387.080277	-387.123365	34.397	
C	 0.0215033211	 1.4221771045	-0.2877496784	-0.398347
C	 0.0170085163	-0.060424343	 0.116562111	-0.057495
C	 0.8408119052	-0.3059090855	 1.3889825107	-0.399157
C	-1.4012808099	-0.5809721135	 0.2391268934	 0.432586
C	-2.3781420262	-0.0581250827	 1.301134294	-0.336358
C	-3.3287849937	-1.2195997896	 1.509760516	-0.079223
C	-3.0026789467	-2.2799811182	 0.7665926173	-0.075762
C	-1.8190667696	-1.9604990768	-0.0843357689	-0.082905
O	-2.0587733486	-0.8656393886	-1.004770215	-0.314472
H	 1.0427025586	 1.7732887166	-0.4671843631	 0.11008
H	-0.5585733658	 1.5765103344	-1.2022116733	 0.131423
H	-0.4101902564	 2.0510885552	 0.499456435	 0.113036
H	 0.4718930874	-0.6317410224	-0.702175216	 0.081268
H	 1.8812449034	-0.003402585	 1.2337677189	 0.115003
H	 0.4574050158	 0.2717253825	 2.2371007352	 0.116322
H	 0.8346167338	-1.3632629471	 1.6722601182	 0.115823
H	-1.8661610124	 0.2164702293	 2.2317738796	 0.111364
H	-2.9006947731	 0.8395344317	 0.9500097195	 0.125205
H	-4.1858795227	-1.1535591922	 2.1706866936	 0.100451
H	-3.523742039	-3.2287947157	 0.7389754284	 0.10074
H	-1.1401227577	-2.7246433439	-0.4526007561	 0.090419
66.1607	136.8996	205.7497	233.9885	258.3485	291.5567	301.3681	372.7715	449.2685	480.5419	539.0682	598.7118	716.9488	738.5651	809.6004	867.9174	881.3875	915.873	928.1448	940.9491	950.1365	964.7135	980.7225	1007.3359	1040.0134	1066.8169	1129.9693	1137.5179	1186.6036	1187.9287	1244.6738	1256.0923	1318.3934	1335.2906	1347.1179	1373.6278	1396.3154	1416.2237	1438.2777	1459.9558	1489.5987	1492.5087	1504.5315	1513.2906	1662.7118	3026.4116	3029.8705	3031.2065	3035.25	3065.8297	3094.8765	3101.4661	3104.9605	3112.3876	3152.2574	3190.0323	3219.1766
CC(C)C12CC=CC1O2	CC(C)[C@]12CC=C[C@H]1O2	
InChI=1S/C8H12O/c1-6(2)8-5-3-4-7(8)9-8/h3-4,6-7H,5H2,1-2H3	InChI=1S/C8H12O/c1-6(2)8-5-3-4-7(8)9-8/h3-4,6-7H,5H2,1-2H3/t7-,8-/m1/s1
