20
gdb 103731	2.16177	1.44433	1.00441	1.9278	76.83	-0.256	-0.0407	0.2153	1232.8503	0.167975	-440.271762	-440.261404	-440.260459	-440.306774	37.467	
C	-0.1265487474	 1.5442269148	 0.0075767559	-0.452486
C	-0.0673605888	 0.0294002032	 0.0893113967	 0.250183
C	-1.3109902415	-0.6397877932	-0.4851432365	-0.156956
O	-1.4997738994	-0.2975587124	-1.8535588499	-0.412386
N	 1.2488471904	-0.5683688313	-0.1722045116	-0.399668
C	 0.7298468794	-0.630922898	 1.2048708235	 0.179839
C	 1.4391815029	 0.1719887132	 2.2790991501	-0.475553
C	 0.2956800466	-1.9826736393	 1.6759825863	 0.103337
O	 0.2054294935	-2.9607554374	 0.9692429381	-0.270922
H	 0.8581524502	 1.9946612531	 0.1323291391	 0.13072
H	-0.5091374079	 1.8233631238	-0.9778228999	 0.144378
H	-0.8068003763	 1.9532921413	 0.7624894554	 0.117598
H	-1.2726939688	-1.72499077	-0.3523697652	 0.123146
H	-2.2008169698	-0.2633730923	 0.0317496227	 0.113265
H	-0.7750762558	-0.6836874477	-2.3567037562	 0.287849
H	 1.1375706649	-1.505677341	-0.566657801	 0.235392
H	 1.7245505754	 1.1597509805	 1.9204844186	 0.139524
H	 0.7959532752	 0.2978118186	 3.15720969	 0.12324
H	 2.3517207462	-0.3414093715	 2.6005609685	 0.13271
H	 0.083107531	-2.0472410644	 2.7649671455	 0.086789
95.4484	111.5767	131.9854	153.0191	167.0199	222.8603	264.3156	298.918	305.6378	332.0069	375.3015	392.6	459.2054	533.9561	642.4679	710.8099	774.2892	839.2837	924.0841	938.0037	993.4765	1003.9804	1054.255	1066.1426	1089.5466	1110.0398	1139.8616	1158.0715	1225.6584	1271.0261	1327.8805	1372.7426	1398.4729	1414.449	1418.0952	1426.6189	1438.3756	1479.2915	1486.6617	1494.1432	1502.5999	1512.9721	1794.1571	2901.299	3038.5205	3042.312	3046.6929	3095.869	3096.1462	3113.8719	3146.7523	3160.9568	3427.1406	3811.7143
CC1(CO)NC1(C)C=O	C[C@@]1(CO)N[C@]1(C)C=O	
InChI=1S/C6H11NO2/c1-5(3-8)6(2,4-9)7-5/h3,7,9H,4H2,1-2H3	InChI=1S/C6H11NO2/c1-5(3-8)6(2,4-9)7-5/h3,7,9H,4H2,1-2H3/t5-,6+/m1/s1
