15
gdb 61161	1.9163	1.52052	1.03288	1.3352	67.46	-0.2623	-0.1055	0.1569	1160.0015	0.108051	-457.73674	-457.72703	-457.726086	-457.772262	33.614	
O	 0.7107740833	 1.823546915	 0.8222063738	-0.419299
C	 0.2424539543	 0.6220494101	 0.2699068373	 0.01848
C	 0.4060151334	 0.6654316644	-1.2819506743	-0.373263
C	-0.0580808634	-0.5196780394	-1.987165309	 0.291285
C	-0.4371935572	-1.5086383327	-2.5553031066	-0.437971
C	 1.0295835705	-0.5508675267	 0.8361024566	 0.290101
O	 2.1493224469	-0.400916488	 1.273762425	-0.303807
C	 0.3835008399	-1.9351964523	 0.9198655769	 0.102585
O	-0.8070123904	-2.0966986292	 0.911611719	-0.211006
H	 1.6219737344	 1.6554528131	 1.1052352159	 0.294841
H	-0.8168089595	 0.4949142306	 0.5135205245	 0.131293
H	-0.1347755001	 1.5544489091	-1.6230034915	 0.154242
H	 1.4680315965	 0.8427107999	-1.4929455921	 0.141084
H	-0.7808639996	-2.3783348114	-3.0588093943	 0.206163
H	 1.1171653509	-2.7533830326	 1.0702393987	 0.115271
42.5387	83.3789	102.3339	129.5507	178.9427	226.1581	318.8172	352.7376	389.5889	415.1984	476.7969	511.3104	620.3793	640.2456	653.6514	665.7824	767.9059	951.5431	970.0977	994.9187	1035.1668	1106.4365	1171.965	1189.7328	1269.3936	1329.8618	1346.0245	1370.8008	1443.0119	1467.5764	1792.1863	1822.0927	2238.4585	2936.3728	3032.7808	3072.2263	3085.9049	3503.9623	3722.9518
OC(CC#C)C(=O)C=O	O[C@@H](CC#C)C(=O)C=O	
InChI=1S/C6H6O3/c1-2-3-5(8)6(9)4-7/h1,4-5,8H,3H2	InChI=1S/C6H6O3/c1-2-3-5(8)6(9)4-7/h1,4-5,8H,3H2/t5-/m0/s1
