17
gdb 98556	3.52602	1.14708	0.9527	3.7204	70.8	-0.255	-0.0368	0.2182	1223.2581	0.134339	-458.930658	-458.922247	-458.921303	-458.964171	31.133	
O	-0.0119085896	 1.2900583741	 0.5160334773	-0.42401
C	-0.2501856109	-0.0760636056	 0.6737129733	-0.132764
C	-1.2636132184	-0.5696257544	-0.3451883114	 0.241822
O	-1.7546484263	 0.2069789965	-1.1446712031	-0.353892
C	-1.6259158621	-1.9957295209	-0.3115637376	 0.373502
C	-2.2244865111	-2.7703154616	-1.4538334763	-0.321304
C	-3.0027025403	-2.6563893172	-0.1772255672	-0.153582
C	-2.3313036109	-3.4816494264	 0.9166355901	-0.097331
O	-1.0365963315	-2.8682699932	 0.6544049949	-0.323822
H	-0.5837694974	 1.562883112	-0.2197825537	 0.292966
H	 0.671798097	-0.6693103551	 0.5583787619	 0.12894
H	-0.6314406073	-0.3136186753	 1.6799952022	 0.122346
H	-2.5875695961	-2.1528845337	-2.2678132613	 0.151129
H	-1.7477429841	-3.7058668805	-1.7318462219	 0.128417
H	-3.9672651425	-2.1724315336	-0.1130265312	 0.126479
H	-2.6729041578	-3.2344215723	 1.9268131847	 0.122726
H	-2.3066010706	-4.5688199529	 0.7844279294	 0.11838
66.6221	107.2946	146.3073	187.6557	309.6083	345.752	367.3072	421.216	454.1316	511.2387	568.3228	757.3505	780.5613	813.069	853.0644	923.225	961.0415	976.7707	990.2332	1010.6438	1027.2873	1066.825	1082.3037	1130.2433	1143.9643	1161.6368	1194.0959	1233.9396	1285.7211	1315.4502	1343.5973	1388.7073	1452.744	1466.1957	1483.4249	1515.9642	1767.2597	2982.2012	2996.2361	3036.7919	3089.8281	3125.545	3216.1301	3231.688	3678.6236
OCC(=O)C12CC1CO2	OCC(=O)[C@]12C[C@H]1CO2	
InChI=1S/C6H8O3/c7-2-5(8)6-1-4(6)3-9-6/h4,7H,1-3H2	InChI=1S/C6H8O3/c7-2-5(8)6-1-4(6)3-9-6/h4,7H,1-3H2/t4-,6-/m0/s1
