17
gdb 17759	2.94834	2.67863	1.81855	2.2298	71.15	-0.2031	0.0696	0.2727	793.7099	0.141222	-326.611821	-326.604666	-326.603721	-326.642674	27.853	
C	-0.074073835	 1.5011366798	 0.0462073999	-0.528401
C	 0.002744034	 0.0122853418	-0.0140757631	 0.283169
C	 0.9002922561	-0.9727634483	-0.8145351683	-0.115673
C	-0.1793649124	-1.9927856821	-0.8239104503	-0.115672
N	 0.8412589302	-2.001812828	 0.2832622187	-0.177276
C	-0.0651271517	-1.0495692059	 1.0612505661	-0.121855
C	-1.119226904	-1.0477271314	-0.0238018348	 0.283171
C	-2.6018170662	-0.8870221553	 0.0242987854	-0.528401
H	 0.874655585	 1.9387013601	 0.3789817933	 0.127022
H	-0.317406302	 1.9336204242	-0.9315609179	 0.122974
H	-0.8488158284	 1.8216870881	 0.751316243	 0.1237
H	 1.7768433791	-0.8431452243	-1.4398548379	 0.090677
H	-0.3527452515	-2.8551049314	-1.4583489106	 0.090677
H	-0.124159744	-0.9970057087	 2.1424951636	 0.092193
H	-2.8843683776	-0.1014638453	 0.7336781417	 0.1237
H	-3.0108346359	-0.6110685754	-0.9549039411	 0.122974
H	-3.095500166	-1.8122223177	 0.3445656422	 0.127022
171.834	197.5793	205.1233	250.6728	283.0421	338.7354	587.5044	636.443	664.2757	745.8828	762.5719	781.3643	844.6038	875.344	880.0176	946.9592	948.6548	971.6418	981.9242	1001.4849	1098.674	1101.4183	1123.7566	1148.06	1191.009	1196.2143	1239.1181	1315.1739	1361.366	1413.7859	1415.3311	1460.9583	1478.5577	1485.0375	1494.8233	1506.0395	3017.4338	3019.8176	3075.5436	3076.4503	3089.6388	3092.7089	3162.3225	3173.7398	3176.5377
CC12C3C4N3C1C24C	C[C@@]12[C@@H]3[C@H]4N3[C@@H]1[C@@]24C	
InChI=1S/C7H9N/c1-6-3-4-7(6,2)5(6)8(3)4/h3-5H,1-2H3	InChI=1S/C7H9N/c1-6-3-4-7(6,2)5(6)8(3)4/h3-5H,1-2H3/t3-,4+,5-,6+,7-,8?
