19
gdb 81449	3.38853	1.33754	1.24211	2.0344	74.81	-0.2538	0.071	0.3248	1070.5657	0.160465	-422.986744	-422.979276	-422.978332	-423.018311	30.521	
O	-0.0182041431	 1.3483436858	-0.1575997483	-0.450911
C	 0.0011848943	-0.0565435458	-0.0454476059	 0.15242
C	 0.1252743257	-0.6203874852	 1.4097684139	-0.077062
C	-1.3745804592	-0.2274568056	 1.5782990606	-0.239397
C	-1.44070488	-0.62753892	 0.0699100941	-0.115008
C	-1.1374332432	-2.1140677169	 0.1493820774	 0.491893
C	-2.0846081465	-3.1962148921	-0.1108070466	-0.284379
O	-1.0459064641	-2.8777783174	-1.0503731039	-0.295598
C	 0.0343642863	-2.1379373771	 1.1555769216	-0.319135
H	 0.8744131226	 1.6711513624	 0.0016651497	 0.283563
H	 0.6499047722	-0.5090196189	-0.808189574	 0.073535
H	 0.8998639144	-0.2672833716	 2.0922905368	 0.058235
H	-1.9772215046	-0.802501934	 2.2867615886	 0.088641
H	-1.5155525329	 0.8416436311	 1.7240928355	 0.119261
H	-2.2369692722	-0.3085934529	-0.6009998529	 0.072669
H	-1.9712041641	-4.1512612012	 0.4018085683	 0.110393
H	-3.0976642062	-2.9675746454	-0.4411842967	 0.111929
H	 0.932041087	-2.5581001625	 0.691978061	 0.113756
H	-0.1878094163	-2.7061566627	 2.0635406709	 0.105195
121.1459	246.327	264.3752	294.8203	334.5157	387.0988	418.6121	464.7285	520.8509	562.9004	753.1821	822.8728	837.3173	847.8194	888.3646	899.8433	923.9271	948.584	952.4651	1006.3047	1025.2061	1044.1985	1082.4247	1097.0154	1111.1365	1126.3389	1164.3885	1166.268	1207.1613	1212.5478	1226.0798	1246.52	1261.9679	1277.2203	1302.5189	1330.6888	1426.9971	1441.2701	1483.0082	1500.938	1538.2556	3007.2351	3051.9909	3066.3625	3074.3551	3099.2447	3102.4032	3132.8332	3158.8715	3159.1091	3815.5561
OC1C2CC1C1(CO1)C2	O[C@H]1[C@H]2C[C@@H]1[C@]1(CO1)C2	
InChI=1S/C7H10O2/c8-6-4-1-5(6)7(2-4)3-9-7/h4-6,8H,1-3H2	InChI=1S/C7H10O2/c8-6-4-1-5(6)7(2-4)3-9-7/h4-6,8H,1-3H2/t4-,5-,6-,7+/m0/s1
