20
gdb 122328	4.82309	0.73771	0.68422	0.9662	78.45	-0.2427	0.0196	0.2623	1715.9545	0.170571	-440.293516	-440.283877	-440.282933	-440.329766	33.093	
C	 0.6145075533	 1.1140378173	 0.5950353468	-0.385762
C	-0.0786519193	-0.0318859335	-0.1209568841	-0.021337
O	 0.7869673204	-0.5188800094	-1.1285846369	-0.242733
C	 0.2324116421	-1.5921053293	-1.8517592245	-0.149792
C	 1.2318745375	-2.0773232983	-2.8564511079	 0.4024
N	 1.0185343207	-2.196655211	-4.1026109983	-0.31109
C	 2.2482491772	-2.7647675448	-4.6780989867	-0.185249
C	 3.2328260153	-2.857320983	-3.4836315225	-0.10962
O	 2.4362514295	-2.4462170108	-2.3492037217	-0.245475
H	 1.5512608559	 0.773398874	 1.0447560326	 0.130001
H	 0.8441999824	 1.9210498996	-0.1062839718	 0.129075
H	-0.0278515315	 1.5124417572	 1.3860025103	 0.115081
H	-0.3260606504	-0.8409555636	 0.5874577019	 0.087191
H	-1.0290814492	 0.3065316878	-0.567214567	 0.088733
H	-0.0257511944	-2.4250048039	-1.1743075006	 0.103944
H	-0.6773533317	-1.29897145	-2.393050014	 0.11998
H	 2.0310337956	-3.7423123172	-5.1227991888	 0.116311
H	 2.6196815958	-2.1190516948	-5.4798715594	 0.11913
H	 3.6052275655	-3.8669000298	-3.2920489022	 0.118802
H	 4.0842563654	-2.1754555766	-3.5682827753	 0.120411
43.2284	66.1641	87.2368	104.2035	129.6543	238.6242	244.0129	306.6039	351.832	452.2574	639.8	751.8605	765.2104	822.0799	831.6757	908.8404	919.6219	965.871	986.3371	1012.0984	1041.058	1067.7108	1120.4302	1145.1286	1162.1742	1188.7248	1214.4886	1240.7796	1248.6705	1276.648	1295.2157	1335.7225	1378.787	1396.5768	1408.4232	1452.3852	1483.1092	1496.9415	1501.5422	1501.7962	1526.4032	1531.9991	1743.6781	2950.1632	2959.6563	2979.4885	3034.7019	3040.0165	3046.1964	3054.1996	3072.686	3104.7776	3120.5335	3124.071
CCOCC1=NCCO1	CCOCC1=NCCO1	
InChI=1S/C6H11NO2/c1-2-8-5-6-7-3-4-9-6/h2-5H2,1H3	InChI=1S/C6H11NO2/c1-2-8-5-6-7-3-4-9-6/h2-5H2,1H3
