16
gdb 10422	2.63039	1.97912	1.41671	3.7924	64.82	-0.2473	0.0137	0.261	913.4932	0.131134	-379.90329	-379.89533	-379.894385	-379.935679	29.043	
O	-1.0119*^-6	 1.2678451805	 0.4712431153	-0.418472
C	-0.0853709536	-0.0951758987	 0.11288545	-0.116121
C	-1.5472702639	-0.5294926311	-0.1110743443	 0.153293
C	-1.7623036591	-2.0698408115	-0.0085715196	-0.283636
C	-2.2840348643	-1.7907808105	 1.4240115701	-0.15922
N	-2.4155843947	-0.3554522114	 1.072616103	-0.324374
C	-2.0547875594	 0.1454388987	-1.31601718	 0.24912
N	-2.4034274765	 0.6974679709	-2.2703191564	-0.34266
H	-0.2587339185	 1.7964763082	-0.293079169	 0.301967
H	 0.5167350759	-0.3335760434	-0.7765340549	 0.110873
H	 0.3201019561	-0.6599202743	 0.9586103717	 0.116385
H	-2.5318661864	-2.4352484942	-0.6878642872	 0.137493
H	-0.8633243283	-2.6793127317	-0.1120496258	 0.119022
H	-3.2288592709	-2.263874216	 1.7053975659	 0.118198
H	-1.5389959069	-2.0096052587	 2.1993359059	 0.104539
H	-2.0575286378	 0.3240500432	 1.7369025552	 0.233595
97.0228	128.8446	183.7004	186.2789	248.451	360.0618	394.2318	453.5018	526.5959	572.131	658.9481	738.8785	780.1564	889.6655	912.3428	947.8684	978.6576	1024.4626	1082.6676	1099.4188	1124.2175	1161.0728	1175.1054	1210.4904	1251.5438	1284.2019	1326.4556	1375.2513	1377.5648	1417.5427	1485.4599	1493.3913	1529.1893	2347.1806	2997.5055	3020.1477	3080.4744	3083.0253	3090.553	3152.1077	3521.446	3793.3284
OCC1(CCN1)C#N	OC[C@]1(CCN1)C#N	
InChI=1S/C5H8N2O/c6-3-5(4-8)1-2-7-5/h7-8H,1-2,4H2	InChI=1S/C5H8N2O/c6-3-5(4-8)1-2-7-5/h7-8H,1-2,4H2/t5-/m0/s1
