18
gdb 29717	2.38822	1.61476	0.98024	1.829	75.77	-0.1874	0.0575	0.2449	1191.4757	0.147707	-435.312847	-435.303043	-435.302099	-435.347635	34.964	
C	-0.0889358793	 1.4801336668	-0.0109377376	-0.339354
N	 0.0171574612	 0.0369288828	 0.0100620106	-0.067663
C	 0.1771306296	-0.7890662445	-1.0467809035	 0.418987
O	 0.2536456521	-0.2707601654	-2.2885054737	-0.431804
N	 0.2425252421	-2.0550600091	-0.7306635148	-0.435073
C	 0.1158093536	-2.0791038803	 0.6523666342	 0.25659
C	 0.1408727353	-3.3613525177	 1.4157465444	-0.489727
C	-0.0245972453	-0.8068659964	 1.1389396431	 0.113071
N	-0.1855530269	-0.2454324155	 2.4216043915	-0.614288
H	 0.8107892721	 1.9324204625	-0.4390133036	 0.137862
H	-0.9528530771	 1.8005396696	-0.6011341356	 0.137819
H	-0.2087149783	 1.8133794954	 1.0205764297	 0.155268
H	 0.3651781559	-1.0246785069	-2.8813711534	 0.309229
H	 1.0825270053	-3.9001819078	 1.2601798393	 0.129006
H	 0.027515349	-3.1779512573	 2.4883854947	 0.100329
H	-0.6663727193	-4.0310091949	 1.0977184676	 0.129012
H	-1.0325921793	-0.5557212242	 2.8836043656	 0.245358
H	 0.5978820493	-0.4359837271	 3.0356753013	 0.245379
55.1022	114.4107	131.9158	179.8579	199.1952	257.2452	258.319	274.4672	326.6538	369.0809	422.8422	578.755	604.2375	627.8734	660.7846	726.5764	736.4935	748.5877	913.6785	992.7514	1062.157	1077.7068	1158.2949	1182.9553	1202.159	1236.6627	1283.7106	1344.3661	1387.2636	1419.5324	1439.816	1477.6322	1492.7947	1495.9268	1510.5635	1587.7212	1600.428	1640.2503	1667.1548	3025.904	3040.9658	3077.1617	3099.3986	3105.5054	3150.757	3511.4956	3577.6802	3801.1606
CN1C(O)=NC(C)=C1N	Cn1c(O)nc(C)c1N	
InChI=1S/C5H9N3O/c1-3-4(6)8(2)5(9)7-3/h6H2,1-2H3,(H,7,9)	InChI=1S/C5H9N3O/c1-3-4(6)8(2)5(9)7-3/h6H2,1-2H3,(H,7,9)
