17
gdb 29458	3.19662	1.58832	1.06976	2.046	82.67	-0.1734	0.0145	0.1879	1086.5166	0.138923	-380.903383	-380.895719	-380.894775	-380.935068	30.502	
N	 0.0263117752	 1.4339801171	 0.1549191473	-0.609152
C	 0.042086609	 0.028824995	 0.039692458	 0.041572
C	-1.0512617395	-0.8194174958	 0.0150471988	-0.152928
N	-0.5949796996	-2.1368636784	-0.0146417242	-0.387838
C	 0.7612299912	-2.1202977642	-0.0199595679	 0.293542
C	 1.1950062177	-0.8092838806	 0.0180485996	 0.283659
C	 2.6565230978	-0.8279006685	 0.0231729168	-0.212533
C	 3.0864054901	-2.1058857919	-0.0136443894	-0.093357
C	 1.9105502162	-3.0794675561	-0.0434762446	-0.414614
H	 0.748656042	 1.8678726253	-0.406914432	 0.238823
H	-0.8663381738	 1.8292453567	-0.1138170318	 0.234697
H	-2.1069628884	-0.6007039572	 0.024470136	 0.10087
H	-1.1891311129	-2.9460919715	-0.0361160429	 0.255538
H	 3.295960142	 0.0458229781	 0.0567563338	 0.0875
H	 4.1155690124	-2.4385733795	-0.017946605	 0.088554
H	 1.9304770133	-3.7592337899	 0.819492162	 0.123757
H	 1.9350504672	-3.7144488985	-0.9398750644	 0.12191
154.6592	186.5168	212.9206	261.0983	326.7266	368.508	461.7947	505.0484	599.8762	608.3263	637.4299	654.298	669.2815	735.3923	771.2103	805.8607	864.855	919.9347	929.152	945.2116	1025.8426	1078.8869	1108.3642	1128.4464	1151.3068	1210.7704	1235.7716	1298.4083	1332.4367	1369.5129	1437.9271	1479.781	1533.0603	1541.2066	1577.4085	1628.8733	1657.1653	3015.1023	3040.287	3201.0319	3230.1717	3257.894	3523.7131	3611.1675	3687.3748
NC1=CNC2=C1C=CC2	Nc1c[nH]c2c1C=CC2	
InChI=1S/C7H8N2/c8-6-4-9-7-3-1-2-5(6)7/h1-2,4,9H,3,8H2	InChI=1S/C7H8N2/c8-6-4-9-7-3-1-2-5(6)7/h1-2,4,9H,3,8H2
