17
gdb 26753	3.12791	1.47928	1.02755	0.969	77.71	-0.1706	0.0498	0.2205	1126.1238	0.137109	-417.994702	-417.985985	-417.985041	-418.028835	31.647	
N	 0.0961181279	 1.520744821	 0.0311476329	-0.611663
C	 0.0121470011	 0.1166889926	-0.0840214871	 0.114676
C	-1.0631717118	-0.7625549761	-0.052150483	 0.279329
O	-2.342113928	-0.3312367727	 0.1892377068	-0.455882
C	-0.6136271507	-2.1099025883	-0.2483580355	-0.452042
C	 0.7574684322	-2.0035174289	-0.3288736547	 0.300411
C	 2.1272255554	-2.4213992315	-0.8373077922	-0.359615
C	 2.4529253918	-0.8802561845	-0.8042631548	-0.167608
N	 1.1184454761	-0.6933066865	-0.206602587	-0.000254
H	 0.0952883904	 1.8261282169	 1.0019871992	 0.238429
H	-0.7132003729	 1.9483892086	-0.4062052117	 0.245817
H	-2.9430328491	-1.0649064538	 0.0335528783	 0.294437
H	-1.2282873778	-2.9963440511	-0.2976261323	 0.088267
H	 2.7330267523	-3.038112154	-0.1671623353	 0.117239
H	 2.151162248	-2.8592802777	-1.8387201874	 0.12127
H	 3.2788510831	-0.5557422509	-0.1655642142	 0.119383
H	 2.5524846619	-0.4261566132	-1.7942328421	 0.127806
32.8404	104.7237	181.2282	207.8746	246.7445	255.4076	307.4095	321.6502	566.6455	599.7824	632.4325	676.407	687.0802	729.561	803.4864	818.906	832.9277	899.258	966.7307	1046.2123	1066.2551	1126.245	1143.1883	1167.748	1178.5136	1212.4165	1233.2338	1272.618	1314.9028	1376.8979	1419.3587	1475.9749	1489.5574	1515.2768	1552.1437	1634.1326	1663.3822	3051.9813	3056.3721	3094.8026	3110.3531	3235.708	3465.9752	3562.5767	3847.0459
NC1=C(O)C=C2CCN12	Nc1c(O)cc2CCn12	
InChI=1S/C6H8N2O/c7-6-5(9)3-4-1-2-8(4)6/h3,9H,1-2,7H2	InChI=1S/C6H8N2O/c7-6-5(9)3-4-1-2-8(4)6/h3,9H,1-2,7H2
