23
gdb 94554	2.42027	1.41345	1.15027	1.6854	84.93	-0.2424	0.0782	0.3206	1209.5423	0.204958	-388.266232	-388.256585	-388.25564	-388.300852	36.5	
C	-1.3866602252	 0.8044782745	 0.4489612577	-0.415166
C	-0.4275513506	-0.3602953994	 0.2383707576	-0.042747
C	 0.6104237575	-0.1987046488	-0.8926128081	-0.077397
O	 1.7138358929	-0.2743729242	 0.0319927562	-0.293765
C	 0.8318722819	-0.5148311293	 1.1537903435	 0.060768
C	 1.0861108623	 0.4163088147	 2.3204570272	 0.351534
C	 0.2262310742	 0.1311355364	 3.5374169925	-0.474692
C	 2.522120882	 0.8272433724	 2.5543255177	-0.31478
C	 1.5205028866	 1.8353381327	 2.0454156334	-0.297542
H	-0.8558428471	 1.753975762	 0.5549601255	 0.13112
H	-2.063341874	 0.8916461468	-0.4087160278	 0.113379
H	-2.0064916036	 0.6638304804	 1.3398265987	 0.119797
H	-0.9940910497	-1.2923873572	 0.1639739408	 0.075965
H	 0.6418643008	-1.0095133838	-1.6313522125	 0.09763
H	 0.5876913777	 0.762785033	-1.4221922989	 0.096963
H	 0.949632465	-1.5506202839	 1.5096715244	 0.066572
H	 0.359945553	-0.9017870134	 3.8814703635	 0.11571
H	 0.4942323373	 0.7930896974	 4.3664241016	 0.11656
H	-0.8396260972	 0.2765011877	 3.3307973325	 0.117782
H	 2.8626318927	 0.9062491414	 3.5814554442	 0.102688
H	 3.2665527813	 0.4769201626	 1.8492298664	 0.130214
H	 1.6248791162	 2.1411641897	 1.0107362217	 0.117031
H	 1.1759438761	 2.6132154081	 2.7188464021	 0.102376
45.4227	96.7665	162.9249	198.5437	224.9444	234.3587	294.1281	314.6725	347.1287	385.3176	477.6547	511.7621	716.5998	759.3959	793.9878	842.9517	870.8573	888.3015	919.5798	939.7621	953.3157	965.1055	1014.9129	1041.6333	1047.7492	1069.6731	1085.3725	1087.1447	1128.1852	1132.392	1157.622	1192.5905	1195.6729	1264.031	1274.5405	1293.9565	1345.2975	1358.0308	1376.2087	1396.3717	1414.349	1418.7665	1454.5609	1488.2001	1491.145	1497.4783	1500.5108	1507.8146	1526.522	2968.3764	3005.9071	3023.9267	3035.2059	3044.6741	3068.7025	3082.7621	3095.114	3102.7097	3123.1521	3130.8588	3135.0296	3215.4629	3229.964
CC1COC1C1(C)CC1	C[C@H]1CO[C@H]1C1(C)CC1	
InChI=1S/C8H14O/c1-6-5-9-7(6)8(2)3-4-8/h6-7H,3-5H2,1-2H3	InChI=1S/C8H14O/c1-6-5-9-7(6)8(2)3-4-8/h6-7H,3-5H2,1-2H3/t6-,7+/m0/s1
