17
gdb 93181	2.93047	1.43008	0.99562	5.2243	71.63	-0.2419	-0.0439	0.198	1161.4156	0.137483	-455.194618	-455.186369	-455.185425	-455.22762	30.928	
C	-0.1413336086	 1.4711772539	 0.0810790983	-0.402632
C	-0.0260351071	-0.0334951241	-0.0854670404	 0.133734
C	 0.8701858569	-0.4582397927	-1.2380758583	-0.184109
N	 0.9627587417	-1.9040522274	-1.2301505034	-0.333467
C	 1.2498818812	-2.5656886788	-0.0598187819	 0.230195
N	 1.6692069686	-3.7678832512	-0.0459238134	-0.508499
C	 1.0192820707	-1.787619448	 1.2361501375	 0.377911
O	 1.3206060198	-2.2542319392	 2.300489944	-0.319893
O	 0.4966109762	-0.546862696	 1.1644189966	-0.244968
H	 0.8452404008	 1.9227849423	 0.2195216228	 0.135348
H	-0.6114136543	 1.9149339498	-0.8014402673	 0.125827
H	-0.7524946142	 1.706344835	 0.9552800041	 0.14395
H	-1.0180371996	-0.4794535668	-0.2312676849	 0.107961
H	 0.4209399692	-0.1336110327	-2.1810724741	 0.125872
H	 1.8506914642	 0.0368252959	-1.1447934407	 0.114698
H	 1.301299269	-2.3707417217	-2.0596013648	 0.25467
H	 1.7798208956	-4.0590475483	 0.9262413958	 0.243402
77.0004	116.2089	218.5285	221.8132	280.8542	357.7352	409.8853	431.413	457.0872	517.2216	573.9502	589.252	688.6716	750.1365	801.4598	888.3756	906.3175	946.6775	977.391	1050.7412	1119.7651	1144.4846	1157.779	1197.8226	1222.2788	1266.5121	1327.6276	1384.1978	1401.1411	1414.9222	1436.9874	1468.6129	1485.4789	1498.7629	1509.5803	1726.0349	1837.5044	2971.9814	3033.5428	3049.1473	3087.0107	3123.3347	3134.5326	3485.8152	3602.2851
CC1CNC(=N)C(=O)O1	C[C@H]1CN[C]([NH])C(=O)O1	
InChI=1S/C5H8N2O2/c1-3-2-7-4(6)5(8)9-3/h3H,2H2,1H3,(H2,6,7)	InChI=1S/C5H8N2O2/c1-3-2-7-4(6)5(8)9-3/h3H,2H2,1H3,(H2,6,7)/t3-/m0/s1
