13
gdb 131888	2.80595	1.71032	1.06312	6.0381	69.31	-0.2311	-0.0697	0.1614	1020.7215	0.08982	-489.829281	-489.821948	-489.821004	-489.861169	27.487	
N	 0.0234662277	 1.4273766147	 0.1311114156	-0.609802
C	 0.0231177992	 0.0753202921	 0.0447843948	 0.244014
C	-1.0834590994	-0.7590994738	 0.0249399937	 0.390301
O	-0.7149530173	-2.0737930662	-0.0148729449	-0.1535
C	 0.6304275602	-2.0749282435	-0.0253810397	 0.018153
C	 1.1465495901	-0.8154795873	 0.008481767	-0.25376
N	-2.4412967925	-0.4359922828	 0.012115515	 0.342997
O	-2.7065559427	 0.7832456428	 0.0354591716	-0.437134
O	-3.2768350297	-1.3330067479	-0.0246140721	-0.376124
H	 0.8505186568	 1.9297805151	-0.1410402179	 0.263211
H	-0.8749510888	 1.8686607366	-0.0071467826	 0.285601
H	 1.0942129691	-3.0478558007	-0.0558032763	 0.160085
H	 2.1906788573	-0.5454173892	 0.0138229458	 0.125959
110.0648	169.9971	223.6766	308.3881	342.8792	352.2168	460.187	555.2939	570.3843	588.3582	688.0395	703.0007	762.4764	788.931	836.1986	851.4959	894.9716	1033.3892	1088.9437	1192.5956	1225.3972	1258.8766	1348.9387	1377.5562	1481.3124	1538.8626	1571.6167	1610.8404	1675.7279	3257.5443	3281.9409	3564.5541	3711.8084
NC1=C(OC=C1)N(=O)=O	Nc1c(occ1)N(=O)=O	
InChI=1S/C4H4N2O3/c5-3-1-2-9-4(3)6(7)8/h1-2H,5H2	InChI=1S/C4H4N2O3/c5-3-1-2-9-4(3)6(7)8/h1-2H,5H2
