19
gdb 43737	4.12334	1.03685	1.00871	2.59	75.26	-0.2451	-0.0238	0.2213	1227.8687	0.159117	-423.037513	-423.029247	-423.028303	-423.071606	30.955	
O	-0.4334881844	 0.068228776	-0.4393493058	-0.286975
C	-0.2448063616	 1.1935881561	-0.081737133	 0.413886
C	-1.1661858117	 2.3469990052	 0.3434476527	-0.40161
C	 0.1125216294	 3.1414714093	 0.7770897927	 0.33064
C	 1.0211781366	 2.0293000296	 0.1747620205	-0.432496
C	 0.2394837504	 4.5842000307	 0.2734659633	-0.319927
C	-0.4513185468	 5.3990014642	 1.3877757419	-0.064928
O	-0.5276407827	 4.5472615129	 2.5370201404	-0.258772
C	 0.2209743118	 3.3701392734	 2.2853144015	-0.124123
H	-1.699911157	 2.7810226528	-0.5094767656	 0.12755
H	-1.8976115841	 2.1128171195	 1.1221321951	 0.136384
H	 1.7585032327	 1.5732041764	 0.8432709263	 0.13042
H	 1.5291554803	 2.3119443899	-0.7536592023	 0.131573
H	 1.2972721955	 4.8576200141	 0.194886084	 0.109796
H	-0.2161307467	 4.7385698804	-0.7080865311	 0.105792
H	 0.1063368285	 6.3119041595	 1.6329397642	 0.100964
H	-1.472617859	 5.6908979468	 1.1164686179	 0.106846
H	-0.2021895676	 2.5608669898	 2.8894064979	 0.109328
H	 1.2787081064	 3.4969138734	 2.5749933995	 0.085652
32.8971	68.706	135.3317	249.2884	345.276	369.884	396.4583	427.6578	509.6071	658.8367	690.8973	701.6809	746.3563	843.1193	878.7958	909.7967	931.9207	938.1666	983.6262	993.2942	1049.0234	1069.641	1091.7967	1125.5822	1145.2374	1172.1222	1199.9645	1212.9104	1222.7678	1239.541	1280.5548	1307.519	1311.8077	1363.0368	1403.7789	1424.2505	1442.4909	1491.1713	1517.5179	1533.5721	1896.4502	2951.7906	3016.5623	3042.9243	3044.3032	3049.5178	3054.6711	3070.105	3097.8652	3099.2233	3105.0018
O=C1CC2(C1)CCOC2	O=C1CC2(C1)CCOC2	
InChI=1S/C7H10O2/c8-6-3-7(4-6)1-2-9-5-7/h1-5H2	InChI=1S/C7H10O2/c8-6-3-7(4-6)1-2-9-5-7/h1-5H2
