15
gdb 125017	2.3986	1.87775	1.06113	7.5358	74.48	-0.2132	-0.0459	0.1673	1060.5704	0.113469	-450.131188	-450.12298	-450.122036	-450.164066	30.463	
C	 0.0757769666	 1.5631925677	 0.0185138606	-0.513954
C	-0.0269114374	 0.067912889	-0.003281564	 0.3377
C	-1.1870767633	-0.6482473177	 0.0467218375	 0.108269
N	-2.4506695622	-0.1298305788	 0.1631297517	-0.587237
C	-1.1046639154	-2.1122280882	 0.0298673387	 0.408051
O	-2.1180317619	-2.7957723671	 0.0790408198	-0.384811
N	 0.169321467	-2.7005501253	-0.0556603393	-0.282363
N	 1.2339745571	-1.9932429364	-0.1085752696	-0.051639
N	 1.133459545	-0.6641920204	-0.080829438	-0.284874
H	 1.0637573518	 1.891658884	 0.3555807621	 0.137311
H	-0.0999674228	 2.0026355769	-0.9711928597	 0.151044
H	-0.665428239	 1.9809819656	 0.7066095909	 0.157497
H	-2.6538542833	 0.7600318336	-0.2623886282	 0.253039
H	-3.1541674351	-0.8487603291	 0.0369491969	 0.274422
H	 2.0291878427	-0.2016495538	-0.1240585992	 0.277545
80.1803	114.6904	184.3019	263.2999	308.9355	333.9824	382.1139	496.7438	528.5491	537.4847	543.9708	575.5476	625.6456	664.8918	700.8143	812.5326	898.1482	981.0264	1006.3012	1052.0616	1109.4622	1208.2625	1230.4959	1313.0289	1349.6174	1416.0859	1462.2643	1477.1307	1499.8818	1548.8659	1609.4533	1691.4402	1739.1786	3025.8967	3086.6133	3112.8031	3534.0233	3625.8944	3675.4713
CC1=C(N)C(=O)N=NN1	Cc1c(N)c(=O)nn[nH]1	
InChI=1S/C4H6N4O/c1-2-3(5)4(9)7-8-6-2/h1H3,(H2,5,8)(H,6,7,9)	InChI=1S/C4H6N4O/c1-2-3(5)4(9)7-8-6-2/h1H3,(H2,5,8)(H,6,7,9)
