20
gdb 104819	2.10438	1.46542	1.17469	2.5627	75.66	-0.2304	0.0284	0.2587	1176.0637	0.169295	-440.29812	-440.288122	-440.287178	-440.332993	35.809	
C	 0.666560601	-0.7935900397	-1.2457426004	-0.38996
C	-0.0070650123	-0.1974894192	-0.005747754	-0.248199
C	-1.5257475239	-0.375839846	-0.0001813722	 0.266052
C	-2.0474655413	-1.8075389322	 0.3396457605	-0.209752
N	-2.5769419571	-1.249144776	 1.5881780255	-0.330794
C	-2.2282758422	 0.0508624809	 1.3366512421	 0.392015
O	-2.4173701514	 1.0852361565	 1.9239535427	-0.376099
O	-2.166067097	 0.0997292653	-1.1629770816	-0.295309
C	-2.1131165974	 1.5086072291	-1.3528059161	-0.264471
H	 1.7463532186	-0.6205402715	-1.2229551159	 0.11542
H	 0.5036406642	-1.8750083455	-1.3075668801	 0.116283
H	 0.2668373253	-0.3495089099	-2.1609900515	 0.132753
H	 0.3918463356	-0.6580992391	 0.9059510316	 0.106241
H	 0.2230415683	 0.8709078618	 0.0755943357	 0.116467
H	-2.811739891	-2.1524234713	-0.3611485169	 0.124556
H	-1.280618479	-2.5751062212	 0.4805382922	 0.109834
H	-3.142548991	-1.6567193507	 2.3180477165	 0.251424
H	-2.4555628887	 2.047425832	-0.4630385205	 0.148114
H	-1.1019511678	 1.8515658328	-1.6107318699	 0.10881
H	-2.7781380928	 1.7281316436	-2.1911338576	 0.126614
99.7217	100.5768	123.9741	146.6829	176.7276	200.5298	256.2756	263.0328	326.6011	344.6695	434.1541	478.6343	611.6891	673.115	743.3081	771.2263	794.3097	906.6629	948.6131	993.6705	997.836	1018.4352	1094.54	1117.3142	1153.6523	1175.2521	1184.7363	1198.5469	1221.9108	1250.1334	1293.7195	1317.2474	1364.3174	1395.1674	1411.0708	1472.2108	1483.9675	1496.6747	1497.1854	1504.4424	1515.6506	1519.4424	1878.5658	3006.6764	3037.4351	3040.6651	3049.7892	3068.945	3081.0597	3105.2261	3108.2716	3123.8054	3125.7093	3608.3222
CCC1(CNC1=O)OC	CC[C@]1(CNC1=O)OC	
InChI=1S/C6H11NO2/c1-3-6(9-2)4-7-5(6)8/h3-4H2,1-2H3,(H,7,8)	InChI=1S/C6H11NO2/c1-3-6(9-2)4-7-5(6)8/h3-4H2,1-2H3,(H,7,8)/t6-/m1/s1
