23
gdb 118121	3.66741	0.75209	0.67513	2.6615	82.61	-0.2522	0.0611	0.3133	1752.6098	0.204218	-425.41303	-425.402572	-425.401628	-425.448895	38.909	
C	-0.0052513866	 1.5445941378	-0.0465629542	-0.382693
C	-0.0039957089	 0.0147713291	 0.0005450927	-0.167341
C	 0.6962347357	-0.5461070017	 1.2422271583	-0.185232
C	 0.7601977848	-2.0746801692	 1.2768486161	 0.093156
O	 1.4513448627	-2.5986015147	 0.1212668878	-0.437622
C	 1.3819506353	-2.6083582762	 2.5531031422	-0.083045
C	 0.5283158239	-3.3062935419	 3.5975714855	-0.314686
C	 1.4470640873	-4.1068456464	 2.7201404723	 0.118117
O	 0.8761276255	-4.906743251	 1.729349484	-0.43397
H	 1.0160404529	 1.9422318781	-0.0568017944	 0.111256
H	-0.5137101577	 1.914689552	-0.9422216053	 0.113435
H	-0.5146556532	 1.9706639958	 0.8252012185	 0.112995
H	-1.0374145167	-0.3553491491	-0.0252159901	 0.096182
H	 0.4842949355	-0.3890528257	-0.8928743439	 0.109187
H	 1.7211931145	-0.1483530699	 1.3027262147	 0.08164
H	 0.1864892156	-0.2032385655	 2.1522853394	 0.103578
H	-0.2503801527	-2.4814149056	 1.1704560737	 0.098885
H	 2.3723254517	-2.3199904361	 0.184545389	 0.279958
H	 2.2319129801	-2.0350274985	 2.9186055051	 0.077786
H	 0.7825692399	-3.177861932	 4.6438083238	 0.11064
H	-0.5329988365	-3.395860081	 3.3915187493	 0.121867
H	 2.3423764218	-4.5248448496	 3.1804140971	 0.082031
H	 1.1662930751	-4.5387000689	 0.8822071283	 0.293876
57.8077	86.3805	101.164	128.4108	209.6884	229.9856	249.6066	316.1721	344.951	358.2696	416.1839	431.0884	525.9785	576.0883	647.2331	747.1942	796.1689	830.2857	848.009	873.9856	905.9595	954.4902	993.0478	1016.2922	1046.7186	1056.9388	1078.4471	1098.9283	1121.3879	1132.6166	1166.0632	1170.8453	1235.3273	1240.6119	1271.6239	1292.0592	1326.4638	1346.2507	1379.5775	1395.4283	1403.1773	1413.01	1420.232	1425.6926	1477.0579	1479.2171	1494.2496	1499.672	1511.358	2991.8754	3024.061	3028.1815	3040.8679	3066.5101	3072.0496	3095.5728	3095.8345	3101.9508	3122.5268	3134.0157	3223.416	3722.7815	3794.2582
CCCC(O)C1CC1O	CCC[C@@H](O)[C@H]1C[C@H]1O	
InChI=1S/C7H14O2/c1-2-3-6(8)5-4-7(5)9/h5-9H,2-4H2,1H3	InChI=1S/C7H14O2/c1-2-3-6(8)5-4-7(5)9/h5-9H,2-4H2,1H3/t5-,6-,7-/m1/s1
