19
gdb 17705	5.91961	1.46359	1.43035	1.6232	76.01	-0.2255	0.083	0.3085	966.4694	0.165524	-327.834368	-327.827056	-327.826112	-327.865432	28.792	
C	-0.2155026953	 1.6136278209	-0.0704260786	-0.427644
C	-0.0397402359	 0.106001132	-0.0117316899	 0.00864
C	 1.2057895116	-0.5465756967	-0.626114814	-0.011435
C	 2.143428661	-0.1888033357	 0.5677620339	-0.088393
C	 2.5412895395	-1.6619245851	 0.6600527545	 0.065491
C	 2.9635403488	-2.291666948	 1.9723043725	-0.419085
N	 1.0590210426	-1.7896147309	 0.2926826041	-0.178859
C	 0.7351602917	-0.5314253318	 1.150971867	-0.022266
H	 0.7136480677	 2.1401360428	 0.171777813	 0.115902
H	-0.5293999341	 1.9331625494	-1.0699937395	 0.119313
H	-0.9823418132	 1.9468395951	 0.6371631539	 0.119003
H	-0.9661987934	-0.4283303774	-0.2520352873	 0.079589
H	 1.490768313	-0.6738398578	-1.6732739368	 0.075136
H	 2.7413265588	 0.7169822423	 0.7172106673	 0.061188
H	 3.1752077178	-2.0231366835	-0.1607891644	 0.066244
H	 2.359274858	-1.9362400686	 2.8124053787	 0.115655
H	 2.8641931384	-3.3809622527	 1.9215124834	 0.127139
H	 4.0117128656	-2.0592652737	 2.1901763224	 0.116126
H	 0.4441247876	-0.6291222406	 2.1980885701	 0.078256
174.1072	184.1984	204.5198	224.8412	296.615	336.8896	505.9563	566.0312	718.4954	723.5315	793.1008	830.8392	847.0277	848.7747	876.5129	880.1869	1020.439	1022.9803	1034.5375	1046.3398	1055.6113	1101.3433	1116.8927	1124.9266	1146.1081	1157.2036	1178.3278	1193.8508	1243.2719	1255.7109	1273.3561	1313.3543	1392.1783	1400.8892	1413.7689	1417.4105	1491.5226	1494.1991	1495.6672	1499.8712	3016.1331	3030.0323	3033.587	3038.9789	3045.3725	3085.6564	3094.4947	3098.1868	3100.0559	3101.7455	3111.0342
CC1C2C3C(C)N2C13	C[C@H]1[C@H]2[C@@H]3[C@@H](C)N2[C@H]13	
InChI=1S/C7H11N/c1-3-6-5-4(2)8(6)7(3)5/h3-7H,1-2H3	InChI=1S/C7H11N/c1-3-6-5-4(2)8(6)7(3)5/h3-7H,1-2H3/t3-,4-,5-,6-,7+/m1/s1
