17
gdb 98212	2.25544	0.99098	0.76227	3.0141	74.05	-0.252	-0.0016	0.2504	1533.8309	0.1323	-458.96303	-458.952224	-458.95128	-459.00238	35.55	
C	-0.0529211161	 1.3473685245	-0.0274023429	-0.244159
O	-0.0547678325	-0.0867848209	-0.1240397988	-0.220379
C	 0.6666202499	-0.5975857541	-1.120459079	 0.431504
O	 1.2761974626	 0.0442201574	-1.9407435803	-0.372756
C	 0.65884306	-2.1353161054	-1.1220883263	-0.149261
O	 1.0910168887	-2.5937556403	-2.38056663	-0.406503
C	 1.4871441309	-2.6180840439	-0.009128511	 0.120467
C	 2.1827571989	-3.0177554671	 0.8882937377	 0.018142
C	 3.0196608677	-3.5097468799	 1.9721248729	-0.498025
H	 0.9630473613	 1.7166868381	 0.1306163736	 0.147772
H	-0.455799251	 1.7917097031	-0.9404613122	 0.147864
H	-0.685076953	 1.5852385289	 0.8272690727	 0.141507
H	-0.3761685933	-2.4686438186	-0.9734954582	 0.13056
H	 1.6401462886	-1.8815001622	-2.7413909414	 0.295474
H	 3.1725754939	-4.5915336775	 1.8931702541	 0.154567
H	 4.0052986151	-3.032012054	 1.9630067066	 0.151637
H	 2.5610706384	-3.3092868683	 2.9465693826	 0.151589
6.1986	47.4426	68.0235	114.9806	137.0158	166.3304	213.2144	277.6608	322.6655	336.5426	386.934	426.1794	436.0577	553.8441	660.2056	759.3927	856.0926	911.6729	1005.8802	1052.0689	1053.5676	1096.1414	1163.0222	1178.2424	1206.9902	1230.5259	1298.8462	1330.3158	1413.5655	1439.7298	1475.9705	1476.243	1477.9609	1483.1129	1495.1571	1814.8272	2369.0109	3029.7484	3032.2144	3056.902	3092.0934	3092.3272	3134.7385	3168.1491	3725.3288
COC(=O)C(O)C#CC	COC(=O)[C@@H](O)C#CC	
InChI=1S/C6H8O3/c1-3-4-5(7)6(8)9-2/h5,7H,1-2H3	InChI=1S/C6H8O3/c1-3-4-5(7)6(8)9-2/h5,7H,1-2H3/t5-/m0/s1
