21
gdb 110987	2.48178	1.4052	1.19802	1.5525	82.45	-0.2242	0.008	0.2323	1154.0588	0.182734	-387.053998	-387.045345	-387.044401	-387.087041	34.192	
C	 0.002260758	 1.5368010779	 0.0367273949	-0.511572
C	-0.0180273453	 0.0247825128	 0.0129780214	 0.277226
C	 0.2871017602	-0.8120096936	-1.283768388	-0.245102
C	-0.381936474	-1.9484397475	-0.440447417	-0.106822
C	 0.6189418461	-2.0374254155	 0.7205184998	-0.095413
C	 0.8541273453	-0.7572976818	 1.0171390026	-0.118622
C	-1.3551116076	-0.8172357988	 0.0723911102	-0.000268
C	-2.1563210832	-0.9689903109	 1.3531198168	-0.116668
O	-3.2098052553	-1.9177971558	 1.2100837566	-0.420121
H	 1.0115291595	 1.9200366915	-0.1523513382	 0.118684
H	-0.6609316754	 1.9533826445	-0.7282003429	 0.116095
H	-0.3221153087	 1.9271393197	 1.0080300163	 0.119008
H	-0.304611807	-0.4987306099	-2.1505640386	 0.09061
H	 1.337832385	-0.9462154604	-1.5519453651	 0.090103
H	-0.745337715	-2.8696944513	-0.8963203775	 0.057185
H	 1.0147405879	-2.9393282217	 1.1659183573	 0.098606
H	 1.495913294	-0.3200832582	 1.7699368259	 0.097169
H	-2.0366557729	-0.5120858947	-0.7305498476	 0.074581
H	-1.5006125435	-1.2230323666	 2.1964784983	 0.08928
H	-2.6493598446	-0.0201120779	 1.5934493785	 0.104921
H	-2.8028226934	-2.7755864118	 1.0527174261	 0.28112
75.4075	150.8535	203.5485	239.8829	256.0051	293.9106	319.2413	404.6498	498.9557	556.9201	582.2673	609.4704	714.2032	740.7586	801.7967	833.2643	845.3683	890.3017	910.1219	919.9951	934.3468	1010.0421	1018.2178	1059.2526	1060.0721	1088.4601	1108.4704	1117.3329	1156.7641	1190.5765	1196.3062	1220.477	1230.0059	1259.6991	1277.1167	1347.8726	1356.499	1401.4138	1412.0936	1425.8509	1492.9825	1494.0213	1499.0942	1505.0426	1626.6825	3014.9224	3025.7661	3036.4042	3047.5742	3068.7595	3088.1569	3098.0494	3111.5562	3114.3988	3211.8304	3240.0616	3817.7685
CC12CC(C=C1)C2CO	C[C@@]12C[C@@H](C=C1)[C@H]2CO	
InChI=1S/C8H12O/c1-8-3-2-6(4-8)7(8)5-9/h2-3,6-7,9H,4-5H2,1H3	InChI=1S/C8H12O/c1-8-3-2-6(4-8)7(8)5-9/h2-3,6-7,9H,4-5H2,1H3/t6-,7-,8+/m1/s1
