15
gdb 45973	3.22601	1.51538	1.1218	2.4612	66.61	-0.2579	-0.0458	0.2121	1023.6164	0.114086	-453.968122	-453.960647	-453.959703	-454.000755	27.703	
O	 0.0031085831	 0.4117974495	-1.1115647477	-0.306823
C	 0.0391544949	 1.3217877548	-0.3186208051	 0.397068
C	-1.2289717943	 1.8391538648	 0.3530502933	-0.279031
N	-1.1030575769	 3.2211997475	 0.7910745521	-0.331392
C	 0.0416233938	 3.8052419729	 1.2792874716	 0.40546
O	 0.0281594213	 4.7638108896	 2.0136657463	-0.350586
N	 1.2807614423	 3.2633936959	 0.8122422761	-0.132036
C	 1.7654528485	 2.0619077066	 1.471756657	-0.251083
C	 1.3065288737	 2.0166168094	 0.0405352829	-0.12366
H	-2.0398888202	 1.7471734539	-0.3744667285	 0.154358
H	-1.4699721311	 1.1592684297	 1.186766135	 0.139414
H	-1.9375415394	 3.6576793311	 1.1573724013	 0.258984
H	 2.8308175223	 2.0264601117	 1.6772292482	 0.1482
H	 1.1349971071	 1.5995108319	 2.228132015	 0.137654
H	 2.0667669949	 1.9737686809	-0.7340686374	 0.133474
57.7556	105.6294	198.5103	270.4485	408.5928	418.059	457.2817	547.973	573.3836	636.1506	720.0162	721.5266	789.0509	830.1287	912.5518	919.9614	963.9471	1034.4242	1069.9712	1092.4757	1111.6332	1159.0449	1234.1027	1237.1175	1270.7008	1320.8031	1361.9348	1395.4906	1467.9646	1502.2143	1511.7989	1817.5966	1824.7251	2973.2368	3090.079	3109.3148	3159.8827	3202.703	3599.9695
O=C1CNC(=O)N2CC12	O=C1CNC(=O)N2C[C@@H]12	
InChI=1S/C5H6N2O2/c8-4-1-6-5(9)7-2-3(4)7/h3H,1-2H2,(H,6,9)	InChI=1S/C5H6N2O2/c8-4-1-6-5(9)7-2-3(4)7/h3H,1-2H2,(H,6,9)/t3-,7?/m0/s1
