18
gdb 27285	3.07218	1.6091	1.08247	2.0673	80.29	-0.1598	0.0559	0.2157	1095.1447	0.151858	-398.148364	-398.140563	-398.139619	-398.18053	30.33	
N	-0.0183915465	 1.4395202142	 0.1818157159	-0.617706
C	-0.0065570835	 0.0320509068	 0.0423478561	 0.092937
C	-1.0939769085	-0.8067087112	-0.0064892598	 0.299616
N	-2.5108298262	-0.7301687561	 0.0089047628	-0.416527
C	-2.9350278289	-2.0935950078	-0.3926928097	-0.173402
C	-1.7542096755	-3.0487703187	-0.0441168924	-0.193199
N	-0.6522874107	-2.1094065363	-0.0853113955	 0.005071
C	 0.7146384325	-2.1345115278	-0.0676188396	-0.150768
C	 1.1424056617	-0.8223129141	 0.0120364006	-0.207354
H	 0.7813997381	 1.8602372882	-0.2766069982	 0.235617
H	-0.85657588	 1.8370068498	-0.2282450112	 0.238531
H	-2.8530022556	-0.5217670131	 0.944461142	 0.231793
H	-3.8695127039	-2.3736785331	 0.0969976555	 0.110256
H	-3.0972886754	-2.1041982503	-1.475703485	 0.123769
H	-1.8590702514	-3.4999830241	 0.9526350372	 0.110219
H	-1.6438539956	-3.8527946102	-0.7770929691	 0.119711
H	 1.2710068292	-3.0531702911	-0.1559608413	 0.109877
H	 2.1722681202	-0.4959218249	 0.0210550316	 0.081558
110.3007	171.8929	185.8812	248.5826	261.9181	321.1935	512.6885	596.6946	601.0558	620.5646	642.1901	673.9648	747.6639	760.8163	795.5983	818.7919	850.7884	923.3648	935.2604	1001.6662	1047.479	1064.4216	1100.2878	1133.4394	1197.3152	1239.9296	1266.7131	1269.0463	1304.9945	1359.4368	1379.7929	1414.091	1436.4205	1484.0955	1499.5147	1505.8253	1529.6303	1646.6887	1680.7671	3001.599	3047.9052	3084.2901	3118.7493	3233.695	3268.6829	3456.5962	3508.7842	3596.892
NC1=C2NCCN2C=C1	Nc1c2NCCn2cc1	
InChI=1S/C6H9N3/c7-5-1-3-9-4-2-8-6(5)9/h1,3,8H,2,4,7H2	InChI=1S/C6H9N3/c7-5-1-3-9-4-2-8-6(5)9/h1,3,8H,2,4,7H2
