22
gdb 66933	2.12808	1.96585	1.5019	1.6821	85.09	-0.2172	0.087	0.3041	1036.1972	0.193491	-367.14942	-367.140658	-367.139714	-367.181803	35.274	
C	 0.027362009	 1.4949544965	 0.1525113633	-0.520308
C	 0.0007657698	 0.0041360868	-0.0189484724	 0.334648
C	-1.0194050305	-0.8924243375	 0.72646306	-0.151985
C	-1.0388200915	-2.2290105885	 0.0078539813	-0.191367
N	 0.4427327125	-2.0694364937	-0.265567905	-0.201378
C	 0.4622300306	-1.0695832293	 0.9153457813	-0.08631
C	 0.5051761983	-0.8419956017	-1.1926060647	 0.278212
C	-0.3098271935	-0.9064695889	-2.4814833659	-0.468777
C	 1.9784137951	-0.5927153697	-1.510886068	-0.433114
H	 1.0175869801	 1.9045067039	-0.0756651274	 0.123101
H	-0.6980299148	 1.9868259792	-0.506029746	 0.122217
H	-0.2178529532	 1.780494691	 1.1811319982	 0.120401
H	-1.7341582707	-0.4621003633	 1.4184939801	 0.084222
H	-1.1736940937	-3.0638169774	 0.7018535179	 0.104837
H	-1.6682019539	-2.3910933659	-0.8719065278	 0.095329
H	 1.1172112174	-1.1137665266	 1.7741424312	 0.09281
H	-1.386879534	-0.8651171914	-2.3071960138	 0.11737
H	-0.0505837827	-0.0634607639	-3.1304292442	 0.11412
H	-0.0819490395	-1.8285825739	-3.0285504649	 0.124515
H	 2.3524672249	-1.3719296058	-2.182054743	 0.119281
H	 2.1174234007	 0.3765723119	-2.0021975336	 0.105736
H	 2.5881695496	-0.6087026017	-0.6033845564	 0.116439
179.6668	189.578	200.9182	223.6296	235.0774	252.2977	325.5845	376.8764	396.72	498.5688	548.2146	608.8567	632.7891	763.718	776.5505	830.5607	837.673	887.8709	905.8749	923.219	948.9612	966.5467	980.6419	1008.6103	1016.5534	1075.8509	1094.5303	1103.5292	1139.0936	1148.0835	1181.7226	1210.1607	1235.5793	1242.7297	1289.0589	1324.2125	1397.4935	1405.8759	1414.6276	1429.9096	1479.7484	1481.7367	1489.5384	1495.7114	1500.7438	1505.5772	1533.0074	3023.53	3031.664	3036.6016	3049.0055	3083.8051	3092.2064	3093.5132	3096.2614	3103.1279	3115.5391	3123.2935	3177.7829	3212.2774
CC12C3CN(C13)C2(C)C	C[C@]12[C@H]3CN([C@@H]13)C2(C)C	
InChI=1S/C8H13N/c1-7(2)8(3)5-4-9(7)6(5)8/h5-6H,4H2,1-3H3	InChI=1S/C8H13N/c1-7(2)8(3)5-4-9(7)6(5)8/h5-6H,4H2,1-3H3/t5-,6+,8-/m0/s1
