16
gdb 30498	3.95715	1.20663	0.93537	2.6469	78.24	-0.2457	-0.0641	0.1816	1232.7491	0.123457	-434.102258	-434.093557	-434.092613	-434.136586	30.435	
C	-0.0613333277	 1.4474927524	 0.1080070672	-0.31979
N	 0.0163822327	-0.0006168565	 0.1659576544	-0.299009
C	-1.0325313748	-0.6848799287	 0.0701738878	 0.4497
O	-2.2947930941	-0.0143077983	-0.0957551734	-0.21659
C	-3.3898797041	-0.7644554086	-0.1946957851	 0.144706
N	-3.4455208419	-2.0404725039	-0.1577996386	-0.313031
C	-2.2001134711	-2.6668032526	 0.0048423251	 0.341639
C	-2.2533900817	-4.1599450947	 0.0494426644	-0.457089
N	-1.0658383469	-2.0602847384	 0.1130459873	-0.301692
H	 0.9450123535	 1.8596288342	 0.2070466715	 0.127231
H	-0.4874294438	 1.7995631475	-0.8408314809	 0.122958
H	-0.6843086408	 1.8590153756	 0.9132181103	 0.122992
H	-4.2861179955	-0.1592005116	-0.3169462102	 0.151104
H	-2.9036728246	-4.4812787059	 0.8702839778	 0.148861
H	-2.7057698816	-4.5404100309	-0.8727842327	 0.148862
H	-1.2546596074	-4.5755066496	 0.176931835	 0.149148
44.5507	88.4663	132.517	153.905	205.7728	305.5355	335.5735	393.4439	501.3417	537.89	627.4407	640.0599	700.4714	773.1715	827.198	940.127	991.8141	995.2374	1022.6266	1063.7941	1109.8601	1130.4553	1196.702	1255.1941	1307.0918	1402.4001	1417.1571	1438.3047	1463.3376	1470.7291	1483.8142	1501.6466	1602.9455	1698.49	1786.3077	3003.5448	3043.7079	3054.3693	3098.7439	3112.848	3165.5666	3167.0129
CN=C1OC=NC(C)=N1	C[N]C1=N[C@@H](N=CO1)C	
InChI=1S/C5H7N3O/c1-4-7-3-9-5(6-2)8-4/h3H,1-2H3	InChI=1S/C5H8N3O/c1-4-7-3-9-5(6-2)8-4/h3-4H,1-2H3/t4-/m1/s1
