16
gdb 124237	2.57005	1.56244	0.98349	1.0102	74.39	-0.2637	-0.0695	0.1942	1156.9487	0.122731	-437.911744	-437.902926	-437.901982	-437.946141	30.809	
C	-0.0034287539	 1.5196578292	-0.1135869379	-0.482467
C	-0.0013434336	 0.0151163606	 0.0483151972	 0.302042
O	 0.0004790018	-0.5284683738	 1.1350830509	-0.305981
C	-0.0007400081	-0.7933518027	-1.1912635318	 0.260348
C	 0.0012090646	-2.1451392114	-1.4185317255	 0.073421
C	 0.003388253	-3.2742861927	-0.4394402242	-0.522622
C	 0.0005716265	-2.2169351079	-2.8397238017	-0.023244
N	-0.001328448	-1.0344650336	-3.4078012955	-0.129197
O	-0.0023286921	-0.1259799894	-2.3709290574	-0.215133
H	 0.8729725321	 1.8442001211	-0.6839757639	 0.1544
H	-0.8825163428	 1.8418665349	-0.6811828204	 0.154381
H	-0.0025478456	 1.9828804722	 0.8731314479	 0.143819
H	-0.8777809999	-3.910852681	-0.5763241653	 0.138547
H	 0.8844809125	-3.9102341376	-0.5795375372	 0.13849
H	 0.0049847311	-2.8918095215	 0.5803675131	 0.173534
H	 0.0016241923	-3.0986375062	-3.4659185185	 0.139661
63.7044	69.7851	122.526	175.2802	186.5482	282.2928	291.4591	411.4316	471.4313	549.7248	639.8784	654.3094	675.4859	714.3438	912.3397	939.5566	960.1567	969.1008	1012.6308	1043.1713	1071.0967	1098.4842	1199.2463	1216.3249	1275.9931	1384.0571	1397.6935	1418.4727	1458.5266	1468.5749	1475.3253	1496.6125	1499.1562	1645.0972	1775.4103	3037.8565	3046.356	3086.9919	3108.9016	3161.3531	3165.3252	3240.5048
CC(=O)C1=C(C)C=NO1	CC(=O)c1c(C)cno1	
InChI=1S/C6H7NO2/c1-4-3-7-9-6(4)5(2)8/h3H,1-2H3	InChI=1S/C6H7NO2/c1-4-3-7-9-6(4)5(2)8/h3H,1-2H3
