22
gdb 120067	5.47005	0.81015	0.80439	1.7313	87.08	-0.228	0.0774	0.3054	1549.5996	0.194675	-367.116849	-367.108385	-367.107441	-367.150462	32.642	
C	-0.0670644347	 1.5959315659	 0.1133508573	-0.380378
C	-0.095305896	 0.0743031439	-0.0509983197	-0.158925
C	 0.8639312694	-0.4326285265	-1.136648823	-0.216825
C	 0.8567431552	-1.9467055333	-1.280839782	 0.007175
C	-0.2912347303	-2.6502445657	-2.0243323836	-0.011549
C	 0.2577406483	-2.3216326477	-3.4482112777	-0.072463
C	 0.1969868311	-3.8037192727	-3.793035962	-0.184845
N	 0.6092121961	-3.8809925505	-2.3259533659	-0.165881
C	 1.4791051834	-2.6072347513	-2.5192420462	-0.032027
H	 0.9354433867	 1.9458446523	 0.3840074096	 0.114197
H	-0.3518192089	 2.1008196314	-0.8165732041	 0.113417
H	-0.757287074	 1.9264505322	 0.8957724875	 0.112065
H	 0.1579390344	-0.4033770914	 0.9045947732	 0.097742
H	-1.1165814328	-0.2501904962	-0.2892620528	 0.097569
H	 0.607987772	 0.036231624	-2.0963925931	 0.092036
H	 1.8843370741	-0.1008254942	-0.8996527451	 0.094945
H	 1.129438267	-2.4485849817	-0.3441582223	 0.07774
H	-1.3341716829	-2.797298816	-1.7348883917	 0.077618
H	 0.0640111868	-1.4396422922	-4.0672905137	 0.065188
H	-0.7829575543	-4.2498818088	-3.9941764846	 0.098131
H	 0.9494132939	-4.2081941897	-4.4786381128	 0.098146
H	 2.5276220054	-2.6996589818	-2.8121439473	 0.076923
72.7164	86.267	124.408	233.5258	255.1886	310.3682	337.4902	462.2253	567.1235	711.9169	732.8244	776.3052	809.4824	845.792	849.9321	876.3597	896.3614	921.7059	928.3406	943.1251	1026.1072	1027.6636	1045.4182	1051.7462	1076.0989	1105.5698	1121.803	1129.6376	1148.5352	1169.3312	1180.2581	1195.0397	1228.0188	1254.1316	1266.7207	1276.9421	1307.3643	1320.005	1333.2213	1386.4623	1410.8213	1417.2242	1481.5601	1493.0851	1500.3187	1510.3039	1519.9055	3006.7817	3018.5726	3028.6526	3029.3443	3030.6224	3039.3502	3048.5019	3059.6616	3085.3207	3090.1531	3093.1154	3095.8335	3101.8211
CCCC1C2C3CN2C13	CCC[C@H]1[C@H]2[C@@H]3CN2[C@H]13	
InChI=1S/C8H13N/c1-2-3-5-7-6-4-9(7)8(5)6/h5-8H,2-4H2,1H3	InChI=1S/C8H13N/c1-2-3-5-7-6-4-9(7)8(5)6/h5-8H,2-4H2,1H3/t5-,6-,7-,8+
