16
gdb 22767	2.5148	1.26562	0.94151	0.8966	74.67	-0.2545	-0.0122	0.2423	1228.0084	0.121514	-437.786699	-437.777583	-437.776638	-437.820683	33.807	
O	-0.1908327806	 1.3757664618	 0.0159083459	-0.405498
N	 0.0216583389	-0.0259232736	-0.015978386	-0.239504
C	-1.0839641566	-0.6308455565	 0.0752952846	 0.380279
C	-2.5451322703	-0.2147334691	 0.034145425	 0.06129
O	-2.8959400566	 0.8095429093	-0.8563967752	-0.436685
C	-2.8628486467	-1.6573738272	-0.453858432	-0.254914
C	-1.4186762817	-2.1167372879	-0.0192789752	-0.283855
C	-0.6549886105	-2.9661597264	-0.9082066581	 0.335922
C	-0.0360384888	-3.673296641	-1.6570450013	-0.440539
H	 0.6940300981	 1.7221983119	-0.1408255971	 0.314676
H	-2.9391681486	-0.0332575995	 1.047315177	 0.08905
H	-2.239226459	 1.5082555249	-0.7447588696	 0.299784
H	-3.6982340113	-2.1762486576	 0.0156432585	 0.115206
H	-2.9684255172	-1.6681994172	-1.5389551845	 0.138483
H	-1.4479143308	-2.5550289416	 0.9862473499	 0.127177
H	 0.5177688617	-4.2935716403	-2.3172994718	 0.199128
63.2247	103.2103	168.7907	191.5861	288.8581	298.169	332.8343	401.074	410.4503	417.264	489.9021	538.3628	625.9773	633.5444	644.7886	680.564	806.1106	848.446	944.4464	982.2356	997.2576	1031.3325	1087.1913	1137.5525	1164.29	1212.8307	1236.6304	1253.461	1328.0041	1358.4741	1391.3312	1403.1857	1478.0203	1782.8379	2241.983	2967.8056	3027.904	3093.6507	3161.5917	3505.1711	3784.6602	3823.3499
ON=C1C(O)CC1C#C	O[N][C]1[C@@H](O)C[C@H]1C#C	
InChI=1S/C6H7NO2/c1-2-4-3-5(8)6(4)7-9/h1,4-5,8-9H,3H2	InChI=1S/C6H7NO2/c1-2-4-3-5(8)6(4)7-9/h1,4-5,8-9H,3H2/t4-,5+/m1/s1
