20
gdb 107785	2.48917	1.62595	1.28208	1.0768	77.75	-0.2399	0.0547	0.2946	1067.6122	0.171177	-403.088664	-403.08013	-403.079186	-403.121725	32.742	
C	-0.0203089608	 1.6297927837	 0.0250654433	-0.430124
C	 0.1005959359	 0.1126622731	 0.0444316492	 0.002743
C	 1.1543235778	-0.632605103	-0.7586302802	-0.063623
C	 2.3956317897	-0.7622644346	 0.0671527426	-0.04342
C	 2.1618608103	-0.1072820833	 1.414633388	-0.2811
C	 0.7253950541	-0.6463856073	 1.2452271691	 0.348149
C	-0.107531766	-1.0707220274	 2.4198051364	-0.207172
O	-0.4785751258	 0.1130528569	 3.1169727145	-0.42374
N	 1.2629243099	-1.7366640682	 0.2577155263	-0.209057
H	 0.9492343649	 2.1208357264	 0.1472808436	 0.116249
H	-0.4457885388	 1.9727304828	-0.924368324	 0.111577
H	-0.675228365	 1.9673065489	 0.834020372	 0.133446
H	-0.873966194	-0.346493443	-0.1615242743	 0.078266
H	 1.1520196774	-0.8571227715	-1.8201855656	 0.087713
H	 3.3363230019	-1.0849395435	-0.3654355289	 0.092017
H	 2.6850336856	-0.6520413506	 2.2058197937	 0.105568
H	 2.3191679941	 0.9668862234	 1.5418858572	 0.103026
H	-0.9889615686	-1.6242611342	 2.0592937389	 0.094026
H	 0.4743261527	-1.7542209642	 3.0580842745	 0.093216
H	-1.0177561053	-0.1391171143	 3.8721337737	 0.292238
76.2866	135.4427	185.6501	235.689	243.0431	282.7054	328.4004	368.3854	473.6831	559.1993	676.8823	693.1949	768.2646	802.3201	818.9014	861.9214	916.2478	929.0838	991.7566	1012.6496	1018.6819	1035.7961	1063.9051	1082.2755	1097.4317	1105.9534	1126.7656	1150.73	1187.3096	1209.6421	1240.0963	1252.216	1274.4264	1320.6035	1346.3739	1376.2202	1399.0475	1408.0976	1468.4062	1487.5932	1497.0432	1507.56	1520.7987	2971.2272	3003.0989	3034.7125	3037.1394	3055.2865	3100.8669	3105.8787	3116.9001	3165.5195	3179.0949	3831.577
CC1C2C3CC1(CO)N23	C[C@H]1[C@H]2[C@H]3C[C@]1(CO)N23	
InChI=1S/C7H11NO/c1-4-6-5-2-7(4,3-9)8(5)6/h4-6,9H,2-3H2,1H3	InChI=1S/C7H11NO/c1-4-6-5-2-7(4,3-9)8(5)6/h4-6,9H,2-3H2,1H3/t4-,5+,6-,7+,8?/m0/s1
