17
gdb 28708	3.25347	1.16846	0.86881	1.6607	76.71	-0.2077	-0.0392	0.1685	1297.8019	0.135971	-418.070269	-418.061578	-418.060634	-418.105079	30.879	
C	-0.4598459815	 1.3755677787	 0.3053447646	-0.50595
C	 0.0250922107	 0.0037132792	-0.0199691236	 0.291067
C	 0.8855664361	-0.4730264612	-0.9777212063	-0.173864
N	 1.0275098135	-1.8383940359	-0.8849965339	-0.320128
C	 0.2599496925	-2.1956053805	 0.1217740902	 0.353445
C	 0.0915841482	-3.6035439607	 0.6013347432	-0.422743
C	-0.8257721156	-3.8468280798	 1.771792485	 0.166864
O	-1.4544486682	-3.0104509379	 2.3774600615	-0.257893
N	-0.3672778816	-1.1187869645	 0.6778322389	-0.325761
H	-0.1919423336	 1.6785121375	 1.3249494511	 0.13031
H	-0.0127407509	 2.0974151954	-0.3822409846	 0.139583
H	-1.5495581222	 1.4619000256	 0.2147401012	 0.130285
H	 1.4105129631	 0.0972990314	-1.7298176478	 0.099729
H	-0.2635807581	-4.2484550363	-0.2168746589	 0.159892
H	 1.0669749028	-4.037402763	 0.8692710548	 0.159902
H	-0.8940188116	-4.9167213857	 2.0644871928	 0.099049
H	-0.9985286136	-1.1885431223	 1.4624831819	 0.276214
20.8549	129.6319	144.7222	164.3792	198.4379	289.049	293.8751	386.355	563.3478	613.0558	661.7743	686.7512	715.5688	746.4981	799.8545	841.1596	934.9893	992.5305	1018.4962	1044.799	1053.5346	1065.2475	1172.2652	1215.0908	1215.6136	1285.9897	1333.1905	1394.71	1416.7889	1420.5779	1437.8229	1470.8311	1480.3846	1498.5112	1534.5864	1622.6579	1812.8873	2904.7364	3009.0205	3020.5355	3024.0445	3066.1914	3121.4155	3242.4683	3619.2148
CC1=CN=C(CC=O)N1	Cc1cnc(CC=O)[nH]1	
InChI=1S/C6H8N2O/c1-5-4-7-6(8-5)2-3-9/h3-4H,2H2,1H3,(H,7,8)	InChI=1S/C6H8N2O/c1-5-4-7-6(8-5)2-3-9/h3-4H,2H2,1H3,(H,7,8)
