20
gdb 94791	2.84392	1.4924	1.09003	3.5023	81.36	-0.2333	0.0344	0.2677	1157.1652	0.172332	-403.191768	-403.183054	-403.18211	-403.225195	32.597	
C	 0.018117468	 1.3978410672	 0.0258183666	-0.343963
N	-0.0389695705	-0.0422508132	-0.0328237155	-0.088106
C	 0.4114372644	-0.7900834272	-1.1945791471	-0.168675
C	 0.0574636777	-2.2575732573	-0.852174271	-0.331787
C	-0.0607512193	-2.2502592911	 0.663768233	 0.23339
C	-0.728355619	-3.3227216793	 1.4820663467	-0.304176
C	 0.7556111656	-3.1298371502	 1.591525693	-0.29915
C	-0.2402836366	-0.8170762561	 1.0805935081	 0.383009
O	-0.5011074383	-0.4086094445	 2.1971829327	-0.416354
H	 1.0387851871	 1.7666388605	-0.1458057158	 0.118919
H	-0.6401235476	 1.8492644611	-0.7260297649	 0.121327
H	-0.307103882	 1.7010486734	 1.0226521944	 0.164354
H	-0.0929875911	-0.4406534011	-2.1027170421	 0.109315
H	 1.4931825809	-0.6555083393	-1.3492223381	 0.103709
H	-0.9011489312	-2.5240514031	-1.3094841922	 0.115035
H	 0.8096315612	-2.9548254528	-1.2283203009	 0.110203
H	-1.3398468194	-2.9799786409	 2.3096180207	 0.137149
H	-1.0989333653	-4.1954040684	 0.954534563	 0.11043
H	 1.4090760488	-3.8635117683	 1.1311168495	 0.11118
H	 1.1380246766	-2.6659406096	 2.4938473399	 0.134191
74.2623	137.6286	157.9336	194.172	236.2002	263.4193	309.4409	352.2076	477.2522	513.4772	631.21	725.7848	749.4913	785.2415	803.4291	898.7458	920.6463	952.3095	956.6662	999.6575	1013.5081	1063.2604	1084.3621	1103.4455	1107.5288	1156.042	1195.4982	1200.2218	1220.9516	1272.2958	1294.6127	1321.4199	1334.339	1375.0337	1431.5908	1451.8113	1453.8427	1489.2648	1491.9413	1495.9456	1514.3799	1543.8465	1795.2473	2982.1041	3006.228	3041.179	3054.7495	3058.785	3101.4154	3130.0047	3132.1383	3140.8776	3216.997	3230.9275
CN1CCC2(CC2)C1=O	CN1CCC2(CC2)C1=O	
InChI=1S/C7H11NO/c1-8-5-4-7(2-3-7)6(8)9/h2-5H2,1H3	InChI=1S/C7H11NO/c1-8-5-4-7(2-3-7)6(8)9/h2-5H2,1H3
