20
gdb 105047	2.6444	1.23818	1.14862	3.4824	74.1	-0.2504	0.0655	0.3159	1184.4013	0.1697	-440.231808	-440.222466	-440.221522	-440.266459	35.146	
C	 0.3098275515	 0.7981275835	 1.121702417	-0.464439
C	-0.017431241	-0.0328845944	-0.1039514537	 0.327083
C	 0.6881491621	 0.2524020115	-1.3649717912	-0.234264
O	 1.0687246258	-0.8617651989	-0.5609740556	-0.272689
C	-1.3664495393	-0.7107100301	-0.0819161675	 0.237862
C	-1.4700062361	-1.8817981297	 0.8985897961	-0.122632
O	-2.7197543684	-2.5259208495	 0.8162661163	-0.426887
C	-2.5787433173	 0.0931684458	-0.381155584	-0.267646
N	-2.1360319682	-0.9655047014	-1.3094672358	-0.378383
H	 1.3183724996	 1.2103243308	 1.0409178133	 0.129224
H	-0.4012168687	 1.6224203828	 1.234550858	 0.127074
H	 0.266163443	 0.1902991857	 2.0304061644	 0.137086
H	 0.252446268	 0.0020196433	-2.3312343936	 0.109653
H	 1.398677661	 1.0785835822	-1.3950002508	 0.114761
H	-0.6378099726	-2.5720587991	 0.6880531634	 0.107159
H	-1.3576515554	-1.5284860697	 1.9293926895	 0.106616
H	-2.8984551463	-2.6095143284	-0.1320611875	 0.292963
H	-3.5035781049	-0.124332209	 0.1432879131	 0.134746
H	-2.4443415717	 1.1279744775	-0.6856286618	 0.110976
H	-1.693264971	-0.5659519629	-2.1301877195	 0.231737
27.3836	121.7422	182.234	189.0049	236.5929	280.4426	328.2018	348.8906	366.4475	466.6203	499.6607	527.6092	550.6343	660.9182	791.5511	830.7503	843.1001	908.8984	928.9676	950.1119	963.9656	1030.7176	1044.1626	1081.692	1094.7576	1111.0491	1131.1074	1134.5957	1177.5079	1202.226	1237.7887	1253.3396	1293.6483	1351.502	1384.617	1409.8493	1417.1608	1450.146	1483.2005	1495.999	1500.6895	1512.8178	1535.9475	2984.1935	3043.7455	3066.1102	3079.5561	3111.4644	3113.1185	3127.6337	3158.9726	3206.9347	3534.7838	3724.8291
CC1(CO1)C1(CO)CN1	C[C@]1(CO1)[C@@]1(CO)CN1	
InChI=1S/C6H11NO2/c1-5(4-9-5)6(3-8)2-7-6/h7-8H,2-4H2,1H3	InChI=1S/C6H11NO2/c1-5(4-9-5)6(3-8)2-7-6/h7-8H,2-4H2,1H3/t5-,6-/m0/s1
