25
gdb 60345	3.21909	0.67454	0.58072	0.7452	95.97	-0.2565	0.0589	0.3154	1993.7185	0.225626	-352.339128	-352.327411	-352.326467	-352.37689	42.722	
C	 0.0192462975	 1.5639867232	 0.0206891294	-0.388904
C	 0.053282223	 0.0299386347	 0.06256422	 0.039141
C	 0.849884064	-0.4550602352	 1.2824357958	-0.382573
C	-1.3786025028	-0.5393670494	 0.0245891909	-0.178099
C	-1.4563352027	-2.0595188505	-0.1579076077	-0.187
C	-2.9004618529	-2.6223453006	-0.180780967	-0.160097
C	-3.7194941161	-2.1433490524	-1.3973028562	-0.386265
C	-2.8720305006	-4.0842281259	-0.1321382761	 0.319272
C	-2.8328166265	-5.2859728117	-0.1114047082	-0.464585
H	 1.0307022989	 1.9835229121	 0.0130422364	 0.108869
H	-0.5028459659	 1.92893637	-0.8701727551	 0.108376
H	-0.4995668894	 1.9677646017	 0.8986868978	 0.110881
H	 0.5734674176	-0.3190562144	-0.8416460462	 0.071303
H	 0.3582369257	-0.1499203155	 2.214415587	 0.110069
H	 0.9564172938	-1.5433352722	 1.3025336905	 0.116698
H	 1.8576213972	-0.0265249421	 1.285595906	 0.110116
H	-1.8984485401	-0.2560135345	 0.9519944522	 0.088573
H	-1.9204710538	-0.044811592	-0.7905600414	 0.093066
H	-0.9536577097	-2.3503887732	-1.0896017409	 0.101422
H	-0.9168674022	-2.5607826277	 0.651637919	 0.109364
H	-3.4083428495	-2.2682911896	 0.7283239052	 0.102673
H	-3.2310517157	-2.4426902841	-2.3299989812	 0.12375
H	-4.720226425	-2.5827345491	-1.3849895085	 0.125375
H	-3.8254719929	-1.0554019428	-1.3958499564	 0.117863
H	-2.8057535822	-6.3469073786	-0.0825257952	 0.190715
26.6428	71.2205	99.4895	116.3959	182.541	210.8196	222.2935	246.2693	261.5898	277.5252	344.9208	393.0044	419.0464	439.0376	534.5103	559.6061	623.8967	631.0671	753.3291	815.0164	841.0131	922.8225	926.8461	933.6212	957.6387	968.0627	1036.9569	1051.6063	1064.2888	1124.8147	1148.4677	1183.9994	1193.9682	1239.6973	1278.9593	1314.4687	1330.2844	1344.7804	1362.9514	1374.789	1396.5481	1401.1128	1408.683	1422.0694	1476.4849	1488.2276	1491.5512	1495.7516	1498.8047	1503.1647	1505.343	1511.8482	2232.7433	2991.8258	2996.924	3003.3748	3021.6035	3028.1606	3030.0039	3042.3375	3049.9916	3084.1059	3086.4403	3092.5203	3097.5192	3108.0752	3116.4532	3122.8587	3505.5623
CC(C)CCC(C)C#C	CC(C)CC[C@@H](C)C#C	
InChI=1S/C9H16/c1-5-9(4)7-6-8(2)3/h1,8-9H,6-7H2,2-4H3	InChI=1S/C9H16/c1-5-9(4)7-6-8(2)3/h1,8-9H,6-7H2,2-4H3/t9-/m0/s1
