20
gdb 90595	2.36721	1.59967	1.18862	3.7463	80.07	-0.235	0.0358	0.2707	1122.2704	0.171202	-403.162307	-403.153425	-403.152481	-403.195962	32.96	
C	-0.2087813323	 1.5533743605	-0.0059306598	-0.41379
C	 0.0291562501	 0.051068529	 0.0099935449	 0.030107
C	 1.125693647	-0.5393852093	-0.9339111153	-0.261375
C	 1.7781510832	-1.2770610793	 0.2758706335	-0.187568
C	 0.7504945259	-0.5972478435	 1.2371571567	-0.021075
N	 1.875908037	 0.1481529697	 1.8028308924	-0.060196
C	 1.976752929	 1.1792622559	 2.805581459	-0.351594
C	 2.839604644	-0.424083973	 0.9991474591	 0.400159
O	 4.0285097446	-0.246817268	 0.9235617304	-0.381657
H	 0.7242269292	 2.1037790404	 0.151941951	 0.125119
H	-0.6166553354	 1.8702951816	-0.9718962866	 0.120123
H	-0.920284192	 1.8571363678	 0.7701184189	 0.113893
H	-0.9182044087	-0.4754794608	-0.1494227624	 0.076959
H	 0.7359309342	-1.2067781015	-1.7046834935	 0.108864
H	 1.7787792277	 0.1944069516	-1.4132662116	 0.115038
H	 1.9391717765	-2.3513113769	 0.2190716627	 0.095659
H	 0.1458802888	-1.1340794484	 1.9720204254	 0.076251
H	 1.6064426885	 0.8283312534	 3.776377938	 0.126705
H	 3.0350244417	 1.4339915781	 2.9049276114	 0.16071
H	 1.4211361011	 2.0822190625	 2.5285263659	 0.127667
78.4528	131.0065	135.5775	186.4656	242.9659	245.6955	271.8547	355.9257	419.1845	546.3447	636.0155	693.775	726.0669	809.9319	843.5916	848.8856	893.3563	899.6795	952.7551	979.3044	1044.6047	1079.1485	1088.3882	1119.0392	1135.9537	1147.3177	1184.9537	1189.6121	1240.2268	1264.6375	1279.6527	1294.4217	1314.194	1358.0457	1401.2491	1412.7617	1447.9907	1481.8943	1489.2347	1494.4853	1500.5921	1518.6919	1869.1037	3019.4055	3028.244	3041.8487	3067.078	3072.3294	3080.3663	3092.784	3102.8081	3119.1638	3126.2585	3145.6082
CC1CC2C1N(C)C2=O	C[C@H]1C[C@@H]2[C@H]1N(C)C2=O	
InChI=1S/C7H11NO/c1-4-3-5-6(4)8(2)7(5)9/h4-6H,3H2,1-2H3	InChI=1S/C7H11NO/c1-4-3-5-6(4)8(2)7(5)9/h4-6H,3H2,1-2H3/t4-,5+,6-/m0/s1
