22
gdb 12103	3.92267	1.21348	1.13569	0.1859	81.82	-0.2611	0.0862	0.3473	1183.8962	0.200039	-313.048745	-313.039984	-313.03904	-313.082227	33.654	
C	 0.2141878962	 1.574527957	 0.1311670895	-0.462684
C	-0.0281295128	 0.078321694	 0.0522685188	 0.402413
C	-1.4712111354	-0.3639827824	 0.2692549497	-0.293898
C	-2.4676891935	 0.1843392585	-0.734986351	 0.040927
C	-2.6996052681	-0.5076244846	-2.0549355359	-0.252333
C	-3.7668569899	-0.5378231226	-0.9877020726	-0.27822
C	 0.8259873406	-0.7204872471	-0.9033439976	-0.291109
C	 1.056176972	-0.8274301387	 0.5868792356	-0.314097
H	 1.278930077	 1.8067417607	 0.0296665078	 0.109876
H	-0.3156298659	 2.11315667	-0.6621255586	 0.11729
H	-0.1236383611	 1.9796688361	 1.0929901037	 0.110987
H	-1.5157289884	-1.4606169163	 0.2475355258	 0.084194
H	-1.783271443	-0.0675186548	 1.2815282262	 0.093173
H	-2.532564557	 1.268742769	-0.7601215142	 0.081886
H	-2.8686561808	 0.0986138603	-2.9381465417	 0.107618
H	-2.1554193274	-1.4259094376	-2.2489158074	 0.108264
H	-3.9343325963	-1.4751262635	-0.466308126	 0.10723
H	-4.6660568516	 0.0494082983	-1.1388126842	 0.107925
H	 0.3783919363	-1.5681883975	-1.4108217681	 0.106016
H	 1.563900569	-0.1922187753	-1.4983538149	 0.105085
H	 1.9488424883	-0.3697992723	 1.0008604101	 0.104944
H	 0.7605761618	-1.7461631511	 1.0835592748	 0.104514
50.8009	96.1892	160.3408	226.9229	296.7053	305.1524	345.8727	368.4491	394.0642	476.9859	715.8595	773.067	784.8674	804.9209	835.5443	865.2214	895.018	913.0624	931.1638	953.9753	988.4169	1015.3809	1039.4518	1049.5999	1066.5241	1076.2616	1079.1678	1118.698	1138.3198	1144.8349	1186.8444	1198.6817	1229.1908	1258.926	1312.843	1342.1634	1362.774	1416.7576	1423.6792	1468.6019	1469.2768	1477.0528	1494.2991	1500.6614	1506.5453	1513.1816	2997.0855	3021.7081	3040.8138	3082.1833	3097.4015	3123.3491	3126.5992	3129.7756	3133.4273	3141.9391	3200.3963	3204.1857	3215.4169	3220.1666
CC1(CC2CC2)CC1	CC1(CC2CC2)CC1	
InChI=1S/C8H14/c1-8(4-5-8)6-7-2-3-7/h7H,2-6H2,1H3	InChI=1S/C8H14/c1-8(4-5-8)6-7-2-3-7/h7H,2-6H2,1H3
