17
gdb 69707	4.04848	1.3705	1.25226	2.9087	73.55	-0.2452	0.0051	0.2503	1032.825	0.136172	-417.94579	-417.938273	-417.937328	-417.977559	29.47	
C	 0.0893041893	 1.5148118968	 0.0286143713	-0.497722
C	-0.0775428206	 0.0259343249	-0.0312556495	 0.331449
C	-0.9413815136	-0.7648626344	 0.8636091628	-0.294022
N	 0.521445306	-0.9189654144	 1.0223584895	-0.185197
C	 1.042307379	-1.7936091661	-0.1162902006	-0.103263
C	 0.4832007543	-0.8440767536	-1.172142008	 0.030766
O	-0.4005559703	-1.8944691035	-1.6771125256	-0.271157
C	 0.1071119287	-2.8067769098	-0.7519267168	 0.419912
N	-0.1547050742	-4.0198100711	-0.5834010191	-0.54501
H	 1.0972417504	 1.8169215655	-0.2758379858	 0.126935
H	-0.6281872653	 2.0107810264	-0.6355017036	 0.13088
H	-0.0784463243	 1.8788101936	 1.0458835378	 0.137371
H	-1.3799742058	-0.2340971504	 1.7033650407	 0.127737
H	-1.5423647739	-1.5872723134	 0.4898834052	 0.142303
H	 2.0874318141	-2.0565970997	 0.0229115384	 0.116401
H	 1.0484191966	-0.3599925946	-1.966397365	 0.100542
H	-0.8584392305	-4.3481201263	-1.2478712518	 0.232075
121.6572	175.069	179.7247	283.1817	311.6174	407.6532	450.9723	514.2537	611.1994	659.3103	698.3985	750.6773	815.0218	855.9542	879.8334	889.5286	930.5269	944.4947	963.8606	995.8779	1002.1399	1045.9572	1086.9666	1124.3405	1131.9548	1179.832	1214.1653	1234.8877	1260.8137	1292.9505	1314.3401	1387.6767	1419.1766	1481.5573	1491.4957	1509.2451	1817.1702	3029.265	3091.0231	3116.2138	3126.571	3136.3356	3157.6328	3211.522	3470.4834
CC12CN1C1C2OC1=N	C[C@]12CN1[C@@H]1[C@H]2O[C]1[NH]	
InChI=1S/C6H8N2O/c1-6-2-8(6)3-4(6)9-5(3)7/h3-4,7H,2H2,1H3	InChI=1S/C6H8N2O/c1-6-2-8(6)3-4(6)9-5(3)7/h3-4,7H,2H2,1H3/t3-,4-,6-,8?/m1/s1
