18
gdb 58022	1.82097	1.6619	0.90264	6.3774	74.06	-0.2513	0.0239	0.2752	1260.3929	0.145784	-439.086209	-439.07659	-439.075646	-439.120848	35.609	
C	 0.0909530633	 1.5676315756	 0.1398973179	-0.396935
C	 0.0070536212	 0.0428511481	 0.0515926937	 0.01118
N	-1.3896723864	-0.4505657157	 0.072920947	-0.53152
H	-1.9593733981	 0.0869599517	-0.576635904	 0.243459
H	-0.9823168325	-2.0144891964	-0.480682667	 0.319417
H	-1.7960233532	-0.3240967943	 0.9944628613	 0.250406
C	 0.7031919679	-0.5301582947	-1.2236817631	-0.374313
C	 2.0380574258	 0.0214926198	-1.4124174644	 0.363359
C	 3.1324644565	 0.496465115	-1.5495248952	-0.433045
C	 0.7498519224	-2.0930325197	-1.2712150159	 0.428733
O	-0.3564032287	-2.7015611743	-0.8433047105	-0.382418
O	 1.6964751479	-2.6926093669	-1.6994952101	-0.321197
H	 1.1273847496	 1.907684649	 0.1726006324	 0.150772
H	-0.3892432167	 2.0331087703	-0.7295471728	 0.11678
H	-0.4209987164	 1.921961014	 1.0406464673	 0.111718
H	 0.5038628392	-0.3957689972	 0.9244636369	 0.116988
H	 0.0790939393	-0.2337525146	-2.0830070172	 0.127557
H	 4.108868299	 0.8912276602	-1.6857676562	 0.199058
53.0329	90.752	152.5116	199.5834	236.4805	271.3361	328.074	358.2116	384.8833	426.2147	446.2667	500.6628	510.1186	603.4546	637.9324	651.1684	730.0072	858.4856	881.9093	930.8622	959.2018	997.0995	1022.0193	1055.7714	1112.5305	1163.765	1174.7092	1226.7574	1283.8003	1319.9902	1356.7987	1401.1595	1413.5227	1489.009	1499.3728	1512.4844	1646.7517	1863.9847	2244.8861	2976.9863	3029.2336	3052.1771	3095.9038	3136.8802	3144.2194	3485.2777	3504.0426	3571.286
CC([NH3+])C(C#C)C([O-])=O	C[C@@H](N)[C@@H](C#C)C(=O)O	
InChI=1S/C6H9NO2/c1-3-5(4(2)7)6(8)9/h1,4-5H,7H2,2H3,(H,8,9)	InChI=1S/C6H9NO2/c1-3-5(4(2)7)6(8)9/h1,4-5H,7H2,2H3,(H,8,9)/t4-,5-/m1/s1
