21
gdb 85908	2.69392	1.37017	1.2117	2.9919	77.42	-0.2541	0.07	0.3241	1150.8064	0.181432	-424.226932	-424.217869	-424.216925	-424.25997	35.512	
C	 0.0735567067	 1.5960668377	 0.0573774778	-0.404433
C	 0.0297301812	 0.0670226891	 0.0235536695	-0.000366
C	 0.7443295393	-0.5603690849	-1.2004060058	-0.298491
C	 1.2414201161	-1.9634214437	-0.7547542388	 0.369962
C	 0.1850769435	-3.0549536382	-0.9702420312	-0.438065
O	 2.4703295719	-2.3384746834	-1.3656054503	-0.478797
C	 1.478774788	-1.7733933844	 0.7360738009	 0.030932
O	 2.1663328683	-0.5657768014	 1.0748527681	-0.265461
C	 0.7373667426	-0.5958650892	 1.1968581655	 0.038427
H	 1.110032411	 1.9441772845	 0.1072931666	 0.133826
H	-0.387536347	 2.0249163992	-0.8382037993	 0.113243
H	-0.4596491772	 1.9910374264	 0.9288169325	 0.111145
H	-1.0189299078	-0.2611817711	 0.0457051975	 0.073142
H	 0.0966832236	-0.6084574406	-2.0811651372	 0.086295
H	 1.6248874103	 0.033671992	-1.4563136618	 0.120622
H	-0.0084144554	-3.18839801	-2.0410907618	 0.108304
H	 0.5315235176	-4.0108197286	-0.5658842884	 0.124808
H	-0.7656731626	-2.7985852518	-0.4916693851	 0.120061
H	 2.3055243352	-2.4728361406	-2.3048698208	 0.274732
H	 1.6999429857	-2.6340067069	 1.3631274135	 0.09206
H	 0.3535381991	-0.4978062642	 2.2101942184	 0.088053
112.2837	169.9011	226.4341	237.8574	245.253	257.8606	287.7564	339.8347	376.783	430.3421	504.6774	534.258	600.896	636.1345	798.1293	826.4705	858.0098	885.9984	913.6793	941.7816	958.2174	961.9567	1018.0616	1035.1871	1070.3909	1091.6625	1139.6861	1142.5036	1185.288	1195.6209	1223.2505	1261.7481	1294.8392	1314.137	1333.9107	1365.3019	1396.5344	1404.8741	1412.7299	1438.8809	1480.3517	1492.084	1495.7875	1499.8879	1502.2036	3010.5182	3027.0212	3032.0016	3056.8511	3093.8296	3097.8038	3108.302	3111.156	3113.3858	3133.0001	3147.6707	3808.2604
CC1CC(C)(O)C2OC12	C[C@H]1C[C@@](C)(O)[C@H]2O[C@@H]12	
InChI=1S/C7H12O2/c1-4-3-7(2,8)6-5(4)9-6/h4-6,8H,3H2,1-2H3	InChI=1S/C7H12O2/c1-4-3-7(2,8)6-5(4)9-6/h4-6,8H,3H2,1-2H3/t4-,5-,6-,7+/m0/s1
