27
gdb 122128	2.07432	0.73137	0.57837	0.9864	94.09	-0.2493	0.0886	0.3378	2070.9755	0.249561	-390.692184	-390.679933	-390.678989	-390.731054	42.935	
C	 0.0623692282	 1.5376257666	 0.2383370139	-0.388332
C	 0.155501258	 0.0107173174	 0.1499433005	-0.182068
C	 0.6359110017	-0.5277919274	-1.2155022992	 0.055469
C	 2.1475070619	-0.2859713922	-1.4099076779	-0.18236
C	 2.6321373559	-0.4003647876	-2.8587725285	-0.389002
C	 0.2898848137	-2.02191993	-1.375879212	-0.215347
C	-1.173507318	-2.2901125013	-1.7070822325	-0.056072
O	-1.3606708599	-3.6863934265	-1.8062681191	-0.228962
C	-2.6837815741	-4.0403656513	-2.1218174896	-0.22669
H	 1.0278922189	 2.022903002	 0.0646259472	 0.118337
H	-0.6425016886	 1.9315175711	-0.5026228516	 0.112792
H	-0.2867205594	 1.852145489	 1.2270032467	 0.111527
H	 0.8301524983	-0.3659134684	 0.931259205	 0.093575
H	-0.8306331945	-0.4089706047	 0.3805284403	 0.093097
H	 0.1062386894	 0.0323818604	-2.0025324971	 0.060205
H	 2.4041430623	 0.7124556139	-1.0380345813	 0.092347
H	 2.7000314949	-0.9940162707	-0.7768201783	 0.093554
H	 3.7089411067	-0.2158776799	-2.927334472	 0.111501
H	 2.44420447	-1.3924067768	-3.2814869881	 0.119799
H	 2.128999902	 0.3322095094	-3.5000181846	 0.112777
H	 0.8908410154	-2.4718518193	-2.1730433202	 0.102287
H	 0.5467939725	-2.560639831	-0.4547680458	 0.101338
H	-1.8443601905	-1.8737286844	-0.936313596	 0.083931
H	-1.4422865331	-1.8002345161	-2.6601717581	 0.081063
H	-3.3961085808	-3.6938709443	-1.355297875	 0.100363
H	-3.0003928419	-3.623665782	-3.0919188503	 0.100392
H	-2.7290805492	-5.1310645158	-2.1761532065	 0.12448
48.3037	62.1231	72.3768	96.2151	124.401	139.0068	200.5025	219.7744	228.075	255.5892	279.6294	314.5013	368.6914	447.2857	465.0521	522.0704	755.0691	780.845	784.2622	860.4041	912.6598	972.3139	998.3312	1013.7938	1025.7428	1046.9392	1056.2189	1066.4534	1150.5219	1161.8684	1170.5845	1177.6784	1190.363	1227.9804	1240.9949	1274.2031	1292.8538	1313.1086	1323.48	1335.2151	1362.4941	1388.8572	1392.2324	1413.5223	1417.1105	1427.6445	1480.5195	1481.8932	1484.1866	1488.5585	1490.7816	1499.9929	1503.6971	1505.3129	1506.9922	1509.0278	1531.8911	2940.1928	2964.1391	2969.5534	2976.1928	3004.0978	3012.2673	3017.5628	3031.7969	3032.6096	3033.3539	3052.0927	3058.161	3077.8249	3097.0021	3097.5828	3103.9526	3106.3294	3109.897
CCC(CC)CCOC	CCC(CC)CCOC	
InChI=1S/C8H18O/c1-4-8(5-2)6-7-9-3/h8H,4-7H2,1-3H3	InChI=1S/C8H18O/c1-4-8(5-2)6-7-9-3/h8H,4-7H2,1-3H3
