13
gdb 31920	6.07152	0.88995	0.78525	4.4395	70.26	-0.2653	-0.0655	0.1998	1337.4519	0.08986	-452.774185	-452.766344	-452.7654	-452.807313	27.498	
O	 0.4199689365	 0.8695433824	-0.6848406439	-0.395597
C	-0.0331095568	 0.0026949258	 0.332024044	-0.182064
C	-1.4488545126	-0.4190418611	 0.0966096992	 0.288277
C	-2.2859021065	-0.3581425686	-0.9759715642	-0.182637
N	-3.5100359376	-0.897265779	-0.6328339797	-0.284013
C	-3.3653414014	-1.2560621305	 0.6061966308	 0.279376
O	-2.1328256458	-0.9928073555	 1.1244444452	-0.190786
C	-4.3182411308	-1.8703798058	 1.4574579851	 0.264785
N	-5.0912666546	-2.370867738	 2.157672372	-0.320967
H	-0.0682613187	 1.6968649308	-0.6128148979	 0.295444
H	 0.63020824	-0.8700285313	 0.3069597069	 0.151081
H	 0.055150494	 0.4383318148	 1.3387941125	 0.127575
H	-2.0868064758	 0.0282237361	-1.9616338099	 0.149525
60.2507	129.2811	151.9186	212.0306	254.6311	348.0352	409.3049	498.9628	578.0942	614.1317	651.4365	719.4161	736.6622	872.2648	979.9698	985.5644	1019.5427	1095.429	1139.7704	1197.4138	1226.4702	1256.5565	1322.9453	1398.3632	1422.6658	1492.2666	1550.4309	1611.8494	2358.4923	2996.849	3058.9746	3283.1498	3811.026
OCC1=CN=C(O1)C#N	OCc1cnc(o1)C#N	
InChI=1S/C5H4N2O2/c6-1-5-7-2-4(3-8)9-5/h2,8H,3H2	InChI=1S/C5H4N2O2/c6-1-5-7-2-4(3-8)9-5/h2,8H,3H2
