14
gdb 27653	3.06796	1.29602	0.91342	3.0083	74.82	-0.1845	0.0167	0.2012	1185.6588	0.101358	-432.875703	-432.867273	-432.866329	-432.908345	31.872	
N	 0.1027177894	 1.3990168055	 0.2010340964	-0.619015
C	 0.0083964942	 0.0173542242	 0.0323206491	 0.208073
C	-1.0618252911	-0.8463797275	-0.0285969226	 0.108998
N	-0.6047306736	-2.1736154362	-0.0957559951	-0.424201
C	 0.6867895446	-2.0745891215	-0.0854508734	 0.419853
O	 1.5829124903	-3.0733716512	-0.149265164	-0.430718
N	 1.1356052877	-0.7851032046	-0.0115292117	-0.330803
C	-2.4217001362	-0.4739544031	-0.0165543943	 0.203537
C	-3.5727006528	-0.1131064174	-0.0074307576	-0.417305
H	 0.5265128948	 1.869748714	-0.5936256278	 0.24919
H	-0.8220277001	 1.7887395078	 0.3468128356	 0.260929
H	 1.0708557372	-3.8906299246	-0.2013075223	 0.315516
H	 2.0889409851	-0.4869094862	 0.1085246855	 0.274951
H	-4.5908468594	 0.1863591907	 0.0026379724	 0.180995
129.0468	143.6259	213.2568	224.8794	296.7285	350.2238	412.1226	416.7651	446.9217	469.9559	503.3741	546.4597	611.4576	659.0058	678.8115	706.7439	722.8991	807.8118	840.5128	1043.4936	1100.5117	1178.1907	1199.8486	1280.0603	1302.468	1464.8383	1541.4427	1616.1256	1647.7164	1662.8385	2220.6435	3488.5529	3504.5251	3587.9485	3669.4105	3801.8776
NC1=C(N=C(O)N1)C#C	Nc1c(nc(O)[nH]1)C#C	
InChI=1S/C5H5N3O/c1-2-3-4(6)8-5(9)7-3/h1H,6H2,(H2,7,8,9)	InChI=1S/C5H5N3O/c1-2-3-4(6)8-5(9)7-3/h1H,6H2,(H2,7,8,9)
