20
gdb 16223	2.74448	2.25157	1.41861	0.1584	81.59	-0.2119	0.0346	0.2465	948.2671	0.177857	-311.879772	-311.871912	-311.870968	-311.911706	30.702	
C	-0.3679749614	 1.4597080962	 0.0352359584	-0.50842
C	-0.1162951106	-0.0156829553	 0.0024696455	 0.282294
C	 0.0935053278	-0.7640291681	-1.0850555305	-0.178204
C	 0.3535829755	-2.2148655996	-0.7593757774	-0.260529
C	-0.0322129591	-2.3108756761	 0.7398735779	-0.295384
C	-0.0437412147	-0.8592353287	 1.2387237528	 0.3029
C	 0.7899031731	-0.4289174836	 2.4328512702	-0.31193
C	-0.7120365295	-0.4838564122	 2.5389704991	-0.319549
H	 0.3743551316	 1.9848799152	 0.6495142972	 0.124518
H	-0.3322890679	 1.8882376267	-0.9696998049	 0.123771
H	-1.3505688699	 1.6905009699	 0.4652168432	 0.126742
H	 0.1196533277	-0.377724513	-2.0987538695	 0.079987
H	-0.2284751895	-2.9043878888	-1.3815296885	 0.098804
H	 1.4096624992	-2.4701074257	-0.9277099173	 0.102379
H	-1.037651659	-2.7368520409	 0.8333113872	 0.102391
H	 0.6442291119	-2.9499846576	 1.3144127911	 0.094389
H	 1.3704833497	-1.194272524	 2.9377575325	 0.110125
H	 1.2655921617	 0.5460773391	 2.4111041857	 0.108925
H	-1.2534502945	 0.454837	 2.5948120324	 0.108268
H	-1.1565495023	-1.2851737637	 3.1211684551	 0.108525
79.6694	166.2658	234.7034	248.3415	262.1705	337.4334	380.6219	511.5663	580.8978	634.5519	703.3145	777.7012	799.9695	832.0853	886.145	905.196	923.3402	935.2356	973.8725	1006.73	1037.7879	1052.8804	1060.538	1068.5992	1079.4431	1133.5512	1176.8176	1191.5306	1233.5701	1261.747	1304.0242	1312.8889	1331.3492	1390.0282	1413.9213	1461.7336	1482.8504	1483.7477	1490.2907	1500.1206	1502.0281	1711.2761	3002.1488	3018.3806	3033.1919	3051.3952	3063.7318	3085.9182	3111.355	3121.7011	3125.8576	3182.2678	3199.0084	3214.7636
CC1=CCCC11CC1	CC1=CCCC21CC2	
InChI=1S/C8H12/c1-7-3-2-4-8(7)5-6-8/h3H,2,4-6H2,1H3	InChI=1S/C8H12/c1-7-3-2-4-8(7)5-6-8/h3H,2,4-6H2,1H3
