20
gdb 7548	3.20713	1.21218	1.03094	2.0214	71.74	-0.2436	0.0738	0.3174	1226.9867	0.174512	-386.122945	-386.113389	-386.112445	-386.15707	35.283	
C	 0.0538180179	 1.5835818531	-0.0164473631	-0.380982
C	 0.2297810924	 0.0632300262	-0.048690397	-0.176335
C	 0.5051143069	-0.5348515528	 1.3372613455	-0.220371
C	 0.6657609841	-2.0410081466	 1.3209208266	 0.383976
O	-0.4902581306	-2.7613673693	 0.9705621725	-0.47334
C	 1.9995694434	-2.6623395707	 0.9324688851	-0.390598
C	 1.4880920734	-2.7283382354	 2.3605367319	 0.056777
O	 2.0777114686	-1.9380279338	 3.3504845978	-0.422017
H	 0.9531682963	 2.0768030207	 0.3687247093	 0.115086
H	-0.1452484737	 1.9849672596	-1.0150959231	 0.10972
H	-0.7816034514	 1.8705700704	 0.6315069507	 0.117289
H	-0.676743969	-0.3928669626	-0.4690104258	 0.086036
H	 1.0518141235	-0.1995779815	-0.7275084545	 0.094182
H	 1.4051698057	-0.087137753	 1.7695262844	 0.107855
H	-0.3234753066	-0.2879500737	 2.0135134643	 0.103301
H	-0.6265931077	-2.6553972029	 0.0229533816	 0.282035
H	 1.9863429247	-3.5759266151	 0.3481470007	 0.109896
H	 2.8276891014	-1.9892443014	 0.734294546	 0.11079
H	 1.1008623364	-3.689745452	 2.6958627628	 0.098078
H	 2.9471642942	-2.3045039292	 3.5416171544	 0.288621
83.1854	89.9721	129.8482	233.9651	243.6815	245.527	292.3678	301.1443	326.2838	411.4316	446.6175	472.6428	561.2266	726.7201	752.0212	838.3278	874.2452	899.7648	921.9391	939.4889	994.9494	1018.3969	1049.7169	1062.4679	1115.3886	1118.7604	1177.8667	1231.1419	1260.4634	1288.3714	1303.1627	1314.5274	1338.604	1352.8741	1399.8794	1412.1573	1418.9072	1478.0487	1493.3009	1497.4544	1499.8934	1510.273	3009.43	3027.7764	3031.1931	3042.7591	3089.9226	3099.2174	3101.5209	3113.0124	3127.5139	3222.3131	3801.274	3808.8219
CCCC1(O)CC1O	CCC[C@@]1(O)C[C@H]1O	
InChI=1S/C6H12O2/c1-2-3-6(8)4-5(6)7/h5,7-8H,2-4H2,1H3	InChI=1S/C6H12O2/c1-2-3-6(8)4-5(6)7/h5,7-8H,2-4H2,1H3/t5-,6-/m1/s1
