20
gdb 102634	1.88815	1.12155	0.75212	9.9717	75.66	-0.1932	-0.0092	0.1841	1490.8949	0.167052	-477.364061	-477.353667	-477.352723	-477.400511	36.746	
N	 0.5142396618	 1.1154274607	 0.1626009369	-0.419124
H	 0.6599313719	 0.1066829068	 0.1411099324	 0.316609
H	 1.3924423094	 1.5365379402	 0.4704013516	 0.320453
H	 0.3556057402	 1.4306612051	-0.8076280831	 0.286398
C	-0.5689300457	 1.4502862676	 1.1943155562	-0.373145
C	-0.8352411878	 2.956282149	 1.1383995547	 0.012609
C	-1.7340940924	 3.3953832766	-0.0302494279	-0.071292
O	-1.7707055789	 4.7948727662	-0.2508999806	-0.42159
C	-1.4065007614	 3.3968848245	 2.5042666322	-0.354318
C	-0.4903305334	 3.0850374555	 3.7096923784	 0.375197
O	 0.1404355831	 1.9292443194	 3.6456873272	-0.410167
O	-0.398829702	 3.8630327814	 4.6334942854	-0.367412
H	-1.4453038257	 0.8759181938	 0.8702994293	 0.074375
H	-0.0931250248	 1.4831112629	 2.67145579	 0.30147
H	 0.12822059	 3.4790981709	 1.0110498119	 0.064622
H	-1.3640309514	 2.9733522626	-0.976342849	 0.065254
H	-2.7450810953	 2.9809180461	 0.1213911295	 0.09128
H	-2.149099747	 5.2074676552	 0.5319086596	 0.290354
H	-1.6045688154	 4.4715484488	 2.5363294253	 0.102871
H	-2.3648473352	 2.8842484667	 2.6702231101	 0.115554
42.4029	87.04	101.6153	110.6699	191.9486	202.2621	253.8774	266.187	321.6931	369.57	400.6479	484.64	514.5028	589.7785	685.3392	747.9963	857.9108	861.5128	887.8942	908.3715	946.6366	996.9704	1075.3692	1095.1587	1103.0321	1121.0995	1187.9148	1214.5864	1256.108	1289.7931	1308.545	1311.0386	1353.7179	1380.5924	1391.246	1421.0649	1432.331	1467.3061	1493.5708	1562.8908	1645.3824	1658.2696	1695.7092	1881.3531	2954.752	2965.2651	3006.4326	3017.2662	3042.955	3092.5055	3254.8875	3462.0424	3531.1501	3824.3348
[NH3+]CC(CO)CC([O-])=O	[NH3][CH][C@@H](CO)CC(=O)O	
InChI=1S/C5H11NO3/c6-2-4(3-7)1-5(8)9/h4,7H,1-3,6H2,(H,8,9)	InChI=1S/C5H11NO3/c6-2-4(3-7)1-5(8)9/h2,4,7H,1,3H2,6H3,(H,8,9)/t4-/m0/s1
