23
gdb 88999	3.95038	0.7992	0.76032	1.6805	86.68	-0.2565	0.0929	0.3494	1625.8275	0.205201	-388.266758	-388.257157	-388.256212	-388.302226	35.639	
C	 0.2273246895	 1.4455670608	-0.2610448463	-0.418032
C	 0.0928773861	-0.0192004505	 0.0687447964	 0.073617
O	 1.2978106001	-0.768766713	 0.2655599969	-0.26134
C	 0.3976753712	-0.6285886689	 1.3750612892	 0.072469
C	 0.9011487276	 0.108241851	 2.594175381	-0.261623
C	 1.8722828089	-0.7332213859	 3.4178625447	 0.06966
C	 3.2845272014	-1.0466306451	 2.8440453147	-0.20563
C	 3.8628956108	-0.8594819936	 4.272160435	-0.211606
C	 2.567413131	-0.0920718018	 4.6522511719	-0.240559
H	 0.961303457	 1.9429538207	 0.3754982017	 0.127709
H	 0.5454333756	 1.5680095979	-1.3018118509	 0.128862
H	-0.7373024567	 1.9520258626	-0.1455483737	 0.120526
H	-0.6427867988	-0.5443616326	-0.5456726464	 0.083073
H	-0.1349474858	-1.5542089159	 1.6118612899	 0.081633
H	 1.3931121203	 1.0401213775	 2.296681621	 0.095731
H	 0.036948266	 0.3849668345	 3.2149828041	 0.096396
H	 1.3822835226	-1.6681387585	 3.7181906834	 0.06665
H	 3.431771549	-2.0080106192	 2.3474797374	 0.099236
H	 3.6154470001	-0.2567223245	 2.1632662794	 0.10371
H	 3.9405790012	-1.8104318057	 4.8074515493	 0.099157
H	 4.8132563874	-0.329749797	 4.3718348134	 0.093708
H	 2.6879486003	 0.9887451066	 4.5198677961	 0.095053
H	 2.129371825	-0.2721581296	 5.6375735221	 0.0916
41.6633	72.7902	106.4243	155.1687	175.3005	246.5733	284.9202	377.8445	397.9135	477.2406	511.0385	640.8311	757.9933	763.9034	783.6062	828.2479	881.2663	903.3669	932.7496	933.736	965.3238	972.7122	998.4086	1044.01	1055.0812	1097.6945	1121.2594	1149.9644	1176.3673	1188.1442	1201.4354	1221.6468	1253.7379	1259.9583	1268.8338	1275.1501	1295.0413	1305.6635	1328.748	1383.5361	1403.3819	1420.3042	1467.2088	1471.3619	1478.7625	1486.8197	1491.701	1510.5511	1512.9079	3011.1472	3021.6053	3038.5067	3042.2273	3055.058	3058.1135	3061.0104	3074.9707	3080.817	3092.9171	3097.9555	3104.2887	3119.1572	3136.7573
CC1OC1CC1CCC1	C[C@H]1O[C@H]1CC1CCC1	
InChI=1S/C8H14O/c1-6-8(9-6)5-7-3-2-4-7/h6-8H,2-5H2,1H3	InChI=1S/C8H14O/c1-6-8(9-6)5-7-3-2-4-7/h6-8H,2-5H2,1H3/t6-,8+/m1/s1
