20
gdb 12515	3.29118	1.73529	1.2305	1.1051	77.64	-0.2244	0.0242	0.2486	1030.1046	0.178399	-349.014804	-349.006866	-349.005922	-349.04693	30.516	
C	-0.2333178684	 1.5351522735	 0.0187488212	-0.475841
C	 0.0109160676	 0.047382563	 0.0094568999	 0.326384
C	-0.0346769463	-0.6512181921	-1.1293645969	-0.154105
C	 0.1444288702	-2.1419166364	-1.2932830312	-0.254023
C	 1.353790073	-2.7569087088	-0.5810628386	-0.065252
O	 1.2434450185	-2.7863978498	 0.8284342585	-0.240016
C	 1.4464886192	-1.5437869569	 1.4699862216	-0.067064
C	 0.2625460065	-0.5749861044	 1.3716156452	-0.298693
H	 0.6364148352	 2.0776605133	 0.412533999	 0.120137
H	-0.4514868807	 1.9206400873	-0.9806543632	 0.117593
H	-1.076728471	 1.7907879681	 0.6740097098	 0.122056
H	-0.2547223807	-0.1036697995	-2.04392721	 0.074487
H	-0.7538923349	-2.673365806	-0.9458037405	 0.114746
H	 0.2386812243	-2.3741606284	-2.3607813577	 0.097202
H	 1.4562939843	-3.8040381426	-0.8863401448	 0.099764
H	 2.2717889149	-2.2244956298	-0.8797397631	 0.084627
H	 1.6181513504	-1.7868441741	 2.5244109833	 0.100658
H	 2.3576558653	-1.0585324498	 1.082612612	 0.084471
H	 0.4317176444	 0.2227474186	 2.1053363528	 0.095222
H	-0.6381603917	-1.109063975	 1.7071901426	 0.117648
80.9358	169.8663	221.1665	242.2908	319.6049	349.8424	377.3494	406.1727	485.7105	551.3531	618.3031	735.8149	819.7676	847.2404	856.431	940.3254	972.0084	1014.4984	1019.8664	1051.9847	1075.4803	1102.652	1111.3001	1148.9572	1175.7505	1234.467	1243.8305	1315.4591	1330.4777	1357.5321	1369.5689	1382.688	1410.8902	1412.9835	1429.5295	1463.5789	1469.948	1480.2464	1484.0748	1492.1599	1496.9287	1735.4786	2966.7279	2973.6124	3003.2013	3007.1545	3011.6512	3053.617	3054.5825	3055.8323	3063.3232	3066.6927	3110.1556	3137.248
CC1=CCCOCC1	CC1=CCCOCC1	
InChI=1S/C7H12O/c1-7-3-2-5-8-6-4-7/h3H,2,4-6H2,1H3	InChI=1S/C7H12O/c1-7-3-2-5-8-6-4-7/h3H,2,4-6H2,1H3
