19
gdb 53126	5.64923	0.85331	0.82052	0.2266	90.03	-0.2355	0.0554	0.2909	1473.1973	0.159114	-348.655204	-348.646911	-348.645967	-348.689625	30.922	
C	 0.0541845865	 1.5628418532	-0.0589580697	-0.499851
C	 0.0678656157	 0.1073405324	-0.0233872106	 0.113126
C	 0.0810858266	-1.0976427894	 0.0043885639	 0.019017
C	 0.0928733948	-2.5476082203	 0.0413553116	-0.206031
C	-0.0201172058	-3.2665602178	 1.4134418808	-0.03206
C	-1.5688122049	-3.0413564184	 1.5028148386	-0.037606
C	-1.8387308673	-4.5323479342	 1.7861503239	-0.268142
C	-0.6756860907	-4.5380666867	 0.774682875	-0.057542
C	-1.257696554	-3.3128837468	-0.0093484651	-0.03206
H	 0.8069842949	 1.9517232884	-0.753860295	 0.146147
H	-0.9208011373	 1.9458055493	-0.3811365792	 0.145435
H	 0.2656567271	 1.9889948607	 0.9283300948	 0.14544
H	 0.8673682005	-2.9565301608	-0.6190110269	 0.085271
H	 0.6857960954	-3.246701136	 2.2451933416	 0.073212
H	-2.0644558744	-2.1584730369	 1.905196329	 0.079256
H	-1.6152458669	-4.8913023612	 2.7961108382	 0.091894
H	-2.7956946871	-4.9354921539	 1.4390081243	 0.091893
H	-0.1403330273	-5.3820120788	 0.3364944803	 0.069387
H	-1.9834031259	-3.3466346127	-0.8234313756	 0.073213
23.3585	83.2784	101.6716	243.4681	279.079	377.6284	397.5509	462.6439	522.9148	736.9236	780.0713	814.4955	850.0362	854.6376	890.4882	897.9671	907.3619	933.9183	967.6694	1002.3747	1028.2825	1052.1608	1053.6494	1063.447	1115.5021	1122.7315	1143.5976	1158.5905	1171.2491	1185.8706	1186.8953	1217.0452	1242.3584	1273.3946	1310.7144	1369.566	1414.964	1478.7636	1479.1495	1510.6461	2363.843	3023.729	3028.9271	3036.3078	3082.5857	3083.9833	3092.415	3094.2044	3100.3467	3106.7657	3123.8845
CC#CC1C2C3CC2C13	CC#C[C@H]1[C@H]2[C@@H]3C[C@H]2[C@H]13	
InChI=1S/C9H10/c1-2-3-5-8-6-4-7(8)9(5)6/h5-9H,4H2,1H3	InChI=1S/C9H10/c1-2-3-5-8-6-4-7(8)9(5)6/h5-9H,4H2,1H3/t5-,6-,7+,8-,9+
