14
gdb 43602	2.41847	1.39685	1.02752	3.5731	75.3	-0.2639	-0.0173	0.2466	1138.3113	0.099556	-395.68835	-395.679917	-395.678973	-395.721539	31.277	
N	-0.0160549681	 0.9787835262	 0.9883237185	-0.533951
C	-0.0013016201	 0.0002799906	 0.1973558749	 0.415079
C	-1.1195482815	-0.8719578064	-0.3637070734	-0.361844
C	 0.0418063584	-1.7777172595	-0.9468087568	 0.006298
N	 0.9749193317	-0.7215969116	-0.5022344185	-0.345273
C	 0.2022417984	-3.0662649828	-0.2819766739	 0.304174
C	 0.3497685808	-4.1143081191	 0.2851517959	-0.432243
C	 0.0185823026	-1.947052108	-2.4094716847	 0.263764
N	-0.0120485518	-2.0688864415	-3.5575592177	-0.329022
H	 0.9210332106	 1.3297188165	 1.1910596943	 0.22114
H	-1.7411512748	-1.3708116912	 0.3778665161	 0.158351
H	-1.7364847088	-0.3997034477	-1.1283323126	 0.159334
H	 1.9307339216	-0.8932039296	-0.2192837682	 0.255727
H	 0.476477611	-5.045771946	 0.781144746	 0.218467
75.5038	126.4992	170.3404	184.1862	268.4191	410.1461	422.616	470.3019	482.826	521.7043	547.4173	588.0157	607.5925	656.3195	675.5519	786.2967	843.6692	895.2937	962.5219	987.0555	1050.2434	1069.257	1105.5047	1201.4346	1226.8236	1299.253	1347.8429	1456.8831	1816.8845	2242.2232	2362.8009	3106.3776	3175.0419	3472.2064	3496.6459	3588.3089
N=C1CC(N1)(C#C)C#N	[NH][C]1C[C@@](N1)(C#C)C#N	
InChI=1S/C6H5N3/c1-2-6(4-7)3-5(8)9-6/h1H,3H2,(H2,8,9)	InChI=1S/C6H5N3/c1-2-6(4-7)3-5(8)9-6/h1H,3H2,(H2,8,9)/t6-/m0/s1
