14
gdb 9540	2.9692	1.92774	1.5658	2.8087	53.24	-0.2619	-0.0056	0.2563	836.2756	0.10654	-456.825551	-456.817952	-456.817007	-456.857615	27.502	
O	-0.0532696967	 1.4666277639	-0.1495417116	-0.424553
C	 0.0506110605	 0.053226169	-0.0651852969	-0.137868
C	-1.3604381688	-0.5366835245	-0.0515504796	 0.206705
O	-2.0945031376	-0.0947546274	-1.1541491847	-0.464022
C	-1.5272039866	-2.0341757618	 0.2582937094	-0.126686
O	-2.085815734	-1.7124825523	 1.5782028294	-0.24009
C	-2.0228469613	-0.3664701638	 1.3389571309	 0.410219
O	-2.3423691086	 0.5313467923	 2.0539929815	-0.340882
H	-0.4606770164	 1.7786456657	 0.6694212795	 0.30725
H	 0.5781966495	-0.273626256	-0.9670787067	 0.128389
H	 0.6248948109	-0.2713115785	 0.8137735592	 0.112594
H	-1.8138716246	 0.8195357493	-1.3067253357	 0.297027
H	-2.2656503138	-2.5332770882	-0.36994924	 0.14385
H	-0.6187721126	-2.6310637277	 0.3604905952	 0.128067
96.6271	124.7062	182.6833	255.6587	306.9917	357.9098	429.6018	456.5189	561.4001	569.0064	733.4535	774.0386	780.9958	921.0593	929.711	952.5779	1041.7993	1064.535	1130.8683	1137.2103	1154.2711	1220.3457	1267.6476	1336.7069	1367.0071	1423.5702	1434.6062	1494.7342	1505.0313	1919.8458	3010.7203	3079.7417	3085.7857	3150.1196	3736.7926	3771.4897
OCC1(O)COC1=O	OC[C@@]1(O)COC1=O	
InChI=1S/C4H6O4/c5-1-4(7)2-8-3(4)6/h5,7H,1-2H2	InChI=1S/C4H6O4/c5-1-4(7)2-8-3(4)6/h5,7H,1-2H2/t4-/m1/s1
