16
gdb 26070	3.27996	1.17235	0.93445	5.4505	74.95	-0.2223	0.0248	0.247	1216.2096	0.126677	-396.966217	-396.957843	-396.956898	-396.999941	30.837	
N	 0.323342608	 1.1835675473	 0.5050265728	-0.494623
C	-0.1005728289	-0.1378064122	-0.0038172029	-0.270221
C	-1.5687997124	-0.1352452387	-0.1338912841	 0.321393
N	-2.7162222165	-0.1291555055	-0.2676448422	-0.338265
C	 0.5455897398	-0.5873728473	-1.2934953679	 0.273808
C	-0.0187472152	-0.6009663858	-2.5506793343	-0.160433
N	 0.937574674	-1.0256457473	-3.433723047	-0.246123
C	 2.1069343438	-1.2886605921	-2.7672358242	-0.064042
C	 1.8968326858	-1.026409889	-1.4353358942	-0.264669
H	 1.3244122	 1.1441457087	 0.6774311656	 0.235642
H	 0.1984602598	 1.868313976	-0.2369599847	 0.235233
H	 0.1414237503	-0.8600567562	 0.7865490625	 0.135164
H	-1.0197719296	-0.3616155538	-2.870839498	 0.147041
H	 0.793505674	-1.1504576525	-4.4204910704	 0.267749
H	 2.9803051047	-1.6411629009	-3.2916229663	 0.127015
H	 2.6252620623	-1.1400410209	-0.646129375	 0.095331
39.6954	121.3389	162.7844	205.5323	240.1686	343.5002	395.5463	482.473	502.1021	585.0593	640.4156	668.1608	701.4957	736.7954	796.9221	827.5768	881.8049	904.8346	906.9811	993.155	1085.3641	1097.8445	1108.5173	1165.3155	1191.0891	1230.2576	1297.8111	1324.0115	1395.2099	1422.8	1464.1352	1523.2489	1601.534	1659.3182	2363.4022	3031.3101	3239.3564	3269.5876	3272.5168	3480.8561	3561.8261	3683.2446
NC(C#N)C1=CNC=C1	N[C@@H](C#N)c1c[nH]cc1	
InChI=1S/C6H7N3/c7-3-6(8)5-1-2-9-4-5/h1-2,4,6,9H,8H2	InChI=1S/C6H7N3/c7-3-6(8)5-1-2-9-4-5/h1-2,4,6,9H,8H2/t6-/m0/s1
