20
gdb 105905	2.24306	1.76177	1.21781	1.5233	78.52	-0.2205	0.0663	0.2867	1101.9685	0.169045	-403.032817	-403.024227	-403.023283	-403.065937	32.958	
C	 1.3381898276	-0.4472594166	 1.4437308329	-0.377263
C	 0.4158135745	 0.0820029537	 0.3384557077	-0.341206
C	 0.8722685671	-0.3037632067	-1.037104626	 0.346078
N	 2.2092744187	 0.0442877091	-1.6263348885	-0.152778
C	 2.4216675057	 1.4621592139	-1.9054186068	-0.330723
C	 1.561490604	-0.7263109504	-2.7248000269	-0.069911
C	 0.9025462671	-1.709370193	-1.7215153455	 0.030302
O	-0.4339312591	-1.601756715	-2.2860128231	-0.330285
C	 0.0959633142	-0.2519070058	-2.4162500301	 0.007855
H	 1.3606135747	-1.5416888007	 1.4456457462	 0.12049
H	 2.3639220109	-0.0966384204	 1.2984477858	 0.133431
H	 0.996998324	-0.1161247577	 2.4287944795	 0.11336
H	-0.602850171	-0.3031670677	 0.4692701417	 0.119956
H	 0.3443043599	 1.1757666888	 0.3995227382	 0.104472
H	 2.6599320302	 1.9858154599	-0.974060375	 0.122235
H	 3.2807081968	 1.5722018479	-2.5752281899	 0.122316
H	 1.5585629743	 1.9686532743	-2.3716337814	 0.095672
H	 2.0374319893	-0.9336037608	-3.6840077201	 0.088427
H	 1.2512149519	-2.6705121094	-1.3472783814	 0.101199
H	-0.545870011	 0.5022463365	-2.8717049373	 0.096371
79.9225	158.5276	178.1164	214.5274	224.8406	247.9853	298.578	401.92	552.2825	577.6965	660.88	735.7799	746.2528	774.1514	812.0399	834.6339	873.9858	900.3142	923.8344	929.3359	990.3201	1021.2345	1080.7918	1102.1166	1126.3687	1131.6587	1148.5151	1163.2563	1167.8071	1180.6735	1205.9891	1254.3079	1286.1461	1309.2416	1344.1119	1398.149	1411.9646	1446.9827	1475.7415	1492.669	1495.2189	1495.8394	1506.4538	2954.3834	3023.0492	3041.3543	3060.2513	3063.776	3100.0959	3109.1144	3109.695	3118.4418	3120.7067	3140.1898
CCC12N(C)C3C1OC23	CC[C@@]12N(C)[C@H]3[C@@H]1O[C@@H]23	
InChI=1S/C7H11NO/c1-3-7-5-4(8(7)2)6(7)9-5/h4-6H,3H2,1-2H3	InChI=1S/C7H11NO/c1-3-7-5-4(8(7)2)6(7)9-5/h4-6H,3H2,1-2H3/t4-,5-,6+,7+
