17
gdb 34879	2.32335	1.75442	1.22087	1.8759	78.32	-0.2381	0.0193	0.2574	1042.9059	0.135642	-380.751317	-380.743435	-380.742491	-380.783586	30.842	
C	-0.1197796133	-1.2527408682	-0.1416305616	-0.464593
C	-0.0621797801	-0.0546114295	-0.050443988	 0.36894
C	 0.0381849927	 1.3870996714	 0.0534801113	-0.267286
N	-0.287066795	 2.0106081162	 1.4058254231	-0.135165
C	 0.7431620145	 1.53102889	 2.3480442343	-0.242207
C	 1.1107364417	 2.6188654741	 1.4198525949	-0.105624
C	 1.4380133704	 2.0467224118	 0.0650343639	 0.362803
C	 2.706844311	 1.5854649718	-0.5311213923	-0.309604
N	 2.0256989962	 2.8058170103	-1.0214256728	-0.376673
H	-0.1857296167	-2.31001884	-0.2199607238	 0.203847
H	-0.6115069317	 1.8687594594	-0.6851795011	 0.117606
H	 0.5153926905	 1.7967855354	 3.3755018412	 0.126766
H	 1.1599659785	 0.5362393397	 2.2129069291	 0.127109
H	 1.2856756812	 3.6455585481	 1.7214154083	 0.111535
H	 3.6499706604	 1.762670078	-0.0215969539	 0.123288
H	 2.6737791545	 0.6851969372	-1.1395656919	 0.123999
H	 1.5426134851	 2.6185022943	-1.8974150808	 0.235258
105.6059	131.5415	185.335	279.6355	311.4047	368.8721	462.3493	491.2307	555.6798	617.1259	623.1225	662.6383	746.9816	787.3133	812.3396	865.3967	928.0212	937.319	961.3482	978.7391	1009.1251	1045.2694	1059.8102	1086.8052	1113.2351	1122.779	1143.3875	1207.8562	1228.6101	1254.5659	1275.7539	1323.6869	1332.3083	1439.0797	1497.741	1516.884	2228.8532	3049.0481	3107.1732	3115.0503	3179.731	3195.1365	3206.5662	3489.1411	3500.4039
C#CC1N2CC2C11CN1	C#C[C@H]1N2C[C@H]2[C@]21CN2	
InChI=1S/C7H8N2/c1-2-5-7(4-8-7)6-3-9(5)6/h1,5-6,8H,3-4H2	InChI=1S/C7H8N2/c1-2-5-7(4-8-7)6-3-9(5)6/h1,5-6,8H,3-4H2/t5-,6+,7-,9?/m1/s1
