21
gdb 83024	1.97724	1.65377	1.41154	1.3721	83.87	-0.2189	0.0273	0.2461	1105.4174	0.18161	-387.095941	-387.086697	-387.085753	-387.129116	35.82	
C	-0.1427457084	 1.5238090215	 0.0027284531	-0.419926
C	 0.0477463068	 0.0269974497	 0.0972937592	-0.072268
C	 1.3664286305	-0.6888994983	-0.1564939323	-0.114421
C	 2.6737709742	 0.096197545	-0.0660298541	-0.279386
C	 2.7285638603	 0.5366620455	 1.3815374615	-0.17978
C	 1.6883442428	 0.0931175359	 2.0955166966	 0.278869
C	 1.4062315344	 0.2995335401	 3.5496360253	-0.513646
C	 0.7525484681	-0.6998965432	 1.2286224301	 0.285454
O	 0.1886696067	-1.8663229392	 1.7598667614	-0.466701
H	 0.6827205515	 2.0693660169	 0.4668747845	 0.125093
H	-0.2091051358	 1.8413572081	-1.0441081362	 0.115832
H	-1.0685841327	 1.8350008774	 0.4996897086	 0.109917
H	-0.7947386562	-0.5499426506	-0.2811177791	 0.082596
H	 1.3288689202	-1.5836656469	-0.766313946	 0.089868
H	 3.5364635671	-0.5279814418	-0.3333777358	 0.107831
H	 2.6930187297	 0.9529015098	-0.7536049672	 0.106843
H	 3.5195965196	 1.1714887122	 1.7675389522	 0.08508
H	 2.2218362355	 0.8290640875	 4.0485559922	 0.122935
H	 0.483752088	 0.876120695	 3.7009644838	 0.118999
H	 1.2607248612	-0.6642111435	 4.0510174452	 0.135332
H	-0.6679909435	-1.6395894811	 2.1360561472	 0.28148
129.0167	173.9547	183.5948	212.2878	225.3551	251.5536	271.3469	297.3448	367.9228	433.4916	522.864	561.4298	624.2333	653.0124	723.6547	768.3013	814.6889	879.2944	892.1377	939.0802	983.1088	999.5145	1021.6579	1036.7053	1066.9449	1086.1394	1119.1177	1128.0848	1156.2833	1186.5291	1224.5027	1241.6757	1313.9204	1324.0854	1343.7906	1363.3523	1407.6415	1417.4469	1441.1273	1477.4083	1478.4479	1493.2998	1501.428	1502.5645	1708.6228	3012.8747	3016.2375	3029.2437	3036.7596	3069.6417	3083.0828	3109.9119	3115.6742	3125.5406	3181.2693	3183.2022	3806.3318
CC1C2CC=C(C)C12O	C[C@H]1[C@H]2CC=C(C)[C@@]12O	
InChI=1S/C8H12O/c1-5-3-4-7-6(2)8(5,7)9/h3,6-7,9H,4H2,1-2H3	InChI=1S/C8H12O/c1-5-3-4-7-6(2)8(5,7)9/h3,6-7,9H,4H2,1-2H3/t6-,7+,8+/m0/s1
