17
gdb 24362	3.58467	1.57026	1.12102	0.9466	83.53	-0.1899	-0.0173	0.1726	1051.2369	0.139306	-384.740818	-384.734053	-384.733108	-384.771835	27.4	
C	-0.0295703972	 1.469881066	 0.0981646315	-0.262331
C	 1.358362213	 2.1457881857	-0.0160621745	-0.337661
C	 2.1931122728	 1.4481752575	-1.0530834449	 0.201901
C	 1.972528838	 0.124689044	-1.3127630832	 0.31046
O	 2.8801983057	-0.3520278833	-2.2077291824	-0.194833
C	 3.6933909601	 0.6947100574	-2.5214825528	-0.021956
C	 3.3252687307	 1.8177878131	-1.8415436337	-0.321951
C	 0.9486301964	-0.6812336093	-0.6983784504	-0.169053
C	 0.0101878936	-0.0437630784	 0.0203531907	-0.081069
H	-0.5203242156	 1.791326988	 1.0223088099	 0.103726
H	-0.6698819073	 1.8304584732	-0.7232026525	 0.115638
H	 1.2314095529	 3.2093227214	-0.2419044508	 0.107102
H	 1.8743822874	 2.0982532078	 0.9550944452	 0.111671
H	 4.468492342	 0.4837096247	-3.2393793672	 0.133071
H	 3.8023377407	 2.7840682419	-1.904176628	 0.109417
H	 0.9625761986	-1.7585716541	-0.8203161222	 0.100813
H	-0.7869774518	-0.6004411858	 0.5022443153	 0.095054
139.6147	193.283	270.6703	377.9847	420.4574	492.1366	579.4896	613.2903	663.0387	681.8688	720.8484	749.1426	794.9332	825.0899	867.6481	898.9209	923.181	971.2502	1015.4645	1039.7477	1067.9865	1130.4427	1166.2351	1171.7854	1198.5846	1242.0221	1264.6144	1287.2523	1347.2949	1360.8521	1416.4976	1468.5496	1473.8186	1487.0341	1514.9588	1627.6788	1670.185	2975.68	2990.9986	3069.2997	3070.2316	3176.2365	3200.2043	3247.4864	3284.2679
C1CC2=C(OC=C2)C=C1	C1Cc2c(occ2)C=C1	
InChI=1S/C8H8O/c1-2-4-8-7(3-1)5-6-9-8/h2,4-6H,1,3H2	InChI=1S/C8H8O/c1-2-4-8-7(3-1)5-6-9-8/h2,4-6H,1,3H2
