20
gdb 7581	3.09273	1.56269	1.47119	0.7253	70.25	-0.2511	0.0565	0.3076	992.2453	0.175043	-386.12265	-386.113532	-386.112587	-386.156027	33.726	
C	 0.0185552008	 1.486870042	-0.1507898996	-0.401376
C	-0.0237141703	-0.0328262626	 0.0648109613	 0.016259
C	 0.7283638106	-0.4297648326	 1.3433124012	-0.401376
C	-1.4662111229	-0.5515022792	 0.0847175399	 0.361858
O	-2.1224214474	 0.0547996111	 1.1743222283	-0.482385
C	-2.1985724601	-0.5218006525	-1.2856590681	-0.136833
O	-2.1066830199	-1.9534142916	-1.4095923043	-0.271483
C	-1.6173982074	-2.091187558	-0.0624152637	-0.136861
H	 1.0530980964	 1.8397200063	-0.2042876327	 0.10975
H	-0.4795983615	 1.779816059	-1.0808977533	 0.109249
H	-0.4782597534	 2.0053452888	 0.6735881055	 0.133885
H	 0.4625326024	-0.519969577	-0.791118398	 0.080422
H	 0.2569057782	 0.0200949085	 2.2211478587	 0.133881
H	 0.7407189681	-1.5151613053	 1.4876601283	 0.109241
H	 1.7677400741	-0.0899584492	 1.3000471491	 0.10975
H	-3.0311945455	-0.2615884687	 1.2013946653	 0.281039
H	-3.2402818692	-0.1740656875	-1.2156569981	 0.086858
H	-1.7053155016	-0.0030598312	-2.1154605842	 0.10564
H	-0.7069061458	-2.6991563209	-0.0139977939	 0.105647
H	-2.3708820754	-2.5217781094	 0.6142341082	 0.086834
80.7729	103.8246	199.9698	213.6745	224.6582	275.7913	286.3466	318.6586	354.5974	429.1584	480.8185	494.7185	684.1182	802.0009	871.3699	929.2112	931.9576	948.1468	964.7172	1001.6593	1030.6861	1055.2688	1060.8879	1112.8934	1150.4439	1158.3884	1161.1072	1196.2428	1235.1171	1297.7599	1346.2391	1350.1408	1365.6998	1398.7464	1412.2957	1423.6235	1486.4895	1491.9793	1502.9292	1505.9372	1514.8102	1532.4026	2982.905	2994.9151	3017.569	3036.2115	3040.2156	3060.1041	3062.2333	3099.244	3101.9298	3118.3706	3123.1798	3811.8767
CC(C)C1(O)COC1	CC(C)C1(O)COC1	
InChI=1S/C6H12O2/c1-5(2)6(7)3-8-4-6/h5,7H,3-4H2,1-2H3	InChI=1S/C6H12O2/c1-5(2)6(7)3-8-4-6/h5,7H,3-4H2,1-2H3
