18
gdb 77987	2.83215	1.31791	1.06626	4.8701	78.58	-0.2573	-0.0014	0.256	1174.0433	0.146672	-401.9253	-401.91656	-401.915616	-401.95842	32.77	
C	-0.7702399962	 1.2351348616	-0.3400208889	-0.426734
C	-0.4035250393	-0.2177273388	-0.5493319343	-0.070585
C	 0.5368384804	-0.8057659239	-1.5842474068	-0.22064
C	 1.8223292913	 0.0036289982	-1.7684679215	 0.1448
C	 1.8659176125	 1.3126878419	-2.5268516736	-0.424069
O	 1.9844206003	 0.1278490305	-0.3162455906	-0.331706
C	 0.9140316716	-0.7941828878	-0.1022037109	 0.322589
C	 1.08850229	-1.8489428115	 0.8444083942	 0.219301
N	 1.2088075634	-2.7060722505	 1.6126521186	-0.348778
H	-1.3626820204	 1.6195096931	-1.17633317	 0.124652
H	-1.3686227609	 1.3383672362	 0.5703486617	 0.129661
H	 0.1215573645	 1.8528362004	-0.2260757239	 0.146187
H	-1.2184939056	-0.9162799019	-0.367666505	 0.116003
H	 0.2515041899	-1.6527133778	-2.1937201995	 0.120685
H	 2.616187236	-0.661308217	-2.1328448261	 0.102329
H	 2.8212212019	 1.815032536	-2.344432716	 0.137885
H	 1.7921042552	 1.1128861855	-3.6011927561	 0.127398
H	 1.0578496553	 1.9884013156	-2.2453119814	 0.13102
118.0002	150.7424	173.1871	193.5324	224.7618	257.0111	305.9934	365.9979	471.4439	501.2751	548.2066	600.3604	672.2337	703.6429	789.8239	863.5616	871.3574	929.5776	976.392	1008.5866	1040.8871	1058.2238	1090.4248	1121.6157	1138.1905	1151.8676	1190.722	1255.7426	1308.7031	1331.8017	1392.6621	1409.7604	1411.6146	1457.2372	1484.4516	1493.4417	1499.4762	1509.7432	2346.6469	3021.0244	3044.4926	3046.8842	3104.3206	3108.4356	3130.6676	3145.4663	3153.9889	3207.2506
CC1C2C(C)OC12C#N	C[C@H]1[C@H]2[C@@H](C)O[C@@]12C#N	
InChI=1S/C7H9NO/c1-4-6-5(2)9-7(4,6)3-8/h4-6H,1-2H3	InChI=1S/C7H9NO/c1-4-6-5(2)9-7(4,6)3-8/h4-6H,1-2H3/t4-,5+,6-,7-/m0/s1
