20
gdb 99327	3.02329	0.73548	0.64379	1.36	80.38	-0.2437	-0.0224	0.2212	1802.4861	0.166771	-440.298338	-440.287416	-440.286472	-440.336795	36.939	
C	-0.0232412632	 1.2489593326	-1.3116825791	-0.38057
C	 0.2260193668	-0.2421764308	-1.5195227876	-0.278357
C	 1.2950180026	-0.8003125963	-0.6027891582	 0.343695
O	 1.9226406002	-0.1295151141	 0.1825727465	-0.293418
C	 1.5708609117	-2.3110806236	-0.6568497157	-0.188439
O	 0.8827450644	-2.9929760568	-1.6930330914	-0.195036
C	 1.5733404775	-3.2471339918	-2.8291998398	 0.129309
N	 0.9865607956	-3.6830564655	-3.8495430587	-0.203918
C	 1.7972234545	-3.9771558438	-5.0129996891	-0.317198
H	-0.3478279948	 1.4525218615	-0.2878933616	 0.13121
H	 0.8892288334	 1.8258120814	-1.4824536447	 0.131572
H	-0.7948902007	 1.6082782316	-1.9976139576	 0.114277
H	-0.6847829865	-0.8379614151	-1.3735690827	 0.139678
H	 0.5214592426	-0.4614916461	-2.5547965454	 0.136447
H	 2.6558215578	-2.4610281389	-0.7198106126	 0.137138
H	 1.2346526454	-2.7427174214	 0.2918070933	 0.151211
H	 2.6557266001	-3.054920797	-2.7506727173	 0.080508
H	 2.8698273376	-3.7607818717	-4.8798011402	 0.098661
H	 1.6906834929	-5.0356861447	-5.2755501592	 0.132621
H	 1.4322550422	-3.3991817396	-5.8692766089	 0.130612
25.5972	32.2463	81.6319	84.2375	184.5895	192.4681	212.4544	228.8714	276.2052	314.1412	408.5907	453.802	470.6994	581.033	627.1977	738.6474	758.4244	919.3301	978.3939	999.0052	1039.397	1065.0846	1078.0128	1116.9534	1141.3634	1149.5227	1162.8599	1216.0344	1273.5235	1314.5114	1361.2425	1375.2023	1402.3249	1415.1076	1436.2572	1450.4127	1463.1325	1480.3146	1493.2666	1498.0052	1504.9688	1780.2511	1812.7828	2969.0441	2985.5593	3028.3288	3034.3147	3052.0147	3052.5301	3062.0078	3081.9109	3088.8158	3124.7563	3126.7084
CCC(=O)COC=NC	CCC(=O)COC=NC	
InChI=1S/C6H11NO2/c1-3-6(8)4-9-5-7-2/h5H,3-4H2,1-2H3	InChI=1S/C6H11NO2/c1-3-6(8)4-9-5-7-2/h5H,3-4H2,1-2H3
