18
gdb 83172	2.94142	1.40153	1.2288	3.5502	72.41	-0.2309	0.0234	0.2543	1075.1296	0.148957	-439.102501	-439.094398	-439.093454	-439.135291	30.811	
C	-0.1296151588	 1.5563825475	 0.12094994	-0.406151
C	 0.0027410631	 0.0572359004	-0.0036035199	-0.064344
C	 0.6716939662	-0.5976189031	-1.2089502806	-0.05953
N	 1.3493289003	 0.1910105431	-2.190575145	-0.300703
C	 2.6871867822	 0.4706746106	-2.1481609891	 0.380718
O	 3.292550057	 0.9959537118	-3.0603824922	-0.367001
C	 3.3544259333	 0.0830097301	-0.8267875719	-0.197314
O	 2.4709501659	 0.1812015439	 0.2836798507	-0.246979
C	 1.3416320184	-0.6264514311	 0.1394423043	 0.076096
H	 0.7402552648	 2.0678572021	-0.2928653459	 0.136436
H	-1.0216989951	 1.913427513	-0.403993558	 0.116161
H	-0.218418264	 1.8478091114	 1.1721830592	 0.126452
H	-0.8328307488	-0.5129206507	 0.3944121795	 0.09189
H	 0.2434994356	-1.5233113733	-1.5855613167	 0.104444
H	 0.8616670709	 0.4925983355	-3.022119279	 0.251234
H	 3.7731119361	-0.9314733103	-0.9160476763	 0.118043
H	 4.1756284088	 0.7790271626	-0.6514973017	 0.144905
H	 1.4018451538	-1.5744487833	 0.6723809826	 0.095639
83.8378	135.6539	156.6402	209.7325	281.469	420.1214	427.7808	480.4166	522.637	547.4841	605.4776	643.2267	752.2932	776.6374	810.5116	872.9199	909.98	969.0865	1006.651	1037.5465	1058.315	1095.8324	1123.281	1145.2175	1165.3702	1185.9228	1249.1644	1264.4383	1328.6041	1358.9939	1378.8436	1392.0492	1421.0231	1431.111	1461.0306	1479.9315	1492.0966	1502.3771	1807.784	2992.4637	3043.4443	3100.8031	3105.9467	3125.6604	3132.9229	3138.1232	3151.3544	3602.4576
CC1C2NC(=O)COC12	C[C@H]1[C@H]2NC(=O)CO[C@@H]12	
InChI=1S/C6H9NO2/c1-3-5-6(3)9-2-4(8)7-5/h3,5-6H,2H2,1H3,(H,7,8)	InChI=1S/C6H9NO2/c1-3-5-6(3)9-2-4(8)7-5/h3,5-6H,2H2,1H3,(H,7,8)/t3-,5+,6-/m0/s1
