21
gdb 63968	3.04272	1.38129	1.37295	0.9701	77.44	-0.2466	0.0818	0.3285	1079.1083	0.182477	-424.226037	-424.217628	-424.216684	-424.258509	33.358	
C	 0.1315385309	 1.4477804102	 0.2043506372	-0.425791
C	-0.0265191936	-0.0629597175	-0.0210950494	 0.377865
C	-1.5020875884	-0.4571126712	-0.0390548374	-0.420209
C	 0.7442043771	-0.5432606463	-1.2769570017	-0.283891
C	 2.1011996651	-0.9741714418	-0.7451256987	 0.097575
O	 3.0133001309	 0.1185386059	-0.4654046716	-0.298175
C	 3.0083469235	-0.1812078281	 0.9514865812	-0.107478
C	 1.8807319526	-1.2182369254	 0.764930754	 0.06557
O	 0.5753720706	-0.7965974902	 1.0777319711	-0.304845
H	 1.1777213102	 1.7494136958	 0.1246288168	 0.138015
H	-0.436315921	 2.0053664624	-0.5483434675	 0.109139
H	-0.2484878707	 1.7222787789	 1.1926798717	 0.116203
H	-2.0223712381	 0.0252479852	-0.8724694724	 0.113273
H	-1.6066438197	-1.5409305434	-0.1414594389	 0.114833
H	-1.9907398399	-0.1524114245	 0.8912412738	 0.122022
H	 0.2437143755	-1.408599843	-1.7253036897	 0.10011
H	 0.8332525108	 0.2337080651	-2.0401978706	 0.116647
H	 2.5872112791	-1.7559297356	-1.3375591487	 0.076106
H	 3.9675195799	-0.6061631451	 1.2743050131	 0.099865
H	 2.7594947381	 0.6884211916	 1.5680244185	 0.109541
H	 2.0440262471	-2.208913143	 1.1946536493	 0.083625
119.7475	143.6166	217.7888	254.8404	281.5325	330.8993	357.436	394.9236	398.1956	469.0541	615.8343	655.6373	776.8861	784.2845	848.3028	869.6339	895.8048	922.0674	927.9365	952.9092	994.4802	1010.1438	1025.6021	1037.3068	1056.1296	1133.7732	1137.701	1177.9749	1186.0549	1219.3142	1252.9437	1264.6172	1285.889	1316.2433	1341.1442	1353.5421	1372.9613	1397.7241	1415.5155	1468.1023	1480.2193	1484.047	1499.4159	1503.9945	1516.1799	3016.4822	3036.4838	3040.2937	3044.6772	3059.749	3080.3341	3089.7114	3104.4924	3109.1174	3114.0298	3116.9824	3137.5929
CC1(C)CC2OCC2O1	CC1(C)C[C@H]2OC[C@H]2O1	
InChI=1S/C7H12O2/c1-7(2)3-5-6(9-7)4-8-5/h5-6H,3-4H2,1-2H3	InChI=1S/C7H12O2/c1-7(2)3-5-6(9-7)4-8-5/h5-6H,3-4H2,1-2H3/t5-,6-/m1/s1
