23
gdb 120756	3.76351	0.70541	0.65169	1.7233	87.86	-0.2524	0.0884	0.3407	1847.0035	0.204631	-388.264759	-388.254739	-388.253795	-388.300839	36.689	
C	 0.1905294446	 1.5097944578	 0.2679334712	-0.382765
C	-0.0262342344	-0.0050077024	 0.2627451712	-0.156662
C	-1.3038389101	-0.425820668	-0.478426691	-0.211202
C	-1.4899186572	-1.9236813323	-0.4818927201	 0.04986
O	-1.8995226954	-2.5396207475	 0.7487159978	-0.272426
C	-2.7822874739	-2.6228587668	-0.3783809622	 0.057313
C	-4.1130785056	-1.9598403826	-0.2735772868	-0.006685
C	-5.1453700456	-2.2214960292	-1.3465083357	-0.268829
C	-5.3310019168	-2.801645461	 0.0294549194	-0.266462
H	 1.1058784172	 1.7791099286	 0.8039071993	 0.113117
H	 0.273381021	 1.9031080415	-0.7516049457	 0.111949
H	-0.6438466599	 2.0278093271	 0.7539470094	 0.114637
H	 0.8386700057	-0.4996047814	-0.1987216682	 0.094025
H	-0.080372586	-0.3797228969	 1.2915150235	 0.115655
H	-2.1693420613	 0.0605332693	-0.0168877705	 0.100885
H	-1.260536865	-0.0764289916	-1.5194215199	 0.096761
H	-0.6835806608	-2.466409469	-0.98395711	 0.080911
H	-2.8316254003	-3.623296083	-0.8188886781	 0.078785
H	-4.1003090181	-0.9658564736	 0.1586103737	 0.089532
H	-5.7787417479	-1.397406414	-1.6544154361	 0.115378
H	-4.8776134953	-2.8984190374	-2.1514645622	 0.113583
H	-5.1859737892	-3.8694883243	 0.1555237812	 0.11703
H	-6.0938917857	-2.3776937732	 0.6724477499	 0.115611
49.0292	67.2929	90.9744	119.9101	183.5021	241.8992	263.1156	287.6839	335.7699	438.38	494.7265	563.2661	743.2109	760.6223	797.7096	823.9481	827.6346	884.4442	903.6741	910.792	926.914	979.5665	1006.5539	1050.7813	1060.8426	1076.6997	1083.3162	1118.4156	1128.5336	1145.3905	1182.7453	1197.861	1214.7163	1224.3618	1265.8857	1296.943	1308.8089	1330.5592	1335.1885	1388.6407	1413.4219	1431.572	1469.3439	1472.1651	1493.3407	1494.9178	1499.5673	1509.6624	1517.9719	3016.2941	3022.3027	3028.9078	3053.7958	3058.9787	3066.7769	3083.5122	3097.7695	3102.3603	3131.916	3136.0886	3175.2758	3210.569	3225.9868
CCCC1OC1C1CC1	CCC[C@H]1O[C@H]1C1CC1	
InChI=1S/C8H14O/c1-2-3-7-8(9-7)6-4-5-6/h6-8H,2-5H2,1H3	InChI=1S/C8H14O/c1-2-3-7-8(9-7)6-4-5-6/h6-8H,2-5H2,1H3/t7-,8+/m1/s1
