18
gdb 8573	4.18916	1.83508	1.5961	1.7987	72.61	-0.2277	0.0112	0.2389	871.261	0.155406	-347.797615	-347.790823	-347.789879	-347.828196	27.324	
C	-0.0644679602	 1.4865281309	 0.0439621978	-0.478974
C	 0.0061723873	-0.0089024908	-0.0320444279	 0.321699
C	-0.0107398344	-0.7160767476	-1.1658120904	-0.160609
C	 0.0410422807	-2.2229313918	-1.0313167155	 0.051704
C	 1.2157015924	-2.6201740555	-0.1045398401	-0.239409
C	 0.1615728444	-2.2938714953	 0.9763404781	 0.087176
C	 0.0841051221	-0.7887249179	 1.2732269487	-0.298601
O	-0.8891634889	-2.6278413094	 0.0252674266	-0.294998
H	 0.8112281107	 1.9005783024	 0.5608268812	 0.121542
H	-0.1192426431	 1.9386306167	-0.9501178044	 0.121757
H	-0.943440122	 1.8119218586	 0.6157896804	 0.125976
H	-0.0576851018	-0.2498021807	-2.1450214051	 0.081426
H	-0.1291490512	-2.7667883884	-1.9623451868	 0.072188
H	 1.4295344035	-3.6898507391	-0.140363331	 0.105777
H	 2.1343075978	-2.0323723469	-0.152032324	 0.09677
H	 0.1155359913	-2.9089884253	 1.8792081521	 0.072645
H	 0.9551475113	-0.4681724014	 1.8624612545	 0.101709
H	-0.7996068798	-0.5771244386	 1.8907023359	 0.112222
151.8172	190.8035	315.8128	319.6047	400.3331	424.1331	498.4996	565.2759	633.4249	790.8334	814.2908	841.0952	864.7586	879.868	915.7577	944.7628	964.8521	989.6579	1029.4061	1061.3179	1076.6447	1084.1732	1104.476	1179.0454	1197.8315	1223.9945	1248.0065	1307.3238	1320.1809	1326.0533	1351.5485	1383.9166	1412.3586	1462.634	1477.4245	1484.1319	1489.6287	1718.0852	3005.6549	3013.7057	3037.1018	3058.1401	3066.6376	3075.8063	3095.2596	3108.9434	3135.8611	3174.6466
CC1=CC2CC(C1)O2	CC1=C[C@H]2C[C@@H](C1)O2	
InChI=1S/C7H10O/c1-5-2-6-4-7(3-5)8-6/h2,6-7H,3-4H2,1H3	InChI=1S/C7H10O/c1-5-2-6-4-7(3-5)8-6/h2,6-7H,3-4H2,1H3/t6-,7+/m0/s1
