20
gdb 100710	3.01402	0.97277	0.87515	18.1183	75.49	-0.159	-0.0477	0.1113	1380.2088	0.170291	-477.380233	-477.370144	-477.3692	-477.415924	36.159	
C	 0.1233761478	 1.4602203934	 0.2305284396	-0.43244
C	 0.0283593355	-0.0598920386	 0.0414407224	 0.01615
C	-1.4039280919	-0.5491464313	-0.035061843	-0.220207
N	-2.1982473354	-0.1238334921	 1.216207445	-0.424671
H	-1.7959588351	-0.5589771707	 2.0493979436	 0.332118
H	-2.1019009832	 0.8896538423	 1.3269539301	 0.329502
H	-3.1900720167	-0.3640250947	 1.1641285421	 0.326667
C	 0.6909186509	-0.4970725648	-1.285276301	-0.016695
O	-0.0032574887	 0.0361310933	-2.3844653236	-0.468606
C	 2.1809131497	 0.0250490826	-1.3073679545	 0.354198
O	 2.8630547918	-0.2353974641	-0.3070765483	-0.481938
O	 2.4212537618	 0.6778484462	-2.350623179	-0.487301
H	 1.1768845839	 1.7269190415	 0.333963512	 0.194905
H	-0.2840897275	 1.9765958132	-0.643216987	 0.144823
H	-0.3781647345	 1.8370053323	 1.1378400818	 0.053565
H	 0.5793224585	-0.5720968542	 0.8394640335	 0.099864
H	-1.9178838161	-0.102374428	-0.8890582193	 0.183527
H	-1.4842148115	-1.6371931433	-0.0804302361	 0.155384
H	 0.6976269142	-1.600422408	-1.317256872	 0.052059
H	 0.7622535566	 0.503324835	-2.8225473661	 0.289097
53.6907	74.0175	110.822	147.1056	200.7096	221.5857	253.6412	292.4136	322.4193	371.1727	430.2897	517.365	597.2684	658.9734	769.1444	805.1512	819.1641	832.6912	859.8492	886.8908	924.3034	957.8218	985.3876	1031.9065	1134.152	1161.1356	1181.5074	1229.1602	1259.2063	1303.0313	1327.0762	1351.5359	1361.6883	1378.0618	1407.7605	1443.1741	1459.1977	1476.6471	1490.836	1520.1543	1639.2489	1660.8157	1784.4928	2945.1322	2963.688	3047.7995	3084.2471	3090.6506	3145.9563	3152.2264	3220.6334	3401.0903	3490.8123	3514.2472
CC(C[NH3+])C(O)C([O-])=O	C[C@@H](C[NH3])[C@@H](O)C(=O)[O]	
InChI=1S/C5H11NO3/c1-3(2-6)4(7)5(8)9/h3-4,7H,2,6H2,1H3,(H,8,9)	InChI=1S/C5H11NO3/c1-3(2-6)4(7)5(8)9/h3-4,7H,2H2,1,6H3/t3-,4+/m0/s1
