18
gdb 10350	2.37085	1.73206	1.11398	1.8108	65.07	-0.2425	-0.0227	0.2198	1091.356	0.150443	-422.077556	-422.067821	-422.066876	-422.112524	33.511	
C	 0.0761149214	 1.2908362102	 0.0073471796	-0.246226
O	-0.0345537576	-0.1054348574	-0.2099056532	-0.243663
C	-1.3233311565	-0.6393466371	-0.032573267	-0.009497
C	-1.2886993387	-2.018920157	-0.7155793454	-0.069763
O	-0.8916158832	-1.8970059485	-2.0602561528	-0.418671
C	-1.7363401618	-0.7388437599	 1.4441628716	 0.359676
C	-3.1310780314	-1.2738502758	 1.7208255546	-0.48284
O	-0.9851557691	-0.4117144213	 2.3317476868	-0.291774
H	 1.0978782376	 1.5705157411	-0.2589275595	 0.130639
H	-0.6232827567	 1.8479924732	-0.6344090641	 0.104855
H	-0.1062915538	 1.5489010081	 1.0550384179	 0.13881
H	-2.0730787964	-0.0183238273	-0.5555267492	 0.083605
H	-0.607894473	-2.671626521	-0.1456438939	 0.104263
H	-2.2835573148	-2.4728444551	-0.7096205693	 0.111276
H	-0.1032122236	-1.3396264593	-2.0428077289	 0.291027
H	-3.8670825699	-0.8789384581	 1.0136342306	 0.136417
H	-3.1332508369	-2.3653676118	 1.6152085733	 0.153391
H	-3.4182879455	-1.0255585327	 2.7434896489	 0.148477
56.1872	105.5387	119.5728	134.2209	177.1424	186.6594	251.6278	289.3339	347.7467	441.5321	466.3522	495.1345	574.0101	623.7756	813.9978	887.1304	942.2204	995.1526	1058.5667	1084.4461	1104.9149	1155.3371	1177.4764	1198.4967	1204.8614	1265.0563	1271.0009	1375.2052	1381.6132	1387.41	1437.3282	1465.0034	1475.8944	1480.5757	1484.3067	1501.2465	1514.1072	1815.5664	2946.6205	2981.3052	2991.775	3037.1935	3083.0574	3092.6755	3101.5172	3127.1745	3150.2505	3779.6453
COC(CO)C(C)=O	CO[C@@H](CO)C(=O)C	
InChI=1S/C5H10O3/c1-4(7)5(3-6)8-2/h5-6H,3H2,1-2H3	InChI=1S/C5H10O3/c1-4(7)5(3-6)8-2/h5-6H,3H2,1-2H3/t5-/m0/s1
