19
gdb 95485	2.1243	1.7446	1.00884	5.6557	82.99	-0.2004	-0.0054	0.195	1182.5983	0.161145	-419.223927	-419.215291	-419.214346	-419.257222	32.823	
C	-0.4294840899	 1.3029243993	-0.0103856051	-0.397554
C	 0.0313925068	-0.1465300996	-0.1175788652	 0.115142
C	 1.0843115095	-0.3173863753	-1.2202919315	-0.164859
N	 1.1994876115	-1.6971804874	-1.6434619506	-0.311423
C	 1.2028734526	-2.7588573082	-0.7918907735	 0.003778
C	 0.9756902192	-2.8183252431	 0.5416390532	-0.199115
C	 0.7466098021	-1.77592322	 1.5415859958	 0.339758
N	 0.7368528865	-1.9612293108	 2.8052742442	-0.511487
O	 0.5671823106	-0.4745655766	 1.1601473252	-0.243586
H	 0.4254252627	 1.9646424803	 0.1615985392	 0.129576
H	-0.9387277455	 1.6173744566	-0.9259970535	 0.113035
H	-1.1161252511	 1.4115442759	 0.8315575425	 0.140116
H	-0.8254923363	-0.7957720422	-0.3409423433	 0.098677
H	 0.800486484	 0.2756405132	-2.0952990361	 0.108958
H	 2.0359636717	 0.0812751865	-0.836092967	 0.120198
H	 1.5496488457	-1.8625624878	-2.5710477732	 0.250155
H	 1.3894651542	-3.6998348426	-1.3029358175	 0.112865
H	 1.0102836222	-3.8161642475	 0.9642339385	 0.085538
H	 0.9444193235	-2.9371585506	 3.010048468	 0.210228
83.4798	107.7973	183.795	220.5108	297.5348	300.905	376.1448	396.2382	428.4796	472.8674	537.8297	596.7619	707.3788	769.8483	789.2216	841.4417	850.2363	899.0588	934.8795	967.0983	979.3041	1022.8445	1094.5451	1131.5637	1150.415	1154.627	1197.713	1277.2361	1315.0239	1337.4776	1366.2219	1396.5443	1404.4823	1411.5348	1448.6251	1482.9179	1487.7608	1500.7077	1548.4469	1663.4767	1707.1487	2986.3606	3025.0072	3045.0704	3076.1042	3116.7316	3135.9967	3161.2215	3189.0337	3500.168	3658.4838
CC1CNC=CC(=N)O1	C[C@H]1CN[CH]C=C([NH])O1	
InChI=1S/C6H10N2O/c1-5-4-8-3-2-6(7)9-5/h2-3,5,7-8H,4H2,1H3	InChI=1S/C6H10N2O/c1-5-4-8-3-2-6(7)9-5/h2-3,5,7-8H,4H2,1H3/t5-/m0/s1
