15
gdb 68951	2.70163	1.6316	1.3192	2.5515	65.8	-0.2609	-0.0485	0.2124	976.5753	0.109485	-457.695931	-457.688002	-457.687058	-457.728456	29.319	
C	 0.2212291234	 1.4331043299	 0.1238338353	-0.506204
C	-0.0131749705	-0.0391332362	 0.0941010816	 0.322301
O	 1.0263677225	-0.9030806455	-0.3400582308	-0.283018
C	 0.5347172869	-1.1248334233	 0.9894245318	 0.220129
C	 1.4167012523	-0.9200684892	 2.1582735411	 0.066687
O	 2.471053514	-0.335644327	 2.1243587342	-0.262942
C	-0.7914556289	-1.8710425745	 0.8846835364	-0.076192
O	-1.8286057487	-0.9883442637	 1.3401997993	-0.230333
C	-1.3290638927	-0.8196559165	 0.0065513777	-0.044859
H	 1.2136574348	 1.6414627934	 0.5303515115	 0.165279
H	 0.1657045198	 1.8495414102	-0.8877060505	 0.140779
H	-0.5362554759	 1.9242124668	 0.7410070029	 0.143787
H	 1.000917439	-1.3333964824	 3.1026686137	 0.093642
H	-0.9887280774	-2.9350642101	 0.8883345977	 0.125846
H	-2.0328660284	-0.8949355518	-0.812816522	 0.125096
94.2713	157.9656	197.1505	205.6329	222.9662	318.4218	410.89	505.2262	529.3499	618.0161	680.1764	747.2566	788.5211	816.4459	855.7243	878.781	901.0103	973.2737	1029.571	1043.0962	1058.6509	1112.4852	1170.2218	1198.9906	1253.6966	1292.5109	1349.9736	1393.2278	1426.8884	1442.2542	1483.7898	1487.8538	1808.3766	2899.9308	3042.5265	3110.3363	3137.1935	3200.3016	3215.4726
CC12OC1(C=O)C1OC21	C[C@@]12O[C@]1(C=O)[C@H]1O[C@@H]21	
InChI=1S/C6H6O3/c1-5-3-4(8-3)6(5,2-7)9-5/h2-4H,1H3	InChI=1S/C6H6O3/c1-5-3-4(8-3)6(5,2-7)9-5/h2-4H,1H3/t3-,4+,5+,6-/m1/s1
