20
gdb 104899	2.12788	1.43092	1.01037	3.6311	80.4	-0.2757	0.0265	0.3022	1244.2874	0.168862	-403.155334	-403.145142	-403.144198	-403.190173	37.38	
C	-0.0598020197	 1.516072947	-0.0021732434	-0.456692
C	 0.0359135047	-6.8735*^-6	 0.0185750417	 0.278005
C	-1.1668731259	-0.6826329968	-0.6083926822	-0.459274
C	 1.379974432	-0.6515878078	-0.1426300719	-0.345171
C	 0.7036385206	-0.6878753731	 1.2237456089	 0.107297
C	 1.3152167335	 0.0887622929	 2.3915973573	-0.136149
O	 2.3862053825	-0.6052563933	 2.9972274017	-0.413422
C	 0.1689798736	-1.9520511797	 1.6652506974	 0.238557
N	-0.2341874722	-2.9539256773	 2.0836920193	-0.363815
H	 0.8454195899	 2.0067293692	 0.3606581552	 0.124139
H	-0.222403569	 1.8553393785	-1.0312098699	 0.127506
H	-0.9051745632	 1.869429173	 0.5982321056	 0.127515
H	-1.2613016779	-0.3815563684	-1.6575020089	 0.121676
H	-1.0873147616	-1.7715544651	-0.5742643896	 0.14109
H	-2.0916422622	-0.3989303595	-0.0942852297	 0.127422
H	 1.4452742053	-1.5802289492	-0.6984390343	 0.133373
H	 2.2619954838	-0.0230878204	-0.2103291195	 0.128846
H	 1.7359243844	 1.0288178546	 2.0304342683	 0.114231
H	 0.5277193811	 0.3321933142	 3.1203026423	 0.106733
H	 2.0371308605	-1.4172719653	 3.3823928417	 0.298131
69.3293	118.5102	140.4109	170.4381	199.738	227.9555	251.1586	324.858	351.4226	368.5945	378.5027	411.2842	474.2477	571.3372	583.9759	682.0031	756.6316	888.4959	915.6766	936.4173	952.942	974.3246	1012.7825	1036.2236	1075.9687	1081.2946	1146.553	1147.9124	1192.242	1260.9325	1311.2848	1376.3131	1383.3036	1410.3611	1423.451	1432.6661	1478.8969	1485.9282	1489.9872	1499.9314	1506.2002	1513.1198	2335.94	2995.3826	3032.5189	3036.9974	3092.1033	3095.9529	3110.7033	3124.1831	3129.0407	3134.4173	3222.798	3798.1735
CC1(C)CC1(CO)C#N	CC1(C)C[C@]1(CO)C#N	
InChI=1S/C7H11NO/c1-6(2)3-7(6,4-8)5-9/h9H,3,5H2,1-2H3	InChI=1S/C7H11NO/c1-6(2)3-7(6,4-8)5-9/h9H,3,5H2,1-2H3/t7-/m1/s1
