19
gdb 41596	2.81349	1.7838	1.66921	1.3815	72.81	-0.2418	0.0673	0.3091	916.375	0.162364	-422.991544	-422.984695	-422.983751	-423.022772	27.631	
C	 0.2785523904	 1.598357194	-0.1852297099	-0.0916
O	 1.5869864497	 1.41059157	 0.422447785	-0.29814
C	 1.3044122674	 0.0200548129	 0.7053571327	 0.094889
C	-0.0285574714	 0.1025441584	-0.0861229571	-0.100813
C	 0.6256250179	-0.7798926508	-1.2088336144	 0.090816
O	 1.0081305717	-0.142696102	-2.4081936629	-0.26427
C	 2.3669214424	 0.3117421739	-2.3265071573	-0.079845
C	 3.0610631326	-0.5055788022	-1.2180576132	-0.242716
C	 1.9007589265	-0.9664817803	-0.333459888	-0.058476
H	-0.3562498653	 2.2329102762	 0.4451714471	 0.100814
H	 0.3377774173	 2.0212015064	-1.1928447481	 0.118637
H	 1.4053667226	-0.2147660915	 1.7686067242	 0.072694
H	-0.9993984237	-0.215611898	 0.2904566329	 0.072016
H	 0.0445063635	-1.6709649767	-1.4627610929	 0.078752
H	 2.8179624094	 0.164692969	-3.3128996862	 0.101194
H	 2.3935327595	 1.3802781729	-2.0872127761	 0.11084
H	 3.5759654602	-1.3736860638	-1.6397775699	 0.10373
H	 3.792710269	 0.0985270365	-0.6767872018	 0.118172
H	 2.0375173	-1.9684024149	 0.079367836	 0.073305
116.8769	194.6187	220.66	255.868	464.5062	517.8581	603.7815	683.7637	710.5272	780.5938	803.7824	845.8331	873.376	899.9998	936.3648	939.8439	949.5185	988.4141	1001.2749	1010.1649	1065.6672	1077.0035	1101.3768	1129.7948	1147.1604	1179.9468	1193.3275	1213.0211	1228.1035	1251.8568	1266.773	1287.4369	1300.237	1318.0831	1337.7136	1343.3413	1367.783	1402.7823	1481.4149	1518.8373	1527.9208	3022.9022	3035.8354	3056.0523	3060.6761	3064.8235	3078.6713	3083.9189	3090.0131	3115.548	3124.0471
C1OC2C1C1OCCC21	C1O[C@H]2[C@@H]1[C@H]1OCC[C@@H]21	
InChI=1S/C7H10O2/c1-2-8-6-4(1)7-5(6)3-9-7/h4-7H,1-3H2	InChI=1S/C7H10O2/c1-2-8-6-4(1)7-5(6)3-9-7/h4-7H,1-3H2/t4-,5+,6+,7-/m1/s1
