18
gdb 20069	4.65936	1.51575	1.36325	1.0634	67.71	-0.2493	0.0895	0.3388	962.1631	0.154947	-384.925278	-384.917736	-384.916792	-384.958228	27.475	
C	-0.3185735315	 1.3621440315	-0.2415427886	-0.252993
C	 1.1133335955	 0.9801139625	 0.0444578545	-0.267776
C	 0.0454275326	-0.0805429836	-0.0234527206	-0.023754
C	-0.3876486217	-0.7991871873	 1.2264033205	 0.211971
O	-0.3777471663	 0.0641892673	 2.3401109513	-0.25214
C	-1.3325817483	-0.4721830491	 3.2415755257	-0.105531
C	-2.4240537208	-1.0032897294	 2.3019211636	-0.084706
O	-1.7229418823	-1.287315121	 1.0972704342	-0.274506
H	-0.8642713063	 1.8593786809	 0.5510921782	 0.120189
H	-0.5842149031	 1.6727693033	-1.2455717059	 0.107774
H	 1.8372251779	 1.0271559445	-0.7614797537	 0.108274
H	 1.5055594524	 1.2285063398	 1.023690125	 0.126553
H	 0.0469159572	-0.7311923992	-0.8921308052	 0.093615
H	 0.2733837942	-1.6642054564	 1.4231126119	 0.063528
H	-0.8910101923	-1.2838917558	 3.8393406294	 0.100634
H	-1.6663075606	 0.3236148791	 3.9105810033	 0.118297
H	-2.9045220891	-1.9118965494	 2.6818152934	 0.105249
H	-3.1985058974	-0.2487915178	 2.1116386431	 0.105321
38.9967	82.8718	175.3786	203.0762	271.9361	412.3861	579.1517	672.7595	726.3746	783.9736	806.0242	841.5942	891.231	928.6733	949.7161	968.14	994.2444	1031.0273	1060.1095	1069.1921	1085.3737	1107.2126	1134.6557	1163.5844	1172.367	1201.5307	1224.967	1232.1376	1250.8466	1338.1127	1379.5781	1382.5364	1409.6398	1426.6736	1459.6918	1503.2177	1513.7202	1531.0633	2921.6032	2992.0326	3014.9981	3062.4817	3111.489	3139.2748	3144.0401	3163.3332	3223.2557	3237.6904
C1CC1C1OCCO1	C1CC1C1OCCO1	
InChI=1S/C6H10O2/c1-2-5(1)6-7-3-4-8-6/h5-6H,1-4H2	InChI=1S/C6H10O2/c1-2-5(1)6-7-3-4-8-6/h5-6H,1-4H2
