18
gdb 87090	4.07478	0.6904	0.65551	3.4737	89.49	-0.2535	-0.0625	0.1911	1736.4545	0.144717	-401.909372	-401.899189	-401.898245	-401.945445	35.249	
C	-0.0694359677	 1.4999977881	-0.1074067953	-0.403184
C	 0.0248236187	 0.0023147569	 0.0510378781	-0.020425
N	 1.3317045314	-0.627395992	-0.1249264697	-0.354913
C	 0.7024464308	-0.6700280204	 1.2243815636	 0.116892
C	 1.4131641618	 0.1048527181	 2.3193730049	-0.459212
C	 0.1228320251	-1.9177290762	 1.6357148533	 0.076807
C	-0.3427971585	-2.9694902299	 2.0146214295	 0.032547
C	-0.9087761774	-4.2259892526	 2.420823793	 0.013364
O	-1.0354598187	-4.5855013828	 3.5701160105	-0.233257
H	 0.8312793929	 2.0014845955	 0.2495861886	 0.133963
H	-0.1929897065	 1.7523206603	-1.1659426707	 0.13043
H	-0.9337425517	 1.8944960948	 0.4363928977	 0.127473
H	-0.8350399184	-0.5419586746	-0.3361215453	 0.098011
H	 1.2416144057	-1.532009031	-0.5806517713	 0.241529
H	 1.8775413915	 1.0047032641	 1.9149079746	 0.134108
H	 0.7124156299	 0.3869960271	 3.1106020413	 0.132804
H	 2.1993937168	-0.5111190226	 2.7649944647	 0.137962
H	-1.2339736755	-4.8679357328	 1.5761389925	 0.095102
50.5211	74.0828	106.8735	151.9055	167.9396	192.8843	219.605	264.7928	327.0542	363.5117	463.0551	527.668	558.6276	581.086	704.8072	751.9546	833.807	913.823	973.8697	1018.3865	1026.2909	1058.2007	1090.489	1097.3428	1111.0993	1154.746	1241.2691	1297.421	1336.4828	1402.8058	1418.5097	1422.7803	1446.2961	1476.9646	1486.3821	1492.9481	1505.9806	1760.833	2305.5567	2910.9361	3042.3924	3051.7385	3103.3345	3117.217	3118.6874	3141.5962	3151.8062	3507.1677
CC1NC1(C)C#CC=O	C[C@H]1N[C@]1(C)C#CC=O	
InChI=1S/C7H9NO/c1-6-7(2,8-6)4-3-5-9/h5-6,8H,1-2H3	InChI=1S/C7H9NO/c1-6-7(2,8-6)4-3-5-9/h5-6,8H,1-2H3/t6-,7-/m1/s1
