18
gdb 92009	2.75216	1.59052	1.26969	1.7443	70.78	-0.2366	-0.0414	0.1952	1021.1411	0.14851	-439.071368	-439.063618	-439.062673	-439.103565	30.199	
O	-0.1680835136	 0.9245114312	 1.3650832263	-0.429017
C	-0.1218086661	-0.0764661642	 0.3621356876	 0.070341
C	 0.7005177251	-1.2674393688	 0.8881695908	-0.231958
C	-0.3287721876	-2.2356526729	 1.4559640254	-0.018421
C	-1.3784098763	-1.6870450432	 2.3500541489	-0.257277
N	-1.6720484208	-1.9298128452	 0.9168151907	-0.124622
C	-1.5047217142	-0.7304236599	 0.0720508981	-0.093702
C	-2.707177367	 0.1801197938	 0.1807027477	 0.163641
O	-2.6547270815	 1.388252334	 0.1982876311	-0.268095
H	-0.8284398304	 1.5692153993	 1.0735088005	 0.298695
H	 0.3088960504	 0.3328102389	-0.5618458807	 0.078332
H	 1.2436919928	-1.7466649384	 0.0670961463	 0.106864
H	 1.4324682012	-0.9257139551	 1.6242635524	 0.126981
H	-0.0681561872	-3.28861276	 1.5122738097	 0.0935
H	-1.9135798671	-2.3526681844	 3.0206182932	 0.116145
H	-1.2625695673	-0.6640846967	 2.6923659564	 0.145643
H	-1.5062300076	-1.0899734463	-0.9704668313	 0.111394
H	-3.6794088328	-0.3527855522	 0.2327091371	 0.111557
100.8308	144.8907	229.0892	233.3496	327.5241	381.0701	412.1226	455.4742	582.6231	658.233	666.4245	724.7693	774.4131	816.345	863.5133	880.361	929.2057	943.6719	994.2645	1028.5429	1043.3094	1094.5921	1109.717	1129.2103	1140.5697	1177.2495	1221.818	1228.1182	1269.4231	1295.567	1329.5057	1334.2015	1362.2448	1387.0714	1407.8265	1433.6946	1477.815	1499.4914	1806.9519	2923.8397	2974.4135	3004.8327	3056.3644	3109.0608	3120.5593	3150.046	3218.4244	3735.5569
OC1CC2CN2C1C=O	O[C@H]1C[C@H]2CN2[C@H]1C=O	
InChI=1S/C6H9NO2/c8-3-5-6(9)1-4-2-7(4)5/h3-6,9H,1-2H2	InChI=1S/C6H9NO2/c8-3-5-6(9)1-4-2-7(4)5/h3-6,9H,1-2H2/t4-,5-,6-,7?/m0/s1
