16
gdb 17209	4.5853	1.85466	1.63049	1.0707	64.66	-0.2339	0.0592	0.293	821.8376	0.130506	-383.672912	-383.666317	-383.665373	-383.703691	25.634	
C	-0.2710416799	 1.3398641945	 0.1137374264	-0.326859
C	 1.1732635137	 0.878057181	-0.042580592	-0.341859
C	 0.0479711982	-0.1035797667	-0.0434429844	 0.453895
O	-0.1250338936	-1.0636643149	 1.0160920527	-0.322567
C	-0.4889774057	-2.0853860209	 0.0685246948	 0.063737
C	-1.988647103	-2.1061290122	-0.268480632	-0.094797
O	-1.8000787214	-1.1414073569	-1.3379695951	-0.288967
C	-0.3795684571	-1.0972434722	-1.1111469424	-0.046594
H	-0.581372886	 1.666185837	 1.1004006361	 0.128003
H	-0.7555670197	 1.8523765864	-0.7103666245	 0.127266
H	 1.6883318024	 1.0762582508	-0.9772632533	 0.1174
H	 1.8027910531	 0.9014998367	 0.8404082296	 0.126746
H	 0.0541240899	-3.0190703557	 0.2161068594	 0.09359
H	-2.3652562342	-3.0591463958	-0.6604341014	 0.10476
H	-2.6446216	-1.738078497	 0.527131072	 0.11646
H	 0.2065492834	-1.1922317842	-2.0267198459	 0.089785
95.311	197.2489	248.6945	335.2426	408.9728	495.6178	579.4735	751.1999	786.9842	802.7245	842.1381	882.071	891.574	947.3568	964.1861	980.3031	1004.8412	1017.3027	1044.3784	1065.4749	1069.0675	1070.8654	1159.365	1184.0359	1185.8269	1215.5791	1239.2722	1283.7912	1325.825	1350.1974	1393.1589	1449.1621	1496.9822	1500.8321	3020.9213	3083.9069	3097.0106	3113.5496	3127.9993	3135.154	3213.5418	3228.1857
C1CC11OC2COC12	C1CC21O[C@H]1CO[C@@H]21	
InChI=1S/C6H8O2/c1-2-6(1)5-4(8-6)3-7-5/h4-5H,1-3H2	InChI=1S/C6H8O2/c1-2-6(1)5-4(8-6)3-7-5/h4-5H,1-3H2/t4-,5+/m0/s1
