18
gdb 82005	2.53071	1.43072	1.29665	3.3765	76.19	-0.2469	0.0189	0.2658	1072.5238	0.147801	-398.088371	-398.079583	-398.078639	-398.121408	33.2	
C	-0.2260155765	 1.5470893442	-0.0307823623	-0.417111
C	 0.0577572577	 0.0582930759	-0.0271287888	 0.038854
N	 0.9990854267	-0.4746406159	-1.0771462386	-0.133374
C	 2.3498066414	 0.0300163076	-0.7691215944	-0.254121
C	 1.8305873738	-1.0960491143	 0.0265141939	-0.047266
C	 0.9091649836	-0.5797451143	 1.1430377778	 0.088503
N	 1.5351556661	 0.3557251723	 2.0726124612	-0.54418
C	 0.187507941	-1.6607016799	 1.8280461143	 0.228957
N	-0.3769476823	-2.4849847612	 2.411520854	-0.341675
H	 0.6594212053	 2.1437344714	 0.1950189228	 0.13761
H	-0.6059324514	 1.8383118019	-1.0152401175	 0.136962
H	-0.9938853916	 1.7904899502	 0.7111302584	 0.124015
H	-0.8749258732	-0.4984602866	-0.1401291539	 0.111587
H	 3.063480382	-0.2116589605	-1.5503649598	 0.129305
H	 2.4851329728	 0.9986810697	-0.3013574776	 0.139397
H	 2.201104453	-2.1131316364	-0.0347084699	 0.115048
H	 0.8530919156	 0.6784084204	 2.7542417812	 0.244181
H	 2.2665932959	-0.1178989544	 2.5972274293	 0.243309
121.8183	150.0804	175.6807	203.4427	209.3078	246.1757	311.4668	393.8222	465.5548	501.3546	556.2561	572.2157	645.9702	743.0339	779.567	796.6087	871.2581	903.9815	917.3264	993.6556	1044.1942	1062.8994	1094.4522	1107.5856	1111.9023	1126.2207	1179.881	1205.9304	1239.6257	1282.747	1297.119	1360.9085	1381.4829	1406.8032	1481.2693	1492.1798	1504.5302	1650.3289	2339.8548	3043.0227	3084.0261	3106.4553	3132.114	3139.0166	3178.5732	3224.1678	3480.3004	3560.94
CC1N2CC2C1(N)C#N	C[C@H]1N2C[C@H]2[C@]1(N)C#N	
InChI=1S/C6H9N3/c1-4-6(8,3-7)5-2-9(4)5/h4-5H,2,8H2,1H3	InChI=1S/C6H9N3/c1-4-6(8,3-7)5-2-9(4)5/h4-5H,2,8H2,1H3/t4-,5+,6+,9?/m1/s1
