19
gdb 39535	3.93139	1.48948	1.25409	0.1096	85.68	-0.2114	0.0163	0.2277	1032.2042	0.16213	-348.765257	-348.758509	-348.757565	-348.795924	28.641	
C	-0.0591553416	 1.4895674529	-0.026505855	-0.296721
C	 1.3748227851	 1.9766468433	 0.056058734	-0.082578
C	 2.2445926377	 0.9630173712	 0.0695409071	-0.187141
C	 1.5577734502	-0.3537571128	 0.057083892	 0.363616
C	 2.1033944927	-1.6623690021	-0.496386529	-0.380598
C	 1.3557826702	-2.7141556978	 0.2987894025	-0.074499
C	 0.5931638369	-2.1785496577	 1.2569652061	-0.087509
C	 0.6450435259	-0.6899009675	 1.2444088748	-0.118302
C	 0.0680500474	-0.0356994676	 0.0045489301	-0.095841
H	-0.6726965075	 1.8761435377	 0.7983925301	 0.108578
H	-0.5459511612	 1.8276847152	-0.9513085224	 0.106866
H	 1.6325502792	 3.0271250447	 0.1265412946	 0.09149
H	 3.3238074035	 1.0570774738	 0.1233508927	 0.089436
H	 1.9377427004	-1.7604541077	-1.5771528482	 0.109325
H	 3.1899764297	-1.7450451015	-0.3445488425	 0.104587
H	 1.4446252855	-3.7738147687	 0.0876598539	 0.091589
H	-0.0147794217	-2.7389630569	 1.958674362	 0.092289
H	 0.6886134136	-0.1253104593	 2.1716143067	 0.082362
H	-0.6055303461	-0.633823329	-0.5997926195	 0.083051
195.8924	223.8714	274.5793	352.6877	437.6755	470.9377	499.708	679.0518	715.3311	735.8159	744.509	781.2444	819.8485	864.8958	902.8471	921.4594	943.2977	951.9331	954.0828	980.3241	993.0658	1019.4804	1041.2099	1045.6951	1061.685	1124.3438	1136.4782	1164.4786	1179.9175	1216.8942	1249.7318	1262.9763	1307.0913	1317.3431	1365.3854	1377.2505	1401.512	1476.3421	1478.2391	1662.7235	1664.5714	2997.9001	3011.0308	3035.4812	3035.9857	3145.611	3163.3441	3182.3407	3182.6477	3207.7543	3208.5285
C1C=CC23CC=CC2C13	C1C=C[C@@]23CC=C[C@@H]2[C@@H]13	
InChI=1S/C9H10/c1-3-7-8-4-2-6-9(7,8)5-1/h1-3,6-8H,4-5H2	InChI=1S/C9H10/c1-3-7-8-4-2-6-9(7,8)5-1/h1-3,6-8H,4-5H2/t7-,8-,9+/m1/s1
