23
gdb 121858	3.43538	0.58662	0.51902	0.7433	93.21	-0.2401	0.049	0.289	2227.9236	0.201643	-388.266785	-388.254706	-388.253762	-388.307163	40.771	
C	 0.0191962878	 1.5242272592	 0.0075437924	-0.383409
C	-0.0534096459	 0.0025596266	 0.155071507	-0.180866
C	-1.4560342053	-0.5394884038	-0.0875797944	-0.031722
O	-1.4228872371	-1.9441843547	 0.0717435746	-0.25825
C	-2.6949703645	-2.5824951303	-0.0072509819	-0.041284
C	-3.1522356589	-2.7684645647	-1.4639507246	-0.391566
C	-2.6026787637	-3.8676269037	 0.6859346922	 0.053412
C	-2.5520540943	-4.9362502494	 1.2371344449	 0.100653
C	-2.4782718206	-6.2230981727	 1.9134150341	-0.499522
H	 1.0353910603	 1.8878944029	 0.1848470774	 0.117087
H	-0.2761366995	 1.8434190618	-0.9982096172	 0.115245
H	-0.6421295485	 2.0275096597	 0.7216720635	 0.11553
H	 0.6320638774	-0.481244108	-0.5500494898	 0.107448
H	 0.2664519507	-0.3004142835	 1.1583800731	 0.108056
H	-2.1682206529	-0.0918424393	 0.6277997747	 0.082461
H	-1.7961699816	-0.2575193718	-1.0977457261	 0.083847
H	-3.4381971605	-1.9564588721	 0.5164605193	 0.087068
H	-3.254344935	-1.8025909954	-1.9666127069	 0.114908
H	-2.4220598604	-3.3745419586	-2.0059748178	 0.131753
H	-4.1209070171	-3.2749108299	-1.4945415849	 0.12336
H	-3.1468980471	-6.2579310559	 2.7806733093	 0.147013
H	-2.7582617514	-7.0439199314	 1.2439452759	 0.146924
H	-1.4617681919	-6.4201491448	 2.2714127749	 0.151854
15.3536	36.2888	52.242	79.6515	125.3149	149.8062	171.2626	231.5971	239.2718	287.0735	302.4131	361.5363	397.1117	407.6122	537.6689	564.8681	754.4749	765.9243	879.3238	901.5585	912.9589	1007.0115	1044.2976	1051.9555	1053.9603	1072.0719	1100.7018	1128.7332	1149.8877	1190.6074	1191.5835	1266.795	1314.8903	1328.6248	1346.9182	1365.3189	1396.539	1412.3132	1414.1862	1439.1934	1477.4022	1479.0003	1488.6972	1490.4684	1493.0135	1500.6092	1507.4441	1527.5328	2376.3229	2943.8576	2950.7886	2978.2616	3026.6916	3030.6843	3040.2458	3046.0787	3072.3934	3086.8218	3088.7758	3099.3195	3107.1634	3119.3467	3131.3123
CCCOC(C)C#CC	CCCO[C@@H](C)C#CC	
InChI=1S/C8H14O/c1-4-6-8(3)9-7-5-2/h8H,5,7H2,1-3H3	InChI=1S/C8H14O/c1-4-6-8(3)9-7-5-2/h8H,5,7H2,1-3H3/t8-/m0/s1
