16
gdb 130275	2.24202	1.61755	0.97673	3.2333	68.63	-0.2066	0.0244	0.231	1152.9177	0.125368	-471.196107	-471.187396	-471.186451	-471.229263	32.809	
N	-0.1471474486	 1.3193749629	-0.0820785206	-0.597255
C	-0.1473353864	-0.0476287538	-0.0454209889	 0.435242
C	-1.1908790439	-0.9368212204	 0.0149818693	-0.019521
C	-2.6416831803	-0.5843933077	 0.0198189694	-0.205692
O	-2.9541927791	 0.430067678	-0.9466716432	-0.415421
C	-0.5166213192	-2.1925399014	 0.0888265959	 0.331526
N	-1.1059579543	-3.4379477548	 0.2484569864	-0.590903
N	 0.7948412488	-2.0786235761	 0.0618475037	-0.258272
O	 1.0282065119	-0.6737087601	-0.0208836639	-0.225248
H	 0.6938934517	 1.7420660664	-0.4466058931	 0.263607
H	-1.0085833592	 1.700926725	-0.4502661449	 0.269756
H	-3.2606806753	-1.4806605997	-0.1365616877	 0.094096
H	-2.9572017921	-0.1501294997	 0.9757448663	 0.129249
H	-2.6747853245	 0.0926859084	-1.8053769536	 0.281503
H	-1.9595209123	-3.5622313415	-0.2778995465	 0.248442
H	-0.4554516772	-4.1943275054	 0.0788220913	 0.25889
93.6161	150.4547	187.2311	215.8365	280.8302	304.0463	374.1774	387.2476	401.5631	452.7709	527.9753	601.4881	618.9518	659.4459	701.2472	738.5458	778.9489	802.4859	918.485	957.1857	1013.794	1076.3173	1134.3314	1143.9212	1219.4346	1286.5711	1363.4119	1400.9882	1419.7886	1506.6893	1528.1252	1563.4685	1625.7679	1648.7917	1692.5393	2990.2028	3050.2068	3548.0017	3552.8313	3646.6982	3668.887	3796.7811
NC1=C(CO)C(N)=NO1	Nc1c(CO)c(N)no1	
InChI=1S/C4H7N3O2/c5-3-2(1-8)4(6)9-7-3/h8H,1,6H2,(H2,5,7)	InChI=1S/C4H7N3O2/c5-3-2(1-8)4(6)9-7-3/h8H,1,6H2,(H2,5,7)
