16
gdb 84247	2.56769	1.99398	1.36916	2.9022	69.67	-0.2224	-0.0527	0.1698	935.282	0.121589	-437.742776	-437.735105	-437.734161	-437.77438	30.525	
C	-0.0992686507	 1.5390498405	-0.073648728	-0.392924
C	 0.0011171723	 0.019838097	-0.0305684422	-0.018164
N	 0.9382107962	-0.4145699421	-1.1265893577	-0.227111
C	 1.6134006462	-1.3138267947	-0.5457159786	 0.260678
O	 2.9555046385	-1.1280470258	-0.1875625001	-0.263789
C	 2.3059365401	-1.0575278065	 1.1616811689	-0.011943
C	 1.1728769691	-1.9177799557	 0.826204367	-0.251107
C	 0.7109481336	-0.5709474853	 1.2271406047	 0.340393
O	 0.1966246746	-0.3724846232	 2.489792644	-0.459856
H	 0.8955892377	 1.9912275132	-0.0360873155	 0.132745
H	-0.5873279518	 1.863076241	-0.9957285805	 0.137549
H	-0.6955714963	 1.901818677	 0.7723017293	 0.105181
H	-1.0065449815	-0.4193880518	-0.0954547552	 0.09209
H	 2.979768546	-1.0122562628	 2.0089261357	 0.133695
H	 0.8777130725	-2.9242095114	 1.0941232183	 0.124139
H	 0.2489629935	 0.5673870106	 2.6974112	 0.298424
131.4425	222.0698	242.5727	259.7456	351.7225	370.1137	417.7496	474.234	540.0422	563.1583	581.389	640.5051	720.9021	780.56	804.0749	831.4887	871.3046	919.8127	976.9779	1027.4462	1049.6884	1065.3465	1093.2862	1112.1134	1136.1134	1193.4187	1226.8896	1262.8905	1292.5548	1349.6269	1396.3508	1419.3225	1482.7775	1495.8109	1628.3282	2980.9125	3031.6216	3106.5014	3130.8156	3189.3651	3200.7296	3799.8169
CC1N=C2OC3C2C13O	C[C@H]1[N][C]2O[C@@H]3[C@H]2[C@]13O	
InChI=1S/C6H7NO2/c1-2-6(8)3-4(6)9-5(3)7-2/h2-4,8H,1H3	InChI=1S/C6H7NO2/c1-2-6(8)3-4(6)9-5(3)7-2/h2-4,8H,1H3/t2-,3-,4-,6-/m1/s1
