17
gdb 67393	2.77648	1.59167	1.41416	3.7064	72.01	-0.2349	-0.0121	0.2228	985.6478	0.136009	-421.818281	-421.810916	-421.809972	-421.849962	29.042	
C	-0.0722763863	 1.5439656365	-0.0224562636	-0.516303
C	-0.0053132619	 0.0487367944	 0.0038437163	 0.243024
C	-0.0823366194	-1.0249669167	-1.0110001586	 0.061823
O	 1.0595525261	-1.7382207189	-0.5635762821	-0.304528
C	 1.0914581414	-0.8764238821	 0.6244536024	 0.032765
C	 0.4488256309	-1.6473919558	 1.7650198186	-0.336192
C	-1.0054045923	-1.8192733998	 1.2807978225	 0.431834
O	-1.8523419637	-2.4979096744	 1.8036357109	-0.330408
C	-1.1724070492	-0.9374473044	 0.0831391824	-0.260961
H	 0.8563159352	 1.9755478181	-0.4114989212	 0.131319
H	-0.8931412848	 1.884882514	-0.6608528191	 0.132074
H	-0.2417318978	 1.9535661424	 0.9798130868	 0.129553
H	-0.3285270643	-1.046228641	-2.0661851496	 0.120031
H	 2.085436847	-0.4619979368	 0.7959190197	 0.092876
H	 0.9198478476	-2.613776729	 1.9583720499	 0.139661
H	 0.4512355475	-1.0667177845	 2.6960618466	 0.127377
H	-2.165178996	-0.650819492	-0.241838132	 0.106053
113.1068	191.2867	202.6536	265.0635	381.1353	413.7609	457.6981	565.2452	597.021	654.1529	681.4485	734.1592	827.9137	850.0623	872.4088	906.0237	913.7035	976.9329	988.9623	997.0733	1049.1553	1069.905	1122.67	1131.6044	1161.288	1199.6194	1209.7928	1232.6051	1276.3876	1297.0869	1330.1462	1415.6345	1437.1485	1471.1162	1487.3869	1496.9272	1838.3141	3028.3005	3043.6407	3090.1485	3104.6685	3111.9476	3117.8478	3186.5896	3201.2668
CC12C3OC1CC(=O)C23	C[C@@]12[C@H]3O[C@@H]1CC(=O)[C@@H]23	
InChI=1S/C7H8O2/c1-7-4-2-3(8)5(7)6(7)9-4/h4-6H,2H2,1H3	InChI=1S/C7H8O2/c1-7-4-2-3(8)5(7)6(7)9-4/h4-6H,2H2,1H3/t4-,5-,6+,7-/m1/s1
