17
gdb 126546	5.44714	0.78702	0.73199	3.4878	71.01	-0.2597	-0.0155	0.2442	1555.1719	0.135968	-455.163933	-455.155178	-455.154233	-455.19904	31.141	
C	-0.1399036228	 1.517533877	 0.1124481156	-0.384224
C	-0.1467039529	-0.0086350303	 0.2146657836	-0.171506
C	 0.9493993391	-0.5318395515	 1.166869411	-0.301034
C	 0.9484122454	-2.0161528092	 1.2765580719	 0.434131
N	 1.776678708	-2.8703351002	 0.746794007	-0.39438
C	 1.2479511802	-4.066706163	 1.1641158781	 0.43086
O	 1.7969472801	-5.2372904009	 0.8425773382	-0.400337
N	 0.1695515357	-3.992160259	 1.9007792788	-0.20221
O	-0.0313455377	-2.5967710453	 1.9755018294	-0.203522
H	 0.8200732585	 1.8865338846	-0.2646700162	 0.12047
H	-0.9221568603	 1.8672052259	-0.5674057557	 0.12222
H	-0.3142730215	 1.9816249403	 1.0892719692	 0.121109
H	-1.1218888254	-0.3587115047	 0.570117211	 0.123263
H	 0.0031823175	-0.4524299342	-0.7762334623	 0.115868
H	 1.9377788496	-0.2259697938	 0.8141865386	 0.136407
H	 0.8010671502	-0.1042198263	 2.1649555837	 0.133851
H	 2.5738107464	-5.0455880393	 0.3032086882	 0.319034
21.6185	81.5134	103.0194	243.9714	265.8839	299.69	313.7979	387.462	414.5554	488.9726	659.6823	729.592	748.1057	774.7408	809.7722	875.364	901.0631	939.7722	1036.0981	1043.3699	1060.1465	1107.1515	1113.7682	1219.9048	1245.2272	1302.215	1317.0394	1352.8564	1380.7658	1414.8427	1445.194	1473.3744	1493.231	1499.1683	1509.067	1603.9298	1675.667	3032.7009	3037.8084	3051.2423	3072.2019	3100.1853	3110.1993	3114.6229	3812.623
CCCC1=NC(O)=NO1	CCCc1nc(O)no1	
InChI=1S/C5H8N2O2/c1-2-3-4-6-5(8)7-9-4/h2-3H2,1H3,(H,7,8)	InChI=1S/C5H8N2O2/c1-2-3-4-6-5(8)7-9-4/h2-3H2,1H3,(H,7,8)
