18
gdb 102394	1.83085	1.5333	1.11462	4.0693	68.28	-0.2733	0.0127	0.286	1171.9294	0.144937	-476.200936	-476.190683	-476.189739	-476.235982	36.434	
C	-0.2287400043	 1.3203673808	 0.0691578715	-0.262431
O	 0.2558588136	-0.0185832681	 0.0590265725	-0.287969
C	 0.7552947145	-0.5246282315	-1.1792281081	 0.131871
C	-0.0241009363	-0.058240968	-2.4318416436	-0.115364
O	-1.4075270494	-0.2960634951	-2.346861473	-0.411903
C	 2.2559011348	-0.1686626602	-1.2858388733	-0.069903
O	 2.9521783363	-0.5686559721	-0.1351434574	-0.412563
C	 0.5853134934	-1.990934157	-1.0814568671	 0.289009
N	 0.4028435206	-3.1315839482	-1.086717392	-0.337836
H	 0.5192889085	 2.0412538147	-0.2868345327	 0.115662
H	-1.1441754621	 1.4147135537	-0.5226590332	 0.15216
H	-0.4514667212	 1.5421460264	 1.1146850895	 0.141909
H	 0.0984921164	 1.0216736619	-2.5493310596	 0.125341
H	 0.4331775528	-0.5404863028	-3.3082210218	 0.120148
H	-1.5491455604	-1.2468807012	-2.2636995636	 0.304326
H	 2.7084713865	-0.6776397208	-2.1420900526	 0.127866
H	 2.3321313417	 0.917638912	-1.460242367	 0.095663
H	 2.4001364847	-0.3156607943	 0.6164597016	 0.294014
92.156	106.9176	128.7582	149.1218	181.627	210.6765	239.719	297.2966	332.6937	380.8482	396.9441	435.4846	467.0443	478.6134	569.6626	687.116	720.9729	838.5639	968.4732	1026.2832	1072.0251	1103.9704	1115.9319	1137.1061	1145.3049	1180.165	1214.7367	1230.4918	1289.7439	1374.0944	1383.8433	1423.1137	1434.5768	1475.9435	1492.4818	1493.1631	1508.3158	1521.1816	2359.4235	2967.0179	3004.4972	3012.6275	3086.775	3092.3495	3099.2626	3133.7804	3768.4114	3790.4883
COC(CO)(CO)C#N	COC(CO)(CO)C#N	
InChI=1S/C5H9NO3/c1-9-5(2-6,3-7)4-8/h7-8H,3-4H2,1H3	InChI=1S/C5H9NO3/c1-9-5(2-6,3-7)4-8/h7-8H,3-4H2,1H3
