20
gdb 104620	2.53709	1.14382	0.93831	3.3378	79.67	-0.2766	0.0265	0.3031	1331.3228	0.170153	-403.156298	-403.146664	-403.14572	-403.191024	35.475	
C	 0.1013320839	 1.6438427002	 0.0831179921	-0.410028
C	 0.0571572152	 0.1250693209	 0.0495818992	 0.053418
C	 1.0263803829	-0.6268402484	-0.9055757386	-0.285008
C	 1.301913226	-1.6743031909	 0.2261100031	 0.119958
C	 2.7683544	-2.0704949359	 0.4656246726	-0.12287
O	 2.9434295663	-2.8248798856	 1.6440360268	-0.415457
C	 0.664085311	-0.6657306723	 1.2415863648	-0.262773
C	 0.5034089072	-2.8875775887	 0.0793805127	 0.24624
N	-0.0902070855	-3.8761807377	-0.0187618784	-0.353185
H	 1.1204985725	 2.0045899608	 0.2635367299	 0.112771
H	-0.2423576627	 2.0720980452	-0.8647939496	 0.121216
H	-0.5385274596	 2.0409062312	 0.8786569356	 0.122674
H	-0.9681643001	-0.2138970624	-0.1315781771	 0.091835
H	 0.629293941	-1.0058445913	-1.8484118997	 0.121303
H	 1.9341979216	-0.0492507341	-1.1094378672	 0.107508
H	 3.1561265967	-2.5923886585	-0.4229228738	 0.105096
H	 3.353257397	-1.1545602986	 0.5969604779	 0.112884
H	 2.5031835663	-3.6742531917	 1.5233577023	 0.299033
H	 1.4527297191	-0.1072180226	 1.7544227502	 0.112193
H	-0.0193985687	-1.0747292194	 1.9863687174	 0.123192
58.6181	92.6923	144.5458	171.1014	217.8123	246.3666	312.8154	327.4502	384.6282	394.8409	431.7883	503.3896	584.3066	671.0984	714.6109	828.534	850.8936	903.3093	915.1012	935.3019	971.8789	1030.2884	1068.946	1085.0579	1095.3466	1144.9339	1148.7398	1199.0163	1227.2629	1242.6371	1282.213	1296.5622	1312.2374	1377.2514	1383.828	1413.6414	1418.7592	1471.4259	1488.8495	1495.7761	1496.6016	1504.2456	2340.3952	2988.0531	3025.3334	3047.864	3053.5295	3064.533	3079.7441	3094.17	3096.6025	3124.2852	3132.0933	3797.2598
CC1CC(CO)(C1)C#N	C[C@H]1C[C@@](CO)(C1)C#N	
InChI=1S/C7H11NO/c1-6-2-7(3-6,4-8)5-9/h6,9H,2-3,5H2,1H3	InChI=1S/C7H11NO/c1-6-2-7(3-6,4-8)5-9/h6,9H,2-3,5H2,1H3/t6-,7+
