19
gdb 30845	2.31845	1.37799	0.90847	0.9253	81.81	-0.1798	0.0325	0.2123	1316.6025	0.159304	-419.231236	-419.221605	-419.220661	-419.265724	35.204	
C	 0.2959212849	 1.2079713193	 0.2643291321	-0.322903
N	-0.3541676162	 0.0189072441	-0.2966479223	-0.395168
C	 0.405314175	-0.7457581552	-1.1744916598	 0.240186
C	 0.7603360445	-2.0612479316	-1.1229929482	 0.21164
N	 0.3587654932	-2.994536236	-0.158037085	-0.612764
C	 1.5445887249	-2.3176133562	-2.2986306287	-0.34441
C	 1.6126635264	-1.1434310751	-2.9852722738	 0.368941
C	 2.2783451688	-0.7594480611	-4.2585560467	-0.48946
O	 0.9217952903	-0.1744340135	-2.3345488979	-0.218583
H	 1.1962201776	 0.9001371753	 0.8041617167	 0.126295
H	 0.5890020242	 1.9502485971	-0.4916676233	 0.116913
H	-0.3842238122	 1.6858623549	 0.9761242448	 0.113926
H	-1.2668594412	 0.2560610184	-0.6729715792	 0.229606
H	-0.0452134726	-2.5244862235	 0.6441996712	 0.242547
H	 1.1143910009	-3.5968960314	 0.1444286659	 0.238582
H	 1.9877489158	-3.2568077007	-2.593346603	 0.095561
H	 1.5550984165	-0.3928531514	-4.9962312951	 0.134562
H	 3.0160583173	 0.0366807078	-4.1037755196	 0.13335
H	 2.7928773719	-1.6236023911	-4.685027488	 0.131179
75.683	122.9285	134.1552	163.8492	202.8562	249.4694	280.7406	303.3253	313.8174	407.1145	531.9004	591.4101	627.1269	640.1156	663.6838	750.5883	777.6816	795.6539	826.2877	988.3361	1012.605	1035.3915	1062.3682	1068.8866	1139.5731	1146.0588	1172.9181	1190.915	1310.0968	1318.7666	1414.0459	1447.2894	1455.4758	1472.0279	1472.9918	1488.0246	1497.7052	1520.4645	1615.8592	1638.6202	1717.202	3000.6623	3026.9106	3074.1585	3075.6582	3111.6443	3126.0736	3246.2279	3493.6641	3517.3441	3609.986
CNC1=C(N)C=C(C)O1	CNc1c(N)cc(C)o1	
InChI=1S/C6H10N2O/c1-4-3-5(7)6(8-2)9-4/h3,8H,7H2,1-2H3	InChI=1S/C6H10N2O/c1-4-3-5(7)6(8-2)9-4/h3,8H,7H2,1-2H3
