16
gdb 70040	4.32906	1.07909	0.94884	4.2369	77.38	-0.2652	-0.0582	0.207	1216.8215	0.124145	-400.763414	-400.755516	-400.754572	-400.795779	29.926	
C	 0.0509385052	 1.5068050434	-0.0514435035	-0.48777
C	-0.0744600245	 0.0184414209	 0.1173341512	 0.400166
C	-1.3999138188	-0.6893093853	-0.1733990974	-0.377492
C	-1.3286545779	-1.9343409804	 0.7007969368	 0.182904
C	-0.2101189073	-1.9662034295	 1.4449513492	-0.171359
C	 0.647292823	-0.7934504956	 1.1227276678	-0.060975
O	 1.0577352054	-0.7693616595	-0.2649936462	-0.287023
C	-2.3425777406	-2.9287607403	 0.686097755	 0.214955
N	-3.1923126504	-3.7160228495	 0.6588052503	-0.331363
H	 1.0482719526	 1.841253672	 0.2435372691	 0.136825
H	-0.1067149797	 1.7905066937	-1.097682366	 0.136176
H	-0.6926019521	 2.0325919836	 0.5559893434	 0.128809
H	-2.2624505778	-0.0674923535	 0.0930132568	 0.131095
H	-1.4953343082	-0.9422590462	-1.2346603734	 0.146095
H	 0.0514055073	-2.742479275	 2.1519425937	 0.132631
H	 1.3680132738	-0.392273819	 1.8281916631	 0.106325
107.9588	148.5927	186.4136	242.5304	309.7723	358.3598	398.0697	469.7688	544.8524	565.4158	579.713	657.4821	734.6087	834.2488	861.3932	896.0176	914.7913	952.421	978.1513	1013.1671	1073.6175	1100.4974	1163.6644	1195.8662	1228.5649	1267.8946	1305.0672	1331.4879	1408.1897	1435.8933	1461.1296	1483.9592	1494.6899	1655.0856	2336.0816	3038.1718	3045.383	3086.4346	3102.6542	3128.5215	3169.5188	3227.0914
CC12CC(=CC1O2)C#N	C[C@]12CC(=C[C@H]1O2)C#N	
InChI=1S/C7H7NO/c1-7-3-5(4-8)2-6(7)9-7/h2,6H,3H2,1H3	InChI=1S/C7H7NO/c1-7-3-5(4-8)2-6(7)9-7/h2,6H,3H2,1H3/t6-,7+/m1/s1
