20
gdb 58180	2.52314	1.12076	0.95719	1.3317	77.24	-0.22	-0.0954	0.1246	1329.032	0.167028	-440.28161	-440.271052	-440.270108	-440.317546	37.133	
C	 0.0286737486	 1.4809843432	-0.0395312377	-0.433834
C	-0.1030988085	-0.0562330235	 0.0399730937	-0.029426
N	 0.6688656617	-0.638771845	 1.1290125711	-0.055716
C	 0.5720829218	-2.0947157039	 1.1522436003	-0.332014
C	 2.0660031969	-0.2245422978	 1.1354831881	-0.319781
C	-1.5937349689	-0.342143731	 0.1929785739	 0.280921
O	-2.1596846976	-0.6431122557	 1.2164066802	-0.277337
C	-2.4643765277	-0.2182017297	-1.0719661046	 0.092269
O	-2.0404005594	-0.0070643054	-2.1774990771	-0.222598
H	 1.032662161	 1.7717765735	-0.352768916	 0.135187
H	-0.6690562302	 1.8841091464	-0.7768467845	 0.13939
H	-0.1844228035	 1.9265950319	 0.936380223	 0.140622
H	 0.1941842354	-0.4629098201	-0.9471910261	 0.08515
H	 0.9778893046	-2.5672736578	 0.2367551327	 0.090004
H	 1.137676642	-2.4792781347	 2.0054490011	 0.121281
H	-0.4656986149	-2.4068207161	 1.2763008641	 0.136947
H	 2.1581823233	 0.8507754294	 1.2991229316	 0.123773
H	 2.5756515211	-0.7265071566	 1.9626444494	 0.122822
H	 2.6060811224	-0.481517614	 0.203423199	 0.091565
H	-3.5419341581	-0.3696165831	-0.8468134923	 0.110774
55.4343	71.7243	116.6778	168.3827	201.0337	222.1665	232.9205	237.2035	273.8348	347.4811	372.6628	442.2973	464.3118	520.2796	603.4099	630.1461	779.2464	833.2586	969.4242	984.1002	1059.0224	1065.1952	1081.7896	1106.6729	1122.6957	1161.4045	1192.0162	1252.3132	1306.2977	1319.426	1364.0133	1380.5509	1399.4757	1442.6047	1476.638	1488.623	1491.3215	1499.5589	1504.0026	1509.3576	1519.4755	1805.2592	1822.4809	2907.3846	2917.0836	2917.6828	2927.4029	3054.2291	3078.3703	3083.3527	3123.3497	3134.0519	3138.7652	3138.9336
CC(N(C)C)C(=O)C=O	C[C@@H](N(C)C)C(=O)C=O	
InChI=1S/C6H11NO2/c1-5(7(2)3)6(9)4-8/h4-5H,1-3H3	InChI=1S/C6H11NO2/c1-5(7(2)3)6(9)4-8/h4-5H,1-3H3/t5-/m1/s1
