17
gdb 37996	3.62408	1.63709	1.28924	1.7483	80.58	-0.2146	-0.0247	0.1899	970.6557	0.13863	-384.684777	-384.678333	-384.677388	-384.715428	26.689	
C	-0.0197696792	 1.5899335681	-0.1007448641	-0.299305
C	 1.4719479807	 1.8344345079	 0.0620678304	-0.068382
C	 2.1154367386	 0.7668356326	 0.5704686105	-0.176892
C	 1.1540924596	-0.3007400373	 0.7901061269	 0.326929
C	 0.9510990686	-1.3029783962	 1.6596620273	-0.277687
C	-0.5081533205	-1.6223189124	 1.6792638959	 0.018953
O	-1.3141875299	-0.480592894	 2.1016316986	-0.259916
C	-1.185676484	-0.7318692116	 0.7076118139	-0.003928
C	-0.0971641424	 0.0473424686	-0.007071505	-0.080159
H	-0.5674103562	 2.0522989074	 0.7321088245	 0.131594
H	-0.4287863863	 2.0000206087	-1.0291783212	 0.104886
H	 1.9306648587	 2.7947722134	-0.1462208951	 0.102447
H	 3.1602905337	 0.7334617016	 0.8530150309	 0.104733
H	 1.6644762089	-1.7082595784	 2.3658035537	 0.098912
H	-0.9048787706	-2.5837954578	 1.989581623	 0.09597
H	-2.1015197715	-1.0127369583	 0.1935037818	 0.089737
H	 0.0041161015	-0.3640302122	-1.0216184119	 0.092107
167.097	173.826	327.9784	441.2885	465.473	518.1277	639.0449	657.8267	724.101	756.5938	771.1855	811.4147	829.0876	843.0124	874.2813	931.2908	941.0234	967.7847	979.6972	1006.4844	1054.7354	1076.1192	1110.2468	1122.2075	1167.3055	1184.9755	1237.2329	1251.1512	1277.6546	1293.6854	1337.8623	1339.6323	1363.8731	1401.1276	1478.0153	1614.5804	1683.146	3004.9034	3019.526	3077.2119	3140.2951	3167.609	3191.3623	3212.4253	3217.9697
C1C=CC2=CC3OC3C12	C1C=C[C]2[CH][C@H]3O[C@H]3[C@@H]12	
InChI=1S/C8H8O/c1-2-5-4-7-8(9-7)6(5)3-1/h1-2,4,6-8H,3H2	InChI=1S/C8H8O/c1-2-5-4-7-8(9-7)6(5)3-1/h1-2,4,6-8H,3H2/t6-,7+,8-/m0/s1
