18
gdb 23048	2.88263	1.20654	0.98242	1.9387	75.96	-0.2471	-0.007	0.2401	1224.8625	0.146546	-439.005189	-438.996469	-438.995525	-439.040047	31.665	
O	-0.1687632666	 1.3748127633	 0.1182485327	-0.387829
N	-0.0551621608	-0.0154478156	 0.2823631242	-0.235442
C	-1.1474562009	-0.5999849288	 0.0184254803	 0.34779
C	-2.5379484299	-0.1971584595	-0.4255928445	-0.327286
C	-2.9175295727	-1.7135338805	-0.3937627011	-0.310361
C	-1.4711519989	-2.074658531	 0.0627077486	 0.212592
C	-0.6090199793	-3.1320181403	-0.6658604295	-0.122862
O	-0.4474206982	-3.9098298376	 0.5345281243	-0.273238
C	-1.1856160038	-2.9461612094	 1.3081196865	-0.122858
H	 0.7156170398	 1.6802869278	 0.3477163891	 0.308603
H	-3.0709697317	 0.4424582086	 0.2836979196	 0.130261
H	-2.5770771408	 0.2833537982	-1.4073716959	 0.130261
H	-3.6907211896	-1.97350461	 0.3330325153	 0.11135
H	-3.1951248502	-2.133155885	-1.3635562962	 0.111352
H	-1.1259499198	-3.691791298	-1.4563754874	 0.10015
H	 0.3476720514	-2.7543110556	-1.0464136606	 0.113685
H	-0.5623196806	-2.4609919086	 2.0689455966	 0.113683
H	-2.0721344675	-3.386802208	 1.7828799379	 0.10015
26.6124	70.1579	130.5646	182.8096	268.1201	310.609	358.5371	435.333	457.154	507.2288	582.2958	746.6277	760.5778	847.7974	866.7777	890.0254	936.2522	955.6671	976.4235	995.0359	1045.6645	1082.7039	1101.66	1155.2908	1157.5455	1163.2741	1204.5832	1217.7444	1219.7354	1248.6517	1301.9655	1307.7353	1372.5299	1409.1918	1457.3784	1483.3987	1499.8913	1526.7487	1773.2235	3001.3704	3012.6881	3058.2006	3058.9281	3059.607	3066.1336	3099.123	3121.0155	3815.4656
ON=C1CCC11COC1	ON=C1CCC21COC2	
InChI=1S/C6H9NO2/c8-7-5-1-2-6(5)3-9-4-6/h8H,1-4H2	InChI=1S/C6H9NO2/c8-7-5-1-2-6(5)3-9-4-6/h8H,1-4H2
