21
gdb 100514	2.74296	1.09189	0.90999	2.0526	82.5	-0.2185	-0.0405	0.1781	1387.9478	0.179748	-420.425304	-420.414066	-420.413122	-420.463297	38.498	
C	-0.0058543707	 1.7979275785	-0.4613447899	-0.380984
C	 0.3048100163	 0.3216367596	-0.1928018855	-0.141532
N	 0.7474330431	-0.4102161164	-1.3791820425	-0.066289
C	 2.1664409193	-0.3490933439	-1.6783669712	-0.345353
C	-0.1993031564	-0.9205624012	-2.2173738678	 0.297594
N	-1.4549478858	-0.7348956107	-1.9910471073	-0.54417
C	 0.2608872636	-1.8196628824	-3.3658240967	 0.29497
C	-0.32413514	-1.5245272712	-4.7334457377	-0.480551
O	 1.0253528803	-2.7380779251	-3.1751664172	-0.297333
H	 0.8636199406	 2.3269109723	-0.8655607802	 0.110494
H	-0.8313449994	 1.883234778	-1.1713778124	 0.144898
H	-0.297229354	 2.296578447	 0.4685834855	 0.115294
H	 1.097311966	 0.2283043872	 0.5585295304	 0.096883
H	-0.5887417936	-0.177426802	 0.1874143394	 0.140646
H	 2.4020448036	-0.9053536263	-2.5819727099	 0.153105
H	 2.4988085505	 0.6897294198	-1.8089330051	 0.118416
H	 2.7459917408	-0.7874539698	-0.856937942	 0.130686
H	-2.0264510552	-1.2363840212	-2.6655755349	 0.213034
H	 0.0303873209	-0.5428030686	-5.0704288978	 0.148601
H	-0.0023205093	-2.2929829089	-5.4371529341	 0.145536
H	-1.4156133208	-1.4687445749	-4.715375923	 0.146056
28.7223	62.6259	70.5161	98.541	101.5999	168.7365	208.4754	242.5279	286.393	341.063	381.7877	420.2814	469.8288	553.9258	614.1834	693.1284	718.772	773.2983	790.3565	852.2271	958.5886	1004.1147	1037.7305	1078.985	1104.7824	1120.8141	1159.3616	1187.3832	1246.444	1270.37	1365.3787	1385.3154	1392.5429	1408.287	1454.1409	1459.2161	1470.3012	1472.3551	1482.5578	1489.2551	1494.3712	1506.5627	1529.5238	1647.5234	1794.0842	3008.855	3039.5199	3040.7135	3040.9217	3056.1431	3099.0446	3107.9803	3117.8039	3135.6541	3156.3471	3180.9259	3519.4205
CCN(C)C(=N)C(C)=O	CCN(C)C(=N)C(=O)C	
InChI=1S/C6H12N2O/c1-4-8(3)6(7)5(2)9/h7H,4H2,1-3H3	InChI=1S/C6H12N2O/c1-4-8(3)6(7)5(2)9/h7H,4H2,1-3H3
