15
gdb 16218	3.11538	2.33802	1.50994	4.2156	61.63	-0.2407	0.0107	0.2514	823.6555	0.120352	-399.820583	-399.813638	-399.812694	-399.851928	25.865	
O	 0.0244771342	-0.0284156638	 0.0369970571	-0.376762
C	 0.0103491478	 1.181097927	 0.0851358722	 0.370671
N	-1.0872710662	 1.9955236753	 0.1214363794	-0.325574
C	-0.8092784516	 3.4221570809	 0.0255250166	-0.170119
C	 0.6949306439	 3.5095074505	 0.3878409457	-0.319631
C	 1.2147811461	 2.1115899014	 0.1103886508	 0.320746
C	 2.5538045164	 1.5939602418	 0.3886711069	-0.239024
O	 2.1556519594	 1.9027311323	-0.9488587145	-0.262479
H	-2.0088726514	 1.6067973292	-0.0021098976	 0.255813
H	-1.0007772595	 3.800283613	-0.9873075424	 0.120424
H	-1.4334624587	 3.9926343273	 0.719672592	 0.118343
H	 1.2269477402	 4.262204066	-0.1959053416	 0.131092
H	 0.8087683742	 3.7506731084	 1.4490742012	 0.123962
H	 3.3014303732	 2.2583433455	 0.820600389	 0.113432
H	 2.664960962	 0.5330266953	 0.6035991651	 0.139106
83.8306	156.293	258.251	268.1591	354.7019	462.8425	526.2912	582.2081	701.9182	708.0407	750.074	800.5365	886.3507	908.7918	941.8993	986.5155	1070.5287	1091.604	1130.7748	1149.1433	1177.9513	1212.1362	1229.0225	1300.868	1302.4098	1351.296	1427.1213	1451.396	1478.7695	1517.7886	1535.4094	1838.3571	3015.7275	3059.075	3076.0845	3085.4053	3127.0124	3182.9107	3640.978
O=C1NCCC11CO1	O=C1NCC[C@]21CO2	
InChI=1S/C5H7NO2/c7-4-5(3-8-5)1-2-6-4/h1-3H2,(H,6,7)	InChI=1S/C5H7NO2/c7-4-5(3-8-5)1-2-6-4/h1-3H2,(H,6,7)/t5-/m1/s1
