14
gdb 127805	3.70986	1.30888	0.97345	3.3416	68.97	-0.2445	-0.0636	0.1809	1130.3431	0.100524	-466.168758	-466.160431	-466.159487	-466.202504	28.641	
C	 0.1302253356	 1.4089933061	-0.0216877291	-0.322939
N	 0.0609085069	-0.0337092964	 0.0295241208	-0.051175
N	-0.0761930976	-0.7953880063	-1.0803663893	-0.062275
N	-0.1110873425	-2.0169575527	-0.7704712695	-0.093275
N	 0.0074799306	-2.0974936688	 0.6147734091	-0.149108
C	 0.0047387425	-3.3199115321	 1.2867260521	 0.186607
O	-0.0965934468	-4.3894850632	 0.7579031756	-0.258651
C	 0.122898875	-0.8084115323	 1.1747467089	 0.508858
N	 0.2508760505	-0.3415510921	 2.3499983567	-0.58211
H	 1.0783316076	 1.7546009333	 0.3986811442	 0.161377
H	 0.051542109	 1.7061202369	-1.0669980419	 0.165244
H	-0.6881467942	 1.8448724861	 0.557364894	 0.16144
H	 0.1090296218	-3.1662561565	 2.3754563391	 0.104679
H	 0.2779127718	-1.0579933621	 3.0687366393	 0.231329
62.6633	84.611	180.8342	188.738	200.8177	283.3621	284.3911	411.6776	548.0227	670.6984	708.3982	712.6932	721.5656	791.9994	816.9839	994.0292	1019.6303	1039.8861	1121.596	1159.4134	1194.818	1302.3906	1338.3248	1422.3799	1443.7319	1453.8698	1471.5583	1509.324	1515.958	1753.1263	1841.4173	2980.7705	3055.5088	3120.9413	3170.4742	3548.1931
CN1N=NN(C=O)C1=N	CN1N=NN(C=O)[C@@H]1[NH]	
InChI=1S/C3H5N5O/c1-7-3(4)8(2-9)6-5-7/h2,4H,1H3	InChI=1S/C3H6N5O/c1-7-3(4)8(2-9)6-5-7/h2-4H,1H3/t3-/m1/s1
