20
gdb 14349	4.36463	1.55202	1.3343	1.8545	73.96	-0.2408	0.0792	0.32	991.3809	0.179117	-349.004829	-348.99744	-348.996496	-349.036598	28.735	
C	-0.5145060004	 1.4721118032	-0.0101716853	-0.404271
C	 0.0673202968	 0.0604215884	 0.007335086	 0.053087
C	 0.8397370302	-0.3338746471	-1.27183485	-0.23555
C	 1.6588905836	-1.5721816205	-0.8651343535	-0.066662
C	 3.1943348666	-1.4797799974	-0.9591238075	-0.084996
O	 3.3084039274	-1.1578906689	 0.4431242205	-0.295577
C	 1.8972294149	-1.417223082	 0.6606298602	 0.133407
C	 1.0879497096	-0.2021919375	 1.1393418818	-0.240661
H	 0.2782219842	 2.218908109	-0.136383113	 0.114692
H	-1.2279649151	 1.6004589187	-0.8313338399	 0.111525
H	-1.0394160088	 1.6991417809	 0.9237501128	 0.113419
H	-0.7597528142	-0.6540682938	 0.1300581501	 0.071
H	 0.1764428254	-0.5169523484	-2.1222934618	 0.095258
H	 1.5091415969	 0.4882863035	-1.5573661666	 0.098222
H	 1.2145468575	-2.5076089521	-1.2089916198	 0.072819
H	 3.6972710633	-2.4264182973	-1.1975533244	 0.094458
H	 3.6019906018	-0.6887749804	-1.6014410411	 0.097218
H	 1.758513681	-2.3092223706	 1.2827163374	 0.069041
H	 1.7740843519	 0.646788308	 1.2389729811	 0.110024
H	 0.6064600873	-0.3568906058	 2.109256213	 0.093546
84.9982	115.6459	239.349	280.2381	383.4581	405.0732	410.4671	516.8812	638.7311	754.345	833.2945	846.6192	859.0779	895.3422	913.3052	943.0515	963.1385	1004.97	1022.8753	1042.4038	1079.1596	1093.9959	1127.9412	1150.7351	1163.6884	1195.1094	1209.0721	1259.0071	1261.7035	1284.5756	1307.5112	1336.9494	1348.1802	1358.473	1366.1319	1383.9945	1414.1674	1481.7599	1495.3672	1498.0346	1501.651	1525.1372	2994.5172	3002.8832	3022.7011	3026.2565	3029.5314	3044.7427	3046.3523	3078.0066	3090.4327	3094.6841	3096.2363	3101.2754
CC1CC2COC2C1	C[C@H]1C[C@H]2CO[C@H]2C1	
InChI=1S/C7H12O/c1-5-2-6-4-8-7(6)3-5/h5-7H,2-4H2,1H3	InChI=1S/C7H12O/c1-5-2-6-4-8-7(6)3-5/h5-7H,2-4H2,1H3/t5-,6-,7-/m0/s1
