23
gdb 91361	2.41995	1.60501	1.30533	1.522	84.27	-0.2352	0.0825	0.3177	1121.5714	0.208237	-388.316361	-388.308109	-388.307165	-388.348623	33.675	
C	-0.2551331186	 1.5448529933	-0.0232634265	-0.424893
C	 0.0299052431	 0.0432051042	-0.0165898267	 0.044141
C	 0.7930528461	-0.4918494007	-1.2777690864	-0.234973
C	 1.9059938261	-1.3535261843	-0.6472278413	 0.115291
C	 1.2315580134	-1.9180186711	 0.6103133251	-0.241763
C	 0.9136789245	-0.5029748417	 1.1419454673	-0.050486
C	 2.3177896891	 0.1377213651	 1.0686942066	 0.152402
C	 3.2130096847	-0.0952339153	 2.2802685634	-0.407178
O	 2.9028811029	-0.4748390068	-0.1054565432	-0.298458
H	 0.6528912347	 2.1385486288	-0.1676989395	 0.123377
H	-0.9404784444	 1.8000528911	-0.8385430527	 0.114536
H	-0.7227737265	 1.8673304212	 0.9138677111	 0.109275
H	-0.9351031488	-0.4731960301	 0.0544078524	 0.067733
H	 0.1425817072	-1.0762714596	-1.9361553332	 0.09173
H	 1.2351343906	 0.314982827	-1.8691711543	 0.10342
H	 2.4036613446	-2.0526725026	-1.3205346159	 0.068293
H	 0.3350444143	-2.5089134408	 0.4043956369	 0.092923
H	 1.9155403472	-2.4979945624	 1.2331246304	 0.100285
H	 0.4513937122	-0.4351816895	 2.1286752867	 0.058607
H	 2.2514901937	 1.2183148703	 0.8926081131	 0.068062
H	 3.2522398564	-1.1523392111	 2.5590376572	 0.115119
H	 4.2324382925	 0.2318087192	 2.0551524936	 0.124464
H	 2.8518169648	 0.4778317056	 3.1412212858	 0.108091
125.058	180.2241	212.4887	249.3742	276.4343	312.5528	397.6653	447.9713	476.584	499.8394	602.7622	712.6945	790.4224	815.5623	830.6735	840.2686	899.1979	911.0048	947.3523	955.6453	967.3961	983.7664	1022.8922	1039.9122	1067.1007	1079.0924	1099.8159	1133.714	1141.7553	1160.8463	1208.2751	1214.6195	1243.1355	1275.3262	1298.715	1310.2444	1321.624	1349.1608	1360.8133	1379.5199	1398.3528	1406.1192	1417.7087	1481.5478	1486.9284	1493.3998	1498.798	1503.4522	1504.6912	3018.6804	3021.3616	3031.1299	3036.3582	3049.167	3067.0436	3091.9784	3096.8362	3097.3446	3104.3242	3107.1688	3111.9954	3116.0387	3123.7567
CC1CC2CC1C(C)O2	C[C@H]1C[C@@H]2C[C@H]1[C@@H](C)O2	
InChI=1S/C8H14O/c1-5-3-7-4-8(5)6(2)9-7/h5-8H,3-4H2,1-2H3	InChI=1S/C8H14O/c1-5-3-7-4-8(5)6(2)9-7/h5-8H,3-4H2,1-2H3/t5-,6+,7+,8+/m0/s1
