20
gdb 100080	2.56843	1.04225	0.98967	5.4705	71.3	-0.2458	0.031	0.2768	1308.9662	0.169854	-477.460305	-477.450375	-477.449431	-477.494913	37.068	
C	 0.0944876202	 1.6303927608	 0.1180565229	-0.419097
C	-0.0050221375	 0.0969295159	 0.0848959223	 0.213709
N	 0.5100090708	-0.5154115282	 1.3370899581	-0.548558
H	-0.1879561519	-0.3885481525	 2.0655255527	 0.252964
H	 0.8103809403	-2.0692452775	 0.6183401107	 0.316035
H	 1.3570241497	-0.0420203424	 1.6387916431	 0.238151
C	-1.4742259992	-0.334764817	-0.0432533951	-0.083968
O	-2.1662416486	 0.1337759131	 1.1091568049	-0.431041
C	 0.8110882342	-0.461013216	-1.1025780144	-0.355478
C	 0.8262472298	-1.9876402204	-1.2811138156	 0.386858
O	 0.8702309624	-2.7025960144	-0.1508382012	-0.376444
O	 0.8307494875	-2.5031206461	-2.3689122415	-0.335207
H	 1.1346392882	 1.9454599968	 0.2560579607	 0.109646
H	-0.2645605668	 2.070169442	-0.8182077152	 0.121851
H	-0.5057146417	 2.0343514403	 0.9368845741	 0.136814
H	-1.8953137481	 0.0929502462	-0.96426446	 0.103866
H	-1.5302820346	-1.4286845645	-0.1140870077	 0.116555
H	-3.0350739207	-0.2765687964	 1.1322309019	 0.298742
H	 0.4603335343	-0.0342588361	-2.044655883	 0.131284
H	 1.8549781918	-0.1406352237	-0.9836048477	 0.123321
75.6581	108.5338	139.1239	214.9123	251.098	257.1832	274.0019	313.3178	355.3139	385.0442	403.6045	429.5275	462.0372	554.5224	615.3322	701.7738	779.5655	874.4059	896.2744	939.7878	960.5942	969.2838	983.4504	1021.7439	1073.011	1100.8391	1141.91	1172.8197	1217.8665	1269.1737	1275.4794	1309.6578	1335.2116	1360.6422	1406.8219	1454.898	1463.0817	1489.6169	1503.6798	1513.7893	1519.4428	1640.3804	1854.5539	3000.0715	3028.5149	3034.6025	3047.7765	3098.3549	3114.7227	3126.1104	3141.6681	3486.7883	3567.0114	3842.5632
CC([NH3+])(CO)CC([O-])=O	C[C@@](N)(CO)CC(=O)O	
InChI=1S/C5H11NO3/c1-5(6,3-7)2-4(8)9/h7H,2-3,6H2,1H3,(H,8,9)	InChI=1S/C5H11NO3/c1-5(6,3-7)2-4(8)9/h7H,2-3,6H2,1H3,(H,8,9)/t5-/m0/s1
