19
gdb 112636	2.68228	1.23465	0.89283	5.5921	81.2	-0.2144	0.0007	0.2151	1318.2259	0.160048	-419.265465	-419.256231	-419.255287	-419.299977	34.096	
C	 0.1831007598	 1.5555921932	-0.1335626957	-0.377275
C	-0.00981465	 0.0677146526	 0.1763491477	-0.147161
N	 0.6994110356	-0.3770387291	 1.354300024	-0.10661
C	 2.1276639928	-0.5530142742	 1.424161415	-0.252463
C	 2.3242230462	-1.1975572347	 2.7802165756	 0.357558
N	 3.5940999398	-1.435073859	 3.2431441701	-0.581222
C	 1.1302036195	-1.3753751758	 3.3760239846	-0.36223
C	 0.0616966211	-0.8855092003	 2.4843905253	 0.441089
O	-1.1436431264	-0.9045236617	 2.648740076	-0.41748
H	 1.2346541235	 1.7975802763	-0.3224681639	 0.109467
H	-0.3859298698	 1.8344932817	-1.0262707805	 0.115647
H	-0.1629845548	 2.1707521542	 0.702048738	 0.131409
H	-1.0641637979	-0.1443160882	 0.3742283049	 0.143746
H	 0.2936827719	-0.5360192606	-0.6923888578	 0.090091
H	 2.5040716003	-1.2025454608	 0.6160160699	 0.110376
H	 2.6794815438	 0.3961542511	 1.3596220618	 0.126753
H	 4.3115631429	-1.5861578959	 2.5504316169	 0.255168
H	 3.6755065505	-2.0491882328	 4.0391087193	 0.261023
H	 0.9248209511	-1.8054846161	 4.3448386287	 0.102113
47.5298	78.2022	192.1928	199.3683	205.9644	292.5288	326.9978	354.4484	381.8997	484.7994	541.6977	551.1296	577.7319	671.819	738.3552	781.4965	805.2562	825.7515	906.1054	960.936	1017.7533	1065.4943	1094.4341	1097.99	1157.921	1194.4892	1231.7819	1258.2089	1275.5062	1354.2138	1395.1406	1403.7307	1412.7274	1430.436	1481.0168	1492.5726	1500.9158	1509.3958	1645.8519	1701.2647	1794.8173	2967.1804	2987.8278	3008.5483	3034.2685	3089.7418	3108.0808	3118.2032	3245.9582	3574.7686	3678.6267
CCN1CC(N)=CC1=O	CCN1CC(=CC1=O)N	
InChI=1S/C6H10N2O/c1-2-8-4-5(7)3-6(8)9/h3H,2,4,7H2,1H3	InChI=1S/C6H10N2O/c1-2-8-4-5(7)3-6(8)9/h3H,2,4,7H2,1H3
