22
gdb 118887	3.13442	1.05593	0.94958	2.3382	82.36	-0.2298	0.0809	0.3108	1357.0468	0.193256	-404.289124	-404.279652	-404.278707	-404.323519	35.445	
C	-0.0184185609	 1.39037845	 0.0701227583	-0.223137
O	-0.0255953398	-0.015233819	 0.1297520667	-0.238367
C	-1.2978494395	-0.5748826869	-0.1258118929	-0.115813
C	-1.1802767161	-2.091892941	-0.0372491774	 0.309557
C	-0.2425728124	-2.6301034935	-1.1192193974	-0.453479
C	-0.8812497929	-2.7057407153	 1.3628182679	-0.206859
N	-2.1003547257	-3.5945955257	 1.3076657159	-0.127532
C	-3.248678971	-2.6748117848	 1.2761084072	-0.25218
C	-2.4958719878	-2.8803256428	 0.0227115228	-0.083157
H	 0.9992372516	 1.7233896783	 0.2884504882	 0.127682
H	-0.3073165047	 1.7585825941	-0.9271107896	 0.104304
H	-0.7039428536	 1.8348041921	 0.8093768339	 0.103155
H	-2.0302662399	-0.192516149	 0.6031768924	 0.080302
H	-1.6561429374	-0.280229046	-1.1288436599	 0.082273
H	 0.7486532617	-2.1804360441	-1.0210163169	 0.134308
H	-0.1451154137	-3.7174645513	-1.0459852171	 0.121588
H	-0.6249653612	-2.3921588686	-2.1190861645	 0.107724
H	 0.0291592439	-3.306889362	 1.3957953972	 0.110489
H	-0.8833675895	-2.0143499332	 2.2120140347	 0.10134
H	-4.2031351793	-3.185068897	 1.3678899132	 0.119759
H	-3.1881256348	-1.7345034056	 1.8199775058	 0.109065
H	-2.916041267	-3.4264217588	-0.8177333485	 0.08898
72.9431	91.4736	140.9935	195.6713	227.3199	242.9206	283.1392	346.652	361.504	416.6653	471.372	507.9323	681.2577	747.7441	778.7136	856.0217	906.0765	945.7468	970.137	978.3418	988.7051	1002.0055	1021.9014	1059.9856	1104.3062	1119.4724	1153.8945	1176.8456	1187.0034	1193.1875	1208.9524	1225.3018	1236.797	1272.7823	1290.5077	1299.6717	1378.6477	1400.3016	1421.2492	1481.3572	1485.0268	1489.6873	1496.7644	1499.1784	1502.1916	1511.6724	1527.1611	2941.6081	2969.681	2985.6032	3012.7966	3028.9427	3047.9732	3095.1308	3103.4987	3113.1371	3114.4776	3124.4525	3143.3362	3191.7802
COCC1(C)CN2CC12	COC[C@@]1(C)CN2C[C@@H]12	
InChI=1S/C7H13NO/c1-7(5-9-2)4-8-3-6(7)8/h6H,3-5H2,1-2H3	InChI=1S/C7H13NO/c1-7(5-9-2)4-8-3-6(7)8/h6H,3-5H2,1-2H3/t6-,7+,8?/m0/s1
