21
gdb 60075	2.26626	1.313	0.93032	1.0209	85.77	-0.2391	0.038	0.277	1337.0942	0.178412	-387.040181	-387.029823	-387.028879	-387.076056	38.626	
C	-0.2251335858	 1.4466577102	-0.3258819565	-0.385475
C	 0.0678490032	-0.0193226032	-0.0095853708	 0.127391
C	 1.0707618202	-0.6334643246	-0.982098703	-0.382806
O	 0.6375837014	-0.1328311903	 1.3096945374	-0.291817
C	-0.2214792134	-0.5674259368	 2.3191560595	 0.247252
C	-0.4956091161	-2.0634723068	 2.4100693981	-0.316073
C	 0.4534608224	-1.4061317032	 3.3773842353	-0.307853
C	-1.2690435544	 0.3400891333	 2.7253101198	 0.313764
C	-2.1479902216	 1.0879678642	 3.0661044162	-0.500457
H	 0.6981456097	 2.0330795797	-0.2786198537	 0.119458
H	-0.6453145013	 1.5456758164	-1.3323777083	 0.107242
H	-0.9358592178	 1.8640458085	 0.3901354132	 0.13255
H	-0.8666204862	-0.5955065125	-0.0383532499	 0.080899
H	 2.0296516854	-0.1095630836	-0.9146923991	 0.12484
H	 1.2428093133	-1.6887528056	-0.7523385308	 0.113405
H	 0.7087695576	-0.5566301211	-2.0121479308	 0.112404
H	-1.4670351527	-2.3830787227	 2.7680396983	 0.12636
H	-0.066917837	-2.6709673478	 1.6214791084	 0.124328
H	 1.5148468632	-1.564225947	 3.2270195819	 0.130919
H	 0.1412384309	-1.2698392617	 4.4054983174	 0.127481
H	-2.918314791	 1.7532282847	 3.3687089172	 0.196187
24.5059	83.4889	149.4277	186.1865	208.4483	220.59	253.3419	293.9067	342.8165	409.7756	429.8723	470.6188	560.062	572.9732	591.9776	672.896	697.5766	776.4246	823.2774	897.9273	902.0424	928.014	939.049	954.3863	961.8177	1036.4649	1061.6727	1081.0626	1143.1919	1149.4978	1193.5223	1205.1956	1270.649	1297.5585	1361.7438	1385.2326	1398.8363	1415.1529	1450.7436	1479.3885	1483.3771	1485.3515	1494.436	1509.6368	2227.1293	3016.119	3036.2687	3041.2485	3104.7585	3114.194	3114.9783	3135.3718	3142.6149	3147.972	3231.6171	3246.3846	3500.9305
CC(C)OC1(CC1)C#C	CC(C)OC1(CC1)C#C	
InChI=1S/C8H12O/c1-4-8(5-6-8)9-7(2)3/h1,7H,5-6H2,2-3H3	InChI=1S/C8H12O/c1-4-8(5-6-8)9-7(2)3/h1,7H,5-6H2,2-3H3
