18
gdb 41299	3.67458	1.7505	1.643	0.8417	74.2	-0.2183	0.0604	0.2787	880.1923	0.150578	-401.829755	-401.823751	-401.822807	-401.859661	26.368	
C	 0.0154493834	 1.4828632116	 0.1675023855	-0.149274
O	 1.4348766241	 1.5841939575	-0.2270136258	-0.36092
C	 1.3137638248	 0.2654711339	-0.753727586	 0.442451
C	 2.1032084864	-1.0274373463	-0.7652784829	-0.33621
C	 0.8973398464	-1.7504216055	-1.4959055875	-0.002657
C	 0.9450697103	-1.0990828407	-2.8895656812	-0.239256
C	 0.4407036731	 0.0922021963	-2.0925404505	-0.05548
N	-0.3911604801	-0.8450180302	-1.2088003306	-0.184986
C	 0.0547915305	-0.071447168	-0.0067511155	-0.032513
H	-0.1231244244	 1.8230794591	 1.1960764394	 0.120288
H	-0.633465865	 2.0498239232	-0.5061118346	 0.120162
H	 3.0038314711	-1.0685944694	-1.3821123907	 0.109693
H	 2.3263843828	-1.3991461589	 0.236889118	 0.10714
H	 0.7706974672	-2.8187216896	-1.3326061483	 0.084975
H	 1.9094202227	-1.0480415978	-3.3995094556	 0.100029
H	 0.1699084642	-1.4766875284	-3.5597464834	 0.116904
H	-0.030281053	 0.9741762683	-2.5242637186	 0.079215
H	 0.0641541356	-0.6238359554	 0.9351551082	 0.08044
278.1311	313.6875	343.7057	449.1251	475.3698	542.0641	666.2071	681.1172	730.9254	780.2058	794.1192	823.7747	882.7259	903.7174	920.1274	931.5755	946.2833	982.3747	1004.049	1018.6647	1040.3311	1068.0354	1072.5431	1114.1566	1147.201	1158.4027	1173.7286	1193.157	1204.1515	1227.6006	1256.1614	1258.927	1288.2143	1322.6605	1342.4504	1348.5273	1481.2935	1504.7842	1514.4963	3054.5757	3066.9301	3070.966	3083.6286	3116.5795	3121.4806	3127.7061	3129.9232	3139.4659
C1OC23CC4CC2N4C13	C1O[C@]23C[C@@H]4C[C@H]2N4[C@H]13	
InChI=1S/C7H9NO/c1-4-2-7-5(1)8(4)6(7)3-9-7/h4-6H,1-3H2	InChI=1S/C7H9NO/c1-4-2-7-5(1)8(4)6(7)3-9-7/h4-6H,1-3H2/t4-,5+,6+,7+/m0/s1
