27
gdb 122127	2.05907	0.69633	0.55557	1.3219	93.35	-0.2614	0.0808	0.3422	2111.9923	0.250017	-390.699283	-390.687039	-390.686095	-390.737937	43.424	
C	 0.1416183216	 1.526844914	-0.1412274689	-0.388026
C	 0.0404178867	-0.0018807911	-0.1751902181	-0.181562
C	-1.3787767858	-0.5592898604	 0.0644886079	 0.060346
C	-2.2841899679	-0.3247779472	-1.1630227359	-0.182212
C	-3.785660105	-0.4585787888	-0.887329989	-0.388146
C	-1.3334276635	-2.0547432199	 0.4437816394	-0.201829
C	-0.8401593834	-2.3389338574	 1.8669671639	-0.173941
C	-0.8170813074	-3.8259427822	 2.1957269905	-0.073449
O	-0.3492973825	-3.9748816545	 3.5286818927	-0.422259
H	 1.1725167705	 1.8548055772	-0.3086665957	 0.110657
H	-0.4792311213	 2.0017401141	-0.9074683726	 0.116837
H	-0.1767803418	 1.9190391037	 0.8311944388	 0.114324
H	 0.4058850521	-0.3763179076	-1.1417769395	 0.089979
H	 0.7221845548	-0.4080464444	 0.5805161472	 0.09479
H	-1.8165610452	-0.0109833621	 0.9132058578	 0.06194
H	-2.0966188589	 0.6773891482	-1.5648315394	 0.092686
H	-1.9891819414	-1.0257862871	-1.9564787298	 0.089944
H	-4.3690433913	-0.2719872099	-1.7946751197	 0.110554
H	-4.054385884	-1.456845486	-0.5275593464	 0.116618
H	-4.1112740332	 0.2632029442	-0.1297800569	 0.11396
H	-2.3349600048	-2.4886353831	 0.3340088159	 0.090178
H	-0.6969696818	-2.5821105257	-0.2818858788	 0.089018
H	 0.1696308106	-1.9430970234	 2.023298483	 0.108734
H	-1.4877320214	-1.8342682395	 2.594760016	 0.103413
H	-1.828848134	-4.2489867631	 2.0795490339	 0.081633
H	-0.1620866903	-4.3540456738	 1.4828462516	 0.081905
H	-0.3360568214	-4.9128956943	 3.7393740423	 0.283907
57.4452	66.1141	72.5248	92.429	132.747	142.4048	201.4833	218.9599	252.263	263.7009	277.6034	308.7699	366.2576	446.4512	473.141	515.3278	746.2389	760.6484	779.6913	829.38	880.5938	923.9628	971.4637	1015.276	1021.8318	1035.3369	1046.8932	1056.2817	1062.2926	1077.5843	1147.5477	1172.7952	1183.0004	1221.1665	1235.751	1275.5402	1285.6269	1313.789	1317.8761	1318.6202	1338.9904	1351.436	1379.489	1392.0669	1399.5111	1414.2638	1416.9837	1461.9605	1480.3319	1487.2057	1488.7624	1498.9187	1500.5699	1504.8695	1506.2411	1508.9335	1528.9206	2955.3855	2979.8266	2981.6891	3002.7823	3009.6921	3018.6678	3032.1113	3032.8237	3033.5549	3044.6444	3054.9812	3058.2728	3081.0889	3096.9481	3097.7476	3103.1091	3105.7219	3829.4469
CCC(CC)CCCO	CCC(CC)CCCO	
InChI=1S/C8H18O/c1-3-8(4-2)6-5-7-9/h8-9H,3-7H2,1-2H3	InChI=1S/C8H18O/c1-3-8(4-2)6-5-7-9/h8-9H,3-7H2,1-2H3
