16
gdb 82158	3.14429	1.18977	1.02892	1.7519	66.4	-0.2464	0.0237	0.2701	1157.0127	0.123595	-474.996068	-474.987688	-474.986744	-475.030329	30.26	
O	-0.1684604897	 1.4446543915	 0.2427411536	-0.427313
C	-0.0789252897	 0.0568005008	 0.1049536234	 0.104633
C	-1.4224101287	-0.6540283308	-0.0166928931	-0.001175
O	-2.0316441151	-0.2408543575	-1.2470817828	-0.247778
C	-1.039096023	-1.2712110083	-1.3021506139	 0.007259
C	 0.3094343211	-0.5426925356	-1.3242761194	-0.076714
N	 0.4668859684	 0.403573009	-2.391258382	-0.253454
C	 1.6563528332	 0.6499161919	-3.0028912624	 0.148138
O	 2.6975102987	 0.0737317872	-2.7648241224	-0.329004
H	 0.7243666251	 1.8056926344	 0.2500410067	 0.293758
H	 0.539225023	-0.4084167614	 0.8853596074	 0.084205
H	-2.0824555142	-1.0092119855	 0.7647985738	 0.11675
H	-1.3221464407	-2.2208126008	-1.7401060539	 0.116297
H	 1.1928952777	-1.1789463487	-1.2922826584	 0.120701
H	-0.3288376748	 0.990560882	-2.5914847616	 0.264578
H	 1.5669193687	 1.4472422818	-3.7665576849	 0.079119
25.2381	120.8003	171.4023	204.8076	230.4462	267.2058	325.7596	491.746	569.5771	594.4104	649.9094	735.4221	761.5572	852.9439	865.4755	891.0094	914.0071	963.4876	1017.0958	1033.5174	1052.1796	1095.8397	1141.1279	1184.9334	1216.8893	1226.4749	1247.3474	1250.8444	1310.9286	1332.2479	1378.4802	1429.5515	1437.5127	1527.6924	1800.442	2942.6611	3010.6345	3139.1554	3191.034	3206.8768	3628.5158	3814.6751
OC1C2OC2C1NC=O	O[C@H]1[C@H]2O[C@H]2[C@H]1NC=O	
InChI=1S/C5H7NO3/c7-1-6-2-3(8)5-4(2)9-5/h1-5,8H,(H,6,7)	InChI=1S/C5H7NO3/c7-1-6-2-3(8)5-4(2)9-5/h1-5,8H,(H,6,7)/t2-,3+,4-,5+/m0/s1
