13
gdb 17157	4.25345	2.03206	1.651	4.5716	62.71	-0.2616	-0.0121	0.2495	762.4169	0.095921	-361.373347	-361.367402	-361.366458	-361.403397	23.073	
N	-0.0127272259	-1.0767390448	 0.0445637818	-0.339775
C	-0.0304584837	 0.0791033567	 0.04965782	 0.170088
C	-0.027161626	 1.5169253957	 0.0195927584	 0.411879
O	-0.6992639798	 2.2776762422	 1.0594731188	-0.344093
C	-0.1382098769	 3.2875814925	 0.1628196692	 0.0597
C	 1.1862262928	 2.5058786327	-0.1096307853	-0.125109
C	 1.0195515127	 2.6180094575	-1.6395393153	-0.279463
C	-0.4363692487	 2.4878857401	-1.1452352099	-0.125134
H	-0.2981421933	 4.3377130863	 0.3951419462	 0.116136
H	 2.0807792036	 2.4937369944	 0.5110347762	 0.108067
H	 1.2937397495	 3.5765359045	-2.0858006951	 0.114598
H	 1.4091799925	 1.789911362	-2.2356223704	 0.125056
H	-1.3756730668	 2.4553987803	-1.6950082347	 0.108051
146.5329	179.5417	379.7808	493.0047	537.4619	557.8899	558.1377	740.6463	778.8766	814.8475	856.0132	896.6175	896.9768	925.9082	998.7387	1034.045	1055.033	1069.5577	1105.7431	1149.5653	1167.9452	1180.4104	1237.3259	1240.1479	1261.1508	1337.8875	1514.2824	2356.0905	3068.0423	3127.5316	3138.5355	3139.681	3160.3422
N#CC12OC3C1CC23	N#C[C@@]12O[C@H]3[C@@H]1C[C@@H]23	
InChI=1S/C6H5NO/c7-2-6-3-1-4(6)5(3)8-6/h3-5H,1H2	InChI=1S/C6H5NO/c7-2-6-3-1-4(6)5(3)8-6/h3-5H,1H2/t3-,4+,5-,6+
