22
gdb 31693	3.67297	0.8523	0.77375	1.7843	91.48	-0.1905	0.0497	0.2401	1611.6038	0.194739	-367.266606	-367.256708	-367.255764	-367.302227	36.462	
C	 0.1001329278	 1.517421186	-0.3688764584	-0.36381
C	-0.0147591979	 0.0858017657	 0.1865946763	-0.297835
C	-1.4068783631	-0.4629931729	 0.1681318864	 0.33219
C	-2.2948533605	-0.7199974396	 1.1893706732	-0.338323
C	-3.5065308122	-1.2247083348	 0.6229421045	 0.299334
C	-4.7518963524	-1.6252286747	 1.3609082929	-0.295322
C	-5.4933235074	-0.4387991165	 2.0002114821	-0.359846
C	-3.312950445	-1.2575239937	-0.7389997902	-0.19595
N	-2.0454931512	-0.7942609912	-1.0048501797	-0.302425
H	 1.1351112762	 1.8719665021	-0.3279274352	 0.110795
H	-0.2288900655	 1.5690847457	-1.4122937589	 0.107391
H	-0.523663885	 2.2071922408	 0.2072298394	 0.125536
H	 0.6603569563	-0.5736341009	-0.3769798438	 0.099134
H	 0.3406826969	 0.0682412563	 1.2217668405	 0.114035
H	-2.0936577894	-0.5673377433	 2.2402496691	 0.081551
H	-5.4283550785	-2.145365657	 0.6722963915	 0.092347
H	-4.5018061177	-2.3509778375	 2.1461102222	 0.09848
H	-6.3864884473	-0.7738806659	 2.5383151861	 0.102793
H	-4.849836328	 0.0896488778	 2.7109019044	 0.115557
H	-5.8033995265	 0.2826167065	 1.2375506233	 0.114088
H	-3.9683605958	-1.5770408159	-1.5342292581	 0.107585
H	-1.6354507638	-0.7293064068	-1.9200299577	 0.252696
50.1685	51.4966	112.5954	168.1608	196.2126	223.2052	297.1549	321.0248	401.8658	407.6998	480.4385	574.1286	656.8073	696.5119	701.0462	725.5506	783.319	788.0107	811.9407	946.9514	949.2101	999.6139	1010.5469	1062.9524	1063.6581	1083.5957	1088.1072	1136.7787	1174.8347	1246.1104	1278.9303	1301.0729	1318.7358	1354.3546	1364.2396	1405.6447	1409.8199	1431.3452	1459.1627	1483.0628	1483.7053	1495.7453	1497.9535	1504.1682	1506.1037	1546.9465	1633.3511	3006.8633	3014.6211	3031.358	3033.7928	3052.1998	3072.9779	3100.5745	3102.2006	3107.1461	3113.4637	3229.8546	3252.3562	3679.1436
CCC1=CC(CC)=CN1	CCc1cc(CC)c[nH]1	
InChI=1S/C8H13N/c1-3-7-5-8(4-2)9-6-7/h5-6,9H,3-4H2,1-2H3	InChI=1S/C8H13N/c1-3-7-5-8(4-2)9-6-7/h5-6,9H,3-4H2,1-2H3
