17
gdb 46591	2.67093	1.8411	1.43903	2.2959	72.	-0.2277	-0.023	0.2046	942.8397	0.136686	-421.796702	-421.78953	-421.788585	-421.82822	28.498	
O	-0.078171617	-0.0101640495	-0.0084063234	-0.316724
C	-0.0251662508	 1.1935144351	-0.0027895861	 0.312437
C	-1.2752012286	 2.1243060386	-0.1217810147	-0.20739
O	-0.8376073258	 3.3712228159	-0.6732840164	-0.296536
C	 0.5551902175	 3.4136044783	-0.5556365203	 0.378833
C	 1.1559461042	 3.3592303102	 0.7933017879	-0.379194
C	 1.1504123611	 2.090949898	-0.0683695516	 0.079779
C	 2.2394326835	 2.1765247593	-1.1592675153	-0.292417
C	 1.5579449824	 3.4836212312	-1.7124564322	-0.287824
H	-2.0106746013	 1.6695613859	-0.7910074369	 0.14358
H	-1.7474068349	 2.2659929562	 0.8607076052	 0.126564
H	 2.1276252369	 3.7992939091	 0.9967044197	 0.128494
H	 0.4651440159	 3.3836240968	 1.6278232767	 0.134543
H	 3.2602547559	 2.2863403262	-0.7842062494	 0.112459
H	 2.2102028634	 1.3419726987	-1.8607394069	 0.12992
H	 1.0663340427	 3.3104186455	-2.6712690584	 0.125058
H	 2.168204605	 4.3884356346	-1.7789359579	 0.108416
107.7471	158.3142	235.9479	341.6078	376.0531	451.0954	528.396	569.327	627.4866	657.7062	695.6306	747.1974	772.4956	846.4586	902.9004	922.4693	942.4579	945.8871	975.0853	1041.7601	1049.0719	1057.6049	1093.9537	1141.887	1196.8661	1208.2453	1233.0297	1247.0683	1282.4723	1306.1441	1350.1476	1368.1512	1473.4353	1477.566	1490.2314	1498.1792	1829.2835	3011.3807	3061.487	3069.2354	3094.5915	3120.9115	3128.6791	3137.6781	3225.0134
O=C1COC23CC12CC3	O=C1CO[C@@]23C[C@@]12CC3	
InChI=1S/C7H8O2/c8-5-3-9-7-2-1-6(5,7)4-7/h1-4H2	InChI=1S/C7H8O2/c8-5-3-9-7-2-1-6(5,7)4-7/h1-4H2/t6-,7-/m0/s1
