23
gdb 76207	2.13927	1.44664	1.23235	0.4475	81.35	-0.2439	0.0568	0.3008	1203.9572	0.201787	-425.432338	-425.421593	-425.420649	-425.466981	40.913	
C	 0.6159247363	 1.4808247291	-0.7260244251	-0.441769
C	 0.0394245704	 0.079023482	-0.5549779353	 0.386004
C	-1.3915168749	-0.0018944368	-1.0715586717	-0.433387
O	 0.8817038018	-0.9193491004	-1.2010587972	-0.3732
C	 1.2431475519	-1.5544562048	 0.0597370042	 0.386004
C	 0.8339925663	-3.0219576245	 0.0649470895	-0.433387
C	 2.7306631004	-1.3889237825	 0.3539343278	-0.441765
C	 0.2896171043	-0.5913153378	 0.8300405142	-0.017537
O	 0.7748156691	 0.1701141615	 1.9032881293	-0.423819
H	 1.6630138431	 1.5357034908	-0.4128049896	 0.10349
H	 0.5803191408	 1.7681197292	-1.7814868905	 0.126893
H	 0.0428835943	 2.2126135386	-0.1481248981	 0.124785
H	-1.4289762337	 0.2489385945	-2.1367334875	 0.121819
H	-1.7927478014	-1.0115205508	-0.9474539227	 0.116919
H	-2.0388718083	 0.6973555381	-0.5311085165	 0.117551
H	 1.3907716332	-3.5775419747	-0.6967884365	 0.12182
H	 1.0378355519	-3.4777572176	 1.0400367267	 0.117551
H	-0.2327103379	-3.1285392179	-0.1507348844	 0.116917
H	 3.0476042238	-0.3432187576	 0.2942543608	 0.103489
H	 2.9769806394	-1.7690110987	 1.3502875756	 0.124785
H	 3.3168439437	-1.9454250348	-0.3839720121	 0.12689
H	-0.5976959684	-1.1001471917	 1.2154426132	 0.086105
H	 1.5625474639	 0.6431008669	 1.617397386	 0.283843
75.3292	176.7894	184.7508	209.7087	216.5742	222.514	257.6611	267.6387	308.0226	309.2807	338.745	373.3391	383.1915	452.2058	531.482	569.2511	600.6648	760.9357	816.4598	857.2212	912.1572	930.9422	934.2349	978.3607	989.9167	993.9457	1004.4742	1136.0668	1147.29	1153.4452	1206.9731	1228.2867	1241.2481	1289.9099	1305.4218	1312.8337	1395.0161	1402.1681	1410.2167	1414.1437	1444.8274	1467.5508	1474.7454	1481.466	1487.3691	1489.2493	1500.1324	1503.8359	1512.8925	3031.2084	3031.9777	3037.1525	3039.4903	3075.3168	3102.0456	3102.4755	3102.7897	3108.3806	3112.5583	3114.8074	3115.4875	3116.2734	3823.2305
CC1(C)OC(C)(C)C1O	CC1(C)OC(C)(C)C1O	
InChI=1S/C7H14O2/c1-6(2)5(8)7(3,4)9-6/h5,8H,1-4H3	InChI=1S/C7H14O2/c1-6(2)5(8)7(3,4)9-6/h5,8H,1-4H3
