15
gdb 29241	3.20636	1.42504	0.99258	3.1857	71.97	-0.246	-0.0418	0.2042	1128.1326	0.113794	-454.016545	-454.008602	-454.007658	-454.04928	29.38	
C	-0.2982728029	 1.5303038471	 0.0165094099	-0.474251
C	-0.0054494537	 0.0609593285	-0.0215642361	 0.062631
C	 0.1392925036	-0.6432622121	-1.1496623999	 0.002258
O	 0.4055375732	-1.9775136695	-1.212875607	-0.227473
C	 0.5496709517	-2.7224945167	-0.0639992545	 0.472477
N	 0.7965997859	-3.9604548726	-0.0749275691	-0.560239
N	 0.403733278	-2.014065855	 1.1111951152	-0.397584
C	 0.1324961057	-0.6564967672	 1.2560572525	 0.403855
O	 0.0267517432	-0.1489164571	 2.3530773689	-0.360515
H	 0.4895428254	 2.0679190917	 0.553478259	 0.149458
H	-0.3813085907	 1.9445559455	-0.9914106343	 0.121163
H	-1.2314336587	 1.7245657184	 0.554445925	 0.149612
H	 0.0598083832	-0.2255808477	-2.1464312388	 0.143669
H	 0.8694703178	-4.3072261719	-1.0281085677	 0.234704
H	 0.5074923985	-2.5517622112	 1.9608179269	 0.280238
87.8622	133.2923	145.709	266.71	298.2588	377.3179	381.5506	448.0435	555.9646	591.8849	653.0212	714.8345	725.6292	780.7278	794.4006	807.3508	895.5046	919.3189	1018.0048	1070.1538	1094.9968	1171.5279	1199.0333	1301.0815	1384.9336	1405.273	1418.5971	1426.07	1468.6624	1490.0184	1706.9383	1782.8032	1799.2541	3042.5836	3101.5048	3124.4331	3210.537	3539.8503	3616.2418
CC1=COC(=N)NC1=O	CC1=CO[C]([NH])NC1=O	
InChI=1S/C5H6N2O2/c1-3-2-9-5(6)7-4(3)8/h2H,1H3,(H2,6,7,8)	InChI=1S/C5H6N2O2/c1-3-2-9-5(6)7-4(3)8/h2H,1H3,(H2,6,7,8)
