15
gdb 14718	11.786	0.59256	0.57025	5.0275	76.82	-0.2758	-0.0404	0.2353	1829.9087	0.117475	-362.640817	-362.631884	-362.63094	-362.675337	29.714	
C	-0.0496469205	 1.3742386228	 0.0717361505	-0.23466
O	 0.0044661796	-0.0336868829	 0.0041676512	-0.226019
C	 0.6555670529	-0.5036977528	-1.1482294837	-0.048733
C	 0.6347519879	-2.0380065829	-1.075115936	-0.371782
C	 1.2809443837	-2.6599877444	-2.2156076128	 0.078335
C	 1.8235376274	-3.157696014	-3.173578175	 0.038157
C	 2.4358428799	-3.7233487227	-4.2545549766	 0.20922
N	 2.9576947641	-4.2025634882	-5.1753176984	-0.337176
H	 0.9570254988	 1.8191564932	 0.091589904	 0.111863
H	-0.5994879861	 1.8012619418	-0.7809445582	 0.111858
H	-0.57063571	 1.6338905526	 0.9957393795	 0.135487
H	 0.1454820767	-0.162839193	-2.0634728851	 0.106892
H	 1.6954044034	-0.1424596975	-1.1961111683	 0.106872
H	 1.1282785892	-2.3535509103	-0.1481548089	 0.159838
H	-0.406980447	-2.3735399516	-1.0070788022	 0.159849
64.7389	70.7792	102.1397	161.1044	188.9147	232.4967	287.2962	377.2149	392.2334	502.0844	581.4265	587.9113	740.3183	793.2877	992.9334	1046.3226	1082.615	1159.7496	1176.4622	1181.2988	1228.2265	1230.1275	1297.7984	1309.8511	1418.2887	1465.327	1482.4683	1487.1848	1503.9138	1532.5705	2267.547	2403.6011	2967.9138	2981.4654	3002.418	3026.5942	3037.7828	3077.5289	3123.4901
COCCC#CC#N	COCCC#CC#N	
InChI=1S/C6H7NO/c1-8-6-4-2-3-5-7/h4,6H2,1H3	InChI=1S/C6H7NO/c1-8-6-4-2-3-5-7/h4,6H2,1H3
