14
gdb 11212	4.43986	1.4785	1.3028	2.5286	57.35	-0.2706	-0.0499	0.2207	917.3842	0.106866	-419.731473	-419.724313	-419.723369	-419.763767	25.297	
O	-0.6074482185	 0.7815645745	 0.9451796781	-0.227048
C	 0.3444359804	 0.7659517609	 0.2110785563	 0.131505
C	 1.269464918	 1.9641020267	-0.0026088351	 0.014206
C	 1.4623191832	 2.8340116926	 1.2518755103	-0.251073
C	 2.755328973	 2.2642717322	 1.8440890587	-0.359146
C	 3.4600453497	 1.6144372153	 0.6583756048	 0.430592
O	 4.5910616354	 1.2463581901	 0.5646931429	-0.320205
O	 2.5667607635	 1.4789094752	-0.3748771528	-0.227956
H	 0.6247711297	-0.1283308589	-0.3860222057	 0.10966
H	 0.8744198124	 2.5307744699	-0.8546078064	 0.128646
H	 1.5895866312	 3.8813063045	 0.9688615163	 0.123996
H	 0.5937136978	 2.7529513542	 1.906481373	 0.145837
H	 3.4106932079	 3.0004674246	 2.3103158073	 0.148417
H	 2.5616033966	 1.4816726981	 2.5863890623	 0.152567
61.5805	116.1862	126.9611	261.3817	382.7206	481.5145	527.6234	579.5607	678.5801	721.0338	792.4085	816.3748	884.5243	960.8217	1003.7217	1034.5483	1084.8389	1094.6999	1151.3733	1166.3435	1226.5461	1287.0958	1310.1895	1344.9988	1350.5414	1400.8346	1463.9861	1499.871	1836.4221	1895.5452	2913.3501	3040.892	3059.5098	3081.0267	3130.8574	3140.3255
O=CC1CCC(=O)O1	O=C[C@H]1CCC(=O)O1	
InChI=1S/C5H6O3/c6-3-4-1-2-5(7)8-4/h3-4H,1-2H2	InChI=1S/C5H6O3/c6-3-4-1-2-5(7)8-4/h3-4H,1-2H2/t4-/m1/s1
