14
gdb 67554	2.52086	1.8715	1.55196	5.3462	60.92	-0.2442	0.0061	0.2503	879.9021	0.100114	-473.770008	-473.7628	-473.761856	-473.801407	27.975	
O	-0.0497878126	 1.4494421236	 0.033424193	-0.459001
C	 0.0358018506	 0.0760434234	-0.0383120619	 0.236279
C	 1.2130143042	-0.6487338886	 0.6973545892	-0.065356
O	 0.9747262147	-2.0548685917	 0.6497253235	-0.215535
C	 1.5522085316	-1.4352730062	-0.4996089608	-0.002526
C	 0.3881013457	-0.7761539433	-1.318585709	-0.11813
N	-0.9337976755	-1.3771208864	-1.2068004035	-0.305121
C	-1.3032457784	-0.7252353098	-0.0349876405	 0.39188
O	-2.272614085	-0.7952219922	 0.6620924959	-0.343046
H	 0.8369836199	 1.827306937	 0.0436412277	 0.292798
H	 1.8151736812	-0.2612019626	 1.5131918781	 0.117469
H	 2.5006207586	-1.820920498	-0.8558821325	 0.117369
H	 0.6454189945	-0.3203922629	-2.2742672837	 0.09883
H	-1.2460337597	-2.2886770622	-1.5119251053	 0.25409
133.9302	221.5634	254.5908	263.2788	322.0043	368.3525	471.6607	527.2679	608.4953	700.4467	714.6562	735.4962	801.8559	835.8112	860.2851	877.8424	968.6104	997.3597	1005.9836	1048.4143	1059.7172	1078.5889	1177.3046	1199.828	1242.5562	1287.963	1299.7574	1344.8075	1355.8491	1405.0332	1907.8994	3122.5559	3167.1665	3187.1986	3596.736	3794.0928
OC12C3OC3C1NC2=O	O[C@]12[C@H]3O[C@H]3[C@H]1NC2=O	
InChI=1S/C5H5NO3/c7-4-5(8)2(6-4)1-3(5)9-1/h1-3,8H,(H,6,7)	InChI=1S/C5H5NO3/c7-4-5(8)2(6-4)1-3(5)9-1/h1-3,8H,(H,6,7)/t1-,2+,3-,5-/m0/s1
