23
gdb 42121	2.11103	1.56557	0.99603	0.8465	91.54	-0.2394	0.0474	0.2867	1266.7237	0.208539	-351.139557	-351.130688	-351.129744	-351.17259	35.008	
C	-0.1646539647	 1.3412463973	 0.5720963007	-0.191904
C	 1.2771456732	 1.8577116556	 0.3731585693	-0.172793
C	 2.4036164097	 1.0080449407	 1.0208328585	-0.176853
C	 3.4065223499	 0.4069871991	-0.0031497443	-0.340243
C	 2.644622863	-0.3217272052	-1.0100401312	 0.06401
C	 1.7488457401	-0.7467567739	-1.6948851562	 0.064194
C	 0.4314761072	-1.0339560258	-2.2493117562	-0.340259
C	-0.5829275129	-0.0330171011	-1.6290437548	-0.176861
C	-0.5660355079	-0.0014367982	-0.0769266365	-0.172791
H	-0.3547912486	 1.2612980828	 1.6512848703	 0.089357
H	-0.8514525448	 2.1175509123	 0.2076118414	 0.089356
H	 1.4771479817	 1.9705434163	-0.6977353723	 0.105915
H	 1.3128397646	 2.870683618	 0.790425306	 0.088654
H	 2.9685870667	 1.6118402329	 1.7399756537	 0.091794
H	 1.9673180315	 0.1799038602	 1.5904904529	 0.105506
H	 3.9883903008	 1.2116841118	-0.471762834	 0.122196
H	 4.1294452645	-0.235783072	 0.5131062912	 0.118324
H	 0.4168732964	-0.9533285408	-3.3427410693	 0.118332
H	 0.132423916	-2.063415449	-2.0116525095	 0.122192
H	-0.3584233322	 0.9632680119	-2.0261532791	 0.105501
H	-1.5842142633	-0.2903870751	-1.9925205172	 0.0918
H	 0.0908957218	-0.7947032105	 0.2955221943	 0.105927
H	-1.5680158425	-0.2470753973	 0.2934772224	 0.088646
137.8776	143.5828	170.8355	195.3088	259.7507	329.908	361.6972	371.6405	372.4334	451.4438	522.7795	555.4178	687.6979	722.744	773.0283	808.1332	837.7775	887.7389	920.8761	966.6872	981.4921	1012.4664	1038.0414	1067.4513	1090.8364	1112.5952	1151.5139	1172.463	1189.8888	1217.5188	1229.4345	1260.9631	1272.629	1333.6758	1333.9655	1340.8607	1350.4566	1362.0416	1383.4554	1395.2301	1395.5282	1478.431	1478.4389	1480.9054	1484.746	1488.6298	1493.713	1499.6683	2355.0722	3002.6687	3018.5738	3018.7399	3025.2125	3029.0562	3032.3354	3038.2062	3040.3098	3053.0484	3053.3025	3069.6711	3073.3868	3076.134	3077.9071
C1CCCC#CCCC1	C1CCCC#CCCC1	
InChI=1S/C9H14/c1-2-4-6-8-9-7-5-3-1/h1-7H2	InChI=1S/C9H14/c1-2-4-6-8-9-7-5-3-1/h1-7H2
