22
gdb 58784	2.48199	1.42764	1.07008	1.2968	82.73	-0.2139	0.0636	0.2774	1223.7376	0.193033	-404.314691	-404.304894	-404.30395	-404.348911	37.347	
C	 0.0112922653	 1.5047619909	 0.1829690541	-0.420361
C	 0.0253421981	-0.0005244373	-0.0873753633	-0.010807
O	 0.7856120425	-0.7019195118	 0.9009251654	-0.42819
C	-1.3692525891	-0.5671301764	-0.1992192483	 0.326425
C	-2.4259464514	-0.1876316734	-1.2466010745	-0.282877
C	-2.9843011826	-1.6494339286	-1.1524320527	-0.254922
C	-1.8920103112	-1.9632197593	-0.1179280365	 0.277125
C	-1.2191863112	-3.2810127175	 0.1154465235	-0.511206
N	-2.1344663093	-1.001864762	 1.0002249597	-0.426533
H	 1.0328843251	 1.8907177175	 0.2483370394	 0.121789
H	-0.5106760399	 2.0412926707	-0.6147095927	 0.131671
H	-0.5114753162	 1.7213504846	 1.1226272229	 0.122694
H	 0.5471148481	-0.1834443463	-1.0366447224	 0.090286
H	 0.7135878598	-0.2148694234	 1.7281106275	 0.284718
H	-3.1056926545	 0.6173698886	-0.9557316384	 0.101361
H	-1.9969597966	 0.032748254	-2.2280138418	 0.095683
H	-4.0109252094	-1.75592154	-0.7930969084	 0.101808
H	-2.8634465632	-2.204825942	-2.0859563297	 0.095674
H	-0.9343508974	-3.7471786575	-0.8343508412	 0.117101
H	-0.3130022597	-3.1512412168	 0.713204076	 0.137499
H	-1.8866307665	-3.9775570518	 0.6378069157	 0.120278
H	-1.4279966508	-1.233950062	 1.7014647558	 0.210783
62.7722	135.868	178.9669	213.9251	233.7662	247.3156	264.3028	287.3611	341.0482	364.0257	452.2158	505.0887	530.2316	633.2241	686.6151	720.9815	780.3496	874.647	892.4507	929.4871	937.263	988.059	1024.0057	1040.4118	1049.5192	1079.5171	1115.2022	1128.2693	1157.6605	1168.4872	1216.6834	1230.3609	1237.2745	1293.7076	1304.8974	1353.9804	1374.6421	1398.2747	1406.7108	1409.7458	1453.523	1465.9184	1491.4316	1491.6515	1494.3647	1495.0478	1509.4271	3013.4824	3023.0369	3029.0443	3052.9187	3061.7735	3080.0154	3100.696	3103.2511	3116.6906	3117.7388	3121.3631	3444.4288	3816.3879
CC(O)C12CCC1(C)N2	C[C@@H](O)[C@@]12CC[C@]1(C)N2	
InChI=1S/C7H13NO/c1-5(9)7-4-3-6(7,2)8-7/h5,8-9H,3-4H2,1-2H3	InChI=1S/C7H13NO/c1-5(9)7-4-3-6(7,2)8-7/h5,8-9H,3-4H2,1-2H3/t5-,6+,7+/m1/s1
