22
gdb 106764	2.15544	1.50993	1.0594	1.0266	82.74	-0.2145	0.0562	0.2707	1237.6708	0.193136	-404.312015	-404.302089	-404.301145	-404.346335	37.391	
C	-0.3224214731	 1.500007472	-0.3356695957	-0.410036
C	-0.0568549108	 0.0019268747	-0.2733041876	-0.024531
C	 1.2417259145	-0.5639308473	-0.9590902877	-0.284753
C	 1.6624899471	-1.1541332576	 0.3947379879	 0.300138
C	 2.444187681	-2.4087195501	 0.6372007568	-0.514288
N	 1.7797715349	 0.0262288048	 1.3047249954	-0.423002
C	 0.4513272692	-0.5911269063	 1.0563568959	 0.277041
C	-0.4061144624	-1.0987032817	 2.1841662271	-0.22009
O	 0.3552104005	-1.6487752038	 3.2568894492	-0.409045
H	 0.5340932693	 2.0517348273	 0.0605652774	 0.137393
H	-0.49552621	 1.8246724431	-1.3674948688	 0.109533
H	-1.208395764	 1.7745628847	 0.2486914306	 0.103454
H	-0.9319666884	-0.558022189	-0.621749059	 0.066389
H	 1.0247889159	-1.3197970996	-1.7181423067	 0.094453
H	 1.9285555289	 0.1812943089	-1.3702580983	 0.09966
H	 3.5042341743	-2.2687256554	 0.3922091001	 0.121483
H	 2.3669592165	-2.7157718703	 1.6842139075	 0.136059
H	 2.0683340964	-3.2292182816	 0.0158380653	 0.117994
H	 2.0934514507	-0.3573416457	 2.1981847088	 0.21164
H	-1.0670257487	-0.2948044453	 2.5432475592	 0.101599
H	-1.055946679	-1.9032953695	 1.819089285	 0.116857
H	 0.5681009669	-0.9355587623	 3.8652925277	 0.292051
81.7813	140.7386	155.0512	210.8565	218.1959	224.9129	235.6361	269.3671	336.1227	356.8787	438.7882	473.7801	548.9029	641.6132	676.1342	715.0258	826.7414	843.2401	897.9037	921.9999	965.9386	998.7945	1029.6972	1044.5485	1083.5185	1105.2171	1120.7783	1138.406	1157.4191	1181.5298	1216.8671	1230.9737	1239.9492	1299.3315	1356.0082	1362.2648	1388.029	1400.3261	1408.9471	1415.006	1458.9138	1489.3076	1491.748	1493.4212	1495.1062	1504.1724	1509.8001	2985.0814	3022.4716	3027.5827	3040.0675	3050.4302	3055.1145	3080.2368	3087.2611	3110.8722	3111.8557	3120.9751	3448.5293	3836.8575
CC1CC2(C)NC12CO	C[C@H]1C[C@@]2(C)N[C@@]12CO	
InChI=1S/C7H13NO/c1-5-3-6(2)7(5,4-9)8-6/h5,8-9H,3-4H2,1-2H3	InChI=1S/C7H13NO/c1-5-3-6(2)7(5,4-9)8-6/h5,8-9H,3-4H2,1-2H3/t5-,6+,7-/m0/s1
