18
gdb 23055	3.29441	1.06692	0.94037	0.8325	78.43	-0.2262	-0.002	0.2242	1299.454	0.14525	-439.005431	-438.996343	-438.995399	-439.0393	33.57	
C	-0.1470608637	 1.4270219396	-0.054564306	-0.402481
C	 0.0650191994	-0.0699582917	-0.0466496936	-0.076256
C	 1.4672166387	-0.6492962819	-0.0978762362	-0.357558
C	 0.6650823149	-0.7248988973	 1.1660176221	 0.380172
O	 1.0121424728	 0.004258215	 2.3554553717	-0.323205
C	 0.56202835	-1.0861983511	 3.2044751868	-0.16111
C	 0.2055964034	-1.8808230783	 1.969772831	 0.27175
N	-0.2680460111	-3.0117614998	 1.6644829722	-0.249245
O	-0.5592359791	-3.7600713612	 2.8195848031	-0.3904
H	 0.6081937182	 1.9313388145	 0.5542282115	 0.134467
H	-0.090395285	 1.8253731836	-1.073053274	 0.119197
H	-1.1283560963	 1.6863066011	 0.355934016	 0.122337
H	-0.7054621898	-0.6577551755	-0.5395473858	 0.102959
H	 1.6446131957	-1.5700885439	-0.6432196574	 0.12802
H	 2.2957211285	 0.0523851601	-0.0896204547	 0.126988
H	 1.3700636539	-1.4987311946	 3.8189015861	 0.132553
H	-0.2800576173	-0.799555182	 3.8446380656	 0.131694
H	-0.9024381132	-4.5808745165	 2.4504160917	 0.310119
94.1092	114.466	139.8696	184.0299	215.2399	262.04	307.0745	351.5658	414.3429	472.927	524.4927	570.9708	617.3916	769.5234	799.4689	872.8636	880.4846	926.9697	979.1474	990.4624	994.7396	1030.2874	1047.5131	1083.2502	1115.5479	1130.7133	1142.032	1183.2694	1225.3374	1300.9163	1320.358	1393.3337	1416.3921	1437.1637	1473.3752	1490.8807	1498.1855	1507.5975	1811.4524	3032.0018	3036.2097	3078.7471	3098.026	3115.4264	3126.3354	3143.2835	3219.377	3818.389
CC1CC11OCC1=NO	C[C@H]1C[C@]21OCC2=NO	
InChI=1S/C6H9NO2/c1-4-2-6(4)5(7-8)3-9-6/h4,8H,2-3H2,1H3	InChI=1S/C6H9NO2/c1-4-2-6(4)5(7-8)3-9-6/h4,8H,2-3H2,1H3/t4-,6+/m0/s1
