21
gdb 90153	2.85056	1.54294	1.33595	2.0084	81.28	-0.2383	0.0856	0.3239	1073.8029	0.183756	-387.067538	-387.059621	-387.058677	-387.099493	32.15	
C	-0.2779452081	 1.5137990173	-0.1765691816	-0.405926
C	-0.0460425028	 0.0209968494	 0.0136788283	-0.052672
C	 1.0319167763	-0.60636501	-0.9570816545	-0.325763
C	 1.8759739618	-0.953117567	 0.2826631346	 0.332377
C	 3.2691916761	-0.701539645	 0.7969758386	-0.313805
C	 3.0064351867	-0.3134751559	 2.2895268713	-0.203692
C	 1.56692055	 0.296544779	 2.356229742	-0.321432
C	 0.8839275321	-0.3701788815	 1.1901580727	 0.32758
O	 1.0744724063	-1.7903557635	 1.1288322	-0.315622
H	 0.667285454	 2.0686802894	-0.1937557348	 0.111902
H	-0.7924610952	 1.7087385456	-1.1232674363	 0.119593
H	-0.892361439	 1.9266543542	 0.6309119314	 0.118639
H	-0.9994889146	-0.5147785605	 0.0348605081	 0.07921
H	 0.7235567925	-1.4537024167	-1.5739092796	 0.105562
H	 1.4964650422	 0.1544099445	-1.5908262919	 0.102458
H	 3.9530285585	-1.5518229457	 0.7102910706	 0.107478
H	 3.712197952	 0.1337555086	 0.2410467147	 0.101932
H	 3.0418379741	-1.2144360203	 2.9049775347	 0.122784
H	 3.7623179876	 0.3765132126	 2.6734603854	 0.097626
H	 1.0939857359	 0.1191063473	 3.3272895748	 0.107191
H	 1.5878223335	 1.380934948	 2.1952692415	 0.104581
119.9885	187.2757	220.5449	249.4508	302.369	361.2142	424.915	481.1972	508.1524	594.6334	652.6437	711.9554	728.8207	821.8627	844.5726	863.8278	880.0774	900.1643	925.3199	942.9389	978.3569	1016.0596	1035.2594	1078.6606	1105.6278	1167.6251	1179.0342	1192.3397	1209.4631	1225.0036	1236.3488	1245.2174	1271.1354	1323.3117	1334.6926	1345.682	1349.198	1409.4801	1424.1686	1474.1653	1483.2433	1484.5544	1494.268	1498.5241	1500.4989	3025.3394	3035.6158	3039.6265	3056.8234	3060.4234	3070.5968	3079.0903	3079.7909	3092.633	3098.5623	3115.6968	3121.6282
CC1CC23CCCC12O3	C[C@H]1C[C@@]23CCC[C@@]12O3	
InChI=1S/C8H12O/c1-6-5-7-3-2-4-8(6,7)9-7/h6H,2-5H2,1H3	InChI=1S/C8H12O/c1-6-5-7-3-2-4-8(6,7)9-7/h6H,2-5H2,1H3/t6-,7-,8+/m0/s1
