19
gdb 87443	4.26114	1.21784	1.11387	1.5372	80.67	-0.2387	0.0743	0.313	1135.6389	0.159352	-385.78253	-385.775055	-385.774111	-385.814295	30.328	
O	 0.0491653651	 1.4135361424	 0.2466926412	-0.423373
C	 0.0494681383	 0.0179971595	 0.1041801155	-0.008872
C	-0.3945412183	-0.7649968299	 1.3216978175	-0.397024
C	-1.2459732688	-0.7225252709	 0.0873360085	 0.398805
C	-2.6737859961	-0.2392844411	-0.1389884637	-0.145597
C	-2.669270007	-0.7383655972	-1.6314830348	-0.030926
C	-3.9811532814	-1.5256855758	-1.4500425368	-0.276333
C	-3.2339643323	-1.7096345821	-0.1148465435	-0.023503
C	-1.832419074	-1.7977004219	-0.8229956696	-0.155823
H	-0.2459601204	 1.7938526671	-0.5871507963	 0.284971
H	 0.8882784544	-0.3845463264	-0.4666110409	 0.07884
H	 0.145256056	-1.6727209884	 1.572794799	 0.109189
H	-0.7128265344	-0.1719479689	 2.1732805966	 0.121749
H	-3.1748372457	 0.6491448804	 0.2468658288	 0.075357
H	-2.3159203219	-0.1716587956	-2.4950669304	 0.064647
H	-4.9065628147	-0.9414356075	-1.4204653024	 0.092488
H	-4.1106524235	-2.4185507321	-2.0702290512	 0.092184
H	-3.5318963166	-2.2613955769	 0.7776568317	 0.072728
H	-1.3674364387	-2.6984490647	-1.2265662392	 0.070493
120.8678	152.7497	206.1596	277.7625	354.9473	442.6449	452.7739	521.8597	624.3256	731.4255	808.3989	831.3591	838.3593	841.7152	870.0803	879.2704	911.5703	955.9002	963.0832	985.0614	1011.1851	1026.6863	1036.6221	1064.5535	1083.521	1123.7459	1136.7533	1150.8653	1151.9037	1165.4856	1171.1609	1173.5616	1218.8858	1228.1287	1240.4765	1298.0948	1310.0415	1377.5632	1429.9806	1503.2366	1512.1495	3036.6082	3079.0145	3090.216	3093.1871	3100.2727	3105.5113	3116.6319	3123.2312	3211.6467	3806.071
OC1CC11C2C3CC2C13	O[C@H]1C[C@]21[C@H]1[C@@H]3C[C@H]1[C@H]23	
InChI=1S/C8H10O/c9-5-2-8(5)6-3-1-4(6)7(3)8/h3-7,9H,1-2H2	InChI=1S/C8H10O/c9-5-2-8(5)6-3-1-4(6)7(3)8/h3-7,9H,1-2H2/t3-,4+,5-,6-,7+,8-/m0/s1
