19
gdb 106415	2.93551	1.33321	1.15767	0.4935	75.98	-0.2447	0.081	0.3258	1147.4198	0.157487	-422.934936	-422.926492	-422.925548	-422.968079	32.274	
C	-0.0527240488	 1.5523485726	 0.0492679158	-0.383625
C	 0.0206939522	 0.0211826411	 0.0411312184	-0.321114
C	 0.8151005805	-0.5390735679	 1.1806841297	 0.313469
C	 2.2591195455	-0.2161315061	 1.6751749313	-0.274293
C	 1.5744262616	-1.0920879023	 2.7506252113	-0.0552
O	 0.3392947277	-0.2945081254	 2.5777113714	-0.34776
C	 1.0519399791	-1.9972373804	 1.6279026552	 0.483244
C	 0.350318833	-3.259211445	 1.5196694513	-0.30148
O	 1.6750571149	-3.0499302634	 0.9491795951	-0.289816
H	 0.9416736806	 1.9967618876	-0.0588862401	 0.120632
H	-0.6742763158	 1.9154346017	-0.7739885087	 0.11479
H	-0.4812348264	 1.9123644974	 0.9884959248	 0.139418
H	-0.9886828027	-0.4057977296	 0.0881489313	 0.113715
H	 0.4719385107	-0.339016461	-0.8917405789	 0.117036
H	 3.096430497	-0.6448673672	 1.1189761985	 0.113926
H	 2.4182168584	 0.8208243892	 1.9737612331	 0.107324
H	 1.8889022022	-1.3251869603	 3.766648365	 0.100441
H	 0.3192298509	-3.9428566646	 2.3657892367	 0.125694
H	-0.4466457605	-3.3835656163	 0.7889819286	 0.123598
71.2184	133.7131	197.6013	201.5595	259.0802	265.8082	351.5465	467.1834	487.0601	605.5549	625.591	696.3368	720.3033	779.9989	834.4736	870.0727	901.1305	920.414	961.7728	985.3862	1002.7552	1046.7272	1065.5274	1101.8567	1105.9795	1125.1456	1147.9924	1158.6026	1201.1615	1212.2443	1220.4705	1288.7394	1319.007	1389.4645	1411.1229	1461.009	1470.2774	1488.0025	1498.0377	1508.3556	1568.5418	3028.9249	3043.6027	3065.0971	3066.7671	3093.2036	3112.1856	3123.6565	3137.0917	3150.7254	3180.9037
CCC12CC(O1)C21CO1	CC[C@@]12C[C@@H](O1)[C@]12CO1	
InChI=1S/C7H10O2/c1-2-6-3-5(9-6)7(6)4-8-7/h5H,2-4H2,1H3	InChI=1S/C7H10O2/c1-2-6-3-5(9-6)7(6)4-8-7/h5H,2-4H2,1H3/t5-,6+,7+/m1/s1
