14
gdb 7730	3.41992	1.9738	1.29534	3.3135	59.51	-0.2495	-0.0271	0.2224	877.07	0.109737	-415.924117	-415.917389	-415.916445	-415.955291	25.077	
O	-0.0119484919	-0.0609042616	-0.0445254965	-0.334815
C	-0.0563743319	 1.1440117285	 0.0185749901	 0.436399
C	-1.349132142	 1.9452370247	 0.0456652183	-0.283682
N	-1.149201986	 3.2246023872	 0.7097924022	-0.31036
C	-0.1331798567	 4.0315655639	 0.0507750251	-0.283728
C	 1.2012977127	 3.3019374002	 0.0247238448	 0.436381
O	 2.2716344726	 3.8574448425	-0.0349801361	-0.334805
N	 1.1025306903	 1.9140082007	 0.0346526313	-0.355599
H	-1.6916328801	 2.029060583	-1.0050147788	 0.115904
H	-2.0876542155	 1.3477800087	 0.5834812415	 0.146699
H	-2.0228514563	 3.7336253079	 0.7691284066	 0.238173
H	-0.3724323821	 4.2916907069	-0.9996386441	 0.115943
H	 0.0211998344	 4.9668511846	 0.5920822639	 0.146674
H	 1.9779915225	 1.4038614428	 0.0048318517	 0.266816
111.4088	130.7236	271.0776	376.2595	443.1853	446.8761	535.5516	554.183	632.2539	651.0649	729.4818	754.1642	901.5097	935.467	990.2009	995.5645	1057.6746	1161.6855	1192.4018	1274.4348	1282.2776	1290.0044	1355.845	1407.0813	1409.1094	1471.5377	1486.6031	1487.9667	1820.3218	1834.4116	2911.7015	2912.9389	3114.6705	3115.769	3548.4428	3574.9269
O=C1CNCC(=O)N1	O=C1CNCC(=O)N1	
InChI=1S/C4H6N2O2/c7-3-1-5-2-4(8)6-3/h5H,1-2H2,(H,6,7,8)	InChI=1S/C4H6N2O2/c7-3-1-5-2-4(8)6-3/h5H,1-2H2,(H,6,7,8)
