21
gdb 121210	2.6902	0.92942	0.77906	3.8073	79.29	-0.242	-0.0277	0.2142	1541.7705	0.180544	-424.215132	-424.205181	-424.204237	-424.251397	34.826	
C	-0.1316532864	 1.5705924175	-0.0177276301	-0.382905
C	-0.0498541559	 0.0424353689	-0.0551696326	-0.170772
C	 0.7740340817	-0.4845186332	-1.2374751694	-0.205296
C	 0.8384070988	-2.0074858896	-1.2694298184	-0.063719
C	-0.4421642772	-2.7818120127	-1.6624465585	-0.073511
O	 0.2445045062	-3.4874389039	-2.7166368861	-0.266258
C	 1.4442610416	-2.7416088393	-2.5140602857	 0.023432
C	 1.826613282	-1.8532752225	-3.6788735812	 0.141893
O	 1.1468934864	-1.6547751181	-4.6500974517	-0.237022
H	 0.8645371983	 2.0185199623	 0.0681681499	 0.116313
H	-0.5930022094	 1.9642032608	-0.9299374953	 0.120425
H	-0.7266757738	 1.9163059248	 0.8329482278	 0.115577
H	 0.3865542043	-0.3271663907	 0.8821919726	 0.097735
H	-1.0635387009	-0.3765535086	-0.1037808393	 0.103535
H	 0.3430205905	-0.1141490362	-2.1769013716	 0.117258
H	 1.7906081164	-0.0725002659	-1.1795954029	 0.099096
H	 1.2788644071	-2.3829523659	-0.3417512104	 0.088062
H	-0.8522963643	-3.4663440239	-0.9119263375	 0.107031
H	-1.2509183303	-2.1532536771	-2.0576060516	 0.109041
H	 2.3061414673	-3.387653148	-2.2854703181	 0.091141
H	 2.8261936875	-1.3709630586	-3.5537090697	 0.068944
51.0412	66.6496	96.7426	106.0097	140.1885	240.4584	249.2324	269.0267	317.2833	416.3195	459.0529	707.0182	741.6769	760.9872	820.6141	865.2698	890.8414	911.1071	955.2861	981.7464	1007.52	1027.05	1052.9746	1088.99	1120.5094	1143.822	1160.0367	1183.4644	1224.5115	1256.6216	1273.6396	1309.6139	1332.2397	1342.638	1359.8712	1384.4824	1404.4879	1415.1618	1418.8656	1483.9966	1494.5232	1500.2693	1510.4097	1525.3414	1839.2272	2839.8246	2986.9903	3009.4533	3015.7934	3018.84	3032.1133	3037.1348	3055.5332	3062.0391	3079.9777	3099.075	3105.935
CCCC1COC1C=O	CCC[C@H]1CO[C@H]1C=O	
InChI=1S/C7H12O2/c1-2-3-6-5-9-7(6)4-8/h4,6-7H,2-3,5H2,1H3	InChI=1S/C7H12O2/c1-2-3-6-5-9-7(6)4-8/h4,6-7H,2-3,5H2,1H3/t6-,7-/m0/s1
