18
gdb 28330	4.5985	1.1864	0.96473	2.1929	79.92	-0.177	0.0524	0.2294	1198.8777	0.150522	-401.992886	-401.985158	-401.984213	-402.024941	30.117	
O	-0.1806712588	 1.3401784192	-0.1152254906	-0.449175
C	-0.0480201169	-0.0180513205	-0.0376403014	 0.335934
C	-0.0192098576	-0.8478215084	-1.1413112943	-0.234624
N	 0.0830871565	-2.1312473397	-0.6517800876	 0.006609
C	 0.2928587789	-3.4394239023	-1.2430877617	-0.175492
C	 0.0456306967	-4.3765443117	-0.0358986929	-0.209913
C	 0.3596812311	-3.5160209225	 1.2214611937	-0.348997
C	 0.1444870035	-2.1234210397	 0.7108969906	 0.394626
C	 0.0601297199	-0.8143604957	 1.140839915	-0.494901
H	-0.1680043112	 1.694240696	 0.7781431705	 0.293795
H	-0.0939501925	-0.6265797456	-2.1919547649	 0.112538
H	-0.4002096085	-3.6214509632	-2.070302478	 0.117378
H	 1.3154747419	-3.5334130898	-1.6338013169	 0.113307
H	-1.0063260661	-4.675358386	-0.0209794571	 0.117888
H	 0.6490709612	-5.2849958533	-0.0913885071	 0.106577
H	-0.2837102483	-3.7770672566	 2.0669275732	 0.115136
H	 1.3960139681	-3.6666071845	 1.5530593076	 0.113536
H	 0.0618618722	-0.4625508258	 2.1619324419	 0.08578
115.3732	185.5991	203.8496	216.569	301.8478	326.8806	500.8704	520.7274	624.6249	626.5062	659.7563	673.2036	731.0793	732.5937	808.9202	876.3651	901.7523	921.2219	1003.0863	1009.6	1090.0904	1111.8633	1152.8825	1165.5285	1184.3372	1215.7158	1231.7385	1267.4477	1305.501	1327.3909	1337.836	1400.5723	1455.2396	1477.1949	1495.0966	1502.0739	1526.0415	1543.3753	1638.7659	3006.7285	3011.2201	3059.1244	3071.4314	3077.4148	3116.0698	3234.0987	3279.1872	3847.0734
OC1=CN2CCCC2=C1	Oc1cn2CCCc2c1	
InChI=1S/C7H9NO/c9-7-4-6-2-1-3-8(6)5-7/h4-5,9H,1-3H2	InChI=1S/C7H9NO/c9-7-4-6-2-1-3-8(6)5-7/h4-5,9H,1-3H2
