18
gdb 44542	3.48813	1.42374	1.34013	3.908	74.45	-0.2387	0.0371	0.2757	1005.3551	0.150775	-401.966585	-401.959637	-401.958693	-401.998026	28.37	
O	 0.0024195962	-0.0523289111	-0.024141472	-0.376674
C	-0.0405113863	 1.1571240196	-0.0081351512	 0.391674
C	-1.306993966	 2.0345956613	-0.0041627794	-0.363711
C	-0.8019943634	 3.4789284293	 0.0834061348	-0.023628
C	-0.7261229671	 4.2021355057	 1.4416189681	-0.059385
C	 0.0182581489	 3.3940339401	 2.4646434386	-0.296058
C	 0.8080440664	 4.1375556561	 1.4278954792	-0.0558
C	 0.7622711506	 3.4046498132	 0.0687872982	-0.027922
N	 1.0505296987	 1.9947238521	 0.00402826	-0.286848
H	-1.8706784522	 1.8299015198	-0.9188527268	 0.128853
H	-1.9394609542	 1.7381642915	 0.8372308356	 0.13349
H	-1.2004613445	 4.1222752523	-0.7010862968	 0.083464
H	-1.3633439456	 5.030111621	 1.7270891422	 0.090218
H	 0.0465971179	 3.8317540277	 3.4571165971	 0.117199
H	-0.0154449608	 2.308382834	 2.4672951643	 0.125698
H	 1.5257404734	 4.9054956547	 1.6893378509	 0.087375
H	 1.2491489922	 3.965305486	-0.7335006401	 0.083869
H	 1.9777736759	 1.6005124967	 0.0385875474	 0.248187
82.3182	170.663	295.136	388.1358	467.5296	491.9395	537.7502	598.6478	632.4907	666.3908	746.9179	768.1481	803.98	850.2385	870.672	915.5707	927.8282	977.8478	1004.99	1016.075	1058.7121	1067.4699	1069.7294	1091.6753	1111.2417	1157.4949	1173.8401	1192.359	1235.6443	1271.0401	1279.4004	1302.7361	1335.5205	1354.7864	1378.6823	1421.5857	1464.9214	1495.5971	1825.6613	3064.8765	3065.4463	3100.9574	3112.0177	3126.3992	3179.5749	3188.4744	3209.0546	3634.4077
O=C1CC2C3CC3C2N1	O=C1C[C@H]2[C@H]3C[C@H]3[C@H]2N1	
InChI=1S/C7H9NO/c9-6-2-5-3-1-4(3)7(5)8-6/h3-5,7H,1-2H2,(H,8,9)	InChI=1S/C7H9NO/c9-6-2-5-3-1-4(3)7(5)8-6/h3-5,7H,1-2H2,(H,8,9)/t3-,4+,5-,7+/m0/s1
