19
gdb 61939	2.15483	1.0375	0.82824	3.5254	81.22	-0.2452	0.0269	0.2721	1442.9805	0.157532	-382.043219	-382.032991	-382.032047	-382.079445	36.534	
C	 0.2560383739	 1.0401151663	-0.7559962755	-0.397705
C	-0.1917187801	-0.2464723321	-0.058582001	 0.057687
C	 0.8169710497	-0.6055585527	 1.0560816426	-0.338937
C	 0.4828887829	-1.8542844012	 1.7379511649	 0.25755
N	 0.1876976477	-2.8403181432	 2.2642450728	-0.313743
N	-1.5103272382	-0.0836839982	 0.5595777905	-0.291831
C	-2.626914805	 0.1379038114	-0.3656857659	-0.322444
C	-2.7996143684	-0.885415014	-1.4057225667	 0.314628
C	-2.9061148954	-1.7447856251	-2.2403715466	-0.465352
H	 1.278486848	 0.9359056459	-1.1314681152	 0.118301
H	-0.3811896728	 1.2690587504	-1.6137367871	 0.130986
H	 0.2192605529	 1.8867756874	-0.0627940325	 0.127025
H	-0.183142204	-1.0652144634	-0.7970077921	 0.09343
H	 1.8210068634	-0.6977648813	 0.6297258157	 0.150149
H	 0.8412820798	 0.2016967467	 1.7966829859	 0.157373
H	-1.715865624	-0.9160373695	 1.1056917434	 0.23971
H	-3.5402852238	 0.2015265393	 0.2363223386	 0.141203
H	-2.5110983108	 1.1201022555	-0.8373703433	 0.139609
H	-3.0151408457	-2.5021447222	-2.9770065386	 0.202362
30.9489	82.7178	92.1899	145.7476	183.7484	244.6919	270.1074	329.3969	355.4294	394.1855	400.3412	457.0255	552.0358	622.6176	629.3447	664.8898	760.7991	827.2391	893.8929	922.7735	926.0742	963.22	997.0056	1074.2319	1116.6035	1134.3307	1175.3653	1240.9778	1285.3591	1310.0988	1359.2108	1375.8454	1389.0832	1406.0678	1454.5841	1468.3949	1489.9253	1504.5112	1527.4075	2226.5982	2357.7892	2966.7369	3038.4447	3042.5076	3050.3752	3071.4398	3095.5993	3113.059	3121.0762	3502.9033	3503.6668
CC(CC#N)NCC#C	C[C@@H](CC#N)NCC#C	
InChI=1S/C7H10N2/c1-3-6-9-7(2)4-5-8/h1,7,9H,4,6H2,2H3	InChI=1S/C7H10N2/c1-3-6-9-7(2)4-5-8/h1,7,9H,4,6H2,2H3/t7-/m0/s1
