15
gdb 29251	3.27319	1.43455	0.99873	1.8039	74.63	-0.2048	-0.0237	0.1811	1111.034	0.11523	-450.159802	-450.151987	-450.151043	-450.19208	30.232	
N	 0.047074495	 1.3965132499	 0.3249706463	-0.592168
C	-0.0120796423	 0.0342606555	 0.0519867563	 0.201912
C	-1.1325761309	-0.6890072787	-0.0909516437	-0.035424
O	-1.1502035771	-2.0520308169	-0.3045504001	-0.229265
C	 0.0055764568	-2.7671470345	-0.3533132991	 0.464664
N	 0.0513856487	-4.0212373141	-0.5240306409	-0.578382
N	 1.1697877709	-2.0320100883	-0.2094152801	-0.413008
C	 1.281545605	-0.661917963	-0.0349622407	 0.382644
N	 2.3688176471	 0.0062063351	 0.0451589267	-0.557375
H	 0.9777478729	 1.7560457101	 0.147822653	 0.269373
H	-0.6783973836	 1.9548328612	-0.0999408172	 0.246898
H	-2.1375437209	-0.292195461	-0.0543715213	 0.127698
H	-0.8866217992	-4.4037569181	-0.6118811963	 0.23007
H	 2.009990294	-2.5880839952	-0.2704647533	 0.268358
H	 3.1987969836	-0.580274982	-0.0356125396	 0.214004
89.8774	134.9399	260.814	324.6533	349.041	376.0787	388.1406	457.2291	547.2801	581.0506	600.4228	673.3202	706.0084	747.0689	760.6836	793.5434	813.5277	828.2876	837.5445	916.5343	1062.3619	1126.8861	1153.3978	1222.5796	1300.0823	1313.2114	1412.5461	1416.8164	1484.0209	1623.9281	1704.7935	1732.6339	1771.8913	3232.7442	3485.5456	3534.9462	3539.807	3625.38	3650.5925
NC1=COC(=N)NC1=N	NC1=C(N[C@@H](OC1)[NH])[NH]	
InChI=1S/C4H6N4O/c5-2-1-9-4(7)8-3(2)6/h1H,5H2,(H3,6,7,8)	InChI=1S/C4H8N4O/c5-2-1-9-4(7)8-3(2)6/h4,6-8H,1,5H2/t4-/m0/s1
