18
gdb 10657	2.7243	1.66846	1.27481	2.5735	69.45	-0.2528	-0.034	0.2188	1031.1147	0.150699	-384.941902	-384.932821	-384.931876	-384.975751	32.251	
C	 0.1581127836	 1.244149415	 0.5477309177	-0.383647
C	-0.4682111394	 0.0527854347	-0.1900264489	-0.276199
C	 0.3950834303	-0.4262289529	-1.3345249807	 0.279969
O	 1.7143933001	-0.9316891127	-1.0345235335	-0.287683
C	 0.7724213539	-1.8455863234	-1.5799313003	 0.029076
C	 0.3206791669	-3.0011980131	-0.7250465147	-0.427073
C	 0.4057307018	 0.4312835373	-2.5689060551	 0.130784
O	-0.4016775153	 1.2912925261	-2.8123894035	-0.259751
H	 1.1402005957	 0.9765709927	 0.948213082	 0.130717
H	 0.2813823794	 2.100063895	-0.1217686273	 0.135017
H	-0.4777532354	 1.5579981577	 1.380237519	 0.115375
H	-0.6525174388	-0.7638269751	 0.5119978584	 0.102096
H	-1.4349477809	 0.3449579672	-0.6134163004	 0.125267
H	 0.9865236567	-2.1177779945	-2.617162198	 0.092781
H	 0.1808760298	-2.7065166352	 0.315926737	 0.137131
H	-0.6177660827	-3.4156215757	-1.1077147602	 0.131882
H	 1.0741708112	-3.7950718729	-0.7535293213	 0.136591
H	 1.2486236831	 0.1942628198	-3.25648679	 0.087667
64.7452	102.5448	143.7399	208.7614	217.9214	232.8625	265.7366	312.6502	404.9261	469.338	529.7171	555.2788	727.5009	774.1571	802.2776	883.1577	970.2824	978.5471	1020.4094	1034.8273	1093.7156	1101.8877	1135.6304	1178.595	1251.8526	1315.3571	1323.8025	1371.5281	1405.0827	1406.6485	1415.6341	1456.2666	1469.2598	1487.1391	1499.7731	1503.9235	1510.8466	1824.2082	2887.0997	3043.4555	3045.4792	3058.7307	3070.2808	3099.4394	3105.372	3117.8089	3126.0513	3144.9014
CCC1(OC1C)C=O	CC[C@]1(O[C@H]1C)C=O	
InChI=1S/C6H10O2/c1-3-6(4-7)5(2)8-6/h4-5H,3H2,1-2H3	InChI=1S/C6H10O2/c1-3-6(4-7)5(2)8-6/h4-5H,3H2,1-2H3/t5-,6-/m0/s1
