18
gdb 102790	2.33748	1.0529	0.79727	5.851	69.49	-0.2396	-0.013	0.2266	1411.8293	0.145422	-476.260673	-476.250479	-476.249535	-476.297141	35.634	
N	 0.9027832016	-0.0762539449	-1.0187644106	-0.515715
C	 0.0735950338	 0.2034732137	 0.0200980964	 0.39378
O	 0.3304124631	 1.039082392	 0.8703068708	-0.371402
C	-1.2474293964	-0.5946947909	 0.0287690453	-0.11547
C	-1.0106102375	-2.1129476447	-0.011004474	-0.100419
O	-0.5258021759	-2.4691060264	-1.3057646993	-0.419779
C	-2.1011743028	-0.2112000747	 1.2527616506	-0.285058
C	-2.7209201574	 1.169437432	 1.138902027	 0.145495
O	-3.9017685815	 1.3806127392	 1.2577403336	-0.245164
H	 1.8096681192	 0.3623763995	-1.0186560237	 0.256573
H	 0.7365643107	-0.8992364968	-1.5796052107	 0.269643
H	-1.7914591939	-0.3500427339	-0.8935766929	 0.119004
H	-0.2967912485	-2.4040459003	 0.7738726967	 0.108234
H	-1.9602828215	-2.6268519635	 0.1897836744	 0.110157
H	-0.2666402168	-3.3952147951	-1.292212444	 0.297562
H	-2.915718784	-0.9259088859	 1.3997071525	 0.108526
H	-1.4584193586	-0.2102303231	 2.14135761	 0.138085
H	-1.9989519536	 1.986668104	 0.9413726778	 0.105946
41.8537	52.5879	88.9827	132.3147	190.0316	245.4875	275.3755	300.6845	356.9715	382.0671	423.5307	443.788	555.4492	583.4842	635.3009	733.5402	779.265	831.7712	966.7433	989.4664	1043.5026	1089.5568	1096.9623	1100.4973	1148.3034	1215.5948	1230.9119	1257.7517	1294.9479	1316.5103	1346.8889	1390.1218	1414.5003	1446.0607	1453.7748	1518.2399	1620.3976	1782.0127	1826.0422	2943.5241	2990.5701	3022.0309	3037.1446	3042.8905	3105.3323	3554.3711	3701.9697	3833.984
NC(=O)C(CO)CC=O	NC(=O)[C@@H](CO)CC=O	
InChI=1S/C5H9NO3/c6-5(9)4(3-8)1-2-7/h2,4,8H,1,3H2,(H2,6,9)	InChI=1S/C5H9NO3/c6-5(9)4(3-8)1-2-7/h2,4,8H,1,3H2,(H2,6,9)/t4-/m1/s1
