19
gdb 97906	4.41945	0.57947	0.53376	0.8878	81.6	-0.249	-0.0273	0.2217	2015.9052	0.155679	-423.004879	-422.994019	-422.993075	-423.043226	36.8	
C	 0.544859078	 1.6138090854	-0.3063416464	-0.405088
C	-0.0424821491	 0.2237815549	-0.0052268514	-0.070773
C	 0.2464730061	-0.8128301459	-1.109416989	-0.363124
C	-0.3653966978	-0.4702470496	-2.3872611688	-0.01109
C	-0.8979768537	-0.1654276315	-3.4248934956	 0.123449
C	-1.4826199885	 0.1979929996	-4.7154713977	-0.195195
O	-0.788248806	 1.2470122598	-5.3780864746	-0.402334
C	 0.4499543041	-0.2610627108	 1.3436791765	 0.148856
O	 1.0031730072	-1.3123428365	 1.5430777326	-0.242687
H	 1.6342461905	 1.5636266594	-0.4096143818	 0.1275
H	 0.1310396292	 2.0005290108	-1.240393148	 0.148473
H	 0.3125050587	 2.3247602513	 0.4927574847	 0.122042
H	-1.13238863	 0.339971888	 0.0975345502	 0.110582
H	 1.3325863097	-0.915772427	-1.2265105859	 0.137522
H	-0.1029672774	-1.7964782632	-0.7763601727	 0.14591
H	-1.5504797599	-0.7001452696	-5.3502272733	 0.118079
H	-2.506735168	 0.5626918646	-4.5781253119	 0.138336
H	 0.1396908274	 0.9934914957	-5.4204878039	 0.286641
H	 0.2628021993	 0.4542127445	 2.178315027	 0.082899
17.4349	43.4962	83.9544	109.0993	140.21	209.0549	230.9618	249.963	309.8686	342.0194	363.8427	388.8394	482.2968	556.0053	652.7406	792.983	815.8252	878.8457	922.141	934.6032	987.5204	1044.0552	1080.4058	1105.3903	1155.3364	1160.5093	1214.7929	1251.2174	1285.6513	1316.9941	1359.2654	1371.4857	1402.9523	1418.892	1424.0848	1460.3639	1492.8689	1496.5827	1504.8185	1827.7049	2358.9669	2862.134	2975.4515	2999.9333	3034.8164	3037.9659	3060.8638	3070.3537	3104.7691	3128.1985	3816.6727
CC(CC#CCO)C=O	C[C@@H](CC#CCO)C=O	
InChI=1S/C7H10O2/c1-7(6-9)4-2-3-5-8/h6-8H,4-5H2,1H3	InChI=1S/C7H10O2/c1-7(6-9)4-2-3-5-8/h6-8H,4-5H2,1H3/t7-/m0/s1
