16
gdb 33616	3.58221	1.65448	1.47006	1.7158	78.81	-0.2245	0.017	0.2415	916.5417	0.124986	-363.479968	-363.47341	-363.472466	-363.51065	27.375	
C	 0.0391320916	-1.2097343225	 0.0191196131	-0.296819
C	-0.0092093833	-0.007467578	 0.0369764508	-0.026394
C	-0.0938670784	 1.4135548202	 0.0513631908	 0.360387
C	-0.6935114595	 2.3468851274	 1.1384427944	-0.18998
C	-0.9484068795	 3.344089895	 0.0218543895	-0.094305
C	 0.40047938	 3.288653897	 0.7446948882	-0.021958
N	 1.1934184819	 2.2947560582	-0.0445420753	-0.192696
C	 0.8359306842	 2.5940054137	-1.4812881006	-0.18809
C	-0.6344864751	 2.3415597858	-1.1111329533	-0.133618
H	 0.0900352692	-2.2703390104	 0.0074242476	 0.18154
H	-1.1856400379	 2.1503007031	 2.0802416871	 0.105258
H	-1.5974140276	 4.2080788917	 0.0118998271	 0.096013
H	 0.8562774542	 4.1091365127	 1.2817086188	 0.098607
H	 1.1318366715	 3.5859029011	-1.8343338781	 0.103216
H	 1.2584933247	 1.8172556873	-2.1243968479	 0.117436
H	-1.417753146	 2.0495172276	-1.808790132	 0.081404
140.9244	158.8087	389.3493	467.2725	494.7909	537.9311	570.2552	626.3498	658.6185	733.517	766.8326	794.4619	815.504	820.0772	867.2255	884.9298	918.688	935.0328	959.2217	982.7738	1017.1452	1034.5325	1046.0001	1064.4595	1077.8098	1143.566	1180.1293	1193.9086	1221.6996	1248.7542	1287.2147	1303.4714	1345.435	1492.9435	2231.9208	3055.3266	3117.3212	3131.6228	3205.7412	3212.7222	3226.5035	3501.7636
C#CC12C3C4C3N1CC24	C#C[C@@]12[C@@H]3[C@H]4[C@@H]3N1C[C@@H]24	
InChI=1S/C8H7N/c1-2-8-4-3-9(8)7-5(4)6(7)8/h1,4-7H,3H2	InChI=1S/C8H7N/c1-2-8-4-3-9(8)7-5(4)6(7)8/h1,4-7H,3H2/t4-,5+,6-,7+,8-/m1/s1
