22
gdb 93711	2.45334	1.18863	1.09041	3.9382	85.74	-0.3056	0.0419	0.3475	1283.5942	0.19471	-367.25889	-367.249316	-367.248372	-367.293532	36.08	
C	-0.1663261563	 1.5484092404	 0.0056249261	-0.41336
C	 0.0635770807	 0.0392146313	-0.0146549758	 0.037274
C	 0.9357662976	-0.4577425196	-1.1892445626	-0.210542
C	 1.5622916986	-1.7993149416	-0.7266064527	-0.251862
C	 1.2200996844	-1.9492564381	 0.7988496432	 0.129308
C	 2.3911272732	-2.5076241045	 1.6268725434	-0.444472
C	 0.801249047	-0.5132062021	 1.2130365831	-0.232321
C	 0.0630126475	-2.8445589855	 0.9536374241	 0.268498
N	-0.8451484732	-3.5500642879	 1.0772998318	-0.358261
H	 0.7844539023	 2.0898144169	 0.0787375399	 0.111701
H	-0.6704515869	 1.8840714079	-0.906632895	 0.117812
H	-0.7878548322	 1.8469676131	 0.8561926361	 0.117416
H	-0.9113894011	-0.4628654969	-0.0704649849	 0.09629
H	 0.3613050436	-0.5625715138	-2.1133571326	 0.106276
H	 1.7255178646	 0.275603245	-1.3896815971	 0.099047
H	 1.1875383941	-2.6536523243	-1.2939133021	 0.124272
H	 2.6492513126	-1.7917421529	-0.8462263735	 0.106208
H	 3.257111048	-1.84633649	 1.5266270969	 0.12047
H	 2.1291683105	-2.5765521294	 2.686471506	 0.133496
H	 2.6771286981	-3.5057178041	 1.2832698319	 0.134395
H	 1.7133033482	 0.07040595	 1.3953081474	 0.09556
H	 0.2060809486	-0.4968901539	 2.1299921966	 0.112797
38.6151	103.6044	183.7995	198.7308	232.7142	245.5912	277.9777	343.5674	368.4179	420.6172	462.5864	541.4818	610.4374	619.75	744.5316	786.8851	852.6279	870.3061	908.32	935.006	945.5675	977.2344	1007.0254	1059.9246	1072.8876	1109.7122	1136.6328	1168.8488	1178.6143	1231.6583	1260.9986	1289.1255	1303.4944	1316.8629	1333.5509	1359.2876	1388.4715	1411.3445	1414.1492	1482.48	1488.1471	1489.444	1497.1118	1498.8723	1500.8932	1512.5863	2345.8496	3015.0525	3024.6728	3028.0716	3039.7152	3040.2394	3064.9327	3087.7181	3092.5958	3098.5639	3100.3405	3113.8177	3117.0629	3118.9002
CC1CCC(C)(C1)C#N	C[C@H]1CC[C@@](C)(C1)C#N	
InChI=1S/C8H13N/c1-7-3-4-8(2,5-7)6-9/h7H,3-5H2,1-2H3	InChI=1S/C8H13N/c1-7-3-4-8(2,5-7)6-9/h7H,3-5H2,1-2H3/t7-,8-/m0/s1
