19
gdb 67092	2.63882	2.10315	1.76446	0.2483	83.63	-0.2152	0.0057	0.2209	889.8559	0.160283	-348.654791	-348.647992	-348.647047	-348.685299	29.195	
C	-0.0539498808	 1.5156929954	-0.0628895012	-0.52709
C	-0.0600811246	 0.0145697369	-0.0601161402	 0.388513
C	 0.817164152	-0.9587523225	-0.9119798686	-0.153809
C	 1.9662113808	-0.9505045691	 0.1556291639	-0.365474
C	 0.660743713	-0.9311250608	 0.9812989915	 0.274969
C	-0.167667057	-0.9031890958	 2.2500957299	-0.25345
C	-1.417265743	-0.9038166033	 1.7553886389	-0.087113
C	-1.2748839851	-0.9350655169	 0.2145471409	-0.196698
C	-0.0664644293	-1.8819531921	-0.0262653474	-0.022707
H	 0.9669652554	 1.9123941086	-0.0925387656	 0.118677
H	-0.5891574721	 1.9116058921	-0.9332265512	 0.119604
H	-0.54524458	 1.8999650324	 0.8384606424	 0.123395
H	 0.9228101468	-0.9815181212	-1.9972446556	 0.065964
H	 2.577567535	-1.8561454667	 0.2201163709	 0.096875
H	 2.5999706524	-0.0591614748	 0.196455352	 0.097325
H	 0.1626071525	-0.8776830009	 3.2782874625	 0.105907
H	-2.3498153132	-0.8860989092	 2.3031404708	 0.099176
H	-2.1847213914	-0.9447410813	-0.3897570306	 0.050027
H	-0.0395655912	-2.9733121508	 0.0236945566	 0.065909
214.5872	232.5542	248.221	377.3491	440.5356	454.9365	555.6711	614.8946	701.4523	705.5704	748.4309	763.8035	811.5373	844.4348	850.7574	885.7077	893.8652	906.5791	917.1797	949.0638	997.3891	1017.1235	1064.5362	1092.9567	1101.7977	1132.6939	1141.4376	1148.1604	1169.471	1184.9332	1206.1939	1234.6225	1265.4561	1279.9625	1318.5568	1334.285	1404.4584	1483.9225	1490.9217	1505.4144	1582.5044	3022.6284	3041.244	3080.2567	3088.0308	3089.4174	3092.2577	3099.443	3105.7044	3217.1732	3246.1849
CC12C3CC11C=CC2C31	C[C@@]12[C@H]3C[C@]41C=C[C@@H]2[C@@H]34	
InChI=1S/C9H10/c1-8-5-2-3-9(8)4-6(8)7(5)9/h2-3,5-7H,4H2,1H3	InChI=1S/C9H10/c1-8-5-2-3-9(8)4-6(8)7(5)9/h2-3,5-7H,4H2,1H3/t5-,6+,7+,8-,9-/m1/s1
