15
gdb 20415	6.09633	1.52002	1.29182	3.1688	67.85	-0.211	0.0305	0.2415	918.6715	0.121714	-358.82739	-358.820713	-358.819769	-358.858796	24.955	
C	 0.4320024638	 0.4628114019	-0.7155401607	-0.233447
C	 0.2671889383	 1.6751359564	 0.130835302	-0.218187
N	 0.8158886834	 0.4538065901	 0.7054538278	-0.165522
C	 0.0304469415	-0.2617277445	 1.6130386168	 0.409506
C	-0.8883006618	 0.1214127561	 2.573775578	-0.299242
C	-1.2495628353	-1.0864885015	 3.2121236677	 0.001322
N	-0.6206500393	-2.137928544	 2.7018279774	-0.231485
N	 0.1579986763	-1.6090228464	 1.7280835718	-0.256256
H	-0.4697528049	-0.0766332981	-0.9936998106	 0.130843
H	 1.2579231413	 0.3873805924	-1.4156602868	 0.127586
H	 0.9658301158	 2.5019041786	 0.0496082672	 0.12797
H	-0.7476293428	 1.9497227331	 0.4068675252	 0.130417
H	-1.228324804	 1.1210709278	 2.7868494276	 0.098362
H	-1.9487822287	-1.2265512329	 4.0239387866	 0.107562
H	 0.7729094863	-2.2058524389	 1.201592	 0.27057
52.7989	165.7005	207.9729	369.0039	478.3784	492.5257	571.2727	680.2838	714.6032	779.2285	822.432	885.2837	889.7784	914.7621	934.5473	1034.453	1041.2686	1062.216	1113.7688	1121.2939	1136.9745	1176.6768	1178.1764	1218.3884	1278.4289	1336.9053	1377.784	1439.4364	1488.7524	1511.69	1515.8679	1610.3775	3112.0512	3115.772	3197.7212	3211.6301	3239.323	3273.0246	3675.8506
C1CN1C1=CC=NN1	C1CN1c1ccn[nH]1	
InChI=1S/C5H7N3/c1-2-6-7-5(1)8-3-4-8/h1-2H,3-4H2,(H,6,7)	InChI=1S/C5H7N3/c1-2-6-7-5(1)8-3-4-8/h1-2H,3-4H2,(H,6,7)
