19
gdb 50577	3.33389	1.24476	1.01323	3.8805	75.97	-0.2492	-0.0202	0.2289	1189.5911	0.15947	-423.020391	-423.012314	-423.01137	-423.053388	30.816	
O	-0.0815260206	-0.0429616661	 0.0775371387	-0.230544
C	 0.0060154157	 1.1508439818	-0.0035460072	 0.145689
C	 1.2935764456	 1.9518415591	 0.0269951001	 0.04196
C	 1.3077843046	 2.9056386184	 1.2352345912	-0.236904
C	 2.5500642155	 3.807153245	 1.1618832459	-0.236618
C	 3.7979870801	 3.0408512589	 0.7553784244	-0.041238
C	 4.2762869294	 1.8096830479	 1.4963735023	-0.305827
C	 3.6502773638	 1.6750639719	 0.1330284927	 0.10278
O	 2.386699019	 1.0683936518	 0.058629828	-0.247623
H	-0.8954752145	 1.8018172809	-0.102970163	 0.07025
H	 1.2992739033	 2.5649863897	-0.8963869735	 0.080526
H	 0.399231609	 3.5171187886	 1.2537614757	 0.105133
H	 1.3105459179	 2.2962233103	 2.1461998468	 0.12114
H	 2.3665073825	 4.5852753984	 0.4098445696	 0.103881
H	 2.7028090378	 4.3243835339	 2.1161405869	 0.106861
H	 4.5831955944	 3.6627728395	 0.3353128338	 0.090766
H	 5.3445140398	 1.6568387119	 1.6038098231	 0.112564
H	 3.6801787856	 1.4439141055	 2.3254795241	 0.121748
H	 4.2797152412	 1.4065524426	-0.7114980098	 0.095456
75.4327	108.1171	164.4552	242.7556	301.938	354.9512	401.5582	459.7171	503.1923	628.7313	701.0709	757.9126	779.0677	824.833	869.3269	905.0658	931.6791	956.3682	992.3559	1033.2962	1043.9071	1049.8088	1103.8845	1120.9036	1127.5823	1133.9471	1191.1444	1216.4805	1245.3591	1257.4779	1304.4681	1348.8081	1362.7918	1371.6027	1392.0693	1409.1669	1429.1776	1477.1965	1480.72	1495.4993	1851.6621	2845.6167	2911.2	3020.5604	3037.5387	3059.1324	3085.4905	3131.4149	3134.06	3146.9799	3221.8809
O=CC1CCC2CC2O1	O=C[C@H]1CC[C@H]2C[C@H]2O1	
InChI=1S/C7H10O2/c8-4-6-2-1-5-3-7(5)9-6/h4-7H,1-3H2	InChI=1S/C7H10O2/c8-4-6-2-1-5-3-7(5)9-6/h4-7H,1-3H2/t5-,6+,7+/m0/s1
