17
gdb 50169	3.64755	1.32824	1.18761	3.7372	75.09	-0.2253	-0.0372	0.1882	1054.2216	0.135633	-417.823842	-417.816527	-417.815583	-417.855897	28.808	
O	-0.8282074108	 0.9556704393	 0.5067698928	-0.248635
C	 0.2120671435	 0.6585486098	-0.0204564505	 0.162952
C	 1.4242713887	 1.5674203301	-0.0370155303	-0.14562
N	 2.6493782579	 0.9215833058	-0.698291753	-0.433894
C	 2.4227803749	 1.9165465471	-1.8080380202	 0.261466
C	 2.6954407595	 3.1463822142	-2.7423208756	-0.24068
N	 1.1396763192	 3.1650036297	-2.5272438321	-0.164549
C	 1.2334841699	 1.6549309185	-2.7518302473	-0.18259
C	 1.543712617	 2.8178315464	-1.0289141038	-0.005963
H	 0.3709569336	-0.3213151938	-0.5214009798	 0.097943
H	 1.6025147818	 1.904294143	 0.987917112	 0.122357
H	 3.4791957142	 1.1414609538	-0.1502185549	 0.225514
H	 3.2124286156	 4.003338843	-2.3062361686	 0.11755
H	 2.9594107703	 2.9906127327	-3.7918125328	 0.118405
H	 1.4492284461	 1.3758847977	-3.785657404	 0.107201
H	 0.3651052863	 1.1091465962	-2.3784944294	 0.11743
H	 1.9401171322	 3.6970834165	-0.5199987027	 0.091113
65.2645	155.3018	222.6103	336.9305	393.6763	437.1826	514.5595	534.8867	586.3478	695.0842	725.2196	791.5847	810.8135	839.8068	890.1519	900.8651	928.3131	986.4702	1003.674	1011.1978	1035.6988	1060.523	1088.924	1128.3155	1143.771	1154.8121	1180.3774	1194.7338	1233.755	1268.5511	1291.8871	1317.5552	1362.3554	1402.1738	1505.5452	1549.7121	1822.8302	2898.2348	3058.3994	3070.396	3076.5362	3101.1509	3132.7115	3140.1016	3486.9142
O=CC1NC23CN(C2)C13	O=C[C@H]1N[C@@]23CN(C2)[C@@H]13	
InChI=1S/C6H8N2O/c9-1-4-5-6(7-4)2-8(5)3-6/h1,4-5,7H,2-3H2	InChI=1S/C6H8N2O/c9-1-4-5-6(7-4)2-8(5)3-6/h1,4-5,7H,2-3H2/t4-,5+/m1/s1
