19
gdb 34754	4.79202	1.18614	1.08389	0.8776	85.88	-0.2509	0.0498	0.3006	1149.6567	0.160972	-348.688461	-348.681218	-348.680274	-348.719905	29.799	
C	-0.0877615429	-1.2570475297	-0.1455122201	-0.442196
C	-0.0403362507	-0.0576714948	-0.0618194171	 0.303023
C	-0.0021382446	 1.3890083309	 0.0200688009	-0.191859
C	 0.0459182734	 2.0808623467	 1.4157933761	-0.058002
C	 1.5454203895	 1.6635510544	 1.5712553342	-0.005004
C	 2.2861282246	 2.7551328013	 2.3427756896	-0.242216
C	 1.6230147616	 4.017820385	 1.7199087066	-0.248855
C	 0.6604200541	 3.3485745446	 0.7399613861	-0.01204
C	 1.3721648127	 2.1211463347	 0.0855188883	-0.058002
H	-0.1276906455	-2.3155462535	-0.2174984733	 0.188635
H	-0.7177725436	 1.8340787007	-0.6799214264	 0.089221
H	-0.729671739	 2.0515639919	 2.1836484552	 0.071422
H	 1.7811041123	 0.6193260046	 1.7746039449	 0.078325
H	 2.1215120424	 2.6800562892	 3.4223373919	 0.098718
H	 3.3668862191	 2.7178842496	 2.1731785838	 0.098718
H	 1.0972038949	 4.6291391143	 2.4602350295	 0.098824
H	 2.3426573773	 4.6669709253	 1.2109993614	 0.098824
H	 0.019006314	 3.9782362494	 0.1195574465	 0.061044
H	 2.1378430608	 2.1386630657	-0.6925747086	 0.071422
131.3922	141.0193	243.9944	341.8524	353.674	487.5193	524.0709	611.2017	635.5712	699.3696	719.6456	751.6772	804.5041	829.5915	844.7725	910.6765	922.6061	931.8632	958.0489	976.4638	996.7538	1024.2808	1054.4476	1056.0726	1084.5347	1109.7996	1114.072	1174.1993	1199.4563	1217.1147	1240.7312	1252.1009	1253.0778	1258.0183	1284.1589	1315.8309	1360.5434	1393.0601	1488.8453	1509.6264	2229.5545	3042.4676	3044.1501	3052.0376	3075.5067	3088.804	3090.8538	3095.1588	3101.0147	3128.077	3504.6406
C#CC1C2C3CCC2C13	C#C[C@H]1[C@H]2[C@@H]3CC[C@H]2[C@H]13	
InChI=1S/C9H10/c1-2-5-8-6-3-4-7(8)9(5)6/h1,5-9H,3-4H2	InChI=1S/C9H10/c1-2-5-8-6-3-4-7(8)9(5)6/h1,5-9H,3-4H2/t5-,6-,7+,8-,9+
