18
gdb 37713	3.5459	1.99036	1.51173	1.1927	80.11	-0.2072	0.0093	0.2165	886.9143	0.150173	-364.713379	-364.707254	-364.70631	-364.743353	26.728	
C	-0.0767462863	 1.6139567379	 0.0336694331	-0.36004
C	 1.4421096384	 1.2617368193	-0.0111452208	-0.089488
C	 1.2446547246	 0.0337747211	 0.9138927484	-0.017265
N	 1.9291773856	-0.9396758612	-0.0101813647	-0.160527
C	 1.2638130902	-2.2679692695	 0.0203378014	-0.229218
C	-0.2594877855	-2.2715987679	 0.0679025336	-0.073898
C	-0.9387612226	-1.1203652399	 0.0806482803	-0.221758
C	-0.0587039902	 0.0734816317	 0.0444182258	 0.323567
C	 1.1879226093	 0.0204265663	-0.9039567646	-0.017265
H	-0.4348799028	 2.112774423	 0.9397953348	 0.098463
H	-0.4909107769	 2.0995906195	-0.8555833123	 0.098463
H	 2.3055419311	 1.9253127806	-0.0429638371	 0.080697
H	 1.3094919281	-0.0256425762	 2.0021387221	 0.076113
H	 1.6035384529	-2.8293009733	-0.8610580637	 0.114967
H	 1.658089786	-2.8164625501	 0.8869786668	 0.114967
H	-0.7555705537	-3.2381075304	 0.090479434	 0.092504
H	-2.0217975462	-1.0615782698	 0.1140144591	 0.093604
H	 1.1848048478	-0.0549795313	-1.9931388861	 0.076113
226.9913	290.0656	403.2881	416.8448	467.7688	546.984	621.3774	656.4978	744.9643	777.8159	830.3527	833.1845	847.0553	885.525	890.2478	905.1622	922.5044	965.0162	1011.3196	1019.5993	1025.3115	1058.2562	1076.0379	1114.5753	1114.9275	1154.8411	1167.1086	1170.1764	1175.291	1214.0387	1247.1761	1271.1446	1290.5972	1325.1286	1351.5227	1408.2915	1462.8247	1515.2784	1673.9467	3009.6381	3035.4027	3040.3454	3092.7248	3096.3407	3096.7174	3126.0498	3157.9562	3184.1494
C1C2C3N4CC=CC13C24	C1[C@H]2[C@@H]3N4CC=C[C@@]13[C@@H]24	
InChI=1S/C8H9N/c1-2-8-4-5-6(8)9(3-1)7(5)8/h1-2,5-7H,3-4H2	InChI=1S/C8H9N/c1-2-8-4-5-6(8)9(3-1)7(5)8/h1-2,5-7H,3-4H2/t5-,6-,7+,8+
