21
gdb 57512	2.69268	0.97887	0.8582	1.0188	79.61	-0.249	-0.0947	0.1542	1447.1455	0.177789	-424.258286	-424.24756	-424.246616	-424.294481	38.741	
C	 0.026274251	 1.5913995166	 0.2336793173	-0.412145
C	 0.0263930419	 0.0641250345	 0.0296829316	 0.247876
C	 0.4687839828	-0.6419728913	 1.3257890667	-0.412141
C	-1.3987400456	-0.3954967185	-0.3327795506	-0.400722
C	 0.9489047076	-0.3277670514	-1.1455535287	-0.314206
C	 2.4168481286	 0.0099861809	-1.0491277577	 0.273586
O	 2.9809685646	 0.5689639726	-0.1352633029	-0.277815
C	 3.289734417	-0.4048015801	-2.2492836365	 0.10273
O	 2.8702713259	-0.966287325	-3.2259519134	-0.220002
H	 1.0167609223	 1.9559339523	 0.5126413683	 0.138
H	-0.2886638991	 2.1110400472	-0.6787762468	 0.103324
H	-0.6750274592	 1.8676476042	 1.0282402637	 0.109909
H	-0.2243589078	-0.4075664054	 2.140689061	 0.109915
H	 0.4727298844	-1.7309735893	 1.1998906563	 0.103328
H	 1.4690884525	-0.3271867625	 1.6292190989	 0.137989
H	-1.7525832444	 0.0866856037	-1.2508778028	 0.109396
H	-1.4421829585	-1.4797314712	-0.4849530887	 0.109399
H	-2.1001059246	-0.142353289	 0.4691579536	 0.112837
H	 0.8934142844	-1.4093237559	-1.3373751347	 0.135859
H	 0.5908463862	 0.1192732463	-2.0844961872	 0.13585
H	 4.3560982899	-0.1253191687	-2.1099374375	 0.107032
29.7356	105.2711	131.6742	144.8363	217.7037	220.6989	261.3912	276.0922	308.4668	326.2487	395.4136	397.6504	419.4688	463.371	529.968	616.8633	774.9059	829.7483	830.6792	930.8281	939.0469	951.0482	964.7425	995.4186	1051.1347	1071.9531	1142.6119	1176.1136	1240.4213	1273.5894	1297.0972	1363.2363	1377.9498	1400.4377	1401.2154	1420.9033	1438.5739	1481.2903	1486.9636	1492.6666	1507.5082	1511.0673	1525.1137	1798.3807	1826.9808	2918.246	3012.8801	3023.4918	3028.2724	3034.8474	3037.0646	3088.0675	3090.6685	3093.3956	3099.836	3131.9671	3134.9382
CC(C)(C)CC(=O)C=O	CC(C)(C)CC(=O)C=O	
InChI=1S/C7H12O2/c1-7(2,3)4-6(9)5-8/h5H,4H2,1-3H3	InChI=1S/C7H12O2/c1-7(2,3)4-6(9)5-8/h5H,4H2,1-3H3
