18
gdb 11759	4.9857	1.26858	1.17764	0.8864	68.	-0.2486	0.0713	0.3199	1047.698	0.153519	-384.901043	-384.892926	-384.891982	-384.933496	30.662	
O	 0.2049357144	 1.3379778956	 0.1518575453	-0.414431
C	 0.066091136	-0.0506170631	-0.1259623421	-0.172862
C	-1.3628219187	-0.5007233612	-0.1132558015	 0.337399
C	-2.0769656112	-0.9254943542	 1.1444964618	-0.329738
C	-1.9353770896	-1.9193982606	 0.023481214	-0.116025
C	-2.9522430552	-1.6275958181	-1.0719204095	 0.125123
O	-4.2894386792	-1.8244599587	-0.6644213066	-0.432933
C	-2.4080551908	-0.1589843487	-1.1843438167	-0.331853
H	-0.2447258541	 1.5052223294	 0.9870639862	 0.281165
H	 0.5061650665	-0.1903680972	-1.1201507801	 0.105929
H	 0.6522781387	-0.6627977257	 0.5795990357	 0.083071
H	-1.4399550569	-1.1218234224	 2.0021450099	 0.107773
H	-3.0559493	-0.5249102136	 1.3906074295	 0.121637
H	-1.4129182359	-2.8589203812	 0.1585098059	 0.085851
H	-2.7312381579	-2.196453056	-1.9849233686	 0.070007
H	-4.8654070239	-1.5684803024	-1.3920515395	 0.282691
H	-3.1212812304	 0.6285409862	-0.9225652116	 0.095607
H	-1.9749801918	 0.0600382518	-2.1637502322	 0.101588
89.1411	106.7056	195.3756	267.7919	299.2806	346.417	352.4613	405.0529	431.6697	568.7208	662.6154	719.7927	828.1441	871.9201	910.7267	935.4774	966.6739	980.5546	986.3237	1035.5339	1051.3162	1071.9146	1085.0645	1115.5321	1166.0441	1177.0796	1217.6973	1239.341	1269.6778	1292.8571	1329.2831	1368.7697	1401.2115	1421.1916	1432.3326	1475.3231	1496.2051	1506.3378	2965.1442	3006.5203	3049.0477	3057.7793	3106.4509	3117.451	3181.2422	3203.1522	3807.941	3814.5693
OCC12CC1C(O)C2	OC[C@]12C[C@H]1[C@@H](O)C2	
InChI=1S/C6H10O2/c7-3-6-1-4(6)5(8)2-6/h4-5,7-8H,1-3H2	InChI=1S/C6H10O2/c7-3-6-1-4(6)5(8)2-6/h4-5,7-8H,1-3H2/t4-,5-,6+/m0/s1
