19
gdb 86166	2.73607	1.18881	0.8893	1.8335	88.21	-0.2315	-0.0228	0.2086	1328.579	0.157904	-385.876731	-385.867444	-385.8665	-385.910692	35.188	
C	-0.0128114225	 1.5805954008	-0.060485876	-0.397903
C	 0.0462477274	 0.0507531386	 0.0210237485	-0.015116
C	 0.7574828528	-0.6300558725	-1.1746693887	-0.253377
C	 1.4938756971	-1.8629838238	-0.5982556336	 0.031079
O	 2.7182588741	-2.1695240001	-1.2362145049	-0.419692
C	 1.6125582492	-1.5167721821	 0.8877006607	 0.098252
C	 0.8225939194	-0.4790591002	 1.2024079743	-0.176088
C	 2.4418731081	-2.2592636751	 1.7610702785	 0.237659
C	 3.1625417076	-2.9098398214	 2.4750155881	-0.41623
H	 0.9945561347	 2.007264464	-0.1169291836	 0.116308
H	-0.5665665689	 1.9036647453	-0.9480294322	 0.118214
H	-0.5104858157	 2.0064391336	 0.8171520345	 0.116011
H	-0.9880484382	-0.3211301637	 0.0893660077	 0.089505
H	 0.0811310259	-0.8869256482	-1.9934122383	 0.104484
H	 1.5156575607	 0.0514645574	-1.5810719989	 0.095356
H	 0.8956697231	-2.7752394784	-0.7151715321	 0.102355
H	 3.3315050366	-1.4476039249	-1.0578878244	 0.277415
H	 0.712673608	-0.0731091974	 2.2024369128	 0.100463
H	 3.7938935204	-3.4810059617	 3.1093127479	 0.191303
77.5784	109.5354	129.1401	228.2075	250.8577	280.0723	320.2678	377.7171	413.2407	473.709	514.3827	552.229	591.0356	597.165	629.3172	666.0933	804.6768	859.7187	893.2528	931.7978	947.7175	986.4237	1044.7817	1084.8686	1107.8408	1130.8824	1179.1989	1214.0452	1255.8325	1266.4145	1308.409	1315.7155	1327.2676	1359.0397	1409.1764	1429.0875	1486.4127	1497.6366	1498.6931	1669.5133	2221.4623	2978.0467	3028.225	3030.9967	3037.1406	3099.0091	3101.487	3104.176	3191.3322	3503.9788	3797.2204
CC1CC(O)C(=C1)C#C	C[C@H]1C[C@@H](O)C(=C1)C#C	
InChI=1S/C8H10O/c1-3-7-4-6(2)5-8(7)9/h1,4,6,8-9H,5H2,2H3	InChI=1S/C8H10O/c1-3-7-4-6(2)5-8(7)9/h1,4,6,8-9H,5H2,2H3/t6-,8-/m1/s1
