20
gdb 78508	2.52217	1.57987	1.30579	1.0496	79.54	-0.1962	0.0778	0.274	1083.3757	0.169896	-403.076329	-403.067588	-403.066644	-403.109027	34.084	
C	-0.068984684	 1.5451054867	 0.0410914276	-0.32525
N	 0.0927463322	 0.0986907058	 0.0132198628	-0.072379
C	 0.7902315386	-0.5192787595	-1.1066870029	-0.158583
C	 2.3213357379	-0.5613142112	-0.8012611958	 0.313791
O	 3.2714172594	-0.7919730876	-1.775800312	-0.460912
C	 2.503570171	 0.0855537972	 0.5698297838	-0.319744
C	 1.1118241502	-0.5467842977	 0.8941090136	-0.07913
C	 1.3760099409	-1.6072221877	-0.2523495318	 0.282447
C	 1.3357182932	-3.0968376559	-0.3136402965	-0.532908
H	 0.8469535446	 2.1199916861	-0.1702099198	 0.094117
H	-0.8208158469	 1.8300182276	-0.7029976582	 0.118011
H	-0.4440701457	 1.846094681	 1.0251941317	 0.117759
H	 0.3967175718	-0.5711370742	-2.116285824	 0.089175
H	 3.3225885197	-0.0152558396	-2.3436719786	 0.286259
H	 3.2905125176	-0.4231233811	 1.1333430003	 0.105302
H	 2.6258772099	 1.1701075715	 0.6628730958	 0.085145
H	 0.8158854207	-0.7505691986	 1.9227375207	 0.075056
H	 0.3356500516	-3.4813902275	-0.0857929102	 0.126889
H	 1.6106850294	-3.4404998613	-1.316112734	 0.132996
H	 2.040413078	-3.5485724039	 0.3939024074	 0.121958
152.3231	173.0421	192.835	195.7634	221.5571	287.8911	313.9465	368.8712	409.9227	486.098	594.8624	600.3859	651.7176	707.2883	744.0975	805.3454	886.1512	912.1239	931.1712	945.5184	987.4382	1038.03	1091.8195	1104.0486	1113.4576	1137.254	1151.8626	1165.1752	1180.6934	1218.4271	1232.3447	1243.7289	1276.3029	1310.5556	1357.6735	1412.8486	1443.4038	1476.3633	1484.8249	1488.0395	1495.2298	1505.1483	1521.417	2972.4783	3025.5248	3038.9147	3058.8829	3085.2427	3095.6107	3100.1716	3100.1828	3117.545	3172.5474	3791.4054
CN1C2C3(O)CC1C23C	CN1[C@H]2[C@@]3(O)C[C@@H]1[C@@]23C	
InChI=1S/C7H11NO/c1-6-4-3-7(6,9)5(6)8(4)2/h4-5,9H,3H2,1-2H3	InChI=1S/C7H11NO/c1-6-4-3-7(6,9)5(6)8(4)2/h4-5,9H,3H2,1-2H3/t4-,5-,6+,7+/m1/s1
