22
gdb 109177	3.81471	0.97596	0.86288	1.8361	84.4	-0.2361	0.0326	0.2688	1455.1859	0.194806	-404.383268	-404.373726	-404.372782	-404.417922	35.307	
C	 0.3714970642	 0.7445478528	 0.8465903445	-0.376725
C	-0.2439620066	 0.4303345739	-0.526028038	-0.246638
C	-1.6119762867	-0.1902704235	-0.4228841462	 0.391508
N	-2.6480117877	 0.3924710206	-0.8654599831	-0.317027
C	-3.9511957545	-0.2326710553	-0.6720787082	-0.156312
C	-3.97550031	-1.2969099222	 0.4322851282	-0.016723
C	-5.2640186733	-2.1198051913	 0.4351333897	-0.40624
C	-2.745440082	-2.176456289	 0.2390653187	-0.071277
O	-1.5422924975	-1.4025497984	 0.2032034651	-0.266244
H	 1.3664297546	 1.1836011187	 0.7290480563	 0.114114
H	-0.2495938049	 1.4575321008	 1.3979774151	 0.122042
H	 0.4659694316	-0.1622569069	 1.4492677449	 0.129849
H	-0.3459650813	 1.3383995683	-1.123001988	 0.122268
H	 0.4119142686	-0.2622118814	-1.0674617707	 0.110336
H	-4.6761029435	 0.5599236633	-0.4507704741	 0.105719
H	-4.2751950214	-0.6768631296	-1.6252740139	 0.102585
H	-3.8696324923	-0.788879157	 1.4001515363	 0.086891
H	-5.3872709924	-2.6622592988	-0.5095581908	 0.118257
H	-5.2705068777	-2.855198722	 1.246872667	 0.115392
H	-6.1390916663	-1.4747955482	 0.5629953314	 0.122206
H	-2.615924736	-2.891368531	 1.0566125092	 0.111857
H	-2.828019495	-2.7433459337	-0.6996430632	 0.104159
55.3076	85.1474	175.292	196.3609	207.5418	216.4125	275.1329	327.4175	387.8905	420.1195	440.2401	530.5838	668.8415	715.1921	792.9256	805.1727	891.443	899.9566	939.8259	959.3112	986.7837	1011.8671	1065.5735	1085.4779	1117.7363	1139.1306	1169.6313	1180.3525	1232.0311	1237.923	1293.8428	1303.5298	1324.4139	1347.9653	1368.5358	1376.027	1405.7585	1411.3103	1426.0461	1474.9008	1485.1275	1497.0464	1499.1464	1499.8653	1509.6198	1512.4734	1747.7634	2994.6975	3001.6612	3021.5017	3028.8877	3038.8643	3043.2015	3045.6586	3084.6452	3094.5818	3101.8711	3108.3229	3113.8738	3132.2812
CCC1=NCC(C)CO1	CCC1=NC[C@@H](C)CO1	
InChI=1S/C7H13NO/c1-3-7-8-4-6(2)5-9-7/h6H,3-5H2,1-2H3	InChI=1S/C7H13NO/c1-3-7-8-4-6(2)5-9-7/h6H,3-5H2,1-2H3/t6-/m1/s1
