18
gdb 45527	3.24296	1.45274	1.09968	2.3494	78.03	-0.2227	-0.024	0.1987	1094.914	0.148938	-401.947831	-401.940308	-401.939363	-401.980323	29.215	
O	-0.0403369348	 0.0568345849	-0.7516193375	-0.282014
C	-0.0527391977	 1.1438315631	-0.2598195889	 0.371454
C	-1.1353001185	 2.0958001693	 0.2732805014	-0.298448
N	-0.0688921645	 3.0298406576	 0.7281042191	-0.107942
C	-0.0141117363	 3.2297558437	 2.1767191383	-0.154638
C	 1.4104320351	 3.54911952	 2.6408096639	-0.261032
C	 2.3568704425	 2.4643867263	 2.1914276392	-0.069677
C	 2.1501950653	 1.8016885799	 1.0550567906	-0.071681
C	 1.0210916285	 2.1756671194	 0.1509755372	-0.127873
H	-1.8017230092	 2.5097944798	-0.4918160846	 0.13395
H	-1.7482251764	 1.6657395828	 1.0773523975	 0.126555
H	-0.7005275601	 4.041909392	 2.4434915847	 0.1031
H	-0.3500191852	 2.3295192623	 2.724121248	 0.083716
H	 1.7264614322	 4.5239499587	 2.2444320886	 0.121842
H	 1.4189352931	 3.6403693827	 3.7317607076	 0.108079
H	 3.2111761997	 2.2266935597	 2.8185183489	 0.095803
H	 2.8127290609	 1.0119845249	 0.7136781412	 0.108552
H	 1.4281249254	 2.6468065529	-0.7593498751	 0.120254
48.7367	144.257	215.8523	336.4623	368.5356	412.588	471.5206	495.9569	564.0377	660.7121	709.7079	714.2603	782.2383	797.9343	891.9266	971.5889	980.1815	993.5417	1014.1227	1032.7877	1071.4529	1076.0896	1112.3503	1124.0613	1151.6815	1217.3442	1228.2112	1239.0883	1265.2595	1296.8748	1302.5542	1357.8203	1386.742	1413.5002	1465.5552	1475.1664	1516.0923	1711.4367	1907.6117	2925.906	2960.0987	3014.5272	3017.13	3043.7934	3066.8347	3074.5038	3162.645	3185.1571
O=C1CN2CCC=CC12	O=C1CN2CCC=C[C@@H]12	
InChI=1S/C7H9NO/c9-7-5-8-4-2-1-3-6(7)8/h1,3,6H,2,4-5H2	InChI=1S/C7H9NO/c9-7-5-8-4-2-1-3-6(7)8/h1,3,6H,2,4-5H2/t6-/m0/s1
