15
gdb 36064	2.21224	1.42145	1.04461	4.3401	69.13	-0.289	-0.006	0.283	1137.5509	0.11242	-416.804245	-416.795757	-416.794813	-416.83812	29.743	
N	-0.1706959579	-1.079736419	-0.4139420677	-0.288682
C	-0.0846768121	 0.0424808798	-0.154755636	 0.275335
C	 0.0401863349	 1.4670140196	 0.1464525792	-0.405801
C	 1.5042956516	 1.9598168034	 0.1186465832	 0.092364
C	 2.1182880997	 1.9770983754	-1.3122466495	-0.107638
O	 1.8519627935	 3.3860681815	-1.4372668649	-0.261275
C	 1.5978738246	 3.50773959	-0.0294479872	-0.119147
C	 2.3026799654	 1.3596220825	 1.1769647446	 0.256023
N	 2.9443806477	 0.9058126665	 2.0241095762	-0.319742
H	-0.5257990433	 2.0340631068	-0.6005442509	 0.174632
H	-0.4071925951	 1.6712315722	 1.1247049373	 0.17341
H	 3.190342886	 1.7513410173	-1.3302633143	 0.133949
H	 1.5985133732	 1.3786442609	-2.0662976277	 0.139652
H	 0.6842619391	 4.0706686649	 0.1884100158	 0.125225
H	 2.4431133728	 3.9457534783	 0.5139171819	 0.131695
67.2814	107.0615	119.9022	182.9199	202.6549	327.0499	347.6814	394.8615	480.3694	545.2587	556.7413	672.0651	830.609	896.2323	906.2866	961.7581	984.3644	994.4856	1036.0723	1066.9223	1149.462	1155.5219	1167.7673	1232.4379	1301.8126	1308.2526	1338.6834	1375.7955	1462.8745	1509.7803	1533.3807	2359.974	2368.4068	3028.087	3040.047	3052.175	3085.6081	3096.8374	3099.2467
N#CCC1(COC1)C#N	N#CCC1(COC1)C#N	
InChI=1S/C6H6N2O/c7-2-1-6(3-8)4-9-5-6/h1,4-5H2	InChI=1S/C6H6N2O/c7-2-1-6(3-8)4-9-5-6/h1,4-5H2
