23
gdb 98585	2.78688	0.9715	0.93145	2.3776	87.94	-0.2358	-0.0074	0.2285	1467.781	0.20346	-388.314413	-388.303655	-388.302711	-388.350536	38.984	
C	-0.9139253184	 1.0447560281	 2.9375392092	-0.379156
C	-0.8413130817	-0.3135224203	 2.2470612586	-0.280647
C	-2.1305179889	-0.7079663077	 1.5306827486	 0.3932
O	-3.1005458958	 0.0281782034	 1.5384385196	-0.340311
C	-2.0897388023	-2.0290610993	 0.847236068	-0.151334
C	-3.3157776882	-2.955000143	 0.7697488799	-0.019983
C	-4.6346295229	-2.6220554473	 1.4324113965	-0.417482
C	-2.8243209158	-2.2943478322	-0.4781281618	-0.019982
C	-3.5912570301	-1.2194728932	-1.2169156205	-0.417481
H	 0.0323731228	 1.278344801	 3.4337551568	 0.106289
H	-1.1331137346	 1.837070443	 2.2172729795	 0.129866
H	-1.7110293271	 1.0599615882	 3.6851908201	 0.129865
H	-0.0274922455	-0.3424262968	 1.5085905399	 0.120439
H	-0.6000361904	-1.1122715099	 2.9627873044	 0.120434
H	-1.1367195949	-2.5380764855	 0.9530698549	 0.080244
H	-3.0413952137	-4.0033565261	 0.8642084665	 0.088506
H	-4.8368971376	-1.5515076695	 1.4285199964	 0.158083
H	-5.4543148433	-3.1380681346	 0.9199219302	 0.112937
H	-4.6344240621	-2.9570041659	 2.4752336497	 0.113493
H	-2.2528491006	-2.943326912	-1.1380573219	 0.08851
H	-4.0630037969	-0.5111353303	-0.5366900049	 0.158075
H	-2.9215388127	-0.6543929618	-1.874053503	 0.113495
H	-4.3650752393	-1.6739010381	-1.8458040367	 0.112943
45.973	78.4792	146.1128	157.8968	176.8163	193.8967	201.8908	229.983	292.6147	341.9752	368.2845	420.9714	500.8429	596.3028	669.6505	715.062	782.5456	816.1815	821.4654	902.9264	948.5015	976.9474	1009.4735	1033.6733	1048.7299	1088.8518	1091.7352	1110.5037	1122.4048	1145.499	1158.655	1195.0504	1270.9838	1278.745	1354.9315	1377.856	1407.8507	1413.8408	1419.8217	1421.2543	1435.8886	1452.7194	1486.8117	1491.806	1496.9942	1498.5925	1506.5018	1517.4213	1769.3253	3012.6349	3034.9324	3037.1859	3038.9316	3050.4152	3088.0763	3089.4549	3118.2569	3120.7751	3126.4713	3127.7756	3152.3955	3156.4118	3163.495
CCC(=O)C1C(C)C1C	CCC(=O)[C@H]1[C@@H](C)[C@H]1C	
InChI=1S/C8H14O/c1-4-7(9)8-5(2)6(8)3/h5-6,8H,4H2,1-3H3	InChI=1S/C8H14O/c1-4-7(9)8-5(2)6(8)3/h5-6,8H,4H2,1-3H3/t5-,6+,8-
