22
gdb 102471	2.42425	1.09487	0.81841	2.9229	81.02	-0.248	0.0216	0.2697	1492.5217	0.191338	-441.478608	-441.467449	-441.466504	-441.515802	38.856	
C	 0.6218656294	 1.1520903036	-0.4266231092	-0.393623
C	 0.2795391728	-0.3074566563	-0.1214163027	-0.172312
C	-1.2080437274	-0.5101902372	 0.1528389066	 0.053876
O	-1.9267321607	-0.1683613862	-1.0293624425	-0.251873
C	-3.2004368663	 0.4098566681	-0.8323838556	-0.234986
C	-1.5421592226	-1.9435554223	 0.5548867881	 0.416991
N	-0.7152701694	-2.8939229505	 0.4312723235	-0.528624
O	-2.8227818335	-1.9988690435	 1.0207837548	-0.231334
C	-3.3427085674	-3.2726939936	 1.372582661	-0.268918
H	 1.6867839339	 1.2629466298	-0.6514375149	 0.110099
H	 0.0522907733	 1.5107195711	-1.2878349289	 0.128289
H	 0.3934368786	 1.8043534947	 0.4246255005	 0.104167
H	 0.5619479609	-0.9541279976	-0.9572291882	 0.122826
H	 0.8424470483	-0.6657215067	 0.7460033536	 0.105066
H	-1.5297129582	 0.1476655934	 0.9763356003	 0.075568
H	-3.5597630749	 0.7191516766	-1.8176418895	 0.122263
H	-3.9156680547	-0.2955587753	-0.3934884693	 0.116409
H	-3.1437268387	 1.2972394417	-0.1832744366	 0.102443
H	-1.091902679	-3.7954505337	 0.7200165577	 0.21648
H	-3.3409468109	-3.9562481612	 0.5150980789	 0.134469
H	-2.7731564471	-3.7234970455	 2.1945542782	 0.131271
H	-4.3695404764	-3.1025577094	 1.6980966639	 0.141454
32.4863	91.3623	92.9787	121.4911	160.3639	196.0657	215.5607	220.7263	273.6933	320.0354	327.9723	350.0849	386.6279	518.0074	632.5683	732.0731	760.0922	866.7755	892.6387	909.8598	945.3745	1019.3802	1057.5225	1107.135	1119.5417	1134.0838	1168.1596	1174.7396	1183.586	1216.8948	1222.2628	1261.1475	1300.8969	1337.8968	1380.9052	1401.217	1406.7699	1469.5315	1472.5815	1478.2579	1486.4363	1491.2506	1497.3421	1505.5158	1511.2849	1516.3604	1735.7338	2975.8399	2987.2809	3015.1705	3032.5213	3059.8669	3061.4571	3078.4998	3090.0153	3107.1884	3110.3373	3123.7231	3143.4985	3498.9387
CCC(OC)C(=N)OC	CC[C@@H](OC)[C]([NH])OC	
InChI=1S/C6H13NO2/c1-4-5(8-2)6(7)9-3/h5,7H,4H2,1-3H3	InChI=1S/C6H13NO2/c1-4-5(8-2)6(7)9-3/h5,7H,4H2,1-3H3/t5-/m1/s1
