21
gdb 50763	3.17273	1.05122	0.85873	2.2842	79.8	-0.2441	-0.0196	0.2246	1361.4211	0.183506	-424.239963	-424.231099	-424.230155	-424.274089	33.046	
O	-0.7307723856	 0.3339762135	-0.0104631426	-0.250429
C	-0.2738192742	 1.4477311975	-0.0067074468	 0.14691
C	 1.2024843703	 1.7914387629	 0.0012479635	-0.057909
C	 1.5402066964	 2.5961439433	-1.2773754968	-0.205072
C	 3.052907065	 2.7853687655	-1.4851825248	-0.236981
C	 3.6573419452	 3.9713900483	-0.7137939503	-0.064175
O	 3.0710251803	 4.2304158476	 0.5482140837	-0.239719
C	 2.9317111956	 3.1188446252	 1.4139296947	-0.094621
C	 1.5239623369	 2.5208389677	 1.3219599849	-0.203935
H	-0.9443576754	 2.3415083257	-0.0081975806	 0.069877
H	 1.7452562877	 0.839263194	-0.0325565152	 0.089805
H	 1.1340396162	 2.04977118	-2.1364668281	 0.108365
H	 1.0348097589	 3.5693935858	-1.2548369657	 0.109999
H	 3.5649868175	 1.8539822754	-1.2163325296	 0.10489
H	 3.2655443119	 2.9444956545	-2.5487213947	 0.103714
H	 4.7448041633	 3.8232266073	-0.6110229395	 0.090526
H	 3.5072841674	 4.8975305345	-1.2786656696	 0.110253
H	 3.7030118139	 2.3586077378	 1.2217675943	 0.093548
H	 3.0918972286	 3.4917571803	 2.4322090984	 0.108344
H	 0.8156092262	 3.3469328383	 1.4672425196	 0.109963
H	 1.3765989339	 1.8251217049	 2.1576147151	 0.106647
57.2753	89.3679	147.6303	239.398	261.0841	282.7802	314.7539	361.9341	414.0699	494.2653	555.291	571.9203	765.3624	834.265	854.9621	877.132	897.1668	956.2256	988.4698	1024.2886	1035.6858	1057.66	1087.2374	1134.6064	1136.3313	1169.3362	1218.9232	1239.1283	1261.8655	1291.2958	1307.2592	1323.5578	1345.8046	1374.3761	1382.6744	1394.5514	1402.1941	1422.6068	1427.2968	1470.1505	1485.7706	1488.8549	1501.6576	1512.3323	1833.3127	2836.7438	2971.0501	2998.2155	3019.016	3027.0062	3032.9508	3039.4501	3056.7329	3058.8996	3065.3135	3072.8123	3079.4864
O=CC1CCCOCC1	O=C[C@H]1CCCOCC1	
InChI=1S/C7H12O2/c8-6-7-2-1-4-9-5-3-7/h6-7H,1-5H2	InChI=1S/C7H12O2/c8-6-7-2-1-4-9-5-3-7/h6-7H,1-5H2/t7-/m0/s1
