18
gdb 86287	1.84065	1.63436	1.15342	3.5724	72.95	-0.2485	0.0205	0.269	1132.8822	0.148513	-435.255726	-435.246439	-435.245495	-435.289443	35.049	
N	 0.5558198248	 1.0341665801	-0.6606888842	-0.514204
C	 0.1449729506	-0.1166396935	 0.0946070775	 0.03164
C	 0.1158677762	 0.0316618487	 1.632876096	-0.285427
C	-1.161867772	-0.8426062437	 1.6827881732	 0.148948
O	-2.2025454394	-0.4913428506	 2.5429790177	-0.429642
C	-1.3812671743	-0.5714505026	 0.1453961916	 0.059264
N	-2.2609634341	 0.5832045259	-0.0054570256	-0.559114
C	-1.7451489737	-1.7085115778	-0.6954203191	 0.198841
N	-2.020190941	-2.6022146985	-1.3783535182	-0.344318
H	 0.5537339176	 0.8595802807	-1.6600645366	 0.236881
H	-0.0444667386	 1.8297507373	-0.4701935037	 0.236149
H	 0.7526302611	-0.9731658443	-0.2075697187	 0.104858
H	 0.9894665168	-0.3090732955	 2.1899892316	 0.116714
H	-0.1073982323	 1.0633723283	 1.9202937051	 0.109091
H	-0.9404988787	-1.8962350465	 1.8640127177	 0.112735
H	-2.3911780319	 0.4417302707	 2.3832574909	 0.286931
H	-2.2118267027	 0.9358804871	-0.9572484693	 0.238165
H	-3.2240104584	 0.2991394542	 0.152274874	 0.252488
99.818	121.0664	167.4722	169.614	252.2526	262.6576	331.1516	362.6621	407.9913	477.671	503.5016	524.6153	545.911	594.3805	624.9233	722.1418	821.8057	852.6449	887.1702	894.886	929.8319	1002.4324	1081.8441	1111.0259	1117.0947	1176.8526	1196.0733	1217.8537	1246.2029	1261.8003	1289.8429	1307.2532	1334.5707	1418.4957	1447.4697	1481.4703	1641.5475	1659.1401	2328.8592	3067.459	3082.9251	3099.5942	3133.4835	3491.0335	3501.8983	3567.1002	3591.0341	3781.0571
NC1CC(O)C1(N)C#N	N[C@H]1C[C@@H](O)[C@]1(N)C#N	
InChI=1S/C5H9N3O/c6-2-5(8)3(7)1-4(5)9/h3-4,9H,1,7-8H2	InChI=1S/C5H9N3O/c6-2-5(8)3(7)1-4(5)9/h3-4,9H,1,7-8H2/t3-,4+,5-/m0/s1
