16
gdb 132732	2.3736	1.77197	1.02205	2.0875	76.09	-0.214	-0.0068	0.2071	1097.9913	0.124982	-442.100083	-442.092115	-442.091171	-442.132244	30.768	
C	-0.0073897553	 1.5105516519	 0.0514166954	-0.498857
C	 0.0010712768	 0.005609783	 0.0109459865	 0.279494
C	 0.0570948728	-0.660999048	-1.2292457045	 0.11298
N	 0.1602731772	 0.0108728884	-2.4453526008	-0.600585
C	 0.0646928548	-2.0546029973	-1.1861046117	 0.272383
F	 0.1055118956	-2.7169411961	-2.3535806295	-0.089729
C	 0.0249744626	-2.7406286815	 0.01111751	-0.261136
C	-0.0270690499	-1.9794675832	 1.1749320582	-0.020845
N	-0.0412116122	-0.6454856162	 1.1770122828	-0.323004
H	 0.8595832292	 1.9294030224	-0.4736248069	 0.134784
H	-0.9055367208	 1.9264427751	-0.4262609365	 0.120087
H	 0.0093456543	 1.8420505253	 1.0898896099	 0.146621
H	-0.3014157932	 0.907837551	-2.4768358333	 0.252867
H	-0.0684754419	-0.5611198407	-3.2456702564	 0.255731
H	 0.0315097414	-3.8235477326	 0.0243228848	 0.111545
H	-0.0581463214	-2.4662350615	 2.1455363719	 0.107663
135.5086	168.5347	248.129	294.526	303.966	306.7737	332.6277	481.7676	526.3379	543.5112	555.0618	594.5891	643.8878	707.3852	777.9347	839.574	864.2019	932.571	947.0143	1003.8025	1056.7374	1093.169	1196.5822	1260.8133	1296.3598	1310.5505	1331.7733	1403.332	1474.6651	1477.9442	1485.4722	1523.5735	1611.9062	1634.0354	1662.0112	3010.835	3064.181	3148.7221	3165.8738	3212.4043	3565.3785	3666.6299
CC1=C(N)C(F)=CC=N1	Cc1c(N)c(F)ccn1	
InChI=1S/C6H7FN2/c1-4-6(8)5(7)2-3-9-4/h2-3H,8H2,1H3	InChI=1S/C6H7FN2/c1-4-6(8)5(7)2-3-9-4/h2-3H,8H2,1H3
