17
gdb 50824	3.15859	1.02621	0.84108	2.2312	73.33	-0.2505	-0.0208	0.2297	1363.7595	0.136833	-455.160888	-455.152199	-455.151255	-455.195554	30.55	
N	 0.033895695	 0.9295791405	-1.4628993874	-0.458837
C	-0.2181066165	 0.5558969292	-0.2756435776	 0.101375
N	-1.3760557314	-0.1504382483	 0.0044621455	-0.301946
C	-1.7211952098	-0.5908999281	 1.2585319135	 0.372766
O	-1.0670541313	-0.4021775951	 2.2639582536	-0.367186
C	-3.0411950669	-1.3517375666	 1.2988240122	 0.04101
C	-4.2307169332	-0.5966512268	 1.9388673829	-0.280602
C	-4.8750268351	-0.7245232563	 0.5433699489	-0.06855
O	-3.7160449374	-1.42763864	 0.0244654131	-0.299191
H	 0.9194062667	 1.4320461287	-1.4921641523	 0.232669
H	 0.3868093188	 0.7226972531	 0.6184013008	 0.136694
H	-2.0085599704	-0.3719188718	-0.7551243029	 0.277173
H	-2.8419185895	-2.3447305653	 1.7175267274	 0.118496
H	-4.7353457257	-1.1340361788	 2.7412518885	 0.127401
H	-4.0046402619	 0.4170559342	 2.2701581188	 0.133001
H	-5.7739247863	-1.3471160527	 0.4884128312	 0.117908
H	-5.0532093449	 0.2131689441	 0.0059835938	 0.11782
52.4502	74.0246	127.6305	155.2896	192.5644	261.5214	301.1555	441.7419	529.365	576.3088	733.0221	762.6853	796.1023	824.7705	837.7562	914.3748	951.512	988.9121	1022.0292	1057.0676	1090.4159	1094.2068	1108.8856	1166.9748	1202.7165	1211.8226	1251.6968	1261.2609	1304.0083	1341.2093	1357.381	1395.8853	1495.4979	1506.2153	1531.5677	1728.153	1798.7398	3036.0506	3048.7707	3082.5161	3096.7454	3115.834	3153.3073	3504.0181	3578.3682
N=CNC(=O)C1CCO1	N=CNC(=O)[C@H]1CCO1	
InChI=1S/C5H8N2O2/c6-3-7-5(8)4-1-2-9-4/h3-4H,1-2H2,(H2,6,7,8)	InChI=1S/C5H8N2O2/c6-3-7-5(8)4-1-2-9-4/h3-4H,1-2H2,(H2,6,7,8)/t4-/m1/s1
