17
gdb 133870	3.2299	2.02454	1.96007	1.7397	70.28	-0.2505	0.071	0.3215	801.6841	0.139275	-421.7415	-421.735945	-421.735001	-421.770998	24.855	
C	-0.8617862223	 1.6724339168	 0.5366851423	-0.325902
C	 0.5627733935	 1.570181682	-0.2169299128	-0.153758
C	-0.0780892685	 0.4534931904	-1.0903669732	-0.045847
C	 0.5685339851	-0.8869608606	-1.4768942393	-0.269869
C	 0.5976209536	-1.525322579	-0.0736845885	 0.146121
O	 1.5824730228	-0.7428403053	 0.6196975653	-0.286638
C	 0.8978684526	 0.47775442	 0.8469489849	 0.103684
C	-0.518566432	 0.170115168	 0.3707521441	 0.383949
O	-0.6949281365	-1.2203040208	 0.5404351944	-0.33885
H	-1.6800201954	 2.0713900847	-0.0650144977	 0.114497
H	-0.8490009162	 2.089530226	 1.5460650189	 0.112092
H	 1.1517527556	 2.4292124199	-0.5384943	 0.085133
H	-0.8625805815	 0.790086119	-1.7694818527	 0.073665
H	 1.5765707735	-0.8477884653	-1.8933990398	 0.116779
H	-0.0859602259	-1.4267588453	-2.1670486621	 0.106363
H	 0.8084315907	-2.5872587973	 0.0361507491	 0.095658
H	 1.068097651	 0.8143685669	 1.8709980972	 0.082923
335.0873	403.7726	439.1341	467.4073	563.0492	607.7895	655.347	717.0364	740.9511	760.3942	803.0378	836.8201	875.004	893.877	935.0401	972.0832	983.9845	1001.124	1045.4516	1048.8325	1072.9157	1080.4005	1092.9451	1101.2183	1143.5296	1172.7785	1180.6355	1208.6474	1234.6165	1239.244	1273.2192	1311.0328	1322.4523	1361.6237	1407.9755	1476.723	1509.7316	3064.0664	3068.1459	3093.149	3095.0108	3116.686	3125.0919	3143.4338	3153.9744
C1C2C3CC4OC2C13O4	C1[C@@H]2[C@H]3C[C@H]4O[C@@H]2[C@@]13O4	
InChI=1S/C7H8O2/c1-4-3-2-7(4)6(3)8-5(1)9-7/h3-6H,1-2H2	InChI=1S/C7H8O2/c1-4-3-2-7(4)6(3)8-5(1)9-7/h3-6H,1-2H2/t3-,4-,5+,6+,7-/m1/s1
