25
gdb 121843	3.83338	0.69366	0.68409	2.1675	86.58	-0.2494	0.0711	0.3205	1815.2197	0.225126	-426.624017	-426.611985	-426.611041	-426.661559	42.815	
C	-0.0096140427	 1.488947621	-0.0034837069	-0.386251
C	 0.0135884632	-0.0300992408	-0.0177032834	-0.024254
O	 0.6779812746	-0.4613921598	-1.1860329458	-0.250692
C	 0.7573556679	-1.8649907248	-1.300498163	-0.068922
C	 1.4927391761	-2.2360136319	-2.5977011707	 0.227899
C	 0.7209084888	-1.6882950494	-3.8115054322	-0.404066
C	 2.9215944444	-1.6644049955	-2.5707847376	-0.404068
C	 1.5467048305	-3.7709877989	-2.6637725185	-0.089101
O	 2.2209839923	-4.1571186307	-3.8527642233	-0.426643
H	 1.0085809438	 1.8883150439	-0.0111116768	 0.126524
H	-0.5341563672	 1.8728956157	-0.8830957788	 0.126529
H	-0.5198145204	 1.8545676212	 0.892694027	 0.113496
H	 0.5290715694	-0.4178453758	 0.8779327315	 0.083496
H	-1.0135977821	-0.4332696509	 0.0063323673	 0.083505
H	 1.2905885484	-2.2851990467	-0.4289950446	 0.076682
H	-0.2574382288	-2.3015868466	-1.3018924815	 0.076676
H	 0.6553713604	-0.5991995297	-3.7617361265	 0.123045
H	 1.2178820496	-1.9744929986	-4.740922108	 0.126118
H	-0.3003295647	-2.0865655925	-3.8385644369	 0.097175
H	 3.4795007155	-2.0449612741	-1.7069567335	 0.097184
H	 3.4644969785	-1.9507469318	-3.4740990904	 0.126126
H	 2.8950583729	-0.574837836	-2.499799822	 0.123052
H	 2.0703002007	-4.1587477466	-1.7741662546	 0.079629
H	 0.5210831893	-4.1756266218	-2.6472441032	 0.079622
H	 2.2484470195	-5.1172034788	-3.8840978774	 0.287239
53.3165	71.4642	108.5383	113.2663	145.3109	216.488	225.7969	230.7901	243.5643	247.9978	299.1096	332.1803	334.1355	385.7962	419.1899	491.5934	598.7218	759.0723	821.0253	901.8082	910.1519	929.6189	956.7828	969.1207	1009.69	1038.74	1081.0242	1082.6677	1146.5627	1165.6873	1186.0713	1201.9363	1216.8934	1239.9135	1262.4294	1295.276	1302.7393	1334.7351	1385.8996	1393.0947	1401.8857	1410.9676	1447.2918	1467.4578	1483.9046	1486.8729	1489.502	1498.1351	1499.8173	1504.9015	1517.166	1523.3909	1537.2253	2931.4468	2951.0426	2955.5602	2960.4801	2972.8081	2985.4236	3033.3117	3037.8335	3044.534	3106.1051	3109.2934	3118.815	3120.8023	3135.6395	3139.7296	3839.2442
CCOCC(C)(C)CO	CCOCC(C)(C)CO	
InChI=1S/C7H16O2/c1-4-9-6-7(2,3)5-8/h8H,4-6H2,1-3H3	InChI=1S/C7H16O2/c1-4-9-6-7(2,3)5-8/h8H,4-6H2,1-3H3
