15
gdb 5696	4.78009	2.07825	1.47823	0.5987	66.78	-0.1708	0.0611	0.2318	812.6976	0.122134	-362.685924	-362.679511	-362.678567	-362.716465	24.729	
C	 0.0439644368	 1.3430954314	-0.1718577046	-0.08944
C	 1.4810607478	 1.8742475509	 0.1641436864	-0.373615
C	 2.1414326206	 0.5967088515	 0.6081063434	 0.194317
C	 1.1656002318	-0.3452321252	 0.7094494344	 0.425808
N	 1.6626855856	-1.5158194782	 1.177758862	-0.385713
C	 3.0305935863	-1.3211877958	 1.3890163202	-0.084955
C	 3.3476715467	-0.0239062345	 1.0498712429	-0.320854
O	-0.103529204	-0.0007087427	 0.3924069153	-0.291876
H	-0.7575703112	 1.95564353	 0.2451779277	 0.118876
H	-0.1000139776	 1.2563612306	-1.2538523445	 0.11673
H	 1.9280118558	 2.3424305197	-0.7194486101	 0.110427
H	 1.4518615018	 2.6389038239	 0.9515628961	 0.10998
H	 1.1549094641	-2.3697209019	 1.3242524061	 0.26505
H	 3.6448313528	-2.1306950642	 1.7462872831	 0.113758
H	 4.3342660327	 0.4095761545	 1.1121200716	 0.091507
99.8594	194.4669	280.7268	400.9657	436.8033	607.7423	615.876	620.9738	695.5615	718.1657	766.7239	808.5033	843.0502	930.7518	934.3975	976.456	1061.4285	1070.4142	1077.651	1157.513	1202.0047	1233.4731	1254.5005	1297.7376	1344.9201	1373.0916	1432.4921	1497.5033	1503.8244	1515.5807	1570.1301	1648.4698	3010.0011	3042.6924	3058.6584	3115.5738	3243.3567	3276.4843	3692.304
C1CC2=C(NC=C2)O1	C1Cc2c([nH]cc2)O1	
InChI=1S/C6H7NO/c1-3-7-6-5(1)2-4-8-6/h1,3,7H,2,4H2	InChI=1S/C6H7NO/c1-3-7-6-5(1)2-4-8-6/h1,3,7H,2,4H2
