18
gdb 35817	2.9545	1.44632	1.13795	3.1294	74.71	-0.266	0.0296	0.2956	1082.1449	0.149974	-401.959257	-401.951643	-401.950699	-401.991874	29.102	
N	-0.1328690421	-1.1713162479	 0.01316803	-0.329743
C	-0.0815800235	-0.0163289068	 0.0219960119	 0.27229
C	-0.0139560642	 1.437934567	 0.0537610116	-0.169803
C	-0.508771502	 2.0552696671	 1.3905638661	-0.106536
O	 0.0466723718	 3.354680303	 1.4058392399	-0.249644
C	 1.3504187016	 3.2851663094	 0.8512499627	 0.109043
C	 2.4548122173	 2.6683130319	 1.7574586975	-0.246415
C	 2.5181450055	 1.4176302506	 0.8329798745	-0.244127
C	 1.4109209634	 2.0261808476	-0.0750211286	-0.053092
H	-0.6328664621	 1.8312780542	-0.7594626265	 0.132067
H	-1.5954592527	 2.143049092	 1.4473492226	 0.131126
H	-0.1621357989	 1.4470318289	 2.2388844803	 0.113584
H	 1.5721802795	 4.2628460258	 0.4200788627	 0.088439
H	 3.3745326535	 3.2556270971	 1.7994486663	 0.108889
H	 2.118404357	 2.4825458825	 2.780247942	 0.11532
H	 3.4719192922	 1.2828624509	 0.319897285	 0.114186
H	 2.2539636334	 0.4677681974	 1.3043049796	 0.124276
H	 1.6892841901	 2.1797466694	-1.1174863776	 0.090139
60.6357	137.5732	168.467	243.5219	354.7769	412.6958	492.4212	538.0691	610.8384	643.1803	730.0535	754.9239	821.963	866.2656	900.7716	945.1511	960.8326	984.4053	1009.1443	1030.7404	1058.9712	1106.6491	1117.6388	1142.6732	1204.2157	1218.2136	1238.5971	1247.3294	1270.3914	1272.3261	1296.5761	1308.2091	1333.6299	1356.4814	1391.114	1470.7922	1490.8032	1518.1092	2356.2483	3002.0565	3058.6182	3067.4392	3072.4832	3093.7276	3108.7358	3114.3075	3115.9302	3132.2523
N#CC1COC2CCC12	N#C[C@H]1CO[C@H]2CC[C@@H]12	
InChI=1S/C7H9NO/c8-3-5-4-9-7-2-1-6(5)7/h5-7H,1-2,4H2	InChI=1S/C7H9NO/c8-3-5-4-9-7-2-1-6(5)7/h5-7H,1-2,4H2/t5-,6-,7-/m0/s1
