17
gdb 109458	2.39014	1.50141	1.02455	3.3994	69.64	-0.2532	-0.0021	0.2511	1171.1127	0.134088	-458.952784	-458.944098	-458.943154	-458.986568	31.385	
C	-0.0745596915	 1.374655314	-0.2223496129	-0.248154
O	-0.1726472997	 0.1140447329	 0.4257019668	-0.241689
C	-1.3768678307	-0.5374752896	 0.1741138048	-0.153865
C	-1.5164113151	-1.2969940601	-1.1708378558	 0.429132
O	-1.4854496042	-1.0593773178	-2.3349585764	-0.327492
O	-1.6928436305	-2.5156579649	-0.5591982101	-0.263475
C	-1.4813151725	-1.937042812	 0.7569744864	 0.432081
C	-0.6362633519	-2.5976255668	 1.7802730796	-0.319372
C	-2.1449942362	-2.4705906584	 1.9727831239	-0.343341
H	 0.8923987576	 1.7968088532	 0.0571007187	 0.135875
H	-0.1269645382	 1.2706744287	-1.3125916862	 0.144522
H	-0.8745299689	 2.0539388287	 0.1086048979	 0.111704
H	-2.2461157923	 0.1075005758	 0.3766351272	 0.102338
H	-0.2459107216	-3.5808896855	 1.5430333057	 0.137259
H	 0.0239122184	-1.9651277806	 2.3631829557	 0.139404
H	-2.5236591227	-1.7650496622	 2.7049753014	 0.127815
H	-2.7377390299	-3.3713542652	 1.8581598332	 0.137259
82.0887	103.0055	144.9525	172.7653	233.1225	246.2761	328.3388	390.8722	474.2773	523.3872	561.898	714.4958	764.0959	825.9159	877.0545	891.8194	933.5894	969.8137	1027.7245	1046.2877	1055.4359	1078.4343	1089.7536	1167.2511	1182.4489	1184.4135	1223.4807	1237.172	1269.5513	1358.9525	1412.8307	1451.0224	1480.1063	1487.1274	1507.0053	1511.7449	1936.5861	2986.7999	2993.7872	3066.5789	3133.9066	3134.5586	3141.4182	3220.271	3235.5083
COC1C(=O)OC11CC1	CO[C@H]1C(=O)OC21CC2	
InChI=1S/C6H8O3/c1-8-4-5(7)9-6(4)2-3-6/h4H,2-3H2,1H3	InChI=1S/C6H8O3/c1-8-4-5(7)9-6(4)2-3-6/h4H,2-3H2,1H3/t4-/m0/s1
