20
gdb 93875	2.18642	1.5814	1.13558	2.8417	77.83	-0.267	0.0305	0.2975	1143.3339	0.171388	-403.176586	-403.167413	-403.166469	-403.210827	34.002	
C	 0.262687948	 1.6457341791	-0.0891822669	-0.413375
C	 0.152392569	 0.1224795481	-0.0154633538	-0.018373
C	 0.9894489312	-0.6008533598	-1.1017011924	-0.0943
O	 1.5958332805	-1.7262928529	-0.4849375852	-0.250661
C	 1.9298945189	-1.3647660698	 0.8475726407	 0.101422
C	 3.2629903892	-0.6230566872	 0.9413479616	-0.41469
C	 0.6798822725	-0.5458181659	 1.3061898943	-0.177317
C	 0.9261918178	 0.3733184514	 2.4084434656	 0.282086
N	 1.120906583	 1.0978453289	 3.2884150187	-0.344331
H	 1.29627688	 1.9816556268	 0.0413577965	 0.132635
H	-0.0838045474	 1.9997962436	-1.0656600453	 0.119756
H	-0.3437224045	 2.1316737105	 0.6794900588	 0.139356
H	-0.8996071914	-0.1544989626	-0.1241600249	 0.095947
H	 0.3833963373	-0.9696914862	-1.9331212309	 0.115845
H	 1.7482663788	 0.0823342303	-1.5123632241	 0.097058
H	 1.9974129014	-2.2993815248	 1.4121117334	 0.098179
H	 3.2427112016	 0.3324726503	 0.4089747683	 0.125327
H	 3.518702983	-0.4181411006	 1.9843769689	 0.142129
H	 4.0496886868	-1.2425682509	 0.5028721085	 0.129926
H	-0.0700283157	-1.2640427185	 1.6503963284	 0.133382
38.1153	147.3074	169.9138	193.5137	219.0745	236.4274	332.4204	349.9052	391.7263	428.7445	508.7339	571.5032	641.9958	721.8619	754.118	841.8728	890.5346	922.1478	957.0074	1001.7	1047.9033	1065.5915	1097.3658	1121.5602	1129.0289	1136.4136	1164.8355	1249.8424	1264.6643	1312.3992	1326.6545	1335.2861	1356.4184	1385.3791	1395.7821	1410.582	1421.2615	1486.0724	1491.3994	1493.3791	1500.626	1522.9935	2352.5832	2987.4162	3040.0563	3049.2861	3053.7865	3063.959	3074.6694	3093.9021	3107.6282	3120.7813	3124.1479	3128.5387
CC1COC(C)C1C#N	C[C@H]1CO[C@@H](C)[C@H]1C#N	
InChI=1S/C7H11NO/c1-5-4-9-6(2)7(5)3-8/h5-7H,4H2,1-2H3	InChI=1S/C7H11NO/c1-5-4-9-6(2)7(5)3-8/h5-7H,4H2,1-2H3/t5-,6-,7-/m0/s1
