18
gdb 111404	2.05632	1.60603	1.06149	4.7309	71.45	-0.2382	-0.0212	0.217	1145.6383	0.146482	-439.032248	-439.023289	-439.022345	-439.067019	32.174	
O	 0.0777454598	 0.9351759559	-1.30139833	-0.425098
C	-0.222060422	 0.5880889551	 0.0476415429	-0.098408
C	-1.4970363122	-0.2437228537	 0.1134078876	-0.013105
C	-1.440033965	-1.6771734217	-0.4449460842	-0.068331
N	-0.5132242497	-2.4401485273	 0.4281740919	-0.333029
C	-1.9297074826	-2.2563061108	 0.8320568837	-0.079987
C	-1.9861183585	-0.8694563339	 1.4839925626	-0.129753
C	-1.1577586814	-0.6884322644	 2.7345476057	 0.162052
O	-0.6216385567	 0.3407177488	 3.0577548221	-0.251502
H	 0.4278343533	 0.1488255499	-1.7308742574	 0.283769
H	 0.6082004129	 0.0484455341	 0.5172594327	 0.112451
H	-0.3549215198	 1.5262979836	 0.5913385655	 0.126544
H	-2.312353128	 0.3139555447	-0.3547036899	 0.088657
H	-1.6350483603	-1.9999921438	-1.4599918039	 0.100828
H	-0.4270470954	-3.3776830932	 0.0377804924	 0.234217
H	-2.5760272689	-3.106680608	 1.0086696664	 0.100612
H	-3.0103393908	-0.554270389	 1.7139833419	 0.110366
H	-1.0919567248	-1.5971099465	 3.3765894402	 0.079717
42.1575	82.0093	122.0554	144.3447	234.9985	242.1379	288.6188	391.4854	490.8109	577.8389	633.2235	672.5095	785.8687	842.7663	846.5383	870.6509	910.0722	957.0772	993.7334	1013.547	1035.6882	1058.0083	1097.3549	1099.2472	1110.4818	1129.7643	1164.3489	1199.0577	1241.9045	1261.742	1306.8203	1325.1116	1358.1725	1375.2054	1396.4078	1411.5147	1421.5768	1496.2349	1824.4549	2864.9519	3043.0018	3050.238	3079.5355	3111.8817	3186.3802	3199.7671	3482.9662	3823.7166
OCC1C2NC2C1C=O	OC[C@H]1[C@H]2N[C@H]2[C@H]1C=O	
InChI=1S/C6H9NO2/c8-1-3-4(2-9)6-5(3)7-6/h1,3-7,9H,2H2	InChI=1S/C6H9NO2/c8-1-3-4(2-9)6-5(3)7-6/h1,3-7,9H,2H2/t3-,4+,5-,6+/m0/s1
