21
gdb 39566	3.23775	1.46531	1.06851	0.357	88.58	-0.2268	0.0208	0.2475	1153.0113	0.186056	-349.977718	-349.970402	-349.969458	-350.009164	30.49	
C	-0.0417331133	 1.5972329988	 0.0290303698	-0.318122
C	 1.4368841434	 1.8873645287	-0.1829373234	-0.068607
C	 2.2019633527	 0.879111954	 0.2431898405	-0.114023
C	 1.336779958	-0.1985335103	 0.8667116939	-0.014745
C	 1.6688130279	-1.6637606814	 0.8105124759	-0.107238
C	 0.6871217026	-2.5673746527	 0.7786462045	-0.039975
C	-0.7910992966	-2.2372189692	 0.7510527061	-0.255694
C	-1.1185383696	-0.7255274731	 0.8710846403	-0.253135
C	-0.0170571443	 0.0647078844	 0.1775789123	 0.071378
H	-0.4056115087	 2.0897340418	 0.9448822247	 0.100185
H	-0.67877271	 1.9437294864	-0.7917936289	 0.097227
H	 1.8007317027	 2.8220693028	-0.5950730475	 0.089803
H	 3.2863090071	 0.8577264174	 0.2384962737	 0.088761
H	 1.237868274	 0.0697466482	 1.9366153901	 0.08851
H	 2.7098014403	-1.9773798061	 0.8356782262	 0.079846
H	 0.9327555219	-3.6272722751	 0.7566663147	 0.081607
H	-1.2100283331	-2.629243496	-0.1877452681	 0.108403
H	-1.3037403962	-2.7973381977	 1.5441248316	 0.103668
H	-2.1043057228	-0.5259812046	 0.4361034569	 0.089363
H	-1.1749389959	-0.434778668	 1.9278669844	 0.094744
H	 0.0896653499	-0.3352335481	-0.8413362878	 0.078043
130.6138	186.3061	254.3207	342.4765	405.107	423.5289	451.6498	528.4575	567.6202	668.1194	714.7544	755.5655	775.2456	844.5978	864.0606	867.5893	936.8482	959.1278	960.3046	991.256	1001.5656	1038.6425	1062.22	1086.7066	1104.3966	1119.4227	1136.2166	1155.9285	1177.9804	1221.1718	1249.0635	1281.6734	1285.0835	1308.4213	1332.2534	1340.1872	1364.3088	1377.3608	1407.5327	1412.2081	1474.3093	1486.0938	1499.8292	1657.9203	1707.174	2904.264	2984.6476	2997.6284	2999.6524	3020.7309	3035.185	3062.1182	3067.154	3136.7046	3161.2919	3179.6484	3204.9418
C1C=CC2C=CCCC12	C1C=C[C@@H]2C=CCC[C@@H]12	
InChI=1S/C9H12/c1-2-5-9-7-3-6-8(9)4-1/h1,3-4,6,8-9H,2,5,7H2	InChI=1S/C9H12/c1-2-5-9-7-3-6-8(9)4-1/h1,3-4,6,8-9H,2,5,7H2/t8-,9-/m0/s1
