16
gdb 96787	3.67514	1.15426	0.88797	2.432	80.54	-0.268	-0.0784	0.1896	1282.5172	0.123294	-437.953575	-437.944825	-437.943881	-437.987456	30.904	
C	-0.0528370735	 1.4473031393	 0.0570888565	-0.34339
N	-0.0161280806	-0.0029789541	 0.0156943067	-0.308648
C	-1.0862962983	-0.666812725	 0.0155835348	 0.45072
O	-2.3688604324	-0.1247769355	 0.0530279887	-0.240178
C	-3.2825564449	-1.1683655861	 0.0395429323	 0.384349
O	-4.4639082539	-0.9862556209	 0.0651118967	-0.321616
C	-2.5182004193	-2.4468430872	-0.0096109409	 0.176842
C	-3.2141260376	-3.762537207	-0.0345286991	-0.491714
C	-1.2172449908	-2.1242958125	-0.023097395	-0.312004
H	 0.4779369846	 1.833674575	-0.8202657069	 0.138766
H	-1.0594099898	 1.8758355665	 0.0868408258	 0.139424
H	 0.508866203	 1.7843510557	 0.9355137131	 0.138761
H	-3.8794268168	-3.8282990908	-0.9021893767	 0.155488
H	-2.5039471567	-4.5910322764	-0.0701750454	 0.1351
H	-3.8489831204	-3.8776616481	 0.8506215399	 0.155487
H	-0.3558921825	-2.7758375731	-0.0563296706	 0.142613
96.2382	100.0801	114.7334	181.5132	196.6277	255.2692	300.3365	397.9274	434.2993	565.1866	607.2233	670.7714	700.1908	779.8364	804.9003	904.7814	906.6819	993.5938	1025.5548	1059.9955	1064.1437	1127.5203	1156.6387	1192.1705	1295.9212	1324.9469	1415.6249	1434.3457	1471.5082	1479.4201	1489.6889	1491.7023	1695.7098	1777.1535	1881.0928	3024.0582	3040.4425	3083.0939	3094.2212	3104.8685	3133.721	3246.1202
CN=C1OC(=O)C(C)=C1	CN=C1OC(=O)C(=C1)C	
InChI=1S/C6H7NO2/c1-4-3-5(7-2)9-6(4)8/h3H,1-2H3	InChI=1S/C6H7NO2/c1-4-3-5(7-2)9-6(4)8/h3H,1-2H3
