22
gdb 60147	3.93625	0.82509	0.73052	2.8139	84.78	-0.2594	0.0302	0.2896	1615.7521	0.193115	-404.363872	-404.354043	-404.353098	-404.399286	36.422	
C	 0.158891302	 1.5771641149	-0.1957090371	-0.382769
C	-0.0696243604	 0.0623893985	-0.0862035411	 0.032988
C	 0.3204044183	-0.6402278367	-1.3940502566	-0.390677
C	 0.6815838893	-0.5697813806	 1.1011979867	-0.193892
C	 0.1951930376	-0.1662063147	 2.4799187023	 0.124335
C	 0.9686055527	-0.7067652574	 3.703760156	-0.384423
C	 1.2560454799	 0.7531491836	 3.9777113841	 0.440872
N	 1.8731416158	 1.3825164971	 4.8690249039	-0.541286
O	 0.5738925042	 1.2066902119	 2.8679230382	-0.259889
H	 1.2200444376	 1.7969219776	-0.3638563873	 0.111293
H	-0.4025408799	 1.9892993331	-1.0407539188	 0.106351
H	-0.1449765811	 2.1052196276	 0.7102180926	 0.136219
H	-1.1439983616	-0.1089706605	 0.0779510271	 0.071988
H	 1.3908315344	-0.5189183303	-1.5989800929	 0.114432
H	 0.1085287787	-1.7140987326	-1.3545297719	 0.108066
H	-0.227486071	-0.2205786124	-2.2437929898	 0.113042
H	 0.5801620301	-1.6626860833	 1.0435204907	 0.101224
H	 1.755909975	-0.3527354378	 1.0262737016	 0.102455
H	-0.892616212	-0.2659173368	 2.5607359492	 0.091368
H	 0.3781188597	-1.212563206	 4.4690327227	 0.136661
H	 1.8515808246	-1.3051787483	 3.4692815052	 0.135064
H	 1.8368026859	 2.3896800631	 4.7020134152	 0.226574
44.221	70.148	116.171	171.3883	225.4608	258.5347	284.9785	307.6686	409.4592	421.6743	455.646	490.4187	506.7315	721.4795	809.2822	841.6496	855.0206	868.0768	928.4287	935.4204	961.4518	968.0676	972.2148	1020.1252	1026.1894	1098.0618	1098.7522	1132.9401	1195.7469	1196.681	1224.2147	1242.6415	1264.5917	1288.5125	1345.5416	1369.1593	1375.651	1403.4491	1406.474	1427.6819	1464.6288	1465.0619	1487.2618	1494.1966	1505.826	1510.7885	1825.1504	2991.5768	3008.0513	3024.8606	3032.1504	3043.0029	3060.5616	3083.745	3088.8121	3093.8103	3101.1516	3132.6323	3139.4757	3474.8005
CC(C)CC1CC(=N)O1	CC(C)C[C@H]1C[C]([NH])O1	
InChI=1S/C7H13NO/c1-5(2)3-6-4-7(8)9-6/h5-6,8H,3-4H2,1-2H3	InChI=1S/C7H13NO/c1-5(2)3-6-4-7(8)9-6/h5-6,8H,3-4H2,1-2H3/t6-/m0/s1
