18
gdb 9932	3.0543	1.49775	1.40918	1.8272	75.11	-0.2353	0.0508	0.2861	1003.0075	0.150443	-347.757634	-347.748207	-347.747263	-347.790979	34.695	
C	-0.0645914459	 1.5415897723	-0.0320753376	-0.427483
C	 0.060332383	 0.0356459624	 0.0312327287	-0.085367
C	 1.3879184708	-0.6553720527	-0.155819318	 0.051405
O	 2.5578663533	 0.1005352919	-0.2629445152	-0.419618
C	 0.7332619643	-0.6772247698	 1.2189925021	 0.087221
C	 1.3557437976	 0.1259752183	 2.3531206997	-0.462401
C	 0.1387468186	-1.9243988031	 1.6230868796	 0.271505
C	-0.360858979	-2.9629499385	 1.9699946679	-0.447525
H	 0.8721987041	 2.0396440738	 0.2254351193	 0.129311
H	-0.3410731558	 1.8567319326	-1.0447620725	 0.116328
H	-0.8418532496	 1.9055578722	 0.6475336269	 0.126543
H	-0.7931973461	-0.5029329033	-0.3702144471	 0.095566
H	 1.4031048578	-1.5979222015	-0.700974472	 0.097656
H	 2.5767050646	 0.4985178322	-1.1399188145	 0.292114
H	 1.9318540448	 0.9688668421	 1.9721437905	 0.135297
H	 0.5829799649	 0.4979092406	 3.0327860144	 0.121324
H	 2.0335562299	-0.5094009491	 2.9302191398	 0.129772
H	-0.7986824473	-3.8802172803	 2.276140288	 0.188353
130.6188	144.6458	150.1361	155.6826	209.0227	229.3811	275.9779	293.3952	393.2072	444.9881	530.5032	543.093	578.4468	586.0071	639.0015	678.3512	790.3814	848.5185	959.5757	980.4944	1034.0279	1057.3595	1096.0179	1117.7685	1158.2391	1174.6451	1252.2895	1273.2368	1311.1579	1378.2831	1403.6489	1415.5024	1447.4033	1485.9212	1491.952	1502.1853	1512.449	2230.7117	3034.4898	3048.4167	3090.0802	3109.0775	3111.4708	3125.1006	3151.951	3155.173	3504.5712	3802.2764
CC1C(O)C1(C)C#C	C[C@H]1[C@@H](O)[C@]1(C)C#C	
InChI=1S/C7H10O/c1-4-7(3)5(2)6(7)8/h1,5-6,8H,2-3H3	InChI=1S/C7H10O/c1-4-7(3)5(2)6(7)8/h1,5-6,8H,2-3H3/t5-,6+,7+/m0/s1
