23
gdb 69323	2.71535	1.30623	1.24045	1.4118	84.92	-0.2516	0.0742	0.3259	1183.8597	0.205349	-388.304674	-388.295384	-388.29444	-388.337679	37.393	
C	 0.0341756956	 1.5137249622	 0.2672726453	-0.483477
C	 0.1135901392	 0.0277583434	 0.0128436176	 0.363504
C	-0.9481952543	-0.8888197608	 0.5706489342	-0.349776
C	 0.4652040076	-0.9730380393	 1.0951745819	-0.068245
C	 1.3669780238	-2.0501102062	 0.5120494926	 0.396554
C	 2.8269858218	-1.7962571444	 0.9077728502	-0.435887
O	 0.9449514797	-3.3226667577	 1.0071840746	-0.47832
C	 1.1531472157	-1.9211187722	-1.0237601285	-0.296536
C	 0.7845648816	-0.4454920843	-1.276081026	-0.268902
H	 1.0274458919	 1.9777108465	 0.2323887292	 0.110312
H	-0.5888193846	 2.0125168468	-0.4850741063	 0.115125
H	-0.4005968476	 1.7282285193	 1.2487541161	 0.113401
H	-1.6827095216	-0.4399575911	 1.2312190036	 0.103977
H	-1.3381945395	-1.7050469273	-0.0275712616	 0.113514
H	 0.6575883061	-0.6548146456	 2.1148692972	 0.072889
H	 2.9384904582	-1.8219088998	 1.9958154197	 0.121066
H	 3.4837186854	-2.5625178855	 0.4775392167	 0.099649
H	 3.1735700538	-0.8225284314	 0.5469218108	 0.117861
H	 1.5656099073	-3.9841546794	 0.6830584915	 0.270245
H	 2.0332628606	-2.2386236198	-1.5916471426	 0.086362
H	 0.3312249244	-2.5850515855	-1.3057332642	 0.108753
H	 0.1491480369	-0.3170124986	-2.1602663412	 0.093999
H	 1.6881818681	 0.1535385406	-1.4475367709	 0.093931
114.21	189.2048	214.9304	236.2941	262.6562	279.5468	326.555	337.9199	372.4563	403.1847	433.5989	511.0839	542.3681	592.8904	697.2488	751.2573	824.5202	864.4732	915.5051	933.674	937.2511	956.0893	973.1337	1001.817	1004.6128	1053.4979	1058.6476	1076.3269	1089.0382	1128.3246	1156.2825	1194.7169	1216.6887	1232.8393	1275.355	1290.0284	1316.6676	1335.4368	1381.5476	1400.1713	1412.0405	1427.1294	1484.2511	1488.3861	1489.9795	1491.1936	1498.4371	1504.7285	1518.7823	3016.4498	3021.2608	3022.5566	3051.4483	3057.6845	3074.3537	3089.7226	3095.3951	3098.1153	3112.0518	3130.1076	3157.1884	3211.7146	3802.6232
CC12CC1C(C)(O)CC2	C[C@]12C[C@H]1[C@@](C)(O)CC2	
InChI=1S/C8H14O/c1-7-3-4-8(2,9)6(7)5-7/h6,9H,3-5H2,1-2H3	InChI=1S/C8H14O/c1-7-3-4-8(2,9)6(7)5-7/h6,9H,3-5H2,1-2H3/t6-,7+,8+/m1/s1
