13
gdb 20517	4.98572	1.5362	1.18299	3.1775	60.79	-0.2626	-0.0567	0.2059	937.8894	0.095177	-398.614432	-398.607354	-398.60641	-398.646376	24.832	
C	-0.0076760145	 1.5036949687	 0.0083339485	-0.49913
C	 0.0336423038	-0.0131507727	 0.0020899056	 0.301488
O	 1.077975546	-0.6315442567	-0.0088623054	-0.307011
C	-1.2564596365	-0.7297149227	 0.0096002451	 0.052739
C	-2.5410766125	-0.2662473244	 0.0216731859	 0.000992
O	-3.4086088531	-1.2758429632	 0.024803191	-0.162511
N	-2.6986691536	-2.4883179224	 0.0144171	-0.121948
C	-1.4399821063	-2.1472349719	 0.005426222	-0.028501
H	 1.0111392887	 1.891361008	 0.0011330528	 0.150706
H	-0.5483461627	 1.8770396777	-0.8684628847	 0.142184
H	-0.5331671035	 1.8700779192	 0.8972191093	 0.142212
H	-2.9712327462	 0.723810631	 0.0289963004	 0.165451
H	-0.6732503496	-2.9079027305	-0.0037228804	 0.16333
77.9584	123.2276	174.9878	191.5052	364.6395	500.2141	561.7828	621.7196	623.9023	684.5545	856.133	870.0245	930.5777	938.8607	947.6541	1005.4063	1048.1087	1114.901	1168.9828	1217.4026	1312.8827	1375.1086	1404.7823	1466.7709	1477.2022	1495.9382	1622.1583	1780.5855	3037.7624	3099.8963	3157.5469	3261.5433	3263.3086
CC(=O)C1=CON=C1	CC(=O)c1conc1	
InChI=1S/C5H5NO2/c1-4(7)5-2-6-8-3-5/h2-3H,1H3	InChI=1S/C5H5NO2/c1-4(7)5-2-6-8-3-5/h2-3H,1H3
