21
gdb 64648	3.08755	1.2341	1.09959	0.636	88.19	-0.2568	0.057	0.3138	1202.4023	0.181965	-349.865504	-349.856774	-349.85583	-349.898892	34.634	
C	-0.0117114969	 1.6132439456	-0.1451174803	-0.482554
C	 0.0135000388	 0.0835193096	-0.0589837713	 0.388966
C	-1.430500381	-0.4120303887	-0.3384609474	-0.443479
C	-2.3390203764	-0.165718157	 0.7767602009	 0.334906
C	-3.0669159829	 0.0392799159	 1.7118809632	-0.474866
C	 1.1917454319	-0.7135075673	-0.7376872038	-0.097577
C	 2.1351134158	-0.1681775074	 0.3750846744	-0.236645
C	 0.8255300945	-0.5983290097	 1.1050691397	-0.069604
C	 0.9041982306	-1.892295101	 0.2429808615	-0.233016
H	 0.9177887424	 2.0957757459	 0.155468804	 0.11662
H	-0.2336731268	 1.931799471	-1.1706251287	 0.112613
H	-0.8075800348	 2.0044312442	 0.496821285	 0.132781
H	-1.8051784828	 0.1124867997	-1.2275121301	 0.123787
H	-1.46119588	-1.4742883157	-0.591681764	 0.128048
H	-3.720167008	 0.2163496841	 2.529794235	 0.19363
H	 1.4059593687	-0.7810597674	-1.8068450626	 0.065113
H	 3.0131079342	-0.7826592327	 0.5885268919	 0.089882
H	 2.4032746749	 0.8863918383	 0.3577269303	 0.093259
H	 0.6103443811	-0.53039748	 2.1724944586	 0.074646
H	-0.0003902894	-2.4834601999	 0.1093360409	 0.093658
H	 1.7548990362	-2.5459205675	 0.4506859929	 0.089831
53.6265	116.7745	174.4734	213.9211	325.3511	358.479	382.2101	415.1987	460.6687	549.058	606.3285	614.8479	632.4636	689.0166	775.5059	796.9488	861.3014	895.3762	896.7335	912.1234	935.6218	973.145	1002.3892	1010.3021	1025.4918	1072.682	1090.1378	1109.0384	1125.1656	1153.1713	1182.5498	1190.8393	1198.5143	1232.5067	1244.0701	1250.0546	1315.0126	1328.7272	1415.1553	1468.2965	1495.5363	1499.1311	1525.7301	1557.3756	2233.0024	3022.1569	3035.2904	3068.6531	3071.2254	3085.2373	3089.2993	3093.4567	3104.822	3134.5026	3141.6287	3156.2563	3506.9311
CC1(CC#C)C2CC1C2	C[C@@]1(CC#C)[C@H]2C[C@@H]1C2	
InChI=1S/C9H12/c1-3-4-9(2)7-5-8(9)6-7/h1,7-8H,4-6H2,2H3	InChI=1S/C9H12/c1-3-4-9(2)7-5-8(9)6-7/h1,7-8H,4-6H2,2H3/t7-,8+,9-
