17
gdb 15793	3.49682	1.35946	1.08752	4.1336	67.16	-0.2595	0.02	0.2795	1100.6851	0.140356	-400.969961	-400.961309	-400.960365	-401.004126	30.105	
C	-0.1740446237	 1.4859371589	 0.3638005735	-0.393634
C	 0.0303310757	-0.0032062374	 0.0893011261	 0.073587
O	 0.7505443686	-0.608129168	 1.1678058973	-0.188497
C	 2.0943055312	-0.619538001	 1.0856498037	 0.130436
N	 2.7831136107	-1.0829539856	 2.0357467332	-0.442523
C	-1.2950961137	-0.7226410749	-0.0709695376	 0.079814
C	-1.6015269699	-2.0057365868	 0.5684633652	-0.174324
O	-2.1391177821	-0.7769474691	 1.0730490679	-0.232786
H	 0.7870377608	 1.9989670084	 0.4591575961	 0.121064
H	-0.7340685534	 1.9536438977	-0.4520910392	 0.121303
H	-0.7357192698	 1.6111496793	 1.2925272028	 0.156053
H	 0.5967611625	-0.1410643337	-0.844192783	 0.083703
H	 2.478602262	-0.210469117	 0.139966539	 0.084621
H	 3.7727142381	-1.0320161418	 1.8036704362	 0.229399
H	-1.8101160968	-0.4647477919	-0.9988201211	 0.09548
H	-2.3252876882	-2.6739973631	 0.1041410988	 0.113544
H	-0.8526687021	-2.4726213741	 1.2014418411	 0.14276
52.7262	79.9884	106.4061	174.8309	231.2019	240.5968	320.7912	386.8326	485.8546	564.2812	665.8664	786.4143	816.5609	867.8986	900.092	956.2366	995.4943	1040.0458	1046.584	1086.5112	1110.0244	1136.7442	1153.8333	1173.2972	1183.1594	1292.2194	1297.9654	1342.4462	1382.0163	1404.7407	1427.0431	1437.9452	1486.4481	1496.8939	1523.9997	1745.6737	2991.7177	3012.1934	3044.6724	3087.9416	3099.1606	3115.9042	3137.0263	3200.5167	3520.2964
CC(OC=N)C1CO1	C[C@@H](O[CH][NH])[C@H]1CO1	
InChI=1S/C5H9NO2/c1-4(8-3-6)5-2-7-5/h3-6H,2H2,1H3	InChI=1S/C5H9NO2/c1-4(8-3-6)5-2-7-5/h3-6H,2H2,1H3/t4-,5-/m1/s1
