13
gdb 9576	4.58875	1.32032	1.26157	3.4334	66.8	-0.2652	-0.0002	0.265	963.5419	0.093175	-361.416908	-361.408959	-361.408015	-361.449014	29.092	
O	-0.0010075824	 1.3875550562	-0.0359393137	-0.427802
C	 0.0199342703	 0.0007934488	 0.0209526076	 0.251575
C	-0.4429743104	-0.6974350119	 1.2811834508	-0.33712
C	-1.347368438	-0.6862145175	 0.0618407694	-0.26049
C	-2.5362868319	 0.1103408141	 0.0327940806	 0.341942
C	-3.5523585261	 0.750741568	-0.00078514	-0.420815
C	 1.0550155709	-0.6322707492	-0.7712426179	 0.245709
N	 1.8972135627	-1.127399136	-1.3903037837	-0.337953
H	 0.7677208991	 1.7243566377	 0.4393297876	 0.301774
H	 0.0239662862	-1.6342104006	 1.5605475808	 0.145872
H	-0.7179778112	-0.0378380703	 2.095511048	 0.145912
H	-1.3988904019	-1.6174495707	-0.4937558332	 0.146896
H	-4.4439250672	 1.3266180014	-0.0342521464	 0.2045
105.554	125.8582	186.8123	244.5815	302.4307	340.5976	376.0465	482.2004	524.2163	579.3364	615.4943	619.7289	661.7774	711.923	799.8171	868.4646	922.4994	1010.1397	1058.5604	1075.4022	1134.8375	1233.244	1258.062	1348.4992	1396.4187	1464.1365	2246.868	2348.7901	3147.8909	3160.4743	3249.0255	3504.5358	3794.6967
OC1(CC1C#C)C#N	O[C@]1(C[C@H]1C#C)C#N	
InChI=1S/C6H5NO/c1-2-5-3-6(5,8)4-7/h1,5,8H,3H2	InChI=1S/C6H5NO/c1-2-5-3-6(5,8)4-7/h1,5,8H,3H2/t5-,6-/m1/s1
