13
gdb 129255	3.42804	1.79621	1.18749	5.6683	66.72	-0.2764	-0.0438	0.2326	936.4561	0.092449	-448.925698	-448.919411	-448.918467	-448.956589	23.761	
N	-0.1204005669	 1.2981537111	 0.0097373721	-0.530665
C	-0.0339493913	 0.0495581987	 0.0028648937	 0.510321
O	 1.0907946	-0.7292726612	-0.006465747	-0.265498
C	 0.768046764	-2.1430126933	-0.0120075989	-0.208211
C	-0.7239578983	-2.1487708213	-0.0049011191	 0.318491
C	-1.8968702405	-2.853183693	-0.002745169	-0.216061
N	-2.9269618766	-1.9435183674	 0.0058961306	-0.168148
N	-2.462813968	-0.7283135088	 0.0111080132	-0.127871
N	-1.1172662348	-0.8540224965	 0.0035743837	-0.01582
H	 0.8017870491	 1.7297451741	 0.0075275022	 0.247416
H	 1.2064839276	-2.5955754097	-0.9069424146	 0.157794
H	 1.2150071524	-2.6044945558	 0.8741118552	 0.157795
H	-2.0828644969	-3.9137837669	-0.007205012	 0.140456
152.9073	171.4182	247.2855	310.0334	549.4646	628.6491	635.5752	674.2306	699.3666	723.3433	791.5791	839.5954	841.9651	955.2484	1003.8691	1033.7267	1058.8906	1106.2547	1139.2446	1177.7629	1193.3047	1269.312	1292.9802	1331.7861	1406.826	1462.1673	1508.2766	1599.8135	1816.6682	3051.4823	3091.5369	3285.5687	3530.4345
N=C1OCC2=CN=NN12	[NH][C]1OCc2cnnn12	
InChI=1S/C4H4N4O/c5-4-8-3(2-9-4)1-6-7-8/h1,5H,2H2	InChI=1S/C4H4N4O/c5-4-8-3(2-9-4)1-6-7-8/h1,5H,2H2
