18
gdb 59858	2.89408	1.08823	0.90473	1.9204	69.96	-0.2482	-0.0708	0.1774	1323.1509	0.145884	-476.277658	-476.267833	-476.266889	-476.312743	35.794	
C	-0.0630812753	 1.4263507881	 0.3558947931	-0.393103
C	-0.1267488888	-0.0975573099	 0.2485443542	 0.148489
O	-0.3257498614	-0.7015671259	 1.5140648887	-0.445968
C	-1.2012497454	-0.5405539436	-0.7802825778	-0.339462
C	-1.3849639433	-2.0373568516	-0.7809039906	 0.329383
O	-0.8329398234	-2.7963738692	-1.5448299867	-0.313089
C	-2.3546268061	-2.6023991561	 0.2896435325	 0.338205
N	-2.5450458292	-3.9265663512	 0.1587475792	-0.510981
O	-2.8754817896	-1.8857981222	 1.1323601462	-0.376152
H	 0.7027975342	 1.7104169665	 1.0824173074	 0.127603
H	 0.1813256987	 1.8868079849	-0.6074718565	 0.110483
H	-1.023004763	 1.8295730235	 0.6971510888	 0.116709
H	 0.8424556174	-0.4719646818	-0.105618946	 0.097323
H	-1.2784661003	-0.7636100876	 1.6796767092	 0.295939
H	-2.1531693521	-0.0642711384	-0.5244005096	 0.130818
H	-0.8960809571	-0.231508234	-1.7829238731	 0.126446
H	-2.0180293281	-4.417993607	-0.5462101688	 0.283637
H	-3.1158885674	-4.4240198543	 0.8211586298	 0.273721
65.7431	68.0239	103.8652	185.3068	239.1789	257.5872	305.4418	357.9737	380.0021	425.9905	460.6805	489.7938	534.8751	539.8904	587.9927	671.5265	724.1622	807.4048	872.532	912.2333	935.156	1041.3354	1098.0315	1106.5193	1123.326	1152.349	1225.8229	1301.1056	1343.4857	1373.5534	1386.8619	1404.4435	1443.75	1463.1138	1491.1474	1493.9622	1588.9215	1778.7383	1807.3047	3025.9155	3031.5368	3057.6957	3101.0335	3119.887	3122.1754	3589.5459	3707.8548	3730.7877
CC(O)CC(=O)C(N)=O	C[C@@H](O)CC(=O)C(=O)N	
InChI=1S/C5H9NO3/c1-3(7)2-4(8)5(6)9/h3,7H,2H2,1H3,(H2,6,9)	InChI=1S/C5H9NO3/c1-3(7)2-4(8)5(6)9/h3,7H,2H2,1H3,(H2,6,9)/t3-/m1/s1
