21
gdb 57255	2.0776	1.59089	1.22919	3.5297	81.69	-0.2519	0.0301	0.282	1142.8248	0.180916	-383.268935	-383.25881	-383.257866	-383.30359	37.938	
C	-0.2448482941	 1.5293047474	-0.1348357822	-0.414151
C	 0.0180351058	 0.0081705742	-0.0044857028	 0.023245
C	 0.8134401211	-0.2884581352	 1.2892504569	-0.411615
C	-1.2945547422	-0.6524932686	 0.1104863163	 0.26335
N	-2.3306432779	-1.158394755	 0.1998962324	-0.356493
C	 0.7588118298	-0.537907044	-1.2531902782	 0.330814
C	 2.1007769544	 0.1049247714	-1.553961429	-0.464554
C	 0.5570087125	-1.955572862	-1.6518611797	-0.287449
N	-0.0134750402	-0.8609955597	-2.4637632781	-0.361618
H	 0.6991163473	 2.0785708744	-0.1160941888	 0.129851
H	-0.7631331294	 1.7595160167	-1.0692393392	 0.14022
H	-0.8597736483	 1.8831482213	 0.6965471321	 0.13519
H	 0.255286463	 0.0457488957	 2.1678227033	 0.134745
H	 1.0097302912	-1.3585927026	 1.3910739727	 0.137026
H	 1.76876199	 0.2414245545	 1.2732983073	 0.12953
H	 2.8187510724	-0.0446260258	-0.74181358	 0.118874
H	 2.5125350971	-0.3448890461	-2.459721522	 0.13701
H	 2.0065807574	 1.1791721695	-1.737750161	 0.125156
H	 1.3735603735	-2.4979560993	-2.1207029457	 0.115265
H	-0.1250354033	-2.5716772377	-1.0732972623	 0.133381
H	-1.0138740801	-0.8024110792	-2.281544052	 0.242223
42.6847	157.4703	176.1942	186.8237	211.7894	250.8232	272.7822	308.5203	313.4479	378.7876	389.3908	411.2452	486.2656	557.9282	590.2762	633.9778	787.0403	844.4739	889.7437	923.985	944.6974	946.2515	984.6847	1032.4139	1033.6417	1081.3522	1108.756	1137.9809	1164.7888	1205.2163	1228.9595	1270.0767	1322.3847	1363.4459	1398.3424	1417.0982	1426.5396	1478.407	1482.3177	1490.7743	1501.2264	1504.9898	1507.6095	1514.6717	2346.5572	3045.6778	3049.4792	3053.44	3110.6487	3112.25	3125.4037	3127.832	3129.6294	3132.1863	3135.2157	3198.9533	3485.447
CC(C)(C#N)C1(C)CN1	CC(C)(C#N)[C@@]1(C)CN1	
InChI=1S/C7H12N2/c1-6(2,4-8)7(3)5-9-7/h9H,5H2,1-3H3	InChI=1S/C7H12N2/c1-6(2,4-8)7(3)5-9-7/h9H,5H2,1-3H3/t7-/m1/s1
