18
gdb 37372	3.03751	1.83832	1.62369	1.871	69.88	-0.2349	0.0771	0.312	889.3702	0.15145	-439.054867	-439.048484	-439.04754	-439.085268	26.89	
C	-0.0146922973	 1.5335450842	 0.0027744715	-0.084486
O	 1.297675152	 2.0830508356	-0.0711087267	-0.261488
C	 2.1251432971	 1.4754364735	-1.0589476653	-0.084486
C	 2.0553224736	-0.0541369586	-0.9599331055	 0.05851
O	 0.6840822647	-0.4169267023	-1.1709408575	-0.266135
C	 0.0396535602	 0.0005991359	 0.0401839477	 0.058509
C	 0.9985963347	-0.4679143955	 1.1297808098	-0.041014
N	 1.6327726497	-1.7654006639	 0.814872803	-0.345069
C	 2.3229003287	-0.5038715554	 0.472699893	-0.041014
H	-0.4678340477	 1.9552939578	 0.9062872257	 0.104821
H	-0.6162852424	 1.8371214712	-0.8676864153	 0.099944
H	 1.8089635856	 1.7712702697	-2.0710183656	 0.099944
H	 3.1362341396	 1.8574155712	-0.8819369163	 0.10482
H	 2.6554486789	-0.5465700727	-1.7299527059	 0.087899
H	-0.9570462696	-0.4484721266	 0.0624647454	 0.087898
H	 0.8653843967	-0.1487992189	 2.1571322246	 0.094981
H	 2.0470630974	-2.1311754186	 1.6698480577	 0.231383
H	 3.2348506883	-0.2131343366	 0.9814722898	 0.094981
235.6835	241.7497	329.6593	339.0431	438.3853	465.2708	533.891	687.7321	782.8166	783.833	825.3984	850.2487	868.291	879.153	884.9919	903.8618	951.7501	1012.9568	1014.4417	1041.762	1056.2589	1088.5701	1097.0226	1131.9502	1150.5769	1159.9593	1231.1459	1238.614	1283.5946	1287.4011	1303.681	1327.2374	1351.604	1365.9126	1383.402	1402.2426	1431.071	1479.5832	1490.8858	2988.2753	2993.5352	3072.6864	3074.0894	3080.3098	3083.3235	3175.6576	3185.816	3493.381
C1OCC2OC1C1NC21	C1OC[C@@H]2O[C@H]1[C@H]1N[C@@H]21	
InChI=1S/C6H9NO2/c1-3-5-6(7-5)4(9-3)2-8-1/h3-7H,1-2H2	InChI=1S/C6H9NO2/c1-3-5-6(7-5)4(9-3)2-8-1/h3-7H,1-2H2/t3-,4+,5-,6+
