14
gdb 75871	3.2583	1.29507	0.97239	4.874	68.95	-0.249	-0.0658	0.1832	1125.5766	0.100462	-473.869398	-473.861239	-473.860294	-473.902549	29.285	
O	 0.0570382313	 1.4806284199	-0.0200566712	-0.415565
C	-0.0096272907	 0.0720624719	-0.0341695154	-0.10805
C	 0.6207000274	-0.4993911107	 1.2599872508	 0.417642
O	 1.7140604056	-0.2607556924	 1.7055291758	-0.352431
N	-0.358007468	-1.2980221742	 1.8460315206	-0.336716
C	-1.5396209507	-1.228941611	 1.1263096072	-0.064162
C	-1.4251134531	-0.4501860968	 0.0288982674	 0.15487
C	-2.4635951335	-0.2589457003	-0.9676957958	 0.076222
O	-2.3196189701	 0.3313691674	-2.0159514815	-0.278233
H	 0.9702113023	 1.7111381193	 0.1954239073	 0.297921
H	 0.5194784815	-0.3499213569	-0.9042404472	 0.118249
H	-0.2437322743	-1.7366153734	 2.7464546229	 0.274795
H	-2.404060157	-1.7896890099	 1.4577623336	 0.156119
H	-3.4407136907	-0.7214999431	-0.6944669345	 0.05934
70.7188	138.5555	157.6455	224.2262	244.7401	336.4319	362.6568	456.6194	497.5944	533.2934	596.1173	659.8528	726.5702	783.1352	879.716	893.1348	916.8707	1031.7286	1096.9769	1121.3163	1177.603	1205.8207	1281.6636	1323.8901	1331.4569	1406.2596	1429.3265	1439.3348	1660.8813	1783.5195	1855.365	2854.5055	2976.6586	3226.8177	3642.15	3774.4739
OC1C(=O)NC=C1C=O	O[C@H]1C(=O)NC=C1C=O	
InChI=1S/C5H5NO3/c7-2-3-1-6-5(9)4(3)8/h1-2,4,8H,(H,6,9)	InChI=1S/C5H5NO3/c7-2-3-1-6-5(9)4(3)8/h1-2,4,8H,(H,6,9)/t4-/m1/s1
