18
gdb 76513	3.20225	1.26682	1.15081	2.5451	72.01	-0.2161	0.0454	0.2615	1114.6918	0.147182	-438.997807	-438.989574	-438.98863	-439.030458	31.931	
O	 0.0506648471	 1.3713947158	-0.0684725161	-0.43669
C	 0.0350085742	-0.0246169388	-0.0605919575	 0.018157
C	-0.4477149749	-0.7156847809	 1.1978288516	-0.064762
O	-0.9156637517	 0.1267215274	 2.2228814299	-0.425668
C	-1.2941447623	-0.7401814217	-0.0382283632	 0.296026
C	-2.6993499971	-0.1446514365	-0.1533043686	-0.242302
N	-3.2098321591	-1.3883678569	-0.8459561	-0.126212
C	-2.4051136639	-1.5267755321	-2.0732646957	-0.237282
C	-1.7941062681	-1.9452888144	-0.7949914466	-0.135747
H	-0.3656026798	 1.6465998446	 0.7604460958	 0.284881
H	 0.8638823346	-0.4475348615	-0.6216144774	 0.101278
H	 0.0229837548	-1.6400826728	 1.5305400736	 0.095191
H	-0.1797962892	 0.3038547139	 2.8198393079	 0.298358
H	-3.2007052574	-0.0154647595	 0.8074628834	 0.128272
H	-2.8004265156	 0.7682698124	-0.7493093549	 0.112699
H	-2.7771366881	-2.3044786117	-2.7335447861	 0.120043
H	-2.0429128457	-0.6314226903	-2.57493922	 0.118339
H	-1.5976103278	-2.982412247	-0.5396912559	 0.095419
113.2655	133.8584	167.9444	246.9954	271.7348	322.0744	400.1531	479.3184	484.8669	529.7316	617.1491	654.6975	744.9429	781.9967	808.7628	878.9946	884.9452	943.1373	985.2959	1006.8389	1048.0203	1063.4594	1085.0072	1112.1338	1114.5733	1138.4541	1155.0289	1179.1685	1197.1469	1225.5788	1256.9262	1273.5325	1296.9852	1324.0756	1373.6895	1409.1286	1484.4337	1492.0521	1506.3004	3050.202	3101.1286	3107.0687	3119.3596	3147.8945	3152.5256	3196.1544	3739.8243	3798.7204
OC1C(O)C11CN2CC12	O[C@H]1[C@@H](O)[C@]21CN1C[C@@H]21	
InChI=1S/C6H9NO2/c8-4-5(9)6(4)2-7-1-3(6)7/h3-5,8-9H,1-2H2	InChI=1S/C6H9NO2/c8-4-5(9)6(4)2-7-1-3(6)7/h3-5,8-9H,1-2H2/t3-,4-,5+,6+,7?/m0/s1
