23
gdb 90346	2.82511	1.376	1.11668	0.3134	92.24	-0.2244	0.031	0.2553	1211.3718	0.208307	-351.16679	-351.158508	-351.157563	-351.199218	33.673	
C	-0.1993551684	 1.5271941445	-0.1557422714	-0.391164
C	-0.0268571695	 0.0179777807	-0.0313854868	-0.018356
C	 1.174636632	-0.5441639662	-0.8795197518	-0.336887
C	 1.9717279327	-0.5469027221	 0.4068613939	 0.357613
C	 3.202857082	-0.2601372586	 0.8078713418	-0.238683
C	 3.4868290277	 0.0025119089	 2.2702137311	-0.227647
C	 2.2534183224	-0.1914411296	 3.1810524213	-0.202359
C	 0.9430199006	 0.3159979638	 2.54153191	-0.235584
C	 0.725570987	-0.4833019169	 1.2603142547	-0.035654
H	 0.7540327933	 2.049666321	-0.0203720899	 0.119132
H	-0.582243607	 1.7905383115	-1.1476638883	 0.110905
H	-0.9037595833	 1.9150612977	 0.5878325424	 0.11321
H	-0.9833277355	-0.4817591919	-0.210758579	 0.063059
H	 0.967978584	-1.5499602294	-1.2623321479	 0.102699
H	 1.5387874354	 0.0752725549	-1.7049867693	 0.101016
H	 4.0219087119	-0.1408280302	 0.1013345161	 0.075793
H	 4.3060866925	-0.6369874576	 2.625392598	 0.100515
H	 3.8639386326	 1.0316509675	 2.3700574767	 0.101904
H	 2.136680838	-1.2599295989	 3.4032919259	 0.098164
H	 2.4290988138	 0.3064342757	 4.1406760318	 0.089382
H	 0.1098916388	 0.2084866961	 3.245203541	 0.086918
H	 1.0360171757	 1.3843569096	 2.3126398406	 0.09498
H	 0.3595128233	-1.4888801505	 1.5092001191	 0.071043
92.7795	186.2207	239.4775	259.8364	276.2314	326.4719	373.7425	415.1783	476.5687	506.8629	608.6501	735.8607	762.2688	786.8795	807.7044	850.8002	867.0412	895.2856	915.8476	949.9737	969.8856	1021.6426	1039.5976	1066.8759	1081.2837	1093.117	1104.4325	1119.7372	1167.7342	1179.9497	1208.1369	1223.7675	1255.9653	1270.3975	1281.1379	1310.9682	1352.8784	1361.4378	1366.5273	1376.1073	1380.0915	1408.5947	1474.6092	1477.7013	1488.8818	1494.2813	1498.5425	1503.0745	1773.5919	2992.8549	3000.4925	3017.0682	3026.1609	3030.1485	3032.2614	3033.5728	3055.8816	3067.266	3074.7001	3085.2943	3093.9031	3098.5071	3143.3019
CC1CC2=CCCCC12	C[C@H]1CC2=CCCC[C@@H]12	
InChI=1S/C9H14/c1-7-6-8-4-2-3-5-9(7)8/h4,7,9H,2-3,5-6H2,1H3	InChI=1S/C9H14/c1-7-6-8-4-2-3-5-9(7)8/h4,7,9H,2-3,5-6H2,1H3/t7-,9-/m0/s1
