18
gdb 69936	3.88404	1.42531	1.23867	3.3735	76.41	-0.2344	0.01	0.2444	1043.0739	0.148842	-401.911765	-401.904431	-401.903487	-401.943166	29.474	
C	 0.0000775267	 1.4852056235	-0.1246488694	-0.474316
C	 0.00711721	-0.0108717904	 0.0243407073	 0.350654
C	-0.8574949534	-0.7353527994	 1.0241511819	-0.322952
C	 0.6409333611	-0.7899142527	 1.2295933818	-0.135971
C	 1.479405242	-1.847713426	 0.5584906554	-0.139304
C	 1.2559294751	-3.3697794457	 0.2583447869	-0.130225
O	 1.0829788159	-3.0689525277	-1.185361766	-0.268621
C	 0.9473111549	-1.7503585771	-0.833910661	 0.383106
N	 0.1789556598	-0.812669343	-1.1953069139	-0.329717
H	 0.9516068162	 1.8462307029	-0.5286782486	 0.122439
H	-0.7943483538	 1.7964274271	-0.8109555686	 0.133683
H	-0.1707594854	 1.9740826526	 0.8390406188	 0.112786
H	-1.4006922013	-0.1336235121	 1.7463363076	 0.115228
H	-1.3964598409	-1.6129923276	 0.6808923773	 0.119901
H	 1.0508132153	-0.2483012003	 2.072980672	 0.092017
H	 2.5488213279	-1.6424696073	 0.6503410103	 0.109547
H	 2.1062058155	-4.0341926344	 0.4167863439	 0.129128
H	 0.3317188244	-3.7954072624	 0.6559332642	 0.132617
159.1703	194.8347	206.6284	276.3435	322.8545	460.5437	476.7605	508.3328	601.1285	667.3932	691.1995	743.7606	798.0258	817.0111	883.8644	923.5962	943.371	956.103	965.684	1006.9786	1016.9932	1076.7534	1082.2517	1108.9154	1134.1613	1150.5776	1181.0316	1198.7599	1238.3147	1287.4206	1336.6846	1362.2208	1383.5634	1421.456	1478.1933	1481.142	1499.0045	1500.6384	1738.1768	3034.074	3069.7866	3079.7694	3098.8505	3110.4615	3121.745	3144.9344	3186.3684	3208.3767
CC12CC1C1COC1=N2	C[C@]12C[C@H]1[C@H]1CO[C]1[N]2	
InChI=1S/C7H9NO/c1-7-2-5(7)4-3-9-6(4)8-7/h4-5H,2-3H2,1H3	InChI=1S/C7H9NO/c1-7-2-5(7)4-3-9-6(4)8-7/h4-5H,2-3H2,1H3/t4-,5+,7+/m1/s1
