16
gdb 128035	4.68255	1.00185	0.82952	3.6855	76.44	-0.2226	-0.0074	0.2152	1347.1907	0.125664	-434.079505	-434.071447	-434.070503	-434.112659	29.325	
C	 0.1689822928	 1.2882767115	-0.5588712901	-0.322107
N	 0.5342289348	-0.0169501063	-1.0780718363	-0.236719
C	 0.2165815335	-1.0274327585	-0.3942249514	 0.134272
O	 0.4764750967	-2.309679233	-0.7250826554	-0.244643
C	 1.1302253129	-2.6656206636	-1.8696806647	 0.488041
C	 1.4284710884	-3.9497935909	-2.2720924437	-0.351243
C	 2.0959261199	-3.7584422427	-3.4993663009	 0.009882
N	 2.2013662286	-2.4734061705	-3.8280403453	-0.245285
N	 1.6009743127	-1.8170001913	-2.8119400872	-0.249913
H	-0.3603245229	 1.2455675591	 0.4044127586	 0.110503
H	 1.0710292695	 1.8962448507	-0.4329280005	 0.139667
H	-0.4699855906	 1.8034635605	-1.2837790638	 0.139672
H	-0.3131922871	-1.0123895038	 0.5625315188	 0.116929
H	 1.195888215	-4.8640615384	-1.7534380436	 0.110653
H	 2.5041110816	-4.5116971064	-4.1571730566	 0.112199
H	 1.5195449042	-0.8125197264	-2.7723281478	 0.288092
62.6092	145.2021	157.6379	214.0012	274.0071	321.4414	373.0319	391.46	597.7567	641.9899	675.9983	721.91	743.4661	786.3349	892.0497	930.6619	977.5326	1029.6157	1053.3153	1065.386	1103.1674	1141.0757	1151.3823	1222.9124	1272.1784	1287.5409	1380.2475	1401.9218	1426.7524	1449.9779	1481.8158	1504.7353	1516.3566	1606.8781	1740.7099	2993.5633	3074.9056	3092.2484	3095.1984	3245.3339	3282.2368	3633.7891
CN=COC1=CC=NN1	CN=COc1ccn[nH]1	
InChI=1S/C5H7N3O/c1-6-4-9-5-2-3-7-8-5/h2-4H,1H3,(H,7,8)	InChI=1S/C5H7N3O/c1-6-4-9-5-2-3-7-8-5/h2-4H,1H3,(H,7,8)
