17
gdb 52832	2.68047	1.00072	0.96388	2.0806	80.	-0.2361	0.0187	0.2548	1356.2828	0.133975	-417.967215	-417.957283	-417.956339	-418.003647	34.714	
C	 0.0371453634	 1.5636959966	-0.1490400585	-0.500006
C	 0.033549877	 0.1118745096	-0.0551105644	 0.013695
C	 0.0291490657	-1.0900824408	 0.0179462285	 0.106002
C	 0.0209641447	-2.5439568301	 0.0816924096	 0.134253
O	 0.9404431597	-3.1484781382	-0.8043079966	-0.450721
C	 0.1186326736	-3.1760662497	 1.511337054	-0.19755
N	-1.2852112278	-3.5948163847	 1.3539467822	-0.32834
C	-1.374557479	-3.2140850321	 0.0268543498	 0.330251
N	-2.1621762169	-3.3569994303	-0.949447954	-0.557558
H	 0.8676192748	 1.9161308436	-0.7704848639	 0.152712
H	-0.8928214009	 1.9349184946	-0.5932508961	 0.153763
H	 0.1430375777	 2.0253441583	 0.8387998012	 0.149877
H	 0.5536263801	-3.0786843427	-1.6862740223	 0.295133
H	 0.8439407395	-3.9944526301	 1.5300315414	 0.124405
H	 0.2895144644	-2.4815986006	 2.3363174039	 0.119887
H	-1.7387069704	-4.3829713202	 1.792921773	 0.242666
H	-2.9711305356	-3.9359392933	-0.7187713077	 0.211529
18.9327	80.9249	87.3158	149.0453	169.9291	250.9028	291.7974	332.1101	353.9827	421.084	431.6759	523.7488	554.7001	605.1845	713.1028	783.3916	825.3815	903.317	951.5407	1008.7503	1015.9837	1052.1261	1053.4737	1057.0347	1146.4455	1175.8203	1237.4787	1261.1315	1327.6643	1355.1521	1386.0019	1413.2847	1475.9233	1477.5152	1511.1652	1802.8656	2368.0452	3028.1971	3055.4207	3090.0501	3090.982	3119.2554	3464.1991	3600.7786	3785.2562
CC#CC1(O)CNC1=N	CC#C[C@@]1(O)CN[C]1[NH]	
InChI=1S/C6H8N2O/c1-2-3-6(9)4-8-5(6)7/h9H,4H2,1H3,(H2,7,8)	InChI=1S/C6H8N2O/c1-2-3-6(9)4-8-5(6)7/h9H,4H2,1H3,(H2,7,8)/t6-/m1/s1
