17
gdb 29588	2.98248	1.37441	1.01558	3.0771	76.13	-0.1855	0.0413	0.2268	1156.9497	0.137175	-417.997024	-417.988887	-417.987943	-418.030579	31.103	
O	-0.0954790647	 1.316410669	 0.1126706186	-0.455726
C	-0.0124554276	-0.0319463335	-0.0212936838	 0.258911
C	-0.1026060456	-0.7679850665	-1.1782043885	-0.178522
N	 0.0409841423	-2.0942591553	-0.815906087	-0.242656
C	 0.2183857094	-2.2108406543	 0.5354434795	-0.15655
C	 0.1896123808	-0.9323256213	 1.0628930471	 0.153655
N	 0.3167044585	-0.4237192197	 2.3817976299	-0.203061
C	-0.2372084453	-1.1962872056	 3.4993590725	-0.21965
C	 1.2334012114	-1.0872755109	 3.3156025189	-0.219649
H	 0.0109842343	 1.480205678	 1.0615558773	 0.291631
H	-0.2525400462	-0.4698619067	-2.2012475223	 0.120587
H	 0.0177636532	-2.8643274485	-1.4585856237	 0.261529
H	 0.3478236425	-3.1745479368	 1.0004083674	 0.113105
H	-0.7371367671	-0.6135192212	 4.2683076187	 0.119018
H	-0.7110680854	-2.1448643324	 3.2610206882	 0.119181
H	 1.7670603645	-1.9611658628	 2.9513633576	 0.11918
H	 1.8162426547	-0.4242433115	 3.9492526397	 0.119017
26.0961	157.1415	169.9195	287.7427	290.1316	353.0763	467.9609	506.8238	530.3641	563.8483	618.2883	629.7781	719.1572	728.1278	738.782	816.6336	854.8946	891.1534	934.9231	1033.3172	1068.4201	1101.1227	1119.8709	1120.3537	1165.9107	1179.2731	1183.7319	1227.5895	1285.6855	1313.3163	1376.3882	1459.6446	1480.1952	1489.8406	1515.6872	1573.0137	1659.9154	3104.3215	3108.2253	3186.2266	3202.3769	3260.9618	3282.0397	3703.1347	3727.3473
OC1=CNC=C1N1CC1	Oc1c[nH]cc1N1CC1	
InChI=1S/C6H8N2O/c9-6-4-7-3-5(6)8-1-2-8/h3-4,7,9H,1-2H2	InChI=1S/C6H8N2O/c9-6-4-7-3-5(6)8-1-2-8/h3-4,7,9H,1-2H2
