14
gdb 131754	5.25037	0.88905	0.77227	5.2327	68.75	-0.2714	-0.0809	0.1905	1377.6388	0.099832	-473.814148	-473.805875	-473.804931	-473.848084	28.622	
O	 0.033028479	 1.3604971339	 0.4088949425	-0.41601
C	 0.005044545	 0.0238643141	-0.0627927296	-0.187113
C	-1.4077930274	-0.4621909438	 0.0448260473	 0.396875
N	-1.6689351471	-1.7269504338	 0.2911613499	-0.182755
O	-3.0428970155	-1.8494820607	 0.2898933684	-0.191137
C	-3.587952646	-0.6402428459	 0.0530720579	 0.342393
C	-5.050357203	-0.505807807	 0.014029483	 0.079351
O	-5.8316691627	-1.4109099697	 0.1708193856	-0.249796
C	-2.6022666798	 0.2885906449	-0.1129289013	-0.378336
H	 0.9175659834	 1.7098439765	 0.2659943572	 0.29854
H	 0.3244179324	-0.0347152092	-1.1154737989	 0.117642
H	 0.6570553972	-0.6435386775	 0.5169048213	 0.128059
H	-5.3797501432	 0.5368977504	-0.1798097729	 0.094029
H	-2.6990657122	 1.3438677979	-0.3036891504	 0.148256
50.3567	92.4011	147.3095	205.6509	240.1971	258.2792	337.6636	455.1547	482.9736	656.8241	663.6738	720.3507	774.0537	852.6096	974.2865	1010.2828	1021.1762	1024.9607	1037.4654	1093.7969	1132.0336	1235.0226	1243.9668	1312.5449	1403.8447	1440.2956	1459.8356	1508.5459	1518.1375	1620.8683	1804.3126	2909.8924	2977.7729	3030.2576	3289.2211	3835.3829
OCC1=NOC(C=O)=C1	OCc1noc(C=O)c1	
InChI=1S/C5H5NO3/c7-2-4-1-5(3-8)9-6-4/h1,3,7H,2H2	InChI=1S/C5H5NO3/c7-2-4-1-5(3-8)9-6-4/h1,3,7H,2H2
