18
gdb 39901	2.7258	1.80668	1.59685	1.5186	70.24	-0.2429	0.0738	0.3167	919.5106	0.150683	-439.053134	-439.046282	-439.045338	-439.084184	27.763	
C	 0.0212945795	 1.4851372286	-0.0129008273	-0.336651
N	 1.2437890723	 0.6417735799	 0.0545918739	-0.391791
C	-0.0670387681	 0.0187184172	 0.0211488943	 0.395148
C	-0.562177959	-0.9213757462	 1.115970818	-0.179313
C	-2.0372670618	-1.0296707194	 0.688739537	-0.075419
O	-1.9701249122	-1.0143388408	-0.7598901113	-0.2739
C	-0.5935565898	-0.8985645336	-1.0684766884	 0.126327
O	 0.0743344643	-2.1200509391	-0.8033774761	-0.27887
C	 0.1438209259	-2.2080626679	 0.6436804748	-0.075611
H	-0.1739474816	 2.0722071085	 0.8804074106	 0.122178
H	-0.2108900259	 1.9920294302	-0.9464792257	 0.119997
H	 1.6889791038	 0.5898613791	-0.8594755328	 0.236438
H	-0.3816205262	-0.6356361942	 2.1506476742	 0.088896
H	-2.5144013282	-1.9586997878	 1.0204776112	 0.106767
H	-2.6372348369	-0.1787127921	 1.0329603714	 0.104414
H	-0.4748358345	-0.6377834244	-2.1195420583	 0.091943
H	 1.1938731832	-2.238666497	 0.9544994816	 0.114885
H	-0.3609544248	-3.121940541	 0.9757187731	 0.104561
156.3434	197.9069	259.1793	290.0155	374.1886	459.9163	578.8877	595.9008	630.0882	776.5608	852.4356	889.1248	901.5271	913.1287	927.0878	948.8323	954.9177	964.9868	972.1417	978.528	1042.6122	1077.4573	1085.3562	1111.7611	1140.9632	1170.8649	1192.5737	1252.1342	1255.0985	1264.4907	1281.4614	1302.6852	1309.7513	1367.9516	1382.2041	1451.9739	1515.0313	1522.0753	1533.9232	3023.4532	3031.8761	3066.4565	3077.973	3104.9515	3137.6707	3141.6982	3188.9855	3486.9681
C1NC11C2COC1OC2	C1N[C@]21[C@H]1CO[C@@H]2OC1	
InChI=1S/C6H9NO2/c1-4-2-9-5(8-1)6(4)3-7-6/h4-5,7H,1-3H2	InChI=1S/C6H9NO2/c1-4-2-9-5(8-1)6(4)3-7-6/h4-5,7H,1-3H2/t4-,5+,6-/m1/s1
