18
gdb 30741	2.96609	1.26397	0.94432	2.1235	76.18	-0.1775	0.0492	0.2268	1249.4261	0.148742	-435.275504	-435.265956	-435.265011	-435.310124	34.996	
C	 0.3215397839	 0.8740701392	 0.6252741053	-0.322942
N	-0.3402853038	 0.4760352272	-0.6251756484	-0.392522
C	 0.3540670762	-0.4808606346	-1.3891731551	 0.169393
C	 0.6563136023	-1.8134719843	-1.2031026361	 0.273157
O	 0.3164049608	-2.5870306713	-0.1366888758	-0.465776
C	 1.3943204947	-2.271877708	-2.3284073935	 0.069195
N	 1.8408741786	-3.6274381093	-2.4023962267	-0.62625
C	 1.533530246	-1.1974122372	-3.1891331825	-0.154996
N	 0.9059709012	-0.1304332772	-2.6123987059	-0.269629
H	 0.5121062698	 0.0351317996	 1.309651585	 0.123071
H	 1.2803233823	 1.3454027527	 0.3894503389	 0.120981
H	-0.301754635	 1.6128194155	 1.1395288111	 0.10982
H	-1.2807257213	 0.1553395149	-0.4221370214	 0.231503
H	 0.6825144704	-3.4608170658	-0.3420063324	 0.289822
H	 2.8524154228	-3.6944076451	-2.4496409907	 0.239509
H	 1.4712440372	-4.1073615204	-3.2165227472	 0.239367
H	 2.0216811743	-1.1179175225	-4.1473229889	 0.109593
H	 0.8062254396	 0.7899192766	-3.0032466657	 0.256705
45.3547	116.0406	137.5301	177.6758	232.958	247.5661	294.3644	309.0716	397.6468	466.3502	536.208	540.6202	580.0248	634.3458	689.525	701.1948	729.5634	766.1313	798.3199	844.7198	1000.9296	1066.2802	1101.0095	1145.9033	1173.6591	1202.3399	1234.9585	1247.0707	1327.5637	1359.4524	1444.2916	1446.7265	1469.6266	1487.4394	1505.4649	1518.8305	1570.4012	1646.8003	1680.9314	2999.7774	3072.4345	3106.5045	3258.1919	3495.7319	3518.2774	3562.4271	3685.0046	3716.9724
CNC1=C(O)C(N)=CN1	CNc1c(O)c(N)c[nH]1	
InChI=1S/C5H9N3O/c1-7-5-4(9)3(6)2-8-5/h2,7-9H,6H2,1H3	InChI=1S/C5H9N3O/c1-7-5-4(9)3(6)2-8-5/h2,7-9H,6H2,1H3
