20
gdb 22885	2.13584	1.54851	1.08702	0.4703	83.39	-0.2353	0.0091	0.2444	1192.2657	0.17004	-403.129368	-403.120068	-403.119123	-403.163163	35.246	
C	-0.035112779	 1.6357601082	-0.0275623668	-0.393343
C	-0.0359013221	 0.0932100122	 0.0182049831	-0.121875
C	 0.6862957632	-0.5368279779	-1.1513670617	-0.086191
C	 1.7440721307	-1.2577102095	-0.7828298094	-0.079156
C	 1.9490788023	-1.2816958549	 0.7153924222	-0.112164
C	 3.2940773841	-0.6859797335	 1.1708036127	-0.38856
C	 0.735293161	-0.4909154591	 1.1948102131	 0.378945
N	 0.4595088628	-0.4292944139	 2.4345897887	-0.227417
O	-0.7185335582	 0.3074833164	 2.6734672833	-0.39448
H	 0.987652558	 2.0226242802	-0.0699824328	 0.115724
H	-0.5645307054	 1.9876619975	-0.9191598056	 0.111041
H	-0.5275785424	 2.0445443488	 0.8560897411	 0.141504
H	-1.0822576162	-0.2368681197	 0.0788315592	 0.102757
H	 0.3636475248	-0.3752320274	-2.1745015026	 0.094478
H	 2.4161941488	-1.7759968342	-1.4582463083	 0.094577
H	 1.8906273351	-2.3083104725	 1.1017196912	 0.098598
H	 3.4077650789	 0.3422613646	 0.8136112346	 0.117588
H	 3.3542004037	-0.679817181	 2.2623058029	 0.132205
H	 4.1305506029	-1.2749712447	 0.7801912235	 0.11087
H	-0.7979880529	 0.2540127704	 3.6315197317	 0.304897
65.1607	167.3896	193.9519	211.2786	226.6286	230.5256	292.9242	309.7806	369.1986	426.7817	512.4446	557.3511	614.0022	669.3175	750.4622	763.7729	789.389	896.343	912.4416	967.8616	976.6127	980.3543	1045.471	1070.7197	1087.5255	1091.7344	1115.6828	1141.4488	1212.944	1280.8835	1300.2252	1309.8824	1323.4489	1366.8699	1393.1809	1402.3863	1410.6959	1491.9706	1495.3808	1498.0155	1504.0705	1683.9018	1754.044	3010.7145	3012.1285	3035.2897	3039.8098	3103.9933	3105.6646	3121.2146	3143.052	3178.1844	3203.0737	3821.3528
CC1C=CC(C)C1=NO	C[C@H]1C=C[C@@H](C)C1=NO	
InChI=1S/C7H11NO/c1-5-3-4-6(2)7(5)8-9/h3-6,9H,1-2H3	InChI=1S/C7H11NO/c1-5-3-4-6(2)7(5)8-9/h3-6,9H,1-2H3/t5-,6+
