21
gdb 61592	4.51602	0.74976	0.72598	2.7716	79.33	-0.2613	0.0636	0.3249	1631.4843	0.18122	-424.184255	-424.174725	-424.173781	-424.219494	35.219	
O	-0.4475539278	 1.3207702839	 0.089931118	-0.432664
C	-0.0316009782	-0.0383957473	-0.0183690045	 0.101571
C	 0.8520153036	-0.2477766151	-1.2592294532	-0.249763
C	 0.1320648527	 0.0923498548	-2.5410113478	 0.101095
C	 0.4193535225	-0.5934968837	-3.805641442	-0.183571
O	-0.7503305032	-0.9147819514	-3.0515921429	-0.238157
C	 0.6394307928	-0.5473041015	 1.2496645133	 0.013726
C	 1.5330844816	 0.338291152	 2.0837036291	-0.276967
C	 0.178693537	-0.0821090379	 2.6024924649	-0.271279
H	 0.3444558775	 1.8696675505	 0.1096574376	 0.279053
H	-0.9645962245	-0.5962557962	-0.1655986254	 0.108932
H	 1.7554838327	 0.3724846898	-1.16335258	 0.092438
H	 1.1832867781	-1.2914711679	-1.3032825861	 0.104829
H	-0.2824931603	 1.0992163026	-2.5859888229	 0.100404
H	 0.2421320827	-0.08591094	-4.7530387977	 0.113276
H	 1.1848938476	-1.3686939087	-3.8336922627	 0.109057
H	 0.9439481922	-1.588425722	 1.1777637794	 0.084704
H	 2.4228853202	-0.0983134787	 2.5231218293	 0.112266
H	 1.6524320502	 1.3797377976	 1.8010139756	 0.094797
H	-0.5945367034	 0.6773026892	 2.6175461408	 0.126658
H	 0.1324240357	-0.8024461104	 3.411369387	 0.109594
57.7551	71.3336	91.9355	137.2579	235.2293	260.7025	320.4869	340.6597	373.4557	448.272	522.8703	586.1953	772.5956	790.8148	797.9292	831.7174	851.0542	891.4829	924.3852	959.236	994.5022	1021.5396	1045.2959	1061.565	1083.8731	1095.9751	1104.8331	1137.893	1153.8464	1159.0787	1168.4215	1198.3133	1212.5782	1228.6668	1282.2322	1300.0336	1319.545	1363.3496	1398.9213	1420.5183	1447.5846	1460.7436	1464.6197	1505.9429	1530.511	3005.6529	3041.8699	3070.7305	3078.2791	3120.1131	3126.7266	3137.271	3142.3794	3163.6442	3206.8649	3231.7979	3795.127
OC(CC1CO1)C1CC1	O[C@@H](C[C@H]1CO1)C1CC1	
InChI=1S/C7H12O2/c8-7(5-1-2-5)3-6-4-9-6/h5-8H,1-4H2	InChI=1S/C7H12O2/c8-7(5-1-2-5)3-6-4-9-6/h5-8H,1-4H2/t6-,7-/m0/s1
