14
gdb 129210	2.63526	1.75653	1.05399	4.1142	79.6	-0.2395	-0.0917	0.1478	1046.0636	0.103128	-432.859846	-432.8525	-432.851556	-432.892893	27.169	
N	-0.0477498686	 1.3673134609	-0.1151178351	-0.453355
C	-0.0303702644	 0.0944790757	-0.1109649981	 0.277184
N	 1.1843461615	-0.6177425545	-0.0047460495	-0.303757
N	 1.5955085053	-1.886615511	 0.0335989418	-0.193663
C	 0.8215484321	-2.9204612252	-0.0306003803	 0.006705
C	-0.6051116904	-3.0266137379	-0.1532530186	-0.080989
C	-1.5394794926	-2.0563758809	-0.236202443	-0.155593
C	-1.3898622097	-0.6018092721	-0.2267791023	 0.33955
O	-2.3731404712	 0.1020481939	-0.3133690657	-0.283779
H	 0.8893251867	 1.7697954174	-0.0351023846	 0.214057
H	 1.980822537	 0.0024086629	 0.062383479	 0.263047
H	 1.3706172176	-3.8566537602	 0.018941805	 0.124885
H	-0.9654663201	-4.052277318	-0.1818041904	 0.117869
H	-2.5820512933	-2.3454014311	-0.3254196284	 0.12784
35.5117	71.6008	327.7213	362.4791	367.3304	412.2002	452.3442	522.4379	605.8775	646.5913	670.1415	760.9155	762.0655	844.7432	884.7685	886.0076	930.6929	988.9332	1032.6934	1042.1718	1166.9161	1212.7937	1268.2351	1345.0695	1429.8469	1454.7112	1507.2844	1615.8133	1679.1849	1696.5862	1755.4665	3154.0235	3172.199	3189.5637	3441.1005	3572.0611
N=C1NN=CC=CC1=O	[NH][C]1NN=CC=CC1=O	
InChI=1S/C5H5N3O/c6-5-4(9)2-1-3-7-8-5/h1-3H,(H2,6,8,9)	InChI=1S/C5H5N3O/c6-5-4(9)2-1-3-7-8-5/h1-3H,(H2,6,8,9)
