18
gdb 37574	3.81025	1.62172	1.39093	1.7163	74.78	-0.2219	0.0619	0.2838	952.1414	0.149172	-401.824516	-401.817975	-401.817031	-401.855341	27.195	
C	-0.0415107588	 1.5621840898	-0.2100216714	-0.195626
C	 1.4211568515	 2.0645070167	 0.0010730417	-0.177871
N	 2.198329922	 0.8422110843	-0.2476904098	-0.143868
C	 3.1995789092	 0.3194211109	 0.7323694758	-0.078049
C	 2.1791753918	 0.0436511393	 1.884333874	 0.023697
O	 2.5340011583	-1.3599302868	 2.0226771534	-0.327328
C	 2.6320174128	-1.1401841256	 0.5930396857	-0.025517
C	 1.4120551441	-0.1649623668	 0.502911773	 0.363103
C	-0.0454888274	 0.0355605429	 0.1764267359	-0.377773
H	-0.7516625599	 2.1398442861	 0.3862527416	 0.104919
H	-0.3268263896	 1.6765622725	-1.2583504956	 0.116461
H	 1.6919349034	 2.8640426775	-0.6935200949	 0.102399
H	 1.5448420852	 2.4505181632	 1.02618716	 0.086908
H	 4.2412354226	 0.6366326245	 0.7849240248	 0.091985
H	 1.9339399917	 0.5949821488	 2.7920486536	 0.098126
H	 2.9416383846	-1.956282367	-0.0578261734	 0.104169
H	-0.6996982238	-0.1881535024	 1.0218108092	 0.115682
H	-0.3622046677	-0.5815069481	-0.6683226736	 0.118583
109.1192	251.7529	278.3453	330.0522	532.0731	588.6333	629.4591	698.6075	731.5932	758.0304	778.7322	822.8671	832.3854	871.0869	879.3754	912.2929	928.4553	949.6927	986.4448	1006.4785	1031.9571	1089.5659	1108.3455	1112.2409	1132.8572	1165.0569	1173.9174	1205.2454	1217.5334	1237.8989	1251.8548	1264.701	1284.443	1322.5217	1342.2972	1372.8121	1479.648	1498.4627	1517.843	2966.8751	3064.1672	3072.8259	3084.8473	3104.9102	3112.2393	3122.5861	3124.3452	3141.5523
C1CN2C3C4OC3C24C1	C1CN2[C@H]3[C@@H]4O[C@H]3[C@]24C1	
InChI=1S/C7H9NO/c1-2-7-5-4(6(7)9-5)8(7)3-1/h4-6H,1-3H2	InChI=1S/C7H9NO/c1-2-7-5-4(6(7)9-5)8(7)3-1/h4-6H,1-3H2/t4-,5-,6+,7+
