17
gdb 75236	3.05823	1.45796	1.0702	3.8445	76.35	-0.2386	-0.0525	0.1861	1122.7485	0.135072	-421.846951	-421.838617	-421.837673	-421.880181	30.751	
C	 0.0424140027	 1.4967122151	 0.0627671562	-0.490478
C	 0.0147482294	 0.0062600639	-0.0214510889	 0.215754
C	-0.039023594	-0.7853412178	-1.1054979963	-0.17488
C	-0.0395709586	-2.2631477592	-0.7959115841	-0.376702
C	-0.0218012483	-2.2857173029	 0.7246985521	 0.332665
C	-0.6156945807	-3.3180879747	 1.5884527206	-0.2308
O	 0.7937473403	-3.2321824681	 1.4165672925	-0.258152
C	 0.0499996762	-0.8408805214	 1.1962400129	 0.271538
O	 0.1102581798	-0.4745104496	 2.3477389709	-0.329628
H	 0.945393628	 1.8341976737	 0.5829248876	 0.147488
H	 0.0124968479	 1.9605807586	-0.9261893763	 0.122386
H	-0.805551738	 1.8649184328	 0.6504956413	 0.144367
H	-0.0823191248	-0.4219460775	-2.1276374012	 0.111844
H	-0.9140350609	-2.7675876185	-1.2242332875	 0.123825
H	 0.8464622533	-2.7661708278	-1.2014785646	 0.139754
H	-0.9811736494	-3.024576951	 2.5711108177	 0.135009
H	-1.0972446429	-4.1800869454	 1.1279555974	 0.11601
63.5218	105.7211	222.3494	237.8131	249.9079	267.2884	341.7048	419.9323	470.1831	537.8427	659.8774	709.9407	758.7113	846.5833	862.8397	890.259	917.564	963.2672	1003.9241	1028.9555	1049.4531	1069.645	1131.3309	1158.7686	1170.6502	1177.4965	1274.9908	1288.0972	1346.3961	1413.9872	1416.3852	1472.0936	1472.8727	1484.0226	1510.816	1691.0374	1812.1993	3032.2392	3037.6028	3063.9718	3081.3881	3092.458	3123.1162	3178.3415	3182.2006
CC1=CCC2(CO2)C1=O	CC1=CC[C@]2(CO2)C1=O	
InChI=1S/C7H8O2/c1-5-2-3-7(4-9-7)6(5)8/h2H,3-4H2,1H3	InChI=1S/C7H8O2/c1-5-2-3-7(4-9-7)6(5)8/h2H,3-4H2,1H3/t7-/m0/s1
