17
gdb 68659	5.28185	0.88494	0.86691	3.819	70.15	-0.2736	-0.0007	0.2729	1324.6066	0.134554	-458.93215	-458.923778	-458.922834	-458.966361	31.077	
O	-0.0793654606	 1.3024320402	 0.0422349465	-0.466052
C	 0.0208891124	-0.0681306285	-0.0036143496	 0.408409
C	 0.6521591261	-1.0411626464	 1.0508754939	-0.343404
C	 0.037263977	-1.9110953249	-0.0617264397	 0.435544
C	-1.2214828415	-0.9927745213	-0.0350491985	-0.321408
C	 0.6623159203	-0.9595050993	-1.1209947263	-0.354534
O	 0.0962298755	-3.3092126311	-0.0213223823	-0.241185
C	-0.5390577058	-3.9918260634	-1.0000531907	 0.151268
O	-0.5323195975	-5.1836975618	-1.052820698	-0.269458
H	 0.8077336674	 1.6777953642	 0.0577424162	 0.289599
H	 1.742460603	-1.0525102508	 1.1259605088	 0.099627
H	 0.167467161	-1.0855131903	 2.0284192352	 0.108656
H	-1.8282889997	-1.0249084831	 0.8722920505	 0.110465
H	-1.8311434257	-0.9517600161	-0.9407040419	 0.103791
H	 0.1852661353	-0.9239753464	-2.1033866169	 0.102936
H	 1.7531680783	-0.9611698485	-1.1893323985	 0.101042
H	-1.0528870156	-3.3343289927	-1.7239070188	 0.084706
22.3868	113.9564	140.455	253.5286	297.6181	334.0486	427.4568	442.4681	476.4547	557.5648	561.4182	649.817	750.0498	762.117	814.3921	947.2182	956.0788	976.8249	1044.3366	1052.5893	1072.4768	1105.4384	1114.4341	1123.3381	1134.4453	1143.0101	1162.5366	1181.6104	1214.6957	1286.2805	1320.0651	1396.9237	1430.1462	1492.844	1495.5819	1566.8394	1869.5663	2980.9359	3054.9916	3059.8092	3068.0394	3127.3394	3133.8839	3137.1433	3809.3122
OC12CC(C1)(C2)OC=O	O[C@@]12C[C@@](C1)(C2)OC=O	
InChI=1S/C6H8O3/c7-4-9-6-1-5(8,2-6)3-6/h4,8H,1-3H2	InChI=1S/C6H8O3/c7-4-9-6-1-5(8,2-6)3-6/h4,8H,1-3H2/t5-,6+
