19
gdb 110660	3.43524	1.35365	1.17403	1.9263	81.2	-0.2159	-0.0367	0.1793	1093.4555	0.159657	-385.779605	-385.771912	-385.770968	-385.811806	30.657	
O	 0.04039939	 1.4036431274	 0.3583196434	-0.42225
C	 0.0217439557	-0.0080183238	 0.2030161293	-0.082458
C	-1.3752102167	-0.5373040696	-0.063151202	-0.031713
C	-1.6934628152	-2.0826792965	-0.0931828912	-0.10832
C	-2.162449399	-2.8247118544	 1.2321489694	-0.041706
C	-1.951248386	-2.2771898049	 2.6561772926	-0.259625
C	-1.9365017452	-0.7833421162	 2.3399582734	-0.108779
C	-2.4033392247	-0.5846983975	 1.0900666752	 0.019142
C	-3.0438661425	-1.8652323068	 0.5254769702	-0.108617
H	-0.6099131385	 1.6289311872	 1.0319640395	 0.288772
H	 0.66543365	-0.2228375323	-0.6575820223	 0.106296
H	 0.4557761316	-0.5181690725	 1.07668604	 0.084268
H	-1.7611869025	-0.1074535946	-0.9960079987	 0.088992
H	-1.4839403261	-2.7075162817	-0.958749049	 0.091143
H	-2.2833704769	-3.8957329792	 1.0778891339	 0.081153
H	-2.735064192	-2.6531275242	 3.3295918599	 0.109325
H	-0.9880890845	-2.5396608199	 3.1113606641	 0.110868
H	-1.1805933405	-0.1488365774	 2.7951796435	 0.092382
H	-4.0345151869	-1.9900269431	 0.1088725087	 0.091128
82.7035	138.0022	210.0852	287.2435	354.8007	358.765	463.7597	512.2334	619.1254	656.1276	743.2655	759.8986	806.9671	811.2407	869.5783	895.642	908.075	944.254	948.8335	981.456	997.9577	1034.9813	1053.0146	1065.0477	1076.7296	1095.7406	1136.8284	1157.5901	1179.0362	1220.4368	1228.9937	1270.0876	1276.1708	1302.7971	1335.0235	1372.405	1385.741	1426.1562	1473.0965	1502.6324	1588.0913	2983.9125	2998.6702	3029.0416	3048.016	3065.2952	3126.6953	3135.3932	3155.644	3197.9651	3810.0926
OCC1C2C3CC=C1C23	OC[C@H]1[C@H]2[C@H]3C[CH][C]1[C@@H]23	
InChI=1S/C8H10O/c9-3-6-4-1-2-5-7(4)8(5)6/h1,5-9H,2-3H2	InChI=1S/C8H10O/c9-3-6-4-1-2-5-7(4)8(5)6/h1,5-9H,2-3H2/t5-,6+,7+,8+/m0/s1
