20
gdb 90833	3.10495	1.80025	1.40152	2.0865	82.	-0.2187	0.0797	0.2984	981.7745	0.173038	-365.907263	-365.900308	-365.899364	-365.938236	29.18	
C	-0.2264177886	 1.5294282732	-0.1015860326	-0.403974
C	 0.0414637125	 0.0313937138	 0.0386805641	-0.120638
C	 1.0474611133	-0.552154933	-1.0459224886	-0.247298
C	 2.1991302365	-1.1576022098	-0.1883811524	-0.082556
C	 1.500843127	-1.7810867777	 1.0256666234	-0.014048
N	 2.4177656561	-1.205347483	 2.1337957031	-0.190642
C	 1.1896350613	-0.5116455807	 2.7466355206	-0.280121
C	 0.872206118	-0.3842403473	 1.2448839638	 0.306326
C	 2.3865124789	-0.1774512116	 0.9748165458	-0.009246
H	 0.7056769075	 2.103177874	-0.0478201334	 0.113834
H	-0.7025970993	 1.7582252756	-1.060666727	 0.11538
H	-0.8872728266	 1.8909722087	 0.6933179632	 0.115979
H	-0.9086123764	-0.5132983013	-0.0002363736	 0.072434
H	 0.5711843767	-1.310568253	-1.6749167723	 0.102638
H	 1.4133930956	 0.2400129481	-1.7079304259	 0.101613
H	 3.0296032138	-1.6316170681	-0.7142736375	 0.067631
H	 1.013961619	-2.7510378382	 1.1450685983	 0.074291
H	 0.5686413437	-1.1803679843	 3.3516338361	 0.10142
H	 1.4360533192	 0.3979893274	 3.3035940963	 0.101996
H	 2.9542920516	 0.7526804773	 1.0362529683	 0.074979
145.7219	221.2781	233.2073	345.4543	428.6876	451.018	477.5772	655.2522	677.4258	767.5603	799.2907	829.5826	850.55	855.0947	880.907	897.8721	925.2827	929.9852	944.8688	988.7303	1018.0377	1045.8475	1070.9741	1092.5682	1101.0575	1111.3742	1134.994	1173.0887	1185.7022	1197.2764	1217.147	1223.6175	1252.1144	1264.9703	1294.9651	1309.1088	1343.058	1372.9361	1411.9438	1493.3258	1497.3804	1500.4174	1514.8906	3027.6986	3035.9411	3037.6214	3045.9541	3088.555	3090.6016	3092.4186	3097.7754	3098.4958	3099.6474	3108.1889
CC1CC2C3N4CC13C24	C[C@H]1C[C@@H]2[C@H]3N4C[C@]13[C@H]24	
InChI=1S/C8H11N/c1-4-2-5-6-8(4)3-9(6)7(5)8/h4-7H,2-3H2,1H3	InChI=1S/C8H11N/c1-4-2-5-6-8(4)3-9(6)7(5)8/h4-7H,2-3H2,1H3/t4-,5-,6-,7+,8+/m0/s1
