19
gdb 72799	2.70851	1.6843	1.28859	1.7576	77.9	-0.24	0.0127	0.2527	1030.2917	0.160409	-423.010063	-423.002308	-423.001364	-423.041875	31.215	
O	 0.1808083285	 1.3612933569	 0.0285156914	-0.493212
C	 0.0505421247	-0.0535081683	 0.014958776	 0.381154
C	 0.1715632712	-0.5843808878	 1.4704217013	-0.280597
C	-1.3973400246	-0.6607121183	 1.5424952215	-0.328695
C	-1.3844010412	-0.5557846513	 0.0331070929	 0.29805
C	-1.9981457673	-1.0554079782	-1.0291975613	-0.266639
C	-1.2933690958	-0.9912664424	-2.3643544668	-0.11151
O	-0.0384871393	-0.3213406541	-2.3267038365	-0.271553
C	 0.7634678068	-0.6529310224	-1.1873160142	-0.170598
H	-0.1060928596	 1.6601037472	-0.8437108422	 0.279155
H	 0.6370030048	-1.5714006398	 1.5202014378	 0.105705
H	 0.6674980359	 0.0963522232	 2.1638694012	 0.114693
H	-1.8458759877	-1.5542021808	 1.9838742989	 0.108054
H	-1.8171961552	 0.2242124919	 2.0301035768	 0.123639
H	-2.9433335659	-1.5918452452	-0.9867315789	 0.091875
H	-1.1578189565	-2.0211829089	-2.7427764669	 0.10099
H	-1.8899415445	-0.456680262	-3.1131717593	 0.120628
H	 1.7416437697	-0.1966831686	-1.3633073504	 0.110834
H	 0.8814730759	-1.7424159311	-1.0892824513	 0.088027
121.9877	207.2421	227.2642	274.3928	323.5842	389.5361	433.7177	451.8303	488.9549	545.7072	635.3685	708.2336	755.5167	805.2853	822.97	882.9844	908.0512	942.0293	962.9457	972.1892	1028.3698	1041.7048	1082.3187	1097.9689	1131.5493	1168.9982	1193.3087	1218.0863	1239.2575	1259.4875	1263.4469	1300.9152	1325.7614	1350.7476	1386.3654	1406.1755	1462.1111	1477.234	1481.7917	1489.652	1769.6243	2938.955	2994.1887	3048.2467	3054.5361	3072.9108	3092.6938	3104.7763	3138.4595	3153.4607	3778.4133
OC12CCC1=CCOC2	O[C@@]12CC[C]1[CH]COC2	
InChI=1S/C7H10O2/c8-7-3-1-6(7)2-4-9-5-7/h2,8H,1,3-5H2	InChI=1S/C7H10O2/c8-7-3-1-6(7)2-4-9-5-7/h2,8H,1,3-5H2/t7-/m1/s1
