15
gdb 75727	2.25976	1.72006	1.35228	2.616	61.36	-0.242	-0.0488	0.1932	973.9134	0.109944	-494.855191	-494.846674	-494.84573	-494.888444	30.83	
O	 0.3955458614	 1.0909587521	-0.6216738668	-0.433943
C	 0.0579960089	-0.1648061671	-0.1065510953	-0.058928
C	 0.154645047	-0.4050791897	 1.4104002152	 0.379471
O	 0.9633718173	-0.0613875023	 2.2232761695	-0.30069
C	-1.273218127	-0.9898704087	 1.4584243791	-0.082288
O	-2.1286217417	 0.1171579089	 1.8351576201	-0.279873
C	-2.4122678948	 0.4571138091	 0.4514732944	-0.13141
C	-1.4362381048	-0.6191255162	-0.0544150904	 0.325642
O	-1.8611417668	-1.558308054	-0.985473507	-0.475993
H	 0.9277247274	 1.5435219203	 0.0440464307	 0.305503
H	 0.6071905007	-0.9759480984	-0.6177158939	 0.113227
H	-1.522771851	-1.9372265238	 1.9378996514	 0.108633
H	-3.4549549816	 0.2379820791	 0.1974622359	 0.115869
H	-2.1662991765	 1.4971902224	 0.2180206852	 0.121269
H	-1.7641118886	-1.1849265318	-1.8689289681	 0.293511
72.4844	163.1575	181.0026	206.0067	223.7939	244.8964	305.5386	366.9219	473.7882	526.4403	612.9506	643.7585	674.8835	829.6822	870.5226	892.1083	988.2008	990.3748	1011.2029	1062.1739	1107.9299	1134.1576	1160.2644	1167.6815	1226.0029	1240.9812	1270.1055	1312.5221	1343.4044	1360.1095	1409.2279	1508.1175	1887.8276	2954.9988	3038.6149	3101.0069	3112.2062	3786.0869	3798.7826
OC1C(=O)C2OCC12O	O[C@H]1C(=O)[C@H]2OC[C@@]12O	
InChI=1S/C5H6O4/c6-2-3(7)5(8)1-9-4(2)5/h3-4,7-8H,1H2	InChI=1S/C5H6O4/c6-2-3(7)5(8)1-9-4(2)5/h3-4,7-8H,1H2/t3-,4+,5+/m0/s1
