18
gdb 36146	3.8426	1.07958	0.97415	4.1758	75.49	-0.2644	0.0285	0.2929	1223.2973	0.149013	-401.956297	-401.948297	-401.947353	-401.989309	30.208	
N	-0.1285921073	-1.1057978599	 0.3942998434	-0.307814
C	-0.0729929646	 0.0172068562	 0.1283763457	 0.270442
C	 0.0193832668	 1.440026494	-0.2139918618	-0.450703
C	 1.4352201602	 1.9736060841	-0.1159440846	 0.337428
C	 1.9942618729	 2.4727154009	 1.1914782604	-0.319338
C	 1.7435219347	 3.4431531339	 0.0628326669	-0.126587
C	 2.9279371755	 3.7211847058	-0.8454531533	-0.091734
O	 3.514282688	 2.4475442027	-1.1009964891	-0.252088
C	 2.4778451721	 1.4743253782	-1.1089395794	-0.139733
H	-0.3727056292	 1.5729667628	-1.2303728493	 0.152378
H	-0.6445859025	 1.9976698307	 0.4555412834	 0.15274
H	 1.3186289375	 2.5103043709	 2.0391444883	 0.118109
H	 3.0212395573	 2.2229807841	 1.4378437531	 0.133035
H	 0.9573944071	 4.1846051284	 0.149402424	 0.093833
H	 2.5874826662	 4.2007948796	-1.7776391228	 0.094985
H	 3.7032265982	 4.3499461745	-0.3962237098	 0.116164
H	 2.9272417394	 0.5124785318	-0.8437779277	 0.12805
H	 2.0216669176	 1.3799378911	-2.1097898076	 0.090835
59.9489	106.9806	220.9647	250.4917	303.9575	375.0551	390.8436	405.5941	451.3455	653.9191	689.2793	741.7387	848.7148	894.4086	905.4193	932.1868	938.5667	953.2405	973.5928	1040.1049	1050.2051	1084.0675	1098.7666	1112.8847	1123.8361	1196.9357	1218.9291	1251.0565	1263.0379	1320.4283	1336.1187	1362.312	1371.0079	1420.3939	1457.9884	1485.434	1510.9777	1522.0885	2362.333	2955.6842	2974.4434	3032.8617	3074.6043	3077.0256	3081.1292	3131.019	3177.6718	3219.592
N#CCC12CC1COC2	N#CC[C@]12C[C@H]1COC2	
InChI=1S/C7H9NO/c8-2-1-7-3-6(7)4-9-5-7/h6H,1,3-5H2	InChI=1S/C7H9NO/c8-2-1-7-3-6(7)4-9-5-7/h6H,1,3-5H2/t6-,7+/m0/s1
