21
gdb 94567	2.83872	1.3462	1.17041	1.1229	77.96	-0.2341	0.0771	0.3111	1163.966	0.182832	-424.189898	-424.181046	-424.180101	-424.223993	32.605	
C	-0.4653324635	 1.4787305549	-0.1143451337	-0.428692
C	 0.0823361594	 0.0590886944	-0.0679311827	-0.027942
C	 1.5442942554	-0.2030009671	-0.488092213	-0.078289
O	 1.7959331966	-0.9748108321	 0.708485718	-0.296557
C	 0.5262159616	-0.5844331051	 1.2781488309	 0.096042
C	 0.7137336365	 0.3070114037	 2.4894491371	 0.122136
C	 1.7169084207	-0.2138771551	 3.5468661619	-0.29108
C	 2.5462501349	 1.026131322	 3.1640139939	-0.055885
O	 1.5445445597	 1.4620600601	 2.2188781088	-0.289155
H	 0.1912285635	 2.1761261568	 0.409770442	 0.15445
H	-0.5678655186	 1.8114134156	-1.1533070337	 0.111454
H	-1.4598780164	 1.5332430145	 0.3423510329	 0.111882
H	-0.5968930362	-0.6179834114	-0.5944280053	 0.08043
H	 1.7036251978	-0.7959171086	-1.3958767464	 0.096273
H	 2.1687764303	 0.6980423653	-0.5228768372	 0.106113
H	-0.0588602595	-1.4625988177	 1.5904116929	 0.0708
H	-0.2680997177	 0.6066653133	 2.8831756135	 0.073196
H	 1.344407942	-0.2338304318	 4.5716167211	 0.107059
H	 2.1770281737	-1.170323102	 3.2981940952	 0.127617
H	 2.6995891789	 1.76560644	 3.9589580039	 0.098816
H	 3.502013771	 0.8178463302	 2.6712095598	 0.111333
68.6714	98.4493	112.5455	164.6113	229.1127	256.4417	277.1333	371.1665	472.7414	617.6111	726.6254	752.5408	801.0491	849.5989	884.5909	923.708	928.2059	946.7914	962.1688	1000.7914	1009.8543	1032.3607	1067.0754	1098.7416	1134.7906	1144.0206	1162.9475	1167.3772	1187.8643	1219.51	1251.0892	1265.3027	1275.792	1284.2228	1335.9159	1347.6917	1380.3156	1383.9554	1391.1322	1413.5466	1481.5565	1496.636	1509.5813	1517.3668	1524.8406	2987.6174	3004.8808	3018.6255	3024.2699	3032.5545	3053.1827	3070.2792	3072.9565	3088.5124	3088.5347	3136.264	3148.1666
CC1COC1C1CCO1	C[C@H]1CO[C@H]1[C@H]1CCO1	
InChI=1S/C7H12O2/c1-5-4-9-7(5)6-2-3-8-6/h5-7H,2-4H2,1H3	InChI=1S/C7H12O2/c1-5-4-9-7(5)6-2-3-8-6/h5-7H,2-4H2,1H3/t5-,6+,7+/m0/s1
