17
gdb 46552	3.92428	1.13254	1.04312	0.5965	67.98	-0.2505	-0.034	0.2165	1155.2077	0.135331	-458.957715	-458.94984	-458.948896	-458.990955	29.17	
O	 0.224449292	 0.0772761829	 0.5752222631	-0.291792
C	 0.0765428911	 1.2158076252	 0.2246771791	 0.368155
C	-1.2085888377	 2.0411571505	 0.340657054	-0.193479
O	-0.9379752605	 3.2836592345	-0.2812046411	-0.290438
C	 0.4665817056	 3.5221633362	-0.2755846546	 0.344106
C	 0.88335776	 4.6577776849	-1.2231636415	-0.129361
O	 1.5133780886	 5.3830147328	-0.1484875637	-0.268665
C	 0.9984414057	 4.4673609143	 0.8374372604	-0.120979
C	 1.1114122961	 2.1445130237	-0.4110353263	-0.409959
H	-2.0480584346	 1.5515778881	-0.1625678342	 0.142971
H	-1.4681461872	 2.1555367158	 1.4050915285	 0.128579
H	 1.5887757208	 4.4019609809	-2.0222271178	 0.105583
H	 0.0223152986	 5.1918520569	-1.6438431459	 0.115048
H	 0.1952243855	 4.9109103393	 1.4395004337	 0.107783
H	 1.7875595505	 4.0827487149	 1.4946042245	 0.103575
H	 2.0915638943	 2.0403779897	 0.0566770626	 0.14508
H	 1.2096503512	 1.8663376593	-1.4681383809	 0.143794
68.7057	78.2054	126.4712	266.3808	352.6208	412.0234	445.8771	472.7451	483.7893	622.8188	744.3914	777.8257	828.4035	858.9974	906.584	931.8281	973.0142	991.8014	1036.7633	1081.7258	1091.9169	1111.8716	1153.5279	1161.6483	1187.0088	1205.4447	1226.6865	1246.2617	1297.2881	1306.0433	1341.706	1387.9283	1445.4954	1482.1463	1498.5803	1525.4177	1865.5939	2988.1773	3009.7124	3022.3915	3040.6302	3065.5626	3070.5687	3083.3872	3127.2607
O=C1COC2(COC2)C1	O=C1COC2(COC2)C1	
InChI=1S/C6H8O3/c7-5-1-6(9-2-5)3-8-4-6/h1-4H2	InChI=1S/C6H8O3/c7-5-1-6(9-2-5)3-8-4-6/h1-4H2
