16
gdb 124931	3.30816	1.27613	0.93153	3.483	81.04	-0.2484	-0.0299	0.2186	1219.3745	0.121984	-400.728806	-400.719619	-400.718675	-400.763514	32.455	
C	 0.0835214457	 1.5101797015	-0.0092950802	-0.500903
C	-0.0599025321	 0.0307224796	-0.0587500844	 0.354039
C	-1.123160371	-0.8163703023	 0.0192279906	-0.01947
C	-2.5776931939	-0.5217138852	 0.1896845697	-0.516719
C	-0.5137774063	-2.1094387387	-0.1031896495	 0.191449
N	 0.797004435	-2.0294969317	-0.2417632474	-0.216089
O	 1.080677735	-0.67744227	-0.2134715257	-0.208792
C	-1.1776590056	-3.3621702328	-0.0857409751	 0.26059
C	-1.7903523826	-4.3970771014	-0.0645019286	-0.404112
H	 0.7243673593	 1.8141957604	 0.8248557261	 0.153114
H	 0.5377010664	 1.890773508	-0.9300205391	 0.153126
H	-0.8923138326	 1.9830534436	 0.1152084723	 0.141085
H	-3.1636446468	-0.9120625532	-0.6493061221	 0.143012
H	-2.9736316277	-0.9855880254	 1.09945915	 0.142997
H	-2.7614349062	 0.5536591792	 0.254895311	 0.126948
H	-2.3145189767	-5.3206868914	-0.0478506376	 0.199725
45.8942	88.1368	116.1926	129.9302	252.287	256.679	289.5893	361.7068	480.9366	524.049	560.0324	616.7571	639.0532	670.6722	695.4424	739.8311	746.4209	953.8534	966.9222	1019.8495	1059.135	1072.028	1129.361	1217.8486	1277.1281	1406.3343	1426.0627	1439.8829	1472.1867	1479.9017	1481.3039	1487.8801	1496.5615	1675.4974	2242.271	3036.7711	3043.1085	3089.4459	3099.2528	3118.4077	3138.3547	3501.9392
CC1=C(C)C(=NO1)C#C	Cc1c(C)c(no1)C#C	
InChI=1S/C7H7NO/c1-4-7-5(2)6(3)9-8-7/h1H,2-3H3	InChI=1S/C7H7NO/c1-4-7-5(2)6(3)9-8-7/h1H,2-3H3
