19
gdb 92069	2.93941	1.47585	1.05273	3.929	75.88	-0.2307	0.0349	0.2656	1140.2593	0.161547	-419.221857	-419.213549	-419.212605	-419.255208	31.162	
C	-0.0426088321	 1.4513922207	-0.0757709913	-0.343386
N	 0.0255654413	 0.015151807	 0.1294875802	-0.093397
C	-1.2437021801	-0.7120709259	 0.1846299978	-0.168141
C	-1.1517150013	-1.9546194384	 1.0542210896	-0.045456
N	-1.0779172034	-3.2417856605	 0.3407207337	-0.332665
C	 0.1260322699	-2.7028525825	 0.9989383067	-0.035728
C	 1.2043229456	-2.1445963176	 0.0883797717	-0.3289
C	 1.2374750808	-0.617642071	 0.014402055	 0.400573
O	 2.2868534644	-0.0177611145	-0.15168007	-0.389089
H	 0.9748594229	 1.8395362129	-0.08417559	 0.168911
H	-0.526436589	 1.6977815971	-1.0305927973	 0.120132
H	-0.6142891994	 1.9251076203	 0.7308264804	 0.117268
H	-1.9917918391	-0.0235148058	 0.589662316	 0.111142
H	-1.5797914342	-1.0001343027	-0.8212466072	 0.123628
H	-1.6918361921	-1.9219541849	 1.9958313778	 0.094387
H	-1.4877007542	-3.976898699	 0.9113350705	 0.233929
H	 0.4670719399	-3.1910948542	 1.9075335018	 0.095989
H	 2.2039068106	-2.4593586228	 0.3921177829	 0.130447
H	 1.0390692696	-2.5213758682	-0.9281601383	 0.140356
58.0504	116.2228	145.3947	206.8943	298.5594	359.1374	417.4785	438.2584	459.2315	534.145	600.512	719.8806	766.9969	823.4107	844.7128	912.2059	934.123	949.2559	1003.1941	1030.4562	1040.5049	1115.6898	1133.2067	1154.9128	1181.0338	1202.349	1236.8966	1253.5512	1264.5054	1291.2546	1320.8008	1329.0719	1397.1182	1426.2229	1449.7707	1455.1775	1464.088	1497.3335	1500.9453	1533.1803	1763.7984	3005.1512	3011.1771	3046.6722	3061.9841	3070.2706	3121.3074	3142.7988	3152.7921	3165.1547	3503.8958
CN1CC2NC2CC1=O	CN1C[C@H]2N[C@H]2CC1=O	
InChI=1S/C6H10N2O/c1-8-3-5-4(7-5)2-6(8)9/h4-5,7H,2-3H2,1H3	InChI=1S/C6H10N2O/c1-8-3-5-4(7-5)2-6(8)9/h4-5,7H,2-3H2,1H3/t4-,5+/m0/s1
