23
gdb 122193	3.59029	0.76734	0.72952	2.1938	82.57	-0.2447	0.0724	0.317	1696.0315	0.203383	-425.403758	-425.393267	-425.392323	-425.440189	37.628	
C	 0.0952685705	 1.5013828683	-0.108010991	-0.383835
C	-0.0258799903	-0.0184503406	 0.0243814266	-0.179269
C	-1.4747642836	-0.4852433995	 0.0813813533	-0.061544
O	-1.480358313	-1.8953856818	 0.2284156084	-0.293622
C	-2.7257732511	-2.5325537918	 0.0601790685	 0.366743
C	-3.7658740712	-2.1217905058	 1.0971564553	-0.456402
C	-3.2632760318	-2.6202172576	-1.397398439	-0.117045
O	-3.2708688468	-4.0605060161	-1.3375966381	-0.27491
C	-2.5432174571	-4.0563305769	-0.0919202715	-0.116372
H	 1.1439893227	 1.8094807439	-0.145275663	 0.118923
H	-0.3889463032	 1.8636593805	-1.0217610523	 0.116295
H	-0.3713139469	 2.0154282001	 0.7396446011	 0.116544
H	 0.4673402194	-0.516256433	-0.8181450683	 0.106543
H	 0.4835982515	-0.3634865091	 0.9314530162	 0.108248
H	-1.9935090862	 0.0007972639	 0.9222095534	 0.0909
H	-2.0043661839	-0.1913339621	-0.8401820476	 0.086817
H	-4.0599614371	-1.0734991551	 0.9867527563	 0.119941
H	-4.666453275	-2.7325413267	 0.9846062165	 0.12966
H	-3.3712543322	-2.2662773849	 2.1080436748	 0.124099
H	-4.2608084488	-2.2120969446	-1.5971454961	 0.098132
H	-2.5514985187	-2.2419116096	-2.1431098587	 0.095786
H	-1.4912806822	-4.3387631057	-0.2208177469	 0.10558
H	-3.0126445852	-4.6956720059	 0.6641328819	 0.098786
53.9806	64.5237	88.0183	129.6597	150.4836	228.9115	257.6211	277.8413	318.0541	350.025	382.8969	447.2119	492.5298	691.8424	766.2127	833.1132	899.2349	902.7048	910.2511	925.1364	941.9145	984.3178	1009.0746	1030.9736	1049.7619	1100.1564	1139.5704	1154.9399	1167.0122	1186.8569	1198.6886	1242.3829	1265.1961	1274.471	1301.8821	1318.5753	1335.4309	1377.2974	1405.3962	1413.8253	1430.8816	1488.0339	1491.9699	1496.1923	1500.4632	1502.1939	1507.2172	1525.4528	1526.841	2962.3628	2996.3531	3005.745	3022.3329	3031.7242	3037.8374	3040.0004	3062.0318	3072.577	3073.6395	3099.9754	3108.7882	3109.2174	3115.2272
CCCOC1(C)COC1	CCCOC1(C)COC1	
InChI=1S/C7H14O2/c1-3-4-9-7(2)5-8-6-7/h3-6H2,1-2H3	InChI=1S/C7H14O2/c1-3-4-9-7(2)5-8-6-7/h3-6H2,1-2H3
