23
gdb 68478	2.58933	1.63983	1.25602	1.1637	84.83	-0.2459	0.0816	0.3275	1109.4501	0.208305	-388.291189	-388.283122	-388.282178	-388.322978	33.541	
C	-0.0872641668	 1.5604900396	-0.0221820735	-0.468878
C	 0.0465043468	 0.041981946	 0.0029525953	 0.31463
C	 1.1254952372	-0.6129968856	-0.9119661709	-0.253892
C	 1.4800014428	-1.5800286727	 0.2567409617	 0.002037
C	 0.8060683058	-0.5660833723	 1.2234880234	-0.272256
C	 0.7729313446	-2.9385609988	 0.175065417	-0.213622
C	-0.7600445641	-2.8740602531	 0.2417115812	-0.072476
O	-1.3278634779	-1.9468758431	-0.667475006	-0.244536
C	-1.3360883993	-0.6006072215	-0.2288091966	-0.123407
H	 0.8745333904	 2.0410212643	 0.1839833808	 0.110909
H	-0.4370292434	 1.9147392566	-0.9989123306	 0.114617
H	-0.8012421511	 1.9120346513	 0.7331288208	 0.11282
H	 0.7784597765	-1.0621337378	-1.845368831	 0.102653
H	 1.9434518696	 0.0814771282	-1.125683781	 0.08616
H	 2.5499087198	-1.7426517244	 0.414231577	 0.061355
H	 1.531443944	 0.1479670358	 1.6246694758	 0.090147
H	 0.2139891679	-0.956239873	 2.0576489054	 0.087946
H	 1.0694487429	-3.4346736403	-0.7577771911	 0.100998
H	 1.1123704455	-3.5840696079	 0.99640019	 0.091368
H	-1.1776961058	-3.8522326576	-0.0201110155	 0.101328
H	-1.0932201914	-2.6451221934	 1.2663555167	 0.087486
H	-1.9391487781	-0.5047261587	 0.6914984431	 0.083808
H	-1.8563039259	-0.0548997518	-1.023771102	 0.100802
190.178	209.0407	239.981	265.5307	324.016	345.1265	381.1575	396.0336	408.8717	514.3248	570.9102	648.5404	775.4066	820.9236	839.0875	859.6263	883.1739	909.3042	918.9104	946.9681	992.6664	998.0811	1009.9282	1070.874	1077.0445	1111.9619	1128.9052	1166.8327	1177.3075	1208.6919	1210.4453	1248.5773	1277.9611	1292.6573	1298.3235	1303.0993	1328.042	1356.9808	1385.0811	1404.6759	1413.0171	1423.2184	1467.0762	1478.0246	1483.7366	1492.1148	1496.7463	1499.2166	1511.3806	2949.0879	2978.4963	3013.7055	3018.0417	3041.6601	3048.8432	3052.8977	3061.3235	3063.6957	3067.5313	3080.5987	3090.6626	3096.714	3112.1118
CC12CC(C1)CCOC2	C[C@@]12C[C@@H](C1)CCOC2	
InChI=1S/C8H14O/c1-8-4-7(5-8)2-3-9-6-8/h7H,2-6H2,1H3	InChI=1S/C8H14O/c1-8-4-7(5-8)2-3-9-6-8/h7H,2-6H2,1H3/t7-,8+
