18
gdb 46185	3.16523	1.59842	1.22271	2.4533	77.37	-0.2596	0.0197	0.2793	1027.9209	0.149631	-401.893369	-401.886268	-401.885323	-401.924891	28.399	
N	 0.0372599622	 1.2196342661	-0.2702481093	-0.55888
C	 0.0264331623	-0.0072269367	-0.0040053367	 0.351281
O	 1.043867715	-0.8325831789	 0.4352390566	-0.260416
C	 0.1618029751	-1.9985013561	 0.4669257668	-0.191794
C	-1.0006921435	-1.1156383872	-0.0217255727	 0.279988
C	-2.4236132639	-1.0482954501	 0.5961219779	-0.106161
C	-2.8513272221	-0.2606714585	-0.6789006597	-0.231998
C	-1.970138197	-1.4399898114	-1.1904569451	-0.106167
C	-2.7356099412	-2.3565032852	-0.1900333837	-0.233028
H	 0.9637989906	 1.6242974866	-0.1237609408	 0.226901
H	 0.5145336133	-2.7718731508	-0.2209477707	 0.120718
H	 0.0823752228	-2.3986644151	 1.4814467307	 0.120718
H	-2.6642099704	-0.8190726312	 1.6347491601	 0.081733
H	-3.9121951597	-0.3157091532	-0.9361076165	 0.090742
H	-2.443922446	 0.7430876135	-0.7955589679	 0.143411
H	-1.6860012698	-1.6640170326	-2.2191718523	 0.081732
H	-2.2322173467	-3.2703520928	 0.1380936725	 0.093801
H	-3.788461631	-2.5428473764	-0.4164174691	 0.097421
122.1754	167.0448	196.5524	309.5031	364.3568	459.3888	574.0098	617.0982	647.7339	781.6264	783.3	811.4146	858.306	877.7597	900.8882	907.7079	964.6749	983.2962	1012.2003	1021.806	1027.3616	1051.3601	1096.0574	1114.2662	1123.286	1126.3051	1157.3008	1192.4724	1201.6036	1211.9067	1242.8686	1243.6149	1253.5921	1295.8802	1376.0842	1499.9006	1512.9992	1536.517	1812.9853	3049.3585	3053.4699	3066.3897	3107.6762	3109.4021	3112.217	3115.9029	3156.0263	3472.8635
N=C1OCC11C2CC1C2	[NH][C]1OC[C@]21[C@H]1C[C@@H]2C1	
InChI=1S/C7H9NO/c8-6-7(3-9-6)4-1-5(7)2-4/h4-5,8H,1-3H2	InChI=1S/C7H9NO/c8-6-7(3-9-6)4-1-5(7)2-4/h4-5,8H,1-3H2/t4-,5+,7-
