17
gdb 52174	3.70374	0.86341	0.74068	2.3194	72.16	-0.2595	0.0129	0.2724	1477.9593	0.135614	-455.158473	-455.149562	-455.148618	-455.19378	31.422	
N	-0.523877427	 1.0153157082	 0.6107280657	-0.438121
C	-0.3953553044	-0.2332033683	 0.4885430918	 0.12152
O	-0.8462185256	-0.8505309117	-0.6248174115	-0.183243
C	-0.9009366272	-2.2736885396	-0.6109121695	-0.099518
C	-2.3140871581	-2.7477289051	-0.3097894253	 0.05377
C	-2.4813995001	-4.2586159491	 0.0279868302	-0.414236
C	-3.0163481181	-3.7726377146	 1.3999431685	 0.434501
O	-3.4798574744	-4.2858086671	 2.3792837094	-0.34682
N	-2.7716018725	-2.4589298911	 1.0563853513	-0.331032
H	-0.1001343807	 1.3244170698	 1.4830165971	 0.232546
H	 0.0771649653	-0.9188429623	 1.2052144047	 0.093544
H	-0.5917843831	-2.6126027424	-1.6047527911	 0.126706
H	-0.2013668929	-2.6797632863	 0.1319728981	 0.109269
H	-3.0007738161	-2.3829845955	-1.0807797285	 0.104609
H	-3.2182149386	-4.79586155	-0.5702720505	 0.142
H	-1.5566129647	-4.8377518913	 0.0786083617	 0.132452
H	-3.0998328518	-1.5989917136	 1.4724289679	 0.262054
39.3527	65.115	94.3597	131.4522	203.8545	345.8939	376.7299	420.8211	451.7723	512.2322	566.5527	651.101	729.8092	820.078	828.215	916.6347	937.2279	975.7807	1013.256	1041.1586	1061.5429	1077.0716	1131.975	1155.6754	1184.1783	1203.7416	1247.217	1272.6268	1329.4899	1367.5589	1388.2672	1405.6296	1429.023	1460.6274	1492.6315	1743.6844	1903.5372	3017.0081	3027.9076	3056.9259	3085.4566	3090.8228	3147.014	3520.3455	3606.2415
N=COCC1CC(=O)N1	[NH][CH]OC[C@H]1CC(=O)N1	
InChI=1S/C5H8N2O2/c6-3-9-2-4-1-5(8)7-4/h3-4,6H,1-2H2,(H,7,8)	InChI=1S/C5H8N2O2/c6-3-9-2-4-1-5(8)7-4/h3-4,6H,1-2H2,(H,7,8)/t4-/m1/s1
