17
gdb 44355	3.53163	1.61765	1.35266	1.9191	71.85	-0.2489	0.0219	0.2709	952.6536	0.139151	-417.975138	-417.968519	-417.967575	-418.006275	26.962	
N	-0.0515230312	 1.1321118748	-0.8953011289	-0.515364
C	 0.0107421808	 0.1438833958	-0.1073505631	 0.392971
C	-1.256144689	-0.5581983877	 0.3500583572	-0.331968
C	-1.0747947635	-2.0307040158	 0.6885444129	-0.024292
C	 0.2811305232	-2.6091632333	 0.7349268615	-0.074004
C	 1.2066933282	-1.4842221094	 1.1858650509	 0.080067
C	 0.3770030336	-1.4467797902	 2.494746982	-0.194324
N	-0.5606417167	-2.5083763897	 1.9961474731	-0.148585
O	 1.2079553862	-0.3208190642	 0.3601361146	-0.252392
H	 0.8874971773	 1.4860913416	-1.0897540518	 0.21957
H	-1.6755926799	-0.0160417512	 1.2064703415	 0.141812
H	-1.980888314	-0.4454107311	-0.4573760328	 0.147632
H	-1.8630133154	-2.6865255482	 0.3331116735	 0.112628
H	 0.5694803233	-3.5533995263	 0.2879530757	 0.102273
H	 2.2558347516	-1.7431006378	 1.3185709071	 0.105821
H	 0.9312879845	-1.8304411793	 3.3533472298	 0.12303
H	-0.090135379	-0.4959512581	 2.7670344267	 0.115124
73.8654	254.1658	364.9573	396.3341	429.3926	471.3105	542.994	588.3556	724.7835	738.0144	757.134	793.8051	867.5787	882.7412	909.4339	938.4465	963.7077	966.3624	1018.1294	1038.4272	1064.2867	1080.5263	1093.4417	1147.1043	1180.6819	1218.7751	1227.4045	1253.2837	1291.4325	1300.9813	1325.7972	1345.2398	1409.4063	1419.814	1464.0003	1501.4378	1749.876	3038.7717	3063.0691	3118.0954	3121.942	3132.9176	3164.5032	3184.1514	3463.5647
N=C1CC2C3C(CN23)O1	[NH][C]1C[C@H]2[C@H]3[C@H](CN23)O1	
InChI=1S/C6H8N2O/c7-5-1-3-6-4(9-5)2-8(3)6/h3-4,6-7H,1-2H2	InChI=1S/C6H8N2O/c7-5-1-3-6-4(9-5)2-8(3)6/h3-4,6-7H,1-2H2/t3-,4-,6-,8?/m0/s1
