18
gdb 73889	2.19139	1.66798	1.02499	3.7689	81.67	-0.2373	-0.0524	0.1849	1163.7292	0.147832	-401.953097	-401.944845	-401.9439	-401.985954	31.111	
C	 0.0830899657	 1.4909866926	 0.1089548284	-0.496573
C	 0.0160604147	 0.0033662935	-0.012282325	 0.206122
C	-0.0025929019	-0.7589433896	-1.1301419714	 0.195607
C	-0.0350464356	-0.3003802385	-2.5158270942	 0.057089
O	-0.084285438	-1.0476866567	-3.4716977785	-0.279788
C	 0.0196869748	-2.2115663423	-0.781020316	-0.152101
N	 1.2558983644	-2.5871265925	-0.0382750573	-0.336212
C	 0.0149324525	-2.2862232523	 0.7032469971	-0.05126
C	-0.0241333518	-0.8606294752	 1.2376548448	-0.296144
H	 0.9998812135	 1.7874960664	 0.6337602183	 0.144055
H	 0.0649296539	 2.0026796649	-0.8543866322	 0.138353
H	-0.7532967054	 1.8643499872	 0.7133369107	 0.135891
H	-0.0268759298	 0.8007515668	-2.6628664787	 0.062335
H	-0.4486002752	-2.9389618239	-1.4319795669	 0.107549
H	 1.3648410449	-3.5988913369	-0.0864185515	 0.231383
H	-0.4855740483	-3.0824361168	 1.2427907966	 0.092288
H	 0.8208933292	-0.6443614518	 1.902852619	 0.127623
H	-0.9397814676	-0.660636495	 1.8114433869	 0.113783
111.8448	144.447	173.9994	191.8195	235.1979	306.8719	373.5791	432.4979	514.7282	572.5263	616.3942	701.5426	788.5477	822.7788	853.8262	871.3452	925.4282	948.4627	970.055	1022.4202	1047.5179	1068.6783	1095.	1131.8052	1170.7593	1190.0916	1200.1411	1246.0593	1267.9958	1341.438	1383.6775	1407.0852	1423.2705	1431.8906	1453.3583	1476.8976	1480.2469	1675.6488	1769.1435	2896.1562	3015.3871	3025.0153	3056.9516	3069.5355	3135.1548	3172.351	3199.9784	3481.0176
CC1=C(C=O)C2NC2C1	CC1=C(C=O)[C@H]2N[C@H]2C1	
InChI=1S/C7H9NO/c1-4-2-6-7(8-6)5(4)3-9/h3,6-8H,2H2,1H3	InChI=1S/C7H9NO/c1-4-2-6-7(8-6)5(4)3-9/h3,6-8H,2H2,1H3/t6-,7+/m0/s1
