14
gdb 33592	4.12465	1.52676	1.38109	0.5827	71.5	-0.2456	0.0123	0.2579	915.8048	0.101029	-399.410135	-399.403826	-399.402881	-399.440733	25.708	
C	-0.0014699478	-1.1060608142	-0.0483405812	-0.333062
C	-0.011170891	 0.0949074067	 0.0217755158	 0.013099
C	 0.0308048403	 1.5084603276	 0.1031431686	 0.322839
C	-0.928395967	 2.4011243992	 0.829504422	-0.119333
C	-0.0053504091	 3.6296986533	 1.0390589917	 0.057336
O	 1.3199810341	 3.1409447282	 1.3408240436	-0.284391
C	 1.2534623883	 2.4790384415	 0.064024484	-0.016013
C	 0.222953545	 3.493248826	-0.4901192381	-0.040894
N	-0.8872322119	 2.4472273456	-0.6653358446	-0.214201
H	-0.0037595072	-2.1661439293	-0.1114059603	 0.185953
H	-1.7909639673	 2.0460773188	 1.3779586822	 0.117961
H	-0.3182096758	 4.4974762404	 1.6145747494	 0.101867
H	 2.2081044016	 2.1651827044	-0.3500018112	 0.105265
H	 0.381375258	 4.2784431318	-1.2241101119	 0.103573
145.1087	157.2534	421.1508	474.0901	516.7242	574.421	601.5884	635.7506	672.8277	758.4583	774.0392	817.0542	826.9211	851.3035	864.341	879.8192	927.2312	943.2365	976.2442	998.1859	1070.3464	1120.0231	1130.9958	1172.5176	1195.2775	1214.8297	1237.7333	1262.7742	1311.6128	1383.1739	2238.4246	3152.6327	3159.8065	3169.6268	3209.807	3501.4006
C#CC12C3C4OC1C4N23	C#C[C@@]12[C@H]3[C@H]4O[C@@H]1[C@H]4N23	
InChI=1S/C7H5NO/c1-2-7-5-4-3(8(5)7)6(7)9-4/h1,3-6H	InChI=1S/C7H5NO/c1-2-7-5-4-3(8(5)7)6(7)9-4/h1,3-6H/t3-,4-,5+,6+,7+,8?/m0/s1
