20
gdb 11350	3.7966	1.29874	1.02044	1.5067	78.1	-0.2233	0.0354	0.2587	1189.4864	0.177019	-349.019576	-349.010845	-349.009901	-349.052911	32.173	
C	-0.0821817749	 1.5873271817	-0.0518796472	-0.394128
C	 0.0192729841	 0.0596365554	 0.0182161593	-0.001113
C	 0.7910660056	-0.5732701406	-1.1714314817	-0.215685
C	 1.553724854	-1.7833551276	-0.5810124767	-0.309237
C	 1.6178022422	-1.4553892337	 0.8967067724	 0.305849
C	 2.495373937	-2.2314829446	 1.8225731873	-0.177263
O	 2.3299058315	-1.7707483935	 3.1517099688	-0.414133
C	 0.7840212939	-0.4653228306	 1.2142592362	-0.154913
H	 0.914024182	 2.0434841619	-0.0628811186	 0.112623
H	-0.6099509961	 1.9065417948	-0.9573319282	 0.1086
H	-0.6254407866	 1.9903707277	 0.8095457272	 0.110674
H	-1.0069899469	-0.3405580803	 0.0484121552	 0.072631
H	 0.1386550064	-0.8447847503	-2.0059416436	 0.091814
H	 1.5131659434	 0.158860649	-1.5510210835	 0.098045
H	 1.0114358883	-2.7269396342	-0.7419984327	 0.100608
H	 2.5432141807	-1.9210815985	-1.034769685	 0.094855
H	 2.2508870931	-3.3062047963	 1.7361783643	 0.091308
H	 3.5454646934	-2.1331806947	 1.4917152568	 0.091882
H	 2.9191347206	-2.2764735349	 3.7180834432	 0.288088
H	 0.6339731782	-0.0922198507	 2.2202907767	 0.099496
82.8881	111.1085	159.5612	179.9701	233.9075	250.6596	323.4825	396.3499	425.1196	493.3172	599.6411	644.4157	815.6465	845.4051	870.0775	921.2861	931.6418	965.1598	995.2297	1026.2033	1040.1982	1081.9413	1112.6739	1127.2735	1168.3815	1202.8441	1215.5541	1239.6428	1255.7894	1282.2777	1312.0785	1320.7897	1342.1109	1370.5499	1406.9479	1466.519	1484.7795	1496.6802	1498.8149	1501.3555	1507.8183	1727.1769	2931.8756	2942.2439	2966.8651	2997.697	3024.4598	3031.2789	3045.9545	3090.3998	3094.1865	3096.9515	3208.489	3838.712
CC1CCC(CO)=C1	C[C@H]1CCC(=C1)CO	
InChI=1S/C7H12O/c1-6-2-3-7(4-6)5-8/h4,6,8H,2-3,5H2,1H3	InChI=1S/C7H12O/c1-6-2-3-7(4-6)5-8/h4,6,8H,2-3,5H2,1H3/t6-/m0/s1
