22
gdb 82292	2.39364	1.61572	1.31695	2.8802	80.42	-0.2414	0.0659	0.3072	1091.4666	0.19513	-404.339922	-404.331228	-404.330284	-404.372583	35.302	
C	 0.0775832506	 1.5512650894	-0.0227757477	-0.429126
C	 0.0337621168	 0.0232642448	-0.0067274089	 0.270186
C	-1.4236680465	-0.4709843542	-0.0361004647	-0.424331
C	 0.8042946865	-0.6174522709	-1.2028627478	-0.259515
C	 1.2919048417	-1.9640705609	-0.6816790367	-0.025838
N	 2.5158914453	-1.8570269235	 0.143458996	-0.35241
C	 1.1964197229	-1.9710719964	 0.8007499305	-0.082193
C	 0.7217426417	-0.5854280004	 1.2688307038	 0.110995
O	 1.7976606187	 0.1821352706	 1.7667790573	-0.444127
H	 1.104724389	 1.9115707429	 0.0618776459	 0.122029
H	-0.3581115064	 1.9427345874	-0.9490256805	 0.100568
H	-0.4892884214	 1.9705333676	 0.8157677653	 0.109342
H	-1.9324859278	-0.1308806814	-0.9444994366	 0.110618
H	-1.47862261	-1.565562627	-0.0154294453	 0.109681
H	-1.985102416	-0.0923248916	 0.8250222216	 0.112623
H	 0.1567035718	-0.7312231803	-2.0778231694	 0.094214
H	 1.6574396346	-0.0014587993	-1.5049245466	 0.106166
H	 1.1530298923	-2.8669695305	-1.2674827883	 0.088804
H	 2.9998811004	-2.7499032158	 0.1801027707	 0.236361
H	 0.9742542154	-2.862638322	 1.3765727611	 0.088648
H	-0.0069087476	-0.6676881703	 2.0823545426	 0.07018
H	 2.5738075879	-0.1304828784	 1.2752670578	 0.287126
82.7045	216.0376	234.248	257.6189	285.0074	315.6316	331.3479	355.5178	440.1788	495.8108	524.1647	564.0408	655.8111	688.9962	763.6512	803.7003	860.617	874.8999	921.1521	927.0403	941.9711	950.521	972.362	982.5095	1026.4905	1055.1714	1110.5071	1124.744	1143.2595	1180.9387	1199.703	1220.2048	1246.0617	1270.7454	1289.9242	1324.0945	1342.9401	1358.8995	1396.8333	1407.1211	1423.3614	1460.7647	1478.5298	1483.6697	1491.7924	1503.5929	1507.8306	3021.3485	3030.2567	3044.8188	3051.1264	3085.9759	3089.2003	3089.6392	3096.2206	3127.9678	3158.6648	3173.3245	3510.1189	3680.9184
CC1(C)CC2NC2C1O	CC1(C)C[C@H]2N[C@H]2[C@H]1O	
InChI=1S/C7H13NO/c1-7(2)3-4-5(8-4)6(7)9/h4-6,8-9H,3H2,1-2H3	InChI=1S/C7H13NO/c1-7(2)3-4-5(8-4)6(7)9/h4-6,8-9H,3H2,1-2H3/t4-,5-,6-/m1/s1
