18
gdb 67940	2.42945	1.82605	1.305	2.927	77.91	-0.2504	0.0066	0.257	1019.8808	0.148482	-401.971391	-401.963708	-401.962764	-402.003317	30.394	
C	-0.1686621132	 1.5242473483	 0.1124632342	-0.462464
C	 0.0157788027	 0.0243817922	 0.0801695679	 0.423496
C	-1.2427689436	-0.8133120204	-0.2089943208	-0.317682
C	-1.1058085919	-1.999675266	 0.7152982181	-0.06343
C	-0.0335721135	-1.9252784409	 1.5047493462	-0.077911
C	 0.7795868847	-0.6865260677	 1.2387607756	-0.249327
C	 1.8655145514	-0.8787749074	 0.1927755822	 0.432283
N	 3.0274514784	-1.3495245483	 0.2021927178	-0.553994
O	 1.1200546101	-0.3439223184	-0.8362046374	-0.295308
H	 0.774983293	 2.0300149846	 0.3352385045	 0.129986
H	-0.5323588274	 1.8877122653	-0.8542133085	 0.132294
H	-0.9012001102	 1.8004239132	 0.8776758632	 0.126168
H	-2.1634608861	-0.2466611806	-0.018542273	 0.108951
H	-1.2626208501	-1.1004985407	-1.2672897509	 0.128072
H	-1.8179234589	-2.8174983559	 0.7150724338	 0.101947
H	 0.2691649918	-2.6681721857	 2.2324787144	 0.111322
H	 1.0683765679	-0.1130326409	 2.1219850627	 0.100381
H	 3.4484742948	-1.3139800306	-0.72815024	 0.225214
108.0747	170.6332	224.305	281.3881	317.8681	357.1576	423.5227	470.9159	596.988	634.8729	665.2324	739.4599	791.1615	826.791	857.8858	869.0979	934.4158	947.8733	962.145	975.6481	981.0091	1019.5296	1031.6631	1090.8907	1115.9629	1167.488	1196.3619	1221.3627	1231.0896	1277.4352	1298.2769	1353.8592	1366.5103	1413.0306	1466.7086	1484.3617	1491.0981	1677.8027	1817.6733	3022.5727	3037.6214	3059.8455	3094.2617	3107.6497	3117.5151	3190.6587	3218.1918	3470.2195
CC12CC=CC1C(=N)O2	C[C@]12CC=C[C@H]1[C]([NH])O2	
InChI=1S/C7H9NO/c1-7-4-2-3-5(7)6(8)9-7/h2-3,5,8H,4H2,1H3	InChI=1S/C7H9NO/c1-7-4-2-3-5(7)6(8)9-7/h2-3,5,8H,4H2,1H3/t5-,7-/m0/s1
