16
gdb 14055	4.83678	1.58659	1.49047	1.3935	60.01	-0.2531	0.062	0.3151	871.1309	0.131336	-420.84623	-420.83927	-420.838325	-420.878122	25.241	
C	 0.0515165031	 1.5318485795	-0.1380659182	-0.121245
O	 1.3141284017	 1.5658762234	 0.5591490242	-0.27173
C	 1.4478380821	 0.1327056685	 0.4854027358	-0.128364
C	 0.0027344311	-0.0094837481	-0.0371217109	 0.334487
C	-1.0364999515	-0.6572744456	 0.8902705891	-0.171887
O	-2.0021382592	-1.1752639892	-0.0107036053	-0.231461
C	-1.2448626982	-1.6137708151	-1.1060683905	 0.012844
O	-0.1758622743	-0.6936480557	-1.2635396684	-0.291326
H	-0.7282981558	 2.0993127462	 0.3833016931	 0.10418
H	 0.1365674218	 1.8820835871	-1.1742470399	 0.110314
H	 2.2012830554	-0.1840074759	-0.2466542169	 0.111444
H	 1.672017223	-0.3142554502	 1.4623351116	 0.101182
H	-0.5729073019	-1.4648810068	 1.4801227912	 0.099184
H	-1.526892242	 0.0435783871	 1.5677878397	 0.13011
H	-0.8394093035	-2.6261140854	-0.929123795	 0.088863
H	-1.8731477818	-1.6090673298	-2.0014943996	 0.123406
64.2947	94.7876	232.1743	290.458	373.7396	413.0504	469.1372	734.1237	775.3736	838.4927	906.6224	928.1277	963.1757	983.471	993.4144	1030.3593	1037.702	1113.8138	1147.3819	1149.0173	1153.3334	1169.0672	1188.3545	1219.1624	1263.8264	1277.8595	1298.7474	1363.7605	1380.1232	1433.875	1499.4655	1508.4376	1528.0909	1546.5293	2942.9683	2974.019	3007.6722	3021.1073	3061.0299	3069.7118	3085.6687	3118.3416
C1OCC11COCO1	C1OCC21COCO2	
InChI=1S/C5H8O3/c1-5(2-6-1)3-7-4-8-5/h1-4H2	InChI=1S/C5H8O3/c1-5(2-6-1)3-7-4-8-5/h1-4H2
