18
gdb 106116	2.63617	1.4842	1.20741	1.5583	71.81	-0.2213	0.0699	0.2912	1090.0883	0.147313	-438.991613	-438.983399	-438.982455	-439.02441	31.561	
C	 0.1174902523	 1.4758995946	-0.2576569558	-0.328953
N	-0.028799526	 0.0478193594	 0.0106783417	-0.415915
C	 0.5737954406	-0.4138114768	 1.1812556264	 0.330132
C	 1.9861048933	-0.7355758352	 1.5410065989	 0.036247
O	 2.0027419227	-0.0381204939	 2.7862770912	-0.285663
C	 0.5574578739	-0.1138476601	 2.7707995495	-0.057062
C	 0.2634729602	-1.6265704067	 2.9830139417	 0.117855
O	-1.1142759192	-1.938746642	 2.9065452639	-0.437954
C	 0.9065435454	-1.8344306091	 1.6243664171	-0.186986
H	 1.1809166692	 1.7169877569	-0.3486022726	 0.133656
H	-0.3681919425	 1.7167470851	-1.2073618949	 0.119527
H	-0.3094993488	 2.1234715873	 0.5249449303	 0.10532
H	-0.9971540264	-0.2470512259	-0.045540234	 0.231246
H	 2.8956066148	-0.8150410751	 0.9606412237	 0.11119
H	 0.0595706483	 0.6668625124	 3.3451480428	 0.077648
H	 0.7425959999	-2.0858766795	 3.8587984361	 0.068248
H	-1.5190156435	-1.6784283539	 3.7407344348	 0.284175
H	 0.9339821658	-2.7318186575	 1.0201025993	 0.097289
87.9703	140.0082	170.9791	211.3251	311.9853	332.5737	384.2804	430.5725	506.1434	577.3519	591.8332	719.0988	781.553	811.3544	834.8416	880.3422	920.8011	958.9811	979.2844	998.9329	1032.0147	1048.4737	1063.1564	1094.3681	1106.148	1144.2765	1157.0301	1189.8583	1206.7252	1212.9042	1257.8083	1297.0486	1307.9547	1424.5007	1444.5786	1471.8578	1487.9757	1504.5978	1520.836	2975.4978	3009.1192	3072.7241	3115.3583	3127.7145	3205.8698	3215.604	3531.8126	3806.9499
CNC12C3OC1C(O)C23	CN[C@@]12[C@H]3O[C@@H]1[C@@H](O)[C@@H]23	
InChI=1S/C6H9NO2/c1-7-6-2-3(8)5(6)9-4(2)6/h2-5,7-8H,1H3	InChI=1S/C6H9NO2/c1-7-6-2-3(8)5(6)9-4(2)6/h2-5,7-8H,1H3/t2-,3+,4+,5-,6+/m1/s1
