17
gdb 55078	3.10107	1.05622	0.84192	5.5369	70.58	-0.2401	-0.0174	0.2227	1327.4	0.134757	-455.162649	-455.153418	-455.152474	-455.197656	32.868	
N	 0.0085612152	 0.9985233868	-0.1439163494	-0.529965
C	-0.1115161997	-0.3677305002	-0.0408509791	 0.408688
O	 0.7533155168	-1.1426056952	-0.3995832057	-0.374115
N	-1.3159394079	-0.7678972899	 0.5535363524	-0.114167
C	-2.634626138	-0.4498496811	 0.0250641737	-0.269534
C	-2.1374446914	-1.8648845644	 0.0766708335	-0.002337
C	-1.8318038822	-2.6275737931	-1.2007644075	-0.294608
C	-0.8777814815	-3.7920034689	-0.9640618219	 0.14225
O	-1.1685092805	-4.9398152388	-1.1888085656	-0.24355
H	 0.9459926435	 1.3272542209	-0.3137956674	 0.267283
H	-0.5660995124	 1.5772277596	 0.4475017377	 0.262478
H	-3.3686132655	-0.0961959167	 0.744657854	 0.126525
H	-2.6820516184	 0.0222069628	-0.9538695309	 0.133531
H	-2.516854725	-2.4893946398	 0.8843443718	 0.113733
H	-2.7607372802	-3.0323452919	-1.6148482108	 0.122047
H	-1.377849696	-1.9547221695	-1.9372176142	 0.12982
H	 0.1106494633	-3.4973768406	-0.5627153404	 0.12192
48.8035	77.847	107.1256	156.1649	195.6032	258.329	344.7858	424.2203	447.0968	480.7369	499.8598	531.2864	624.2656	723.2514	786.4805	800.4778	864.7425	946.8239	990.2864	1040.4819	1055.9071	1106.2968	1115.0598	1129.9623	1149.3787	1171.5232	1235.4686	1289.9136	1293.5111	1398.4932	1409.9395	1428.6134	1448.238	1512.7842	1617.1972	1792.8689	1825.6233	2967.6005	3042.254	3098.8477	3101.1414	3120.6324	3189.9072	3589.4191	3712.1086
NC(=O)N1CC1CC=O	NC(=O)N1C[C@H]1CC=O	
InChI=1S/C5H8N2O2/c6-5(9)7-3-4(7)1-2-8/h2,4H,1,3H2,(H2,6,9)	InChI=1S/C5H8N2O2/c6-5(9)7-3-4(7)1-2-8/h2,4H,1,3H2,(H2,6,9)/t4-,7?/m1/s1
