15
gdb 44588	3.50397	1.83779	1.47482	4.7845	72.3	-0.1983	-0.027	0.1712	870.5301	0.114811	-416.744409	-416.737937	-416.736993	-416.775074	26.178	
N	-0.2111627921	 1.2019600427	 0.340178054	-0.546661
C	-0.1861392297	 0.0280878999	-0.1080955738	 0.400415
O	 0.9612236874	-0.8014176483	-0.0700378262	-0.262534
C	 0.7287622059	-1.9475913518	-0.8843354592	 0.082454
C	-0.3905624559	-3.0295388291	-0.722089986	-0.057213
N	-1.3593215454	-2.9328411594	 0.3569232059	-0.252135
C	-1.76739	-1.6354871573	 0.410554915	 0.012854
C	-1.2553810221	-0.8779971722	-0.621847281	-0.150976
C	-0.5585253069	-1.8317317748	-1.6042351461	-0.157392
H	 0.6986783566	 1.4535219949	 0.7306383949	 0.223987
H	 1.6465817729	-2.2954732646	-1.3441213644	 0.111433
H	-0.160887887	-4.0298676875	-1.0706653343	 0.106231
H	-1.892417238	-3.730545127	 0.6733411332	 0.254258
H	-2.254453588	-1.2606249951	 1.3039578986	 0.143369
H	-0.7129933676	-1.7768928403	-2.6774747706	 0.091909
136.5294	207.2236	315.4337	352.9495	464.1317	580.3062	612.139	688.3142	701.4724	730.0907	769.7912	813.2955	826.6528	852.8018	879.4205	889.495	913.0702	983.9751	1016.3113	1020.7208	1054.6274	1071.4752	1139.5261	1161.4804	1181.0735	1244.167	1250.0616	1290.6404	1336.8279	1382.7645	1453.5217	1526.5235	1788.5084	3139.0192	3178.948	3189.3767	3200.0586	3471.5379	3582.1006
N=C1OC2C3NC=C1C23	[NH][C]1O[C@H]2[C@H]3N[CH][C]1[C@@H]23	
InChI=1S/C6H6N2O/c7-6-2-1-8-4-3(2)5(4)9-6/h1,3-5,7-8H	InChI=1S/C6H6N2O/c7-6-2-1-8-4-3(2)5(4)9-6/h1,3-5,7-8H/t3-,4+,5-/m1/s1
