14
gdb 61134	6.22536	0.59565	0.55497	3.7349	83.52	-0.2789	-0.0561	0.2228	1841.1173	0.098096	-399.490963	-399.481396	-399.480452	-399.526211	33.262	
O	-0.0853074763	 1.4450563803	 0.0283327646	-0.391244
C	 0.0044971438	 0.0355867195	 0.0135709282	-0.090609
C	 0.6720434501	-0.5156363428	-1.2776968449	-0.374522
C	-0.0407830313	-0.1144104709	-2.4807434051	 0.306458
C	-0.6417781118	 0.2114408676	-3.4681134278	-0.426703
C	 0.7024972194	-0.4755184069	 1.1990743261	 0.089693
C	 1.3119471088	-0.8723331199	 2.1641268025	 0.066782
C	 1.9940572371	-1.3219055984	 3.2584719015	 0.20778
N	 2.576828538	-1.7041836151	 4.1876261955	-0.328637
H	 0.8081316364	 1.8083871941	 0.0340218765	 0.293843
H	-1.0328914744	-0.3165700943	 0.0380918773	 0.150635
H	 1.7113383647	-0.1634386407	-1.3098257491	 0.138794
H	 0.7195053426	-1.6088945527	-1.2065858775	 0.152386
H	-1.1680466972	 0.5006554901	-4.3441449479	 0.205343
54.9574	64.2171	119.6364	152.5833	225.6824	249.7959	309.3774	338.9249	357.1771	437.6365	518.0788	536.7952	580.301	593.934	631.6219	660.9361	779.7272	862.5486	970.3028	1007.4071	1083.8061	1150.6853	1192.9651	1274.068	1315.0586	1350.5437	1417.3838	1464.3499	2245.8005	2262.7633	2400.0361	3024.2457	3055.1998	3069.2565	3504.954	3796.4184
OC(CC#C)C#CC#N	O[C@@H](CC#C)C#CC#N	
InChI=1S/C7H5NO/c1-2-4-7(9)5-3-6-8/h1,7,9H,4H2	InChI=1S/C7H5NO/c1-2-4-7(9)5-3-6-8/h1,7,9H,4H2/t7-/m0/s1
