14
gdb 52035	2.71161	0.9746	0.75247	3.5946	64.01	-0.2949	-0.071	0.2239	1400.7676	0.097786	-473.852795	-473.843424	-473.84248	-473.889056	30.52	
O	 0.1985284358	 0.1224419477	 0.3177836149	-0.256768
C	 0.3213491649	 1.3024997316	 0.4065465676	 0.178073
O	 0.9632359241	 2.0358528351	-0.5385377198	-0.185728
C	 1.0653019608	 3.4397636931	-0.3485110248	-0.090298
C	 2.5244979043	 3.8251215372	-0.0463941603	-0.250313
C	 2.7486532445	 5.345417699	-0.1579869801	 0.158983
O	 1.9371464174	 6.0864186491	-0.6375546372	-0.218799
C	 2.9725919731	 3.3478168193	 1.2605709839	 0.262604
N	 3.3094377782	 3.0012134581	 2.3101296899	-0.295539
H	-0.0672060415	 1.9228508252	 1.23629252	 0.09471
H	 0.757581231	 3.9303746421	-1.2727159585	 0.157621
H	 0.4069949856	 3.7807573015	 0.4582053806	 0.139232
H	 3.1676572965	 3.3606825563	-0.8091400061	 0.176489
H	 3.7273566652	 5.6975000447	 0.2246347498	 0.129736
43.9235	47.199	85.0562	144.122	158.5177	192.2343	254.9022	339.2477	376.169	507.3778	561.9906	592.4648	708.2234	784.5233	885.681	1025.5137	1036.8169	1052.0362	1076.24	1114.7347	1158.1098	1240.6925	1274.9379	1335.6195	1392.6767	1417.0706	1429.4957	1498.7734	1838.5115	1880.9877	2360.262	2941.6383	2962.2681	3016.5021	3054.3882	3134.3016
O=COCC(C=O)C#N	O=COC[C@@H](C=O)C#N	
InChI=1S/C5H5NO3/c6-1-5(2-7)3-9-4-8/h2,4-5H,3H2	InChI=1S/C5H5NO3/c6-1-5(2-7)3-9-4-8/h2,4-5H,3H2/t5-/m1/s1
