21
gdb 36728	5.49143	0.66895	0.62148	1.3066	84.81	-0.2428	0.0526	0.2954	1781.5968	0.182117	-387.063907	-387.054248	-387.053303	-387.099926	34.713	
C	-0.0647314954	-1.2456298567	 0.1944427291	-0.431899
C	-0.0699483461	-0.0472208193	 0.1014405706	 0.292559
C	-0.0390631744	 1.405762801	-0.0109746839	-0.365094
C	 1.3964981884	 1.9743360283	-0.0328637179	-0.205262
C	 1.4399692413	 3.5006891056	-0.1009034162	 0.009697
C	 2.8571782345	 4.0999367191	-0.093634627	-0.256577
C	 2.6275877942	 5.4953882371	-0.6848190965	-0.068264
O	 1.480859777	 5.3970436161	-1.5325025461	-0.264916
C	 0.8799327393	 4.1151660569	-1.3939963792	-0.063333
H	-0.0741541273	-2.3040696788	 0.2761835014	 0.193952
H	-0.5734694141	 1.7094850357	-0.9201565773	 0.135959
H	-0.5927218063	 1.8487573964	 0.8276789444	 0.130202
H	 1.9221835935	 1.6296583898	 0.8645091087	 0.111331
H	 1.9351045973	 1.5514706056	-0.889806221	 0.110107
H	 0.881005036	 3.9148590187	 0.7498388587	 0.077195
H	 3.3090282203	 4.1295439524	 0.9011092915	 0.104161
H	 3.513021573	 3.5081186775	-0.7431837635	 0.105418
H	 2.4290298081	 6.2353601444	 0.1040802886	 0.094649
H	 3.4799764338	 5.8541082588	-1.2733712518	 0.101539
H	 1.1338179584	 3.4792121194	-2.2593706896	 0.086097
H	-0.2077546215	 4.2445134521	-1.3808557232	 0.102478
40.6275	61.5837	93.2073	98.8663	172.1845	220.1984	343.1372	349.6966	408.4931	493.2285	615.795	618.1725	638.1895	678.6567	764.0378	847.3269	883.8333	920.1545	950.2906	956.0588	978.25	991.029	1026.5604	1082.5166	1108.3695	1125.954	1146.0635	1191.328	1205.8645	1231.5005	1268.5057	1275.8822	1310.8826	1314.2761	1349.5616	1352.9077	1381.3786	1387.0235	1415.2663	1472.3673	1489.7732	1495.0544	1522.8979	1535.7676	2239.1609	2955.3974	2995.5501	3007.1653	3015.3933	3032.3339	3037.5143	3043.9038	3053.6284	3058.5553	3078.8987	3102.1527	3507.7649	40.6236	61.5834	93.2071	98.8659	172.1844	220.1983	343.137	349.6964	408.493	493.2285	615.795	618.1722	638.1893	678.6567	764.0378	847.3269	883.8333	920.1543	950.2905	956.0588	978.25	991.0289	1026.5604	1082.5164	1108.3695	1125.9539	1146.0635	1191.3281	1205.8646	1231.5005	1268.5057	1275.8822	1310.8826	1314.2761	1349.5616	1352.9077	1381.3786	1387.0236	1415.2663	1472.3673	1489.7733	1495.0545	1522.8979	1535.7677	2239.1609	2955.3973	2995.55	3007.1653	3015.3933	3032.3339	3037.5143	3043.9038	3053.6283	3058.5552	3078.8987	3102.1526	3507.7649
C#CCCC1CCOC1	C#CCC[C@H]1CCOC1	
InChI=1S/C8H12O/c1-2-3-4-8-5-6-9-7-8/h1,8H,3-7H2	InChI=1S/C8H12O/c1-2-3-4-8-5-6-9-7-8/h1,8H,3-7H2/t8-/m0/s1
