19
gdb 118595	1.73006	1.29119	0.74979	2.647	78.92	-0.2487	-0.0223	0.2264	1506.768	0.156631	-456.349785	-456.339295	-456.33835	-456.386244	35.675	
C	-0.045060774	 1.4430243034	 0.0413996769	-0.227549
O	-0.0220945812	 0.0358412846	 0.0799562095	-0.210295
C	 0.5810117389	-0.5103295409	-1.0560609203	-0.137537
C	 0.5753353003	-2.0224925003	-0.9561873811	 0.359604
N	 1.1577361118	-2.7176910157	-2.0433159425	-0.358356
C	 1.7373518025	-2.236602548	-3.1942953964	 0.16186
O	 1.8643508498	-1.0772589288	-3.5082020638	-0.295782
N	 0.0745998762	-2.6104796026	 0.0481825331	-0.236307
C	 0.0800921363	-4.0594832085	 0.1228475401	-0.347702
H	 0.9696292348	 1.8698411101	-0.0053759143	 0.10491
H	-0.6137684738	 1.8215905554	-0.8230161177	 0.104909
H	-0.5296356669	 1.7820867032	 0.9597908009	 0.128826
H	 0.0630937509	-0.2079743681	-1.9807225754	 0.119374
H	 1.6191626458	-0.1607673084	-1.1773205407	 0.119382
H	 1.1456735215	-3.7234107751	-1.9612137975	 0.254193
H	 2.0906470038	-3.0725706431	-3.8296935122	 0.092247
H	-0.3920366149	-4.371604172	 1.0570752548	 0.137322
H	-0.4838448025	-4.528433069	-0.6993679636	 0.115475
H	 1.0982537905	-4.4805455961	 0.1161792501	 0.115426
52.3728	82.3668	112.7713	138.8613	144.7786	203.7268	232.3535	250.8981	269.8133	275.5808	371.5984	415.49	587.3591	610.5948	637.5295	805.4017	835.5725	1017.5236	1017.7511	1032.7154	1056.2113	1104.1852	1121.3914	1169.7792	1184.585	1194.8659	1233.4298	1253.4588	1269.8794	1426.9063	1438.1979	1448.9109	1464.2723	1475.2331	1486.1489	1489.915	1513.5823	1514.558	1524.0493	1755.0013	1819.5816	2941.2803	2963.9346	2965.5834	2979.3747	2996.0611	3012.0167	3013.385	3105.4522	3118.1092	3618.5568
COCC(NC=O)=NC	COCC(=NC)NC=O	
InChI=1S/C5H10N2O2/c1-6-5(3-9-2)7-4-8/h4H,3H2,1-2H3,(H,6,7,8)	InChI=1S/C5H10N2O2/c1-6-5(3-9-2)7-4-8/h4H,3H2,1-2H3,(H,6,7,8)
