20
gdb 49913	5.50829	0.75957	0.70404	4.4219	82.66	-0.2377	0.0278	0.2656	1606.0283	0.171218	-403.144171	-403.135111	-403.134166	-403.179863	32.356	
O	 0.2067684324	-0.0195242849	 0.6357170152	-0.334049
C	 0.1611888041	 1.181504178	 0.4569941179	 0.13019
N	 1.1590204643	 1.9139526982	-0.0783479769	-0.033126
C	 2.4914759969	 1.5127738838	-0.5245700727	-0.191312
C	 2.7671264284	 3.0062010278	-0.89650696	-0.010498
C	 1.3447203098	 3.3427176177	-0.3370637315	-0.204596
C	 3.9354498746	 3.6728431568	-0.2273879477	 0.025401
C	 5.2857022332	 3.6992277834	-0.9006765913	-0.273094
C	 4.4860365635	 4.9710392729	-0.765928169	-0.274768
H	-0.7192466646	 1.8074473212	 0.7142247098	 0.064029
H	 3.1193648774	 1.1128618781	 0.2795386951	 0.120623
H	 2.485275124	 0.7981807978	-1.3533547465	 0.122156
H	 2.822315462	 3.1543572141	-1.978143684	 0.080262
H	 0.6381415841	 3.7700153428	-1.0569242405	 0.115124
H	 1.3509582374	 3.9643868924	 0.5664886346	 0.114182
H	 3.9477467637	 3.564345439	 0.8551223215	 0.087007
H	 6.169622796	 3.5772897335	-0.2850541757	 0.1178
H	 5.3687192958	 3.2554712959	-1.8874295565	 0.114737
H	 4.0324772411	 5.3807877472	-1.6626200967	 0.113162
H	 4.8229420259	 5.7203172844	-0.0585367152	 0.116772
24.0764	69.1801	78.9824	161.0317	212.746	277.2185	316.9573	343.1308	452.9088	555.6645	721.6074	789.6755	810.6306	829.5037	884.7906	908.4126	921.8329	951.7752	1004.5776	1025.1419	1035.9164	1048.8713	1059.4487	1080.0611	1139.4147	1139.9705	1164.0353	1193.6307	1197.5329	1221.2136	1245.6116	1258.7843	1285.2242	1301.079	1332.9361	1398.851	1431.4287	1459.4464	1469.6356	1506.523	1506.8419	1525.364	1790.8163	2911.9558	3020.3168	3037.7701	3060.9328	3073.4059	3086.8781	3129.1027	3131.3351	3136.6579	3210.2035	3225.0507
O=CN1CC(C1)C1CC1	O=CN1CC(C1)C1CC1	
InChI=1S/C7H11NO/c9-5-8-3-7(4-8)6-1-2-6/h5-7H,1-4H2	InChI=1S/C7H11NO/c9-5-8-3-7(4-8)6-1-2-6/h5-7H,1-4H2
