15
gdb 21947	6.85347	1.04177	0.96809	3.3191	62.9	-0.2492	-0.0023	0.2469	1156.8411	0.120443	-395.97472	-395.967161	-395.966217	-396.007694	26.685	
O	 0.1105463039	 1.4290925205	 0.138253758	-0.415766
C	 0.0459324712	 0.0161766972	 0.2125138755	-0.056388
C	-1.360895921	-0.52461466	-0.1011270516	-0.318707
C	-1.4296385118	-2.0144505748	-0.010217461	 0.30914
C	-1.9357826493	-2.8272397642	 0.9785233937	-0.173445
N	-1.6874605468	-4.0817266059	 0.5334924691	-0.147248
N	-1.0651334411	-4.0682543374	-0.6583745297	-0.113077
N	-0.9073496947	-2.819421357	-0.9864808533	-0.246116
H	-0.0003278725	 1.6811255147	-0.7840363705	 0.28376
H	 0.7768858445	-0.4650860431	-0.4528695487	 0.112332
H	 0.319720319	-0.2442311219	 1.2404369357	 0.110788
H	-2.0779759276	-0.0641010591	 0.5854473419	 0.110974
H	-1.6382399596	-0.2177245756	-1.1170473576	 0.112966
H	-2.4323912674	-2.6263454176	 1.912729124	 0.147435
H	-1.9127027668	-4.9650244958	 0.9624162946	 0.283353
44.8126	99.7946	119.4658	302.2239	335.9334	360.0199	376.4628	573.8993	684.0565	727.8242	768.8	781.307	803.5552	987.8536	1013.5373	1029.8505	1037.9922	1059.4647	1077.8553	1129.7628	1151.9026	1266.8147	1284.6977	1306.2353	1333.8132	1360.0598	1397.2723	1414.3369	1478.2755	1489.0873	1511.6505	1592.1387	3006.8034	3034.1567	3071.4979	3095.9078	3283.4965	3658.8497	3816.878
OCCC1=CNN=N1	OCCc1c[nH]nn1	
InChI=1S/C4H7N3O/c8-2-1-4-3-5-7-6-4/h3,8H,1-2H2,(H,5,6,7)	InChI=1S/C4H7N3O/c8-2-1-4-3-5-7-6-4/h3,8H,1-2H2,(H,5,6,7)
