19
gdb 118924	2.58855	1.0735	0.97895	2.9129	71.57	-0.2677	-0.0069	0.2608	1327.5468	0.157377	-460.189206	-460.179542	-460.178598	-460.224124	34.668	
C	-0.0945926616	 1.5474882873	 0.0661408749	-0.386461
C	-0.0187446902	 0.0192726982	 0.0317836511	-0.174557
C	 0.6415132685	-0.5029543161	-1.2502273001	-0.212941
C	 0.7228267371	-2.0265248983	-1.315680083	 0.202598
O	-0.5837199247	-2.5349875115	-1.2842592229	-0.463119
C	 1.7022676966	-2.5907948562	-2.3826223345	-0.134894
O	 2.6174517807	-3.0224882262	-1.3256608101	-0.241211
C	 1.7473947602	-2.650438887	-0.330503796	 0.390975
O	 1.8579823338	-2.8301289506	 0.8395570859	-0.324625
H	 0.9029355114	 1.9987244517	 0.0185797226	 0.114164
H	-0.6739273479	 1.9367224737	-0.7788301993	 0.113503
H	-0.5730508105	 1.8972417242	 0.9857783691	 0.117034
H	 0.5411150947	-0.3478160488	 0.8994848193	 0.12204
H	-1.0228621698	-0.4088333081	 0.1084463932	 0.118187
H	 0.0759476434	-0.1672036913	-2.1295219288	 0.110265
H	 1.6543659325	-0.0930815984	-1.3483588642	 0.106905
H	-0.56015335	-3.4766585245	-1.0830528554	 0.29498
H	 1.3207479261	-3.4479286622	-2.9427066067	 0.120479
H	 2.1842549999	-1.8723466557	-3.0482074951	 0.12668
76.667	97.0165	103.0264	171.1929	194.4394	244.9968	269.9684	301.8697	332.9914	369.3128	439.8637	571.7012	715.7824	754.4374	767.7555	782.4633	875.3457	890.758	943.6665	951.0058	984.4286	1050.8336	1072.8428	1110.1927	1131.1431	1149.2298	1154.2275	1224.1076	1278.3656	1311.379	1329.0658	1342.8477	1387.3081	1401.5274	1415.3532	1473.8139	1495.4609	1501.0772	1511.9629	1513.1078	1928.1472	3019.1806	3029.0078	3049.2016	3059.0431	3067.485	3080.8572	3104.3631	3106.5081	3133.9973	3810.3109
CCCC1(O)COC1=O	CCC[C@@]1(O)COC1=O	
InChI=1S/C6H10O3/c1-2-3-6(8)4-9-5(6)7/h8H,2-4H2,1H3	InChI=1S/C6H10O3/c1-2-3-6(8)4-9-5(6)7/h8H,2-4H2,1H3/t6-/m1/s1
