17
gdb 25928	2.6654	1.63679	1.03574	2.7113	77.38	-0.2096	-0.007	0.2026	1116.4363	0.137458	-418.088157	-418.07985	-418.078906	-418.121019	31.737	
C	-0.1040333039	 1.496566716	 0.042394831	-0.469579
C	-0.0068222201	 0.0080329884	-0.0203694495	 0.322446
C	-0.0655042999	-0.8126028199	-1.1155117159	-0.240335
C	 0.0609634579	-2.1671363972	-0.6791324879	-0.171393
C	 0.1801035973	-2.1472183241	 0.678494751	-0.101867
N	 0.1399339789	-0.8178610733	 1.1000829857	-0.143153
C	 0.219103125	-0.371077232	 2.4370860403	 0.464448
N	-0.0039429397	-1.3598685767	 3.3669093177	-0.555113
O	 0.4919452402	 0.770529124	 2.7330224781	-0.368453
H	 0.8112743348	 1.9516958202	 0.4288399856	 0.149068
H	-0.2913550423	 1.8757816384	-0.9656152097	 0.116005
H	-0.915754687	 1.831896742	 0.6953814526	 0.134399
H	-0.1869637525	-0.4716192698	-2.1327724637	 0.098994
H	 0.0763002147	-3.0494170742	-1.3006267908	 0.103326
H	 0.3702839556	-2.9409357656	 1.3803560935	 0.127992
H	-0.6158229878	-2.1250924108	 3.1343462809	 0.263703
H	-0.0684113011	-1.0135115654	 4.311259951	 0.269511
77.047	136.1035	196.5605	232.2222	257.1583	347.2492	435.5392	455.2663	516.8746	532.2968	617.5277	635.5875	677.1498	702.2074	717.6858	777.8525	800.5309	856.8767	892.0519	1000.3338	1041.6078	1066.8479	1078.282	1119.0772	1174.8076	1237.8421	1264.9205	1337.0924	1389.2129	1422.7868	1441.4389	1472.4257	1482.5788	1532.1213	1615.4514	1620.0625	1817.5726	3044.8503	3104.0607	3124.5828	3240.3805	3254.356	3285.2691	3592.691	3712.5777
CC1=CC=CN1C(N)=O	Cc1cccn1C(=O)N	
InChI=1S/C6H8N2O/c1-5-3-2-4-8(5)6(7)9/h2-4H,1H3,(H2,7,9)	InChI=1S/C6H8N2O/c1-5-3-2-4-8(5)6(7)9/h2-4H,1H3,(H2,7,9)
