18
gdb 126320	4.61486	1.01185	0.89891	2.267	82.2	-0.2274	-0.0654	0.162	1349.4466	0.147528	-398.15918	-398.150332	-398.149388	-398.193791	31.586	
C	-0.4127863771	 1.4506193178	 0.1516200639	-0.374587
C	 0.14392583	 0.0313277109	-0.055215828	-0.269294
C	 0.8145765734	-0.4999310784	 1.1829697032	 0.335063
C	 0.1832105619	-1.3667070553	 2.0852690633	-0.06181
N	 0.7892933273	-1.7913230864	 3.1793758181	-0.266768
C	 2.0410815454	-1.332781187	 3.3587350396	 0.386838
C	 2.7790841894	-1.7761771135	 4.587040877	-0.454635
N	 2.6849647097	-0.5125222206	 2.5214451844	-0.226542
N	 2.0625209929	-0.0957790566	 1.4239630395	-0.238831
H	 0.3905591847	 2.1348790348	 0.4382827246	 0.142391
H	-0.8720462837	 1.8229878669	-0.7685326915	 0.120587
H	-1.1712581028	 1.4685311422	 0.9410668859	 0.119009
H	-0.6626723973	-0.6478639323	-0.3528717234	 0.106019
H	 0.8800540767	 0.0442152285	-0.8647319282	 0.12939
H	-0.8305599257	-1.7212948901	 1.9042060287	 0.120704
H	 2.8647265995	-2.8672514276	 4.6040307585	 0.143754
H	 3.7741113232	-1.3316613583	 4.6092224443	 0.145387
H	 2.2267226426	-1.484871855	 5.4859520901	 0.143324
39.3563	79.4805	94.6386	203.4187	215.8378	306.4999	370.5924	402.7233	412.7421	501.2615	580.669	665.6411	741.9359	791.0745	817.5697	863.8526	970.8002	978.4567	999.4738	1069.437	1070.5171	1081.6918	1088.6553	1127.2005	1249.2285	1274.2935	1316.7305	1343.1159	1374.1472	1403.4617	1408.7891	1449.3772	1479.1332	1479.368	1480.9384	1496.932	1507.9406	1552.5346	1606.8324	3039.4383	3044.6319	3048.7514	3088.2003	3106.2968	3112.6837	3124.224	3138.3954	3158.4235
CCC1=CN=C(C)N=N1	CCc1cnc(C)nn1	
InChI=1S/C6H9N3/c1-3-6-4-7-5(2)8-9-6/h4H,3H2,1-2H3	InChI=1S/C6H9N3/c1-3-6-4-7-5(2)8-9-6/h4H,3H2,1-2H3
