25
gdb 104185	2.30022	1.23697	1.20381	1.349	88.18	-0.2611	0.0713	0.3324	1264.8831	0.226948	-389.485633	-389.475034	-389.47409	-389.51995	41.329	
C	-0.0868974834	 1.5072587984	-0.018338562	-0.434682
C	-0.0293743874	-0.025531451	-0.0093496655	 0.28434
C	-1.418677357	-0.5772007811	-0.3346535002	-0.456327
C	 1.1565622168	-0.5329756833	-0.8879615305	-0.260089
C	 2.0294705831	-0.6568503633	 0.3867997156	-0.253468
C	 0.7385762743	-0.6022629339	 1.2590109931	 0.316174
C	 0.7834403356	 0.2450161943	 2.5293251044	-0.468576
C	 0.2876191542	-2.0229849958	 1.6113778297	-0.130013
O	 1.2332901618	-2.5731993146	 2.5227473742	-0.425756
H	 0.894437195	 1.9610425986	 0.1490261447	 0.112851
H	-0.4474538898	 1.8578908336	-0.9922635653	 0.107495
H	-0.768909939	 1.892849628	 0.7471455808	 0.111133
H	-1.7584713385	-0.1928788473	-1.3036436177	 0.109575
H	-1.4361589784	-1.6686567281	-0.3961395625	 0.1081
H	-2.1591095341	-0.2696966341	 0.4134999701	 0.110538
H	 0.9486774064	-1.502822344	-1.349192529	 0.091772
H	 1.5043877507	 0.1473545457	-1.6706544284	 0.088035
H	 2.6419179302	-1.5535759064	 0.498941856	 0.104137
H	 2.6683780019	 0.2166152807	 0.541469039	 0.09291
H	 1.1887770716	 1.2422868769	 2.3421142971	 0.1056
H	-0.21771411	 0.3653290076	 2.9621479394	 0.102354
H	 1.4108505741	-0.2425869431	 3.2798454162	 0.134193
H	-0.7186574162	-1.9962272814	 2.0594619115	 0.082661
H	 0.2299640765	-2.644272285	 0.7054585393	 0.081601
H	 0.9515656717	-3.4653738513	 2.74304668	 0.285443
103.7628	154.2958	194.7874	200.5906	227.4943	241.842	271.2178	284.7902	322.8909	337.731	353.3835	375.1493	379.2884	439.5009	522.0391	593.1152	695.6404	740.9046	852.4168	883.8506	916.6211	934.5457	949.7402	962.5262	965.32	997.2707	1020.2059	1040.757	1067.6417	1130.3308	1178.3033	1198.159	1216.3205	1229.5549	1235.5198	1253.2818	1263.1757	1282.5712	1304.4204	1327.6704	1399.2751	1401.8985	1420.0754	1452.5988	1479.7353	1481.2162	1489.1644	1493.1849	1498.6345	1500.4533	1506.9767	1514.8859	1522.1479	2966.4836	3003.6264	3021.6879	3025.8852	3029.9261	3048.4769	3063.3784	3079.3426	3089.2371	3092.9459	3098.3251	3104.0273	3106.2881	3119.0511	3125.9642	3835.2184
CC1(C)CCC1(C)CO	CC1(C)CC[C@]1(C)CO	
InChI=1S/C8H16O/c1-7(2)4-5-8(7,3)6-9/h9H,4-6H2,1-3H3	InChI=1S/C8H16O/c1-7(2)4-5-8(7,3)6-9/h9H,4-6H2,1-3H3/t8-/m1/s1
