20
gdb 15839	2.9987	1.32548	0.9762	1.7173	72.	-0.2536	0.0736	0.3272	1232.2889	0.174961	-386.108353	-386.098714	-386.09777	-386.143407	33.86	
C	 0.8875924369	 1.1408885573	-0.0086211243	-0.222873
O	 0.9281708751	-0.2420766571	-0.2619797193	-0.228964
C	-0.0586856279	-0.6620700869	-1.1751594446	-0.067891
C	 0.0438923825	-2.1771747446	-1.3752894573	 0.078901
O	-1.0800837935	-2.6185754656	-2.1358281444	-0.434731
C	 1.3560702675	-2.6018199278	-1.9900761036	 0.013571
C	 2.5367735614	-2.9461640408	-1.120256203	-0.249779
C	 1.8109147694	-4.0350332669	-1.8658794544	-0.277826
H	 1.0655946486	 1.7297158684	-0.9228658568	 0.102024
H	-0.0817990001	 1.4512880143	 0.4129651082	 0.104117
H	 1.6754852845	 1.3661502405	 0.7144214059	 0.125762
H	-1.0689601086	-0.4217459323	-0.8072522107	 0.093169
H	 0.0647023223	-0.1501793804	-2.1481773028	 0.069323
H	-0.0633128689	-2.6560775708	-0.3944276013	 0.089407
H	-0.8907497322	-2.4474245774	-3.0643345056	 0.277974
H	 1.5842585099	-2.0977953493	-2.9290278719	 0.06976
H	 3.5228987313	-2.6527189693	-1.4620492803	 0.109345
H	 2.4029994254	-2.8784072339	-0.0467239078	 0.121817
H	 1.1774929892	-4.7101684149	-1.3003755476	 0.118604
H	 2.3010415272	-4.4949833126	-2.7168038484	 0.108289
57.8733	78.651	99.0906	165.6171	194.4573	219.0156	239.3993	288.6186	346.3239	384.8415	508.7168	545.6509	758.6929	820.4326	830.4261	940.6149	945.0765	990.8715	1006.1593	1052.6709	1069.6161	1075.3119	1104.9756	1130.0484	1161.8358	1175.5213	1186.5495	1195.3717	1227.1362	1228.7073	1243.5399	1283.2951	1330.9748	1396.5991	1415.4139	1438.2798	1472.6565	1480.0965	1484.8178	1502.1966	1508.2805	1525.0483	2930.6367	2967.7632	2992.3343	3010.5538	3042.7389	3105.9929	3111.946	3133.7674	3141.7041	3212.517	3228.2896	3811.0969
COCC(O)C1CC1	COC[C@@H](O)C1CC1	
InChI=1S/C6H12O2/c1-8-4-6(7)5-2-3-5/h5-7H,2-4H2,1H3	InChI=1S/C6H12O2/c1-8-4-6(7)5-2-3-5/h5-7H,2-4H2,1H3/t6-/m1/s1
