19
gdb 92303	2.22415	1.86981	1.21552	2.0642	74.23	-0.2385	-0.0287	0.2098	1059.373	0.159384	-423.038795	-423.030657	-423.029713	-423.071821	31.06	
C	-0.9279565311	 1.1846144077	 0.0432926329	-0.403067
C	-0.0446275783	-0.0509321195	-0.0419224652	 0.02676
C	 1.2512976199	-0.0010992166	-0.90601386	-0.279574
C	 2.0276002863	-0.7112356612	 0.2415929661	 0.12841
O	 3.1814283564	-0.0543201281	 0.7566776029	-0.26451
C	 2.7807453899	 0.9742551163	 1.6401264834	-0.193068
C	 1.3315883058	 0.6834632881	 2.0568247789	 0.380264
O	 0.7182211061	 1.2738497348	 2.9074820368	-0.313446
C	 0.834979698	-0.4672629797	 1.1903814472	-0.197151
H	-0.3516974516	 2.0776915346	 0.3048924898	 0.120105
H	-1.4166149081	 1.371450632	-0.91908355	 0.115252
H	-1.7074953948	 1.0652930325	 0.8023332671	 0.130531
H	-0.6524873543	-0.9145252653	-0.3288335943	 0.084696
H	 1.2238916644	-0.5105361918	-1.8714281135	 0.106462
H	 1.6158570573	 1.0187237186	-1.0631904158	 0.108564
H	 2.3057738318	-1.7453388893	 0.0326515262	 0.089234
H	 3.4427418506	 0.9915248516	 2.5122098216	 0.137761
H	 2.821786123	 1.9700419882	 1.1694313239	 0.122761
H	 0.4540038487	-1.2729847631	 1.8211260921	 0.100015
63.2856	129.0317	152.2958	205.9335	322.0815	387.0913	396.7122	455.9439	527.499	610.1941	655.5425	707.8244	744.3536	807.9782	885.4186	905.0372	914.3705	942.5155	971.09	993.1026	1062.2069	1075.9763	1109.0642	1128.548	1145.3936	1179.51	1210.6622	1224.1016	1239.8733	1244.2592	1265.8245	1311.2242	1324.2263	1352.1224	1382.8621	1417.3265	1478.3275	1486.3385	1492.668	1493.3542	1844.8701	2979.4786	3033.4303	3051.7849	3059.5785	3072.3414	3090.5006	3099.7426	3101.2594	3107.0838	3120.2093
CC1CC2OCC(=O)C12	C[C@H]1C[C@H]2OCC(=O)[C@@H]12	
InChI=1S/C7H10O2/c1-4-2-6-7(4)5(8)3-9-6/h4,6-7H,2-3H2,1H3	InChI=1S/C7H10O2/c1-4-2-6-7(4)5(8)3-9-6/h4,6-7H,2-3H2,1H3/t4-,6+,7+/m0/s1
