23
gdb 79337	3.01707	1.46053	1.36418	0.0745	88.32	-0.2484	0.0924	0.3408	1104.6862	0.208528	-351.182591	-351.174615	-351.17367	-351.214339	33.238	
C	-0.1275730922	 1.5578540663	-0.0353966227	-0.419617
C	 0.0350305184	 0.0381575619	-0.0095954224	 0.040502
C	 0.9326012966	-0.5429232779	-1.1019583833	-0.100588
C	 2.339965582	-0.6413809829	-0.5296843393	-0.096277
C	 2.2803038781	-0.1293525708	 0.9050081807	-0.230803
C	 0.8218032829	-0.5620375159	 1.1908881755	-0.054695
C	 0.8707823842	-2.0570284221	 0.7988006246	-0.274769
C	 1.4569956504	-1.8777311432	-0.6039272225	 0.350688
C	 1.7434911335	-3.046330693	-1.5063863373	-0.50241
H	 0.8360001817	 2.0752502789	-0.0494127774	 0.117541
H	-0.6770181593	 1.871675956	-0.9297204762	 0.110576
H	-0.6887475226	 1.9105110586	 0.8371737338	 0.108158
H	-0.9630285376	-0.4184647645	-0.0497710697	 0.061307
H	 0.7588982208	-0.3603449555	-2.1557249613	 0.069911
H	 3.2165713448	-0.5381939179	-1.1568147182	 0.072579
H	 2.9947323098	-0.6329724702	 1.565645499	 0.090005
H	 2.441513743	 0.9489194422	 0.9928817127	 0.092682
H	 0.4314964267	-0.3308673042	 2.1824959493	 0.054875
H	 1.519518793	-2.6486848221	 1.4553420324	 0.085214
H	-0.1215577612	-2.522861881	 0.7857112454	 0.086291
H	 0.8329838644	-3.618633203	-1.7216904929	 0.112897
H	 2.1603842535	-2.718133621	-2.4643744754	 0.112857
H	 2.4652146994	-3.7353472187	-1.0511322644	 0.113077
173.0543	208.4109	220.0027	231.0112	286.0434	324.8003	433.7033	456.2751	507.3501	577.1593	666.8142	705.144	758.4503	844.184	861.3868	888.1899	908.4194	913.4023	923.4762	944.5093	977.6649	992.9367	1003.6558	1029.2673	1051.8549	1062.4675	1078.4065	1118.403	1127.3749	1138.9501	1172.1834	1178.0445	1236.3196	1251.5624	1263.2027	1280.9714	1299.1475	1323.1449	1334.1563	1382.8233	1410.8652	1417.9382	1433.1759	1488.2528	1490.0104	1495.6705	1499.222	1504.3078	1518.3228	3010.2561	3017.052	3028.4133	3031.2943	3044.6855	3069.2021	3073.4152	3087.832	3090.2685	3090.6987	3111.3914	3112.1641	3180.8644	3193.7882
CC1C2C3CC1CC23C	C[C@H]1[C@H]2[C@H]3C[C@@H]1C[C@@]23C	
InChI=1S/C9H14/c1-5-6-3-7-8(5)9(7,2)4-6/h5-8H,3-4H2,1-2H3	InChI=1S/C9H14/c1-5-6-3-7-8(5)9(7,2)4-6/h5-8H,3-4H2,1-2H3/t5-,6-,7-,8+,9-/m1/s1
