14
gdb 13058	4.61009	1.37441	1.11707	2.1621	59.73	-0.2622	0.0122	0.2744	997.1793	0.107739	-415.899046	-415.891299	-415.890355	-415.93238	26.693	
O	 0.2332386666	 0.8306782488	-1.4492980448	-0.321285
C	 0.0596944067	 1.4033015187	-0.3945800054	 0.153483
N	 1.0350713053	 1.5969479365	 0.5334865696	-0.292693
C	 2.3422101404	 1.0155653637	 0.380209744	-0.085954
C	 3.3381090412	 1.6646287422	-0.6297636719	-0.162156
N	 4.2221810004	 1.9079544033	 0.5203331525	-0.326331
C	 3.3454834534	 1.4701541674	 1.4747139874	 0.399167
O	 3.3379582515	 1.4855477273	 2.6767710947	-0.360811
H	-0.9096061941	 1.840184603	-0.0854461956	 0.085921
H	 0.8034854327	 2.0012525637	 1.4286166566	 0.265875
H	 2.2846621454	-0.0702158361	 0.2598703065	 0.129506
H	 3.7486520134	 0.9904127915	-1.3846185456	 0.128269
H	 2.9551783355	 2.5737273526	-1.1001306888	 0.128047
H	 5.1011829916	 2.3963575175	 0.6066179508	 0.258961
31.9455	117.1509	140.247	217.8486	241.9086	355.7922	482.1929	513.5245	531.9705	686.3098	754.3248	768.5159	879.0115	967.084	982.6428	1034.31	1067.848	1111.1328	1156.0266	1171.5183	1190.2489	1246.1433	1298.9854	1358.0469	1400.6539	1422.2312	1507.1551	1520.3113	1800.6685	1896.5734	2949.8987	3064.6005	3071.6762	3121.4894	3613.9478	3618.0155
O=CNC1CNC1=O	O=CN[C@H]1CNC1=O	
InChI=1S/C4H6N2O2/c7-2-6-3-1-5-4(3)8/h2-3H,1H2,(H,5,8)(H,6,7)	InChI=1S/C4H6N2O2/c7-2-6-3-1-5-4(3)8/h2-3H,1H2,(H,5,8)(H,6,7)/t3-/m0/s1
