18
gdb 99913	2.16807	1.37884	1.18388	1.8044	72.29	-0.276	0.0135	0.2895	1154.3705	0.144657	-439.057852	-439.04807	-439.047126	-439.092642	34.71	
C	-0.1642930096	 1.4103620323	-0.0187692445	-0.260011
O	-0.1983798514	-0.003664725	 0.0953303861	-0.263988
C	 0.5594993318	-0.5812896094	 1.1359222197	 0.189157
C	 2.0661121215	-0.281936881	 1.0236095266	-0.431393
C	 0.0507296534	-0.1203269575	 2.4562630816	 0.248293
N	-0.3478766766	 0.2449926031	 3.4775835632	-0.33713
C	 0.3460326442	-2.0990118497	 1.0647474141	 0.070121
C	-0.7222757945	-2.7097315421	 0.2721676227	-0.172444
O	 0.6406424847	-2.7043369468	-0.1813743771	-0.244114
H	 0.8162215755	 1.775451444	-0.3477190171	 0.121687
H	-0.9066661977	 1.6686320117	-0.7761026669	 0.141141
H	-0.4334227295	 1.8994109585	 0.9265457782	 0.135678
H	 2.2761445734	 0.7832835135	 1.1364905728	 0.135733
H	 2.6165500661	-0.817815693	 1.8013179199	 0.138609
H	 2.4088390789	-0.6237643677	 0.0443785128	 0.154768
H	 0.731680562	-2.6247950661	 1.9387939048	 0.112679
H	-1.1095431812	-3.6836224518	 0.565416001	 0.121376
H	-1.3940727409	-2.068949193	-0.2894308981	 0.139837
74.0255	91.9336	143.0969	162.5462	203.5542	212.5515	239.2257	288.6295	341.6716	399.9125	446.0087	493.2596	586.8866	597.5526	701.4885	851.7371	888.39	905.9621	961.3225	1002.3133	1090.0677	1101.2035	1128.0363	1161.0661	1168.421	1176.3392	1182.1634	1217.0199	1239.1441	1301.8854	1398.3945	1429.1762	1476.4339	1485.9542	1488.2936	1503.0639	1510.2039	1519.166	2349.7673	3010.2356	3056.1031	3072.6679	3103.5712	3111.7841	3131.5581	3133.7693	3147.3456	3212.3572
COC(C)(C#N)C1CO1	CO[C@@](C)(C#N)[C@H]1CO1	
InChI=1S/C6H9NO2/c1-6(4-7,8-2)5-3-9-5/h5H,3H2,1-2H3	InChI=1S/C6H9NO2/c1-6(4-7,8-2)5-3-9-5/h5H,3H2,1-2H3/t5-,6+/m1/s1
