22
gdb 69536	2.99495	1.50929	1.35776	1.5282	85.67	-0.218	0.0844	0.3024	1081.6326	0.195661	-367.174418	-367.166369	-367.165425	-367.206155	33.572	
C	-0.0186559017	 1.4750161516	 0.0225963656	-0.495201
C	 0.0504292575	-0.0256836592	-0.0107705104	 0.364195
N	-0.8200897841	-0.8496221004	 0.8707756638	-0.389418
C	 0.660530077	-0.8991232355	 1.0136970929	-0.135434
C	 1.3747121472	-1.963175585	 0.1449829773	 0.341663
C	 2.1494063643	-3.0579356291	 0.8421750341	-0.506033
C	 0.3092651672	-2.2582530727	-0.9543824156	-0.260923
C	 0.5143750916	-0.7591092017	-1.2946285536	-0.09215
C	 2.0182968085	-1.000797572	-0.9242328285	-0.255729
H	 0.8666720537	 1.9200227885	-0.445314861	 0.124091
H	-0.8975969298	 1.8453564933	-0.5186895176	 0.12347
H	-0.0765388116	 1.8487450352	 1.0509483228	 0.111136
H	-1.1857052543	-0.2421062642	 1.6033019075	 0.219104
H	 1.1271830643	-0.5272254157	 1.9206903274	 0.077811
H	 1.4865650859	-3.6778269234	 1.4563944588	 0.121867
H	 2.6474125012	-3.7141637713	 0.1206979631	 0.111567
H	 2.9208555836	-2.6432665478	 1.5022552898	 0.109848
H	 0.7178889079	-2.906377427	-1.7333075019	 0.083124
H	-0.6790238335	-2.5901067261	-0.6432120372	 0.12046
H	 0.2132633658	-0.3356856708	-2.2535814083	 0.054788
H	 2.6005813653	-0.1487506794	-0.557420126	 0.082525
H	 2.5758418841	-1.5337625074	-1.6997476528	 0.089237
174.8385	216.6	218.9614	241.156	292.2749	334.6769	420.9112	461.6087	529.174	543.7437	581.0939	628.952	718.1443	807.7621	842.3491	857.8087	875.5575	890.1416	910.2635	954.0454	956.8733	989.5224	1007.7884	1032.9073	1044.1374	1067.2901	1088.0185	1093.8292	1124.7476	1154.5854	1194.097	1222.5806	1230.8324	1243.0205	1252.0784	1275.6774	1319.3358	1355.3733	1412.6898	1415.0076	1436.6178	1474.5646	1485.8571	1492.5629	1495.1328	1501.1453	1515.8129	3019.9942	3021.5685	3040.4395	3075.5566	3080.5022	3083.5451	3091.6153	3094.1933	3102.2049	3108.0101	3156.9454	3157.3516	3471.218
CC12NC1C1(C)CC2C1	C[C@]12N[C@H]1[C@@]1(C)C[C@@H]2C1	
InChI=1S/C8H13N/c1-7-3-5(4-7)8(2)6(7)9-8/h5-6,9H,3-4H2,1-2H3	InChI=1S/C8H13N/c1-7-3-5(4-7)8(2)6(7)9-8/h5-6,9H,3-4H2,1-2H3/t5-,6-,7+,8+/m0/s1
