15
gdb 127662	2.57126	1.89681	1.09905	0.99	72.5	-0.2213	-0.0421	0.1792	1032.6461	0.114436	-450.178422	-450.170203	-450.169259	-450.211701	29.75	
C	-0.0082004355	 1.3963381941	-0.0019175085	-0.319829
N	-0.0079387282	-0.0614422812	-0.0063470658	-0.062784
N	-0.0801252048	-0.6646040057	-1.2292291515	-0.243412
C	-0.0785237245	-1.9654277589	-1.2100022777	 0.072808
N	-0.014265089	-2.7911649901	-0.1297587189	-0.350133
C	 0.054348224	-2.1933790511	 1.0326015717	 0.322367
N	 0.1231435926	-2.8664099225	 2.1900198866	-0.539254
C	 0.0630691313	-0.7196751371	 1.1890232571	 0.401677
O	 0.1273794928	-0.1583573653	 2.2788718199	-0.424594
H	 0.905566729	 1.7707494756	 0.4668849476	 0.151616
H	-0.0696532979	 1.7226083793	-1.038009946	 0.152804
H	-0.8605440556	 1.7701094427	 0.5714357999	 0.151616
H	-0.1359197748	-2.4429386819	-2.1822355142	 0.128447
H	 0.1239075368	-3.8711562737	 2.1977865578	 0.27315
H	 0.1731808836	-2.3266439844	 3.0391714422	 0.285521
47.3354	118.6991	190.7098	257.498	282.0314	303.3966	327.9595	516.7304	519.1629	549.6354	563.239	622.3693	634.814	720.6857	819.5078	906.4465	946.4013	991.4617	1021.089	1110.0313	1150.6683	1272.6514	1292.128	1375.7229	1390.493	1431.0533	1442.9395	1475.6666	1501.2402	1540.3337	1609.2998	1660.1329	1740.3282	3056.5481	3118.9247	3182.3291	3196.1487	3600.364	3745.5224
CN1N=CN=C(N)C1=O	Cn1ncnc(N)c1=O	
InChI=1S/C4H6N4O/c1-8-4(9)3(5)6-2-7-8/h2H,1H3,(H2,5,6,7)	InChI=1S/C4H6N4O/c1-8-4(9)3(5)6-2-7-8/h2H,1H3,(H2,5,6,7)
