13
gdb 80788	2.03928	1.86978	1.17435	4.0712	65.53	-0.2724	-0.0419	0.2305	1005.7659	0.089311	-452.689036	-452.681613	-452.680669	-452.721093	27.73	
O	 0.1452024299	 1.379324919	-0.1261804185	-0.431938
C	 0.0958181351	 0.0068531693	-0.0678354397	 0.192876
C	 0.0093664616	-0.6751427407	 1.3432601657	-0.217529
N	-1.4147091659	-0.1101163134	 1.3972840679	-0.365276
C	-1.3316424075	-0.6831227199	-0.0220198422	 0.032274
C	-2.4097222555	-0.6099332215	-0.9597309555	 0.161706
N	-3.2695777725	-0.5735177762	-1.7322582524	-0.332504
C	-0.6091640752	-1.8965784266	 0.6492191324	 0.433718
O	-0.6729677206	-3.0785184762	 0.7120789593	-0.29082
H	-0.4993786401	 1.7117221483	 0.516255835	 0.306105
H	 0.8072887602	-0.4085642596	-0.7803838519	 0.130693
H	 0.6908924041	-0.5948171416	 2.185481355	 0.127217
H	-2.0288902836	-0.6719835509	 1.991793815	 0.253478
115.0666	156.9459	178.7638	277.4613	325.3877	405.9334	510.8185	541.8666	568.6179	578.5753	625.3922	720.5268	774.4048	813.7766	850.5227	892.123	931.8734	1025.5248	1087.3703	1151.9326	1174.1856	1180.7321	1209.2666	1258.0368	1297.606	1326.9341	1454.1202	1930.7519	2350.8822	3139.8909	3174.6866	3436.2652	3736.6801
OC1C2NC1(C#N)C2=O	O[C@H]1[C@H]2N[C@]1(C#N)C2=O	
InChI=1S/C5H4N2O2/c6-1-5-3(8)2(7-5)4(5)9/h2-3,7-8H	InChI=1S/C5H4N2O2/c6-1-5-3(8)2(7-5)4(5)9/h2-3,7-8H/t2-,3+,5+/m1/s1
