18
gdb 88645	4.75115	0.84697	0.77909	3.6752	73.91	-0.2522	0.033	0.2852	1455.5191	0.14659	-439.089033	-439.080155	-439.079211	-439.123594	32.328	
C	-0.8428477647	 1.2858654281	 0.3583286636	-0.424197
C	-0.0390637613	 0.0577183953	 0.0125261305	 0.075177
O	 1.2240888344	 0.2470349679	-0.6346759862	-0.26488
C	 1.2151970057	-0.3569530473	 0.6653665898	 0.052019
C	 1.8946596268	 0.4018515475	 1.7727947993	 0.020535
C	 1.7895284196	-0.2179327835	 3.200971169	-0.411198
C	 3.3318752403	-0.3617780524	 3.13300853	 0.431668
O	 4.1985084803	-0.7578130875	 3.8624393347	-0.353217
N	 3.3433511312	 0.166100389	 1.8633314938	-0.322398
H	-0.2236221492	 2.0780801751	 0.7828317138	 0.130576
H	-1.3237447006	 1.6814380028	-0.5421930149	 0.135034
H	-1.6322342542	 1.0347162381	 1.0748681297	 0.127439
H	-0.6296778452	-0.7485756298	-0.4282137299	 0.093895
H	 1.4603647755	-1.4218915575	 0.6591336281	 0.094504
H	 1.6427379381	 1.4643886609	 1.7276166037	 0.090696
H	 1.4291909645	 0.454247016	 3.98069261	 0.135657
H	 1.2547760572	-1.1684506499	 3.2578364821	 0.132046
H	 4.0988182215	 0.3867610573	 1.230958043	 0.256644
47.8919	62.5498	145.3279	191.8503	209.551	342.8894	383.3571	402.886	418.7492	477.3844	550.3292	570.4035	761.5114	776.5951	820.9094	879.6103	938.7582	965.7683	980.3054	1008.0526	1031.5901	1082.4154	1093.7231	1142.0398	1171.3313	1172.7439	1192.9992	1215.0168	1263.4121	1304.7445	1325.1625	1380.9931	1407.8053	1422.6086	1458.2751	1472.1037	1490.1639	1514.6079	1901.1448	3041.8145	3070.8376	3080.3036	3086.2209	3089.7217	3102.9406	3138.2007	3146.9226	3610.9988
CC1OC1C1CC(=O)N1	C[C@H]1O[C@H]1[C@H]1CC(=O)N1	
InChI=1S/C6H9NO2/c1-3-6(9-3)4-2-5(8)7-4/h3-4,6H,2H2,1H3,(H,7,8)	InChI=1S/C6H9NO2/c1-3-6(9-3)4-2-5(8)7-4/h3-4,6H,2H2,1H3,(H,7,8)/t3-,4-,6-/m1/s1
