20
gdb 58657	1.88815	1.52541	1.18449	4.6129	80.48	-0.2481	0.0235	0.2716	1186.0644	0.169612	-399.30458	-399.294431	-399.293487	-399.339247	37.127	
C	 1.0175332003	-2.3189564458	 1.1129681753	-0.410917
C	 0.0484281255	-1.5482898691	 0.2017849467	-0.047851
N	-0.3524608701	-0.2269990269	 0.7014804906	-0.519839
C	 0.6303104643	-1.3733599733	-1.2038015697	 0.195048
C	 0.4318691357	-2.4397296217	-2.2441630138	-0.284079
N	-0.1995609776	-1.1462102815	-2.3913867007	-0.110524
C	-1.6467628481	-1.0325256609	-2.252540974	-0.317184
C	 1.869461516	-0.6122337913	-1.2186723254	 0.281217
N	 2.8572650889	-0.0117265578	-1.1820391598	-0.356978
H	 1.2356592814	-3.3168543621	 0.7175244159	 0.119545
H	 1.9647770928	-1.7807394046	 1.2207112385	 0.141432
H	 0.5791431227	-2.438109537	 2.1089655055	 0.112731
H	-0.8667087363	-2.1403397276	 0.0990782802	 0.08729
H	-0.7401881081	-0.3199462798	 1.6362097332	 0.229984
H	 0.4697960646	 0.3660164843	 0.7948144369	 0.242089
H	 1.2251011474	-2.6771361034	-2.9473889568	 0.135336
H	-0.1839885929	-3.2864761299	-1.9380747118	 0.11518
H	-2.1093650579	-1.8370663816	-1.6621025366	 0.103421
H	-1.8841413441	-0.0767402104	-1.7817448305	 0.154252
H	-2.0828593945	-1.0570129196	-3.2554326939	 0.129845
81.2759	132.496	144.5288	155.1281	204.1837	230.2234	248.746	263.7573	333.1626	361.4394	381.6492	481.8039	495.1807	580.2841	591.3347	672.5377	818.6181	865.9479	896.7202	909.9317	938.3774	1016.1029	1054.8977	1100.0545	1103.4144	1128.0636	1132.3357	1161.9689	1197.9985	1224.8118	1271.034	1330.772	1374.5061	1407.0619	1414.9253	1448.5619	1482.9695	1491.5165	1498.1254	1502.0939	1508.9925	1659.4676	2348.8983	2990.7445	3030.6164	3057.2483	3080.3145	3083.5916	3101.5816	3111.7864	3138.0754	3180.6557	3475.1396	3555.2532
CC(N)C1(CN1C)C#N	C[C@@H](N)[C@]1(CN1C)C#N	
InChI=1S/C6H11N3/c1-5(8)6(3-7)4-9(6)2/h5H,4,8H2,1-2H3	InChI=1S/C6H11N3/c1-5(8)6(3-7)4-9(6)2/h5H,4,8H2,1-2H3/t5-,6-,9?/m1/s1
