21
gdb 92507	2.64502	1.44102	1.0301	1.7212	86.83	-0.2207	0.0218	0.2425	1211.0834	0.183019	-387.081172	-387.072445	-387.071501	-387.114347	33.959	
C	-0.0476934668	 1.4883185765	 0.0241346279	-0.488427
C	-0.029702389	-0.0043148092	 0.1074262344	 0.073177
C	-1.0358355759	-0.8740879986	 0.1506238813	 0.231809
C	-2.4513408088	-1.1471569318	-0.3066473921	-0.321373
C	-1.8696968999	-2.4903397828	-0.8954867191	-0.238409
C	-0.6214733085	-2.3136588775	 0.0420659166	-0.032218
C	 0.8560030564	-2.2279957119	-0.3762353021	-0.278505
C	 1.2888004846	-0.8022165962	 0.098444789	 0.07457
O	 2.3026227539	-0.2183668829	-0.7075685653	-0.428574
H	 0.623125947	 1.8520126386	-0.7613235327	 0.121503
H	-1.0554293362	 1.8674371651	-0.167484144	 0.117546
H	 0.3068042141	 1.9394974374	 0.9605958895	 0.12885
H	-3.1486726386	-1.3442186265	 0.5150092874	 0.110743
H	-2.9149131626	-0.4358322518	-0.9952039601	 0.10659
H	-2.475644914	-3.3907368678	-0.7670356538	 0.098342
H	-1.6043835285	-2.3781844047	-1.9501746163	 0.102832
H	-0.758555417	-2.8875624607	 0.9667986745	 0.074364
H	 1.496487712	-3.0185632773	 0.024179076	 0.09844
H	 0.9438402017	-2.2551943877	-1.4705961326	 0.086828
H	 1.7432405085	-0.8409841922	 1.0978718647	 0.089742
H	 1.9726878677	-0.1964255378	-1.6132665732	 0.272169
95.2434	134.0882	150.3563	224.189	245.5426	312.5274	362.8509	396.276	469.2331	505.8257	544.0494	616.3032	695.7942	709.3204	799.4525	833.7226	896.5074	904.9024	925.0062	966.4249	1015.3836	1046.5478	1057.7552	1071.9223	1080.771	1128.7202	1132.4737	1170.3663	1198.4269	1223.378	1228.0635	1237.0216	1261.2145	1265.2183	1309.0891	1313.7994	1339.1932	1408.3632	1426.7081	1472.964	1474.1339	1479.671	1486.3479	1490.789	1771.8088	3012.2471	3018.9395	3022.1988	3025.6605	3042.3418	3056.8857	3071.6484	3093.8643	3095.3231	3111.2569	3118.9566	3788.8778
CC1=C2CCC2CC1O	C[C]1[C]2CC[C@H]2C[C@H]1O	
InChI=1S/C8H12O/c1-5-7-3-2-6(7)4-8(5)9/h6,8-9H,2-4H2,1H3	InChI=1S/C8H12O/c1-5-7-3-2-6(7)4-8(5)9/h6,8-9H,2-4H2,1H3/t6-,8+/m0/s1
