20
gdb 47914	2.13021	1.78797	1.22229	3.4179	75.77	-0.2489	0.0414	0.2903	1090.0749	0.173607	-440.300907	-440.29281	-440.291866	-440.33351	31.617	
N	-0.2600169182	 1.2782852326	 0.3457198087	-0.547602
C	-0.0066880559	 0.0723861219	 0.0675311046	 0.454442
O	 1.2411576122	-0.4383574304	-0.0561125202	-0.254836
C	 1.3843181259	-1.6692583346	-0.7890936875	-0.078905
C	 1.2923993534	-1.474849682	-2.3064407923	-0.199938
C	 0.0593194863	-0.7342499927	-2.8678773121	-0.201365
C	-1.3288977363	-1.275182302	-2.4613649493	-0.19927
C	-1.8854974963	-0.6539164583	-1.1796155233	-0.080676
O	-0.9818864571	-0.8547626769	-0.0820389718	-0.245573
H	 0.6073923351	 1.8099047158	 0.3978451896	 0.225255
H	 2.3806744099	-2.0308426946	-0.5234377948	 0.113306
H	 0.6479598473	-2.3911204225	-0.4331441851	 0.127637
H	 2.1862311068	-0.9384174847	-2.6462603081	 0.108632
H	 1.3467278726	-2.4775258514	-2.7522312405	 0.102717
H	 0.1204859624	 0.3289643474	-2.6067445047	 0.120937
H	 0.1456781853	-0.7712830901	-3.9591360808	 0.099641
H	-2.0516722905	-1.0661869776	-3.2596727958	 0.104048
H	-1.2944525332	-2.366797934	-2.3555729389	 0.103117
H	-2.0601101803	 0.4208795309	-1.2956617292	 0.133534
H	-2.8240458893	-1.1309047771	-0.8861158286	 0.114899
94.7243	140.4561	183.1909	266.3585	295.9053	361.7421	362.7801	469.3227	501.8404	579.8795	605.6965	722.0057	779.4291	789.625	845.182	853.7499	870.9655	902.7896	981.9959	998.6357	1009.9503	1044.2171	1094.0558	1109.5576	1134.2906	1146.3232	1225.2584	1237.4876	1285.3428	1295.746	1308.527	1327.7452	1370.7972	1388.0872	1396.9662	1404.0893	1435.8347	1475.4335	1480.4981	1496.7764	1503.8176	1508.2572	1750.6724	3018.2869	3025.2618	3035.155	3051.4324	3060.156	3069.2581	3074.0621	3079.3461	3111.5691	3131.2679	3512.6638
N=C1OCCCCCO1	[NH][C]1OCCCCCO1	
InChI=1S/C6H11NO2/c7-6-8-4-2-1-3-5-9-6/h7H,1-5H2	InChI=1S/C6H11NO2/c7-6-8-4-2-1-3-5-9-6/h7H,1-5H2
