16
gdb 126294	3.50657	1.15472	0.92654	1.8727	75.35	-0.2557	-0.076	0.1796	1245.4286	0.125266	-434.084231	-434.076205	-434.075261	-434.117412	29.446	
C	 0.046031668	 1.5796211723	-0.0477561218	-0.377389
C	-0.038321874	 0.0473884775	 0.0608784274	-0.258477
C	 0.6415006159	-0.4746695388	 1.2959046264	 0.393068
C	-0.0205639051	-1.0412905693	 2.3386182482	-0.34049
C	 0.7129432522	-1.501546357	 3.494169155	 0.483131
O	 0.2982913843	-2.0256781837	 4.5072092623	-0.378846
N	 2.0937837627	-1.2625700479	 3.3195261633	-0.270618
N	 2.7174001498	-0.7040517722	 2.2780681557	-0.040259
N	 2.0244043418	-0.3132247043	 1.2844905266	-0.25959
H	 1.0887521477	 1.9066681341	-0.041362695	 0.147247
H	-0.4183210863	 1.9213389854	-0.9768334894	 0.122671
H	-0.4694960534	 2.0614563295	 0.7887762667	 0.122859
H	-1.0826741627	-0.2787859414	 0.0569937064	 0.111425
H	 0.4512102921	-0.4018128496	-0.8108790125	 0.131101
H	-1.0969414925	-1.1665191523	 2.3399777072	 0.130313
H	 2.7128002397	-1.5480079121	 4.0687807734	 0.283855
58.5577	130.3053	170.9227	210.4665	277.5831	329.9469	447.3672	469.3812	538.5737	556.6283	679.81	759.3025	763.3833	782.6562	801.1317	913.1327	918.5071	977.5461	1019.9578	1076.0025	1094.6383	1111.419	1203.3867	1226.3114	1274.6146	1349.9586	1358.5484	1395.5901	1408.0911	1477.8882	1495.5163	1508.7446	1533.1994	1635.4602	1813.5914	3042.3312	3045.4387	3088.9363	3116.6681	3131.1095	3207.0288	3585.669
CCC1=CC(=O)NN=N1	CCC1=N[N]NC(=O)[CH]1	
InChI=1S/C5H7N3O/c1-2-4-3-5(9)7-8-6-4/h3H,2H2,1H3,(H,6,7,9)	InChI=1S/C5H7N3O/c1-2-4-3-5(9)7-8-6-4/h3H,2H2,1H3,(H,6,7,9)
