21
gdb 121629	4.06905	0.69166	0.6188	3.2022	76.69	-0.2645	0.0059	0.2704	1858.6339	0.179556	-461.408084	-461.397118	-461.396174	-461.445711	38.044	
C	-0.0233879302	 1.4174544019	 0.0852084321	-0.385004
C	 0.036068119	-0.1050715913	-0.0676046596	-0.191353
C	 0.7673901331	-0.5157479121	-1.3341089414	-0.049404
O	 0.7700441642	-1.9600110291	-1.3948254141	-0.240682
C	 1.3742684594	-2.5060615823	-2.4520590301	 0.417505
O	 1.9087129794	-1.8793177409	-3.3391344128	-0.380241
C	 1.3285196862	-4.0307305745	-2.4365020016	 0.044592
C	-0.1145269474	-4.5502688664	-2.4779898596	-0.392795
O	 2.0712384105	-4.5234377581	-3.5237607904	-0.438681
H	 0.9800649187	 1.8535405557	 0.1366246075	 0.12269
H	-0.5450027173	 1.8833613051	-0.7577402799	 0.122463
H	-0.5539628885	 1.6961680082	 0.9996126556	 0.123452
H	 0.5409993365	-0.5536749121	 0.7954049505	 0.112463
H	-0.9764980393	-0.5236432495	-0.0916309755	 0.111945
H	 0.2790323957	-0.1256179075	-2.2331710505	 0.124624
H	 1.803520426	-0.1616021366	-1.342154733	 0.125016
H	 1.7921326988	-4.3556054158	-1.4918621397	 0.099059
H	-0.6192321111	-4.1991932346	-3.3831956177	 0.123877
H	-0.0991495595	-5.6426250229	-2.4980097735	 0.131931
H	-0.6770727743	-4.2172646201	-1.6022139493	 0.124663
H	 2.3644367001	-3.7425365972	-4.0170292671	 0.29388
34.0026	56.2734	69.0337	104.0194	160.5516	231.6725	236.3873	240.2943	304.9509	328.294	364.6366	387.6078	436.6233	525.1517	659.2371	757.0471	764.068	864.323	890.685	917.2351	945.9376	1001.2454	1052.8325	1056.149	1104.9073	1148.1006	1169.0316	1188.1693	1253.4269	1269.1723	1296.9429	1314.2494	1335.6789	1358.2754	1395.8168	1412.1774	1420.8371	1448.0595	1490.727	1492.4617	1499.7059	1500.9136	1503.9983	1519.6571	1796.1106	2985.9867	3035.3297	3038.1917	3046.2696	3049.4768	3068.2721	3093.096	3108.2324	3114.4227	3123.1732	3134.1291	3712.7054
CCCOC(=O)C(C)O	CCCOC(=O)[C@@H](C)O	
InChI=1S/C6H12O3/c1-3-4-9-6(8)5(2)7/h5,7H,3-4H2,1-2H3	InChI=1S/C6H12O3/c1-3-4-9-6(8)5(2)7/h5,7H,3-4H2,1-2H3/t5-/m1/s1
