14
gdb 27241	2.21401	2.01084	1.07743	3.8276	65.15	-0.1955	0.032	0.2275	1035.3256	0.101515	-473.831114	-473.823539	-473.822595	-473.863524	27.687	
O	 0.0705280277	 1.3461070059	 0.249048233	-0.41707
C	-0.0510330805	 0.0191030368	 0.1155496351	 0.271561
C	-1.0900326119	-0.8168230648	 0.0597186687	 0.139269
C	-2.4840457795	-1.2780380511	-0.3166309768	-0.366318
C	-1.8051835673	-2.6662062811	-0.6407839032	-0.167004
N	-0.5494221398	-2.1131860224	-0.0819099216	-0.141576
C	 0.8029329898	-2.0759601829	-0.2505408994	 0.471764
O	 1.6290379695	-2.9014125944	-0.5137513575	-0.391063
O	 1.1188209866	-0.7146387446	 0.0287932552	-0.267484
H	 0.9837547424	 1.583020913	 0.0460034126	 0.315775
H	-3.2035730368	-1.3210829303	 0.5042184334	 0.135699
H	-2.9404648869	-0.7727580586	-1.1692933328	 0.137269
H	-2.1830212766	-3.5326771717	-0.0958483493	 0.137827
H	-1.7337194368	-2.8950231438	-1.7069168375	 0.141352
91.9121	152.2878	173.6222	253.1758	284.138	334.9656	403.8412	610.2593	634.7439	673.5007	696.5768	720.0156	734.5945	789.9892	881.5524	902.5728	989.7529	1056.5177	1090.699	1142.3555	1191.861	1222.2857	1250.1175	1307.6736	1327.4056	1340.1359	1365.4375	1485.4094	1512.4205	1817.8238	1911.7936	3070.3792	3075.058	3120.5499	3136.1	3808.6232
OC1=C2CCN2C(=O)O1	O[C]1[C]2CCN2C(=O)O1	
InChI=1S/C5H5NO3/c7-4-3-1-2-6(3)5(8)9-4/h7H,1-2H2	InChI=1S/C5H5NO3/c7-4-3-1-2-6(3)5(8)9-4/h7H,1-2H2
