21
gdb 60074	2.31516	1.14521	0.98186	4.4127	83.84	-0.2288	0.0299	0.2586	1349.1863	0.180838	-383.265187	-383.255052	-383.254108	-383.300766	37.595	
C	 0.788312735	 1.5554654484	-0.6259382507	-0.39507
C	-0.0222182732	 0.4693864315	 0.0846765616	 0.053374
C	-0.0639947488	-0.828585274	-0.7390812716	-0.390731
N	 0.5126672849	 0.3246239609	 1.4481246188	-0.356895
C	-0.2264542733	-0.4834706777	 2.3785773263	 0.20475
C	-0.0935804135	-2.0098058377	 2.4758799038	-0.291734
C	 0.5153915407	-1.1276092105	 3.5296503901	-0.315056
C	-1.5376823212	 0.0528506066	 2.6817426444	 0.284889
N	-2.5951382149	 0.4613308248	 2.9116485689	-0.355883
H	 1.8317252607	 1.2411339134	-0.7565801549	 0.106556
H	 0.3794215566	 1.7581434784	-1.6199904063	 0.118017
H	 0.7829533922	 2.4816276706	-0.0462807795	 0.129201
H	-1.0508600828	 0.8328018928	 0.2030183028	 0.110704
H	 0.9448719276	-1.2384934428	-0.8735235903	 0.102595
H	-0.6831165889	-1.5917197464	-0.2607743847	 0.124784
H	-0.4804950395	-0.6386591462	-1.73374496	 0.118327
H	 1.4850110214	 0.037078614	 1.4287352106	 0.21656
H	-0.971090334	-2.5924314594	 2.7323805087	 0.137792
H	 0.5699983052	-2.4718793856	 1.754586538	 0.125642
H	 1.5923485838	-0.9936789879	 3.5356195831	 0.127449
H	 0.056534632	-1.0930541036	 4.5101597709	 0.144729
29.1313	88.9498	144.8566	193.3749	221.5124	230.6253	263.838	314.3038	329.7845	376.2984	436.0084	462.7982	568.8915	588.2367	646.852	719.7807	779.5082	837.9526	865.1472	921.568	927.193	941.7297	948.9042	962.7586	1028.2056	1062.2429	1087.4266	1140.5957	1170.1217	1192.1088	1194.6319	1270.1924	1320.0938	1350.9783	1373.0751	1394.6825	1416.2984	1460.837	1482.5695	1484.7836	1486.8932	1490.2567	1508.6452	1512.5843	2352.1889	3023.2746	3025.3242	3037.0456	3090.5138	3100.2266	3117.269	3128.013	3137.5797	3142.4798	3224.7612	3239.9192	3532.7736
CC(C)NC1(CC1)C#N	CC(C)NC1(CC1)C#N	
InChI=1S/C7H12N2/c1-6(2)9-7(5-8)3-4-7/h6,9H,3-4H2,1-2H3	InChI=1S/C7H12N2/c1-6(2)9-7(5-8)3-4-7/h6,9H,3-4H2,1-2H3
