19
gdb 47821	2.23509	1.93147	1.21592	3.0844	75.48	-0.2267	0.0213	0.248	1046.1516	0.162407	-419.214751	-419.207031	-419.206087	-419.246879	30.546	
O	 0.1437874966	-0.01191569	 0.2158646421	-0.370812
C	 0.029567936	 1.1895973324	 0.0665989768	 0.364936
N	-1.1830366824	 1.8186115571	 0.0042373635	-0.293548
C	-1.3668277078	 3.2604294487	-0.1080416314	-0.162699
C	-0.9415517705	 4.0432571247	 1.1517714075	-0.198656
C	 0.3603876881	 3.5022320312	 1.7546872445	-0.14686
N	 1.3814986836	 3.3225829637	 0.7207064523	-0.09434
C	 2.2831062833	 2.1827051925	 0.912844207	-0.246361
C	 1.2181702371	 2.1218684731	-0.1152273428	-0.125762
H	-1.9830135157	 1.2195196793	 0.1423835195	 0.2479
H	-0.7976767708	 3.6264917217	-0.9684058368	 0.133357
H	-2.4204189945	 3.4446059349	-0.3322912074	 0.113026
H	-0.8244945423	 5.0965556158	 0.8748391961	 0.111202
H	-1.7249939464	 3.9925339565	 1.9163963098	 0.101117
H	 0.7511642828	 4.2023808899	 2.5003363569	 0.108034
H	 0.1465119263	 2.5598408955	 2.2865122763	 0.100693
H	 3.3164644687	 2.3412966024	 0.6194820661	 0.118522
H	 2.146673384	 1.5672239411	 1.7999728548	 0.126076
H	 1.490400494	 2.2668386495	-1.1600956049	 0.114177
79.9021	193.5828	250.2335	278.6287	321.6566	383.2467	409.6639	477.915	532.8097	591.2695	632.383	685.5289	748.6818	793.4482	853.7252	870.1964	911.9232	972.5876	1010.5745	1035.7292	1048.9493	1094.4621	1113.7558	1117.4188	1126.0718	1173.7596	1245.9837	1258.4099	1293.9349	1303.0186	1317.1516	1375.9803	1383.2758	1403.7734	1418.0329	1456.9249	1482.7692	1500.5928	1502.0879	1515.5888	1788.6152	2960.4423	3038.7316	3052.0131	3066.942	3084.4321	3102.9903	3104.2875	3110.5812	3192.3561	3621.4112
O=C1NCCCN2CC12	O=C1NCCCN2C[C@@H]12	
InChI=1S/C6H10N2O/c9-6-5-4-8(5)3-1-2-7-6/h5H,1-4H2,(H,7,9)	InChI=1S/C6H10N2O/c9-6-5-4-8(5)3-1-2-7-6/h5H,1-4H2,(H,7,9)/t5-,8?/m0/s1
