18
gdb 74760	2.92543	1.53027	1.31448	1.0848	77.22	-0.2153	0.0088	0.2242	1040.1117	0.148175	-401.876056	-401.868478	-401.867533	-401.90787	30.055	
C	 0.1061560437	 1.4222335919	 0.0753371593	-0.514773
C	-0.0006818041	-0.0609783695	 0.0133525963	 0.340798
C	-0.0041186373	-0.9223042297	-1.0143520343	-0.197008
C	-0.0327911469	-2.2934965659	-0.3180164855	-0.167657
N	-1.0065153343	-2.0935026106	 0.8163518645	-0.304465
C	-0.0394950429	-1.0158875131	 1.2298690007	-0.222956
C	 1.0357995627	-2.0466849362	 0.7851278729	 0.55263
C	 1.935372921	-2.9202340113	 1.5173312701	-0.293855
O	 2.4052682176	-1.8590421263	 0.6402814082	-0.282388
H	 1.0255855662	 1.7270738795	 0.5913916575	 0.138764
H	 0.119640478	 1.8649880964	-0.9244826643	 0.128901
H	-0.7274521598	 1.8653140981	 0.6349646383	 0.125841
H	 0.0767130172	-0.732714724	-2.0754074275	 0.104229
H	-0.1020680031	-3.2082528378	-0.9054117127	 0.073584
H	-1.872707133	-1.6782723091	 0.4680473376	 0.203443
H	-0.1142519091	-0.6079451144	 2.2382499817	 0.070706
H	 2.1185028562	-2.7552606304	 2.5774429781	 0.121684
H	 2.128776008	-3.9298545377	 1.159950869	 0.122522
121.7727	169.6698	237.5027	241.8689	319.2372	355.4467	467.0585	554.1167	573.1623	640.3622	657.175	781.378	812.2749	829.4378	854.9311	897.9063	905.0326	935.4795	1004.7749	1009.7705	1039.027	1063.1517	1088.2597	1105.1885	1112.4281	1143.1236	1169.2009	1182.7173	1228.917	1237.0631	1269.3366	1284.8118	1325.1744	1413.0044	1449.9177	1478.4284	1485.1497	1550.9178	1676.3804	3016.093	3062.147	3091.6719	3108.6635	3118.3856	3129.2522	3180.1319	3231.2255	3433.1472
CC1=CC2NC1C21CO1	CC1=C[C@@H]2N[C@H]1[C@]12CO1	
InChI=1S/C7H9NO/c1-4-2-5-7(3-9-7)6(4)8-5/h2,5-6,8H,3H2,1H3	InChI=1S/C7H9NO/c1-4-2-5-7(3-9-7)6(4)8-5/h2,5-6,8H,3H2,1H3/t5-,6+,7+/m0/s1
