18
gdb 50208	3.45781	1.49791	1.2634	2.172	73.76	-0.2368	-0.0273	0.2095	1008.0241	0.149461	-401.924235	-401.917032	-401.916087	-401.956173	28.037	
O	-0.5888235232	 0.7387894186	 0.6450570811	-0.246036
C	 0.1664102517	 0.9927805997	-0.2599298001	 0.14235
C	 1.3011118284	 1.9828091381	-0.1832009128	-0.07301
C	 1.2136110244	 3.1250022243	-1.2441979143	-0.283882
C	 1.7967015043	 4.3101250043	-0.4821839888	-0.017695
C	 1.1451573288	 4.7921684791	 0.76230317	-0.034872
C	 0.2560226229	 3.7290549109	 1.3886888056	-0.248265
C	 1.4304955794	 2.7487010847	 1.1295092656	-0.001339
N	 2.3778571701	 3.9101809324	 0.8238441138	-0.160337
H	 0.0610358257	 0.4870392266	-1.2481049418	 0.080676
H	 2.2271925752	 1.4190306557	-0.367442296	 0.107686
H	 1.7980280528	 2.8999060761	-2.1393923745	 0.115843
H	 0.1828035207	 3.3106430757	-1.5648015784	 0.117233
H	 2.3994026676	 5.0288273022	-1.0286499519	 0.095397
H	 1.1857794469	 5.8375908203	 1.0545871536	 0.091799
H	 0.1105695359	 3.9038917799	 2.4560770929	 0.11703
H	-0.7137741995	 3.5143188531	 0.9321625241	 0.10793
H	 1.7582563181	 2.1466852583	 1.9749634921	 0.089493
83.774	130.709	193.0795	312.2915	365.5512	418.5934	560.5798	684.8106	706.2217	752.0129	781.8297	794.84	799.9294	890.9356	922.1957	947.5009	960.0463	989.976	1002.8924	1022.7404	1057.9984	1085.4515	1101.5285	1122.4156	1139.0156	1182.5402	1197.7181	1227.6008	1264.8901	1286.8783	1289.7847	1314.6349	1352.6513	1362.5883	1404.9634	1428.9245	1493.854	1506.6428	1821.5068	2860.2674	3009.5165	3047.0263	3064.6679	3098.419	3118.0288	3132.6804	3148.219	3164.706
O=CC1CC2C3CC1N23	O=C[C@H]1C[C@H]2[C@H]3C[C@@H]1N23	
InChI=1S/C7H9NO/c9-3-4-1-6-7-2-5(4)8(6)7/h3-7H,1-2H2	InChI=1S/C7H9NO/c9-3-4-1-6-7-2-5(4)8(6)7/h3-7H,1-2H2/t4-,5+,6+,7-,8?/m1/s1
