18
gdb 53101	2.1648	1.1299	0.93967	3.7848	85.98	-0.2455	0.0181	0.2636	1364.4539	0.145712	-364.799784	-364.789676	-364.788732	-364.83645	34.919	
C	 0.0321412654	 1.5272423102	-0.0990086837	-0.500499
C	 0.0108737643	 0.0728829397	-0.0613654968	 0.079348
C	-0.018193018	-1.1310604843	-0.0330479347	 0.096028
C	-0.0454478792	-2.563049927	-0.0115926159	-0.223569
C	-0.4317603182	-3.3327888677	 1.2356715218	-0.028489
C	-0.7725127063	-2.6281035893	 2.5258567494	-0.413132
C	-1.3861325955	-3.3241344999	 0.0516865396	-0.202339
C	-2.620186213	-2.596244878	 0.11662944	 0.303248
N	-3.6241764251	-2.0233377611	 0.1667293964	-0.34419
H	 0.6459157356	 1.9404831035	 0.7089328454	 0.149219
H	 0.4405457881	 1.8919226434	-1.0478071534	 0.151859
H	-0.9786891849	 1.9356509193	 0.0063861955	 0.160413
H	 0.6876141888	-3.0452935415	-0.6524568313	 0.122546
H	 0.0910575467	-4.2774532139	 1.3561645393	 0.106015
H	-1.2912658542	-1.6853234942	 2.3409942403	 0.151878
H	-1.4155499378	-3.2558720311	 3.1504035771	 0.129268
H	 0.1396195934	-2.4071657433	 3.0890268059	 0.12681
H	-1.4435529003	-4.2278119948	-0.5456437849	 0.135586
23.0123	64.9249	92.2891	139.8934	167.8856	191.539	244.9137	315.1418	356.71	385.8706	451.7521	532.6512	619.2341	630.7592	726.5708	763.2099	803.5821	920.8706	948.2243	988.0537	1048.3009	1050.83	1055.1685	1091.0663	1142.0359	1148.4606	1185.3755	1252.6451	1362.5691	1378.0872	1410.1503	1416.5968	1426.073	1475.9973	1477.142	1488.1448	1498.3711	2353.0123	2371.3627	3029.1036	3044.822	3089.8157	3093.9228	3107.6977	3131.3818	3140.987	3152.7364	3171.2041
CC#CC1C(C)C1C#N	CC#C[C@H]1[C@@H](C)[C@H]1C#N	
InChI=1S/C8H9N/c1-3-4-7-6(2)8(7)5-9/h6-8H,1-2H3	InChI=1S/C8H9N/c1-3-4-7-6(2)8(7)5-9/h6-8H,1-2H3/t6-,7+,8-/m1/s1
