16
gdb 5129	3.37416	2.0396	1.29177	3.0628	67.85	-0.1878	0.0356	0.2234	920.9798	0.131044	-379.967792	-379.95963	-379.958685	-380.000198	29.29	
C	-0.0328213493	 1.4385793685	 0.0040317079	-0.338901
N	 0.0084901925	-0.0063575928	 0.0352572964	-0.037116
C	 0.0140088871	-0.8366411734	-1.0383329294	-0.012251
N	 0.0567995883	-2.1074391163	-0.6850947406	-0.361765
C	 0.0801500075	-2.0849305713	 0.6772664542	 0.276555
O	 0.1259259862	-3.2264510607	 1.4068478463	-0.443141
C	 0.051864825	-0.805725678	 1.177198639	 0.181334
C	 0.0612898841	-0.2842306395	 2.5714346191	-0.512757
H	 0.8547988914	 1.8700743262	 0.4783797569	 0.142206
H	-0.0657517668	 1.7680746395	-1.0362473492	 0.143808
H	-0.9210467834	 1.8197188923	 0.5185430086	 0.142274
H	-0.0146066881	-0.4622148602	-2.0508489764	 0.123642
H	 0.135526227	-3.9495123695	 0.7685986166	 0.297615
H	 0.93152587	 0.3511530622	 2.7821838444	 0.122883
H	-0.835417731	 0.3016000686	 2.8125835215	 0.122868
H	 0.0968777794	-1.1299525556	 3.2619117048	 0.152744
105.9744	135.5089	159.0828	232.9974	239.7023	292.5311	347.3529	353.9261	513.3496	587.1579	633.289	719.4945	725.7739	771.8366	789.3289	958.9501	1065.5828	1081.4532	1104.6212	1151.4088	1177.4264	1261.7497	1301.5374	1352.2883	1414.1209	1418.7368	1457.7927	1466.5044	1476.0605	1487.4682	1490.1468	1523.4614	1543.842	1686.4993	3007.6231	3034.1873	3047.5461	3090.9607	3125.1458	3134.889	3246.3889	3807.7824
CN1C=NC(O)=C1C	Cn1cnc(O)c1C	
InChI=1S/C5H8N2O/c1-4-5(8)6-3-7(4)2/h3,8H,1-2H3	InChI=1S/C5H8N2O/c1-4-5(8)6-3-7(4)2/h3,8H,1-2H3
