17
gdb 49387	3.96602	1.1069	1.05873	3.9892	73.13	-0.2505	-0.0233	0.2272	1160.2324	0.136164	-421.767632	-421.760386	-421.759442	-421.799576	28.065	
O	 0.0147954945	 0.0942943696	 0.3698351256	-0.268014
C	 0.0880091915	 1.2266809988	-0.0357586656	 0.155657
C	 1.3298907712	 2.0381973351	-0.0495169586	-0.118755
C	 1.4439650375	 3.00431699	-1.217429912	-0.095885
C	 1.1353594821	 3.5228765361	 0.180712961	-0.083088
C	 2.5103636956	 4.2339205489	 0.2019240541	 0.100523
O	 3.6311045918	 3.4861627395	 0.7260635482	-0.293733
C	 4.0362983675	 3.0750768802	-0.6100101796	-0.109037
C	 2.7985818273	 3.7522773429	-1.2307521685	-0.084527
H	-0.8089892639	 1.7521718975	-0.4434239569	 0.066471
H	 2.1975599026	 1.5399266848	 0.3657652385	 0.12634
H	 0.783363323	 2.9115636879	-2.0714515233	 0.102501
H	 0.2124359865	 3.9155286928	 0.5914255537	 0.098144
H	 2.5061651896	 5.2799048108	 0.5156242159	 0.089461
H	 4.9875212612	 3.5423715667	-0.8904270157	 0.10936
H	 4.1238662798	 1.9872680839	-0.7048841355	 0.113366
H	 2.9381630322	 4.4399484646	-2.0625501812	 0.091216
106.5265	142.8378	230.6298	256.121	328.6125	422.8823	474.1469	572.6765	699.4098	759.073	805.8051	851.1966	879.1781	906.1165	930.0461	950.626	971.6282	988.6183	1020.8543	1051.5069	1056.6064	1060.4647	1090.9796	1115.1916	1158.7456	1181.6878	1187.7536	1209.2852	1250.9318	1270.4333	1285.9761	1317.3968	1350.1666	1374.2794	1445.158	1520.7093	1827.2312	2841.3886	3025.6987	3074.5108	3089.0616	3133.1438	3175.2827	3185.0682	3193.3503
O=CC1C2C1C1OCC21	O=C[C@H]1[C@H]2[C@@H]1[C@H]1OC[C@@H]21	
InChI=1S/C7H8O2/c8-1-3-5-4-2-9-7(4)6(3)5/h1,3-7H,2H2	InChI=1S/C7H8O2/c8-1-3-5-4-2-9-7(4)6(3)5/h1,3-7H,2H2/t3-,4-,5+,6+,7-/m0/s1
