20
gdb 74363	2.65642	1.18886	0.87556	4.5899	86.27	-0.2513	0.0062	0.2575	1345.8924	0.172395	-366.058876	-366.05013	-366.049186	-366.092315	33.201	
C	-0.0180293835	 1.5467248019	 0.0715184207	-0.473218
C	 0.0154902998	 0.0452349398	-0.0148960864	 0.300992
C	-0.0212185213	-0.5921560081	-1.1868510085	-0.139991
C	-0.0092449806	-2.1043447318	-1.3318465	-0.180583
C	-0.3405607088	-2.8148492789	 0.0002376571	-0.204758
C	 0.4527709816	-2.175120853	 1.1413809873	-0.227829
C	 0.0865286039	-0.6946040102	 1.3020982475	-0.278469
C	-0.9307758813	-2.5290465875	-2.3927407276	 0.258476
N	-1.6586096751	-2.8639275874	-3.2259315722	-0.327213
H	 0.8872170071	 1.9337870027	 0.5562933358	 0.125821
H	-0.1043562055	 2.0103112512	-0.9143309385	 0.126253
H	-0.8654950883	 1.8830406531	 0.6825398297	 0.128546
H	-0.0624491323	-0.0260781489	-2.1132589992	 0.099975
H	 0.9940218304	-2.421610979	-1.6563671428	 0.130535
H	-1.4150763976	-2.7211385505	 0.1942328915	 0.120789
H	-0.1212543034	-3.8827815499	-0.0880146809	 0.113598
H	 0.2695143194	-2.7145222813	 2.0760661659	 0.10238
H	 1.5262771551	-2.2654918205	 0.9312456738	 0.104352
H	 0.8109003552	-0.1956766322	 1.9587051139	 0.105837
H	-0.882377315	-0.5970735597	 1.8145017229	 0.114504
86.1065	126.1447	166.5783	195.6898	263.2488	325.1023	333.1171	406.6933	445.7894	457.4987	543.7132	564.6302	631.5958	782.8685	826.5865	853.1774	898.0464	916.7111	955.244	990.3956	1030.29	1043.1332	1073.2351	1087.306	1130.8001	1160.7797	1190.9548	1227.9197	1275.2948	1297.5156	1320.2424	1337.0305	1376.1999	1382.6329	1398.1471	1413.7381	1473.7751	1479.2657	1488.1858	1491.4365	1498.2995	1737.8379	2355.567	2985.2457	2999.7243	3018.22	3023.7331	3041.8083	3045.6627	3065.4717	3079.1424	3094.1719	3116.3664	3164.6287
CC1=CC(CCC1)C#N	CC1=C[C@@H](CCC1)C#N	
InChI=1S/C8H11N/c1-7-3-2-4-8(5-7)6-9/h5,8H,2-4H2,1H3	InChI=1S/C8H11N/c1-7-3-2-4-8(5-7)6-9/h5,8H,2-4H2,1H3/t8-/m1/s1
