17
gdb 11513	4.54916	1.04339	0.94025	1.8328	69.33	-0.252	0.023	0.275	1228.3212	0.143313	-360.018665	-360.010193	-360.009249	-360.052155	30.371	
N	 0.1418825442	 1.4352335051	 0.1511327415	-0.492909
C	-0.0861815306	-0.0004186265	-0.0227611276	-0.125448
C	-1.6000418391	-0.3094319486	 0.0011517533	-0.218296
C	-2.2190139286	-0.0129708217	 1.3472014346	 0.033975
C	-3.4279532301	-0.7457923861	 1.7912287773	-0.251691
N	-2.1270476265	-0.9992243558	 2.4400931731	-0.317089
C	 0.5288886958	-0.5408768496	-1.2552767355	 0.254028
N	 1.0132577896	-0.9232931067	-2.2333287793	-0.319944
H	 1.1344026191	 1.6262615962	 0.2466691005	 0.247445
H	-0.1722572286	 1.9366691793	-0.6753811339	 0.24183
H	 0.3824378108	-0.5120834886	 0.8264140593	 0.140035
H	-2.0863362198	 0.2850336075	-0.7833453721	 0.117557
H	-1.75663767	-1.362400866	-0.260793219	 0.113638
H	-2.0794403629	 1.009456763	 1.686503773	 0.11552
H	-4.16549488	-0.2534716561	 2.4183335522	 0.123872
H	-3.8351605013	-1.5062166216	 1.1289204061	 0.112127
H	-1.7418990019	-1.8733094536	 2.0864517364	 0.225351
71.6344	92.052	127.7127	207.4603	252.549	280.2322	342.6267	405.4342	459.8786	562.1013	586.7575	790.6938	821.3172	839.9882	903.2418	921.795	953.013	971.7936	994.3738	1061.3273	1108.3494	1129.2173	1139.7615	1167.2902	1239.8196	1252.9679	1289.3235	1291.7502	1318.2363	1355.5549	1395.5735	1428.9169	1473.3521	1514.2477	1663.3793	2343.8052	3024.4267	3047.5259	3072.4899	3107.4189	3156.4466	3193.1078	3477.1696	3494.9092	3576.3176
NC(CC1CN1)C#N	N[C@@H](C[C@H]1CN1)C#N	
InChI=1S/C5H9N3/c6-2-4(7)1-5-3-8-5/h4-5,8H,1,3,7H2	InChI=1S/C5H9N3/c6-2-4(7)1-5-3-8-5/h4-5,8H,1,3,7H2/t4-,5-/m0/s1
