25
gdb 118702	3.06109	1.05649	0.92005	0.1202	93.22	-0.2771	0.0867	0.3638	1433.1185	0.229517	-352.306763	-352.297312	-352.296368	-352.340972	37.12	
C	-2.5998771595	 1.4534488636	-1.3011471088	-0.380334
C	-2.6007048441	-0.0660784618	-1.111884476	-0.157896
C	-1.5360097536	-0.5457923997	-0.1141816902	-0.270877
C	-1.421975119	-2.0823804307	 0.001514611	 0.401654
C	-0.4802903277	-2.5685843483	-1.1079980889	-0.482267
C	-1.2658119609	-2.6931209631	 1.4481772917	-0.092581
C	-2.7510704715	-2.3010604915	 1.7208302716	-0.227798
C	-2.7307878283	-2.9185392167	 0.2923057566	-0.076026
C	-1.8340149646	-4.0357304132	 0.9055684573	-0.240386
H	-3.3761422372	 1.7697052058	-2.0052210278	 0.109274
H	-2.7808180006	 1.9711487962	-0.352340314	 0.112358
H	-1.6364029407	 1.8040175309	-1.6879133049	 0.112746
H	-3.5905724159	-0.3899773406	-0.7662354988	 0.098319
H	-2.4477214821	-0.5527118866	-2.0835262233	 0.095944
H	-0.5579791026	-0.1566793552	-0.4272164701	 0.084817
H	-1.731339723	-0.081134839	 0.8569385724	 0.092714
H	 0.5415477248	-2.2211414169	-0.9149635839	 0.114377
H	-0.4428331589	-3.6513067262	-1.2303514012	 0.113833
H	-0.7826191363	-2.1477106529	-2.0732550368	 0.115257
H	-0.4166849301	-2.5630481453	 2.1235810346	 0.061313
H	-3.261556953	-2.8928534542	 2.4849539493	 0.085224
H	-3.0025540248	-1.2463910293	 1.8226116691	 0.091397
H	-3.5844104853	-3.0573838556	-0.3747879102	 0.062748
H	-1.2112887307	-4.6327504672	 0.2417104925	 0.089987
H	-2.3232118346	-4.6743131725	 1.6457510088	 0.086204
80.6796	89.9716	136.1047	179.2732	238.2053	256.0681	303.7858	392.744	423.4757	429.3376	550.3415	597.0331	686.1179	743.1089	771.342	799.4949	859.3622	873.3963	895.9547	899.348	902.3285	961.4203	1001.1587	1006.9768	1021.8849	1038.88	1049.8568	1078.7132	1094.8604	1106.6199	1111.349	1140.9901	1184.1213	1192.4626	1204.7872	1214.3706	1237.7664	1251.7476	1260.7876	1308.3608	1320.4922	1344.0669	1392.114	1411.2028	1415.7378	1483.2528	1488.9235	1497.7029	1499.2066	1500.2198	1511.0469	1527.8232	1556.79	3016.572	3024.1107	3028.0654	3033.0894	3047.8506	3064.2927	3066.1809	3074.0706	3079.7913	3084.5883	3091.2154	3095.2833	3099.2956	3127.183	3141.9268	3149.7217
CCCC1(C)C2CC1C2	CCC[C@@]1(C)[C@H]2C[C@@H]1C2	
InChI=1S/C9H16/c1-3-4-9(2)7-5-8(9)6-7/h7-8H,3-6H2,1-2H3	InChI=1S/C9H16/c1-3-4-9(2)7-5-8(9)6-7/h7-8H,3-6H2,1-2H3/t7-,8+,9-
