16
gdb 13848	4.59436	1.59493	1.20838	3.1634	69.43	-0.2024	0.012	0.2145	964.499	0.132584	-379.972048	-379.964451	-379.963507	-380.004355	27.945	
N	-0.0234987843	 1.3826694852	 0.042360825	-0.568783
C	 0.0357366126	-0.0102423799	 0.0171045755	 0.435947
O	 1.0854614656	-0.6248641761	-0.0525659893	-0.398425
N	-1.1809967726	-0.6489502153	 0.0387195268	-0.110243
C	-1.258864345	-2.1212979499	 0.0172627738	-0.15185
C	-2.7816402609	-2.4173828759	 0.096287904	-0.281421
C	-3.408505006	-1.0594543001	-0.1425394343	-0.160894
C	-2.4637643727	-0.118194512	-0.1462642819	 0.007629
H	 0.8920775445	 1.7781591374	 0.2000719527	 0.260072
H	-0.7397909444	 1.8030970629	 0.6161892472	 0.2501
H	-0.8127860086	-2.4952117506	-0.9100294262	 0.127953
H	-0.6869280853	-2.5391101952	 0.8473999271	 0.130226
H	-3.084641111	-3.1613372264	-0.6473875516	 0.116261
H	-3.0655040626	-2.8224990291	 1.076443536	 0.11429
H	-4.4670427113	-0.8831370885	-0.2632697662	 0.10263
H	-2.5787058179	 0.9453846633	-0.2972929486	 0.126509
75.5659	103.9717	149.5477	220.5402	397.9187	418.1785	462.6924	547.2038	592.335	649.1827	716.0609	759.9836	776.3544	840.8525	877.7664	919.8807	932.624	988.4247	1067.8362	1080.1598	1133.426	1186.0548	1202.1582	1235.1805	1265.9325	1310.7864	1325.6357	1416.6798	1455.0721	1493.3497	1521.6105	1624.462	1684.2119	1784.3867	3016.9091	3049.806	3067.9641	3113.2071	3233.1632	3256.242	3567.7328	3676.5848
NC(=O)N1CCC=C1	NC(=O)N1CCC=C1	
InChI=1S/C5H8N2O/c6-5(8)7-3-1-2-4-7/h1,3H,2,4H2,(H2,6,8)	InChI=1S/C5H8N2O/c6-5(8)7-3-1-2-4-7/h1,3H,2,4H2,(H2,6,8)
