18
gdb 53835	3.95473	0.90903	0.7849	2.0706	75.05	-0.2389	-0.0246	0.2143	1455.4009	0.148407	-435.288367	-435.279127	-435.278183	-435.323358	34.054	
N	-0.1254776125	 1.234157851	 0.0914228211	-0.504263
C	 0.0628335332	-0.098487729	-0.1233955348	 0.250593
N	 1.1899327627	-0.5867393372	-0.4870884007	-0.52391
C	-1.2357303035	-0.8742001552	 0.120187635	 0.379206
O	-2.097355097	-0.4394292537	 0.8650876138	-0.381156
N	-1.3338890888	-2.0581345424	-0.5436391279	-0.344282
C	-2.5198983087	-2.861555221	-0.4755549355	 0.063728
C	-2.3724354669	-4.3453239331	-0.6666768236	-0.298927
C	-2.7071218237	-3.787907377	 0.6950291594	-0.241109
H	 0.7015736998	 1.7990503637	 0.1986998555	 0.260114
H	-0.9375736173	 1.4701717972	 0.6415600739	 0.271854
H	 1.139454706	-1.5992646811	-0.5721235671	 0.207452
H	-0.6960841911	-2.2137204448	-1.3091522358	 0.253801
H	-3.4118878601	-2.3828670606	-0.8709385035	 0.111883
H	-3.1419038597	-4.8624943241	-1.2278235621	 0.124525
H	-1.3705045632	-4.7339542729	-0.8152318617	 0.117955
H	-1.9270547703	-3.7956212935	 1.4466133375	 0.127132
H	-3.7121737989	-3.9135430363	 1.0797296665	 0.125404
41.0326	82.8687	96.0522	139.3576	270.5077	315.0076	375.1029	402.3825	460.5371	515.296	533.3173	550.4248	583.5049	643.099	766.7276	806.4097	828.6839	843.8614	852.8573	887.7717	997.5022	1016.8381	1063.8607	1080.8847	1118.7514	1124.3622	1148.7332	1189.9088	1194.124	1232.011	1274.7307	1398.7271	1418.0912	1463.64	1501.5832	1527.893	1599.6424	1715.3711	1773.1081	3137.2119	3139.3183	3150.6237	3221.9222	3241.6093	3510.8236	3580.3325	3619.1309	3707.813
NC(=N)C(=O)NC1CC1	NC(=N)C(=O)NC1CC1	
InChI=1S/C5H9N3O/c6-4(7)5(9)8-3-1-2-3/h3H,1-2H2,(H3,6,7)(H,8,9)	InChI=1S/C5H9N3O/c6-4(7)5(9)8-3-1-2-3/h3H,1-2H2,(H3,6,7)(H,8,9)
