14
gdb 25196	2.58784	1.83142	1.15092	5.25	76.34	-0.2378	-0.0756	0.1622	1001.8364	0.103734	-432.903407	-432.896146	-432.895202	-432.935807	27.024	
N	-0.0238895481	 1.3933146021	-0.1871167235	-0.497093
C	 0.0307800141	 0.1617108686	 0.1175241752	 0.27956
N	-1.1794461723	-0.4832099252	 0.3943317567	-0.312992
C	-1.4477663192	-1.7503082661	 0.8014970267	 0.037901
C	-0.588251552	-2.6758033167	 1.3001010955	-0.149863
C	 0.7979440674	-2.4383338185	 1.5802005474	 0.01233
N	 1.6108901811	-1.5665557787	 1.0885824702	-0.263042
C	 1.3239427528	-0.6618099853	 0.0851655372	 0.30192
O	 2.1251277097	-0.3870088809	-0.7803434302	-0.305218
H	 0.9036865362	 1.7068490535	-0.4742011506	 0.249903
H	-1.9693236104	 0.1088559665	 0.1728802002	 0.272804
H	-2.5040467246	-1.9928475095	 0.7440528598	 0.138293
H	-1.0150684774	-3.6105168865	 1.6426147165	 0.10969
H	 1.2318145226	-3.0921729332	 2.3417529589	 0.125809
50.9389	113.7945	302.3955	331.0563	341.267	406.6772	477.5441	543.7747	607.4025	676.7454	695.6279	758.5892	771.7738	821.7684	896.058	930.8847	967.0751	978.1879	1001.0334	1029.9083	1162.1032	1189.8475	1299.6396	1396.3865	1437.2649	1463.4178	1524.5051	1605.4302	1706.1808	1707.4295	1770.3222	3090.4493	3185.3953	3209.3128	3495.4879	3588.0841
N=C1NC=CC=NC1=O	[NH][C]1NC=CC=NC1=O	
InChI=1S/C5H5N3O/c6-4-5(9)8-3-1-2-7-4/h1-3H,(H2,6,7,8,9)	InChI=1S/C5H5N3O/c6-4-5(9)8-3-1-2-7-4/h1-3H,(H2,6,7,8,9)
