18
gdb 44483	3.60011	1.61045	1.48251	3.5132	74.25	-0.2381	-0.0147	0.2234	930.2551	0.151371	-401.943525	-401.937223	-401.936279	-401.974011	26.679	
O	 0.0239487257	 0.0450898841	-0.201610549	-0.325028
C	-0.0270268268	 1.2286537527	-0.0100611958	 0.437689
C	-1.2896791678	 2.0986343343	 0.1623014806	-0.373097
C	-0.6830398306	 3.4474865508	 0.5154435216	 0.019395
C	 0.1604782366	 4.2465774895	-0.5393013144	-0.04459
C	 1.0837784895	 4.5162834096	 0.6684595646	-0.169976
N	 0.6705231207	 3.1542856565	 1.169286194	-0.143788
C	 1.1193384746	 2.2272566085	 0.0747092512	-0.098237
C	 0.9500110194	 3.117738904	-1.220756205	-0.260675
H	-1.8956014257	 2.0893018297	-0.7484792598	 0.134034
H	-1.9049728589	 1.7005144116	 0.9746750267	 0.141549
H	-1.2932226788	 4.0852981351	 1.1561109219	 0.08595
H	-0.2549175056	 5.0341844673	-1.1699467671	 0.067508
H	 2.1553706605	 4.6498782243	 0.493517872	 0.10237
H	 0.7167853533	 5.2800650651	 1.358186248	 0.110658
H	 2.1025596515	 1.7929563069	 0.2406770179	 0.090395
H	 0.4072496751	 2.6089609092	-2.022374525	 0.114171
H	 1.9077733372	 3.4559905707	-1.6233984421	 0.111673
129.8798	305.6543	335.5952	434.7918	492.9341	529.68	584.552	684.8287	703.9978	772.3718	798.9179	827.2014	851.5583	877.9095	902.9529	940.1249	949.8591	987.7076	1004.5735	1023.4838	1028.6232	1063.3756	1096.9737	1123.9518	1157.6463	1176.2688	1213.5626	1221.71	1243.9652	1253.0129	1264.0968	1284.1482	1296.9105	1308.4095	1360.5406	1445.5364	1505.1403	1524.3743	1868.7678	3055.1372	3060.4266	3064.0061	3099.9231	3105.1615	3106.8695	3111.3372	3117.6824	3148.1505
O=C1CC2C3CN2C1C3	O=C1C[C@@H]2[C@H]3CN2[C@@H]1C3	
InChI=1S/C7H9NO/c9-7-2-5-4-1-6(7)8(5)3-4/h4-6H,1-3H2	InChI=1S/C7H9NO/c9-7-2-5-4-1-6(7)8(5)3-4/h4-6H,1-3H2/t4-,5-,6-/m1/s1
