16
gdb 13294	5.061	1.22397	1.09141	1.6535	72.53	-0.2311	0.0126	0.2437	1084.8638	0.129574	-346.569533	-346.561602	-346.560658	-346.602566	28.458	
C	-0.0387924873	-1.1770481743	 0.3918823448	-0.457994
C	-0.0170014582	-0.0080563983	 0.1150508865	 0.310573
C	 0.0264336986	 1.4164887081	-0.2156475695	-0.460092
C	 1.413583134	 1.9981535944	-0.1438069093	 0.321622
C	 2.0928423165	 2.6283227566	-1.0963662216	-0.213899
C	 3.4308626584	 3.063292524	-0.5722955003	-0.099626
O	 3.4656855631	 2.6177760428	 0.7815382102	-0.264995
C	 2.2495321543	 1.9557369674	 1.11033587	-0.145587
H	-0.0634351323	-2.2108850726	 0.6328211416	 0.200274
H	-0.3863380138	 1.5761282661	-1.2183112405	 0.140084
H	-0.6341186036	 1.9581952049	 0.477726721	 0.141727
H	 1.7609632147	 2.8162757311	-2.1101041475	 0.101496
H	 4.2674719157	 2.6179700485	-1.1342328178	 0.10629
H	 3.5638280655	 4.1566390892	-0.6110129639	 0.104034
H	 1.7556835902	 2.4682154347	 1.9529338633	 0.099464
H	 2.4542379342	 0.9245199173	 1.4352045028	 0.11663
55.3171	96.3827	115.1277	245.7263	298.4634	338.7094	410.3647	487.9396	623.4332	642.6113	676.3445	775.8179	823.1761	890.492	924.8864	934.0223	956.8729	992.4016	1029.223	1064.5955	1111.4092	1170.6961	1199.1019	1211.1372	1224.3287	1304.6944	1333.9985	1371.1411	1397.7206	1459.5742	1516.1012	1529.0421	1733.2058	2239.9004	2962.1935	2970.8615	2983.8719	2999.5671	3000.5501	3058.9227	3210.6419	3505.9455
C#CCC1=CCOC1	C#CCC1=CCOC1	
InChI=1S/C7H8O/c1-2-3-7-4-5-8-6-7/h1,4H,3,5-6H2	InChI=1S/C7H8O/c1-2-3-7-4-5-8-6-7/h1,4H,3,5-6H2
