13
gdb 44717	3.49882	1.39745	1.18342	4.6117	57.86	-0.2879	-0.0258	0.2621	990.5354	0.090137	-493.761584	-493.754875	-493.753931	-493.79337	24.846	
O	-0.1198498687	 0.2168434096	 0.5263009761	-0.29595
C	-0.0103553859	 1.3176844586	 0.1060709467	 0.439161
O	-0.9996427768	 2.1494544162	-0.3747166864	-0.250564
C	-0.0528588581	 3.2254427817	-0.683333977	 0.088849
C	-0.1418741043	 4.4019947766	 0.2643686345	-0.389909
C	 0.8823959159	 4.1071900836	 1.3647492191	 0.426778
O	 1.1030955827	 4.728568434	 2.3550091927	-0.302735
O	 1.5941953445	 2.9714304895	 1.0447338448	-0.212585
C	 1.1059412344	 2.3620002665	-0.1352363714	-0.093749
H	-0.0780293275	 3.4571051754	-1.746551068	 0.120826
H	 0.1243633645	 5.3478728285	-0.2154084935	 0.158479
H	-1.1359038329	 4.5164197804	 0.7014935088	 0.173538
H	 1.9355644223	 2.0632990696	-0.7749698163	 0.13786
90.9848	107.8475	248.7382	356.3573	468.9338	487.1336	548.4474	649.069	659.2363	749.1466	804.1635	836.53	862.5003	883.3567	958.293	1002.2364	1037.2414	1099.2063	1108.5319	1147.7188	1179.7153	1209.8357	1276.4025	1305.0384	1341.5429	1361.7495	1441.1252	1906.7685	1957.5809	3080.3552	3128.3476	3131.6207	3139.9196
O=C1OC2CC(=O)OC12	O=C1O[C@H]2CC(=O)O[C@@H]12	
InChI=1S/C5H4O4/c6-3-1-2-4(9-3)5(7)8-2/h2,4H,1H2	InChI=1S/C5H4O4/c6-3-1-2-4(9-3)5(7)8-2/h2,4H,1H2/t2-,4+/m0/s1
