18
gdb 6000	2.71625	1.74103	1.41918	2.8755	73.65	-0.2427	-0.0144	0.2283	982.0518	0.149076	-347.79319	-347.783411	-347.782467	-347.827556	35.417	
C	 0.2493004815	 1.4982153822	 0.0362890972	-0.491067
C	-0.1134966781	 0.0218781835	 0.0463513945	 0.393383
O	-0.4959225568	-0.5208542062	 1.0524636064	-0.292176
C	-0.0158068062	-0.754517576	-1.3000386495	-0.075156
C	-1.3421110586	-0.4808943871	-2.063424498	-0.408326
C	 1.1881206789	-0.2962675459	-2.1555723895	-0.421409
C	 0.0983984393	-2.1887572931	-1.033367179	 0.376175
C	 0.2120347438	-3.3729437841	-0.8667896713	-0.481665
H	 1.3354022717	 1.6143803944	-0.0485314292	 0.149041
H	-0.1961356965	 2.0288044728	-0.810260422	 0.136787
H	-0.0823302671	 1.9466871758	 0.9732984366	 0.145498
H	-1.4556000839	 0.5857711495	-2.2805596754	 0.116159
H	-1.3399623351	-1.0253218762	-3.0113999083	 0.132629
H	-2.1994661704	-0.8147269322	-1.474601661	 0.144064
H	 2.1315231171	-0.4463165412	-1.6234474568	 0.130952
H	 1.2265303473	-0.8827562048	-3.0772096456	 0.133259
H	 1.1026572178	 0.7588973551	-2.4285052044	 0.116523
H	 0.3052733752	-4.4165563166	-0.6941370846	 0.195326
34.285	145.3717	162.3238	181.9948	214.47	239.6957	268.9988	292.8684	335.5387	408.8005	436.4758	527.46	590.6506	614.9777	633.8149	640.6449	652.4406	830.8552	930.187	943.8941	974.6585	1006.3779	1051.6264	1135.5003	1147.7522	1217.073	1272.2881	1379.7893	1391.5967	1417.6561	1459.6371	1474.9317	1483.7666	1487.0616	1499.423	1508.8251	1815.9071	2239.4804	3041.1355	3042.6804	3047.6864	3105.9415	3115.8864	3121.5743	3123.8425	3132.5517	3153.7903	3502.5002
CC(=O)C(C)(C)C#C	CC(=O)C(C)(C)C#C	
InChI=1S/C7H10O/c1-5-7(3,4)6(2)8/h1H,2-4H3	InChI=1S/C7H10O/c1-5-7(3,4)6(2)8/h1H,2-4H3
