29
gdb 123139	5.28518	0.42261	0.40435	0.0587	101.46	-0.2929	0.0861	0.379	2876.1336	0.273257	-354.78315	-354.770708	-354.769764	-354.822104	44.618	
C	 0.1033349753	 1.6091178914	-0.0363282924	-0.378902
C	 0.0576000552	 0.0787657271	-0.0554347202	-0.162657
C	-1.365508508	-0.484198033	 0.0251889522	-0.158821
C	-1.4215031874	-2.0153348182	 0.0086396902	-0.176573
C	-2.8461096696	-2.5766597286	 0.0861090685	-0.190761
C	-2.8909724894	-4.1093816103	 0.0770641596	-0.164381
C	-4.3012449838	-4.7274742501	 0.0503417115	 0.043434
C	-4.218048215	-6.247058255	-0.1495019269	-0.387485
C	-5.1140551171	-4.3950307003	 1.3097752231	-0.379643
H	 1.1313082695	 1.9808633982	-0.0935968482	 0.109323
H	-0.451100494	 2.0322971167	-0.8815482704	 0.112214
H	-0.3436195123	 2.0067309803	 0.8818033596	 0.112222
H	 0.5414674146	-0.2912570176	-0.9691545233	 0.092677
H	 0.6503238505	-0.3160240407	 0.7805757517	 0.092671
H	-1.8505685477	-0.1122340953	 0.9387866664	 0.089421
H	-1.9589356389	-0.0893731071	-0.8116840537	 0.089356
H	-0.9334833355	-2.3871049988	-0.9032627519	 0.08983
H	-0.8303694509	-2.4090154587	 0.8475355298	 0.090247
H	-3.3304811998	-2.190682129	 0.9918519783	 0.094887
H	-3.4332446261	-2.1914871625	-0.7597659877	 0.089129
H	-2.3360431628	-4.4706040968	-0.7998584026	 0.085951
H	-2.3497630112	-4.4946526484	 0.9539709456	 0.086619
H	-4.8328139848	-4.3040520725	-0.8149381521	 0.068012
H	-3.6875788803	-6.7227739248	 0.6844250508	 0.109749
H	-5.2151343076	-6.6965873666	-0.2059887049	 0.106634
H	-3.6822105086	-6.5005620761	-1.0704066433	 0.10738
H	-4.6127578401	-4.7752897104	 2.2085161641	 0.108567
H	-5.2547844198	-3.3179269328	 1.4371898022	 0.113287
H	-6.1073038544	-4.8544854402	 1.2667564841	 0.107612
46.209	48.1035	75.1391	106.5983	127.7436	160.2371	192.7031	222.0687	239.4344	250.4259	257.1051	330.2424	385.0416	412.5745	476.4647	483.5142	731.4565	742.7671	790.94	824.2363	880.7242	898.255	926.5747	946.445	965.0217	981.7086	1011.6729	1032.7902	1052.108	1063.9294	1072.1964	1111.5473	1160.2251	1191.8669	1205.3679	1233.5923	1254.3396	1285.0824	1308.4003	1322.7821	1331.4867	1338.4352	1348.8936	1370.8318	1380.5986	1398.4601	1400.5056	1403.0826	1413.9753	1423.1563	1476.8351	1482.4191	1484.5227	1488.5341	1493.498	1496.7419	1500.6166	1505.1488	1506.3376	1511.9024	1514.9358	2989.5307	2996.6271	2999.9374	3001.7457	3011.0517	3016.9569	3020.8054	3021.3358	3026.6461	3027.9407	3028.3878	3035.1923	3052.4568	3066.0336	3084.9779	3091.3329	3094.5754	3095.8545	3099.6365	3106.1937
CCCCCCC(C)C	CCCCCCC(C)C	
InChI=1S/C9H20/c1-4-5-6-7-8-9(2)3/h9H,4-8H2,1-3H3	InChI=1S/C9H20/c1-4-5-6-7-8-9(2)3/h9H,4-8H2,1-3H3
