16
gdb 125989	4.72546	1.15458	0.97845	3.8972	71.59	-0.2263	0.0164	0.2427	1183.6927	0.126214	-434.06007	-434.052363	-434.051419	-434.092579	28.66	
C	-0.3224713466	 1.5782925704	-0.0203772778	-0.401997
C	 0.0842342262	 0.1136440342	 0.0734178141	-0.13242
C	 0.7492128237	-0.5446373562	-1.2173622737	-0.183194
N	 1.9591729698	-0.6791594523	-0.3860214594	 0.069861
N	 3.1195372661	-1.3612423863	-0.1573397686	-0.349182
C	 3.1990954482	-1.180822979	 1.1629677856	 0.410888
O	 4.2567473236	-1.6287392287	 1.8493706172	-0.39893
N	 2.1690597411	-0.5118311812	 1.7887950764	-0.4631
C	 1.4145144243	-0.2350797746	 0.7381744668	 0.351498
H	 0.4949732051	 2.1892196566	-0.4151990503	 0.131684
H	-1.1907661138	 1.6976729333	-0.6760170147	 0.125482
H	-0.589230861	 1.9670481603	 0.9666368107	 0.139871
H	-0.7412413749	-0.4980048159	 0.4496034752	 0.113531
H	 0.3117957471	-1.5019327563	-1.5112346374	 0.140931
H	 0.8746113405	 0.1034236556	-2.0884078675	 0.132998
H	 4.0987531705	-1.3976643998	 2.7728315035	 0.312078
69.6244	141.513	213.2927	252.3062	301.1704	383.538	418.0021	426.4139	551.8459	612.8124	716.0477	756.0532	769.1181	812.869	889.4344	921.8194	1001.4068	1027.4563	1080.79	1107.7238	1136.6108	1166.0421	1199.482	1217.9391	1258.1753	1298.4877	1351.6799	1395.5594	1412.8433	1486.8696	1494.2762	1496.1652	1521.5824	1554.6604	1619.3387	3039.9682	3062.7134	3070.28	3112.1882	3117.5397	3124.1571	3811.747
CC1CN2N=C(O)N=C12	C[C@H]1Cn2nc(O)nc12	
InChI=1S/C5H7N3O/c1-3-2-8-4(3)6-5(9)7-8/h3H,2H2,1H3,(H,7,9)	InChI=1S/C5H7N3O/c1-3-2-8-4(3)6-5(9)7-8/h3H,2H2,1H3,(H,7,9)/t3-/m0/s1
