14
gdb 15966	3.1877	1.92646	1.36646	3.7364	62.03	-0.2628	0.0048	0.2676	876.954	0.107537	-378.67762	-378.670543	-378.669598	-378.709194	25.854	
N	-0.2994341691	-0.9865724552	-0.6883272406	-0.325999
C	-0.1581743384	 0.0973405088	-0.3129030383	 0.306107
C	 0.0476175588	 1.4754530948	 0.1298813636	-0.213955
N	 0.1455284694	 1.6665407001	 1.5986355041	-0.313432
C	 1.3194301583	 2.5716087557	 1.4584599901	-0.255106
C	 1.4692253415	 2.0738046244	 0.0208224592	 0.422535
C	 2.6238121268	 1.5962128416	-0.7298065333	-0.250563
O	 1.9315462997	 2.8181979074	-1.0678978129	-0.254601
H	-0.678705953	 2.1250970073	-0.3778479358	 0.127296
H	-0.6773324334	 2.081288759	 2.0197038519	 0.236925
H	 1.0868550195	 3.6441255683	 1.4904040345	 0.118063
H	 2.1332152684	 2.3562455597	 2.1569434747	 0.127015
H	 3.6231538762	 1.7288506092	-0.320160399	 0.130041
H	 2.5032168854	 0.7825942089	-1.4419499182	 0.145676
99.1523	124.7592	213.9649	309.8303	346.5095	381.258	516.031	552.8189	582.5609	698.2169	859.2374	878.1278	896.2225	916.7748	980.5807	1012.7457	1061.6624	1107.0324	1117.5351	1132.4051	1163.0455	1178.3482	1214.3639	1305.6979	1352.3656	1385.9081	1447.8608	1511.8137	1542.202	2357.1148	3013.7128	3020.8781	3084.1902	3096.4498	3191.063	3550.6328
N#CC1NCC11CO1	N#C[C@H]1NC[C@]21CO2	
InChI=1S/C5H6N2O/c6-1-4-5(2-7-4)3-8-5/h4,7H,2-3H2	InChI=1S/C5H6N2O/c6-1-4-5(2-7-4)3-8-5/h4,7H,2-3H2/t4-,5-/m1/s1
