18
gdb 63712	3.57943	1.14741	1.03059	4.5031	77.85	-0.2761	-0.0024	0.2738	1203.6451	0.145819	-401.931412	-401.922694	-401.92175	-401.964391	33.232	
C	-0.0040976866	 1.55660802	 0.100026785	-0.449652
C	-0.0053049863	 0.0347206518	 0.0046953719	 0.295917
C	-1.4042239115	-0.5354767618	-0.2250395689	-0.450208
C	 1.0626906951	-0.6003190929	-0.9750345802	-0.360032
C	 1.6916632019	-1.3066269457	 0.2343847612	 0.322214
O	 2.0837784957	-0.2923617776	 1.1713892368	-0.270671
C	 0.7167343339	-0.6933723672	 1.1645602349	-0.070923
C	 2.3590186598	-2.5702281399	 0.2791053722	 0.200775
N	 2.8822937252	-3.6015914371	 0.2720710903	-0.33802
H	 0.9969613842	 1.9293143191	 0.3305416023	 0.137104
H	-0.3283933625	 2.0035407476	-0.8460255352	 0.120139
H	-0.6892393278	 1.9012350121	 0.8824378547	 0.118297
H	-1.8169730612	-0.1749199638	-1.1728610458	 0.127049
H	-1.3946600934	-1.6303710255	-0.2570828977	 0.122381
H	-2.0863698964	-0.2286648097	 0.5755658329	 0.122568
H	 0.6166520539	-1.2897372237	-1.694198077	 0.127837
H	 1.7372985723	 0.088867657	-1.4866031674	 0.123517
H	 0.3058870133	-1.0790820728	 2.0917646001	 0.12171
94.519	144.9211	226.7376	236.0309	259.3842	273.5913	319.4126	368.8474	421.0673	487.8769	548.5005	556.0051	585.2069	679.0286	796.5358	841.9692	904.3766	925.3861	937.5802	956.41	966.2349	1014.1611	1051.0033	1108.3426	1159.226	1195.1419	1206.9239	1243.1416	1271.6365	1310.778	1396.5219	1405.9623	1425.7214	1472.5361	1486.4811	1487.6983	1502.9017	1509.9824	2356.8102	3027.1829	3032.9073	3076.9643	3093.8544	3096.9211	3102.6192	3121.9533	3139.312	3180.7206
CC1(C)CC2(OC12)C#N	CC1(C)C[C@]2(O[C@@H]12)C#N	
InChI=1S/C7H9NO/c1-6(2)3-7(4-8)5(6)9-7/h5H,3H2,1-2H3	InChI=1S/C7H9NO/c1-6(2)3-7(4-8)5(6)9-7/h5H,3H2,1-2H3/t5-,7-/m0/s1
