21
gdb 74449	2.79768	1.3745	1.17022	2.0613	84.47	-0.2307	0.0199	0.2506	1174.6838	0.182371	-387.101869	-387.093172	-387.092228	-387.134846	33.752	
C	-0.1044542214	 1.5481024909	 0.0270213575	-0.486668
C	-0.0145958238	 0.0546917727	 0.0021089422	 0.317982
C	-0.141898641	-0.7442607427	-1.0614983923	-0.22811
C	 0.0136423691	-2.2039518149	-0.7256962183	 0.429182
C	-1.0847053978	-3.1127455059	-1.2396126362	-0.457084
O	 1.3323577914	-2.7251803862	-1.0924414019	-0.32871
C	 1.7995960987	-2.5941101503	 0.2645000108	-0.084223
C	 0.406180829	-2.1791088062	 0.7816699904	-0.127796
C	 0.2339176257	-0.7355011234	 1.276253961	-0.326627
H	 0.8272726141	 1.9919571464	 0.4004199594	 0.12728
H	-0.3042281545	 1.9597490998	-0.9656696994	 0.125566
H	-0.900058704	 1.8845775657	 0.7042166549	 0.125297
H	-0.3282833856	-0.4033626252	-2.0750977937	 0.086774
H	-1.0959945068	-3.1112698544	-2.3349970472	 0.124337
H	-0.9226972394	-4.1411843411	-0.9044097215	 0.118125
H	-2.0651642039	-2.7742048183	-0.8885313952	 0.116046
H	 2.198490751	-3.5410205531	 0.6470944547	 0.098235
H	 2.5717529791	-1.8185320228	 0.3648706357	 0.092015
H	-0.075614919	-2.9255947445	 1.4144721336	 0.072792
H	 1.1171973062	-0.369324412	 1.817496023	 0.102182
H	-0.6097139971	-0.6321432246	 1.9726694626	 0.103405
111.2049	130.9766	184.6897	207.0333	256.2505	285.7055	355.1614	378.9847	422.7846	489.2211	570.3295	620.2388	690.5672	819.4686	849.1893	863.3619	877.1537	896.0185	931.3577	955.1707	1010.8526	1017.9827	1030.8657	1072.3576	1102.2637	1113.9178	1128.3298	1163.7757	1167.2281	1210.0766	1236.4359	1268.1872	1313.9242	1324.0131	1339.4159	1373.6709	1403.267	1412.2054	1478.7402	1480.0444	1484.4366	1487.0839	1491.3985	1523.644	1712.3281	2999.9223	3006.606	3017.9167	3031.2783	3032.4022	3048.6774	3063.2499	3100.0118	3102.4085	3113.0628	3113.5289	3181.2615
CC1=CC2(C)OCC2C1	CC1=C[C@@]2(C)OC[C@H]2C1	
InChI=1S/C8H12O/c1-6-3-7-5-9-8(7,2)4-6/h4,7H,3,5H2,1-2H3	InChI=1S/C8H12O/c1-6-3-7-5-9-8(7,2)4-6/h4,7H,3,5H2,1-2H3/t7-,8-/m1/s1
