19
gdb 57292	3.73534	0.67875	0.67819	2.556	82.82	-0.2541	0.0155	0.2696	1759.1545	0.155458	-422.973175	-422.962799	-422.961855	-423.010271	37.025	
C	-0.0428754303	 1.5466037713	-0.0048895705	-0.398721
C	 0.0158554693	 0.0073371512	 0.0143796585	 0.168499
C	 0.6779401681	-0.5027665967	 1.3012007085	-0.384619
O	-1.3103284647	-0.5335977937	 0.0340811962	-0.438769
C	 0.7423146024	-0.4770404888	-1.1716462743	 0.160696
C	 1.3099402637	-0.8686555561	-2.1606005163	-0.000386
C	 1.9767301387	-1.3168783243	-3.3528544962	-0.118798
C	 3.2326182184	-2.0926957263	-3.2965777017	-0.158682
O	 2.0036636315	-2.7314307256	-3.6108027082	-0.211994
H	 0.9602336206	 1.981568622	 0.0255120527	 0.122726
H	-0.5387059528	 1.9005756178	-0.9139771996	 0.11363
H	-0.6110681693	 1.8950672056	 0.862049631	 0.124356
H	 0.0971298458	-0.1626113314	 2.1631731577	 0.123628
H	 0.7007424171	-1.5944114505	 1.3029802051	 0.134542
H	 1.699665718	-0.1253424676	 1.3870274703	 0.11983
H	-1.7074761832	-0.3668703372	-0.8276820983	 0.28214
H	 1.7987591569	-0.7160568939	-4.2442630517	 0.116537
H	 3.9453655728	-2.004857695	-4.1157919059	 0.119926
H	 3.655331097	-2.3373205408	-2.3241007473	 0.12546
12.898	80.3842	90.8409	186.0606	206.2425	221.9184	271.3729	287.2508	330.6895	359.921	392.8606	496.6746	501.3148	566.8485	591.0744	657.9181	816.7308	840.7511	893.8648	930.5876	956.8247	982.7565	1017.9274	1076.0592	1109.9757	1128.9254	1156.4921	1166.9971	1192.4507	1243.4932	1285.7951	1365.7571	1392.1822	1405.0365	1413.029	1475.5228	1479.5035	1493.2993	1504.2122	1519.0854	2353.6023	3038.3863	3051.2866	3085.3165	3113.0461	3113.7623	3122.2458	3130.1123	3139.5662	3179.4382	3809.7706
CC(C)(O)C#CC1CO1	CC(C)(O)C#C[C@H]1CO1	
InChI=1S/C7H10O2/c1-7(2,8)4-3-6-5-9-6/h6,8H,5H2,1-2H3	InChI=1S/C7H10O2/c1-7(2,8)4-3-6-5-9-6/h6,8H,5H2,1-2H3/t6-/m0/s1
