21
gdb 114432	3.70203	1.29203	1.15324	1.0679	81.37	-0.2438	0.0857	0.3295	1146.3305	0.184538	-387.060417	-387.052622	-387.051678	-387.092725	31.066	
C	 0.0994197221	 1.3657700838	 0.0902496859	-0.234518
O	-0.198231426	 0.0100549622	-0.1453750028	-0.247209
C	 0.5628206315	-0.5704003778	-1.1828662604	 0.161477
C	 2.0658025674	-0.8129087093	-0.8409145809	-0.271776
C	 2.3561031137	-2.1772335586	-1.4560815086	-0.035913
C	 1.5671193513	-3.385118084	-0.9734862893	-0.060293
C	 0.2646754715	-2.9456983379	-0.3015663786	-0.231692
C	 0.0285372948	-1.9697673999	-1.5006768986	-0.080885
C	 1.1830564696	-2.6742291177	-2.2615184282	-0.091786
H	 1.1349713473	 1.513099707	 0.4318220834	 0.105828
H	-0.0533564993	 1.9780371804	-0.8132352767	 0.100976
H	-0.5788811556	 1.7175676101	 0.8717717983	 0.124273
H	 0.4917789501	 0.0607501268	-2.0859111565	 0.05743
H	 2.7146812016	-0.0407923088	-1.2648390006	 0.094376
H	 2.2068233882	-0.800861577	 0.245805938	 0.105475
H	 3.3548767399	-2.3962053153	-1.8176119277	 0.078979
H	 2.0525256216	-4.3474018208	-0.8555761266	 0.077388
H	-0.4721924167	-3.7524773867	-0.2990434786	 0.097882
H	 0.310707478	-2.5009096723	 0.6970106072	 0.101145
H	-0.9702651521	-1.9704888203	-1.9352303647	 0.068078
H	 1.2078102911	-3.0055081942	-3.290914314	 0.080764
98.9399	119.0852	196.7995	242.1978	334.9152	405.5611	418.4687	500.2878	615.4294	691.614	709.8912	784.1067	799.3714	831.8242	881.8514	921.8417	964.2856	968.6106	977.6444	991.3902	1009.2727	1046.0258	1064.9156	1073.0682	1101.3892	1113.7424	1139.5119	1155.0819	1182.3029	1200.9699	1204.6983	1232.3351	1238.6887	1269.541	1287.7444	1298.2247	1323.7162	1357.8131	1378.8643	1408.4936	1480.8275	1485.3408	1491.0501	1506.2502	1510.059	2945.4893	2971.5056	3018.6691	3039.3905	3054.3543	3082.2762	3103.934	3109.6413	3121.1227	3165.4802	3174.2762	3202.4231
COC1CC2C3CC1C23	CO[C@H]1C[C@H]2[C@H]3C[C@@H]1[C@@H]23	
InChI=1S/C8H12O/c1-9-7-3-5-4-2-6(7)8(4)5/h4-8H,2-3H2,1H3	InChI=1S/C8H12O/c1-9-7-3-5-4-2-6(7)8(4)5/h4-8H,2-3H2,1H3/t4-,5+,6+,7+,8-/m1/s1
