16
gdb 20888	6.94959	1.12399	1.04144	3.1365	66.53	-0.2875	-0.0212	0.2663	1139.3144	0.132267	-376.097119	-376.089543	-376.088599	-376.130194	26.255	
C	 0.0084437269	 1.5349724748	-0.004045326	-0.383354
C	-0.001338477	 0.0052679051	-0.0453183703	-0.180856
C	-1.4247819686	-0.551723471	 0.0485032329	-0.133011
N	-1.4536675897	-2.0074885927	 0.0029338628	 0.148327
N	-1.203042024	-2.7084833664	-1.0962218075	-0.251119
C	-1.3044897611	-3.9509805814	-0.6392445927	 0.077586
N	-1.60124005	-4.0021324232	 0.6776423244	-0.209496
N	-1.6914447176	-2.7552909787	 1.0734693296	-0.126908
H	 1.0301176504	 1.9180145768	-0.0726501656	 0.126901
H	-0.5630665287	 1.9601408512	-0.836213895	 0.123198
H	-0.4270951987	 1.9125650332	 0.9273624999	 0.123564
H	 0.4549822025	-0.3548329248	-0.9731814808	 0.129278
H	 0.5910005108	-0.4018853103	 0.781796655	 0.120672
H	-1.8998928824	-0.2749382292	 0.991959439	 0.149366
H	-2.0423425198	-0.1848984525	-0.7762706744	 0.139707
H	-1.1683557532	-4.822170991	-1.2591181212	 0.146144
45.2706	90.4262	116.5422	234.6365	296.2493	354.8109	386.8946	705.7077	727.949	756.4431	779.5207	881.5347	901.723	906.9161	1028.3345	1044.5964	1049.8911	1088.9272	1127.3307	1164.0598	1222.7499	1254.0165	1308.6483	1320.019	1332.4539	1361.1309	1400.081	1403.5154	1417.0532	1476.5543	1494.0956	1494.4704	1500.3089	1510.8877	3035.2531	3045.3491	3071.7151	3080.6176	3104.7069	3115.5218	3134.6801	3286.697
CCCN1N=CN=N1	CCCn1ncnn1	
InChI=1S/C4H8N4/c1-2-3-8-6-4-5-7-8/h4H,2-3H2,1H3	InChI=1S/C4H8N4/c1-2-3-8-6-4-5-7-8/h4H,2-3H2,1H3
