21
gdb 66350	2.25116	1.41252	1.31947	1.5158	83.81	-0.2429	0.0585	0.3014	1140.1632	0.18251	-387.070818	-387.061865	-387.060921	-387.103778	35.286	
C	-0.0157385329	 1.5279998729	 0.0297297378	-0.425712
C	-0.0394498856	-0.0131993034	-0.0079292615	 0.042557
C	 0.6806817125	-0.5376944037	-1.2794460682	-0.215858
C	 0.878423511	-2.0573484182	-1.2215237099	-0.218359
C	 1.5602277611	-2.4475750964	 0.090031968	-0.064062
O	 0.8384431444	-1.9730714774	 1.2155739569	-0.241502
C	 0.7214505868	-0.568948147	 1.2257726345	-0.080296
C	-1.4285261735	-0.4796222371	 0.0155233215	 0.37796
C	-2.5773177699	-0.8346526164	 0.029465721	-0.521145
H	 1.0165268609	 1.8939730961	 0.0304162972	 0.112872
H	-0.5261171339	 1.9411452386	-0.8446684779	 0.126538
H	-0.5187086359	 1.9072276546	 0.9241042054	 0.124744
H	 0.1175344685	-0.2458886301	-2.1714169326	 0.103609
H	 1.6589849056	-0.0415026286	-1.3378343162	 0.091732
H	-0.0933049783	-2.5590549669	-1.2821664191	 0.12077
H	 1.4821923855	-2.4000438373	-2.0694474691	 0.09333
H	 1.6181600537	-3.5337446841	 0.2033275949	 0.106146
H	 2.5903134233	-2.0486163198	 0.1113457532	 0.080629
H	 1.7210226568	-0.0989725473	 1.2501126689	 0.079637
H	 0.1948587479	-0.3062911138	 2.1472319726	 0.112232
H	-3.588662418	-1.157518145	 0.0499138926	 0.194177
115.2917	144.0381	199.7132	231.4315	264.146	291.304	333.0275	397.734	411.6027	449.1613	537.4718	570.6549	617.1869	626.3096	630.6937	696.5393	845.922	870.4272	897.1964	905.9181	928.6475	997.7051	1037.669	1044.2002	1077.6677	1122.7994	1130.648	1193.5153	1213.5005	1238.1651	1264.4279	1321.2868	1337.4882	1350.9865	1379.5304	1388.6047	1408.1486	1420.9846	1475.7719	1481.8345	1486.4661	1491.3306	1497.0681	1503.4998	2229.6894	2943.874	2950.2032	3017.0587	3035.1093	3039.9443	3075.972	3084.4012	3089.9658	3091.8706	3107.6446	3116.7241	3502.4081
CC1(CCCOC1)C#C	C[C@]1(CCCOC1)C#C	
InChI=1S/C8H12O/c1-3-8(2)5-4-6-9-7-8/h1H,4-7H2,2H3	InChI=1S/C8H12O/c1-3-8(2)5-4-6-9-7-8/h1H,4-7H2,2H3/t8-/m1/s1
