17
gdb 31577	3.30365	1.15351	0.86623	1.9275	72.19	-0.1866	0.0548	0.2414	1309.5661	0.134698	-455.179205	-455.169395	-455.168451	-455.21465	33.883	
C	-0.0021824027	 1.3651771888	-0.0144527242	-0.233417
O	-0.0240357451	-0.0626361531	-0.0054426393	-0.273248
C	-1.2517818588	-0.6000423535	-0.0060198669	 0.477868
N	-2.4003765325	 0.0159601557	-0.0248938103	-0.420342
C	-3.3636185887	-0.9955324434	 0.005991973	 0.172645
C	-4.8252710075	-0.6990839032	 0.0069212472	-0.495347
C	-2.7452182007	-2.2096282083	 0.0277549648	 0.246813
O	-3.1946997023	-3.4934024498	 0.1120656318	-0.436483
N	-1.3736584175	-1.9544938192	 0.0169685173	-0.389506
H	 1.0517038953	 1.645467536	-0.0095962211	 0.127494
H	-0.4980278638	 1.7549897584	-0.9083233837	 0.138254
H	-0.5094834852	 1.7662976204	 0.8679023888	 0.138838
H	-5.1412303124	-0.2080190315	-0.9211817442	 0.124819
H	-5.4037677148	-1.6203081109	 0.1218156498	 0.114114
H	-5.0888546228	-0.0273506682	 0.831056688	 0.132607
H	-3.6040165592	-3.7443277342	-0.7229414295	 0.306513
H	-0.6346239415	-2.6339798039	 0.0736552184	 0.268376
42.2769	87.0697	136.8411	144.0017	192.5617	215.2689	245.2897	258.8562	362.7759	387.7855	447.8735	541.8168	648.388	658.5577	670.2071	727.4801	809.9931	985.2561	1028.0544	1064.8634	1087.9176	1158.7403	1183.2377	1198.7527	1220.5653	1264.4943	1296.8144	1406.5378	1443.0223	1462.5425	1475.9363	1478.1579	1490.8787	1500.2058	1511.5311	1622.7856	1681.1573	3026.0337	3041.0911	3078.2465	3110.9242	3111.0765	3150.3859	3676.2453	3793.2322
COC1=NC(C)=C(O)N1	COc1nc(C)c(O)[nH]1	
InChI=1S/C5H8N2O2/c1-3-4(8)7-5(6-3)9-2/h8H,1-2H3,(H,6,7)	InChI=1S/C5H8N2O2/c1-3-4(8)7-5(6-3)9-2/h8H,1-2H3,(H,6,7)
