19
gdb 10926	3.14904	1.92421	1.50761	2.0202	71.35	-0.198	0.0752	0.2732	916.946	0.16395	-365.009051	-365.000602	-364.999657	-365.041153	32.343	
C	-0.6984241986	 1.4506545601	-0.6016482223	-0.417984
C	-0.2515380706	 0.0185567769	-0.3464455118	-0.007142
N	 1.0463934335	-0.4712776635	-0.9351765593	-0.085385
C	 1.8626162368	 0.3881868	-1.7716890602	-0.324237
C	 1.5461931307	-0.8381717985	 0.3834606154	-0.062279
C	 1.5703340698	 0.3255254468	 1.362523149	-0.369631
C	 0.2718083398	-0.3751174467	 1.0438899615	 0.355726
O	-0.4809236357	-1.0481334274	 1.988523458	-0.46425
H	 0.0381139346	 2.1861927434	-0.2667913612	 0.117104
H	-0.8910270682	 1.6244400876	-1.6655532386	 0.121815
H	-1.6345045597	 1.6420137476	-0.0654876973	 0.117045
H	-1.0519388131	-0.6701005485	-0.6455382955	 0.086936
H	 2.2026988246	 1.3234732615	-1.2936702703	 0.090929
H	 2.7557529957	-0.1672408257	-2.0780778687	 0.120639
H	 1.3121720134	 0.6522110133	-2.6801547069	 0.118064
H	 2.131697232	-1.7385941201	 0.5347339573	 0.098275
H	 1.9691177568	 0.0701743013	 2.3398830735	 0.113188
H	 1.7793489617	 1.3407419601	 1.0371937299	 0.105012
H	-0.8212653235	-0.4041701481	 2.6186373076	 0.286176
140.5149	186.1516	211.0726	227.1609	250.674	264.1072	277.2313	382.5778	452.1371	504.5082	548.947	611.3922	683.1864	760.3885	840.8001	888.0062	923.7485	975.0378	994.4758	1036.0421	1049.1814	1074.8051	1099.032	1127.6533	1152.1805	1201.1082	1217.9219	1221.3098	1265.846	1291.0777	1328.4698	1373.4587	1402.8224	1418.5157	1451.3346	1481.3077	1489.7033	1492.4603	1502.2517	1508.7029	2951.7902	3019.7332	3034.5176	3056.6506	3094.6183	3099.9835	3111.5123	3116.9486	3168.3145	3204.3459	3800.0076
CC1N(C)C2CC12O	C[C@H]1N(C)[C@H]2C[C@@]12O	
InChI=1S/C6H11NO/c1-4-6(8)3-5(6)7(4)2/h4-5,8H,3H2,1-2H3	InChI=1S/C6H11NO/c1-4-6(8)3-5(6)7(4)2/h4-5,8H,3H2,1-2H3/t4-,5+,6-/m1/s1
