20
gdb 13615	3.10351	1.34553	1.05455	2.7745	71.16	-0.249	0.0727	0.3216	1160.3812	0.175446	-386.117762	-386.10834	-386.107396	-386.15183	34.634	
C	-0.2335314367	 1.4262622695	 0.0495644609	-0.390769
C	 0.0992109489	-0.0596758659	-0.1282178135	-0.004159
C	 0.9442312259	-0.2990645135	-1.3909747634	-0.067888
O	 0.317020838	 0.1648684312	-2.5790421446	-0.422027
C	 0.8118391484	-0.6274960843	 1.0859280435	-0.009945
C	 0.0237148429	-1.0891356257	 2.2980990131	-0.342889
C	 0.7293132218	-2.0899482523	 1.4172589653	 0.087977
O	-0.0173315234	-2.8914269147	 0.5441428481	-0.419525
H	 0.6748744943	 2.0076937624	 0.249171021	 0.106897
H	-0.6896067317	 1.8248739192	-0.8599404305	 0.123199
H	-0.9200370383	 1.5827851636	 0.8872606064	 0.106769
H	-0.835089779	-0.6216269923	-0.2583204175	 0.069481
H	 1.8860378155	 0.2591670331	-1.3196168315	 0.099853
H	 1.1950150642	-1.3666324097	-1.4639334057	 0.103125
H	-0.4574508321	-0.3865750955	-2.7297177893	 0.280883
H	 1.7708342376	-0.1580756262	 1.2967391836	 0.083455
H	 0.4102471424	-0.8958975846	 3.2929762021	 0.109488
H	-1.0581750024	-1.0511913475	 2.2150798201	 0.112453
H	 1.62470941	-2.5688279846	 1.8135222613	 0.08497
H	-0.4839185361	-3.5494137022	 1.0696111605	 0.288652
64.4717	104.2236	145.2844	206.587	234.7148	265.1706	295.4529	309.2337	351.867	406.1101	421.9733	501.8045	608.6416	775.0013	824.7948	848.6618	899.3651	909.3763	974.8446	1001.5717	1021.2122	1055.358	1065.9156	1117.5946	1125.0682	1141.2108	1175.5876	1187.3651	1233.9247	1238.0802	1286.7335	1304.7713	1358.1195	1384.0878	1401.0242	1407.2656	1420.459	1430.7501	1488.7968	1491.416	1504.6355	1505.0562	3004.9249	3020.2782	3030.1572	3060.1854	3094.5478	3095.3947	3123.2559	3124.6985	3127.8816	3214.3082	3808.1512	3814.6596
CC(CO)C1CC1O	C[C@@H](CO)[C@H]1C[C@H]1O	
InChI=1S/C6H12O2/c1-4(3-7)5-2-6(5)8/h4-8H,2-3H2,1H3	InChI=1S/C6H12O2/c1-4(3-7)5-2-6(5)8/h4-8H,2-3H2,1H3/t4-,5+,6+/m0/s1
