20
gdb 9518	2.60474	1.78565	1.54082	2.5428	74.91	-0.2327	-0.0164	0.2163	978.765	0.175154	-349.025696	-349.016626	-349.015681	-349.059399	33.31	
C	 0.1381499446	 1.4300584086	 0.2461830559	-0.394643
C	-0.0701462632	-0.0682168683	-0.0013240878	-0.222796
C	-1.5456353962	-0.5094317928	-0.1116517811	 0.218752
C	-2.2965065518	 0.1985839709	-1.2391073272	-0.450983
C	-1.7081274243	-2.0703759423	-0.0470866235	-0.286409
C	-2.2554674216	-1.9826921479	 1.4091911331	-0.340074
C	-2.2545220167	-0.4537959869	 1.2610467584	 0.380021
O	-2.6832433215	 0.4467665829	 1.926023719	-0.309065
H	 1.197852497	 1.646423738	 0.4127033155	 0.112062
H	-0.1894251	 2.0304719711	-0.6074681155	 0.118647
H	-0.4209611811	 1.7651323744	 1.1246172275	 0.143069
H	 0.441740029	-0.3728271082	-0.9242526429	 0.098515
H	 0.4062033238	-0.6359772512	 0.8087934342	 0.095201
H	-1.7872300564	 0.0488714592	-2.1981039738	 0.115307
H	-3.3165092241	-0.1867388308	-1.3368934851	 0.114766
H	-2.3676579392	 1.2734280423	-1.0528457566	 0.136609
H	-2.4424605372	-2.4529299678	-0.7592388307	 0.105889
H	-0.7806128866	-2.6341015316	-0.1647422276	 0.103194
H	-3.2352547721	-2.4253900378	 1.606975669	 0.129842
H	-1.5633508522	-2.3324880816	 2.1816560591	 0.132098
52.5684	108.9082	151.214	196.469	222.1984	265.1305	293.4317	345.3183	401.9439	495.535	507.7646	669.2382	703.2185	742.8075	787.3549	856.9483	884.2397	937.0833	967.8856	1011.6908	1024.0967	1044.9462	1065.0091	1098.7054	1163.3194	1200.7613	1211.9759	1223.3981	1249.6454	1268.7703	1332.6447	1361.858	1405.4621	1412.992	1437.0668	1481.3399	1488.2218	1492.5384	1497.1203	1505.8864	1513.1068	1876.5643	3008.9176	3029.7289	3041.6499	3042.8508	3058.5151	3072.3173	3094.6921	3106.6633	3107.4938	3116.3106	3120.8409	3127.2326
CCC1(C)CCC1=O	CC[C@@]1(C)CCC1=O	
InChI=1S/C7H12O/c1-3-7(2)5-4-6(7)8/h3-5H2,1-2H3	InChI=1S/C7H12O/c1-3-7(2)5-4-6(7)8/h3-5H2,1-2H3/t7-/m0/s1
