21
gdb 119852	3.92213	0.86473	0.78242	1.4869	84.92	-0.2195	0.026	0.2455	1514.7154	0.183351	-387.085935	-387.077055	-387.076111	-387.120108	33.655	
O	-0.117426089	 1.449159767	-0.1093093996	-0.418453
C	 0.0152869093	 0.0360157086	-0.1037738657	-0.065736
C	-1.3786388768	-0.5578043232	 0.1146162888	-0.299926
C	-1.3885030148	-2.0576703202	 0.090216828	 0.332907
C	-1.6206614558	-2.8768926675	 1.1231591363	-0.196783
C	-1.5273618552	-4.3404921909	 0.7482450346	-0.264791
C	-1.3093401478	-4.3048279022	-0.7645363077	-0.032375
C	-2.369155846	-3.6607764581	-1.6193013453	-0.277611
C	-1.171617452	-2.8460982682	-1.1672645814	-0.130518
H	 0.7562213957	 1.8323856689	-0.229128006	 0.285264
H	 0.4359015355	-0.326786395	-1.0552365936	 0.086254
H	 0.6861697715	-0.3034297856	 0.7007915395	 0.089963
H	-1.7598500682	-0.1908500312	 1.073129768	 0.108242
H	-2.0359500001	-0.1586599266	-0.6688487027	 0.112048
H	-1.8772997432	-2.5474395331	 2.1246316717	 0.084048
H	-0.6894364848	-4.8321233755	 1.2619814208	 0.103087
H	-2.4286827733	-4.9016293231	 1.028688894	 0.105809
H	-0.688660737	-5.0664922335	-1.2214171228	 0.08204
H	-2.4083871459	-3.9613585354	-2.6614560715	 0.105901
H	-3.3332150905	-3.4274011493	-1.1777484527	 0.109978
H	-0.4576981017	-2.510351956	-1.9118679028	 0.080653
63.4149	85.1215	116.5284	240.6691	256.0369	291.8521	339.5864	342.9657	384.9965	612.0929	653.7548	731.8342	772.3257	806.1467	813.2184	829.5296	862.7562	900.3271	952.2079	985.3035	1001.5758	1016.1909	1053.5335	1066.8793	1071.8058	1080.8995	1098.2142	1101.2613	1178.5537	1187.6749	1206.2686	1218.7667	1237.3427	1275.907	1310.4087	1312.9122	1338.729	1373.7008	1382.5495	1456.4959	1473.5588	1485.0564	1486.1833	1527.1767	1700.4808	2969.4652	2997.2796	3006.6995	3025.96	3034.2696	3081.7583	3119.8314	3160.9838	3177.4698	3185.3371	3209.0247	3830.9745
OCCC1=CCC2CC12	OCCC1=CC[C@H]2C[C@@H]12	
InChI=1S/C8H12O/c9-4-3-6-1-2-7-5-8(6)7/h1,7-9H,2-5H2	InChI=1S/C8H12O/c9-4-3-6-1-2-7-5-8(6)7/h1,7-9H,2-5H2/t7-,8-/m0/s1
