21
gdb 63059	3.12674	1.6226	1.38969	1.7499	80.55	-0.236	0.0811	0.3171	1018.8852	0.183705	-387.051414	-387.04379	-387.042846	-387.082858	31.814	
C	-0.1699200815	 1.606673141	-0.0002458739	-0.465352
C	-0.0085501214	 0.0861764548	 0.0040159561	 0.32497
C	-1.3872613456	-0.5664678948	-0.1728076509	-0.445585
C	 1.07208056	-0.5989296711	-0.9067811962	-0.124348
C	 2.3719050596	 0.1381597121	-0.5424975764	-0.228812
C	 2.3439835946	-0.3525306685	 0.9220514177	 0.054057
O	 2.5364811243	-1.7853280469	 0.7161650723	-0.297405
C	 1.1960059973	-1.7473318333	 0.2209905641	 0.099877
C	 0.7896195558	-0.5833157935	 1.1453681686	-0.099355
H	 0.7461592649	 2.1399979321	 0.2624967822	 0.114439
H	-0.4986747851	 1.9664148254	-0.9824134477	 0.114272
H	-0.9347604433	 1.9034522714	 0.7266566509	 0.112851
H	-1.8470245572	-0.2355076877	-1.1109608205	 0.113662
H	-1.3385599622	-1.6586407631	-0.1977780006	 0.116285
H	-2.0624663097	-0.2833558887	 0.64254917	 0.112537
H	 0.8645944424	-0.8205691318	-1.9533146593	 0.060286
H	 3.2591077983	-0.2567716559	-1.041605179	 0.106848
H	 2.3251918454	 1.2174789505	-0.6875986134	 0.09772
H	 3.0092654723	 0.0786638583	 1.668679115	 0.078805
H	 0.7166453417	-2.7159840713	 0.1021359773	 0.086464
H	 0.4299016997	-0.7124151788	 2.1661292537	 0.067786
173.9437	194.3775	226.1667	264.9691	328.1989	374.2826	477.3594	507.9169	549.5154	583.9638	713.8711	739.8921	797.0731	839.3238	855.6904	892.852	913.4635	928.6783	944.2017	951.4829	978.7471	980.947	1005.5172	1023.277	1036.3631	1077.4044	1127.4687	1149.0982	1166.4433	1193.0217	1201.8564	1221.2121	1224.5939	1244.2783	1274.7347	1299.8581	1336.2928	1338.8957	1402.9439	1422.4674	1479.2887	1483.6156	1497.1378	1505.6304	1515.5531	3025.4518	3030.418	3082.4323	3083.9798	3088.6356	3107.9726	3113.6218	3116.1652	3119.5978	3132.9285	3142.0084	3150.1525
CC1(C)C2CC3OC2C13	CC1(C)[C@H]2C[C@@H]3O[C@H]2[C@H]13	
InChI=1S/C8H12O/c1-8(2)4-3-5-6(8)7(4)9-5/h4-7H,3H2,1-2H3	InChI=1S/C8H12O/c1-8(2)4-3-5-6(8)7(4)9-5/h4-7H,3H2,1-2H3/t4-,5-,6+,7+/m0/s1
