16
gdb 66704	2.92658	1.65959	1.28577	1.3276	80.67	-0.2109	0.0231	0.234	998.4488	0.122343	-363.464015	-363.456302	-363.455358	-363.495919	30.268	
C	-0.0351481684	 1.4767377284	 0.0290637068	-0.517127
C	-0.0178038932	-0.00756254	-0.031677746	 0.314253
C	-0.1020825479	-1.0132595899	-1.1440241623	-0.228698
C	 0.8113652214	-1.9349448735	-0.3062559204	-0.052916
C	-0.1642662402	-1.9525700186	 0.8108651847	-0.140418
N	 0.9152144735	-0.9064943569	 0.788985065	-0.207615
C	-1.1418487084	-1.0421088548	 0.0167765291	 0.298975
C	-2.5422067789	-0.8986308458	-0.0291966685	 0.010156
C	-3.7409223769	-0.7745769424	-0.0534077753	-0.383375
H	 0.9195982935	 1.8928147931	-0.310048139	 0.134066
H	-0.831824716	 1.8706428385	-0.6098738872	 0.135901
H	-0.215196573	 1.8199453013	 1.0531943777	 0.138168
H	-0.3053768103	-0.9038147566	-2.1998681911	 0.10915
H	 1.6295151167	-2.5971097144	-0.5608503747	 0.105088
H	-0.3087991446	-2.6268809845	 1.6460094022	 0.105551
H	-4.7966340771	-0.6668697339	-0.078674201	 0.178841
114.0302	153.6393	197.7954	259.3018	282.3657	466.5889	484.5715	539.2406	540.7963	623.339	670.5864	700.9009	733.865	769.6052	794.1603	855.2569	873.0299	890.7266	912.8811	952.7334	984.8861	1014.0226	1045.304	1096.3819	1121.9922	1168.4305	1185.3867	1241.722	1305.3541	1330.0242	1400.4351	1459.4772	1471.3758	1494.1717	2222.8927	3031.8095	3099.2751	3110.8867	3182.0724	3195.862	3221.8111	3503.3121
CC12C3C4C(N14)C23C#C	C[C@@]12[C@H]3[C@@H]4[C@@H](N14)[C@@]23C#C	
InChI=1S/C8H7N/c1-3-8-5-4-6(8)9(4)7(5,8)2/h1,4-6H,2H3	InChI=1S/C8H7N/c1-3-8-5-4-6(8)9(4)7(5,8)2/h1,4-6H,2H3/t4-,5-,6-,7+,8+,9?/m1/s1
