19
gdb 92005	2.56161	1.44975	1.12756	1.9518	74.92	-0.237	-0.0261	0.2108	1122.7941	0.158731	-423.020062	-423.01161	-423.010666	-423.053573	31.917	
C	 0.60888048	 1.3827994863	-0.2952396895	-0.410245
C	 0.0677853268	 0.0239428841	 0.1520551886	 0.094975
O	 0.0727830523	-0.9017043096	-0.945334506	-0.266948
C	 0.9863168773	-1.9364779314	-0.7176190129	 0.113211
C	 2.4360319005	-1.5837240856	-0.5233657697	-0.331699
C	 1.5339575285	-1.8546910205	 0.675216236	-0.099765
C	 0.8220526163	-0.6821889809	 1.3380868919	-0.117594
C	 1.7529803371	 0.2226970421	 2.1185272879	 0.155307
O	 1.5640304512	 0.572379853	 3.2558081902	-0.253935
H	 1.6563582769	 1.3399596586	-0.6041202948	 0.122733
H	 0.023862913	 1.7342647713	-1.1492130945	 0.132893
H	 0.5147733588	 2.1203046112	 0.5090891678	 0.129115
H	-0.9807190111	 0.1620921464	 0.4402705246	 0.099512
H	 0.6911020461	-2.8635788517	-1.1951189895	 0.106333
H	 3.1741894163	-2.3454607096	-0.7511316763	 0.120673
H	 2.7561951954	-0.5727718479	-0.7451058667	 0.122364
H	 1.7189229078	-2.7377066754	 1.2749039654	 0.104711
H	 0.088074887	-1.0636744378	 2.0533015555	 0.100574
H	 2.66618067	 0.5392158375	 1.5680512919	 0.077786
65.8464	77.4835	184.8801	240.8644	263.2312	332.571	384.423	430.4731	447.8591	469.8329	688.2205	720.9084	760.7919	798.0423	824.4371	882.7814	937.8717	968.9734	991.5658	1026.16	1034.2941	1054.9941	1078.9432	1090.5953	1105.1622	1129.6529	1151.8716	1165.5729	1204.9513	1281.3083	1298.3465	1313.9447	1356.7454	1382.9911	1392.1773	1412.0279	1431.5743	1475.7735	1488.8192	1500.5107	1824.541	2885.0492	3031.0294	3042.5518	3074.6053	3114.0193	3125.9426	3139.2016	3176.9254	3185.8298	3227.7066
CC1OC2CC2C1C=O	C[C@H]1O[C@H]2C[C@H]2[C@H]1C=O	
InChI=1S/C7H10O2/c1-4-6(3-8)5-2-7(5)9-4/h3-7H,2H2,1H3	InChI=1S/C7H10O2/c1-4-6(3-8)5-2-7(5)9-4/h3-7H,2H2,1H3/t4-,5+,6+,7+/m1/s1
