16
gdb 97092	2.45973	1.25849	1.10675	4.692	73.17	-0.2459	-0.0086	0.2372	1177.3867	0.122374	-434.054332	-434.044579	-434.043635	-434.08952	33.511	
C	 0.024085127	 1.3654061255	 0.1524837379	-0.342288
N	-0.0765452497	-0.0772461165	 0.3147647605	-0.321645
C	-1.1615869931	-0.6400195983	 0.0205605405	 0.377083
N	-2.4034838647	-0.2979146262	-0.4897914125	-0.356287
C	-2.9419149391	-1.6632668258	-0.4670886558	-0.189029
C	-1.5327903866	-2.1384292586	 0.0233583791	 0.159482
O	-0.8593525282	-2.9239209142	-0.921885626	-0.444293
C	-1.5314123054	-2.7561211091	 1.3575779669	 0.243246
N	-1.5291155577	-3.2462626781	 2.4039727055	-0.333951
H	 1.0616390441	 1.6318222736	-0.0666946875	 0.13368
H	-0.6091395509	 1.7628706148	-0.6550777575	 0.103593
H	-0.2519191946	 1.8761501243	 1.0841301423	 0.131531
H	-2.9033457459	 0.5743387151	-0.4368879444	 0.259738
H	-3.7517326092	-1.8334086248	 0.2474235197	 0.135736
H	-3.2010087634	-2.0645369461	-1.4500093509	 0.137538
H	 0.0860221377	-2.7649924557	-0.8030793277	 0.305865
62.2422	85.3679	110.5347	148.0508	188.1014	223.1346	246.5019	265.9097	350.333	403.6104	429.9457	545.1028	613.2457	688.1792	722.2644	775.0536	930.958	951.1947	1016.022	1043.6343	1115.7299	1144.3932	1154.1405	1178.9247	1195.7594	1213.4273	1306.078	1355.7402	1383.7005	1438.2122	1488.028	1506.6225	1512.9189	1828.0596	2355.5718	2985.1508	3051.0436	3057.1906	3098.1913	3116.6329	3647.8151	3783.122
CN=C1NCC1(O)C#N	CN=C1NC[C@]1(O)C#N	
InChI=1S/C5H7N3O/c1-7-4-5(9,2-6)3-8-4/h9H,3H2,1H3,(H,7,8)	InChI=1S/C5H7N3O/c1-7-4-5(9,2-6)3-8-4/h9H,3H2,1H3,(H,7,8)/t5-/m1/s1
