17
gdb 35341	3.80182	1.36424	1.22445	1.6886	80.9	-0.2148	0.022	0.2368	1039.7035	0.135793	-380.645156	-380.63785	-380.636906	-380.676559	29.943	
C	-0.1273377056	-1.2933795698	-0.0377013582	-0.450786
C	-0.0669929874	-0.0936217742	 0.0169450334	 0.427117
C	-0.0187053706	 1.3513218516	 0.0309683853	-0.298265
N	-0.3314751103	 1.9903183786	 1.4197526199	-0.417076
C	 1.1187494613	 2.3951727521	 1.4169326749	 0.264392
C	 2.3630120515	 3.3480661614	 1.3835604518	-0.24216
N	 2.8190452185	 2.096201247	 0.5572984651	-0.175972
C	 2.1580016805	 1.2869838618	 1.6799772992	-0.183748
C	 1.3445420731	 2.1936972278	-0.0304986215	-0.008088
H	-0.1705674004	-2.3539052772	-0.0752320133	 0.203086
H	-0.6883937712	 1.7385953394	-0.742944804	 0.121035
H	-0.9398251639	 2.7918520379	 1.2528320025	 0.219802
H	 2.2810617045	 4.2628334065	 0.7921775471	 0.111992
H	 2.9701612308	 3.4864690225	 2.2826421614	 0.114324
H	 2.7097460613	 1.31987434	 2.6225009875	 0.098824
H	 1.9151411647	 0.2651783195	 1.3939792443	 0.131868
H	 1.259831103	 3.0227151451	-0.7352271852	 0.083656
133.0505	145.3099	303.1087	317.0815	405.5922	451.5672	514.8148	572.9986	588.3738	624.3173	656.6704	683.2005	723.7194	803.5796	813.6273	833.5584	865.4693	896.2152	934.3086	994.407	998.6563	1033.7493	1062.4965	1076.6243	1125.8331	1154.8378	1160.5407	1183.3765	1204.598	1237.0798	1284.6956	1295.427	1321.9007	1377.9881	1504.5586	1549.3537	2233.1235	3053.6834	3057.4854	3073.1524	3089.7753	3133.2432	3163.6834	3467.0344	3502.3007
C#CC1NC23CN(C2)C13	C#C[C@H]1N[C@@]23CN(C2)[C@@H]13	
InChI=1S/C7H8N2/c1-2-5-6-7(8-5)3-9(6)4-7/h1,5-6,8H,3-4H2	InChI=1S/C7H8N2/c1-2-5-6-7(8-5)3-9(6)4-7/h1,5-6,8H,3-4H2/t5-,6+/m1/s1
