25
gdb 57548	3.66532	0.62348	0.61065	0.837	95.54	-0.2576	0.0571	0.3147	1973.0127	0.22535	-352.339489	-352.327947	-352.327002	-352.376266	43.024	
C	-0.1365788169	 1.5563266371	 0.1165386992	-0.400815
C	-0.0206574357	 0.0217235231	 0.0590346822	 0.254962
C	 0.6285281742	-0.4963399469	 1.3559241744	-0.400812
C	-1.4345581337	-0.578535432	-0.062145709	-0.401022
C	 0.7909348306	-0.4258888473	-1.1832734901	-0.179314
C	 2.2422802225	 0.0588499143	-1.2775634983	-0.197826
C	 2.9347412425	-0.4567659175	-2.557095602	-0.353541
C	 4.3180313222	-0.0120298879	-2.6761121222	 0.291699
C	 5.455906922	 0.3691348669	-2.7486463483	-0.436874
H	 0.8366632748	 2.035280899	 0.2603022788	 0.113583
H	-0.5746716926	 1.9551119355	-0.8054962112	 0.106695
H	-0.7788751782	 1.8637367969	 0.9489745428	 0.108376
H	 0.0082116261	-0.2475901805	 2.2238696244	 0.10838
H	 0.7450240989	-1.5858266807	 1.3325496648	 0.106697
H	 1.6164081289	-0.0566133842	 1.5232888533	 0.113574
H	-1.9374233955	-0.2295185002	-0.9710355433	 0.106992
H	-1.3992212546	-1.6731191431	-0.0996205972	 0.106994
H	-2.0567827237	-0.2940243086	 0.7934775088	 0.10698
H	 0.7851813041	-1.5246252215	-1.2183099999	 0.087497
H	 0.2515840818	-0.0947471524	-2.0821215899	 0.087503
H	 2.287173301	 1.1527374421	-1.2768599329	 0.111673
H	 2.8212350251	-0.2776076262	-0.4114113602	 0.111664
H	 2.9016906285	-1.5543206802	-2.5733489436	 0.127752
H	 2.3681019797	-0.125942435	-3.4376986128	 0.12775
H	 6.461931218	 0.6995700092	-2.8236077579	 0.191433
47.8364	84.8785	92.9266	130.1351	212.5846	230.8128	263.2354	273.934	287.1491	331.1828	334.8373	351.0595	412.2387	416.5471	474.2784	546.8515	613.9228	633.6678	741.6623	745.2794	838.9153	903.9373	933.6574	935.81	958.2938	973.821	1001.8812	1013.2592	1045.3	1078.2359	1095.8446	1160.5688	1218.8109	1262.5659	1268.4216	1284.5906	1316.2527	1345.1761	1359.1565	1392.6116	1398.675	1400.5507	1431.2946	1473.8311	1477.2828	1481.3902	1488.216	1488.9874	1503.8784	1508.5989	1509.6476	1519.4502	2237.9939	2997.6322	3014.264	3020.6768	3024.3412	3030.8748	3031.6818	3042.2297	3050.7259	3088.3482	3088.8755	3090.1774	3094.4671	3096.0819	3102.5719	3104.5949	3507.7428
CC(C)(C)CCCC#C	CC(C)(C)CCCC#C	
InChI=1S/C9H16/c1-5-6-7-8-9(2,3)4/h1H,6-8H2,2-4H3	InChI=1S/C9H16/c1-5-6-7-8-9(2,3)4/h1H,6-8H2,2-4H3
