18
gdb 13111	4.39066	1.08153	0.92877	1.1725	69.52	-0.2554	-0.0308	0.2246	1269.5129	0.151936	-384.942589	-384.93396	-384.933016	-384.97654	30.438	
C	-0.0187955978	 1.5503415588	 0.1278497162	-0.383618
C	-0.098168461	 0.0351136732	-0.073365203	-0.16802
C	 0.8980435405	-0.4778672863	-1.1202421089	-0.185848
C	 0.792558623	-1.9792480952	-1.3419639014	 0.007111
O	-0.4707606989	-2.4009027163	-1.9257398647	-0.291989
C	 0.1419196991	-3.000748069	-3.0837779011	-0.189212
C	 1.5183803041	-2.5717482172	-2.5597486918	 0.334511
O	 2.6478016644	-2.6410509837	-2.9355685341	-0.273541
H	 0.9791296001	 1.8556515198	 0.4617885409	 0.115423
H	-0.2333383604	 2.0852249559	-0.803907818	 0.117165
H	-0.7395707999	 1.888366786	 0.8785701837	 0.115763
H	 0.0873034304	-0.4756855154	 0.8806919881	 0.096686
H	-1.1099900676	-0.2491854564	-0.3834905374	 0.120266
H	 0.7341057547	 0.0375652101	-2.0751323653	 0.101507
H	 1.9281807695	-0.2558816466	-0.8122236297	 0.113589
H	 0.9955630433	-2.5271419379	-0.4094224495	 0.103935
H	-0.0148024015	-4.085763543	-3.1415487683	 0.132302
H	-0.173151062	-2.5386347968	-4.0279490059	 0.133969
72.2774	92.3724	109.4248	130.7437	250.5383	257.2901	321.8429	389.8648	517.2361	548.5923	693.5309	750.5817	815.1762	850.4595	887.0326	930.6604	984.7069	1010.8886	1043.3294	1078.1178	1090.3441	1117.8768	1141.2514	1151.6117	1239.1193	1255.3268	1283.721	1313.696	1327.4052	1361.0296	1394.7851	1414.1909	1471.8483	1482.3056	1492.9935	1500.6712	1509.5374	1923.0214	2996.999	3016.738	3018.7031	3026.3104	3031.1155	3055.8137	3062.1397	3074.5397	3099.8058	3104.6749
CCCC1OCC1=O	CCC[C@H]1OCC1=O	
InChI=1S/C6H10O2/c1-2-3-6-5(7)4-8-6/h6H,2-4H2,1H3	InChI=1S/C6H10O2/c1-2-3-6-5(7)4-8-6/h6H,2-4H2,1H3/t6-/m1/s1
