14
gdb 80117	2.96106	1.51217	1.28053	3.4254	67.37	-0.2419	-0.0118	0.2301	973.7174	0.101899	-432.861789	-432.854115	-432.853171	-432.893788	28.724	
O	-0.1965729127	 1.3825931656	-0.1382011872	-0.424766
C	-0.0986030106	 0.0099767783	-0.0220767558	 0.06498
C	-0.4441618369	-0.6877426896	 1.2632181769	-0.116513
N	-1.163370826	 0.0858754672	 2.2375684588	-0.266504
C	-2.2877701054	 0.4051874814	 1.6957025138	 0.054265
N	-2.561656013	-0.1472121328	 0.4729376765	-0.332717
C	-1.3851883705	-0.8285346069	 0.0123974348	 0.161945
C	-1.5458299869	-1.9957205787	-0.7965998408	 0.218803
N	-1.649296278	-2.9319117123	-1.4694781231	-0.340044
H	-0.1866220903	 1.7532773749	 0.7545662912	 0.302241
H	 0.7069941195	-0.4350000567	-0.5993812569	 0.131679
H	 0.1738673552	-1.5017756936	 1.6226796867	 0.12676
H	-3.0233916731	 1.0470092334	 2.1683405082	 0.147532
H	-3.2403280114	 0.2345923297	-0.1660313529	 0.27234
137.1503	157.6731	212.0346	220.3131	300.3163	336.9275	460.3796	486.967	514.6052	560.2977	630.5394	693.8063	748.0853	779.444	900.894	926.9491	955.2563	1015.2016	1045.1991	1102.2988	1121.472	1161.4995	1222.6171	1249.55	1314.967	1346.7268	1357.8864	1401.1211	1436.054	1633.7951	2345.6431	3154.2588	3189.3857	3207.6164	3650.096	3751.3344
OC1C2N=CNC12C#N	O[C@H]1[C@H]2N=CN[C@@]12C#N	
InChI=1S/C5H5N3O/c6-1-5-3(4(5)9)7-2-8-5/h2-4,9H,(H,7,8)	InChI=1S/C5H5N3O/c6-1-5-3(4(5)9)7-2-8-5/h2-4,9H,(H,7,8)/t3-,4+,5-/m1/s1
