16
gdb 103270	2.9921	1.24931	1.11259	3.8319	65.57	-0.2373	0.0078	0.2451	1109.0881	0.123446	-474.99809	-474.989766	-474.988822	-475.030958	31.638	
O	-0.0608223474	 1.317184518	-0.2985051234	-0.433267
C	 0.0284012751	-0.0643492255	 0.0547773944	-0.174585
C	-1.384424741	-0.593147427	-0.0039150896	 0.431013
O	-2.2628763466	 0.1546471516	 0.7780166922	-0.472707
C	-2.0173699623	-1.223226296	-1.2214271105	-0.085767
N	-1.0936773525	-2.0622482776	-1.9804041734	-0.339057
C	-0.7483079137	-2.8306460141	-0.8518116297	 0.406409
O	 0.0554112637	-3.7061689607	-0.6986189913	-0.346669
C	-1.7447034443	-2.0760032343	 0.0185614728	-0.296975
H	 0.7268965601	 1.7664106882	 0.0201874087	 0.299524
H	 0.692481174	-0.6102575927	-0.6257147159	 0.107326
H	 0.4084472785	-0.1862348754	 1.0780724224	 0.114442
H	-2.0085561362	 1.076022278	 0.6284113746	 0.295416
H	-2.9749249095	-0.916928107	-1.6197963118	 0.121661
H	-0.4179944104	-1.7200976957	-2.6544556725	 0.245246
H	-2.4284544675	-2.4634168499	 0.759534903	 0.127991
100.7175	115.3543	202.5953	258.3562	288.0079	292.6889	409.3743	448.7376	469.0889	475.1719	545.1307	614.5789	721.1792	739.1465	780.0419	851.578	899.5308	935.131	987.7021	1007.2223	1024.1303	1054.8545	1075.2311	1125.9419	1136.0409	1217.1531	1231.8831	1274.4196	1286.7423	1316.8028	1334.0724	1430.5005	1471.6606	1505.9687	1892.8304	3013.0532	3059.2859	3214.8322	3235.8833	3547.9828	3752.9091	3843.1848
OCC1(O)C2NC(=O)C12	OC[C@@]1(O)[C@H]2NC(=O)[C@@H]12	
InChI=1S/C5H7NO3/c7-1-5(9)2-3(5)6-4(2)8/h2-3,7,9H,1H2,(H,6,8)	InChI=1S/C5H7NO3/c7-1-5(9)2-3(5)6-4(2)8/h2-3,7,9H,1H2,(H,6,8)/t2-,3-,5-/m0/s1
