19
gdb 106459	2.33465	1.76035	1.27016	1.9667	75.73	-0.2281	0.0075	0.2356	1053.348	0.158801	-422.982044	-422.973667	-422.972723	-423.014723	32.619	
C	 0.1627547309	 1.5064487197	-0.0092042604	-0.521963
C	 0.0544925065	 0.0225587278	-0.0161820039	 0.333413
C	-0.1145330068	-0.8782001799	-0.9886769772	-0.209077
C	-0.1343065488	-2.1949386796	-0.1970726965	 0.021589
C	 1.090717642	-2.0186254027	 0.7476600942	-0.273335
C	 0.1147978212	-0.9026427183	 1.233520283	 0.286497
C	 0.0380272098	-0.33008578	 2.6235433609	-0.18443
O	-1.1766887227	 0.3810662372	 2.8009170492	-0.41856
O	-0.9890478147	-1.841672529	 0.9477242645	-0.333775
H	 1.1455299629	 1.8333056506	 0.3560442322	 0.126088
H	 0.0235921724	 1.9217099275	-1.0110131732	 0.124357
H	-0.5815231014	 1.9415891555	 0.6662067116	 0.152694
H	-0.2138909977	-0.7513465092	-2.0569789003	 0.104822
H	-0.3980599598	-3.1319784659	-0.6847834985	 0.081304
H	 1.193895481	-2.8312394817	 1.471796073	 0.104305
H	 2.0486199746	-1.7266991476	 0.3131071929	 0.097905
H	 0.1414750097	-1.1412155117	 3.3598735819	 0.09877
H	 0.8539269676	 0.381656796	 2.7903407889	 0.110646
H	-1.8786603267	-0.2009117887	 2.4849120878	 0.29875
106.139	151.6504	181.5656	195.7917	244.8501	361.1039	407.0676	433.082	495.8777	550.5818	579.8025	655.8666	683.8249	763.1631	776.8289	839.3439	897.5723	903.5028	935.4908	984.7194	1007.1994	1023.2151	1051.15	1063.4538	1071.3485	1131.332	1160.9079	1208.2464	1230.3321	1236.0192	1258.9899	1289.1155	1329.247	1373.5958	1409.2189	1439.4975	1474.4898	1487.2144	1490.6238	1499.4995	1688.642	2994.2867	3018.5198	3059.8977	3072.1968	3075.8643	3116.0536	3133.1655	3138.1062	3236.6743	3789.5769
CC1=CC2CC1(CO)O2	CC1=C[C@H]2C[C@]1(CO)O2	
InChI=1S/C7H10O2/c1-5-2-6-3-7(5,4-8)9-6/h2,6,8H,3-4H2,1H3	InChI=1S/C7H10O2/c1-5-2-6-3-7(5,4-8)9-6/h2,6,8H,3-4H2,1H3/t6-,7+/m0/s1
