23
gdb 110264	2.18098	1.44773	1.00907	1.151	87.67	-0.2427	0.0963	0.339	1301.1732	0.204891	-388.228838	-388.219182	-388.218237	-388.263044	36.526	
C	 0.2357091978	 1.5172273473	 0.0723453988	-0.248972
O	-0.2656886026	 0.2437177096	-0.2678343579	-0.253859
C	 0.5435391245	-0.4314195183	-1.1927355605	 0.196763
C	 1.7699452682	-1.3018155415	-0.7487178366	-0.141012
C	 0.7669886818	-2.3796431	-0.2059177714	 0.070388
C	 0.0460070583	-2.2770449765	 1.1312722807	-0.453017
C	 0.1639428462	-1.8839767902	-1.5682683428	-0.138199
C	 1.6222927235	-2.0203643193	-2.1341339092	 0.060336
C	 2.0741348946	-1.3980625267	-3.4495652957	-0.452611
H	 1.2027047148	 1.4552569422	 0.5932520151	 0.108716
H	 0.3658234939	 2.1508688139	-0.8192809612	 0.10536
H	-0.493507373	 1.988021584	 0.7358422058	 0.126353
H	 0.7367343013	 0.2438951918	-2.0345598432	 0.055151
H	 2.7002912324	-0.9669230637	-0.2844803331	 0.060374
H	 1.1809082702	-3.3920077104	-0.296048185	 0.058177
H	-0.4238457552	-1.3102657	 1.2912075281	 0.143311
H	-0.7268109027	-3.0523556838	 1.1942652979	 0.107491
H	 0.7529217296	-2.4645992988	 1.9485487699	 0.104728
H	-0.7604694791	-2.2152119574	-2.0460197586	 0.064743
H	 1.9750099735	-3.0557399297	-2.094553266	 0.06862
H	 1.7772458159	-0.355918582	-3.5844914551	 0.120819
H	 3.166494491	-1.4396935251	-3.5268142991	 0.117668
H	 1.6685944552	-1.9664478755	-4.294129011	 0.118673
83.8001	151.0045	162.0786	182.0525	184.2532	202.2862	268.8889	303.2179	371.1583	396.0243	455.4727	520.4882	620.7744	725.7098	762.8997	811.693	824.4072	882.0504	930.4946	1013.3571	1024.3218	1024.8813	1045.4129	1054.7749	1081.2811	1103.0504	1110.4845	1125.6205	1167.1516	1179.4822	1183.6136	1199.2132	1218.0981	1233.6207	1237.6956	1268.1599	1287.0544	1400.3696	1408.2911	1409.5939	1438.7803	1466.7702	1485.6585	1489.509	1496.4159	1496.5904	1503.7451	1512.7266	1515.8259	2974.0756	3011.7865	3023.1525	3025.9619	3030.6553	3035.5692	3050.5039	3076.5214	3084.8611	3087.4831	3093.7745	3115.5487	3121.6453	3184.9639
COC1C2C(C)C1C2C	CO[C@H]1[C@H]2[C@@H](C)[C@@H]1[C@H]2C	
InChI=1S/C8H14O/c1-4-6-5(2)7(4)8(6)9-3/h4-8H,1-3H3	InChI=1S/C8H14O/c1-4-6-5(2)7(4)8(6)9-3/h4-8H,1-3H3/t4-,5+,6+,7-,8-
