15
gdb 27426	2.48799	1.72172	1.14384	3.9787	77.23	-0.2432	-0.0778	0.1654	1052.2187	0.112854	-416.842774	-416.834992	-416.834047	-416.875211	28.667	
C	-0.3901559032	 1.4508752141	 0.0788064885	-0.466203
C	-0.017356374	-0.0038457796	-0.0621493557	 0.285533
N	-0.2710412691	-0.5867326428	-1.1889483025	-0.28288
C	 0.0234691118	-1.9071813611	-1.4668082899	 0.326324
O	 0.6295224289	-2.2870799881	-2.4415225853	-0.31558
C	-0.574159423	-2.873808095	-0.4807825433	-0.064692
N	-0.2430163048	-2.9117315061	 0.754833946	-0.17787
C	 0.5398022195	-1.962716243	 1.3689435958	 0.00505
C	 0.6178038055	-0.6380050967	 1.0762927041	-0.130168
H	-1.0747164547	 1.5975232573	 0.9213257614	 0.142679
H	 0.5040635505	 2.0501791985	 0.2863864267	 0.143433
H	-0.8552805992	 1.8105005857	-0.8387684687	 0.151824
H	-1.2798500274	-3.6162071616	-0.8562918765	 0.14521
H	 1.0351881345	-2.3283380957	 2.2649769992	 0.12806
H	 1.1017733747	 0.0100854339	 1.8018106702	 0.109281
111.679	122.9101	165.3234	248.0656	296.4549	369.6434	408.1363	464.1019	539.504	590.6226	668.7975	681.2884	808.099	832.1322	889.4767	916.1593	946.3356	994.9213	1030.3332	1054.6237	1061.4057	1194.7622	1257.5574	1269.6257	1370.0926	1400.2275	1461.2038	1471.3593	1480.0729	1554.2689	1661.7234	1678.1719	1793.8433	3037.0443	3092.7012	3124.0556	3156.5758	3158.3045	3175.5709
CC1=NC(=O)C=NC=C1	Cc1nc(=O)cncc1	
InChI=1S/C6H6N2O/c1-5-2-3-7-4-6(9)8-5/h2-4H,1H3	InChI=1S/C6H6N2O/c1-5-2-3-7-4-6(9)8-5/h2-4H,1H3
