19
gdb 37573	3.75142	1.63427	1.40112	1.1383	78.99	-0.2132	0.0685	0.2817	965.686	0.162235	-381.94727	-381.940676	-381.939732	-381.978104	27.677	
C	-0.0417691586	 1.5469066	-0.1998359295	-0.195336
C	 1.4202656248	 2.0643269519	-0.0123269419	-0.178667
N	 2.2051372976	 0.845339551	-0.251823161	-0.143809
C	 3.2012466859	 0.3221218559	 0.7374894881	-0.044736
C	 2.1761738566	 0.0744684429	 1.8974089617	-0.093612
N	 2.4602789318	-1.3881547555	 2.0473684908	-0.351231
C	 2.6372720084	-1.144560733	 0.5815714427	-0.139623
C	 1.4323035503	-0.1614591442	 0.5147108136	 0.428618
C	-0.0286005418	 0.0225202526	 0.1957929739	-0.374283
H	-0.7477459322	 2.1219795985	 0.4039927824	 0.102809
H	-0.3441057233	 1.6537416222	-1.2442611794	 0.114065
H	 1.6762536345	 2.8547772769	-0.7229928638	 0.098443
H	 1.5503979695	 2.4688913667	 1.0042663614	 0.085553
H	 4.2446031769	 0.6417511979	 0.7867482406	 0.07947
H	 1.9061813874	 0.7034612885	 2.7463926165	 0.083357
H	 3.3735529161	-1.5217067085	 2.4902135646	 0.207804
H	 2.9293040473	-1.9090588886	-0.1383317341	 0.089542
H	-0.6761761371	-0.2026418196	 1.045689386	 0.115797
H	-0.343140804	-0.6020203856	-0.6443128024	 0.11584
107.2286	258.0222	278.9839	326.1256	533.4741	560.6385	618.9123	697.3951	724.711	758.1924	784.7076	824.9105	836.6681	878.0512	891.8961	912.1829	928.9798	947.2869	979.4784	1001.6025	1032.5142	1075.6785	1086.5758	1108.8264	1122.4509	1144.6231	1158.1193	1202.711	1207.6695	1218.0161	1235.0866	1250.4423	1258.5161	1284.0041	1294.5431	1323.2805	1341.3287	1384.0735	1480.1834	1499.0322	1517.8526	2971.4328	3063.4444	3072.0003	3082.057	3088.8244	3104.711	3108.8757	3123.8083	3124.628	3398.222
C1CN2C3C4NC3C24C1	C1CN2[C@H]3[C@@H]4N[C@H]3[C@]24C1	
InChI=1S/C7H10N2/c1-2-7-5-4(6(7)8-5)9(7)3-1/h4-6,8H,1-3H2	InChI=1S/C7H10N2/c1-2-7-5-4(6(7)8-5)9(7)3-1/h4-6,8H,1-3H2/t4-,5-,6+,7+
