15
gdb 5105	3.41846	2.12956	1.33412	5.045	63.06	-0.2075	0.0298	0.2373	885.2419	0.118837	-399.861763	-399.853993	-399.853049	-399.893854	27.735	
C	-0.0173026324	 1.4451359767	 0.0317011894	-0.348241
N	 0.0015099763	-0.0008896595	 0.0491905672	-0.172753
C	-0.0196652438	-0.7542143984	-1.1076287018	 0.482026
O	-0.0544735194	-0.3860421356	-2.2530732843	-0.416285
O	 0.0073112766	-2.0705560072	-0.7051019234	-0.213058
C	 0.043991193	-2.0974913114	 0.6743864897	-0.126234
C	 0.0413877424	-0.8503254876	 1.1649789439	 0.268817
C	 0.072109027	-0.3528371427	 2.5662267438	-0.496909
H	 0.8810105535	 1.8621258585	 0.4987385883	 0.135471
H	-0.0489736236	 1.7485835376	-1.0158460923	 0.176601
H	-0.8998495022	 1.8395053789	 0.546047535	 0.135469
H	 0.0684370142	-3.0651814631	 1.1431628985	 0.150179
H	 0.1009140187	-1.197126728	 3.2585470483	 0.143932
H	 0.9530211441	 0.2709911895	 2.7574544604	 0.140492
H	-0.8128052744	 0.2489227523	 2.8040258573	 0.140491
110.6081	139.3911	180.2547	199.4632	251.9504	324.1429	332.713	566.6282	590.3865	598.0747	691.317	721.7603	765.3782	793.9008	974.5307	1017.6609	1053.0695	1066.532	1137.8096	1157.1336	1197.1385	1278.9418	1340.718	1411.4625	1428.962	1462.183	1474.0721	1496.3065	1496.7806	1513.0526	1711.8839	1872.9212	3027.8478	3033.9635	3077.7942	3090.6961	3127.6724	3149.2991	3299.1355
CN1C(=O)OC=C1C	Cn1c(=O)occ1C	
InChI=1S/C5H7NO2/c1-4-3-8-5(7)6(4)2/h3H,1-2H3	InChI=1S/C5H7NO2/c1-4-3-8-5(7)6(4)2/h3H,1-2H3
