17
gdb 36189	3.9009	1.15513	1.14117	4.7475	75.5	-0.253	0.0331	0.2861	1119.6656	0.137417	-380.817883	-380.810498	-380.809554	-380.850306	28.414	
N	-0.1295727975	-1.0733772064	-0.3963694052	-0.307926
C	-0.0730392378	 0.0592683781	-0.1764023591	 0.26562
C	 0.0196496161	 1.4906834762	 0.1232733137	-0.454259
C	 1.4440717385	 1.9777557741	 0.1227575895	 0.360759
C	 2.5915490115	 1.5693531678	 1.0461127712	-0.291275
C	 3.3683628457	 2.7542587217	 0.4083879977	-0.086312
C	 3.4894182668	 2.3050684653	-1.0572956493	-0.147057
N	 2.000454944	 2.4273083102	-1.2046544835	-0.173999
C	 1.9754608178	 3.3524572655	-0.0329531751	-0.115847
H	-0.5546432469	 2.0474944424	-0.6240912921	 0.166276
H	-0.4465487562	 1.6695694266	 1.0995514741	 0.152449
H	 2.3322276257	 1.7639064246	 2.0903085669	 0.109542
H	 3.0202792724	 0.5668743459	 0.9476954194	 0.113739
H	 4.1694439803	 3.2560290937	 0.9468058438	 0.081902
H	 3.9569295568	 3.0482421346	-1.7075971208	 0.114725
H	 3.9020888607	 1.3115144539	-1.2656492342	 0.108042
H	 1.5203722822	 4.3344681158	-0.0365505071	 0.103622
58.1321	101.3233	272.314	293.2881	386.7489	437.0254	450.324	476.5293	682.9592	708.226	767.2124	807.7066	854.8925	886.1525	906.0897	946.0658	953.2313	971.3958	990.2422	998.6881	1026.8774	1083.8548	1119.6964	1146.3869	1159.3091	1172.8403	1213.9639	1234.6773	1254.5285	1289.3881	1318.9766	1326.9517	1412.5261	1450.3142	1495.0364	1515.8303	2364.9155	3040.846	3042.5791	3050.1916	3091.6386	3106.9864	3110.2777	3140.4745	3201.3074
N#CCC12CC3CN1C23	N#CC[C@@]12C[C@H]3CN1[C@@H]23	
InChI=1S/C7H8N2/c8-2-1-7-3-5-4-9(7)6(5)7/h5-6H,1,3-4H2	InChI=1S/C7H8N2/c8-2-1-7-3-5-4-9(7)6(5)7/h5-6H,1,3-4H2/t5-,6+,7-,9?/m0/s1
