21
gdb 111609	3.08686	1.24324	1.17873	1.2886	81.45	-0.2324	0.0819	0.3142	1185.893	0.183753	-387.050904	-387.042791	-387.041847	-387.083625	32.215	
C	 0.2450080223	 1.7195796109	 0.0416907648	-0.390708
C	 0.0748297047	 0.2014806247	-0.1039623731	-0.211383
C	 0.6989247771	-0.5346495128	 1.0692017337	-0.020657
C	-0.0978910343	-1.1822479733	 2.1736193785	 0.065969
O	-1.4247029054	-1.565808624	 1.8805079044	-0.263568
C	-1.4427882	-2.7977963517	 1.1897394269	 0.102509
C	-1.1275920894	-2.8182764366	-0.2831598483	-0.330529
C	-0.0428176695	-3.1194883604	 0.736584878	-0.06891
C	 0.8271720339	-2.0369045615	 1.3360625702	-0.129771
H	 1.303465819	 2.0023981745	 0.0551901328	 0.112735
H	-0.2317451285	 2.2506261764	-0.7879155079	 0.110872
H	-0.2072982712	 2.0768650605	 0.9727896814	 0.12222
H	-0.9928251837	-0.0272861028	-0.1556061611	 0.121628
H	 0.5227319296	-0.1259875307	-1.0501735324	 0.099272
H	 1.57800891	-0.0170648991	 1.4537922944	 0.081353
H	 0.0513802668	-0.9279935776	 3.2190940308	 0.090501
H	-2.1363288655	-3.5164343557	 1.6152919185	 0.096303
H	-1.5080938264	-3.6711852474	-0.8371774436	 0.109349
H	-1.1052132368	-1.8981818309	-0.8462471437	 0.124557
H	 0.3508374603	-4.1278832755	 0.7842878138	 0.090109
H	 1.7822382571	-2.3688180873	 1.7266726821	 0.088151
75.0706	160.7094	171.6812	240.9049	256.49	318.9727	416.0729	534.0857	619.4539	692.7706	707.8423	730.413	755.0182	786.5285	814.3246	836.68	883.7441	926.9048	968.0042	984.6926	998.1738	1032.3368	1042.4483	1065.7756	1068.9467	1096.5009	1097.2545	1101.9919	1122.8535	1144.9228	1166.996	1207.0035	1246.1183	1301.103	1306.4939	1329.0931	1350.2405	1378.4436	1381.6284	1408.2474	1435.8118	1476.1025	1497.6642	1499.9257	1508.997	3029.0597	3030.9045	3082.5522	3097.4523	3105.8893	3108.8496	3142.2945	3143.6432	3155.1095	3167.7132	3183.1769	3266.1732
CCC1C2OC3CC3C12	CC[C@H]1[C@H]2O[C@H]3C[C@H]3[C@@H]12	
InChI=1S/C8H12O/c1-2-4-7-5-3-6(5)9-8(4)7/h4-8H,2-3H2,1H3	InChI=1S/C8H12O/c1-2-4-7-5-3-6(5)9-8(4)7/h4-8H,2-3H2,1H3/t4-,5-,6+,7-,8-/m1/s1
