18
gdb 78933	2.7256	1.90811	1.49258	0.5148	73.07	-0.2318	0.0618	0.2936	933.0159	0.148587	-401.86654	-401.859326	-401.858381	-401.897813	29.306	
C	 0.0073344708	 1.4303636292	 0.0087420482	-0.51482
C	 0.0917109475	-0.0584904457	 0.1186764249	 0.337092
C	 1.0330751123	-0.9550007893	-0.6294421369	-0.117965
C	 1.0229116554	-2.2245066241	 0.2453469291	-0.127834
C	 0.9978931114	-1.7312889301	 1.716824464	 0.147445
O	 2.0896405498	-1.0429168175	 2.2597288518	-0.439969
C	-0.2941377039	-0.9754772781	 1.3054201805	-0.177273
C	-0.5259101846	-2.0242787229	 0.171839657	 0.012732
N	-0.4380887412	-0.9765187962	-0.9462654071	-0.208895
H	 0.6987592393	 1.9209090286	 0.703765371	 0.119164
H	 0.2565176373	 1.7520234865	-1.0072503686	 0.133283
H	-1.0039553775	 1.7847540935	 0.2345148806	 0.130328
H	 1.7636425165	-0.6164827389	-1.3550445365	 0.095202
H	 1.5614874804	-3.1109136903	-0.0818320347	 0.076699
H	 0.7685039234	-2.5539934349	 2.401759005	 0.092912
H	 2.3225131991	-0.3389006647	 1.6436502072	 0.28522
H	-1.0441055929	-0.6378493991	 2.0178153917	 0.07348
H	-1.2843728531	-2.801878986	 0.1448616527	 0.083199
148.5828	187.3688	237.6372	285.4597	329.906	390.4957	551.8258	602.9954	635.164	748.1321	749.869	792.7249	816.824	837.2474	849.0617	865.3246	930.8898	950.9541	971.757	977.6182	1014.9943	1045.7557	1076.3492	1095.9224	1110.3141	1143.9868	1173.3244	1199.376	1214.7281	1218.5477	1255.0354	1264.5031	1298.0688	1311.3016	1398.5959	1428.3221	1433.4035	1479.6026	1493.8729	3027.2616	3070.1212	3090.4256	3107.3387	3137.8778	3142.1277	3155.6123	3179.4562	3796.0427
CC12C3C4C(O)C1C4N23	C[C@@]12[C@H]3[C@H]4[C@@H](O)[C@@H]1[C@H]4N23	
InChI=1S/C7H9NO/c1-7-3-4-2(5(3)9)6(7)8(4)7/h2-6,9H,1H3	InChI=1S/C7H9NO/c1-7-3-4-2(5(3)9)6(7)8(4)7/h2-6,9H,1H3/t2-,3+,4+,5-,6-,7+,8?/m1/s1
