21
gdb 95275	2.54979	1.68133	1.21186	1.3996	82.18	-0.2314	0.0333	0.2647	1085.1122	0.185398	-387.116442	-387.108508	-387.107563	-387.149223	31.662	
O	 0.0420152986	 1.4198243811	-0.0797424949	-0.441691
C	 0.0474952271	 0.0126211699	 0.0957454802	 0.140076
C	 0.5390655188	-0.4809365704	 1.463215205	-0.245144
C	 0.0049946677	-1.9207873732	 1.5109498438	-0.223396
C	-1.4032496556	-1.8546609712	 0.8561559415	-0.009147
C	-2.5787391279	-1.6958061636	 1.8661809044	-0.266002
C	-3.0536832	-0.2794244445	 1.668441687	-0.077111
C	-2.4230602792	 0.3389101428	 0.6730061553	-0.044521
C	-1.3949844428	-0.5380321015	 0.0002017793	-0.078924
H	 0.9473838666	 1.7333678692	 0.0060914679	 0.281111
H	 0.6576439559	-0.4624907026	-0.6909710616	 0.057802
H	 1.6262686068	-0.4177524362	 1.5787998353	 0.081677
H	 0.0785927968	 0.1351695411	 2.2437745989	 0.110893
H	 0.6585876052	-2.5734986123	 0.9201580719	 0.094041
H	-0.0229812436	-2.3347978829	 2.5229427473	 0.09457
H	-1.5662282865	-2.7381715711	 0.2353332261	 0.066475
H	-3.3838170887	-2.416635807	 1.6694019054	 0.100772
H	-2.2582804374	-1.8831704435	 2.8998519907	 0.097921
H	-3.8384514837	 0.1589723266	 2.2765015471	 0.086624
H	-2.5977943475	 1.3578999628	 0.350877863	 0.102266
H	-1.6608807306	-0.7061171636	-1.0499115935	 0.071707
43.2382	177.9766	198.9686	253.2745	324.5974	398.4332	417.1075	492.6486	561.812	603.4795	724.513	745.4228	791.5885	812.8264	826.0958	898.5992	910.8789	945.1177	963.0807	980.015	988.3863	1003.1711	1048.4095	1074.9199	1104.8338	1124.2326	1130.444	1150.2549	1188.7116	1200.5163	1223.9853	1249.611	1284.0407	1305.9102	1309.8264	1329.7957	1331.8943	1346.3361	1375.1518	1388.4325	1425.2788	1482.9592	1490.6367	1502.321	1691.0062	2951.1309	3007.7533	3028.2419	3030.5548	3032.2854	3039.8898	3076.927	3080.0563	3091.8236	3179.7048	3218.7431	3822.3328
OC1CCC2CC=CC12	O[C@H]1CC[C@H]2CC=C[C@@H]12	
InChI=1S/C8H12O/c9-8-5-4-6-2-1-3-7(6)8/h1,3,6-9H,2,4-5H2	InChI=1S/C8H12O/c9-8-5-4-6-2-1-3-7(6)8/h1,3,6-9H,2,4-5H2/t6-,7-,8+/m1/s1
