14
gdb 20963	7.70138	1.15599	1.01793	3.6027	60.1	-0.2674	-0.037	0.2304	1103.7538	0.106832	-415.81435	-415.807084	-415.80614	-415.8466	25.526	
C	-0.058051475	 1.5025802544	 0.0111158193	-0.394582
C	 0.005969632	-0.0107773382	 0.00298051	-0.053906
O	-1.3513992215	-0.5040930784	 0.0117620782	-0.265089
C	-1.4906913193	-1.824256221	 0.0065176198	 0.414994
N	-0.5150298	-2.6957580001	-0.0058622338	-0.182506
O	-1.1400431162	-3.9249467612	-0.0066225486	-0.167919
N	-2.4983250494	-3.7959471794	 0.0053839466	-0.051055
C	-2.7385143179	-2.5178734827	 0.013614758	-0.115737
H	 0.9555567205	 1.9135211277	 0.0046945719	 0.129901
H	-0.5875868853	 1.8747887371	-0.8700724866	 0.135065
H	-0.5727397611	 1.8658880011	 0.9047276	 0.135063
H	 0.5134379688	-0.3974810568	-0.8877613773	 0.130818
H	 0.5281157904	-0.4063836516	 0.8812403972	 0.130824
H	-3.7418109662	-2.123562251	 0.0239416154	 0.154128
65.5403	111.0254	158.1115	250.2783	351.4898	357.9617	454.5279	624.2721	726.6285	752.5139	814.1843	880.0854	901.6707	914.3734	923.5323	1025.073	1054.6227	1075.9619	1139.6379	1181.8654	1219.841	1294.3772	1389.8428	1415.6756	1452.904	1484.9631	1497.1805	1509.6348	1527.4956	1634.4079	3039.8839	3049.7945	3080.4598	3125.768	3129.7229	3278.6016
CCOC1=NON=C1	CCOc1nonc1	
InChI=1S/C4H6N2O2/c1-2-7-4-3-5-8-6-4/h3H,2H2,1H3	InChI=1S/C4H6N2O2/c1-2-7-4-3-5-8-6-4/h3H,2H2,1H3
