19
gdb 91979	2.53454	1.56194	1.19707	2.9751	78.04	-0.2459	0.031	0.2769	1082.046	0.161128	-382.067613	-382.059383	-382.058439	-382.100418	31.438	
C	 0.7017926001	 1.4862166106	-0.3007184203	-0.411483
C	 0.122237596	 0.1014146495	 0.0128257154	-0.031358
C	 0.2875031129	-0.9463958715	-1.1305179728	-0.174982
N	 1.2850612818	-1.9612200561	-0.7496380807	-0.09213
C	 2.5979304545	-1.4129184061	-0.3779838829	-0.247789
C	 1.6067486203	-1.7623278495	 0.6680331064	-0.028362
C	 0.7462744373	-0.6379366134	 1.2527095921	-0.171462
C	 1.4783782285	 0.2266061788	 2.1747197731	 0.282502
N	 2.0595551937	 0.9072380785	 2.9065892531	-0.336506
H	 1.774692151	 1.4632010582	-0.5096849315	 0.133803
H	 0.202171136	 1.9016750848	-1.1815690988	 0.12012
H	 0.5463123053	 2.1783093368	 0.5315200716	 0.141506
H	-0.9435630303	 0.240579566	 0.2147639228	 0.097044
H	-0.6563768172	-1.4738797434	-1.3013994812	 0.113933
H	 0.5756515482	-0.4753405256	-2.0756520452	 0.115071
H	 3.4339008289	-2.0799614038	-0.5653362663	 0.126785
H	 2.8086928019	-0.3648855206	-0.5660571567	 0.124156
H	 1.7395929475	-2.6492516359	 1.279932612	 0.108639
H	-0.0627550565	-1.1034108171	 1.8271188697	 0.130511
81.6129	144.7049	183.7872	191.9643	292.4425	361.783	375.384	393.4452	506.3331	564.0487	650.0882	713.9326	739.4489	788.9012	863.8836	887.977	929.5593	948.256	998.3073	1018.7397	1033.8929	1073.7598	1105.1634	1117.7232	1122.7632	1147.0039	1179.3095	1240.3331	1261.0125	1278.3308	1310.4497	1330.4616	1343.3858	1374.8575	1391.9278	1422.4722	1491.0362	1492.2458	1503.0261	1515.6354	2354.1099	3039.7362	3043.281	3045.3047	3063.1538	3089.0866	3111.7757	3119.5853	3126.7589	3155.7462	3209.1669
CC1CN2CC2C1C#N	C[C@H]1CN2C[C@H]2[C@H]1C#N	
InChI=1S/C7H10N2/c1-5-3-9-4-7(9)6(5)2-8/h5-7H,3-4H2,1H3	InChI=1S/C7H10N2/c1-5-3-9-4-7(9)6(5)2-8/h5-7H,3-4H2,1H3/t5-,6-,7-,9?/m0/s1
