18
gdb 35168	3.64075	1.26377	1.11667	1.4324	83.69	-0.2385	0.0459	0.2844	1127.3765	0.147388	-364.675838	-364.668106	-364.667162	-364.707961	30.917	
C	-0.0913289182	-1.2152963704	-0.0088301368	-0.461961
C	-0.0478065052	-0.0127293334	 0.0024140453	 0.337262
C	 0.0214911623	 1.4183544991	 0.012210196	-0.346331
C	 0.5106464728	 2.1630045409	 1.2783819493	-0.406498
C	 1.3471392229	 2.1168507218	 0.0631706939	 0.47165
C	 2.7823722009	 1.7215281733	-0.2741940336	-0.152264
C	 2.404761607	 2.2040385638	-1.6944006106	-0.167833
N	 1.7526213739	 3.2916391518	-0.8082671767	-0.191068
C	 3.0726870506	 3.2182671515	-0.006692505	-0.169017
H	-0.137372747	-2.2758059174	-0.0185100016	 0.194831
H	-0.7559530692	 1.9328490969	-0.5469270067	 0.124268
H	-0.002910201	 3.0884279123	 1.5171106357	 0.130628
H	 0.7872249107	 1.5510584024	 2.1300290313	 0.13093
H	 3.341867709	 0.8345881283	 0.035832969	 0.078951
H	 3.2038856759	 2.5939052826	-2.3301269251	 0.101257
H	 1.6824443051	 1.6146282276	-2.2623429434	 0.114914
H	 2.980789872	 3.5880854661	 1.0168539074	 0.107763
H	 3.9162695575	 3.6752175728	-0.5304891486	 0.102521
97.6354	121.9178	240.8376	275.763	310.867	425.2747	506.6291	546.8578	579.2966	631.4499	647.8544	670.4833	761.0478	779.9036	806.3422	837.5596	898.1081	921.7314	944.2302	966.3623	1017.497	1042.269	1067.4438	1080.4633	1095.6387	1111.6812	1116.1037	1138.1448	1168.951	1195.5366	1218.4544	1222.9445	1269.711	1331.6215	1416.4436	1488.1505	1506.481	1546.2167	2234.5807	3056.611	3058.9421	3074.1848	3129.1671	3132.0001	3134.8477	3141.198	3224.6928	3505.5472
C#CC1CC11C2CN1C2	C#C[C@H]1C[C@]21[C@H]1CN2C1	
InChI=1S/C8H9N/c1-2-6-3-8(6)7-4-9(8)5-7/h1,6-7H,3-5H2	InChI=1S/C8H9N/c1-2-6-3-8(6)7-4-9(8)5-7/h1,6-7H,3-5H2/t6-,8-/m0/s1
