16
gdb 8353	5.57148	1.28364	1.25739	4.1329	66.23	-0.2764	0.0025	0.279	990.0506	0.130677	-383.713064	-383.705998	-383.705054	-383.745914	26.006	
O	 0.0323503692	 0.0294931075	 0.0010869955	-0.272341
C	 0.0100794826	 1.2231507875	 0.0075936649	 0.149807
O	 1.1353071603	 1.9682904699	 0.0023842588	-0.238395
C	 0.9902277367	 3.3668294171	 0.0113088423	 0.427481
C	 0.3469886309	 4.2631219737	 1.1088217493	-0.274145
C	 0.9268921139	 5.2158139899	 0.0218090424	-0.05127
C	 2.2018717433	 4.3162405207	 0.0019159965	-0.264807
C	 0.3212168322	 4.2746483784	-1.0611486519	-0.274229
H	-0.9131401445	 1.83040708	 0.0178646447	 0.081354
H	-0.7413638062	 4.233756348	 1.2026402086	 0.09952
H	 0.8417690034	 4.269364279	 2.0826328848	 0.106613
H	 0.8937025914	 6.3014110097	 0.0279605316	 0.094591
H	 2.8222055708	 4.3227839314	 0.9007840919	 0.104827
H	 2.8007466791	 4.3323356613	-0.9112749988	 0.104811
H	 0.7927660221	 4.2912145923	-2.0463035262	 0.106616
H	-0.769055375	 4.2463502437	-1.1294379445	 0.099566
19.5295	121.8243	171.8747	375.5693	399.2946	466.0564	552.9474	556.0294	768.2246	781.6512	812.7195	906.6645	951.1553	961.9802	962.0428	977.9773	991.1411	1046.3383	1099.2171	1099.2552	1137.4143	1137.6869	1147.6802	1174.248	1200.6026	1227.0039	1229.6226	1241.9742	1273.715	1432.0176	1496.487	1499.424	1556.6487	1866.6444	2975.2915	3057.6825	3060.7954	3068.468	3127.3456	3131.5386	3136.0253	3160.6558
O=COC12CC(C1)C2	O=CO[C@@]12C[C@@H](C1)C2	
InChI=1S/C6H8O2/c7-4-8-6-1-5(2-6)3-6/h4-5H,1-3H2	InChI=1S/C6H8O2/c7-4-8-6-1-5(2-6)3-6/h4-5H,1-3H2/t5-,6-
