14
gdb 42230	4.1973	1.11702	1.0218	4.9529	69.83	-0.2648	-0.0843	0.1805	1132.8352	0.100342	-436.649421	-436.641757	-436.640813	-436.682385	27.673	
O	 0.1939221139	-0.1172370121	-0.0839888865	-0.293958
C	 0.0076108397	 1.0775321032	-0.1030906287	 0.313918
C	 1.162178769	 2.0036233356	-0.0134655009	 0.214749
N	 2.0583241261	 2.7325644619	 0.0415070064	-0.303637
C	-1.2968905516	 1.7636476397	-0.1689949421	-0.174854
C	-2.6205463017	 1.1245933627	-0.5724472797	-0.171218
C	-2.7288447949	-0.3035648895	-0.032528363	-0.089147
O	-2.4217049185	 0.1652879573	 1.3177985541	-0.258783
C	-2.4138116746	 1.4934529765	 0.8620913107	 0.102413
H	-1.2400665256	 2.8190398882	-0.4186461353	 0.12768
H	-3.2357183007	 1.5708067595	-1.341685716	 0.12222
H	-3.7558384279	-0.6786917599	-0.0653102205	 0.124162
H	-2.0176250702	-1.0491651105	-0.3839639378	 0.152806
H	-2.7861921128	 2.2764907073	 1.5119116293	 0.133649
48.3363	138.9177	162.123	237.8188	290.9642	352.3369	433.3256	511.2987	613.883	704.2043	785.8935	799.7775	822.5714	889.6907	894.4442	958.2185	983.6823	998.9924	1054.6319	1069.4136	1090.1249	1107.5	1167.1136	1168.5225	1259.9609	1301.7973	1367.538	1435.6344	1498.6481	1769.798	2335.0351	3065.4075	3158.3818	3165.9626	3190.7791	3212.3457
O=C(C#N)C1C2COC12	O=C(C#N)[C@H]1[C@H]2CO[C@@H]12	
InChI=1S/C6H5NO2/c7-1-4(8)5-3-2-9-6(3)5/h3,5-6H,2H2	InChI=1S/C6H5NO2/c7-1-4(8)5-3-2-9-6(3)5/h3,5-6H,2H2/t3-,5-,6-/m1/s1
