19
gdb 46796	2.6746	1.69723	1.31459	2.1159	74.55	-0.2122	-0.0222	0.19	1007.6738	0.162062	-419.177833	-419.170306	-419.169361	-419.209918	29.945	
O	-0.0509154374	-0.0149917844	 0.5608554739	-0.297401
C	-0.0318401726	 1.128450099	 0.1665202523	 0.356397
C	-1.339740638	 1.9137507876	-0.0595770811	-0.266566
N	-1.6314731827	 2.3813792965	-1.4209599886	-0.292424
C	-0.5550026924	 3.0196338224	-2.169947969	 0.012788
C	 0.6988792023	 2.1390580661	-2.4574484426	-0.197439
N	 1.3916576342	 2.7191652491	-1.2612055292	-0.100295
C	 0.4039186035	 3.8447690414	-1.2803752416	-0.18133
C	 1.3082503076	 1.854458001	-0.0892470286	-0.271662
H	-2.157354309	 1.2624779871	 0.2572127961	 0.125125
H	-1.3316224849	 2.7764803113	 0.6200474879	 0.118565
H	-1.9986058911	 1.6070913553	-1.964378588	 0.225873
H	-0.9935328334	 3.5308096586	-3.032950321	 0.079438
H	 0.5617012636	 1.0523712867	-2.4386680742	 0.109818
H	 1.2252467639	 2.4142001491	-3.3779480444	 0.106452
H	 0.8268348047	 4.7021977745	-1.8132441157	 0.110914
H	 0.0462933016	 4.1876105917	-0.3066243776	 0.109019
H	 1.5307195648	 2.4564429875	 0.8029023457	 0.123367
H	 2.0772034254	 1.0781218695	-0.1507350944	 0.12936
63.9988	173.8451	298.7025	320.5999	328.8734	412.2142	445.9776	474.9422	498.8163	620.307	722.2724	776.6882	810.8151	815.098	845.9381	873.5811	908.4378	953.9294	969.0714	1027.0653	1066.1363	1078.92	1094.2043	1127.255	1171.3186	1215.5079	1238.1408	1266.8861	1278.489	1286.1636	1295.6108	1315.2343	1325.0267	1353.7401	1382.8353	1453.5538	1470.068	1489.9646	1492.7197	1517.2821	1801.9608	3015.661	3019.1638	3029.3052	3046.6129	3058.0191	3083.2428	3087.0936	3104.8173	3111.0478	3520.0025
O=C1CNC2CN(C2)C1	O=C1CN[C@@H]2CN(C2)C1	
InChI=1S/C6H10N2O/c9-6-1-7-5-2-8(3-5)4-6/h5,7H,1-4H2	InChI=1S/C6H10N2O/c9-6-1-7-5-2-8(3-5)4-6/h5,7H,1-4H2
