15
gdb 23905	4.67338	0.8579	0.8438	3.1045	50.74	-0.2747	0.0699	0.3446	1315.2539	0.114243	-531.311262	-531.302619	-531.301675	-531.345626	29.744	
O	-0.0427913494	 1.4537489948	 0.0102836198	-0.418762
C	 0.0425411344	 0.0389058989	 0.001815798	-0.078092
C	-1.3796916576	-0.5058188111	 0.0125008177	-0.176508
C	-1.4141428953	-2.0356920501	 0.0045386114	-0.337174
C	-2.8240562336	-2.5869554233	 0.0149921602	 0.286487
F	-3.5254533956	-2.1834501793	-1.0575796221	-0.084679
F	-2.8207514593	-3.9300414422	 0.0077113828	-0.081424
F	-3.5048585566	-2.1951228179	 1.1050205331	-0.08468
H	 0.8497609551	 1.8115106166	 0.0037866419	 0.288482
H	 0.5749695375	-0.3257041384	-0.8923954852	 0.087578
H	 0.5919707164	-0.3352983642	 0.8816628465	 0.087578
H	-1.8971173075	-0.1264923554	 0.8993728876	 0.126253
H	-1.9139885826	-0.1169599778	-0.8601251783	 0.126255
H	-0.918989257	-2.4393801163	-0.8849286788	 0.129343
H	-0.9021582589	-2.4489481143	 0.8799719555	 0.129343
65.9069	71.4082	122.2663	147.5095	266.3003	277.7306	322.8066	360.5899	469.9686	538.6844	572.0856	653.3017	765.6881	849.2767	869.8537	1020.767	1052.0606	1055.9678	1087.5018	1169.7311	1191.2688	1247.3498	1249.6369	1273.2913	1310.0997	1326.6404	1336.9698	1410.1933	1466.6259	1479.3006	1503.7409	1529.3081	2956.6302	2982.0083	3050.4908	3060.494	3089.7156	3111.8706	3831.9547
OCCCC(F)(F)F	OCCCC(F)(F)F	
InChI=1S/C4H7F3O/c5-4(6,7)2-1-3-8/h8H,1-3H2	InChI=1S/C4H7F3O/c5-4(6,7)2-1-3-8/h8H,1-3H2
