15
gdb 8256	8.48681	0.94591	0.89474	3.0857	65.01	-0.2516	-0.032	0.2195	1226.7456	0.116902	-399.799058	-399.791126	-399.790182	-399.832853	27.777	
N	 0.2848383235	 1.2275043029	-0.0265147543	-0.435455
C	 0.1410038483	-0.0235089469	 0.0296035864	 0.121857
O	-1.0708715406	-0.5727491795	-0.1999420207	-0.186307
C	-1.2109386461	-1.9619773766	 0.0320082768	 0.121493
C	-1.8008844206	-2.3719094138	 1.4162166216	-0.369603
C	-2.8456277375	-3.2016520452	 0.649578886	 0.398377
O	-3.614123305	-4.0614995526	 0.9619519784	-0.280123
C	-2.4410967104	-2.5659445009	-0.6911335031	-0.369434
H	 1.2578337683	 1.4746155281	 0.1410789923	 0.23272
H	 0.9240625164	-0.765711822	 0.2395396852	 0.087313
H	-0.2778907727	-2.4851608364	-0.2026492162	 0.097655
H	-1.1623849635	-2.9062415952	 2.1232839249	 0.133058
H	-2.2599390097	-1.514000118	 1.9190453796	 0.15356
H	-3.1421014457	-1.7794564192	-0.9901308657	 0.157485
H	-2.273751145	-3.2377275649	-1.5352619113	 0.137403
35.4962	63.3556	101.3219	223.2712	352.4666	367.7501	431.0901	494.8093	552.9003	656.9945	699.262	795.8378	824.4559	909.5955	939.7321	996.6488	1013.623	1043.1572	1080.4278	1106.8221	1147.9041	1180.0514	1207.5235	1242.0123	1266.1189	1291.462	1382.7728	1417.7095	1425.1827	1442.5904	1748.6284	1903.6328	3017.184	3051.6997	3059.3448	3065.54	3125.2085	3129.8098	3520.8289
N=COC1CC(=O)C1	[NH][CH]OC1CC(=O)C1	
InChI=1S/C5H7NO2/c6-3-8-5-1-4(7)2-5/h3,5-6H,1-2H2	InChI=1S/C5H7NO2/c6-3-8-5-1-4(7)2-5/h3,5-6H,1-2H2
