12
gdb 132415	3.12831	1.33999	0.93815	4.5561	64.75	-0.2736	-0.1034	0.1702	1108.4567	0.077939	-476.83138	-476.824499	-476.823555	-476.863367	24.681	
F	 0.0226097272	 0.0726286337	 0.0036198061	-0.04553
C	-0.0075307455	 1.3877106732	 0.0103480073	 0.354041
N	-1.2053407885	 1.9330946424	 0.0299398678	-0.331327
C	-1.2189908888	 3.2721523189	 0.0371080053	 0.221774
C	-2.5510886348	 3.9675698015	 0.0592063068	 0.111709
O	-3.6120424077	 3.4061623692	 0.0709917362	-0.222548
C	-0.0479877961	 4.0236876873	 0.0247515853	-0.175183
C	 1.1485007172	 3.310126314	 0.0045050766	 0.025071
N	 1.1812306961	 1.9792199094	-0.0028773248	-0.293024
H	-2.4704339343	 5.0772249229	 0.063964224	 0.086772
H	-0.0666176281	 5.106795942	 0.0306154481	 0.12722
H	 2.1099716933	 3.8167847356	-0.0061549486	 0.141025
89.5943	188.0461	202.8409	217.4867	429.2686	463.7348	497.7664	591.7774	638.6105	677.1998	793.489	819.0659	862.3253	1002.475	1011.4349	1029.7675	1032.1413	1116.6128	1223.195	1276.7367	1351.7275	1427.8253	1465.0947	1477.029	1606.6599	1615.7631	1832.734	2890.1116	3170.7342	3210.0028
FC1=NC(C=O)=CC=N1	Fc1nc(C=O)ccn1	
InChI=1S/C5H3FN2O/c6-5-7-2-1-4(3-9)8-5/h1-3H	InChI=1S/C5H3FN2O/c6-5-7-2-1-4(3-9)8-5/h1-3H
