22
gdb 104090	2.32985	1.40886	1.20473	1.8156	81.64	-0.243	0.0281	0.2712	1191.1932	0.193593	-404.381239	-404.371582	-404.370638	-404.41588	36.428	
C	 0.1684053885	 1.6194039127	 0.0961119405	-0.39886
C	 0.0788637882	 0.0924142435	-0.0072133135	-0.20947
C	 0.6461072098	-0.4999338924	-1.3020411659	 0.35386
C	-0.0282867438	 0.0475125938	-2.5600979787	-0.431968
O	 2.0639304441	-0.113367427	-1.3745779403	-0.254242
C	 2.7461452109	-1.2515634408	-1.6150052547	 0.104281
N	 2.1436255448	-2.3649223123	-1.6533495589	-0.27498
C	 0.7255932419	-2.0741073896	-1.3574014694	-0.017762
C	 0.2853870263	-2.8591887612	-0.120049695	-0.395712
H	 1.198383107	 1.9569530102	-0.0469888384	 0.135111
H	-0.4598664231	 2.1211776149	-0.6455391628	 0.117589
H	-0.1635047855	 1.9517445714	 1.0842655791	 0.11309
H	 0.61557206	-0.3511006868	 0.8372085286	 0.10579
H	-0.9661270285	-0.2260677294	 0.0871307299	 0.100514
H	 0.08969366	 1.1302183778	-2.6415657438	 0.127482
H	 0.4093583534	-0.4109559387	-3.4518310066	 0.127995
H	-1.0982073299	-0.1868257756	-2.5472015132	 0.117946
H	 3.8127471157	-1.1127250185	-1.7601222742	 0.133433
H	 0.1226292428	-2.4232709582	-2.204424096	 0.083349
H	 0.8829754516	-2.6004412554	 0.7583670183	 0.121956
H	-0.7701763692	-2.6877672553	 0.1120609079	 0.111149
H	 0.4252936648	-3.9261858934	-0.3115214726	 0.129451
36.4501	96.795	195.7698	228.0463	245.4784	261.6074	299.264	315.0332	338.8536	345.8051	448.8308	506.8861	573.1285	645.457	734.9779	776.6822	829.8801	859.1582	910.2995	939.898	967.4403	1000.0816	1010.5294	1043.833	1074.8419	1091.9676	1114.3752	1149.1911	1196.311	1205.4578	1241.3335	1293.4203	1321.4473	1339.9159	1377.1885	1381.7702	1404.4484	1409.8618	1411.0085	1470.0973	1484.8168	1490.9613	1495.1696	1502.9493	1507.2223	1512.6248	1706.6717	3023.1353	3035.1573	3040.4138	3045.4717	3046.1036	3078.1896	3108.4342	3109.55	3117.2707	3122.6806	3124.8028	3130.5107	3202.7592
CCC1(C)OC=NC1C	CC[C@@]1(C)OC=N[C@H]1C	
InChI=1S/C7H13NO/c1-4-7(3)6(2)8-5-9-7/h5-6H,4H2,1-3H3	InChI=1S/C7H13NO/c1-4-7(3)6(2)8-5-9-7/h5-6H,4H2,1-3H3/t6-,7+/m0/s1
