16
gdb 87036	2.16247	1.55889	1.05635	0.6541	72.18	-0.2452	0.008	0.2532	1131.5563	0.124221	-434.1017	-434.0924	-434.091456	-434.135701	34.003	
N	 0.0761912027	 1.4201652182	-0.1526135353	-0.500928
C	 0.0022916791	 0.0108491386	-0.0358010799	 0.022457
C	-0.3356904725	-0.6411199789	 1.2402496662	-0.318466
C	-1.3701576761	-0.7821328954	 0.1137384178	 0.011481
C	-2.5551768173	 0.0107644156	 0.1777559312	 0.21437
N	-3.5181015898	 0.6563881959	 0.1903577866	-0.367191
C	-1.4141700495	-2.1178444273	-0.5808528562	 0.39374
N	-2.5893548372	-2.4409169891	-1.1787710211	-0.567828
O	-0.4256860736	-2.8307583205	-0.6109145346	-0.378143
H	-0.1345884876	 1.7356081643	-1.0932323878	 0.248917
H	-0.5461989429	 1.9002856002	 0.4878273231	 0.248962
H	 0.683169849	-0.5326028996	-0.682522232	 0.145436
H	 0.1705297869	-1.5667033314	 1.4872826196	 0.162284
H	-0.6240506537	-0.0164009628	 2.0790090008	 0.13723
H	-3.4077350671	-1.8603408705	-1.1091572473	 0.280076
H	-2.6515208504	-3.3282969972	-1.6492409311	 0.267604
72.8741	128.8817	147.4123	185.5491	225.4663	237.2442	306.6139	354.5828	424.9052	456.211	510.5696	548.8611	583.378	623.4888	650.3246	705.2526	785.1463	812.636	910.6721	935.066	968.9424	1086.5811	1093.9543	1114.9935	1154.2616	1217.1919	1288.2813	1312.2881	1372.9192	1425.7275	1479.4604	1619.2174	1663.9937	1779.608	2327.5846	3141.6596	3181.2786	3240.8989	3515.1735	3599.1706	3602.3493	3736.2328
NC1CC1(C#N)C(N)=O	N[C@H]1C[C@]1(C#N)C(=O)N	
InChI=1S/C5H7N3O/c6-2-5(4(8)9)1-3(5)7/h3H,1,7H2,(H2,8,9)	InChI=1S/C5H7N3O/c6-2-5(4(8)9)1-3(5)7/h3H,1,7H2,(H2,8,9)/t3-,5+/m0/s1
