20
gdb 60945	2.86763	1.18887	1.02803	2.8493	79.48	-0.2457	-0.0218	0.2239	1240.1301	0.169407	-403.108018	-403.098985	-403.098041	-403.142719	33.277	
C	 0.1823746415	 1.2767528381	 0.2799881232	-0.40266
C	-0.1798063797	-0.2098841775	 0.1440459137	-0.038028
C	-1.6816486894	-0.3270555889	-0.0821493781	 0.167335
O	-2.4835625755	-0.5673239871	 0.7819305821	-0.252273
N	 0.4887712121	-0.7636012471	-1.0267445076	-0.084171
C	 1.8936445667	-1.1066293656	-1.05248269	-0.044498
C	 2.3886058481	-1.7295046932	 0.2689526035	-0.244075
C	 1.2859963268	-2.8274580199	 0.1360026191	-0.24717
C	 0.8205472545	-2.1662967848	-1.1758434431	-0.045394
H	 1.2627703943	 1.3875067279	 0.4117221759	 0.127894
H	-0.1062490488	 1.8277065409	-0.6204029173	 0.130414
H	-0.3213107524	 1.7172564119	 1.1443885259	 0.133068
H	 0.0460277742	-0.7252760699	 1.0867683502	 0.087652
H	-1.9860051196	-0.1435473401	-1.1373984892	 0.084377
H	 2.5183490932	-0.6551462388	-1.8158832568	 0.094739
H	 3.3948198572	-2.1432787408	 0.1779413311	 0.108942
H	 2.3584325852	-1.0849411671	 1.1524259803	 0.104353
H	 1.7135685699	-3.8170541876	-0.0371192262	 0.110177
H	 0.5440685649	-2.9069341542	 0.9358370117	 0.113185
H	 0.4531135968	-2.6863302663	-2.0539472185	 0.096131
42.7707	61.0514	155.9711	182.6122	218.967	283.1647	296.7799	373.8487	462.5347	493.3316	566.3558	764.6259	782.5489	785.4935	835.3824	885.1172	902.0108	938.4648	949.1942	960.7089	975.3026	1029.8637	1043.2134	1092.2945	1103.7895	1125.1526	1136.6154	1163.0771	1217.6786	1223.909	1250.2016	1277.7798	1280.9033	1305.403	1340.0631	1382.4473	1393.9097	1409.1003	1478.1228	1487.4366	1497.2213	1498.6129	1838.0079	2883.917	3021.3558	3041.3702	3055.3775	3062.6204	3105.6316	3113.9772	3122.6942	3126.4682	3162.3484	3174.4712
CC(C=O)N1C2CCC12	C[C@@H](C=O)N1[C@H]2CC[C@@H]12	
InChI=1S/C7H11NO/c1-5(4-9)8-6-2-3-7(6)8/h4-7H,2-3H2,1H3	InChI=1S/C7H11NO/c1-5(4-9)8-6-2-3-7(6)8/h4-7H,2-3H2,1H3/t5-,6-,7+,8?/m0/s1
