18
gdb 102773	2.37511	1.14805	0.95008	1.5823	69.59	-0.2602	-0.0308	0.2293	1291.0547	0.14526	-476.264745	-476.25471	-476.253766	-476.300413	35.08	
C	 0.1356458617	 1.5250661188	-0.6667909102	-0.490727
C	 0.3195705363	 0.1256561121	-0.1308784427	 0.407087
O	 1.408177632	-0.3996722298	-0.0541518217	-0.314308
C	-0.9420543144	-0.6331450892	 0.3033816488	-0.105101
C	-1.994861977	-0.6682549463	-0.8218165161	-0.088822
O	-1.4530656795	-1.164672176	-2.0314264937	-0.419409
N	-0.540560675	-1.9712130314	 0.6947066961	-0.29043
C	-1.3056148382	-2.7403971919	 1.5151451284	 0.147994
O	-2.439447683	-2.4711218827	 1.8555053292	-0.324085
H	 1.0945162451	 2.0442346563	-0.666963752	 0.149721
H	-0.2293090686	 1.45410636	-1.6978874035	 0.174628
H	-0.6037253403	 2.0897726833	-0.0912777917	 0.139274
H	-1.3875768709	-0.1098468935	 1.1627193679	 0.120621
H	-2.8470098667	-1.2611167372	-0.4692621932	 0.137419
H	-2.3501445054	 0.3444531877	-1.0323262667	 0.116296
H	-1.1610101146	-2.0674624232	-1.8616304608	 0.289985
H	 0.4539700419	-2.1475970897	 0.6161027969	 0.263412
H	-0.7817144432	-3.6639922172	 1.8297711051	 0.086446
57.9286	81.8159	102.1818	160.2374	169.9811	185.6597	269.4999	288.9396	343.2709	382.2759	421.858	494.0424	574.4954	650.7903	685.2143	763.8043	853.5901	881.53	964.7097	975.2516	1036.012	1055.9686	1081.6923	1116.9739	1179.6246	1196.1709	1236.0438	1273.4124	1352.5632	1384.6712	1388.4598	1413.1396	1425.5187	1465.8672	1476.8319	1494.6135	1510.2234	1790.9888	1808.351	2946.6304	3005.8192	3041.8318	3044.611	3100.1735	3110.4883	3156.3038	3560.9234	3800.6329
CC(=O)C(CO)NC=O	CC(=O)[C@@H](CO)NC=O	
InChI=1S/C5H9NO3/c1-4(9)5(2-7)6-3-8/h3,5,7H,2H2,1H3,(H,6,8)	InChI=1S/C5H9NO3/c1-4(9)5(2-7)6-3-8/h3,5,7H,2H2,1H3,(H,6,8)/t5-/m1/s1
