23
gdb 109578	2.01677	1.43785	1.05599	2.8721	80.31	-0.2527	0.0497	0.3023	1260.6681	0.20518	-425.412915	-425.402817	-425.401873	-425.447285	38.574	
C	 0.8772068799	 1.5162376145	 0.1928864008	-0.436741
C	 0.1950303146	 0.163284461	-0.0064260658	-0.04006
C	 0.6041825588	-0.6677290491	-1.2732768427	 0.003474
C	 1.2400909294	 0.0275825855	-2.4728850646	-0.413211
C	 1.4606462733	-1.6188514685	-0.3718862044	-0.073104
C	 2.9773520953	-1.4324875458	-0.3627762655	-0.081966
O	 3.5808013405	-2.2266802629	 0.6427821484	-0.431081
C	 0.744513541	-1.0052064737	 0.8707518394	 0.121756
O	 1.52347301	-0.7083308631	 2.0225571088	-0.438174
H	 1.9669011145	 1.4713407359	 0.0859370809	 0.118114
H	 0.5189759591	 2.2432470729	-0.5423290265	 0.126974
H	 0.651640533	 1.9197599076	 1.1862991887	 0.125801
H	-0.8846906314	 0.3103927461	 0.0941635303	 0.071932
H	-0.273616364	-1.2189775603	-1.6260313879	 0.076249
H	 2.1272073227	 0.6079859936	-2.2039567825	 0.116846
H	 1.5433858482	-0.7049418227	-3.2286441964	 0.119621
H	 0.5294789742	 0.7124893391	-2.948554337	 0.11422
H	 1.2673673067	-2.6860290497	-0.5163011932	 0.074177
H	 3.4055845998	-1.7550685226	-1.3179673484	 0.10764
H	 3.2504228488	-0.3701106145	-0.2438222637	 0.068944
H	 3.1381958596	-1.9848026158	 1.4673795828	 0.287495
H	-0.0604563185	-1.6518359708	 1.2290051895	 0.091171
H	 2.0146862344	 0.1028026931	 1.8558443388	 0.289923
80.4925	154.8375	174.4807	215.2844	218.0893	240.8295	257.267	259.9136	291.7734	341.4703	427.5342	469.7457	502.31	582.3906	588.4406	734.8533	769.9938	774.5562	854.8807	900.5305	978.07	981.7685	1021.6851	1026.1482	1044.4141	1074.0827	1099.3123	1158.9067	1169.6216	1175.4639	1180.3004	1208.3161	1258.8148	1278.3485	1289.5046	1309.4985	1341.1245	1364.9813	1373.2747	1394.7429	1407.6812	1415.1073	1434.5509	1448.5848	1492.3497	1494.6458	1506.7402	1511.2111	1516.1731	2952.3411	3027.3344	3033.319	3037.1421	3050.8038	3055.9437	3065.948	3080.0865	3091.1133	3092.1739	3102.2519	3112.0617	3753.1128	3814.7663
CC1C(C)C(CO)C1O	C[C@H]1[C@@H](C)[C@@H](CO)[C@H]1O	
InChI=1S/C7H14O2/c1-4-5(2)7(9)6(4)3-8/h4-9H,3H2,1-2H3	InChI=1S/C7H14O2/c1-4-5(2)7(9)6(4)3-8/h4-9H,3H2,1-2H3/t4-,5+,6-,7+/m1/s1
