16
gdb 18130	3.88565	2.14258	1.63633	0.0208	58.63	-0.248	0.0721	0.3201	785.7649	0.133343	-420.873923	-420.867631	-420.866687	-420.904677	23.88	
C	 0.2320834383	 1.3926098747	 0.2241527245	 0.00714
O	 1.1606024318	 1.9186045289	-0.6977544591	-0.250766
C	 2.0128765313	 0.841230966	-1.0577144716	 0.060683
C	 3.2926757643	 0.7083147997	-0.2039515545	-0.110709
O	 3.4136696617	-0.6736649258	 0.0981368134	-0.244251
C	 2.1000481921	-1.1605454349	 0.3285975727	-0.110708
C	 1.1979758867	-0.4357206516	-0.6938301644	 0.060683
O	-0.0237927224	 0.0626497637	-0.1688674613	-0.250767
H	 0.6398323136	 1.4248766748	 1.2505007363	 0.085428
H	-0.6951593622	 1.9695878921	 0.1723882991	 0.125303
H	 2.2330069776	 0.9340663593	-2.12246269	 0.099195
H	 4.2025530419	 1.0182542136	-0.7222059572	 0.115113
H	 3.1831675891	 1.3171734427	 0.7078975998	 0.099673
H	 2.1196318976	-2.2457052971	 0.2078859587	 0.115113
H	 1.7511883494	-0.9267592635	 1.3473273627	 0.099674
H	 0.957865649	-1.0640709326	-1.553066869	 0.099195
90.1531	179.0124	261.4203	399.6299	433.6905	588.0876	619.5286	741.119	743.6111	840.589	917.4928	950.6141	974.0144	975.3526	1041.8466	1057.697	1057.8561	1112.1872	1113.0215	1137.1882	1187.5276	1217.2763	1231.6969	1253.4159	1276.6249	1293.7993	1323.7999	1351.7697	1374.0985	1391.7024	1430.2584	1503.7872	1513.7461	1544.2569	2936.6405	2978.6142	2985.7997	3088.7205	3092.4842	3097.5042	3107.7861	3115.3149
C1OC2COCC2O1	C1O[C@H]2COC[C@H]2O1	
InChI=1S/C5H8O3/c1-4-5(2-6-1)8-3-7-4/h4-5H,1-3H2	InChI=1S/C5H8O3/c1-4-5(2-6-1)8-3-7-4/h4-5H,1-3H2/t4-,5+
