18
gdb 82655	4.31893	1.34785	1.3053	3.3067	75.35	-0.2361	-0.0146	0.2215	1017.9539	0.149417	-401.902479	-401.895396	-401.894451	-401.933793	28.578	
C	-0.1392042591	 1.616719799	 0.0894818419	-0.440636
C	 0.0481115954	 0.1146928083	-0.0233194263	 0.073526
C	 0.6298857899	-0.5695446571	-1.2598037916	-0.073308
C	 2.2019120905	-0.2891191658	-1.2867215939	-0.191124
C	 2.3725785957	 0.1078439143	 0.2022937834	-0.180804
N	 1.1633828332	-0.5783860459	 0.7627030675	-0.162181
C	 1.0564364374	-1.7257852515	-0.2702321065	-0.129947
C	 2.3346170024	-1.8058220514	-1.0912734934	 0.445035
O	 2.9745535412	-2.6915495172	-1.5767357127	-0.326856
H	 0.6569102172	 2.1892282597	-0.3927017187	 0.123727
H	-1.0827843231	 1.9046136353	-0.3852849312	 0.125182
H	-0.1915372495	 1.9137637196	 1.1427978306	 0.135923
H	-0.8801460632	-0.3850852551	 0.2729165054	 0.089428
H	 0.1271671322	-0.7317554417	-2.212437541	 0.088872
H	 2.7084983459	 0.2559937518	-2.0785768024	 0.09069
H	 3.2809954035	-0.3075554297	 0.6481284682	 0.120066
H	 2.3467713966	 1.1770505063	 0.4091066258	 0.113083
H	 0.4388685837	-2.5640908688	 0.040148585	 0.099322
135.0926	169.2135	199.0375	328.6329	403.6456	473.8063	520.9281	611.1868	691.9071	703.5544	753.2212	782.1235	785.8937	832.4905	871.748	905.0966	946.5504	958.0818	980.5057	1024.3486	1055.7813	1076.6869	1095.0325	1111.6934	1131.0975	1153.7436	1185.0481	1195.5741	1214.2193	1239.5721	1265.802	1271.6889	1323.5015	1399.8377	1417.5677	1489.1822	1495.9735	1531.1421	1891.6193	3037.5068	3050.6325	3067.2974	3103.2057	3116.5451	3125.578	3136.4558	3162.1762	3165.2611
CC1C2C3CN1C2C3=O	C[C@H]1[C@H]2[C@H]3CN1[C@@H]2C3=O	
InChI=1S/C7H9NO/c1-3-5-4-2-8(3)6(5)7(4)9/h3-6H,2H2,1H3	InChI=1S/C7H9NO/c1-3-5-4-2-8(3)6(5)7(4)9/h3-6H,2H2,1H3/t3-,4+,5-,6-/m0/s1
