12
gdb 132179	3.25102	1.36462	0.96117	5.5143	61.87	-0.2257	-0.0262	0.1994	1062.0442	0.07787	-518.084974	-518.0779	-518.076956	-518.116744	26.493	
F	 0.0530466791	 0.0715592895	 0.0031597532	-0.062029
C	-0.0495265038	 1.3915769669	 0.0113826288	 0.408319
N	-1.1872841471	 1.9503315207	 0.0297505001	-0.400944
C	-1.2690326933	 3.3599586947	 0.0381423806	 0.258683
N	-2.3619190572	 4.0168663309	 0.0564942853	-0.528491
C	 0.0225285326	 4.0591660662	 0.0241774532	 0.216164
F	 0.0120833041	 5.3833095476	 0.0311632558	-0.046956
C	 1.1873364499	 3.3941173736	 0.0048765794	-0.127183
N	 1.1618042758	 2.0020248544	-0.0019711179	-0.379938
H	-3.1435179985	 3.3589327027	 0.0637632117	 0.224256
H	 2.1530632638	 3.8774894924	-0.0057841652	 0.15426
H	 2.0059953947	 1.4540155005	-0.0162494851	 0.283859
100.4047	194.8496	313.0001	326.3865	370.3972	409.1919	432.2773	468.0605	522.108	606.6712	715.3308	761.5601	771.5301	793.6262	852.4291	902.4223	996.7172	1092.9276	1197.9652	1266.3909	1294.8995	1318.8581	1411.4279	1540.3513	1691.3092	1714.5374	1737.5063	3248.1459	3471.173	3658.6661
FC1=NC(=N)C(F)=CN1	FC1=NC(=C(F)CN1)[NH]	
InChI=1S/C4H3F2N3/c5-2-1-8-4(6)9-3(2)7/h1H,(H2,7,8,9)	InChI=1S/C4H4F2N3/c5-2-1-8-4(6)9-3(2)7/h7H,1H2,(H,8,9)
