20
gdb 82413	2.21776	1.8733	1.20502	2.173	78.12	-0.2178	-0.0191	0.1987	1080.3321	0.171901	-403.149791	-403.141376	-403.140431	-403.183084	32.258	
C	-0.0918612832	 1.5928213325	-0.0197740783	-0.388512
C	 0.1266727231	 0.0863108855	 0.0490597565	-0.050711
N	 0.6621068405	-0.4184756954	-1.2295939954	-0.094645
C	 2.0483815548	-0.1010408782	-1.5609818927	-0.249365
C	 1.6566384271	-1.5033883588	-1.2393657367	-0.008914
C	 2.170846875	-2.1551298633	 0.045936129	-0.246726
C	 1.2973412362	-1.8209595842	 1.2740566519	-0.291215
C	 0.9394277929	-0.3466652022	 1.2778357538	 0.36157
O	 1.2513279741	 0.4135696338	 2.1651290502	-0.309909
H	 0.8609489877	 2.122912353	-0.1031956074	 0.124289
H	-0.7071663687	 1.8394738286	-0.8884941537	 0.120916
H	-0.5874162522	 1.9472442561	 0.8862513925	 0.129862
H	-0.8503184428	-0.4088599299	 0.1695939939	 0.100498
H	 2.2284195914	 0.2161813936	-2.5848632826	 0.116098
H	 2.6571604367	 0.4137936382	-0.8172063478	 0.117587
H	 1.5091476499	-2.1901582133	-2.0700267375	 0.095828
H	 2.2091682438	-3.2404240503	-0.0843071382	 0.112638
H	 3.1990757385	-1.8312242958	 0.2396539322	 0.122147
H	 0.3624044088	-2.3931191752	 1.2159115486	 0.118936
H	 1.8030317762	-2.0763788847	 2.2075034717	 0.119627
50.6893	115.3619	196.1901	226.7026	269.3734	352.3688	394.1676	424.4483	463.6032	531.9881	618.9601	656.8987	746.194	790.3692	804.7691	843.7943	916.2534	948.8619	963.4243	993.2848	1047.2086	1078.3624	1101.7192	1113.3602	1123.2326	1147.711	1165.9045	1178.0981	1217.5823	1242.4454	1314.8509	1319.1159	1337.8477	1348.351	1373.4993	1395.2439	1409.0241	1473.7412	1486.1198	1492.8376	1499.0957	1516.8188	1814.5547	2977.1818	3029.9413	3044.8704	3054.5416	3083.8734	3085.1931	3114.6988	3123.8642	3126.0905	3139.1252	3171.8
CC1N2CC2CCC1=O	C[C@H]1N2C[C@H]2CCC1=O	
InChI=1S/C7H11NO/c1-5-7(9)3-2-6-4-8(5)6/h5-6H,2-4H2,1H3	InChI=1S/C7H11NO/c1-5-7(9)3-2-6-4-8(5)6/h5-6H,2-4H2,1H3/t5-,6-,8?/m1/s1
