20
gdb 95849	2.40692	1.33399	1.09188	3.616	78.57	-0.2751	0.0202	0.2953	1202.8257	0.172368	-403.178501	-403.16988	-403.168936	-403.211628	32.932	
C	 0.0034042398	 1.594501807	 0.0008438115	-0.405626
C	 0.0290558699	 0.0650946881	-0.0332761692	 0.021494
C	 0.7618918297	-0.4788910583	-1.2712518365	-0.199034
C	 0.8416686266	-2.004098833	-1.2324946084	-0.097815
O	 1.4604120584	-2.4724672153	-0.0316102808	-0.245133
C	 0.8016655514	-2.0521844344	 1.145007241	-0.036491
C	 0.6857317916	-0.5181515152	 1.2277883509	-0.214407
C	-0.5298555965	-2.6965778494	 1.2735615688	 0.271498
N	-1.5682481219	-3.1948497287	 1.3698997461	-0.334036
H	 1.0193912651	 2.0042668025	 0.0423794575	 0.116028
H	-0.482662622	 1.9995359873	-0.8927204944	 0.117101
H	-0.5417777515	 1.963388948	 0.8759403849	 0.117183
H	-1.0083262807	-0.2970063584	-0.0688576217	 0.095238
H	 0.2528597472	-0.1646479191	-2.1899715274	 0.101338
H	 1.7787204904	-0.0662076509	-1.3057413249	 0.102963
H	-0.1631117321	-2.443474645	-1.3265857224	 0.114258
H	 1.4592217026	-2.3971163921	-2.0437303391	 0.116924
H	 1.4165818038	-2.4229430797	 1.9717997495	 0.132592
H	 1.7046348365	-0.1255326754	 1.3299801463	 0.109998
H	 0.1313451918	-0.238390578	 2.1299824181	 0.115926
97.6468	122.2085	201.5401	233.5919	262.9376	300.1349	337.9654	398.1695	414.0503	443.6493	547.7312	603.191	710.2383	783.0286	809.1999	866.0446	892.3815	933.2696	974.0515	1001.8885	1007.2911	1028.4543	1105.5457	1115.2299	1140.4067	1185.468	1214.9678	1279.6655	1287.7165	1297.6117	1334.3816	1341.4429	1368.82	1383.9898	1397.9624	1412.7015	1416.5557	1468.4451	1482.1542	1497.2145	1500.1937	1504.3876	2350.0949	2997.6535	3006.8753	3022.9584	3027.1095	3035.8888	3063.9774	3071.1104	3084.0192	3095.376	3100.7962	3101.6321
CC1CCOC(C1)C#N	C[C@H]1CCO[C@@H](C1)C#N	
InChI=1S/C7H11NO/c1-6-2-3-9-7(4-6)5-8/h6-7H,2-4H2,1H3	InChI=1S/C7H11NO/c1-6-2-3-9-7(4-6)5-8/h6-7H,2-4H2,1H3/t6-,7-/m0/s1
