21
gdb 103691	2.23276	1.3319	0.98207	0.8116	86.06	-0.2386	0.0534	0.292	1285.543	0.178747	-387.045059	-387.034343	-387.033399	-387.080134	39.828	
C	-0.0894724261	 1.5732303667	 0.0410297241	-0.469612
C	-0.0485662085	 0.0555890276	 0.026046774	 0.31964
C	-1.3159475084	-0.562491749	-0.5278576098	-0.156275
O	-1.4507012996	-0.1384264833	-1.8814024986	-0.423526
C	 1.243534641	-0.6538774321	-0.2747515056	-0.345841
C	 0.6833526939	-0.7060201722	 1.1441090119	 0.079647
C	 1.4044060741	 0.0561336841	 2.2511610988	-0.458928
C	 0.1320586544	-1.9569243029	 1.602923383	 0.290152
C	-0.3025864915	-2.9894531281	 2.04399214	-0.471792
H	 0.8773783193	 2.0196734749	 0.2805262703	 0.112528
H	-0.3884974368	 1.9287351339	-0.948691205	 0.143332
H	-0.8232841476	 1.9426699753	 0.7671220704	 0.11344
H	-1.2654725479	-1.6561190514	-0.4584533551	 0.099939
H	-2.1780659219	-0.2326029382	 0.0747520866	 0.085744
H	-2.2920186136	-0.466370048	-2.2116685668	 0.286844
H	 1.2063775818	-1.560889161	-0.867124101	 0.122614
H	 2.1362434341	-0.0544938284	-0.4223665542	 0.110961
H	 1.890917243	 0.9569768779	 1.8728573187	 0.116712
H	 0.7090027706	 0.348228939	 3.0443495791	 0.12616
H	 2.174305226	-0.5791660523	 2.6993139557	 0.129375
H	-0.6883507062	-3.9048331826	 2.4184974135	 0.188886
87.0642	120.4031	137.3502	172.5792	176.1108	209.761	235.0688	284.1007	309.2957	357.0839	369.8824	395.4428	460.6752	547.4611	581.0768	608.2308	640.764	684.5735	715.5164	865.2726	917.5587	941.4327	953.3447	979.8831	1029.4316	1055.8573	1064.8607	1097.4479	1108.3308	1175.2653	1217.3823	1243.174	1271.1883	1319.2403	1383.7335	1406.0221	1417.5468	1460.2426	1480.6595	1485.2992	1492.6781	1495.6968	1514.5942	1521.1343	2225.2441	2969.3602	3034.1845	3041.203	3043.9041	3103.3265	3106.087	3123.7556	3130.0012	3136.8583	3220.9154	3503.6267	3832.4832
CC1(CO)CC1(C)C#C	C[C@@]1(CO)C[C@]1(C)C#C	
InChI=1S/C8H12O/c1-4-7(2)5-8(7,3)6-9/h1,9H,5-6H2,2-3H3	InChI=1S/C8H12O/c1-4-7(2)5-8(7,3)6-9/h1,9H,5-6H2,2-3H3/t7-,8-/m0/s1
