20
gdb 69808	3.11656	1.60237	1.28234	1.0695	84.67	-0.2242	0.0158	0.24	1049.5579	0.172577	-365.983589	-365.975948	-365.975004	-366.015115	31.505	
C	 0.0456440262	 1.5350191758	-0.0319739218	-0.473082
C	-0.0459776909	 0.0211139106	 0.0120009974	 0.318324
C	-0.9080922153	-0.6165775409	 1.094429537	-0.337323
C	 0.5935051251	-0.7340288105	 1.1648812135	-0.036706
N	 1.3452288546	-1.9500316673	 0.9471649793	-0.108044
C	 0.683812634	-3.2165721444	 0.6839469388	-0.248127
C	 1.4092078296	-2.5003779796	-0.415201342	-0.062118
C	 0.6765557932	-1.8115926434	-1.4970891502	-0.069331
C	 0.0221484187	-0.6623001417	-1.301824452	-0.154191
H	 0.9850663742	 1.8637514272	-0.4895897086	 0.122969
H	-0.7785599684	 1.9597885954	-0.6175632787	 0.116274
H	-0.0071061427	 1.9645723552	 0.9729655339	 0.115174
H	-1.3878582458	 0.0414243168	 1.8126695117	 0.108679
H	-1.4992778994	-1.4821483745	 0.820198182	 0.115496
H	 1.072978989	-0.113182594	 1.9163830592	 0.095393
H	 1.1404761439	-4.0829315899	 1.1564884501	 0.113223
H	-0.4007267329	-3.2494267775	 0.6241691344	 0.112236
H	 2.3905487987	-2.8827281878	-0.6949212342	 0.09365
H	 0.7330475885	-2.2526288864	-2.4883636524	 0.090872
H	-0.4696849001	-0.168174933	-2.1366809776	 0.086634
153.614	182.5519	218.2761	312.9593	340.758	388.6192	470.807	481.3458	509.8876	594.4255	674.3403	704.2475	761.1778	798.8833	831.2643	867.341	908.1854	937.3356	942.9912	974.0696	987.5301	1034.0307	1050.6853	1070.6116	1077.2181	1109.4042	1112.8943	1123.665	1139.1811	1162.7691	1207.1568	1250.7304	1318.7667	1339.1293	1375.5869	1397.4349	1415.3363	1439.5524	1477.2596	1491.1101	1501.0307	1509.375	1698.1428	3024.0794	3085.5438	3100.5248	3103.3621	3104.2549	3128.4358	3139.7512	3145.1633	3171.5409	3187.194	3221.1879
CC12CC1N1CC1C=C2	C[C@]12C[C@H]1N1C[C@H]1C=C2	
InChI=1S/C8H11N/c1-8-3-2-6-5-9(6)7(8)4-8/h2-3,6-7H,4-5H2,1H3	InChI=1S/C8H11N/c1-8-3-2-6-5-9(6)7(8)4-8/h2-3,6-7H,4-5H2,1H3/t6-,7-,8+,9?/m1/s1
