17
gdb 61061	3.03474	1.23402	1.05638	1.5864	65.13	-0.258	-0.0455	0.2125	1146.3464	0.134412	-496.079986	-496.071342	-496.070398	-496.113736	31.64	
O	 0.1210116743	 1.5157450058	 0.2276118453	-0.443765
C	 0.0183437386	 0.1194419283	 0.0795107827	 0.01176
C	 0.7738063704	-0.3127407454	-1.162341361	 0.152992
O	 1.3670735777	 0.487215798	-1.8429717131	-0.257374
C	 0.5554864263	-0.6257968746	 1.3081451321	 0.05229
O	 1.949374439	-0.3562302535	 1.5337959981	-0.292575
C	 1.6740289719	 0.4022578381	 2.7354965466	-0.106297
C	 0.1788420011	 0.0009732308	 2.6885786142	 0.086224
O	-0.8085819482	 0.9794946699	 2.7586196082	-0.429653
H	 0.7301447332	 1.812089526	-0.469196246	 0.304326
H	-1.0380305452	-0.1726498285	-0.0515108073	 0.111711
H	 0.7543359468	-1.3929736915	-1.405224283	 0.107929
H	 0.3593680438	-1.7015804903	 1.1955386881	 0.079932
H	 2.2617787076	 0.0455872019	 3.5880878767	 0.107578
H	 1.8435673811	 1.4756058695	 2.5894567679	 0.107354
H	-0.0800443221	-0.75983443	 3.428420548	 0.104127
H	-0.6172579462	 1.6279691555	 2.0658518724	 0.303439
73.8935	110.9894	119.5376	194.4357	264.4363	282.5821	348.3308	419.7507	440.2641	509.5819	611.6501	650.6012	731.9631	779.0637	827.1325	874.1452	903.9852	956.0706	1007.3047	1022.0174	1057.3077	1061.7837	1154.0316	1160.3581	1177.14	1213.1038	1252.8635	1272.3255	1307.7085	1336.8717	1351.4611	1365.8892	1402.9661	1428.12	1472.7199	1513.9756	1814.6645	2948.4099	2972.4094	3008.1297	3027.234	3075.9668	3095.1868	3666.2604	3735.5392
OC(C=O)C1OCC1O	O[C@@H](C=O)[C@H]1OC[C@H]1O	
InChI=1S/C5H8O4/c6-1-3(7)5-4(8)2-9-5/h1,3-5,7-8H,2H2	InChI=1S/C5H8O4/c6-1-3(7)5-4(8)2-9-5/h1,3-5,7-8H,2H2/t3-,4+,5+/m0/s1
