21
gdb 91263	2.69355	1.36346	1.14928	2.9421	81.34	-0.2349	-0.013	0.2218	1165.2972	0.183528	-387.120503	-387.112224	-387.111279	-387.153869	32.515	
C	-1.1185057657	 1.0414119825	-0.0459618834	-0.414936
C	-0.0940919377	-0.0833808124	-0.0614600139	 0.053584
C	 1.1716619001	 0.070840725	-0.9497277054	-0.255858
C	 2.0417655306	-0.5350830346	 0.1887017441	-0.008216
C	 3.199162889	 0.3208979252	 0.6909705621	-0.331541
C	 2.5379755061	 1.3959167426	 1.5627094431	 0.385425
O	 2.9907700312	 2.4823387406	 1.8128962194	-0.308088
C	 1.1937556189	 0.8497706992	 2.0692879088	-0.334081
C	 0.8257187227	-0.3459721459	 1.1767774894	-0.053656
H	-0.653018057	 2.0150883985	 0.1406504455	 0.119951
H	-1.6320094084	 1.1073437295	-1.0116252702	 0.116274
H	-1.8811272513	 0.8808819005	 0.7245435257	 0.114557
H	-0.6011306104	-1.0225414993	-0.3090321036	 0.072869
H	 1.1746573002	-0.4527886017	-1.9088458672	 0.099269
H	 1.4188759614	 1.1219129831	-1.1388913527	 0.101574
H	 2.3163990838	-1.5751763651	 0.0073250838	 0.069975
H	 3.8736288291	-0.25625525	 1.3390425539	 0.12234
H	 3.8110422695	 0.7768231595	-0.0916808105	 0.125052
H	 1.3486599435	 0.531937476	 3.1079871949	 0.128952
H	 0.4540323001	 1.6532511626	 2.1043632474	 0.129539
H	 0.5392598143	-1.2143473057	 1.7731406487	 0.067014
47.7086	83.7144	213.1199	280.4834	326.078	350.3069	426.2488	448.3892	504.8148	550.161	633.4189	699.8886	725.7424	782.0497	808.1114	833.97	884.7783	905.5506	927.1876	984.7378	996.2665	1034.0905	1059.7226	1114.4009	1127.8981	1131.056	1154.4127	1177.3711	1199.7413	1220.2014	1257.2993	1258.1064	1275.625	1287.2378	1305.4017	1339.0734	1352.5497	1377.9872	1412.6099	1445.8999	1452.8643	1488.4384	1495.4406	1506.2033	1844.0549	3020.9094	3026.6708	3034.1626	3038.4151	3040.4761	3077.4611	3089.2263	3091.0005	3097.2286	3100.9741	3105.1488	3107.3672
CC1CC2CC(=O)CC12	C[C@H]1C[C@H]2CC(=O)C[C@@H]12	
InChI=1S/C8H12O/c1-5-2-6-3-7(9)4-8(5)6/h5-6,8H,2-4H2,1H3	InChI=1S/C8H12O/c1-5-2-6-3-7(9)4-8(5)6/h5-6,8H,2-4H2,1H3/t5-,6-,8-/m0/s1
