16
gdb 12329	2.96792	2.26055	1.37595	4.0563	66.81	-0.2606	0.0033	0.2639	889.1337	0.13091	-383.784211	-383.776637	-383.775693	-383.817353	27.375	
C	-0.2543675221	 1.523106996	 0.0082056195	-0.3862
C	 0.1403787929	 0.0317419644	-0.0051603628	-0.196649
C	 0.8747805261	-0.3509431884	-1.2563995366	-0.048767
C	 2.0396636198	-0.9832748637	-1.2351329893	-0.10095
C	 2.7148728427	-1.380504322	 0.0335641347	-0.104008
O	 2.0566705203	-0.9772121204	 1.2382078626	-0.237538
C	 0.8796993819	-0.312259348	 1.2881157395	 0.422585
O	 0.4395172722	-0.0125034258	 2.3654792765	-0.329629
H	 0.6325785439	 2.1612022272	-0.0528926542	 0.124582
H	-0.8963860296	 1.7511222165	-0.8478734152	 0.114421
H	-0.7903381837	 1.7581421695	 0.9287821609	 0.149317
H	-0.7947758201	-0.5454126158	 0.0496534093	 0.12431
H	 0.4076939122	-0.0782844634	-2.1994571652	 0.100886
H	 2.5619299344	-1.2509434548	-2.1491859759	 0.105302
H	 2.827526761	-2.4724332033	 0.0851179839	 0.131118
H	 3.7292232383	-0.9614468179	 0.0786878824	 0.131219
22.0617	98.1968	226.4598	263.4429	284.5763	453.7303	462.1339	509.1733	548.0778	672.2619	712.083	774.2477	861.3656	923.4415	934.7403	1000.3652	1026.0253	1033.0506	1080.2615	1105.9945	1152.1591	1164.1146	1241.5344	1259.9978	1298.289	1343.1465	1394.8922	1421.7404	1431.0096	1493.4854	1503.0478	1505.0842	1753.6958	1832.6251	2998.2078	3008.8039	3032.0225	3044.531	3111.7791	3147.1067	3153.9981	3179.9659
CC1C=CCOC1=O	C[C@H]1C=CCOC1=O	
InChI=1S/C6H8O2/c1-5-3-2-4-8-6(5)7/h2-3,5H,4H2,1H3	InChI=1S/C6H8O2/c1-5-3-2-4-8-6(5)7/h2-3,5H,4H2,1H3/t5-/m0/s1
