21
gdb 117232	3.4125	0.83067	0.80509	2.5024	81.32	-0.2523	0.0284	0.2807	1576.3133	0.181876	-420.399169	-420.389128	-420.388184	-420.434851	36.191	
C	-0.0840522661	 1.5461157192	-0.2374583142	-0.389741
C	 0.0451728148	 0.0430304397	-0.0768513273	-0.029553
O	-1.2819591012	-0.5021624047	-0.0171596086	-0.252997
C	-1.3743813831	-1.8406119523	 0.1083746265	 0.418799
N	-0.3576524638	-2.5958049021	 0.1785794506	-0.543198
C	-2.8142132756	-2.2486157191	 0.1607657442	-0.13635
N	-3.0652142857	-3.6849740967	 0.3122002837	-0.337715
C	-3.448017952	-2.7871847877	 1.40850642	 0.022639
C	-2.7187061406	-2.9366030245	 2.7201235613	-0.402506
H	 0.909466881	 2.0017338552	-0.2863730193	 0.119697
H	-0.6233271123	 1.7964867603	-1.1556508011	 0.125006
H	-0.6230565591	 1.9848949999	 0.607234545	 0.125238
H	 0.5822156272	-0.4166723048	-0.9132105847	 0.119741
H	 0.5841127775	-0.2283620665	 0.8371139962	 0.117943
H	-0.6820038802	-3.561713961	 0.243100837	 0.236023
H	-3.4593527628	-1.6642756314	-0.4908898074	 0.09627
H	-3.8688877681	-3.970909158	-0.2386250404	 0.238434
H	-4.5098182159	-2.5616891507	 1.5043257757	 0.089857
H	-1.6472823628	-3.0747279832	 2.5606961021	 0.140369
H	-2.8643696537	-2.0467237192	 3.341519111	 0.120239
H	-3.0996385176	-3.8019563823	 3.2724263598	 0.121803
46.7251	89.1982	114.1919	146.9267	180.592	204.465	255.2651	290.8537	363.6004	388.3998	421.1743	471.2093	644.5338	743.3186	792.0825	806.7607	845.7549	884.6106	901.1873	921.0782	963.1891	1012.2714	1027.9974	1052.6	1080.5737	1125.6143	1138.1109	1148.5396	1183.4085	1183.82	1247.1417	1253.4983	1287.0159	1332.0674	1386.3924	1407.4912	1417.0121	1447.2741	1474.9124	1485.5903	1493.6395	1496.5082	1498.3294	1521.9811	1723.5439	3039.3599	3044.2439	3046.1571	3081.4777	3101.2994	3105.915	3118.7313	3121.9237	3135.4108	3140.0197	3479.2341	3520.2294
CCOC(=N)C1NC1C	CCO[C]([NH])[C@H]1N[C@H]1C	
InChI=1S/C6H12N2O/c1-3-9-6(7)5-4(2)8-5/h4-5,7-8H,3H2,1-2H3	InChI=1S/C6H12N2O/c1-3-9-6(7)5-4(2)8-5/h4-5,7-8H,3H2,1-2H3/t4-,5-/m0/s1
