21
gdb 107344	3.17757	1.26068	1.05135	1.3015	83.77	-0.2215	0.0244	0.2459	1204.2196	0.184186	-387.090002	-387.081522	-387.080578	-387.122797	33.491	
O	 0.0359856175	 1.2962254542	 0.4703986073	-0.423595
C	-0.0352406712	 0.0034846676	-0.1220438385	-0.158256
C	-1.448176536	-0.5087228901	 0.015200823	 0.358551
C	-1.7985486324	-1.1994918205	 1.3035571679	-0.316836
C	-1.6319781094	-2.0168040736	 0.0270564299	-0.124402
C	-2.8347389779	-2.5643754765	-0.6474251336	-0.043248
C	-3.8750885142	-1.8042777032	-0.9959787404	-0.080067
C	-3.8993210178	-0.3178374132	-0.7451571378	-0.283407
C	-2.4874410956	 0.2986328405	-0.7495957943	-0.262722
H	 0.8994922027	 1.6695689084	 0.2710592016	 0.28577
H	 0.2389535253	 0.0466794177	-1.1890291522	 0.084124
H	 0.6617105664	-0.6943244596	 0.3695434399	 0.078255
H	-1.025585116	-1.2747455355	 2.0611339802	 0.109942
H	-2.8032733165	-1.1063243997	 1.6995275854	 0.115482
H	-0.7364497711	-2.6284577029	-0.033407688	 0.076082
H	-2.8498443273	-3.6339426901	-0.8393320555	 0.082675
H	-4.7459943655	-2.2555253137	-1.4630382468	 0.08281
H	-4.5126375781	 0.1846717589	-1.5018038615	 0.099305
H	-4.3959494604	-0.109303844	 0.2131044002	 0.111916
H	-2.5178882006	 1.3203051943	-0.359609983	 0.11414
H	-2.1450608421	 0.3715044911	-1.7911026641	 0.093482
92.7758	150.117	201.7837	240.8106	254.127	337.741	369.0252	379.8306	454.6752	530.3537	583.664	682.6668	719.2978	748.4082	814.1188	882.1819	887.1093	928.1682	947.0467	972.5597	986.5008	1006.7862	1041.2551	1059.9745	1061.4525	1076.3077	1100.6201	1112.7507	1187.2434	1205.9252	1220.7603	1244.7088	1267.5932	1273.1253	1335.931	1353.9201	1383.8283	1411.4333	1427.8222	1461.8745	1481.3682	1488.3485	1503.3233	1516.7434	1710.0555	2957.6234	2988.5527	3003.0327	3014.3599	3054.3226	3081.9805	3132.9062	3141.6316	3153.6547	3175.1792	3220.0494	3829.1193
OCC12CC1C=CCC2	OC[C@]12C[C@H]1C=CCC2	
InChI=1S/C8H12O/c9-6-8-4-2-1-3-7(8)5-8/h1,3,7,9H,2,4-6H2	InChI=1S/C8H12O/c9-6-8-4-2-1-3-7(8)5-8/h1,3,7,9H,2,4-6H2/t7-,8+/m1/s1
