18
gdb 75804	3.22475	1.241	1.04597	1.8672	73.31	-0.2483	0.0295	0.2778	1165.2915	0.146969	-439.083821	-439.075056	-439.074112	-439.118023	31.266	
C	 0.0063205676	 1.4106122309	-0.0606248514	-0.357976
N	 0.016236119	-0.029797678	-0.0291410225	-0.11127
C	-0.0060370084	-0.9615217498	-1.043000845	 0.418433
O	-0.0403343465	-0.8475804369	-2.2391838142	-0.370301
C	 0.0304738746	-2.1157999076	-0.0155316533	-0.476788
C	 0.0532359253	-0.9978069177	 1.060545427	 0.295386
C	 1.1233766393	-0.9290137905	 2.17218837	-0.131109
O	 0.1130445652	-1.000166431	 3.1966966589	-0.268378
C	-0.9538890076	-0.9427459421	 2.2303326351	-0.131092
H	 0.9067776876	 1.833158513	 0.4007183482	 0.132922
H	-0.0250428444	 1.7132802368	-1.1099174026	 0.166911
H	-0.8720375372	 1.8220070057	 0.4506918137	 0.132927
H	-0.8579732892	-2.7503642621	-0.0134251219	 0.134638
H	 0.9264842017	-2.7378317434	-0.0635679262	 0.134636
H	 1.8276239315	-1.7679716908	 2.2212706454	 0.110964
H	 1.6860368645	 0.0137637033	 2.2091984653	 0.104562
H	-1.5260041544	-0.0074772233	 2.2991171093	 0.104568
H	-1.6431129985	-1.7909337665	 2.3184197341	 0.110967
63.2312	92.0068	126.861	131.7557	224.6231	284.0087	309.4635	427.4745	465.7827	536.0454	558.85	715.1398	810.6047	855.7577	881.7004	930.8145	953.4548	990.8287	1038.6545	1052.8749	1069.345	1133.0993	1149.4812	1152.5743	1155.2747	1183.0616	1200.2094	1217.0149	1302.7388	1316.7444	1385.4898	1403.862	1444.5016	1465.3013	1481.3902	1501.6746	1515.6952	1527.5644	1885.6166	3001.0942	3012.0148	3019.4146	3057.2392	3058.1325	3071.271	3081.7247	3131.3407	3139.2455
CN1C(=O)CC11COC1	CN1C(=O)CC21COC2	
InChI=1S/C6H9NO2/c1-7-5(8)2-6(7)3-9-4-6/h2-4H2,1H3	InChI=1S/C6H9NO2/c1-7-5(8)2-6(7)3-9-4-6/h2-4H2,1H3
