15
gdb 20013	4.64438	1.24756	1.10272	2.4504	63.7	-0.2589	-0.0037	0.2552	1051.7466	0.117885	-399.759997	-399.752416	-399.751472	-399.792679	26.657	
O	 0.164978905	 0.2204457001	-0.542987003	-0.285814
C	 0.1568732099	 1.3488809839	-0.1172441094	 0.139797
N	 1.2212473713	 1.9592009718	 0.5255251065	-0.064598
C	 2.6038206452	 1.8296895098	 0.1386926479	-0.247436
C	 1.9138404589	 3.1691859294	 0.1169089042	-0.04633
C	 1.5821367327	 3.806880298	-1.1939965178	 0.074742
C	 0.9787047647	 5.1443806949	-1.2698586423	-0.184777
O	 2.3683340281	 4.9456476558	-1.537555425	-0.22683
H	-0.7393734406	 1.9983119677	-0.1277934643	 0.08787
H	 3.3058978528	 1.6024765856	 0.9353693641	 0.135912
H	 2.8052804089	 1.346195412	-0.8142462911	 0.142889
H	 2.1268185447	 3.8758377203	 0.9169414292	 0.112664
H	 1.4020208662	 3.1089692985	-2.0143617504	 0.11327
H	 0.3682797695	 5.411341279	-2.1307824224	 0.126735
H	 0.7537036827	 5.6843309531	-0.3510287561	 0.121906
73.6435	86.4996	191.4905	196.5668	311.5531	315.4547	401.4709	513.21	645.7353	796.2236	840.5964	872.6885	940.9564	949.1074	979.7437	1038.0151	1088.5869	1094.6726	1107.7844	1131.4535	1155.1581	1156.5962	1171.3578	1202.1977	1287.7253	1320.2669	1387.4644	1417.9397	1470.3422	1511.6072	1530.3015	1800.6962	2953.3438	3085.9444	3093.7186	3113.1968	3131.5205	3176.206	3204.433
O=CN1CC1C1CO1	O=CN1C[C@H]1[C@H]1CO1	
InChI=1S/C5H7NO2/c7-3-6-1-4(6)5-2-8-5/h3-5H,1-2H2	InChI=1S/C5H7NO2/c7-3-6-1-4(6)5-2-8-5/h3-5H,1-2H2/t4-,5+,6?/m0/s1
