16
gdb 32347	4.8915	1.05233	0.88464	3.4707	80.62	-0.1965	-0.0644	0.1321	1277.8932	0.125286	-434.074298	-434.066071	-434.065127	-434.107584	30.228	
C	-0.2838205395	 1.4374491191	 0.1986466871	-0.329085
N	 0.2144493318	 0.104665878	-0.1333866909	-0.361967
C	 0.8057026682	-0.6584483715	 0.8732596198	 0.300803
C	 0.6002527488	-1.9826819933	 1.0378254809	-0.059711
O	 1.3147489257	-2.7236318609	 1.9420769156	-0.222629
C	 2.2286389277	-2.1070205079	 2.7615491222	 0.358678
N	 2.9206142058	-2.7351280949	 3.6235687956	-0.532907
C	 2.3463616668	-0.660158478	 2.5726465202	-0.015454
N	 1.6994099401	 0.02041006	 1.6975120891	-0.258851
H	 0.5139112066	 2.0023852656	 0.6814504591	 0.16193
H	-0.5620166615	 1.9480839293	-0.7265504798	 0.124045
H	-1.1555645851	 1.4262924726	 0.8712969053	 0.10816
H	-0.4428445483	-0.4327650155	-0.6820910504	 0.233584
H	-0.0975533341	-2.5909617499	 0.4783966343	 0.124041
H	 2.7019560239	-3.7322525282	 3.6112436297	 0.224655
H	 3.0437408732	-0.1533463243	 3.2352303922	 0.14471
74.2016	84.8994	154.4392	210.7006	335.3212	346.3486	394.2384	422.6824	518.9968	562.4028	620.7817	682.6201	759.7095	787.1373	796.0788	822.8051	856.6687	945.0995	967.8136	1049.1356	1069.918	1145.7648	1154.0431	1195.9248	1290.6011	1334.6416	1336.7324	1398.9428	1453.3854	1485.6672	1495.9496	1521.3245	1620.6497	1686.049	1725.2053	2983.2218	3095.0551	3152.1799	3169.051	3222.2571	3483.5883	3582.1556
CNC1=COC(=N)C=N1	CNC1=COC(=C[N]1)[NH]	
InChI=1S/C5H7N3O/c1-7-5-3-9-4(6)2-8-5/h2-3,6-7H,1H3	InChI=1S/C5H7N3O/c1-7-5-3-9-4(6)2-8-5/h2-3,6-7H,1H3
