17
gdb 24679	3.71196	1.64092	1.16836	2.0238	82.94	-0.1874	-0.0005	0.1869	1016.9491	0.140076	-380.906991	-380.900144	-380.8992	-380.93806	27.912	
C	-0.0206523964	 1.5124595518	-0.0334545554	-0.232198
N	 1.3328933304	 2.0925574672	-0.0237736741	-0.400614
C	 2.2562116103	 1.3885720099	-0.81813678	 0.336372
C	 3.4290005549	 1.7644600766	-1.4229074328	-0.265894
C	 3.987472771	 0.5955725677	-2.0282881408	-0.158498
C	 3.1405640837	-0.4531622361	-1.7815775097	-0.113914
N	 2.0793161282	 0.0265111561	-1.0367370266	-0.045304
C	 1.0073100604	-0.6703748846	-0.4795832916	 0.036273
C	-0.0192727686	 0.0016897418	 0.0461470438	-0.153819
H	-0.5822564766	 1.9515721596	 0.7957294968	 0.111738
H	-0.5251966293	 1.835508094	-0.9568141665	 0.124727
H	 1.6719976043	 2.1933689093	 0.9276202173	 0.234179
H	 3.8386227255	 2.762293852	-1.4283292442	 0.096066
H	 4.8996100977	 0.5457065076	-2.6027854552	 0.096792
H	 3.1651653808	-1.4839660782	-2.0972524272	 0.115864
H	 1.093825443	-1.7501628624	-0.4940956923	 0.11741
H	-0.8480798193	-0.5256374221	 0.5022141884	 0.100822
130.813	161.2055	287.0686	409.6648	439.6393	533.0538	586.6033	614.4859	625.3418	673.2862	699.4535	724.1442	758.3244	791.1296	832.7435	853.8837	900.9724	922.7739	946.0422	999.7648	1049.3773	1069.9828	1102.8862	1169.5672	1215.535	1250.5472	1270.0868	1316.8732	1341.9859	1377.6035	1420.5765	1453.336	1461.1523	1480.0319	1529.1949	1616.5063	1712.3395	2988.2813	3084.8239	3196.6932	3217.345	3243.5998	3257.1539	3269.0406	3501.3476
C1NC2=CC=CN2C=C1	C1Nc2cccn2C=C1	
InChI=1S/C7H8N2/c1-3-7-8-4-2-6-9(7)5-1/h1-3,5-6,8H,4H2	InChI=1S/C7H8N2/c1-3-7-8-4-2-6-9(7)5-1/h1-3,5-6,8H,4H2
