16
gdb 46215	3.12458	1.54886	1.2233	4.5935	69.94	-0.2335	0.0256	0.2591	1009.887	0.124787	-437.846731	-437.839161	-437.838217	-437.87904	28.324	
O	 0.0212038111	-0.0144522908	 0.1318807581	-0.370698
C	 0.0387067937	 1.1827425483	 0.0336104229	 0.404041
N	-0.9592882237	 2.1347943227	-0.0707032655	-0.348308
C	-0.0664710072	 3.299717658	 0.0136257956	-0.250066
C	 1.0918936353	 2.2857823669	 0.0220217293	 0.168335
C	 2.3852111494	 2.4052720705	 0.7936173059	-0.230372
C	 3.1521022888	 1.0893995713	 0.6374905214	-0.085965
O	 3.0683881286	 1.1735223412	-0.8166243564	-0.276479
C	 2.3928641108	 2.4171240322	-0.7151309553	 0.030141
H	-1.9546657595	 2.0583718683	 0.0735217362	 0.252176
H	-0.1183927187	 3.9663321997	-0.8535148707	 0.118209
H	-0.1750410556	 3.8824116737	 0.935268531	 0.116481
H	 2.5685014004	 3.1838583385	 1.5222777857	 0.106719
H	 4.195837008	 1.1527209374	 0.9607798364	 0.113132
H	 2.6772151101	 0.1838055661	 1.0232769998	 0.1412
H	 2.5944363784	 3.1818976563	-1.4575227443	 0.111455
102.0181	137.3087	150.8853	215.1227	343.8058	404.9551	436.804	456.5781	669.4677	717.5839	794.7541	812.3897	835.6901	881.3224	933.2974	946.09	987.1033	1000.5304	1017.2072	1052.5612	1061.1811	1107.3046	1126.5801	1149.9344	1161.4314	1177.2643	1224.4057	1243.8752	1300.055	1332.3657	1380.9862	1435.6023	1504.61	1524.8956	1887.5209	3030.794	3048.101	3076.4564	3113.0813	3171.7739	3200.1166	3621.5321
O=C1NCC11C2COC12	O=C1NC[C@]21[C@H]1CO[C@@H]21	
InChI=1S/C6H7NO2/c8-5-6(2-7-5)3-1-9-4(3)6/h3-4H,1-2H2,(H,7,8)	InChI=1S/C6H7NO2/c8-5-6(2-7-5)3-1-9-4(3)6/h3-4H,1-2H2,(H,7,8)/t3-,4+,6-/m0/s1
