25
gdb 118083	2.75972	0.85506	0.76325	1.4168	88.98	-0.2605	0.0805	0.341	1635.719	0.227102	-389.477053	-389.466008	-389.465064	-389.513619	41.061	
C	-0.6560166451	 1.3597850975	 0.1427135976	-0.418423
C	-0.058871049	-0.0486229617	 0.0041037402	-0.049815
C	 0.827941367	-0.1593512896	-1.2553834788	-0.159986
C	 0.0652868675	-0.1389419043	-2.5755408241	-0.084138
O	 1.0119786875	-0.3280646547	-3.6189717467	-0.422423
C	 0.7135160026	-0.5367557928	 1.2435676178	 0.380551
C	 0.8208122415	-2.0508087322	 1.3361252947	-0.462002
C	 1.8958515808	 0.2585782546	 1.74750289	-0.294604
C	 0.6293575819	 0.1907998729	 2.5668377901	-0.321107
H	 0.1194385526	 2.1128077398	 0.325258689	 0.116697
H	-1.1805386117	 1.6524648851	-0.771182054	 0.112975
H	-1.3786105273	 1.4114929346	 0.9614539334	 0.11727
H	-0.9031451124	-0.7434182055	-0.1227836483	 0.064399
H	 1.5639562545	 0.6538181579	-1.2622233931	 0.10072
H	 1.4021658816	-1.0912781492	-1.2326116737	 0.105813
H	-0.6919979869	-0.9411650379	-2.5767389019	 0.081442
H	-0.4712898257	 0.8135366216	-2.7042611434	 0.084274
H	 0.5451979954	-0.2860083788	-4.4585409205	 0.283558
H	 1.297649326	-2.4850228641	 0.4506649208	 0.118179
H	 1.4133734508	-2.3511145313	 2.2058475583	 0.110192
H	-0.1711901672	-2.5078627232	 1.4357625592	 0.111621
H	 2.7702663282	-0.283909618	 2.0917786303	 0.10603
H	 2.1288998926	 1.2023531601	 1.2652056581	 0.108151
H	 0.034189183	 1.0921457217	 2.6455543001	 0.107939
H	 0.6332178121	-0.4115120825	 3.4695178846	 0.102687
45.7371	59.7358	102.0568	156.8545	216.2672	228.8765	267.5589	276.4573	297.1992	323.4909	346.9991	376.0935	424.8256	477.5533	532.1786	700.2763	786.7454	790.415	867.4184	871.9257	917.2644	946.516	952.1531	971.5419	1017.1848	1036.371	1052.7835	1063.4174	1082.3588	1089.2333	1121.1388	1127.2657	1175.5507	1189.3722	1233.1791	1242.9979	1269.861	1313.3157	1321.2761	1343.4972	1367.753	1384.2669	1411.7399	1418.7214	1459.8363	1467.8478	1485.0247	1493.2158	1500.1958	1501.9837	1509.6806	1514.4479	1528.168	2957.2281	2982.9832	2993.6328	3023.0619	3033.0919	3039.2097	3080.852	3086.47	3099.2027	3100.7239	3112.8326	3125.5772	3136.8866	3203.2995	3223.8739	3829.4959
CC(CCO)C1(C)CC1	C[C@@H](CCO)C1(C)CC1	
InChI=1S/C8H16O/c1-7(3-6-9)8(2)4-5-8/h7,9H,3-6H2,1-2H3	InChI=1S/C8H16O/c1-7(3-6-9)8(2)4-5-8/h7,9H,3-6H2,1-2H3/t7-/m0/s1
