19
gdb 15891	2.35583	2.01275	1.2147	3.7565	73.58	-0.2385	0.0381	0.2766	1045.4831	0.164886	-365.09866	-365.089871	-365.088926	-365.132412	31.653	
C	-0.0912048324	 1.5695339874	 0.0837455703	-0.375792
C	 0.1638757131	 0.0616549589	-0.0102147207	-0.161393
N	 0.7733276669	-0.3601342916	-1.252972412	-0.074191
C	 0.2216831376	-0.6933272406	-2.5807097791	 0.058584
C	-0.3099170194	 0.4720292151	-3.4028712481	-0.401171
C	 1.635226167	-1.2409009244	-2.9441920275	-0.400044
C	 2.0207499587	-0.885829034	-1.4924946253	 0.410389
O	 2.9866671017	-1.0133911796	-0.7843371603	-0.377754
H	 0.8430047276	 2.1256259385	-0.0347282855	 0.132923
H	-0.7899683493	 1.9082952054	-0.686898058	 0.119878
H	-0.5194528227	 1.8201061651	 1.0595758224	 0.118511
H	 0.8509647808	-0.2518102749	 0.7828533867	 0.139758
H	-0.7747343769	-0.4907880197	 0.133524408	 0.105373
H	-0.5347804968	-1.4872192318	-2.5165682793	 0.079777
H	 0.4341191854	 1.2720779468	-3.4694480725	 0.123514
H	-0.5518595451	 0.1379565982	-4.4173391185	 0.123481
H	-1.2228773861	 0.8880374681	-2.9648691065	 0.122408
H	 1.6891946177	-2.3061636787	-3.1756924632	 0.129165
H	 2.1691471622	-0.6718480583	-3.7084361209	 0.126584
57.1086	103.3217	115.4174	193.1556	253.6704	284.0173	303.6457	358.0693	438.967	518.5424	578.6423	680.1823	727.1843	777.1403	841.4277	911.8922	953.115	973.9838	1052.558	1072.2715	1081.5364	1102.3012	1114.3171	1176.9003	1198.7072	1238.5932	1268.288	1342.5986	1377.7636	1394.1759	1409.6156	1409.8004	1422.4265	1465.2316	1475.7483	1489.1203	1491.8089	1499.3957	1504.351	1872.4574	3010.1271	3013.5603	3033.4808	3041.0136	3079.5747	3081.1858	3103.0537	3111.354	3112.4823	3122.5002	3138.7826
CCN1C(C)CC1=O	CCN1[C@@H](C)CC1=O	
InChI=1S/C6H11NO/c1-3-7-5(2)4-6(7)8/h5H,3-4H2,1-2H3	InChI=1S/C6H11NO/c1-3-7-5(2)4-6(7)8/h5H,3-4H2,1-2H3/t5-/m0/s1
