19
gdb 34018	3.03382	1.34661	1.16032	1.9101	81.83	-0.2227	0.042	0.2647	1130.4721	0.15945	-385.842933	-385.834767	-385.833823	-385.875368	32.485	
C	-0.0036157067	-1.1582306235	 0.0368663178	-0.407319
C	-0.0113295914	 0.043639224	 0.0131459554	 0.274394
C	 0.0033167992	 1.4815684439	-0.0340276734	 0.221457
C	 0.4913312629	 2.1514251997	-1.3037171739	-0.344974
C	 1.3537133639	 2.1910775207	-0.0594466941	-0.08958
C	 1.5157891083	 3.488842995	 0.7296366805	-0.233537
C	 0.3675536821	 3.6925546569	 1.7305848967	-0.206692
C	-0.9743700548	 3.3786150789	 1.0788968936	-0.080053
O	-1.0750483983	 2.0133274663	 0.6924015316	-0.29627
H	-0.0037233127	-2.2196073841	 0.062344606	 0.190169
H	 0.7854450922	 1.5146053639	-2.1294267756	 0.124496
H	-0.0054837852	 3.0716226886	-1.5950637602	 0.11829
H	 2.2130426975	 1.5298510081	-0.0607825388	 0.104561
H	 2.4721357952	 3.4752032718	 1.260561697	 0.106887
H	 1.5582016067	 4.3407527219	 0.0398756193	 0.104488
H	 0.4953494197	 3.0271219699	 2.5922124414	 0.11311
H	 0.3632956852	 4.721101568	 2.1067047149	 0.098252
H	-1.8023740088	 3.533031322	 1.7758875464	 0.11216
H	-1.1448115651	 4.0413596679	 0.2142992654	 0.090163
99.4256	145.2056	171.2061	278.1586	340.2016	391.3824	410.7425	488.2029	509.7403	548.5621	573.7239	601.0519	672.8631	698.4351	776.2027	850.2259	858.8968	889.5097	906.5619	942.8475	975.8242	996.3157	1048.7121	1093.7504	1100.1604	1122.6091	1153.709	1220.6316	1228.1349	1261.3854	1271.3805	1306.3267	1364.5607	1373.6859	1396.3051	1412.8009	1467.732	1479.8874	1493.5154	1510.8457	2241.0381	2971.7105	3027.5952	3038.0519	3076.549	3087.5953	3090.0518	3131.1675	3167.1364	3223.8337	3504.322
C#CC12CC1CCCO2	C#C[C@]12C[C@H]1CCCO2	
InChI=1S/C8H10O/c1-2-8-6-7(8)4-3-5-9-8/h1,7H,3-6H2	InChI=1S/C8H10O/c1-2-8-6-7(8)4-3-5-9-8/h1,7H,3-6H2/t7-,8+/m1/s1
