19
gdb 77484	1.97517	1.83353	1.18907	2.7683	76.38	-0.2295	0.0004	0.23	1110.3683	0.156645	-423.002089	-422.992533	-422.991589	-423.035908	35.345	
C	-0.0205569792	 1.5219991273	 0.0411258065	-0.517607
C	-0.0065171679	 0.0225105643	 0.0137445879	 0.133785
C	 0.5873107295	-0.9419651992	-1.0841698453	-0.346229
C	 0.0244299593	-1.9558560755	-0.0148637339	 0.133842
C	 0.0574209475	-3.4552119792	-0.0307454799	-0.517626
C	 0.6189348202	-0.9725759261	 1.0694348309	 0.113468
O	 1.9924825428	-0.9549227548	 1.3318326581	-0.445304
C	-1.1625968048	-0.9851360204	 0.0076691863	 0.401108
O	-2.3572187899	-1.0036363164	-0.0043719037	-0.332818
H	 0.9938817895	 1.9243928286	 0.1330237672	 0.125379
H	-0.4679597704	 1.9309860753	-0.8703094533	 0.131376
H	-0.60447879	 1.8860749031	 0.8925898058	 0.135485
H	 0.1102301479	-0.9352276086	-2.0661878349	 0.117748
H	 1.6743224098	-0.9233048308	-1.2005953484	 0.089669
H	 1.0839558975	-3.8280490594	 0.0509327312	 0.125404
H	-0.5152012007	-3.8618297985	 0.8090598805	 0.135485
H	-0.3764727088	-3.8515759098	-0.9542085315	 0.131361
H	 0.1353045099	-0.9943124214	 2.0486433363	 0.099561
H	 2.4860594677	-0.9346133884	 0.5057087802	 0.285913
141.7611	150.6511	161.6644	179.2114	190.1626	190.8041	231.6027	255.8848	375.0182	395.9619	546.6313	592.4065	600.9311	618.5955	737.9466	750.5974	790.0402	848.7116	872.8802	912.6511	994.9318	1033.4141	1048.095	1107.4191	1125.2976	1140.2207	1164.541	1168.6843	1199.9327	1270.4012	1332.0978	1377.2968	1411.5425	1422.3748	1463.8902	1486.6036	1487.2036	1488.188	1489.728	1532.6261	1905.6216	3033.3273	3033.7603	3057.4214	3091.7896	3100.2227	3100.2248	3105.5273	3105.6018	3119.832	3817.2792
CC12CC(C)(C1O)C2=O	C[C@@]12C[C@@](C)([C@H]1O)C2=O	
InChI=1S/C7H10O2/c1-6-3-7(2,4(6)8)5(6)9/h4,8H,3H2,1-2H3	InChI=1S/C7H10O2/c1-6-3-7(2,4(6)8)5(6)9/h4,8H,3H2,1-2H3/t4-,6+,7-
