22
gdb 7492	3.67979	1.14644	1.05347	1.9733	77.85	-0.2417	0.0729	0.3147	1248.9605	0.199239	-350.193282	-350.183841	-350.182897	-350.228404	34.083	
C	-0.092051034	 1.59843974	 0.1470259517	-0.377935
C	 0.0008229895	 0.0707372101	 0.0860882911	-0.177909
C	-1.3664604578	-0.5959080962	-0.1139832627	-0.237848
C	-1.3604100962	-2.1291298982	-0.0903667283	 0.299964
C	-0.5055659278	-2.7450253125	-1.1964903749	-0.462959
C	-1.1469571152	-2.7595565321	 1.3135559564	-0.105958
O	-2.4821266655	-3.2995866077	 1.334827483	-0.273292
C	-2.776619987	-2.753162993	 0.0349338557	-0.116242
H	 0.8936387155	 2.0530170901	 0.2866330371	 0.112126
H	-0.5185136154	 2.0052534182	-0.7766840021	 0.114705
H	-0.7303416531	 1.9243852673	 0.9757061275	 0.115609
H	 0.6786160095	-0.2163545719	-0.7262654338	 0.100353
H	 0.4583001487	-0.3034929796	 1.011699296	 0.098111
H	-2.0506569852	-0.2401341577	 0.6683126759	 0.096751
H	-1.7965576863	-0.2586842413	-1.0681369841	 0.091788
H	 0.5518354736	-2.4854363096	-1.0834055494	 0.119814
H	-0.5800513145	-3.8371966541	-1.1833985546	 0.119259
H	-0.8307011741	-2.3984254344	-2.1844339406	 0.11389
H	-0.3842431472	-3.5475907038	 1.3677282324	 0.093223
H	-0.9795288989	-2.0495856278	 2.1346162975	 0.092642
H	-3.6071221491	-2.035297472	 0.0690990795	 0.092164
H	-3.0148360496	-3.5366080536	-0.6967586732	 0.091744
27.7178	87.2154	102.0333	171.2856	232.8971	249.1748	310.2689	331.2924	347.6599	410.9995	452.1506	684.8426	746.81	852.8375	866.4318	892.4327	910.5978	946.5974	967.9338	983.6	1007.9765	1043.0242	1052.645	1073.7507	1108.5783	1157.7553	1165.8992	1186.9192	1230.0877	1276.5649	1302.2061	1313.7019	1324.6151	1344.5373	1387.2844	1397.3987	1411.2699	1415.2765	1479.1732	1492.8265	1494.784	1498.5124	1500.9059	1509.9899	1517.2391	1539.3366	2993.3666	2999.5504	3006.4108	3020.1928	3027.1683	3029.9618	3033.5745	3039.9355	3041.9079	3061.0722	3093.2333	3097.1573	3101.9281	3103.1522
CCCC1(C)COC1	CCCC1(C)COC1	
InChI=1S/C7H14O/c1-3-4-7(2)5-8-6-7/h3-6H2,1-2H3	InChI=1S/C7H14O/c1-3-4-7(2)5-8-6-7/h3-6H2,1-2H3
