18
gdb 84822	3.1185	1.0738	0.85337	1.3156	72.99	-0.2517	-0.0285	0.2232	1325.3264	0.146949	-439.109623	-439.100705	-439.099761	-439.14495	31.486	
C	 0.0681328842	 1.5832317116	-0.1795313911	-0.391986
C	 0.0002725566	 0.0753836408	 0.0527711221	 0.009018
N	 0.449659344	-0.6683933378	-1.1433079524	-0.264268
C	 1.2710063377	-1.5380898655	-0.7346252751	 0.113022
O	 1.5773289874	-1.6168531919	 0.5842456851	-0.233998
C	 0.8744308615	-0.5086332621	 1.2170182796	 0.064371
C	 1.9146846218	 0.4253813374	 1.8463919375	-0.294634
C	 2.7420593941	-0.279580983	 2.9038244404	 0.153644
O	 2.8218191722	 0.0829579637	 4.0495648429	-0.238217
H	 1.089026129	 1.914148957	-0.3892333229	 0.12278
H	-0.5489427673	 1.8387681608	-1.0442058072	 0.135869
H	-0.3079436874	 2.1372738227	 0.685949886	 0.119104
H	-1.048432212	-0.1935794321	 0.2298238402	 0.098767
H	 1.7818275515	-2.2669677553	-1.3542264267	 0.144971
H	 0.2473599193	-0.940515657	 2.0020014353	 0.107906
H	 2.5931854328	 0.7822264775	 1.0607950253	 0.128318
H	 1.4285992982	 1.2877772106	 2.3095293295	 0.129042
H	 3.2823771864	-1.1807301075	 2.5436723815	 0.096292
35.281	57.9492	82.6143	183.418	251.7054	268.2315	315.957	419.9326	438.4278	528.8116	573.1199	719.1656	798.7184	839.6492	848.7232	873.8926	940.9775	963.7238	1023.7663	1031.9584	1074.7228	1095.2978	1119.1736	1141.4987	1154.3075	1227.5042	1274.3811	1312.5002	1313.7325	1354.7554	1365.2679	1387.6538	1412.7852	1425.4915	1451.8256	1490.4955	1502.208	1712.4279	1831.0209	2911.8309	3021.0037	3033.9746	3046.566	3070.3196	3112.4456	3120.3232	3127.9264	3215.8269
CC1N=COC1CC=O	C[C@H]1N=CO[C@H]1CC=O	
InChI=1S/C6H9NO2/c1-5-6(2-3-8)9-4-7-5/h3-6H,2H2,1H3	InChI=1S/C6H9NO2/c1-5-6(2-3-8)9-4-7-5/h3-6H,2H2,1H3/t5-,6+/m1/s1
