22
gdb 119414	3.15268	0.9371	0.82679	0.5805	83.35	-0.2163	0.0755	0.2917	1481.9559	0.193368	-404.308726	-404.298886	-404.297942	-404.343668	36.653	
C	-0.1172207518	 1.4961048702	 0.1829658733	-0.505718
C	 0.1419876186	 0.0282799269	 0.0410840595	 0.277219
C	 0.5589548241	-0.71623032	-1.2363046704	-0.256174
C	 1.3335297047	-1.7434107828	-0.3417474612	-0.263538
C	 0.8839381379	-0.9495695179	 0.8956105665	 0.30669
C	 1.6200709222	-0.7933622041	 2.1918945064	-0.318398
C	 1.5575916971	-2.0450240039	 3.0664062828	-0.064051
O	 2.3000477117	-1.7802029463	 4.2469257937	-0.420841
N	-0.6090563497	-0.9769263351	 0.8428519818	-0.414332
H	 0.6704678032	 2.0845612643	-0.3001010517	 0.122579
H	-1.0715689155	 1.7745525679	-0.280451921	 0.12772
H	-0.1602495192	 1.7939304454	 1.2365901411	 0.116902
H	-0.2655696046	-1.1115824765	-1.8349325233	 0.101832
H	 1.2261020946	-0.130374364	-1.8737846505	 0.095941
H	 0.9919436585	-2.7807000504	-0.383915251	 0.101058
H	 2.4141995426	-1.7070873528	-0.5017332751	 0.097071
H	 2.6747101905	-0.559879456	 2.0000097538	 0.108518
H	 1.2102812009	 0.049758058	 2.7623284954	 0.100584
H	 0.507508754	-2.2843816083	 3.2953274406	 0.094405
H	 1.9736862717	-2.9031187688	 2.5150081858	 0.091857
H	 2.2719469845	-2.5645876369	 4.802278626	 0.285966
H	-0.9358967362	-0.490123149	 1.6796673673	 0.214711
69.9083	92.9122	106.2245	202.3853	205.9987	240.8894	263.9382	330.7779	336.57	357.4759	489.1835	501.0673	610.4087	688.1643	768.5504	782.348	796.0978	870.2338	917.5436	941.7861	986.3135	996.9866	1012.5903	1063.3614	1065.6068	1088.3004	1122.2322	1150.1782	1165.0457	1212.5663	1227.9436	1233.2563	1239.5275	1242.9886	1301.8964	1325.1951	1343.8789	1368.0824	1412.2686	1451.2915	1460.655	1466.1177	1480.3657	1483.7321	1496.0178	1509.103	1527.5927	2971.7381	2999.3023	3019.6582	3023.6104	3054.9146	3062.5759	3066.4065	3080.6821	3092.6746	3105.0102	3122.5495	3442.3807	3831.4902
CC12CCC1(CCO)N2	C[C@@]12CC[C@]1(CCO)N2	
InChI=1S/C7H13NO/c1-6-2-3-7(6,8-6)4-5-9/h8-9H,2-5H2,1H3	InChI=1S/C7H13NO/c1-6-2-3-7(6,8-6)4-5-9/h8-9H,2-5H2,1H3/t6-,7-/m1/s1
