20
gdb 63192	3.21665	1.53034	1.44921	1.0318	85.59	-0.2086	-0.0348	0.1737	1014.4297	0.170438	-365.893757	-365.885804	-365.88486	-365.92551	32.404	
C	 0.0835484992	 1.5031940762	-0.0834518848	-0.434437
C	-0.0370719236	-0.0274300347	-0.0378016324	 0.256759
C	-1.5173895921	-0.4466943391	-0.0267597298	-0.422415
C	 0.8503212247	-0.6356571561	-1.1312704251	-0.153988
C	 1.5837498337	-1.6467160252	-0.6167593551	-0.000289
C	 2.9344479115	-1.2293181569	-0.0380863099	-0.167417
N	 2.1770921371	-1.068770562	 1.292796806	-0.167624
C	 1.1286829908	-2.0037099053	 0.8036196773	-0.08572
C	 0.6746632173	-0.6668727929	 1.1872657542	-0.037229
H	 1.130206255	 1.821662806	-0.0839726234	 0.12118
H	-0.398881014	 1.9087913372	-0.978885387	 0.117172
H	-0.4031177824	 1.9487193359	 0.7910602902	 0.117185
H	-2.024653957	-0.0650291755	-0.9186219756	 0.118601
H	-1.6200131411	-1.5353259825	-0.0196714226	 0.122024
H	-2.0371455157	-0.0479933701	 0.8522833916	 0.111072
H	 1.2652245554	 0.0219847926	-1.8921305452	 0.090029
H	 3.6784336275	-2.0109710002	 0.1435330463	 0.116782
H	 3.4072797672	-0.3322564837	-0.4475690415	 0.109506
H	 0.9411456151	-2.9733853053	 1.2504044455	 0.093347
H	 0.3242497915	-0.4415906883	 2.1917987016	 0.095462
126.1364	221.23	225.7674	253.9262	307.7585	342.3924	370.8336	470.7544	534.5973	571.323	617.2106	712.6848	745.285	770.7386	832.5933	858.2591	875.296	896.0764	939.8042	953.7009	965.164	1011.8958	1020.4528	1024.8114	1050.2685	1071.1146	1120.3549	1171.5454	1183.3314	1218.9701	1223.1893	1249.4463	1259.9529	1309.3619	1353.9745	1394.525	1417.1422	1482.8574	1483.3682	1498.706	1505.5536	1508.3938	1575.6186	3026.3303	3031.3176	3043.1232	3093.9421	3099.5814	3106.3004	3108.0306	3112.4037	3143.7362	3148.3291	3174.1441
CC1(C)C=C2CN3C2C13	CC1(C)[CH][C]2CN3[C@H]2[C@H]13	
InChI=1S/C8H11N/c1-8(2)3-5-4-9-6(5)7(8)9/h3,6-7H,4H2,1-2H3	InChI=1S/C8H11N/c1-8(2)3-5-4-9-6(5)7(8)9/h3,6-7H,4H2,1-2H3/t6-,7-,9?/m1/s1
