17
gdb 35372	3.79067	1.40791	1.26186	3.3483	74.88	-0.2562	0.03	0.2863	1002.5503	0.13921	-380.848825	-380.842048	-380.841104	-380.880056	27.087	
N	-0.0845622367	-1.1750569212	-0.1429750672	-0.329083
C	-0.050986778	-0.0207760508	-0.0824085445	 0.266927
C	-0.0055431239	 1.4341911928	 0.0083582419	-0.14803
C	-0.5853262992	 1.9994734124	 1.3495698147	-0.18255
N	 0.23996924	 3.1703313276	 1.691289209	-0.091442
C	 1.6662243531	 2.9209386736	 1.9598384494	-0.034418
C	 2.1698193479	 1.6180341008	 1.3250785453	-0.259081
C	 1.4188228105	 2.0261864326	 0.0176398486	-0.059991
C	 1.2032461865	 3.4379711858	 0.6343569933	-0.076445
H	-0.5668120709	 1.8445504478	-0.8389888818	 0.125179
H	-1.6229964895	 2.3176382891	 1.2261896043	 0.126279
H	-0.552808008	 1.2572494207	 2.1508769204	 0.131985
H	 2.1068524072	 3.4458103219	 2.7997687122	 0.100704
H	 3.2527354541	 1.6465826038	 1.1869385783	 0.117774
H	 1.8963021681	 0.6660485945	 1.7907765707	 0.117804
H	 1.9615389249	 1.9228144644	-0.9199897536	 0.094107
H	 1.2658716239	 4.408858504	 0.158431889	 0.100281
110.1582	156.5041	277.0214	372.3691	419.9839	500.3752	548.7767	622.0641	705.2267	740.2534	802.2726	831.2171	847.2834	895.7762	922.671	956.5476	962.5304	995.209	1017.2216	1030.5914	1055.7358	1076.3153	1104.4666	1128.5421	1190.1483	1200.005	1225.9255	1252.8274	1270.25	1278.4514	1305.9051	1322.7981	1337.1586	1376.5983	1492.682	1511.5284	2352.9969	3045.8915	3055.774	3070.8847	3113.6621	3117.4983	3137.5506	3176.0504	3192.5879
N#CC1CN2C3CC1C23	N#C[C@H]1CN2[C@H]3C[C@@H]1[C@@H]23	
InChI=1S/C7H8N2/c8-2-4-3-9-6-1-5(4)7(6)9/h4-7H,1,3H2	InChI=1S/C7H8N2/c8-2-4-3-9-6-1-5(4)7(6)9/h4-7H,1,3H2/t4-,5-,6-,7+,9?/m0/s1
