16
gdb 50917	2.90125	1.00992	0.81208	3.5395	69.77	-0.2662	-0.0407	0.2255	1363.5946	0.121993	-437.875927	-437.866743	-437.865799	-437.911413	31.275	
O	-0.0132358148	 0.0236271419	 0.2103935296	-0.231215
C	 0.0248549556	 1.2211670933	 0.0999823015	 0.142417
C	 1.3027861344	 2.0037644907	-0.1338214831	-0.277866
C	 1.2502383787	 2.9147233676	-1.389694747	-0.205293
C	 0.1542173307	 3.884476794	-1.2980523383	 0.298975
N	-0.7140465393	 4.6437655968	-1.2290422225	-0.33106
C	 2.6012932919	 3.600745729	-1.5824644578	 0.082674
C	 2.7636309486	 5.0014152759	-1.9852404857	-0.187614
O	 2.9481075468	 4.5873742012	-0.6239004663	-0.225173
H	-0.8972502657	 1.8382515426	 0.1702702013	 0.108769
H	 1.4889665548	 2.6431790064	 0.7381686417	 0.158139
H	 2.1290094343	 1.2947910757	-0.2301276936	 0.133627
H	 1.064032345	 2.2904318564	-2.273672329	 0.144554
H	 3.398381465	 2.8941594053	-1.8192868345	 0.111938
H	 3.6710404537	 5.301209516	-2.5058263229	 0.128113
H	 1.8858624202	 5.6172895873	-2.1649758235	 0.149015
52.32	67.2387	83.2015	140.4724	181.3808	200.9401	307.7076	381.7576	419.7465	492.3141	582.5315	654.3735	772.3686	825.2877	853.9115	895.2262	966.6044	997.9399	1042.1905	1076.2925	1106.1589	1123.6054	1169.073	1175.0749	1206.7211	1272.7862	1294.0025	1322.1674	1350.9098	1423.3705	1432.9922	1463.4184	1528.2734	1834.9092	2359.9758	2904.2455	3030.6503	3044.3365	3097.5784	3103.7985	3115.2928	3195.7115
O=CCC(C#N)C1CO1	O=CC[C@@H](C#N)[C@H]1CO1	
InChI=1S/C6H7NO2/c7-3-5(1-2-8)6-4-9-6/h2,5-6H,1,4H2	InChI=1S/C6H7NO2/c7-3-5(1-2-8)6-4-9-6/h2,5-6H,1,4H2/t5-,6+/m0/s1
