21
gdb 80417	2.44576	1.73023	1.28036	1.8889	77.32	-0.2569	0.0617	0.3186	1059.9201	0.183481	-424.220198	-424.211724	-424.21078	-424.252596	34.188	
C	-0.0825547975	 1.4903206402	 0.0708963653	-0.500173
C	-0.0120773966	-0.019346454	 0.0546081717	 0.301989
C	 0.9583162776	-0.8128552032	-0.8765360469	-0.275687
C	 0.7003494172	-1.9638347954	 0.1352895621	-0.036188
C	 0.613763054	-0.8607078795	 1.2206912359	-0.284161
C	-0.7800289196	-2.2711318613	-0.1381438458	 0.121556
O	-1.3838679017	-3.0063571804	 0.900328869	-0.455608
C	-1.3217822846	-0.7869167248	-0.2078105168	 0.068164
O	-2.3676193024	-0.5458955872	 0.7255221052	-0.44966
H	 0.8891062042	 1.9333291822	 0.3115152627	 0.114529
H	-0.3964364512	 1.877743448	-0.9053205353	 0.119435
H	-0.808626006	 1.8453596251	 0.8106369135	 0.116334
H	 0.6623510048	-0.9607637006	-1.9210378501	 0.090944
H	 1.9799484919	-0.4286266934	-0.8294446041	 0.10015
H	 1.3708888334	-2.8170395119	 0.2306608402	 0.068742
H	 1.5920333701	-0.4745784297	 1.5159639539	 0.097894
H	 0.0193988666	-1.0792058295	 2.1135169112	 0.087823
H	-0.9088870503	-2.7921358687	-1.0977754383	 0.060692
H	-2.2299745874	-2.5688621379	 1.0715050157	 0.28151
H	-1.7486371521	-0.545848294	-1.1855468653	 0.083876
H	-1.9679020504	-0.4078741041	 1.5919883862	 0.28784
120.7433	191.8268	206.5206	239.8831	293.3792	313.5451	319.3599	451.5193	471.0347	499.3749	560.4661	577.0453	653.7965	748.5211	803.8291	832.8918	856.1882	877.2493	918.1281	934.3716	974.6528	994.7977	1024.1267	1062.7481	1080.5323	1102.	1114.352	1150.0035	1156.8327	1201.3378	1232.1176	1248.731	1255.1298	1266.9643	1285.6706	1309.2669	1344.2512	1378.6869	1406.5429	1414.0268	1432.1431	1487.8955	1491.4893	1493.0813	1520.8904	2991.644	3026.3011	3041.5576	3050.2441	3070.5551	3089.3203	3099.0986	3108.8794	3112.3565	3124.4864	3727.9937	3798.6272
CC12CC(C1)C(O)C2O	C[C@@]12C[C@@H](C1)[C@@H](O)[C@H]2O	
InChI=1S/C7H12O2/c1-7-2-4(3-7)5(8)6(7)9/h4-6,8-9H,2-3H2,1H3	InChI=1S/C7H12O2/c1-7-2-4(3-7)5(8)6(7)9/h4-6,8-9H,2-3H2,1H3/t4-,5-,6-,7+/m1/s1
