25
gdb 59986	3.08008	0.79554	0.73549	2.5858	85.75	-0.249	0.0582	0.3073	1712.6935	0.226354	-426.640341	-426.628903	-426.627959	-426.67683	42.558	
C	 0.0504337843	 1.5924137264	-0.036073532	-0.384035
C	 0.0341245163	 0.0698528847	 0.0373186452	 0.147636
O	 0.7681843912	-0.2976021539	 1.195213402	-0.451198
C	-1.3980797219	-0.4927076889	 0.0656845376	-0.23503
C	-1.4572473923	-2.0256416867	 0.0220657538	 0.116129
O	-0.7970318632	-2.6081455341	 1.1627127784	-0.441037
C	-2.8767786382	-2.60652374	-0.164105007	 0.030142
C	-2.8075881229	-4.1162079976	-0.4318706279	-0.394658
C	-3.8098488013	-2.3043330213	 1.0188987679	-0.409183
H	 1.0819039574	 1.9545802356	-0.0182112023	 0.123252
H	-0.4293712128	 1.9488066571	-0.9527233083	 0.104836
H	-0.4735279763	 2.0214431632	 0.8244610947	 0.115736
H	 0.5319673202	-0.3277262046	-0.8668956074	 0.05558
H	 0.6229065374	-1.2459271679	 1.3215080735	 0.284193
H	-1.8989989985	-0.118856759	 0.9689225317	 0.09452
H	-1.9534242908	-0.0987152561	-0.7949868373	 0.095591
H	-0.8490588195	-2.3662198733	-0.8259280791	 0.088114
H	-1.2680757095	-2.3142742192	 1.9511785544	 0.286949
H	-3.2922010344	-2.1166556723	-1.0554268254	 0.075445
H	-2.336677667	-4.6332459327	 0.4095014813	 0.127411
H	-3.8075403382	-4.5367908069	-0.577215823	 0.108119
H	-2.2175915344	-4.3339025097	-1.3284744344	 0.110768
H	-3.9160200953	-1.2315002368	 1.2044348523	 0.119615
H	-4.8094878434	-2.7060276452	 0.8280372343	 0.121143
H	-3.4513786568	-2.777476991	 1.9414257568	 0.109962
53.2713	77.7109	129.6352	146.7989	213.9221	226.2997	234.5449	263.5058	296.5222	301.0257	316.673	344.2962	398.05	457.8582	481.8854	545.449	612.5038	656.1059	801.0544	846.5801	883.6189	920.005	937.3277	952.4253	964.7098	997.8257	1035.8214	1070.7405	1084.8735	1110.5551	1138.7402	1182.9699	1201.041	1214.8863	1279.8503	1301.4055	1327.9432	1346.8628	1363.9859	1380.0371	1386.0432	1399.3779	1402.8385	1417.1543	1426.6058	1458.8533	1473.2509	1485.1029	1487.8143	1494.4616	1500.1608	1508.4477	1512.1981	2921.504	3009.4659	3016.7065	3027.3196	3028.5181	3035.9321	3038.1253	3063.6799	3091.6611	3100.6253	3109.7027	3110.2828	3114.8452	3119.668	3720.0616	3798.1555
CC(O)CC(O)C(C)C	C[C@@H](O)C[C@@H](O)C(C)C	
InChI=1S/C7H16O2/c1-5(2)7(9)4-6(3)8/h5-9H,4H2,1-3H3	InChI=1S/C7H16O2/c1-5(2)7(9)4-6(3)8/h5-9H,4H2,1-3H3/t6-,7-/m1/s1
