17
gdb 126962	6.47157	0.80157	0.72145	4.8959	73.94	-0.2117	0.0359	0.2476	1546.1311	0.136455	-451.321309	-451.312412	-451.311468	-451.355431	32.354	
C	-0.0613434855	 1.528467712	-0.1062209906	-0.403701
C	-0.0320164125	 0.0159793721	 0.0753886496	-0.114047
N	-1.3910192684	-0.5297165114	 0.0232071311	-0.4155
C	-1.5429988166	-1.8882013251	 0.0385900132	 0.540017
N	-0.5732003582	-2.7470785431	-0.0459082767	-0.231678
O	-1.2386922485	-4.0250370204	-0.0954742892	-0.249619
C	-2.5899228859	-3.8547982395	-0.0208673446	 0.491988
N	-3.5042626238	-4.7274439583	-0.0582247655	-0.607862
N	-2.7776809646	-2.4846090291	 0.1106837524	-0.413474
H	 0.9548894785	 1.9303668295	-0.0807134445	 0.132761
H	-0.5181882132	 1.8006206859	-1.0619424818	 0.133426
H	-0.6284002789	 2.0159723747	 0.6955693649	 0.116977
H	 0.5367519325	-0.4625201692	-0.7265557812	 0.14682
H	 0.4663883708	-0.2541878852	 1.0169637702	 0.118282
H	-2.0601842053	-0.0343952181	 0.5975692731	 0.244119
H	-3.1074774902	-5.6576887197	-0.1657720572	 0.231365
H	-3.6716319002	-2.045489525	-0.0239211634	 0.280127
58.3898	92.3222	131.5009	180.4199	258.5936	338.549	343.3159	363.2822	370.733	508.7182	542.7569	677.4278	722.5399	730.7357	769.7655	785.1614	812.4696	914.3291	924.5578	978.623	1038.2768	1072.7838	1104.0876	1146.8353	1168.1768	1275.0313	1296.8606	1322.6289	1374.3353	1416.1188	1447.0249	1494.1943	1497.9861	1523.1318	1574.2777	1679.965	1791.6065	3010.88	3035.2586	3087.8493	3109.7558	3126.8158	3536.2682	3576.5823	3685.9083
CCNC1=NOC(=N)N1	CCNC1=NO[C@@H]([NH])N1	
InChI=1S/C4H8N4O/c1-2-6-4-7-3(5)9-8-4/h2H2,1H3,(H3,5,6,7,8)	InChI=1S/C4H9N4O/c1-2-6-4-7-3(5)9-8-4/h3,5H,2H2,1H3,(H2,6,7,8)/t3-/m0/s1
