17
gdb 77916	2.28337	1.44567	1.41749	4.142	69.14	-0.2346	0.0012	0.2358	1041.5414	0.133723	-458.915084	-458.906179	-458.905234	-458.948082	33.54	
C	-0.3438348649	 1.5237137083	-0.044312446	-0.453467
C	-0.0059249439	 0.0371406978	-0.0502583551	-0.024545
C	 1.2609078411	-0.550181526	-0.7755871529	-0.2669
C	 2.153290483	-0.1201429455	 0.4478572278	 0.06895
O	 2.4462101173	 1.2280262071	 0.7099382813	-0.436016
C	 0.8403032351	-0.652756101	 1.1186451426	 0.231328
O	 0.5499235656	-0.7574630312	 2.4506558312	-0.463044
C	 0.9737479928	-1.7876315372	 0.100335262	 0.405783
O	 0.870806497	-2.9711090899	 0.0126054875	-0.319025
H	-0.794970254	 1.8004878124	-1.0035064487	 0.119179
H	-1.0933071409	 1.7235675161	 0.7305664617	 0.118577
H	 0.51983512	 2.1583365467	 0.1345364964	 0.144511
H	-0.9163353482	-0.5269810134	-0.2793712593	 0.095196
H	 1.5054440717	-0.5101420481	-1.8320489518	 0.095429
H	 3.041824299	-0.7444873816	 0.6066913842	 0.09234
H	 3.2126153689	 1.4774875302	 0.1841183014	 0.293449
H	 0.6776562902	 0.1066927953	 2.8596699576	 0.298256
151.242	164.0388	181.9269	192.1533	264.917	270.0325	284.5212	291.0319	378.9173	435.1761	560.5868	573.4503	628.3315	730.0931	751.3998	785.6345	824.0441	838.0627	926.5174	1006.3198	1051.463	1068.9236	1079.1278	1115.1492	1148.7529	1161.4742	1199.2073	1228.6077	1286.6734	1305.9019	1399.5489	1407.6225	1427.3113	1480.6382	1497.1648	1511.4109	1925.6647	3020.08	3033.0942	3047.2937	3084.9155	3179.1515	3186.9993	3792.2584	3820.7281
CC1C2C(O)C1(O)C2=O	C[C@H]1[C@H]2[C@@H](O)[C@]1(O)C2=O	
InChI=1S/C6H8O3/c1-2-3-4(7)6(2,9)5(3)8/h2-4,7,9H,1H3	InChI=1S/C6H8O3/c1-2-3-4(7)6(2,9)5(3)8/h2-4,7,9H,1H3/t2-,3-,4+,6-/m0/s1
