18
gdb 102417	3.0025	1.12119	0.90138	4.3917	75.77	-0.2427	0.0139	0.2566	1309.8957	0.14628	-435.269287	-435.258798	-435.257854	-435.305947	35.086	
C	-0.0047589654	 1.3652665592	 0.3202391238	-0.334794
N	-0.2026034603	 0.2106424671	-0.5535913811	-0.330462
C	-1.2005455958	-0.7071669488	-0.2960899002	 0.451945
O	-2.4169158098	-0.1946773697	 0.0219738448	-0.251807
C	-3.0243473145	 0.7481530149	-0.8793728031	-0.265842
N	-0.9581726399	-1.9593381148	-0.3437643316	-0.339522
C	-2.0938376503	-2.8679047792	-0.2383613801	-0.274144
C	-3.1149032934	-2.6760784337	-1.2812944417	 0.273556
N	-3.8976432543	-2.5078365566	-2.1156540583	-0.33585
H	 0.3915502868	 1.0890903156	 1.3073110947	 0.128894
H	 0.6959451119	 2.0541228654	-0.1576031603	 0.134878
H	-0.9485581289	 1.8905374275	 0.4694544717	 0.147711
H	 0.6517014426	-0.2758444425	-0.7904486371	 0.25374
H	-3.6759419809	 1.3839953992	-0.2771846709	 0.135518
H	-2.2709054423	 1.3556335821	-1.3850148563	 0.140037
H	-3.6170138499	 0.2027058164	-1.6189724857	 0.165208
H	-1.7182713007	-3.8924128874	-0.323783653	 0.149268
H	-2.5953132748	-2.7905943145	 0.7356420442	 0.151663
45.6781	78.6305	91.6398	106.9304	127.8429	172.0853	205.1959	269.9047	303.0208	332.4702	369.5713	464.0951	587.0966	659.1316	750.7182	775.0532	818.4418	915.3158	991.1948	1026.4795	1054.5406	1102.7327	1151.4176	1183.255	1185.8502	1214.0693	1266.0956	1341.4907	1358.0444	1458.9936	1459.9851	1472.5322	1486.0576	1493.8924	1494.7288	1513.8259	1526.0231	1732.7719	2348.9556	3009.1413	3021.9764	3048.4573	3076.8741	3099.4389	3131.0955	3145.26	3149.2469	3592.2026
CNC(OC)=NCC#N	CNC(=NCC#N)OC	
InChI=1S/C5H9N3O/c1-7-5(9-2)8-4-3-6/h4H2,1-2H3,(H,7,8)	InChI=1S/C5H9N3O/c1-7-5(9-2)8-4-3-6/h4H2,1-2H3,(H,7,8)
