16
gdb 17408	4.58442	1.52727	1.49938	0.6128	64.58	-0.2524	0.0746	0.327	902.3728	0.128972	-383.677388	-383.670195	-383.669251	-383.708722	27.357	
C	-0.0711194896	 1.5212755067	-0.0691080476	-0.415765
C	-0.0394396009	 0.0233178503	 0.0783422103	-0.022865
O	 1.2529351847	-0.6146250446	-0.046674915	-0.297104
C	 0.6008429122	-0.6467706521	 1.2082362151	 0.434678
C	 1.2845399943	-0.1200698823	 2.496812967	-0.348216
C	 0.8961701468	-1.458003505	 3.1537915769	 0.034967
O	-0.5274467781	-1.5748092737	 3.0598535743	-0.24088
C	 0.2604956378	-1.951146633	 1.9188303676	-0.089873
H	 0.7422871455	 1.9867849257	 0.4932150777	 0.127925
H	 0.0299563521	 1.808250127	-1.1209059696	 0.130821
H	-1.0233698331	 1.9180713762	 0.2988325026	 0.127918
H	-0.8365137593	-0.515673053	-0.4368460798	 0.093683
H	 2.3607099183	-0.0076347841	 2.341537962	 0.124669
H	 0.8733015832	 0.7743364111	 2.9702230032	 0.11566
H	 1.3922254755	-1.9972703518	 3.9514727428	 0.111135
H	 0.1383071805	-2.9489245575	 1.5144004027	 0.113246
112.9253	175.4364	191.2543	250.4258	381.6261	433.1095	453.0826	521.3941	581.6262	787.0741	797.8728	847.6977	863.428	875.5004	950.4768	954.0506	980.9944	1021.5043	1032.8945	1070.9998	1104.6282	1132.1272	1159.4059	1188.6044	1216.2181	1226.3555	1264.3866	1346.226	1376.9362	1409.8691	1459.3108	1477.0881	1490.5115	1530.971	3037.8282	3066.6749	3093.3432	3102.6897	3126.5077	3127.6745	3188.4424	3203.0853
CC1OC11CC2OC12	C[C@H]1O[C@]21C[C@H]1O[C@@H]21	
InChI=1S/C6H8O2/c1-3-6(8-3)2-4-5(6)7-4/h3-5H,2H2,1H3	InChI=1S/C6H8O2/c1-3-6(8-3)2-4-5(6)7-4/h3-5H,2H2,1H3/t3-,4-,5-,6+/m1/s1
