23
gdb 118342	2.38373	0.88656	0.74984	1.3288	82.75	-0.2475	-0.0292	0.2183	1655.0686	0.201878	-425.4428	-425.431271	-425.430327	-425.480937	40.426	
C	-0.1307200922	 1.6659575515	 0.075529152	-0.379321
C	-0.075100387	 0.1370713352	 0.0204212906	-0.182313
C	 0.7105263625	-0.4738959484	 1.1871518782	-0.197239
C	 0.776755867	-2.0069508064	 1.1552684839	-0.073454
C	 1.5443288872	-2.49584486	-0.0624630697	 0.152022
O	 1.4099691361	-3.5808139216	-0.5722562082	-0.261716
C	 1.4546278713	-2.5764037326	 2.4383341935	 0.122265
C	 1.240221398	-4.0761386018	 2.621260193	-0.430824
O	 2.8397936545	-2.230730999	 2.4788087878	-0.442246
H	 0.8747373047	 2.0996206826	 0.0413487086	 0.117047
H	-0.6995922204	 2.0752801282	-0.7648372193	 0.114287
H	-0.6066811035	 2.0104516223	 1.0003633736	 0.115806
H	-1.0951677704	-0.2694727239	 0.0209258635	 0.099294
H	 0.3704593058	-0.1755827848	-0.9337047962	 0.100092
H	 1.7344913337	-0.0786249559	 1.2022987502	 0.114879
H	 0.2526104528	-0.1597593268	 2.1336408552	 0.095989
H	-0.2323537545	-2.4337262198	 1.097547916	 0.092343
H	 2.3011878306	-1.7778112624	-0.4549580306	 0.081861
H	 1.0102031225	-2.0462692201	 3.2897439281	 0.08941
H	 1.6079453844	-4.6377442515	 1.7562199915	 0.139646
H	 1.76525873	-4.4174068017	 3.518323392	 0.122436
H	 0.1769095231	-4.3084626007	 2.734252625	 0.122662
H	 3.332375094	-2.9246054824	 2.0274984113	 0.287073
25.2758	68.2829	79.7482	96.688	138.696	231.1753	238.7527	245.6599	261.3009	301.	306.7689	322.6842	407.9397	470.9645	569.2816	600.0735	738.903	803.3669	853.7186	904.2446	922.1031	965.9767	1005.2602	1026.4186	1053.1342	1066.1649	1098.3013	1103.2838	1154.3527	1167.1192	1247.4453	1250.6281	1295.0707	1312.3095	1327.4396	1343.9965	1373.8722	1394.5689	1406.1061	1411.6731	1422.1467	1434.4896	1485.0769	1490.9175	1494.1771	1495.8371	1499.2079	1509.7972	1819.603	2862.3015	3010.2931	3022.3803	3030.0115	3031.68	3034.9138	3037.2226	3041.1351	3066.9239	3097.1393	3104.5995	3112.0025	3116.3726	3806.4155
CCCC(C=O)C(C)O	CCC[C@@H](C=O)[C@@H](C)O	
InChI=1S/C7H14O2/c1-3-4-7(5-8)6(2)9/h5-7,9H,3-4H2,1-2H3	InChI=1S/C7H14O2/c1-3-4-7(5-8)6(2)9/h5-7,9H,3-4H2,1-2H3/t6-,7+/m1/s1
