22
gdb 15905	2.5279	1.76413	1.1806	1.4598	78.2	-0.2525	0.0722	0.3247	1108.5526	0.199555	-350.200614	-350.191296	-350.190352	-350.234075	35.086	
C	-0.0420007625	 1.6640456767	 0.0197862172	-0.388781
C	-0.001796616	 0.1314865846	-0.0079623909	-0.168747
C	-1.3952717459	-0.5029725407	 0.0273204637	-0.028293
C	-1.4435745143	-2.0717228015	-0.0357595983	 0.031484
C	-0.3014789165	-2.8571619757	-0.6641565095	-0.40935
C	-1.6077682817	-2.0981664592	 1.5083519305	-0.279598
C	-2.0407413899	-0.6122816014	 1.4400826544	 0.137612
O	-1.5321384322	 0.2863394394	 2.4028918104	-0.426864
H	 0.9678295263	 2.0846205803	-0.0287161991	 0.101897
H	-0.6053508788	 2.0565121649	-0.8349535452	 0.103527
H	-0.5193721455	 2.0222261523	 0.9343921475	 0.13979
H	 0.5090318419	-0.1994644366	-0.9209813335	 0.088664
H	 0.6009565566	-0.2304879471	 0.8326839867	 0.099803
H	-2.02523846	-0.0037581671	-0.7170786721	 0.058043
H	-2.3854538205	-2.3748892618	-0.5066654172	 0.068219
H	 0.6628671052	-2.6000412725	-0.2148973234	 0.11642
H	-0.4539871693	-3.9335141207	-0.525655901	 0.110331
H	-0.2286809977	-2.6705029372	-1.74158167	 0.113139
H	-2.3011898623	-2.8221956358	 1.9453473958	 0.086512
H	-0.6384487571	-2.1847888954	 2.0101850058	 0.101587
H	-3.1348801197	-0.527064284	 1.3682529983	 0.062478
H	-1.9374177402	 0.0795462186	 3.2508198297	 0.282128
89.8608	135.678	173.1005	213.8736	223.2776	240.8498	265.7701	310.661	355.2235	412.1831	471.371	548.5267	626.9224	759.6603	785.8398	830.2399	892.2935	924.4689	938.4476	966.0065	1024.4449	1042.6819	1066.825	1078.7861	1140.2654	1148.6256	1165.2403	1182.3035	1228.2201	1242.6364	1272.6254	1274.7969	1304.7138	1334.094	1342.7473	1373.252	1394.5876	1406.6223	1409.3655	1428.2132	1480.961	1490.9837	1496.5762	1498.8524	1502.4447	1514.8851	2986.0204	3022.2751	3026.4844	3028.9856	3031.2962	3042.6553	3046.7948	3064.8471	3087.9888	3092.7529	3099.3171	3105.0719	3132.1034	3818.0319
CCC1C(C)CC1O	CC[C@H]1[C@@H](C)C[C@H]1O	
InChI=1S/C7H14O/c1-3-6-5(2)4-7(6)8/h5-8H,3-4H2,1-2H3	InChI=1S/C7H14O/c1-3-6-5(2)4-7(6)8/h5-8H,3-4H2,1-2H3/t5-,6-,7+/m0/s1
