18
gdb 19932	3.60043	2.31422	1.90687	1.7408	69.62	-0.2438	0.0787	0.3225	771.36	0.156994	-347.783833	-347.777709	-347.776765	-347.813788	25.318	
C	 0.1319451596	 1.581393672	 0.2114685931	-0.292045
C	 1.3554378003	 0.7535014912	-0.0720758141	-0.031394
C	 2.2052135761	 0.3270296284	 1.1209616468	-0.24621
C	 1.2720031734	-0.4658229425	 2.0430027069	 0.121032
O	 0.5321775429	 0.3284385275	 3.0086754345	-0.296893
C	-0.724729313	-0.2071203461	 2.5329945521	-0.093868
C	-0.0397576213	-0.7918038991	 1.2812122086	-0.06578
C	-0.0067559372	 0.0843749395	 0.0350253507	-0.047871
H	 0.0244340862	 2.0049922914	 1.2039953551	 0.132573
H	-0.2495697074	 2.2073246138	-0.5883697294	 0.105532
H	 1.8441552817	 0.8655734636	-1.0338131921	 0.079661
H	 3.022816099	-0.3220360772	 0.7862827977	 0.098041
H	 2.6544714603	 1.1679575638	 1.6606353379	 0.114859
H	 1.7770135865	-1.3000606883	 2.5455983768	 0.071489
H	-1.123665868	-0.9630950607	 3.2224951968	 0.095435
H	-1.4753508525	 0.5747569228	 2.3755949349	 0.104626
H	-0.2552896088	-1.8350883771	 1.0451563474	 0.070398
H	-0.5194251277	-0.272031283	-0.8512284035	 0.080414
159.0066	249.0087	333.1744	370.9402	469.8564	626.2242	680.2252	747.1404	793.0437	817.6259	843.387	862.0876	890.5179	914.3735	964.4922	992.9925	1004.4585	1028.1423	1042.1977	1077.3304	1091.9605	1099.6806	1111.5878	1116.3679	1170.2312	1193.9371	1210.8067	1223.6541	1261.8452	1310.2249	1321.0009	1331.7606	1357.5554	1376.111	1393.2843	1471.2883	1486.655	1520.3087	3008.7275	3020.8196	3040.8942	3069.0794	3079.2876	3095.8676	3130.6451	3162.3958	3172.366	3218.0449
C1C2CC3OCC3C12	C1[C@H]2C[C@H]3OC[C@H]3[C@@H]12	
InChI=1S/C7H10O/c1-4-2-7-6(3-8-7)5(1)4/h4-7H,1-3H2	InChI=1S/C7H10O/c1-4-2-7-6(3-8-7)5(1)4/h4-7H,1-3H2/t4-,5-,6-,7+/m0/s1
