19
gdb 103910	2.51869	1.14281	0.97304	5.0344	73.37	-0.2636	0.0145	0.2781	1297.9719	0.15554	-460.1555	-460.145505	-460.144561	-460.190767	35.331	
C	 0.3732030198	 0.8017560694	-0.0286262406	-0.248744
O	-0.097174885	-0.4609199131	 0.4106858517	-0.277397
C	-1.4259617039	-0.7445291275	 0.0952343898	 0.387534
C	-2.4615236256	-0.0374107019	 0.9421882832	-0.45456
C	-1.7394205024	-1.1054931474	-1.343630802	-0.369249
C	-1.6601252276	-2.1852656861	-0.2980969555	 0.036773
O	-0.5677334621	-3.0626371658	-0.4198955712	-0.187493
C	 0.1245255469	-3.3367572771	 0.7134315003	 0.188794
O	 1.0590502602	-4.0779841543	 0.7185839592	-0.279722
H	 1.4354669716	 0.8422699602	 0.2201991763	 0.13847
H	 0.2524053914	 0.921028051	-1.1136234601	 0.114227
H	-0.1403484907	 1.6311005416	 0.4758121172	 0.113769
H	-2.474725252	 1.0391775993	 0.74203781	 0.12667
H	-3.463843602	-0.4216899267	 0.7322554911	 0.122989
H	-2.2491063175	-0.1865277703	 2.0055704577	 0.131386
H	-2.7053176757	-0.8488613846	-1.7638972862	 0.12026
H	-0.9082376337	-1.0884617097	-2.0395281036	 0.140527
H	-2.5738501542	-2.6707066734	 0.0348535605	 0.108188
H	-0.2775768174	-2.8140179836	 1.5982247622	 0.087577
71.0067	91.1578	122.0095	166.1389	178.4866	207.6341	218.6262	283.2031	330.9209	372.6873	404.3386	486.4355	587.4598	663.6473	718.8825	829.6766	880.611	923.9361	949.0493	1039.8063	1042.2579	1071.1968	1106.6174	1115.6897	1123.6642	1147.731	1180.2092	1185.1778	1218.8695	1266.7485	1312.772	1392.3965	1413.1252	1427.3702	1469.9228	1474.7229	1480.4305	1492.4945	1502.9439	1509.8244	1870.467	2994.3192	3000.9208	3035.8948	3056.4093	3102.2187	3114.5873	3128.839	3136.5878	3140.8693	3233.0621
COC1(C)CC1OC=O	CO[C@@]1(C)C[C@H]1OC=O	
InChI=1S/C6H10O3/c1-6(8-2)3-5(6)9-4-7/h4-5H,3H2,1-2H3	InChI=1S/C6H10O3/c1-6(8-2)3-5(6)9-4-7/h4-5H,3H2,1-2H3/t5-,6+/m1/s1
