19
gdb 82443	2.71661	1.70025	1.22964	1.4474	75.08	-0.2282	0.0635	0.2917	1045.2449	0.158372	-422.971651	-422.963273	-422.962328	-423.003849	33.47	
C	-0.006559195	 1.4637572572	 0.1144446629	-0.502311
C	-0.0438088509	-0.0315555084	 0.0093335292	 0.286012
C	-1.2719804732	-0.9254398525	-0.1962961912	-0.284333
C	-0.3550505284	-2.1050510823	 0.2167371588	-0.115071
C	 0.6075514002	-1.0659171446	 0.9292016377	-0.258009
C	 1.1553564198	-0.8281404034	-0.4836592044	 0.340393
O	 2.2961985937	-0.1834418286	-0.8991559614	-0.467164
C	 0.6777562662	-2.1994942961	-0.9421719658	 0.082435
O	 1.6741800672	-3.194310208	-0.7795471172	-0.456198
H	 1.0021587753	 1.8133818615	 0.351976305	 0.133657
H	-0.302300359	 1.931353751	-0.8318829078	 0.122846
H	-0.6890022956	 1.8216102638	 0.8931523627	 0.11467
H	-2.0377695234	-0.7168827668	 0.5574580934	 0.098207
H	-1.7370886066	-0.9678372012	-1.1894319768	 0.088144
H	-0.7480215764	-3.0212012193	 0.6531067994	 0.075038
H	 1.0210206794	-0.9645986857	 1.9221048562	 0.092567
H	 2.9975839693	-0.8460418798	-0.9279442191	 0.289978
H	 0.2986245929	-2.324116308	-1.9622157669	 0.081295
H	 1.9461968245	-3.1742319586	 0.1472464555	 0.277842
159.9232	183.7396	202.7086	229.0039	296.8095	332.2255	375.807	392.3644	445.7304	461.3789	510.3877	643.757	677.6558	753.9899	810.7498	827.6306	852.1253	886.1297	922.1173	938.0395	968.371	1007.0987	1040.4383	1053.8486	1097.7031	1118.6225	1152.418	1176.7717	1216.1041	1229.8697	1239.6447	1272.252	1278.6702	1302.9303	1365.0091	1416.1109	1439.2197	1460.8834	1486.7661	1496.196	1509.0917	3019.638	3028.133	3058.5779	3082.7411	3085.7201	3112.4461	3137.3194	3222.3745	3763.3449	3776.6618
CC12CC3C1C2(O)C3O	C[C@]12C[C@@H]3[C@H]1[C@@]2(O)[C@H]3O	
InChI=1S/C7H10O2/c1-6-2-3-4(6)7(6,9)5(3)8/h3-5,8-9H,2H2,1H3	InChI=1S/C7H10O2/c1-6-2-3-4(6)7(6,9)5(3)8/h3-5,8-9H,2H2,1H3/t3-,4-,5+,6+,7-/m1/s1
