18
gdb 75769	2.42955	1.3222	1.15086	2.6182	80.18	-0.2633	0.0151	0.2784	1168.9688	0.144823	-401.923162	-401.913726	-401.912782	-401.957134	35.226	
C	-0.3868575272	 1.3973932973	-0.0518239667	-0.41508
C	 0.0036404268	-0.0729330605	-0.0662249982	-0.173576
C	 1.2526154779	-0.473203533	-0.8207428068	 0.433495
N	 1.6597153403	-0.2945544941	-1.9928003881	-0.548346
O	 1.8455578807	-1.111751374	 0.246938338	-0.28473
C	 0.739401371	-0.7288559711	 1.159381056	 0.204032
C	 1.2648170335	 0.19113097	 2.2529943154	-0.43726
C	 0.0827462148	-1.9059572963	 1.7047323743	 0.315648
C	-0.4807053148	-2.8625300781	 2.1647015571	-0.456026
H	 0.4467964288	 2.0437458795	 0.2331505118	 0.127124
H	-0.7049788465	 1.6942069323	-1.0550547939	 0.147226
H	-1.2183440545	 1.5776789397	 0.6363967069	 0.124533
H	-0.8477945118	-0.6872594948	-0.3699968472	 0.119934
H	 2.579551971	-0.7143753578	-2.1382376794	 0.22813
H	 1.7997658409	 1.0381421499	 1.8182458558	 0.131037
H	 0.4398042538	 0.5649387979	 2.8658052899	 0.134981
H	 1.9515893837	-0.3606639159	 2.8995290719	 0.142844
H	-0.9723723183	-3.714326961	 2.5664042131	 0.206034
68.1747	138.9215	177.7364	192.493	208.3734	226.9513	277.0956	362.2956	408.3595	423.1622	501.5784	581.766	622.0117	630.4856	648.5295	675.0833	770.0819	829.0867	849.2345	867.2477	937.8795	1014.5291	1021.6768	1077.2676	1099.0413	1133.0297	1195.707	1202.0282	1261.1997	1302.5403	1361.1519	1404.1748	1413.4742	1476.2963	1485.0971	1496.7481	1502.7864	1826.1535	2237.3927	3045.7522	3052.4114	3081.4365	3116.8626	3125.2104	3128.9221	3137.9212	3475.0828	3499.5539
CC1C(=N)OC1(C)C#C	C[C@H]1[C]([NH])O[C@]1(C)C#C	
InChI=1S/C7H9NO/c1-4-7(3)5(2)6(8)9-7/h1,5,8H,2-3H3	InChI=1S/C7H9NO/c1-4-7(3)5(2)6(8)9-7/h1,5,8H,2-3H3/t5-,7+/m0/s1
