14
gdb 48870	2.60161	1.76718	1.34598	4.2768	66.78	-0.2401	-0.0494	0.1907	938.8613	0.100213	-436.626402	-436.619209	-436.618265	-436.658467	26.91	
O	-0.6406833574	 0.6270750559	-0.6561565408	-0.243763
C	 0.0852153118	 1.0140550605	 0.2256671621	 0.02492
C	 1.2581304259	 1.8929808763	 0.0007884265	 0.085447
N	 1.5409034539	 3.0331149919	 0.9566720262	-0.365966
C	 2.2209162161	 3.6606318903	-0.2076594734	-0.014182
C	 3.1127868751	 2.59093922	-0.8303408763	-0.212438
C	 1.6144502065	 2.7850861306	-1.245207562	-0.146766
C	 2.7192066031	 1.3188346393	-0.1676526505	 0.477374
O	 3.1999820583	 0.2367519357	-0.0295263252	-0.321316
H	-0.0662632078	 0.7229512209	 1.2879007701	 0.100189
H	 0.6635393296	 3.5405643627	 1.0838622302	 0.229111
H	 2.503427968	 4.7050564853	-0.2358348992	 0.122585
H	 4.0015240437	 2.8212320463	-1.4006202083	 0.127268
H	 1.2061803733	 2.8904849344	-2.2394304195	 0.137536
76.5207	152.5654	193.5131	211.7875	407.2507	456.1679	572.5749	609.6466	682.2682	725.9555	743.8125	795.3013	807.0841	846.2257	888.5373	934.4507	981.6872	1001.7929	1021.922	1032.1201	1046.3308	1088.4701	1138.8446	1178.6198	1245.5201	1282.7784	1353.5011	1381.1435	1414.3175	1809.8531	1901.8088	2900.4883	3205.4142	3226.7327	3236.2741	3437.2889
O=CC12NC3C(C13)C2=O	O=C[C@]12N[C@H]3[C@H]([C@@H]13)C2=O	
InChI=1S/C6H5NO2/c8-1-6-3-2(5(6)9)4(3)7-6/h1-4,7H	InChI=1S/C6H5NO2/c8-1-6-3-2(5(6)9)4(3)7-6/h1-4,7H/t2-,3+,4-,6-/m0/s1
