27
gdb 121836	3.70889	0.62631	0.61728	1.3566	92.92	-0.2632	0.0718	0.335	2005.6763	0.2491	-390.703437	-390.6912	-390.690256	-390.740985	44.524	
C	 0.1825287336	 1.545315112	 0.0085360326	-0.381303
C	 0.0526030105	 0.0197696002	 0.0015325208	-0.157448
C	-1.403923258	-0.4608255089	 0.0129712568	-0.18258
C	-1.5203892741	-1.9903557401	 0.0058311332	-0.20354
C	-2.951777751	-2.5813322748	 0.0164123616	 0.254436
C	-3.716720766	-2.1684576745	 1.287831491	-0.409563
C	-3.7409818885	-2.1548775722	-1.2355455971	-0.409563
C	-2.795132089	-4.1132885079	 0.0066659208	-0.084038
O	-4.0792019898	-4.7230823508	 0.0158529453	-0.427899
H	 1.2313210746	 1.8586084468	 0.0001191715	 0.109408
H	-0.3041330318	 1.9879462784	-0.8678411359	 0.112818
H	-0.2870987103	 1.978384678	 0.8988730324	 0.112818
H	 0.5615702587	-0.3876582179	-0.8822561378	 0.092413
H	 0.5784709457	-0.3971466945	 0.8708834325	 0.092414
H	-1.9059383854	-0.0490884025	 0.8973836538	 0.095902
H	-1.9228444531	-0.0396091759	-0.857103568	 0.0959
H	-0.9925854351	-2.3744539494	-0.8790103614	 0.084941
H	-0.9756953061	-2.3839332171	 0.8761511415	 0.084945
H	-3.924102009	-1.0946399195	 1.3015335702	 0.107938
H	-4.6697532932	-2.6993107721	 1.3459086219	 0.130258
H	-3.1410442184	-2.4110041712	 2.1889762496	 0.099868
H	-3.1827389944	-2.387602003	-2.1501494055	 0.099862
H	-4.694981136	-2.6852226324	-1.2810172318	 0.130246
H	-3.9485292353	-1.0810059225	-1.2336823041	 0.107939
H	-2.2275085486	-4.4135848355	-0.889258292	 0.078641
H	-2.2102754637	-4.4231304157	 0.8881451197	 0.07864
H	-3.9592849864	-5.6764711771	 0.0088708485	 0.286547
57.6842	76.5432	107.1861	127.6203	138.5684	217.0739	231.8484	235.3095	245.6832	250.4491	288.1357	326.4903	327.5211	377.0919	410.3145	462.4315	579.1681	736.997	749.5826	792.4702	890.5875	902.2682	919.5424	936.2623	959.1107	992.851	1023.9663	1024.9119	1061.1533	1083.8761	1112.1872	1120.6356	1196.7606	1219.7368	1221.2722	1250.2267	1283.2282	1298.6052	1307.365	1331.583	1356.9061	1373.7376	1392.8755	1399.0015	1407.2368	1412.9984	1453.9368	1478.9134	1484.7598	1487.1524	1495.7066	1499.0351	1499.4625	1500.0871	1513.4413	1513.8525	1520.4619	2955.1697	2987.1688	2994.2237	3011.6572	3024.7193	3025.97	3028.5303	3029.2356	3034.7387	3037.6379	3069.1791	3094.6899	3096.0493	3099.216	3099.7692	3123.3787	3127.0874	3839.9997
CCCCC(C)(C)CO	CCCCC(C)(C)CO	
InChI=1S/C8H18O/c1-4-5-6-8(2,3)7-9/h9H,4-7H2,1-3H3	InChI=1S/C8H18O/c1-4-5-6-8(2,3)7-9/h9H,4-7H2,1-3H3
