14
gdb 29664	3.41576	1.35929	0.97843	1.5896	72.92	-0.2169	-0.0471	0.1699	1113.7721	0.101296	-432.900348	-432.891966	-432.891022	-432.934866	29.193	
C	 0.0815448051	 1.4305149626	 0.0334278105	-0.343447
N	 0.0232730776	-0.0170270491	 0.0264420285	-0.180953
C	 0.0253082682	-0.7759697212	-1.1255805671	 0.477964
N	 0.0234252216	-0.3455412674	-2.3130521599	-0.607178
O	 0.0286417348	-2.1089072955	-0.7118994289	-0.205244
C	 0.0552872725	-2.1372993396	 0.6504310557	-0.124148
C	 0.059471288	-0.8784740974	 1.1305558289	 0.198305
C	 0.0789377617	-0.435252381	 2.4697585922	 0.224611
N	 0.0950449758	-0.0535052114	 3.5634460583	-0.338673
H	 1.1134762858	 1.7922451545	 0.1032024506	 0.146543
H	-0.3527153397	 1.7829691484	-0.9027620124	 0.179051
H	-0.4916570728	 1.8186284394	 0.8780989272	 0.154728
H	 0.0089868353	-1.104560194	-2.9872993366	 0.235866
H	 0.0624939859	-3.0972943284	 1.1352242429	 0.182576
22.009	104.0194	140.2968	142.3724	257.0497	296.7576	441.9446	495.5022	530.0111	605.4665	621.4042	694.7609	707.6957	734.6214	755.9915	790.2794	956.9704	1002.4696	1113.5661	1156.5377	1187.9996	1200.7073	1274.6566	1365.6974	1419.7867	1465.9496	1493.9775	1512.3178	1657.234	1794.8985	2345.786	3038.9559	3112.9918	3158.7773	3305.2881	3558.9001
CN1C(=N)OC=C1C#N	CN1[C@H]([NH])OC=C1C#N	
InChI=1S/C5H5N3O/c1-8-4(2-6)3-9-5(8)7/h3,7H,1H3	InChI=1S/C5H6N3O/c1-8-4(2-6)3-9-5(8)7/h3,5,7H,1H3/t5-/m0/s1
