17
gdb 79365	2.88948	1.7844	1.61695	0.5862	65.57	-0.2272	0.0741	0.3013	888.9108	0.138432	-458.940174	-458.933436	-458.932492	-458.971134	27.436	
O	 0.0691628603	 1.3563957639	 0.1629396848	-0.447305
C	-0.0208743272	-0.0500356247	 0.0405090033	 0.162266
C	-1.4425986345	-0.5175977079	-0.2298251953	-0.207613
C	-1.4961172595	-0.6334667505	-1.7516784562	 0.028105
O	-0.2351280584	-0.2769560684	-2.2833788551	-0.2713
C	 0.687936625	-0.584604028	-1.2232489171	-0.031041
C	 0.8495419519	-2.1000970997	-1.1686973086	-0.065064
O	-0.3966006833	-2.7351450668	-0.8750093376	-0.27743
C	-1.5012965465	-1.8756755036	-0.9083622579	 0.090818
H	-0.2615002527	 1.7292408212	-0.6631492149	 0.28708
H	 0.4129756199	-0.4655060868	 0.9538198965	 0.099757
H	-2.2535335045	-0.1424155358	 0.3824164666	 0.098083
H	-2.3223220747	-0.3295057988	-2.3823117738	 0.107046
H	 1.632854106	-0.0797703339	-1.430030211	 0.095843
H	 1.2168819739	-2.4539218665	-2.1403127119	 0.1126
H	 1.571067055	-2.3932092189	-0.3949056053	 0.105561
H	-2.4202211309	-2.4451328548	-0.8263696665	 0.112594
132.2754	202.5549	311.2282	373.8299	392.2779	426.2595	571.796	610.1446	692.2174	742.7755	755.2901	799.5387	827.1798	880.3069	900.9575	939.9055	963.4751	1003.0706	1042.074	1060.6319	1083.603	1089.7287	1099.641	1113.6536	1121.0571	1213.0833	1221.0752	1258.0757	1270.8375	1275.7254	1315.6873	1330.9442	1357.7954	1394.0353	1431.2035	1439.6111	1508.1753	3012.0536	3050.8739	3086.8406	3112.6495	3175.9443	3185.7841	3196.2987	3792.4575
OC1C2C3OC1COC23	O[C@H]1[C@H]2[C@H]3O[C@@H]1CO[C@@H]23	
InChI=1S/C6H8O3/c7-4-2-1-8-5-3(4)6(5)9-2/h2-7H,1H2	InChI=1S/C6H8O3/c7-4-2-1-8-5-3(4)6(5)9-2/h2-7H,1H2/t2-,3-,4-,5+,6-/m1/s1
