15
gdb 12866	2.94489	2.45069	1.90016	1.2734	60.29	-0.2402	0.0129	0.2531	760.9294	0.118579	-399.789827	-399.782442	-399.781497	-399.821386	27.117	
C	-0.0897651123	 1.5473548376	-0.0037718756	-0.480819
C	-0.0050165724	 0.0532529048	 0.0578395178	 0.368976
O	-1.2456453215	-0.6037999868	-0.1930071534	-0.228017
C	-1.2383132157	-1.7225209673	 0.5655101168	 0.106569
N	-0.2532476955	-1.9358073866	 1.345581786	-0.276119
C	 0.6700578618	-0.852318702	 1.1017321325	-0.150671
C	 1.2045813404	-0.7644360891	-0.319157501	 0.036636
O	 1.07375579	-1.8223973588	-1.208677338	-0.420794
H	 0.8889060151	 1.9862126174	 0.2091441728	 0.12793
H	-0.3997765978	 1.8791961282	-1.000052462	 0.139557
H	-0.8064464853	 1.9326302544	 0.728099339	 0.13251
H	-2.109498964	-2.3558271568	 0.4524685944	 0.145623
H	 1.2713671769	-0.5170440785	 1.939084671	 0.100794
H	 2.1233403844	-0.1879210818	-0.4237975323	 0.099586
H	 1.2211370357	-2.6419222947	-0.7225135079	 0.298239
90.5835	182.1718	215.1296	229.0659	256.5909	317.617	496.166	573.856	628.4368	687.3614	737.6352	784.364	893.0074	914.2416	935.9121	953.0516	1013.088	1040.6751	1102.7231	1117.0581	1151.7491	1174.7762	1228.0427	1252.9344	1325.0071	1336.8486	1344.7601	1414.9109	1446.1148	1477.9461	1499.4192	1657.7762	3038.4238	3105.4839	3107.9266	3119.7734	3174.6814	3232.5149	3792.1977
CC12OC=NC1C2O	C[C@]12OC=N[C@H]1[C@H]2O	
InChI=1S/C5H7NO2/c1-5-3(4(5)7)6-2-8-5/h2-4,7H,1H3	InChI=1S/C5H7NO2/c1-5-3(4(5)7)6-2-8-5/h2-4,7H,1H3/t3-,4+,5-/m0/s1
