17
gdb 13196	5.7069	1.11174	1.08233	4.5614	66.09	-0.2444	0.0197	0.2641	1138.643	0.142237	-401.004964	-400.996343	-400.995399	-401.039789	29.27	
C	 0.07005706	 1.484763954	 0.2034107391	-0.335516
N	 0.1392083163	 0.0440312083	 0.053197297	-0.324736
C	 0.2095060746	-0.5664439086	-1.1642943578	 0.412092
O	 0.2199565183	 0.0450092859	-2.2200070215	-0.379278
C	 0.2753879178	-2.0816724803	-1.1276583012	-0.155691
C	-0.6892987317	-2.8219583579	-2.088192813	-0.068447
O	 0.396387558	-3.5215706379	-2.7241174449	-0.271275
C	 1.3677995722	-2.7306970305	-2.0145967463	-0.068435
H	 0.0871833025	 1.9147591841	-0.79857834	 0.174616
H	-0.8530977498	 1.7892828772	 0.7088726422	 0.127489
H	 0.9240257663	 1.8678253356	 0.7729941757	 0.127484
H	 0.1351276289	-0.5295351507	 0.8797889282	 0.24631
H	 0.2566651608	-2.4798870333	-0.1104621361	 0.068568
H	-1.4072220744	-3.5067541036	-1.6233030712	 0.100691
H	-1.2052854851	-2.1478328512	-2.7812342883	 0.122723
H	 1.8702652783	-2.0114038512	-2.6712105898	 0.122714
H	 2.108488597	-3.3507765197	-1.4975208223	 0.100691
23.8644	83.504	96.4371	135.4239	229.9795	260.9644	324.3157	390.0766	481.0373	640.9271	751.5795	789.3597	872.4111	883.4056	949.1606	1014.61	1030.2443	1047.2366	1086.4778	1128.9009	1153.8728	1170.7692	1170.8899	1188.5457	1223.3059	1242.6175	1313.5983	1370.0152	1391.9176	1438.2285	1492.7296	1498.64	1499.7942	1524.8384	1560.4931	1773.965	3021.0479	3028.632	3030.7217	3066.333	3077.5664	3081.2226	3087.9371	3155.5643	3651.5471
CNC(=O)C1COC1	CNC(=O)C1COC1	
InChI=1S/C5H9NO2/c1-6-5(7)4-2-8-3-4/h4H,2-3H2,1H3,(H,6,7)	InChI=1S/C5H9NO2/c1-6-5(7)4-2-8-3-4/h4H,2-3H2,1H3,(H,6,7)
