23
gdb 100832	3.21789	0.80183	0.67623	4.1713	84.02	-0.2736	0.0104	0.284	1710.0963	0.20243	-425.464928	-425.45364	-425.452696	-425.502593	39.699	
C	 0.034527279	 1.5792926212	 0.0515923272	-0.392447
C	-0.026201474	 0.0505948542	-0.0459524384	-0.181125
C	 0.7006264003	-0.5391033429	-1.2718150754	 0.035396
C	 2.190921486	-0.1680388186	-1.2907668678	-0.413381
C	 0.5239579916	-2.0681059173	-1.3399668703	 0.110762
C	-0.9205011948	-2.5576542364	-1.4044737419	-0.402833
O	 1.191355753	-2.525481527	-2.5411557677	-0.191015
C	 1.97351442	-3.6141456714	-2.4658034686	 0.167347
O	 2.5227222926	-4.0879074639	-3.4157544767	-0.280891
H	 1.0527244648	 1.943750388	 0.2125396305	 0.1234
H	-0.3477237982	 2.0486032423	-0.861852007	 0.117818
H	-0.5764246322	 1.9346305903	 0.8869791992	 0.115381
H	 0.3961948268	-0.3898296213	 0.8685309262	 0.094142
H	-1.0793995207	-0.2473600378	-0.0704642185	 0.100897
H	 0.2317970574	-0.1283093798	-2.1774195497	 0.085625
H	 2.696160055	-0.5288271754	-0.385861643	 0.107984
H	 2.6930732718	-0.6022406848	-2.1573301176	 0.138879
H	 2.3284275155	 0.9146782088	-1.3368478048	 0.12087
H	 1.0287627301	-2.5218650113	-0.4736740116	 0.083649
H	-1.4584297819	-2.3398406689	-0.4791498253	 0.128034
H	-1.4500758251	-2.0859907855	-2.2379118576	 0.133506
H	-0.9425430806	-3.6403736822	-1.5581736522	 0.124632
H	 2.0578111438	-4.0135150704	-1.4352056889	 0.07337
34.6265	50.1035	75.4183	139.3057	182.6119	205.8143	214.1282	245.9605	262.1814	310.6217	338.6353	378.8407	408.2522	489.4032	522.2371	656.2993	772.9046	826.3166	883.2502	933.0155	970.3648	990.5762	1002.3733	1040.1777	1048.0462	1073.4418	1121.9057	1155.1985	1179.6366	1184.6774	1219.0969	1283.5967	1313.0976	1345.2659	1367.5047	1376.4249	1390.028	1407.0536	1413.4315	1414.2277	1437.4256	1483.7097	1491.172	1494.8812	1496.5647	1500.2314	1508.2077	1517.3651	1860.5167	2934.5484	2991.0275	3005.298	3017.231	3033.6724	3036.6913	3045.9715	3068.0511	3101.4811	3107.9248	3115.7616	3116.8463	3130.5028	3135.3845
CCC(C)C(C)OC=O	CC[C@@H](C)[C@@H](C)OC=O	
InChI=1S/C7H14O2/c1-4-6(2)7(3)9-5-8/h5-7H,4H2,1-3H3	InChI=1S/C7H14O2/c1-4-6(2)7(3)9-5-8/h5-7H,4H2,1-3H3/t6-,7-/m1/s1
