17
gdb 82265	3.23765	1.38386	1.0787	1.0039	84.05	-0.2245	-0.027	0.1974	1112.3534	0.135696	-384.652854	-384.644758	-384.643814	-384.685275	31.738	
O	 0.0522959521	 1.4033212462	 0.0571337666	-0.427132
C	 0.0239554198	-0.0148796276	 0.002768895	-0.009772
C	-1.4098957162	-0.5270975333	-0.0550533708	-0.047562
C	-2.2595025295	-0.0659665521	-1.2068310149	-0.269292
C	-1.5388110973	-1.4028383028	-1.2873872539	-0.078198
C	-0.2115130491	-1.3540928789	-1.9542106511	-0.190542
C	 0.6526477387	-0.5727776111	-1.2855556368	 0.158556
C	 1.9620262406	-0.1922931437	-1.6528636379	 0.217549
C	 3.0823326589	 0.1923807831	-1.8836704724	-0.445095
H	 0.9664229732	 1.6769251996	-0.0838312787	 0.286583
H	 0.5447741605	-0.4318915298	 0.8797015649	 0.075484
H	-1.8969954007	-0.7970133785	 0.8732329864	 0.091156
H	-3.3344274422	-0.089675242	-1.0629611801	 0.113219
H	-1.8938655638	 0.7486412813	-1.8208074526	 0.130127
H	-2.1205018711	-2.3171641079	-1.291574938	 0.09215
H	 0.0035021202	-1.8519580203	-2.8927157116	 0.106477
H	 4.0691570858	 0.5074674979	-2.117215554	 0.196292
100.6384	130.3469	184.0565	268.5005	323.3888	371.1898	441.8633	479.4218	523.2315	575.4924	593.3919	648.2675	657.8243	696.6786	796.0768	821.4273	868.2474	888.7041	927.3248	947.3123	1002.5942	1040.8242	1059.7475	1079.3745	1103.3466	1112.7551	1175.2986	1200.9251	1244.6321	1278.6426	1331.6418	1347.3856	1377.0778	1420.0508	1477.4196	1665.3855	2210.7207	2967.0703	3136.072	3177.0332	3190.7562	3201.9013	3230.169	3500.8174	3788.7644
OC1C2CC2C=C1C#C	O[C@H]1[C@H]2C[C@H]2C=C1C#C	
InChI=1S/C8H8O/c1-2-5-3-6-4-7(6)8(5)9/h1,3,6-9H,4H2	InChI=1S/C8H8O/c1-2-5-3-6-4-7(6)8(5)9/h1,3,6-9H,4H2/t6-,7+,8-/m1/s1
