22
gdb 121152	3.23123	0.89981	0.77595	1.8865	83.1	-0.2423	0.0655	0.3078	1563.2256	0.19365	-404.305593	-404.296008	-404.295064	-404.340708	35.226	
C	 0.1362300387	 1.5287412203	-0.2091228222	-0.383513
C	 0.0757549125	 0.0094253755	-0.0348869829	-0.164364
C	 0.6554245993	-0.464259261	 1.3037939349	-0.187315
C	 0.6282545705	-1.9760171185	 1.447999587	 0.060745
O	 1.4582498594	-2.6463485411	 0.4629992446	-0.300831
C	 2.2027611992	-3.3619498044	 1.4757567035	-0.126277
C	 1.4323021862	-2.6384953206	 2.5714604363	 0.270438
C	 1.8642483211	-2.0854153809	 3.8694124411	-0.303285
N	 0.9532514141	-3.2499772075	 3.7992185928	-0.360531
H	 1.1690020405	 1.891586521	-0.1619671805	 0.115252
H	-0.2795459126	 1.8351989273	-1.1739649611	 0.113549
H	-0.4299581338	 2.043262026	 0.5757324518	 0.110432
H	-0.9650393069	-0.3306931055	-0.1186739835	 0.092897
H	 0.6261266118	-0.4830060927	-0.8441522385	 0.121659
H	 1.691524988	-0.1180752014	 1.4063808851	 0.097672
H	 0.0870830409	-0.0220154743	 2.1349131551	 0.087628
H	-0.4086645769	-2.3455699791	 1.3870797695	 0.07084
H	 2.0271052139	-4.4441509061	 1.436844453	 0.109885
H	 3.2792978295	-3.1623834478	 1.4123700069	 0.105159
H	 2.8561645054	-2.3070614646	 4.2549211177	 0.122058
H	 1.4642453078	-1.1224316721	 4.1773767574	 0.116124
H	-0.0043059986	-2.9615481226	 3.989936932	 0.231777
66.6388	90.7328	108.0199	112.4889	241.6842	244.6069	273.525	324.1163	336.2687	454.7531	522.7983	573.4334	746.7451	812.366	834.337	872.6851	895.2833	918.5609	941.7806	948.0705	971.9593	1011.7262	1047.8333	1049.6203	1069.3663	1092.6269	1122.1386	1128.2373	1149.0645	1167.1729	1252.7074	1255.8826	1270.9299	1282.2623	1305.8107	1324.5347	1336.4259	1378.7132	1400.7064	1413.0619	1440.2439	1472.001	1493.5946	1499.3332	1509.5854	1518.5884	1520.6258	2965.5739	3005.5724	3016.113	3021.0518	3028.2996	3052.2121	3062.1282	3071.2886	3097.3245	3102.2897	3103.7939	3187.5971	3485.5035
CCCC1OCC11CN1	CCC[C@H]1OC[C@]21CN2	
InChI=1S/C7H13NO/c1-2-3-6-7(4-8-7)5-9-6/h6,8H,2-5H2,1H3	InChI=1S/C7H13NO/c1-2-3-6-7(4-8-7)5-9-6/h6,8H,2-5H2,1H3/t6-,7+/m1/s1
