20
gdb 83484	2.80061	1.48563	1.44524	2.4361	77.3	-0.2151	-0.0126	0.2025	1029.7011	0.173619	-403.169903	-403.162288	-403.161344	-403.201673	30.773	
C	-0.1321557371	 1.5290004332	 0.0287459088	-0.430639
C	 0.0697683921	 0.020590789	-0.0024396097	 0.040965
C	 1.014466575	-0.5590146814	-1.0959200924	-0.131102
C	 2.3992693288	-0.0602603264	-0.5962611858	-0.244533
C	 2.1836646812	-0.048869288	 0.954723542	-0.175787
N	 0.7971449637	-0.5396936135	 1.1770941884	-0.097232
C	 0.7915867788	-1.9815726115	 0.8436617972	-0.295016
C	 0.9686746601	-2.0317135246	-0.6944828969	 0.410466
O	 1.0520704626	-3.0104014947	-1.3876978146	-0.328669
H	 0.8059052042	 2.0876637226	-0.0164032785	 0.121491
H	-0.7446092703	 1.8416076322	-0.8224479671	 0.122205
H	-0.6521411526	 1.8142960015	 0.9479825871	 0.13246
H	-0.9162147567	-0.4563827152	-0.0449261846	 0.082908
H	 0.7952278754	-0.3737437947	-2.1462249629	 0.083277
H	 3.2106996624	-0.7217796864	-0.9090189575	 0.118943
H	 2.6201203215	 0.9349258413	-0.9909934249	 0.109851
H	 2.8891617264	-0.6874531455	 1.4905123908	 0.109479
H	 2.2787951417	 0.9583235598	 1.3661912211	 0.110677
H	 1.5767686622	-2.5333572445	 1.3665346995	 0.129052
H	-0.1703970892	-2.4295468933	 1.11846408	 0.131203
119.3135	183.9313	255.6325	260.662	275.4722	428.4745	455.7697	517.1418	575.8692	579.7891	706.9404	741.5886	778.4752	819.8839	830.1675	873.9692	889.2295	949.5625	964.2756	979.6012	1026.5982	1031.3822	1061.1221	1106.8432	1122.8237	1167.4561	1186.6314	1198.2511	1233.1092	1257.7468	1273.3354	1280.7495	1301.1033	1308.101	1343.8075	1404.1119	1419.7618	1459.7838	1488.9823	1493.9062	1506.9242	1521.074	1859.9074	3039.0858	3046.3748	3047.1595	3062.5907	3073.9424	3099.9397	3106.8005	3114.1506	3119.3108	3125.9047	3135.6125
CC1C2CCN1CC2=O	C[C@H]1[C@H]2CCN1CC2=O	
InChI=1S/C7H11NO/c1-5-6-2-3-8(5)4-7(6)9/h5-6H,2-4H2,1H3	InChI=1S/C7H11NO/c1-5-6-2-3-8(5)4-7(6)9/h5-6H,2-4H2,1H3/t5-,6+/m0/s1
