18
gdb 56039	3.71932	0.99939	0.92092	3.2646	68.18	-0.2485	0.0528	0.3013	1300.8034	0.148432	-476.2713	-476.26243	-476.261486	-476.306415	31.84	
N	-0.6128860615	 1.2187309791	-0.2829545651	-0.562739
C	-0.1410329386	-0.0577460221	-0.171810683	 0.49346
O	 1.0096761684	-0.3946317457	-0.3319447948	-0.402615
O	-1.1616650401	-0.9048397169	 0.1163773711	-0.277734
C	-0.7917842582	-2.2962732445	 0.216980501	 0.104611
C	-1.9849842206	-3.0362021422	 0.8251862327	-0.246288
C	-2.7874716214	-3.4112771382	-0.4237079889	-0.069523
O	-1.8027259193	-3.7614231659	-1.3857257689	-0.256924
C	-0.6517082898	-2.9446271125	-1.178607521	-0.079286
H	 0.0770607984	 1.9496434705	-0.2961209865	 0.269901
H	-1.5283152713	 1.4339882979	 0.0731443715	 0.264699
H	 0.1270666919	-2.3641339793	 0.7987541743	 0.108128
H	-1.6341538941	-3.9406788085	 1.3309226874	 0.113863
H	-2.5271939734	-2.416785762	 1.541861922	 0.111065
H	-3.4474126096	-4.2721338651	-0.2877203732	 0.108691
H	-3.3928894035	-2.5569376563	-0.7663861723	 0.094984
H	-0.5781165538	-2.1657259594	-1.9472106894	 0.111687
H	 0.2373666864	-3.5794534289	-1.246901977	 0.114019
34.5791	57.3675	103.4813	167.6003	237.6356	324.6924	341.7419	408.7907	484.2102	524.769	633.8285	654.7352	737.4779	786.2387	857.0734	871.8008	920.7782	935.7148	946.5311	1001.7221	1050.5366	1085.629	1109.2862	1118.006	1142.752	1198.8106	1233.4742	1250.282	1287.6713	1325.5062	1344.3967	1366.165	1397.9803	1417.7729	1473.1963	1502.9476	1521.9403	1610.7303	1828.1738	2978.7551	3030.9597	3064.5859	3078.1532	3092.6977	3121.0462	3128.2528	3616.5098	3747.023
NC(=O)OC1CCOC1	NC(=O)O[C@H]1CCOC1	
InChI=1S/C5H9NO3/c6-5(7)9-4-1-2-8-3-4/h4H,1-3H2,(H2,6,7)	InChI=1S/C5H9NO3/c6-5(7)9-4-1-2-8-3-4/h4H,1-3H2,(H2,6,7)/t4-/m0/s1
