19
gdb 104366	1.98296	1.58635	1.49523	2.7223	70.59	-0.2686	0.005	0.2736	1065.0057	0.157923	-460.214292	-460.20503	-460.204086	-460.248351	33.625	
C	-0.0754035041	 1.5159622141	 0.276560015	-0.407456
C	-0.0165638288	 0.0044814579	 0.0466725465	-0.202954
C	 0.694502959	-0.4117624014	-1.2454428097	 0.195637
C	 0.6766381432	-1.9339745953	-1.4433158801	-0.431191
O	 0.096522949	 0.2613978399	-2.3620526082	-0.28156
C	 1.1273013923	 0.6347184452	-3.2354248496	 0.016601
O	 2.3246556009	 0.7411199995	-2.4663434075	-0.226805
C	 2.1406545069	 0.0958666096	-1.2846005856	 0.433161
O	 2.9954406566	-0.0315875877	-0.458801787	-0.349709
H	 0.9279818082	 1.9427982406	 0.3741593837	 0.134522
H	-0.5837787247	 2.0172436276	-0.5507187788	 0.129324
H	-0.6198983371	 1.7398512252	 1.1980894529	 0.117344
H	 0.5108578332	-0.4837895196	 0.8730640926	 0.123682
H	-1.0293510609	-0.4136437268	 0.0185184085	 0.10579
H	-0.3564254882	-2.2911435546	-1.4618657722	 0.130945
H	 1.156779751	-2.2193144567	-2.3843201967	 0.124336
H	 1.2103588964	-2.4258569353	-0.6259422029	 0.143899
H	 1.2917264825	-0.1115716735	-4.0275909821	 0.111301
H	 0.8984970347	 1.6095367614	-3.6750572186	 0.133133
83.8706	94.7043	175.6088	185.8579	215.5936	230.3629	246.1367	295.2582	362.3377	482.6807	531.0461	594.445	717.6077	743.8353	753.747	782.9094	888.1029	919.1656	1005.3033	1013.9087	1041.8138	1054.4833	1085.0884	1144.5036	1151.4803	1176.7445	1219.8257	1223.3027	1270.9369	1333.2149	1370.4169	1402.0224	1409.9686	1442.3882	1469.0444	1489.1246	1491.703	1500.4226	1508.806	1548.081	1889.47	2988.3344	3039.0722	3044.384	3044.9979	3083.1778	3088.7468	3111.9527	3116.0012	3127.0227	3131.1415
CCC1(C)OCOC1=O	CC[C@@]1(C)OCOC1=O	
InChI=1S/C6H10O3/c1-3-6(2)5(7)8-4-9-6/h3-4H2,1-2H3	InChI=1S/C6H10O3/c1-3-6(2)5(7)8-4-9-6/h3-4H2,1-2H3/t6-/m1/s1
