17
gdb 121606	3.43252	0.86418	0.72432	1.2394	67.35	-0.2445	-0.0452	0.1993	1524.1636	0.134929	-492.313288	-492.303362	-492.302418	-492.349435	34.83	
N	 0.0159312911	 1.2077546003	-0.065935696	-0.510266
C	 0.0729530141	-0.1525774928	-0.0358507982	 0.239185
N	 1.168557715	-0.8093246562	-0.0408228586	-0.509938
C	-1.3232094303	-0.7607227491	-0.0143938269	 0.430697
O	-2.3348613293	-0.1050045376	 0.043537524	-0.366871
O	-1.2907358883	-2.0984740593	-0.0547356659	-0.260666
C	-2.5717442736	-2.768958662	-0.0208593887	-0.081457
C	-2.2806190818	-4.2565689868	 0.0428002771	-0.073161
O	-1.6236706742	-4.6261718328	 1.2373519103	-0.414618
H	 0.8686842464	 1.7175100422	 0.0901998991	 0.265599
H	-0.8668393174	 1.6459895092	 0.1343907352	 0.273543
H	 0.9714327714	-1.8066006344	-0.0610467339	 0.224123
H	-3.1227212311	-2.4325631143	 0.8614016714	 0.138646
H	-3.1410804134	-2.5005019886	-0.9165220923	 0.126743
H	-3.2314264074	-4.7990200873	 0.0244606984	 0.122779
H	-1.70826096	-4.5553488439	-0.8490626104	 0.103336
H	-0.7949907011	-4.1365314567	 1.2707658053	 0.292329
33.3131	78.3856	82.1183	138.5026	183.2202	286.8751	304.918	320.484	364.6655	404.2086	469.4739	485.0227	542.4187	545.8624	634.4962	807.2992	847.823	869.2555	885.3723	930.354	1030.0241	1095.4294	1119.3224	1124.4471	1154.0668	1232.5169	1258.6124	1268.7435	1388.7311	1396.6467	1429.4469	1439.5237	1493.187	1496.307	1599.2283	1729.7571	1805.9499	2991.8812	3056.647	3085.3208	3115.7401	3531.798	3610.7738	3742.9709	3815.8022
NC(=N)C(=O)OCCO	NC(=N)C(=O)OCCO	
InChI=1S/C4H8N2O3/c5-3(6)4(8)9-2-1-7/h7H,1-2H2,(H3,5,6)	InChI=1S/C4H8N2O3/c5-3(6)4(8)9-2-1-7/h7H,1-2H2,(H3,5,6)
