16
gdb 87026	2.17911	1.51333	1.0588	5.0902	70.77	-0.2718	-0.0483	0.2236	1160.9061	0.120365	-437.896818	-437.887181	-437.886237	-437.93178	33.502	
C	 0.1575483817	 1.2622515368	-0.2729212825	-0.432932
C	 0.4266515734	-0.1603239254	 0.132192865	 0.04047
O	 1.7480303391	-0.5064986763	 0.5283662175	-0.260721
C	 0.7359765695	-0.5618186948	 1.5388216884	 0.119616
C	 0.7998865993	 0.4659468171	 2.5602268423	 0.284246
N	 0.8647990241	 1.2934115456	 3.3634727977	-0.333019
C	 0.3192823359	-1.9412970447	 2.0387737294	 0.315396
C	 0.8385192457	-3.1266362179	 1.2597573568	-0.488614
O	-0.3802249896	-2.0288291122	 3.0163072993	-0.272063
H	 0.6414471295	 1.9674682092	 0.4050305682	 0.162055
H	 0.5339189259	 1.4322508132	-1.2865149869	 0.143783
H	-0.9198207694	 1.4541774926	-0.2741795891	 0.144303
H	-0.0621803022	-0.9239910773	-0.4744900726	 0.110538
H	 0.6098404505	-3.0473573856	 0.1928720327	 0.148019
H	 1.930099105	-3.1645132154	 1.3397762612	 0.166723
H	 0.4012132216	-4.0373271049	 1.6690503827	 0.152198
56.4697	99.0944	143.6465	157.0956	164.3247	185.4215	246.4538	320.0342	410.153	433.1066	479.4399	559.0243	595.1066	629.4543	634.8642	808.4945	882.4429	925.9	984.2049	1007.8335	1045.5711	1097.0668	1140.5722	1185.2501	1271.9989	1315.9049	1389.3872	1409.7191	1435.2462	1453.0367	1468.0865	1481.9827	1495.1035	1820.1287	2365.1372	3048.0057	3049.8106	3102.6901	3111.8791	3114.8492	3147.5711	3162.4304
CC1OC1(C#N)C(C)=O	C[C@H]1O[C@]1(C#N)C(=O)C	
InChI=1S/C6H7NO2/c1-4(8)6(3-7)5(2)9-6/h5H,1-2H3	InChI=1S/C6H7NO2/c1-4(8)6(3-7)5(2)9-6/h5H,1-2H3/t5-,6-/m1/s1
