17
gdb 82220	2.46161	1.87551	1.37842	0.8094	65.95	-0.2485	0.0632	0.3116	952.7524	0.135853	-458.92345	-458.915793	-458.914849	-458.955184	30.71	
O	 0.0930326124	 1.4254270594	 0.0175648421	-0.438692
C	 0.0289280205	 0.0111614525	-0.0232308506	 0.022828
C	 0.7604818351	-0.6672845948	 1.132037203	-0.00682
O	 0.189225629	-0.3462424134	 2.4126847399	-0.267006
C	-0.1541602783	-1.6034039125	 1.7986855199	 0.026148
C	-1.4888647	-1.6085390561	 1.0818543968	-0.11686
C	-2.2960789243	-0.3228592984	 1.1673935246	-0.352914
C	-1.3976444181	-0.5797505773	-0.0125431648	 0.372766
O	-1.9772247586	-0.8443242095	-1.2532213133	-0.469564
H	-0.1414577792	 1.6859320085	 0.9163060652	 0.291287
H	 0.4890749809	-0.2855440846	-0.9719460641	 0.100554
H	 1.8429077728	-0.7631479379	 1.118700012	 0.105268
H	 0.1838825553	-2.4825488966	 2.3388376449	 0.103038
H	-2.000978201	-2.5508943459	 0.9323026347	 0.100289
H	-3.3571261767	-0.4179194088	 0.9640289699	 0.115211
H	-2.0233092551	 0.4016990791	 1.9243732705	 0.125485
H	-2.2798730948	-0.0050904235	-1.618880411	 0.288982
114.5309	211.4067	258.2595	297.7369	323.7528	367.0097	403.7011	459.3883	530.374	576.2856	667.4208	688.8725	722.7949	814.4824	838.8154	890.7469	913.8396	929.87	966.3644	993.7347	1023.5668	1059.1146	1072.4003	1085.482	1091.4435	1114.2339	1199.5674	1254.2093	1256.9124	1273.2197	1303.3254	1320.8885	1343.9472	1402.1957	1418.4141	1429.2056	1479.6317	3064.7937	3141.773	3149.3668	3164.5476	3195.7738	3237.265	3790.0778	3791.6732
OC1C2OC2C2CC12O	O[C@H]1[C@H]2O[C@H]2[C@H]2C[C@@]12O	
InChI=1S/C6H8O3/c7-5-4-3(9-4)2-1-6(2,5)8/h2-5,7-8H,1H2	InChI=1S/C6H8O3/c7-5-4-3(9-4)2-1-6(2,5)8/h2-5,7-8H,1H2/t2-,3+,4+,5+,6+/m1/s1
