23
gdb 64247	3.06952	1.19981	1.14442	1.4282	85.56	-0.2367	0.0831	0.3198	1236.6931	0.205038	-388.295675	-388.286332	-388.285388	-388.329688	36.524	
C	 0.0366548551	 1.5255122152	 0.0058931575	-0.412352
C	-0.0132581707	-0.0056132557	-0.050695761	 0.411252
C	-1.4540836387	-0.5117715602	 0.0300824173	-0.42577
C	 0.752137286	-0.5679965696	-1.2756797002	-0.357161
C	 2.1347315944	-0.8446643693	-0.7134088674	 0.36362
C	 3.2661426499	-1.4245001295	-1.5071467389	-0.343833
C	 3.3237522754	 0.017995672	-1.0538097739	-0.301657
C	 1.8432836214	-1.2543706725	 0.7170850542	-0.138171
O	 0.7007611661	-0.5046483326	 1.1071637214	-0.306704
H	 1.0664539877	 1.8813593993	-0.0885382414	 0.117519
H	-0.5608334711	 1.9706213455	-0.7969358035	 0.105204
H	-0.357076063	 1.8757972781	 0.9644706556	 0.119863
H	-2.0364247141	-0.1769678275	-0.8351908441	 0.108741
H	-1.474857199	-1.6052504422	 0.0582086455	 0.112597
H	-1.9405686632	-0.138368885	 0.9362104078	 0.119323
H	 0.2858380209	-1.5006378131	-1.6158913838	 0.096464
H	 0.7578207516	 0.1287359612	-2.1179371229	 0.100008
H	 3.9215899749	-2.1384352187	-1.0176799811	 0.112371
H	 3.1053325126	-1.6245897201	-2.5615936588	 0.112197
H	 3.1992931749	 0.7918461177	-1.8046348992	 0.110526
H	 4.016490989	 0.2756562725	-0.2589648571	 0.112745
H	 1.630490795	-2.3350977666	 0.7786291959	 0.084488
H	 2.6657657451	-1.0346127089	 1.4077933981	 0.098732
44.5282	109.5149	218.7872	234.8755	259.1713	279.0611	326.3694	354.3328	376.7539	406.1802	447.7204	509.5452	624.427	774.3453	781.5554	783.6516	856.7821	895.5491	914.9516	920.996	942.6409	961.4755	984.4896	988.5498	1023.7467	1055.5665	1061.2936	1080.627	1085.9836	1141.4742	1184.8027	1190.009	1215.6325	1238.3503	1278.0221	1303.269	1320.2076	1354.6654	1396.2977	1407.2486	1417.1624	1467.1837	1475.0402	1483.7607	1492.0875	1495.8599	1504.5602	1507.5118	1526.5837	2956.2183	3029.2716	3031.6758	3038.1007	3047.5421	3093.5217	3102.5834	3109.4732	3112.3048	3117.6146	3121.438	3125.5088	3198.8598	3213.874
CC1(C)CC2(CC2)CO1	CC1(C)CC2(CC2)CO1	
InChI=1S/C8H14O/c1-7(2)5-8(3-4-8)6-9-7/h3-6H2,1-2H3	InChI=1S/C8H14O/c1-7(2)5-8(3-4-8)6-9-7/h3-6H2,1-2H3
