15
gdb 127892	2.69312	1.63972	1.02562	2.8247	78.2	-0.2116	-0.0431	0.1685	1099.2886	0.113372	-446.264675	-446.256049	-446.255105	-446.298743	30.611	
C	 0.0503596777	 1.3717256286	-0.0228548167	-0.335607
N	-0.0272215911	-0.0771260192	-0.068952831	-0.330731
C	-1.1646439367	-0.6593871613	 0.0211869615	 0.355893
N	-2.3990337863	-0.0179409011	 0.1662001613	-0.304637
N	-3.4719364446	-0.7178157723	 0.2454710549	-0.064868
N	-3.3916456011	-2.028869785	 0.1887929776	-0.092393
N	-2.2922360808	-2.8165716643	 0.0516634109	-0.323973
C	-1.1811100364	-2.1336696874	-0.0318894595	 0.409016
N	 0.0043950542	-2.7426084732	-0.1705658219	-0.543901
H	 0.7046076052	 1.665670992	 0.8070243316	 0.123076
H	 0.531796008	 1.7305781281	-0.9407841628	 0.123086
H	-0.9175434232	 1.8680531012	 0.0912596718	 0.141863
H	-4.2716408978	-2.5145598961	 0.2571123343	 0.29396
H	 0.075747483	-3.743651578	-0.2154362537	 0.267906
H	 0.8081579799	-2.135534312	-0.2274202784	 0.281312
49.7146	69.9878	166.8262	204.9129	225.3918	299.0091	352.5491	441.4504	516.7691	544.0726	567.5959	609.4729	619.7254	659.4801	765.3114	813.7639	977.4928	982.9544	1072.6668	1122.3022	1127.0636	1171.5294	1216.6342	1283.3588	1378.357	1428.9654	1479.6107	1492.562	1495.3336	1521.2201	1588.5828	1664.7238	1697.2909	3016.0858	3064.8667	3106.4933	3580.3082	3653.9705	3736.0816
CN=C1N=NNN=C1N	C[N]c1nn[nH]nc1N	
InChI=1S/C3H6N6/c1-5-3-2(4)6-8-9-7-3/h1H3,(H2,4,6,9)(H,5,7,8)	InChI=1S/C3H11N6/c1-5-3-2(4)6-8-9-7-3/h2-3,6-9H,4H2,1H3
