18
gdb 54001	3.6869	0.91111	0.77492	1.9602	79.32	-0.2224	-0.0218	0.2006	1464.6533	0.147756	-435.298977	-435.289578	-435.288633	-435.333855	34.918	
N	-0.1296642807	 1.2324763013	 0.0335013409	-0.527758
C	-0.0014034841	-0.1058751626	 0.1209076162	 0.390341
O	 1.0554783855	-0.7138379873	 0.1996215512	-0.385075
C	-1.3305658604	-0.8502614386	 0.1144812782	 0.269261
N	-1.162078682	-2.1906636594	 0.3354014837	-0.555587
N	-2.4076563019	-0.1798065784	-0.0572762921	-0.308639
C	-3.6671931725	-0.839175778	-0.0356723199	 0.052121
C	-4.8938622131	 0.0284965258	 0.1208048022	-0.272637
C	-4.6038283016	-0.6111929472	-1.2083043324	-0.271558
H	 0.6907242242	 1.8106351671	-0.0152069444	 0.263513
H	-1.0588329563	 1.6116671802	-0.0622647595	 0.272254
H	-0.1940731524	-2.4807459736	 0.2895230106	 0.272994
H	-1.8491573502	-2.8347150202	-0.0174380019	 0.258528
H	-3.7168278819	-1.8188900125	 0.4398931393	 0.077886
H	-5.7157871525	-0.3538446177	 0.7154400723	 0.11291
H	-4.7137037154	 1.0928557344	 0.2161336887	 0.1182
H	-4.230391786	 0.0235941363	-2.0029576916	 0.120625
H	-5.2196175887	-1.4412606696	-1.5366334615	 0.11262
40.5002	89.4242	128.3953	148.6527	292.289	302.0564	346.6177	371.5561	412.2719	419.7929	511.7458	586.7297	593.7546	637.0083	674.0502	771.95	806.1514	816.5516	829.0386	865.3004	928.9577	978.9389	1054.1205	1070.8266	1101.4603	1125.0666	1128.3232	1191.0259	1199.7772	1229.1525	1303.684	1402.947	1415.5093	1458.1999	1493.9591	1580.3888	1601.8285	1733.1869	1793.5528	3090.8308	3137.7775	3141.9218	3223.2393	3237.6324	3560.9521	3587.1721	3702.7812	3740.131
NC(=O)C(N)=NC1CC1	NC(=O)C(=NC1CC1)N	
InChI=1S/C5H9N3O/c6-4(5(7)9)8-3-1-2-3/h3H,1-2H2,(H2,6,8)(H2,7,9)	InChI=1S/C5H9N3O/c6-4(5(7)9)8-3-1-2-3/h3H,1-2H2,(H2,6,8)(H2,7,9)
