16
gdb 130946	6.32329	0.68815	0.65581	2.4396	71.55	-0.2512	-0.0272	0.224	1620.9936	0.125288	-434.08113	-434.072685	-434.071741	-434.116886	28.813	
O	-0.256286614	-0.0111663769	-0.2023630978	-0.23296
C	-0.0176329677	 1.1514990074	-0.0037026978	 0.155781
C	 1.3368974014	 1.8013576351	-0.1695473574	-0.264749
C	 1.2751191634	 3.0175409705	-1.1220023191	-0.328167
C	 2.5723072353	 3.7611641761	-1.1905532878	 0.315043
N	 2.9761304776	 4.5718377106	-0.2062738934	-0.267657
N	 4.1542593906	 5.0069020585	-0.6317164794	-0.067808
N	 4.565166003	 4.5613722146	-1.8087381173	-0.190222
C	 3.5682018547	 3.7591479287	-2.1850715395	-0.1304
H	-0.8209879125	 1.8521235096	 0.328101918	 0.0725
H	 1.6632409519	 2.1545091599	 0.8180192589	 0.138672
H	 2.0514512626	 1.0519060434	-0.5198781154	 0.126208
H	 0.9993877507	 2.6819727016	-2.1269324664	 0.124031
H	 0.4867209625	 3.6999918523	-0.7845544535	 0.128436
H	 4.7037634352	 5.6557958841	-0.0916032354	 0.29487
H	 3.6040040555	 3.2332589546	-3.1260373667	 0.126421
20.0204	63.944	67.3312	121.5837	279.9218	328.557	360.9601	516.2216	535.1723	695.5845	725.0247	757.1464	782.1767	849.809	884.1467	990.4752	997.4809	1033.2532	1065.1579	1082.5104	1162.6834	1186.0882	1208.2814	1253.6971	1266.4679	1306.6748	1347.7176	1373.1298	1411.7913	1429.83	1463.3295	1479.5545	1497.4854	1563.4863	1837.8455	2847.6655	3028.5193	3042.8567	3084.2552	3111.8834	3268.2231	3667.0496
O=CCCC1=NNN=C1	O=CCCc1n[nH]nc1	
InChI=1S/C5H7N3O/c9-3-1-2-5-4-6-8-7-5/h3-4H,1-2H2,(H,6,7,8)	InChI=1S/C5H7N3O/c9-3-1-2-5-4-6-8-7-5/h3-4H,1-2H2,(H,6,7,8)
