20
gdb 33126	3.09928	0.99085	0.79828	1.7751	81.87	-0.1931	0.0327	0.2258	1471.9651	0.171408	-403.177725	-403.168304	-403.167359	-403.212379	34.896	
C	-0.0546730642	 1.5990026454	-0.0147263751	-0.377803
C	-0.0467968495	 0.0688308963	-0.0314890586	-0.157468
C	 0.7558416351	-0.5131538879	-1.2122273798	-0.327354
C	 0.7632915006	-2.0115392358	-1.2638896033	 0.219232
C	 1.7504484844	-2.8601759492	-0.8680295409	-0.103128
O	 1.4052712274	-4.1538303647	-1.0662531267	-0.15055
C	 0.1448534196	-4.145483494	-1.6004279076	-0.081057
C	-0.2962449436	-2.8650276653	-1.7496815758	 0.112074
N	-1.4808889683	-2.4080849869	-2.3505416706	-0.609864
H	 0.9632262974	 1.9977698535	 0.0599423336	 0.115877
H	-0.4996715699	 2.0042802991	-0.9304470109	 0.114468
H	-0.6267370937	 1.9864613193	 0.8340052836	 0.112181
H	 0.3746110602	-0.3157620083	 0.9049857346	 0.10329
H	-1.0796350379	-0.3034383451	-0.0660459437	 0.088068
H	 0.3453897266	-0.1196612611	-2.1520648372	 0.108866
H	 1.7872193449	-0.1454111811	-1.1517408642	 0.102133
H	 2.7292590621	-2.6917788224	-0.4478684754	 0.126678
H	-0.2796251378	-5.1083951959	-1.8297169177	 0.118088
H	-2.1658085795	-3.1432654266	-2.4712349989	 0.241682
H	-1.9072522442	-1.6439705094	-1.8412981851	 0.244587
69.6719	80.9159	112.8402	207.2576	235.1277	251.1538	280.6044	313.5576	401.2766	437.2886	607.2996	638.0825	664.2859	707.6194	736.8272	746.8966	768.4263	791.8821	866.6835	892.0916	902.9343	1041.936	1073.4374	1086.3213	1107.5084	1112.2803	1202.1393	1217.9425	1247.2035	1283.6194	1306.239	1321.7349	1337.7224	1382.5293	1413.3423	1438.1743	1479.3779	1490.9776	1500.3866	1509.4856	1587.4479	1645.6507	1678.4151	3011.9096	3018.0413	3029.735	3045.4426	3065.8977	3096.6309	3102.8782	3264.1091	3277.5697	3531.1076	3619.5633
CCCC1=COC=C1N	CCCc1cocc1N	
InChI=1S/C7H11NO/c1-2-3-6-4-9-5-7(6)8/h4-5H,2-3,8H2,1H3	InChI=1S/C7H11NO/c1-2-3-6-4-9-5-7(6)8/h4-5H,2-3,8H2,1H3
