15
gdb 77204	3.65876	1.04934	0.90454	0.6414	71.09	-0.2732	-0.0217	0.2515	1232.4722	0.113861	-412.976849	-412.968241	-412.967297	-413.010726	30.762	
N	 0.2428090758	 1.3727662408	-0.0292642939	-0.49926
C	 0.041696559	-0.0453867193	-0.0584447426	 0.002468
C	 0.0775091883	-0.6925946105	 1.3686302212	-0.122061
N	-1.3987519887	-0.8098950449	 1.3310902636	-0.305228
C	-1.4346226545	-0.6328814045	-0.1352406731	-0.170961
C	-2.4692168279	 0.2707119184	-0.6255203153	 0.300448
N	-3.2486760495	 1.0203689269	-1.0335892367	-0.314927
C	 0.8002991621	-1.9641156028	 1.4278647205	 0.272936
N	 1.3367982685	-2.9876476526	 1.470388748	-0.315692
H	 0.1853057512	 1.7704726815	-0.9608248107	 0.252695
H	-0.4572319089	 1.8380265271	 0.541473148	 0.254456
H	 0.7191797051	-0.4965276549	-0.7825778631	 0.126589
H	 0.4473456775	-0.0258152085	 2.153467595	 0.140531
H	-1.7964053136	-1.6709179574	 1.6895142799	 0.248996
H	-1.4642742944	-1.5656838894	-0.7126842007	 0.129011
50.4015	122.9377	150.6388	173.09	248.8974	277.8494	356.0158	395.1461	478.8724	524.5115	572.8339	617.1472	694.1576	791.7089	829.4528	879.8184	937.1586	974.3075	1003.6044	1048.4481	1085.9204	1121.9106	1170.2605	1214.1007	1248.2677	1273.9777	1325.915	1355.4204	1400.4514	1428.4187	1663.8459	2348.568	2355.7443	3026.1793	3067.8042	3125.6266	3504.0543	3549.0974	3586.4712
NC1C(NC1C#N)C#N	N[C@H]1[C@@H](N[C@H]1C#N)C#N	
InChI=1S/C5H6N4/c6-1-3-5(8)4(2-7)9-3/h3-5,9H,8H2	InChI=1S/C5H6N4/c6-1-3-5(8)4(2-7)9-3/h3-5,9H,8H2/t3-,4-/m0/s1
