15
gdb 25683	6.31441	0.75588	0.67793	4.0173	84.16	-0.1919	-0.014	0.1779	1605.8328	0.111906	-416.81275	-416.803723	-416.802779	-416.849189	31.433	
C	-0.081482059	 1.4581679835	-0.002912445	-0.508932
C	-0.007691582	 0.0067946952	 0.0152781065	 0.181979
C	 0.0638947975	-1.1977710179	 0.0321679003	-0.070383
C	 0.1146409302	-2.6026913612	 0.0461908943	 0.19155
C	 1.1477959181	-3.4482548496	 0.2286328158	-0.158395
O	 0.7140936109	-4.7519103217	 0.1582072851	-0.206271
C	-0.6545533313	-4.7472576762	-0.0793195387	 0.469963
N	-1.4142809803	-5.7510953811	-0.2074077943	-0.615261
N	-1.0102532228	-3.4203476308	-0.146006335	-0.415837
H	 0.554400618	 1.879505552	-0.7894800716	 0.157311
H	-1.1072240308	 1.7942491301	-0.1887410119	 0.157567
H	 0.2406627726	 1.8854964438	 0.9532181435	 0.157282
H	 2.1944162845	-3.2834332944	 0.4096486807	 0.155424
H	-0.8898029802	-6.6161666447	-0.1131546624	 0.2258
H	-1.9505942256	-3.1107841773	-0.3102618172	 0.278202
7.3927	79.2474	86.4949	143.2676	280.1612	296.4824	342.8943	430.4323	457.1512	463.3707	553.9525	629.4325	707.2519	718.5841	739.2235	749.3761	905.9214	939.5001	1049.5015	1050.3377	1059.4539	1064.8376	1108.8697	1232.9608	1289.6786	1356.6844	1410.1858	1415.23	1471.7685	1475.7532	1674.5159	1799.2968	2358.2217	3027.1959	3087.3376	3093.644	3307.0127	3547.7892	3710.6179
CC#CC1=COC(=N)N1	CC#CC1=CO[C@H]([NH])N1	
InChI=1S/C6H6N2O/c1-2-3-5-4-9-6(7)8-5/h4H,1H3,(H2,7,8)	InChI=1S/C6H7N2O/c1-2-3-5-4-9-6(7)8-5/h4,6-8H,1H3/t6-/m1/s1
