16
gdb 127265	4.6659	1.01635	0.8873	3.5374	72.64	-0.2462	-0.0032	0.2429	1290.832	0.12492	-434.04117	-434.033067	-434.032123	-434.07493	28.585	
C	-0.7541447474	 1.1694011547	 0.1382872521	-0.331367
N	-0.0608656429	-0.0941930966	-0.014086625	 0.075977
C	-0.4030524484	-1.1750696517	-0.7531076487	-0.193476
C	 0.6190259323	-2.0717657641	-0.5352089402	 0.306008
N	 1.5225552398	-1.495904663	 0.3063770021	-0.270518
N	 1.1088300032	-0.3020214232	 0.6233686231	-0.142495
C	 0.8043861469	-3.4294637423	-1.0805233615	-0.018434
C	-0.2219287322	-4.4791752572	-0.9433929115	-0.171225
O	-0.0425185855	-3.7859713712	-2.1776457929	-0.234067
H	-0.8565858765	 1.6712969512	-0.8275937901	 0.151034
H	-1.7457449974	 1.0153871145	 0.572301219	 0.149102
H	-0.1548863702	 1.7860822965	 0.8077219048	 0.172827
H	-1.2901258518	-1.21678932	-1.3612342463	 0.155913
H	 1.8432120436	-3.742577388	-1.1729501549	 0.113289
H	 0.0760864501	-5.5267320891	-0.9460235702	 0.122273
H	-1.1413260836	-4.2513014406	-0.40656846	 0.115162
60.9373	84.8052	129.977	148.721	240.6597	349.6434	423.2738	466.3102	627.3569	671.3146	731.6437	747.1787	806.0322	861.7218	904.9717	991.2316	1035.8825	1056.9317	1072.4573	1093.5855	1147.8365	1151.9876	1166.5758	1170.0716	1265.348	1287.7094	1289.6848	1336.3728	1441.1451	1450.1955	1485.4248	1486.9475	1512.5233	1522.8385	1597.8874	3052.183	3083.9349	3118.4684	3128.8828	3165.9542	3176.3327	3290.4298
CN1C=C(N=N1)C1CO1	Cn1cc(nn1)[C@H]1CO1	
InChI=1S/C5H7N3O/c1-8-2-4(6-7-8)5-3-9-5/h2,5H,3H2,1H3	InChI=1S/C5H7N3O/c1-8-2-4(6-7-8)5-3-9-5/h2,5H,3H2,1H3/t5-/m1/s1
