12
gdb 43264	3.1329	1.36308	1.0326	4.9466	66.68	-0.2607	-0.1207	0.1399	1066.9416	0.077335	-435.525121	-435.517649	-435.516705	-435.557874	26.592	
O	 0.0031972296	-0.0579071954	-0.1430071034	-0.279913
C	-0.0586635932	 1.1396214066	-0.0452942687	 0.297187
C	-1.2381460124	 2.0217889177	 0.0095505498	-0.174393
C	-0.8828938315	 3.3114316795	 0.0865756448	-0.05477
C	 0.6194576912	 3.5381312809	 0.0673531055	-0.325244
C	 1.1050561913	 4.3257076335	 1.1948153333	 0.290167
N	 1.4709009883	 4.9478546162	 2.0969699035	-0.302435
C	 1.1770638785	 2.0826804425	 0.0432990311	 0.315036
O	 2.3226611049	 1.7536586545	 0.0761239461	-0.246244
H	-2.2515148503	 1.6426283754	-0.0081910825	 0.149501
H	-1.5671504181	 4.1490891644	 0.1547823756	 0.156025
H	 0.9318321917	 4.0387648341	-0.8595938553	 0.175081
50.5609	133.6139	180.3339	288.0186	315.2575	403.4903	447.6283	497.6128	577.2657	652.211	698.0655	724.9511	751.7565	865.1441	947.5685	997.2283	1017.598	1049.2515	1122.0379	1188.3154	1207.7574	1286.4997	1366.7141	1640.0562	1829.6191	1880.4007	2362.1148	3025.4895	3205.8117	3233.6681
O=C1C=CC(C#N)C1=O	O=C1C=C[C@@H](C#N)C1=O	
InChI=1S/C6H3NO2/c7-3-4-1-2-5(8)6(4)9/h1-2,4H	InChI=1S/C6H3NO2/c7-3-4-1-2-5(8)6(4)9/h1-2,4H/t4-/m0/s1
