23
gdb 104666	1.87191	1.38399	1.09608	1.0753	82.22	-0.2375	0.0689	0.3064	1297.6309	0.202417	-425.401801	-425.390692	-425.389748	-425.437568	40.418	
C	 1.1826146717	-0.3056703964	 1.2122948202	-0.383328
C	 0.1375427083	 0.0016096289	 0.1333404244	-0.247281
C	 0.6350169811	-0.3015528205	-1.2671492274	 0.389193
O	 1.7982566237	 0.3908260882	-1.6546001216	-0.284867
C	 1.6244021802	 1.7826008682	-1.8433185946	-0.252015
C	 0.5909640504	-1.6952478856	-1.8544085507	-0.106042
C	 0.04544066	-2.8998125294	-1.1194613691	-0.431897
C	-0.3317635244	-0.6051329544	-2.384857413	-0.003649
O	-1.6950300436	-0.6241803483	-2.0665037171	-0.420981
H	 1.4157896706	-1.3746532506	 1.2460431756	 0.116659
H	 2.1163949709	 0.2275660269	 1.0129845441	 0.126647
H	 0.8227009239	-0.0085590957	 2.2021104758	 0.106231
H	-0.7840631184	-0.5560945444	 0.312964989	 0.115725
H	-0.1493562995	 1.0593510579	 0.1876680902	 0.09673
H	 2.5511611233	 2.158893385	-2.2837243639	 0.12342
H	 0.7901767739	 1.9997526607	-2.52524997	 0.109278
H	 1.4468189605	 2.3148492448	-0.8987757922	 0.110264
H	 1.44041067	-1.9010933732	-2.5000987765	 0.092807
H	-0.8761498062	-2.6668382861	-0.5811417675	 0.127058
H	-0.181005278	-3.708058931	-1.82459459	 0.112361
H	 0.7700825668	-3.2909255991	-0.3981554161	 0.12502
H	-0.0921793788	-0.1855159696	-3.3618993506	 0.08867
H	-2.1093623063	-1.3330240463	-2.5701072592	 0.289997
77.0647	113.8099	131.9966	172.7853	178.3577	191.1132	202.4777	226.3706	277.517	298.7052	307.5453	366.9664	417.4237	510.0164	564.8954	596.5393	689.9942	781.2643	811.6361	893.5976	931.303	989.6254	1014.6056	1030.8338	1059.1031	1096.1537	1105.4285	1130.6294	1153.5698	1171.7331	1181.6854	1210.5544	1234.9579	1264.936	1297.532	1310.9171	1372.6216	1377.7646	1408.9997	1414.294	1455.9183	1475.5691	1480.9774	1494.4352	1496.0541	1502.6479	1505.9278	1509.7001	1516.1124	2993.3857	3033.0632	3034.5724	3040.6151	3046.7493	3088.4789	3098.6695	3099.857	3107.7372	3112.2667	3119.5007	3122.8444	3149.8198	3798.3816
CCC1(OC)C(C)C1O	CC[C@@]1(OC)[C@@H](C)[C@H]1O	
InChI=1S/C7H14O2/c1-4-7(9-3)5(2)6(7)8/h5-6,8H,4H2,1-3H3	InChI=1S/C7H14O2/c1-4-7(9-3)5(2)6(7)8/h5-6,8H,4H2,1-3H3/t5-,6+,7+/m0/s1
