16
gdb 133108	2.72545	1.47799	1.0371	1.4917	73.43	-0.2538	-0.0451	0.2088	1127.0638	0.125086	-442.091684	-442.083792	-442.082848	-442.125187	28.794	
C	 0.0236085764	 1.5403384603	-0.0991241912	-0.383616
C	-0.0067037289	 0.0106993204	 0.0765801918	-0.279517
C	-1.4080325791	-0.5356820311	 0.050796744	 0.208017
N	-2.0201679463	-0.8180619692	 1.2066096444	-0.295661
C	-3.2683151527	-1.2840667757	 1.1456435515	 0.063386
N	-3.9916292271	-1.5105008901	 0.0494231501	-0.246167
C	-3.3901847823	-1.2310146688	-1.1097382796	-0.07741
C	-2.0988895169	-0.7375589383	-1.1436794696	 0.196927
F	-1.5129176011	-0.4558880473	-2.3120700897	-0.071961
H	 1.0527580496	 1.9079465429	-0.0584478967	 0.123447
H	-0.4029707621	 1.8324700019	-1.0631545035	 0.130192
H	-0.547332303	 2.0335718622	 0.692858405	 0.132894
H	 0.5799429849	-0.4572460754	-0.721069862	 0.118548
H	 0.4378667719	-0.2670335802	 1.0353743539	 0.126442
H	-3.7465606379	-1.5061743027	 2.0959492298	 0.122654
H	-3.9403700652	-1.4011032387	-2.0318271583	 0.131825
30.8796	122.0574	210.7985	223.0418	296.8201	348.6409	440.9233	480.0409	543.364	600.4472	619.5301	747.107	788.451	814.789	877.9639	948.5024	983.2903	999.0628	1052.3447	1082.2228	1165.4008	1204.4504	1243.6489	1278.362	1300.202	1324.6132	1355.9217	1406.053	1440.8967	1476.2094	1486.7882	1500.5279	1508.3207	1599.2384	1623.1233	3043.26	3052.4013	3102.5154	3118.6475	3125.6096	3166.4015	3173.422
CCC1=NC=NC=C1F	CCc1ncncc1F	
InChI=1S/C6H7FN2/c1-2-6-5(7)3-8-4-9-6/h3-4H,2H2,1H3	InChI=1S/C6H7FN2/c1-2-6-5(7)3-8-4-9-6/h3-4H,2H2,1H3
