25
gdb 68476	2.50994	1.56921	1.204	0.1037	91.54	-0.2761	0.0788	0.3549	1175.5026	0.232397	-352.371566	-352.363287	-352.362343	-352.403461	35.067	
C	-0.0657496555	 1.573423814	 0.0342358058	-0.461274
C	 0.0406833156	 0.0513220742	 0.0270674642	 0.356169
C	 1.1519698787	-0.543925637	-0.8969069146	-0.264132
C	 1.5250762334	-1.5460365071	 0.2328764139	 0.011945
C	 0.7935750372	-0.600472041	 1.2296174949	-0.264161
C	 0.9087878168	-2.9455779414	 0.0891904761	-0.203613
C	-0.495087597	-3.0092403996	-0.5386162492	-0.187476
C	-1.5308017736	-2.0663508547	 0.0903879502	-0.204207
C	-1.3477691315	-0.5705753847	-0.2283949444	-0.234482
H	 0.9167001315	 2.0393284879	 0.166246871	 0.103957
H	-0.4872447378	 1.9463231927	-0.9074482948	 0.10912
H	-0.7142554105	 1.9227578516	 0.8465963037	 0.10911
H	 0.8455941845	-0.9491254003	-1.8657462219	 0.087995
H	 1.9508030921	 0.1838990082	-1.068064193	 0.086184
H	 2.5973580003	-1.654584995	 0.4208634906	 0.058759
H	 1.4887220375	 0.1088016608	 1.6894447487	 0.085739
H	 0.1978424489	-1.0573806008	 2.0254191173	 0.087298
H	 1.5810622277	-3.5683953557	-0.5148352765	 0.089542
H	 0.8789765753	-3.4105332295	 1.0846210305	 0.090873
H	-0.4296326954	-2.8037642083	-1.6148886729	 0.094343
H	-0.8559838496	-4.0415774178	-0.4570554509	 0.088054
H	-2.5313388358	-2.3571084092	-0.2520307402	 0.088719
H	-1.5372875795	-2.2151084875	 1.1778167474	 0.094542
H	-2.0907552226	-0.0121859105	 0.3565102946	 0.087058
H	-1.6047180406	-0.3960852992	-1.2831339207	 0.089937
192.1239	213.4597	239.8659	263.5317	320.5799	334.2124	385.5656	387.8055	399.5347	497.3668	531.3471	629.001	760.2673	782.7237	821.0611	834.2642	872.475	876.6864	893.4483	912.119	926.6777	990.6416	996.1964	1004.9114	1035.1156	1071.9173	1090.9784	1109.3046	1137.3698	1157.0142	1176.0477	1192.6572	1238.917	1246.4075	1267.434	1279.5489	1297.1721	1298.4303	1324.2674	1354.7135	1380.3537	1384.4155	1396.8809	1399.2226	1412.4088	1470.4765	1479.0779	1483.442	1490.3441	1495.8461	1497.8762	1503.2323	1516.6818	2999.2877	3004.7718	3015.8647	3018.6183	3020.2419	3036.6726	3040.1629	3042.3242	3044.9656	3054.9281	3059.0482	3062.791	3079.1762	3087.8185	3093.7089	3096.6097
CC12CC(C1)CCCC2	C[C@@]12C[C@@H](C1)CCCC2	
InChI=1S/C9H16/c1-9-5-3-2-4-8(6-9)7-9/h8H,2-7H2,1H3	InChI=1S/C9H16/c1-9-5-3-2-4-8(6-9)7-9/h8H,2-7H2,1H3/t8-,9+
