20
gdb 59418	2.6211	1.04858	0.94499	1.2128	77.29	-0.2561	-0.035	0.2212	1352.4601	0.167836	-440.275788	-440.265343	-440.264399	-440.311616	37.243	
C	-0.1062377586	 1.466898183	-0.2560796176	-0.412306
C	 0.0286507348	-0.0086145005	 0.121211341	 0.129613
O	 0.6766333449	-0.1828140941	 1.3782437217	-0.430886
C	-1.3233417162	-0.6958950019	 0.1130422104	-0.051852
N	-1.8110053255	-1.2433141885	-1.1453054557	-0.364372
C	-1.4811808574	-2.185941187	-0.0587032099	 0.21079
C	-0.3153735949	-3.131121963	-0.2432810602	-0.475599
C	-2.6591174961	-2.7367774823	 0.6786471522	 0.101454
O	-3.7700619686	-2.2618621694	 0.6180374963	-0.276357
H	 0.8733169802	 1.9520131124	-0.2416947119	 0.12647
H	-0.5392610019	 1.5714081704	-1.2553213711	 0.135892
H	-0.7607966717	 1.9914210855	 0.4517705791	 0.10681
H	 0.6795638586	-0.5009231123	-0.6061660486	 0.098868
H	 0.1915634122	 0.3297528477	 2.0345176288	 0.278414
H	-2.0652964943	-0.2318606495	 0.7655952082	 0.092499
H	-2.8277223864	-1.1560397783	-1.1772604401	 0.246199
H	 0.472041956	-2.6718200586	-0.8408679744	 0.141006
H	 0.1107561766	-3.4153128242	 0.7241647329	 0.133543
H	-0.6335750834	-4.0423988592	-0.7611297052	 0.124364
H	-2.4511843582	-3.6332973202	 1.3014607144	 0.08545
48.9956	94.2323	110.4954	139.3299	191.0675	247.6794	250.7621	262.1004	301.4524	348.8089	388.7679	406.6457	498.1459	507.9807	654.2048	761.9593	801.3008	875.1954	920.7879	951.568	1000.8149	1034.8191	1051.6885	1062.982	1098.1196	1120.1322	1140.9413	1146.8549	1234.4906	1270.0815	1305.994	1336.166	1343.2409	1398.047	1409.2479	1419.2837	1426.5265	1461.2658	1485.2612	1492.0737	1495.5965	1499.5071	1798.8509	2904.4721	3024.8177	3041.3434	3077.9376	3092.8933	3102.4584	3104.7567	3124.8507	3148.5301	3456.7913	3799.0914
CC(O)C1NC1(C)C=O	C[C@@H](O)[C@H]1N[C@]1(C)C=O	
InChI=1S/C6H11NO2/c1-4(9)5-6(2,3-8)7-5/h3-5,7,9H,1-2H3	InChI=1S/C6H11NO2/c1-4(9)5-6(2,3-8)7-5/h3-5,7,9H,1-2H3/t4-,5-,6-/m1/s1
