19
gdb 37988	2.97597	1.70701	1.28962	2.4642	74.57	-0.2415	0.0669	0.3085	1003.5979	0.161808	-422.955024	-422.948163	-422.947219	-422.986116	28.305	
C	-0.0453744133	 1.5517072023	-0.0141481004	-0.212008
C	 1.3454169838	 2.1760145093	 0.0122319866	-0.068032
O	 1.9629420861	 2.1106044293	 1.2867648682	-0.258446
C	 2.2392954043	 0.8696651963	 1.8462354892	 0.142676
C	 2.4285639435	-0.4783787724	 1.0789267934	-0.042975
O	 2.3272702643	-1.1283922092	 2.4039950335	-0.296774
C	 1.1919979928	-0.1800730895	 2.368314837	-0.02947
C	 0.8885477145	-0.6861304989	 0.9296920095	 0.037739
C	-0.0079889439	 0.0220686374	-0.0804955376	-0.257229
H	-0.5836431442	 1.8882077942	 0.8805753715	 0.10977
H	-0.5979711428	 1.9373802432	-0.8790103934	 0.098571
H	 1.9902826668	 1.7035801444	-0.7473317768	 0.090545
H	 1.2946700921	 3.2443633771	-0.2168405167	 0.109726
H	 3.0242698857	 1.0279516002	 2.5873360119	 0.102289
H	 3.2376492417	-0.8108987819	 0.4262131242	 0.089846
H	 0.5464814271	-0.1439398644	 3.2471443853	 0.088871
H	 0.6668191651	-1.7573616506	 0.9457379588	 0.085418
H	-1.0258267623	-0.3682535738	 0.039181545	 0.1052
H	 0.3105401987	-0.2878618631	-1.0856021492	 0.104285
127.1217	223.7161	326.0174	348.2834	374.1472	418.789	520.0466	586.203	633.8465	727.9446	801.571	832.129	845.816	882.9246	888.3165	907.4954	951.7977	963.2986	1008.6897	1026.7574	1061.1344	1109.2649	1113.0942	1140.295	1147.3567	1198.4986	1202.0883	1209.5998	1241.1771	1251.347	1277.0269	1300.0079	1317.7737	1361.7841	1381.3631	1390.9938	1419.6998	1428.7776	1476.0634	1486.145	1502.9694	2971.1903	3012.548	3027.7194	3051.4393	3070.9089	3072.7396	3083.7449	3101.1942	3106.119	3116.6277
C1COC2C3OC2C3C1	C1CO[C@@H]2[C@H]3O[C@@H]2[C@H]3C1	
InChI=1S/C7H10O2/c1-2-4-5-7(8-3-1)6(4)9-5/h4-7H,1-3H2	InChI=1S/C7H10O2/c1-2-4-5-7(8-3-1)6(4)9-5/h4-7H,1-3H2/t4-,5-,6+,7+
