18
gdb 71287	2.65689	2.01143	1.43233	2.439	74.78	-0.2241	0.0103	0.2344	934.5842	0.149101	-401.905353	-401.89823	-401.897286	-401.936302	29.672	
O	-0.0098571823	 1.3463558363	 0.0028064528	-0.501033
C	 0.0375655726	-0.0608214449	 0.0238749677	 0.365196
C	 0.2774277188	-0.7460216863	-1.3648297786	-0.209991
N	-1.0822364542	-1.3837298664	-1.3647900336	-0.15588
C	-1.2377088328	-2.1310254546	-0.0865490728	-0.015549
C	-0.1150972323	-2.8490654606	 0.6620702537	-0.307349
C	 0.7970137054	-1.9240082126	 1.4312216294	-0.068577
C	 0.8620507233	-0.6246159373	 1.1516685382	-0.130977
C	-1.3734560899	-0.6645959659	-0.0670067961	-0.08385
H	 0.8941771861	 1.6766838146	-0.0399514774	 0.277844
H	 0.3168622277	-0.0015824786	-2.1633807741	 0.113382
H	 1.1165767642	-1.4433154911	-1.4571539404	 0.094838
H	-2.1694367296	-2.6892672442	-0.1137421962	 0.102114
H	-0.5727510331	-3.5631476983	 1.3577002041	 0.114962
H	 0.4659539861	-3.4667872402	-0.0382752312	 0.124977
H	 1.3888463107	-2.3570609771	 2.2325221314	 0.095096
H	 1.5006047083	 0.0554533482	 1.7094327909	 0.085908
H	-2.287575509	-0.1111699011	 0.1180190124	 0.098889
174.1316	245.8273	278.3462	331.6769	374.5129	412.4972	483.4517	497.9719	579.7704	638.965	695.0659	726.0103	776.1464	809.1804	867.0764	905.7707	937.5066	955.0179	972.8278	980.1544	1017.3847	1024.5329	1062.1461	1070.2796	1124.062	1162.405	1196.3189	1216.2126	1228.4318	1235.9136	1279.2606	1312.5205	1345.9157	1382.4501	1403.3864	1417.5748	1465.1203	1489.7866	1709.0555	3004.7692	3043.4483	3044.3096	3113.3877	3147.4128	3153.6287	3175.2787	3178.1838	3802.7841
OC12CN3C(CC=C1)C23	O[C@@]12CN3[C@@H](CC=C1)[C@@H]23	
InChI=1S/C7H9NO/c9-7-3-1-2-5-6(7)8(5)4-7/h1,3,5-6,9H,2,4H2	InChI=1S/C7H9NO/c9-7-3-1-2-5-6(7)8(5)4-7/h1,3,5-6,9H,2,4H2/t5-,6-,7+,8?/m0/s1
