19
gdb 69415	4.54298	0.89231	0.81578	2.8556	80.23	-0.2642	0.0336	0.2977	1416.9412	0.159544	-382.052523	-382.043766	-382.042822	-382.086311	32.719	
C	 0.0063173538	 1.5584482808	 0.0190765455	-0.484436
C	-0.0549130355	 0.0621147342	 0.0645574235	 0.352195
C	-1.3372948037	-0.7933854341	 0.0629964707	-0.316548
C	-0.630203018	-1.8001539975	 1.0318193873	 0.011076
C	-0.5205736991	-3.2815644908	 0.6361890156	-0.36188
C	-1.8257051723	-3.9364995316	 0.5703768446	 0.26136
N	-2.8694158048	-4.430658759	 0.5237858157	-0.306453
C	 0.6452906045	-0.9458900782	 0.941648397	-0.121373
N	 1.0699946116	-0.7191566923	-0.4368648372	-0.352865
H	 1.0290900318	 1.9027640833	 0.1915383842	 0.135324
H	-0.3136715268	 1.9313361846	-0.9611334275	 0.125283
H	-0.6484222767	 2.0035937946	 0.7755523484	 0.119479
H	-2.2011599869	-0.3105435266	 0.5246552782	 0.118643
H	-1.6396334157	-1.1787285221	-0.91713828	 0.105143
H	-1.0713039545	-1.732798048	 2.0298151857	 0.101486
H	-0.034425288	-3.3887401617	-0.3409451477	 0.142805
H	 0.1054903949	-3.8187448993	 1.3584848561	 0.154908
H	 1.3802718506	-0.8115619996	 1.7282456649	 0.095407
H	 0.7994159047	-1.4605751668	-1.081022785	 0.220446
61.9153	102.7141	156.5041	199.4617	235.0412	319.4467	366.587	394.2891	414.6816	516.1019	532.1941	642.6581	742.7841	794.7244	837.3881	878.5855	927.0699	936.1122	956.9502	985.3934	1009.4846	1057.6803	1067.1851	1102.8119	1130.7988	1140.4303	1191.644	1220.6723	1235.1725	1248.0558	1273.7148	1290.9104	1328.9268	1374.7054	1403.8747	1452.086	1462.2297	1484.3561	1488.7597	1495.8684	2360.5509	3030.497	3035.7456	3044.993	3066.7696	3081.353	3090.4586	3112.7647	3122.8915	3168.6777	3457.1014
CC12CC(CC#N)C1N2	C[C@]12C[C@@H](CC#N)[C@H]1N2	
InChI=1S/C7H10N2/c1-7-4-5(2-3-8)6(7)9-7/h5-6,9H,2,4H2,1H3	InChI=1S/C7H10N2/c1-7-4-5(2-3-8)6(7)9-7/h5-6,9H,2,4H2,1H3/t5-,6-,7+/m1/s1
