16
gdb 77268	2.44897	1.17071	0.97314	5.3958	72.4	-0.2489	0.0103	0.2592	1236.1487	0.124758	-434.081453	-434.072441	-434.071497	-434.116225	32.029	
N	-0.0619059715	 1.5059514853	-0.2205282483	-0.512117
C	 0.0125752981	 0.0756056126	-0.1138048799	-0.08172
C	-1.2955442398	-0.6364779336	 0.0758969487	 0.054383
N	-2.47227116	 0.1429406502	 0.2081416014	-0.278036
C	-3.6555669719	-0.3925636644	 0.6203897905	 0.157318
O	-3.8231101571	-1.5554302924	 0.9177088637	-0.321805
C	-0.5725697351	-0.727908973	-1.2776576278	-0.23396
C	-1.0962802141	-0.0365446417	-2.4173465495	 0.303428
N	-1.5155901677	 0.5168968903	-3.3428890157	-0.338758
H	 0.1775761809	 1.9450244833	 0.661871839	 0.247974
H	 0.5706498619	 1.8610041457	-0.9297042051	 0.255159
H	 0.8901944096	-0.3767858138	 0.3486856929	 0.103595
H	-1.3357257059	-1.5516318442	 0.6525235115	 0.148279
H	-2.3989969603	 1.1219983918	-0.029455172	 0.268116
H	-4.4547055186	 0.3714077415	 0.6656963365	 0.085318
H	-0.0911036585	-1.6725880176	-1.505713346	 0.142826
33.0345	109.923	139.8372	166.299	239.898	242.8348	287.7566	370.7802	405.2244	566.6132	604.4503	636.2756	661.1969	726.2473	758.728	826.9381	853.0989	925.8439	998.1164	1018.3886	1032.0374	1103.1903	1116.9549	1146.5366	1211.5449	1252.203	1274.651	1348.0532	1362.4632	1421.9102	1429.5304	1533.0667	1657.5144	1803.5719	2353.7653	2956.9762	3091.9305	3174.4359	3210.6432	3511.2756	3590.8037	3607.7075
NC1C(NC=O)C1C#N	N[C@H]1[C@@H](NC=O)[C@H]1C#N	
InChI=1S/C5H7N3O/c6-1-3-4(7)5(3)8-2-9/h2-5H,7H2,(H,8,9)	InChI=1S/C5H7N3O/c6-1-3-4(7)5(3)8-2-9/h2-5H,7H2,(H,8,9)/t3-,4+,5-/m0/s1
