19
gdb 77969	3.12441	1.23562	1.01842	0.9957	76.86	-0.2493	-0.0285	0.2208	1193.868	0.157899	-422.970526	-422.961577	-422.960632	-423.004332	33.158	
C	-0.3151441801	 1.5268952846	 0.1737889465	-0.480612
C	-0.0007254722	 0.0323705659	 0.0913962463	 0.049834
C	 1.1238711999	-0.5213733485	-0.8412376451	-0.138973
C	 2.1950620371	-0.1196237962	 0.2410229952	 0.184093
O	 2.631646772	 1.1970277261	 0.4328770977	-0.451751
C	 1.0061641488	-0.7230374158	 1.043148066	-0.146449
C	 1.0362645131	-1.8626230576	-0.0163288882	-0.063224
C	-0.1209207695	-2.796350451	-0.2166019432	 0.118033
O	-1.1403147933	-2.8197406554	 0.4287504271	-0.246667
H	 0.5148117665	 2.1734534014	-0.115082768	 0.130231
H	-1.1426698073	 1.7605530779	-0.5043093998	 0.125125
H	-0.6471547677	 1.8053481995	 1.181168598	 0.121275
H	-0.9436905476	-0.507660236	 0.0093179515	 0.103982
H	 1.2023138487	-0.4353394107	-1.9261440808	 0.080177
H	 3.0984966502	-0.7376334432	 0.2058311192	 0.080261
H	 2.0022758419	 1.6683717121	 0.9827597323	 0.292289
H	 0.9292652951	-0.8545808153	 2.1239278893	 0.079938
H	 1.9611929583	-2.4523631719	-0.0567427717	 0.085276
H	 0.0430501863	-3.5295057357	-1.0410430624	 0.077162
85.1707	98.8675	161.0128	170.9605	225.3399	246.6967	342.6847	365.7218	408.3474	434.2154	616.3022	699.1728	758.6554	783.0446	799.6367	821.8585	884.016	930.7667	1009.1452	1016.0645	1027.0172	1056.7363	1066.4091	1101.2343	1107.3947	1129.0934	1147.5512	1185.718	1213.2999	1217.6773	1234.7332	1286.341	1309.971	1388.0658	1410.1766	1428.0457	1441.2046	1478.9043	1499.9415	1530.1326	1816.2003	2856.0577	3027.8252	3033.8157	3051.2821	3087.1828	3100.2571	3103.7155	3112.8885	3135.7423	3867.2349
CC1C2C(O)C1C2C=O	C[C@H]1[C@H]2[C@@H](O)[C@@H]1[C@H]2C=O	
InChI=1S/C7H10O2/c1-3-5-4(2-8)6(3)7(5)9/h2-7,9H,1H3	InChI=1S/C7H10O2/c1-3-5-4(2-8)6(3)7(5)9/h2-7,9H,1H3/t3-,4-,5+,6-,7+
