23
gdb 88981	3.52531	0.83461	0.81375	2.1832	87.88	-0.2166	0.0865	0.3031	1571.0788	0.204551	-384.403014	-384.392981	-384.392037	-384.438799	36.965	
C	 0.5049883369	 1.4449847767	-0.7668674121	-0.412787
C	-0.0070316497	 0.2031781886	-0.0685630732	 0.031428
C	 0.8878860604	-0.9548207992	 0.2178233973	-0.25227
N	 0.3379433495	-0.1550310539	 1.3095092637	-0.078996
C	 1.2620357012	 0.6753996943	 2.0780675726	-0.183702
C	 1.843824366	-0.1225803645	 3.2257364457	 0.037033
C	 2.2225675923	 0.5436742336	 4.5058048841	-0.263718
N	 1.1186611135	-0.4062555381	 4.4608930987	-0.071658
C	-0.2325230376	 0.1049045873	 4.6414679016	-0.307956
H	 1.5756985644	 1.602276834	-0.6181872271	 0.121371
H	 0.3326408926	 1.3579735405	-1.8449120952	 0.123403
H	-0.0224560716	 2.3411762745	-0.4212349429	 0.12244
H	-1.0491759526	-0.019385096	-0.2963826322	 0.089556
H	 0.5318899703	-1.9791246095	 0.1435083114	 0.114259
H	 1.9436565672	-0.8252944098	-0.0232710786	 0.102242
H	 2.1035431325	 1.0629237253	 1.4788184766	 0.085596
H	 0.7097950924	 1.5448655525	 2.4484405324	 0.100653
H	 2.4476233995	-0.9667689628	 2.891972781	 0.086289
H	 3.1062249844	 0.2359131629	 5.0595185232	 0.110559
H	 1.9780255631	 1.6027102107	 4.5993363395	 0.099358
H	-0.3688048084	 1.1556320869	 4.3398662653	 0.093808
H	-0.9277718289	-0.5077957537	 4.0614663068	 0.136429
H	-0.4948637373	 0.0278551095	 5.7016705414	 0.116663
36.4784	70.0693	118.0036	168.5862	194.5453	212.4117	296.6272	307.7557	354.1403	405.216	448.1918	476.0677	550.6846	751.7114	752.9831	800.5621	819.9319	898.4258	914.9179	952.2833	998.3354	1033.7581	1036.3562	1055.2915	1092.4602	1113.86	1118.9039	1130.6297	1145.6412	1151.8614	1166.1112	1187.4739	1193.2692	1205.4628	1277.0345	1335.6124	1340.6871	1353.5997	1403.0076	1420.6305	1430.7752	1446.8358	1479.0525	1488.2001	1493.4353	1498.825	1504.946	1512.1245	1518.9017	2954.3792	2971.8823	3035.4942	3065.0768	3070.7186	3077.1576	3079.8775	3092.3898	3099.3879	3101.8883	3115.8535	3126.3191	3164.8381	3169.4302
CC1CN1CC1CN1C	C[C@H]1CN1C[C@H]1CN1C	
InChI=1S/C7H14N2/c1-6-3-9(6)5-7-4-8(7)2/h6-7H,3-5H2,1-2H3	InChI=1S/C7H14N2/c1-6-3-9(6)5-7-4-8(7)2/h6-7H,3-5H2,1-2H3/t6-,7+,8?,9?/m0/s1
