13
gdb 130627	5.15224	1.30349	1.04707	3.1136	64.88	-0.226	-0.0204	0.2056	1026.9451	0.092436	-448.950406	-448.943808	-448.942863	-448.98154	25.152	
O	 0.0222864415	 0.0079674365	 0.0032206735	-0.348354
C	-0.0168406103	 1.2108052729	 0.0102934553	 0.419629
C	-1.3138254023	 2.0980582902	 0.0330215675	-0.493938
C	-0.7200297841	 3.4648448275	 0.0320000753	 0.312341
C	 0.6459608576	 3.3950779351	 0.0126790114	 0.401598
N	 1.078174112	 2.0694862598	-0.000252997	-0.431892
N	 1.204133217	 4.6173410836	 0.0113485475	-0.303018
N	 0.2122070107	 5.4879221626	 0.0298174572	-0.125109
N	-0.9514206351	 4.7943547785	 0.0422271034	-0.318128
H	-1.923512151	 1.8550732071	-0.8429242793	 0.16178
H	-1.8989215036	 1.8457482573	 0.9229919819	 0.161779
H	 2.029358694	 1.7414923928	-0.0155453479	 0.277819
H	-1.8167847963	 5.3097605159	 0.0569620013	 0.285491
103.0196	202.7569	302.134	354.5698	428.8801	543.3175	546.9964	559.599	571.9232	698.5987	731.697	740.5359	822.4904	860.9225	956.4194	1030.7523	1042.7354	1144.8606	1151.7125	1180.3585	1237.5848	1266.8818	1289.08	1376.238	1440.2638	1460.6203	1566.6767	1617.3081	1853.7567	3059.5098	3098.2129	3662.3563	3672.0585
O=C1CC2=C(N1)N=NN2	O=C1Cc2c(N1)nn[nH]2	
InChI=1S/C4H4N4O/c9-3-1-2-4(5-3)7-8-6-2/h1H2,(H2,5,6,7,8,9)	InChI=1S/C4H4N4O/c9-3-1-2-4(5-3)7-8-6-2/h1H2,(H2,5,6,7,8,9)
