19
gdb 37029	2.74118	1.79088	1.52594	1.5505	79.37	-0.2252	0.0111	0.2363	956.2705	0.161475	-385.856302	-385.849165	-385.84822	-385.887543	29.367	
C	-0.0014836349	 1.4740233997	-0.0750233845	-0.383538
C	 1.2972384355	 0.734869519	 0.0462826156	 0.427142
C	 2.2308926713	 0.730753366	 1.2224471189	-0.306035
C	 2.0713635812	-0.5950688296	 2.0156714611	-0.265745
C	 0.624497213	-1.0131462214	 2.1970878531	-0.04623
C	-0.3389578447	-0.7720555341	 1.2984180038	-0.178847
C	 0.0098062686	-0.0451840602	 0.0622445864	 0.151771
C	 0.5274005566	-0.6420963905	-1.2535542307	-0.134038
O	 1.7127102072	 0.2033961769	-1.2229011683	-0.332617
H	-0.3293421285	 2.010698657	 0.8090313623	 0.118055
H	-0.267336542	 1.9300131195	-1.0248790631	 0.111289
H	 3.2644355409	 0.8564613935	 0.8847454637	 0.116347
H	 2.000370772	 1.5754349622	 1.8793320512	 0.109286
H	 2.6094381709	-1.3926408879	 1.484586413	 0.124207
H	 2.5590265114	-0.5067807985	 2.9922115357	 0.102506
H	 0.3812934777	-1.5467924754	 3.1129933216	 0.091232
H	-1.362161099	-1.0918073426	 1.4823164616	 0.08581
H	 0.8019507408	-1.6994421842	-1.1705886562	 0.107943
H	-0.0719184679	-0.4831733794	-2.1582756452	 0.101462
113.5743	198.9556	275.1387	344.159	391.6298	456.8043	505.0013	539.2364	565.9154	689.7455	747.0633	754.9841	796.3273	855.2715	878.606	909.3618	924.5973	967.3329	976.8916	994.3731	1003.0376	1013.6504	1054.0418	1065.3443	1121.1609	1148.7074	1168.8699	1199.9115	1233.2173	1264.22	1273.2474	1326.9796	1333.6517	1378.4741	1397.3819	1432.7808	1466.5149	1480.8448	1485.9482	1518.0104	1678.5994	3014.4272	3019.668	3047.3525	3067.2135	3073.171	3094.5768	3115.5894	3139.2332	3163.4049	3214.9719
C1C23CCC=CC12CO3	C1[C@@]23CCC=C[C@@]12CO3	
InChI=1S/C8H10O/c1-2-4-8-5-7(8,3-1)6-9-8/h1,3H,2,4-6H2	InChI=1S/C8H10O/c1-2-4-8-5-7(8,3-1)6-9-8/h1,3H,2,4-6H2/t7-,8-/m0/s1
