22
gdb 60112	3.62618	0.96531	0.86544	1.2701	82.26	-0.2262	0.0618	0.2881	1430.9646	0.193449	-404.306155	-404.29668	-404.295736	-404.340719	35.988	
C	-0.1380742564	 1.625545821	 0.0168012593	-0.405543
C	-0.0361573779	 0.1056231889	-0.1034605884	 0.144772
O	 0.9791428595	-0.4146138156	 0.7557383897	-0.42919
C	-1.3830589309	-0.5939340736	 0.1384524852	-0.334575
C	-1.3094509869	-2.0834954957	-0.049690723	 0.394785
C	-1.5188881032	-2.7435037637	-1.3559192503	-0.281251
N	-2.5407950606	-2.9455008359	-0.307645043	-0.179711
C	-1.948988646	-3.9836208408	 0.6118165857	-0.156308
C	-0.7364775444	-3.0824132786	 0.956660705	-0.296077
H	 0.8434435044	 2.0832000737	-0.1335711641	 0.124368
H	-0.8323252706	 2.0377634655	-0.7224914203	 0.117767
H	-0.5022764898	 1.9142795787	 1.0111273605	 0.10673
H	 0.3119523668	-0.1512992143	-1.111543401	 0.092072
H	 0.7536863632	-0.1617751558	 1.6581471058	 0.275528
H	-1.7276538402	-0.3614195128	 1.157511473	 0.085666
H	-2.1366098432	-0.1845120609	-0.5449379199	 0.107522
H	-1.8751585535	-2.1314848538	-2.179664448	 0.112401
H	-0.8977033444	-3.586094747	-1.6560832545	 0.105755
H	-2.6223103473	-4.1665643524	 1.451602809	 0.107526
H	-1.7396430127	-4.9358498769	 0.1123326114	 0.101209
H	 0.2710268796	-3.454316467	 0.7554332708	 0.108809
H	-0.7695043855	-2.7128034927	 1.983984317	 0.097746
54.8508	86.1685	124.6253	235.4427	242.4596	282.096	301.6014	317.5453	382.9995	452.5474	477.6873	483.1814	703.6355	749.2422	772.8389	798.7339	856.522	886.8894	898.5691	934.4543	944.7125	977.0667	997.7188	1043.0848	1080.8856	1085.4792	1100.571	1119.8081	1154.5983	1169.9463	1192.2345	1217.6087	1244.0719	1283.8769	1300.5988	1319.2113	1342.525	1380.5287	1395.6865	1404.6045	1422.5127	1471.8152	1486.6753	1492.4874	1494.0285	1496.215	1518.5505	2995.9059	3023.3032	3038.8298	3042.3449	3061.7598	3065.7793	3093.0033	3094.2534	3100.526	3118.5781	3120.0284	3185.5004	3795.3482
CC(O)CC12CN1CC2	C[C@@H](O)C[C@]12CN1CC2	
InChI=1S/C7H13NO/c1-6(9)4-7-2-3-8(7)5-7/h6,9H,2-5H2,1H3	InChI=1S/C7H13NO/c1-6(9)4-7-2-3-8(7)5-7/h6,9H,2-5H2,1H3/t6-,7-,8?/m1/s1
