16
gdb 25719	2.66047	1.5956	1.00435	3.0935	77.32	-0.206	-0.0338	0.1722	1129.2368	0.124245	-437.946434	-437.937935	-437.936991	-437.979975	31.362	
C	-0.0726923445	 1.4997858999	-0.0052880855	-0.481701
C	 0.0283508665	-0.0128172415	 0.0306938543	 0.297379
O	 1.1167975322	-0.5915207929	 0.0266747552	-0.374754
C	-1.185064939	-0.779539281	 0.0604301977	 0.195968
C	-1.343960756	-2.1584219461	 0.0611912476	 0.214537
N	-0.3309514287	-3.0690448154	 0.137539088	-0.606112
C	-2.7554543012	-2.3951813556	 0.0290704274	-0.255057
C	-3.3383866441	-1.1637601366	 0.0189332415	-0.001278
O	-2.4307607184	-0.174651392	 0.0400347371	-0.190889
H	 0.932320038	 1.921964959	-0.0329319637	 0.135914
H	-0.6390193371	 1.8287306073	-0.8827796713	 0.139371
H	-0.607748712	 1.8710120371	 0.875063481	 0.140316
H	 0.5880588858	-2.6713783426	-0.0158065779	 0.277112
H	-0.4975349559	-3.9925726084	-0.2262956156	 0.251879
H	-3.2617075157	-3.3478231407	 0.0234433576	 0.114537
H	-4.37182598	-0.8544061906	 0.0010399967	 0.142779
55.5975	109.4462	167.9267	178.9249	308.0491	316.2847	384.2315	438.5743	497.8364	564.8492	609.3377	618.8197	641.828	715.6228	729.4125	782.4182	835.7891	888.3973	953.6463	1041.2118	1043.9831	1086.8719	1114.0669	1177.8885	1231.8373	1341.2224	1352.6402	1384.7295	1462.1656	1472.54	1513.1903	1520.8484	1587.4562	1659.1797	1707.8949	3042.7607	3104.4969	3154.6989	3251.0381	3273.5817	3531.3773	3684.6055
CC(=O)C1=C(N)C=CO1	CC(=O)c1c(N)cco1	
InChI=1S/C6H7NO2/c1-4(8)6-5(7)2-3-9-6/h2-3H,7H2,1H3	InChI=1S/C6H7NO2/c1-4(8)6-5(7)2-3-9-6/h2-3H,7H2,1H3
