21
gdb 38352	2.43066	1.87846	1.36814	1.0994	83.61	-0.23	0.0203	0.2503	1025.2402	0.185542	-387.064688	-387.057185	-387.05624	-387.096168	30.995	
C	 0.0049430805	 1.5543183685	-0.0005774566	-0.271248
C	 1.5488536358	 1.4392871048	 0.0374506806	 0.133998
C	 1.3606278977	 0.0492919407	 0.69711244	-0.220782
C	-0.0694447896	 0.0025942036	 0.0407838469	-0.050355
C	-0.0747269326	-0.7339916064	-1.2706208458	-0.036858
C	 0.1304548655	-0.2881999303	-2.5131256361	-0.045725
C	 0.3895033194	 1.1308838749	-2.970650431	-0.298809
C	 1.663231117	 1.8211285876	-2.3762635399	-0.066182
O	 2.1891906284	 1.2273421798	-1.2114346296	-0.253139
H	-0.3373286563	 1.9622433593	 0.9550572617	 0.099726
H	-0.4816718042	 2.1133073386	-0.7969416202	 0.100251
H	 2.0908981333	 2.2133649799	 0.5958773956	 0.062453
H	 2.0830334332	-0.711655209	 0.398710543	 0.108583
H	 1.3032551762	 0.111237329	 1.787540276	 0.092849
H	-0.8553727935	-0.4067159811	 0.6827741349	 0.067972
H	-0.2320455552	-1.8066554178	-1.1571162057	 0.079973
H	 0.1152517465	-1.0332171438	-3.3052614642	 0.083266
H	 0.4967887432	 1.1347918285	-4.0602212027	 0.097258
H	-0.4909542911	 1.7489208561	-2.768480608	 0.118597
H	 2.4772983385	 1.7476137481	-3.1036220218	 0.110217
H	 1.4607427573	 2.8919229592	-2.2244458769	 0.087958
160.3817	206.2772	211.9639	291.2087	315.0457	393.3445	435.4169	514.4282	602.0099	668.1576	734.8821	779.4539	793.6564	801.6259	852.5787	865.0551	882.4439	914.1165	955.1312	996.8259	1003.3941	1020.8609	1057.1228	1077.4627	1095.3466	1108.4635	1140.2907	1161.0749	1219.4521	1251.6375	1256.0745	1265.7801	1270.7925	1297.5548	1301.5144	1344.5399	1371.4466	1377.5814	1406.4434	1432.1804	1461.178	1485.3248	1498.0347	1517.5805	1717.2375	2989.0203	3011.7145	3044.9586	3048.6055	3060.7123	3062.2289	3074.1747	3085.1809	3117.6971	3133.5122	3150.7423	3152.7563
C1C2CC1C=CCCO2	C1[C@H]2C[C@@H]1C=CCCO2	
InChI=1S/C8H12O/c1-2-4-9-8-5-7(3-1)6-8/h1,3,7-8H,2,4-6H2/b3-1-	InChI=1S/C8H12O/c1-2-4-9-8-5-7(3-1)6-8/h1,3,7-8H,2,4-6H2/b3-1-/t7-,8+
