16
gdb 76483	3.47485	1.05444	1.00313	4.7888	66.68	-0.232	0.0307	0.2627	1201.0536	0.122544	-475.003583	-474.994874	-474.99393	-475.037071	32.443	
O	 0.0691542326	 1.3535570478	-0.0620291029	-0.426033
C	 0.0188770148	-0.0391533615	-0.0288598096	 0.014408
C	-0.4467031009	-0.7122631525	 1.2605032827	-0.051879
O	-0.8747195694	 0.1448522349	 2.2879414387	-0.423024
C	-1.3158171719	-0.7298277262	 0.0411755179	 0.337652
C	-2.6972021699	-0.0896417018	-0.1411347598	-0.467094
C	-3.0294756186	-1.3682843686	-0.9591845014	 0.431036
O	-3.9606628118	-1.7748089625	-1.5956518725	-0.350422
N	-1.7818726542	-1.8973902664	-0.6839863204	-0.400867
H	-0.3388061509	 1.6561260974	 0.7614505728	 0.288038
H	 0.8287382133	-0.4934828434	-0.5941407989	 0.106274
H	 0.0274990924	-1.6393368457	 1.5810617505	 0.09826
H	-0.1161665106	 0.3355488737	 2.8519891597	 0.299821
H	-3.2836670343	 0.0383784168	 0.7693989624	 0.145895
H	-2.7005509103	 0.8296260438	-0.7289281752	 0.146683
H	-1.2883131403	-2.675571756	-1.0961526841	 0.251251
67.2002	148.6552	150.1922	229.826	267.1424	285.2861	337.3248	401.6107	484.7559	495.612	509.6	561.822	631.1402	651.7443	773.4296	827.1787	878.6821	948.0491	983.9059	1019.6342	1066.2949	1095.9996	1111.6977	1149.7983	1152.7469	1186.9363	1230.9579	1249.9208	1270.4571	1328.5344	1375.0912	1408.4498	1460.0828	1502.8802	1903.8098	3093.1553	3107.9323	3144.1135	3153.8807	3609.8512	3743.3025	3792.0951
OC1C(O)C11CC(=O)N1	O[C@H]1[C@@H](O)[C@]21CC(=O)N2	
InChI=1S/C5H7NO3/c7-2-1-5(6-2)3(8)4(5)9/h3-4,8-9H,1H2,(H,6,7)	InChI=1S/C5H7NO3/c7-2-1-5(6-2)3(8)4(5)9/h3-4,8-9H,1H2,(H,6,7)/t3-,4+,5+
