18
gdb 30322	2.94225	1.71617	1.12123	1.2399	79.98	-0.1708	0.0367	0.2075	1073.0168	0.150069	-401.963519	-401.955896	-401.954952	-401.995488	29.458	
C	-0.0813147334	 1.5092996954	 0.0195788138	-0.337919
N	 0.0891060212	 0.0668049737	 0.0484168976	-0.176084
C	 0.6939842827	-0.5515589857	-1.1654962359	-0.160446
C	 1.3786382562	-1.8833931676	-0.7004418375	-0.362404
C	 1.5697218341	-1.5976444395	 0.7650563972	 0.174939
C	 0.8256773867	-0.5096584466	 1.071428714	 0.420824
O	 0.8147796911	-0.2162483493	 2.3785897076	-0.218848
C	 1.6101721396	-1.1979675041	 2.961863305	-0.034807
C	 2.0775355501	-2.0661508783	 2.0203672868	-0.344537
H	 0.8605333634	 2.0460556387	-0.1897487208	 0.105532
H	-0.8091570537	 1.7761916464	-0.7518811056	 0.124813
H	-0.4669288325	 1.8474287622	 0.984249271	 0.142121
H	-0.0692592587	-0.7062704172	-1.9324373874	 0.110794
H	 1.4564318328	 0.1310238604	-1.573159457	 0.097926
H	 0.714836816	-2.7418042514	-0.8690648763	 0.112386
H	 2.294854706	-2.069869303	-1.2690950416	 0.109757
H	 1.7483347707	-1.0981220598	 4.0242987678	 0.12798
H	 2.7158019376	-2.9142836444	 2.2168535115	 0.107975
129.4497	159.0943	212.0498	229.8608	265.1538	360.987	479.8693	584.4276	597.5068	630.4212	645.7473	712.4775	731.2382	819.6225	837.2112	912.272	933.7786	990.5396	1022.2318	1058.554	1072.6791	1137.8345	1147.4243	1175.9707	1206.7144	1225.1137	1252.7605	1261.9206	1305.2706	1357.7032	1410.4806	1450.1725	1483.4545	1492.9572	1496.3343	1506.1726	1513.6531	1553.4109	1662.3907	2953.2329	2976.8935	3011.8688	3067.1025	3078.9504	3089.6399	3126.3344	3247.3348	3296.2337
CN1CCC2=C1OC=C2	CN1CCc2c1occ2	
InChI=1S/C7H9NO/c1-8-4-2-6-3-5-9-7(6)8/h3,5H,2,4H2,1H3	InChI=1S/C7H9NO/c1-8-4-2-6-3-5-9-7(6)8/h3,5H,2,4H2,1H3
