19
gdb 73139	2.42887	1.80222	1.55752	1.0408	73.15	-0.2297	0.0762	0.3059	960.1951	0.160127	-422.997806	-422.990356	-422.989412	-423.029215	30.822	
O	 0.19329855	 1.4351774835	-0.1802935276	-0.485572
C	-0.0267284135	 0.0535787068	-0.0130794275	 0.40167
C	-1.3827007457	-0.2476181518	 0.6716088599	-0.271451
C	-0.6596537352	-1.1930000642	 1.6781893428	-0.25914
C	 0.7152364834	-0.6960045412	 1.1411017864	 0.051095
O	 1.6194121241	-1.6424528885	 0.5889145525	-0.268708
C	 1.4304206989	-1.7239394136	-0.8026333963	 0.104741
C	 0.117369171	-2.2419175224	-1.3161389999	-0.33605
C	 0.3733137853	-0.7451736104	-1.2505516737	-0.162841
H	 1.0863518818	 1.5576647238	-0.522124306	 0.277341
H	-1.7812246542	 0.6524322719	 1.1435586013	 0.116183
H	-2.154852776	-0.6891695207	 0.0391512526	 0.104398
H	-0.8446087403	-0.9882285817	 2.7345710782	 0.103823
H	-0.8194478676	-2.2580866913	 1.5023723242	 0.111875
H	 1.2579937967	-0.0586086556	 1.8449391436	 0.083569
H	 2.3556546163	-1.9144152304	-1.3349683196	 0.099432
H	 0.1101352795	-2.6804968894	-2.3088358179	 0.115541
H	-0.5754642249	-2.7047162869	-0.6232226966	 0.121418
H	 0.4377160103	-0.189368288	-2.1791337665	 0.092675
138.47	202.3787	260.3596	326.8912	355.7061	386.5781	428.281	481.4231	589.8876	643.5109	694.3808	740.8955	783.689	797.6685	817.8315	887.4356	925.9391	943.3924	969.0241	991.4091	1016.7245	1034.9489	1046.9772	1071.9725	1097.9068	1112.9465	1143.6902	1167.1593	1179.6626	1198.08	1218.5403	1238.656	1259.9015	1269.2461	1330.1427	1362.6307	1370.6333	1384.7972	1466.643	1477.8629	1495.3281	3066.4309	3073.5185	3079.5268	3121.7773	3134.5436	3138.8276	3168.7428	3177.4195	3222.0019	3795.0659
OC12CCC1OC1CC21	O[C@]12CC[C@H]1O[C@H]1C[C@@H]21	
InChI=1S/C7H10O2/c8-7-2-1-6(7)9-5-3-4(5)7/h4-6,8H,1-3H2	InChI=1S/C7H10O2/c8-7-2-1-6(7)9-5-3-4(5)7/h4-6,8H,1-3H2/t4-,5+,6-,7+/m1/s1
