15
gdb 132898	3.06703	1.36604	0.95062	2.2807	74.74	-0.2119	-0.0496	0.1623	1151.5485	0.111906	-461.943003	-461.93515	-461.934206	-461.975482	29.566	
C	 0.0024868757	 1.5295013475	-0.0121183971	-0.49224
C	-0.0361251793	 0.0298190529	-0.0017228103	 0.184921
C	-1.1693844751	-0.7002624695	-0.1081623612	-0.237747
C	-1.1741471241	-2.1507246018	-0.0945125086	 0.388832
N	-2.2291477929	-2.851559199	-0.1929995184	-0.539193
O	 0.0745953381	-2.7688045735	 0.0360975366	-0.241418
C	 1.2113263388	-2.0416147058	 0.1429369404	-0.045999
C	 1.1995781869	-0.702010353	 0.1291008146	 0.126449
F	 2.3416895059	-0.0096849403	 0.2365546443	-0.074417
H	 0.6239611207	 1.8970950617	-0.8357484327	 0.148106
H	-1.0011018639	 1.9454776599	-0.1166291817	 0.136241
H	 0.4486981376	 1.9137161099	 0.9115470459	 0.148105
H	-2.1413013538	-0.2339793582	-0.2098544863	 0.127931
H	-2.0077828452	-3.8467464165	-0.1613529427	 0.221721
H	 2.1022441006	-2.6475283743	 0.2375546671	 0.148708
100.1805	141.7639	197.2358	267.8963	349.2395	357.9336	381.2403	424.0431	527.0049	569.2261	611.7416	713.0147	742.0315	764.8183	835.6141	841.2774	864.3713	898.3029	1017.3634	1066.086	1085.9374	1162.4047	1210.2263	1263.5948	1278.456	1338.8914	1414.931	1450.3992	1475.556	1488.1768	1623.488	1699.8713	1746.4495	3040.0115	3093.7599	3137.1955	3216.1738	3231.4004	3493.8969
CC1=CC(=N)OC=C1F	C[C@@H]1C=C([NH])OC=C1F	
InChI=1S/C6H6FNO/c1-4-2-6(8)9-3-5(4)7/h2-3,8H,1H3	InChI=1S/C6H7FNO/c1-4-2-6(8)9-3-5(4)7/h2-4,8H,1H3/t4-/m1/s1
