22
gdb 122547	3.38056	0.67509	0.61738	1.8189	79.94	-0.2206	0.0688	0.2894	1850.7231	0.192767	-441.434507	-441.423918	-441.422973	-441.471136	37.713	
O	-0.2028120768	 1.5287484327	-0.3754396406	-0.421353
C	-0.0436242647	 0.2018543539	 0.1057893825	-0.074161
C	-1.3668909266	-0.5270204699	-0.0833862675	-0.163307
C	-1.3053886814	-1.9833237463	 0.3764436137	-0.162701
N	-2.6230970932	-2.6061319081	 0.2389222338	-0.082965
C	-2.943956231	-3.2463250147	-1.0319420814	-0.260464
C	-2.7258950081	-4.0632478921	 0.1976303243	-0.010783
C	-1.5355729068	-5.0034653931	 0.342951852	-0.110163
O	-0.5298887438	-4.8866221128	-0.6516454193	-0.399998
H	 0.629520923	 1.9938523248	-0.2515989012	 0.283869
H	 0.7559432648	-0.325772794	-0.4402809332	 0.084289
H	 0.2360874622	 0.1967911983	 1.17247236	 0.08271
H	-2.1527553815	-0.000629656	 0.4682773088	 0.113501
H	-1.6406258862	-0.4832587135	-1.1443995455	 0.104292
H	-0.5222152708	-2.5255432895	-0.1736065155	 0.113908
H	-1.0384112055	-2.0221855075	 1.440858565	 0.095739
H	-3.9459247946	-3.0784427041	-1.418931795	 0.113034
H	-2.162134609	-3.2740621788	-1.7900272217	 0.102949
H	-3.6055311647	-4.4374083725	 0.722634823	 0.090097
H	-1.0269459992	-4.8143918384	 1.2953982697	 0.121017
H	-1.924357086	-6.0324123354	 0.3906087413	 0.096493
H	-0.91800638	-5.1559490231	-1.4904272531	 0.283995
53.6161	77.8138	95.6772	121.5282	136.1769	202.3944	256.1032	266.4087	315.6078	343.2071	392.4737	422.2536	508.5797	633.4998	749.9875	775.3842	807.1516	886.6751	925.3774	962.7427	1000.4995	1029.0307	1046.6354	1059.9104	1080.5786	1087.8984	1121.0808	1137.1137	1161.3468	1186.5532	1231.754	1238.7252	1242.4133	1306.8071	1315.0968	1323.5897	1335.6002	1378.245	1402.395	1408.3391	1424.0772	1464.7494	1493.886	1499.9382	1502.0634	1518.4035	1532.0771	2956.4715	2980.7106	2985.3435	2996.4792	3035.0554	3043.1042	3061.8331	3088.5578	3090.994	3097.5963	3172.6397	3815.3329	3829.5352
OCCCN1CC1CO	OCCCN1C[C@H]1CO	
InChI=1S/C6H13NO2/c8-3-1-2-7-4-6(7)5-9/h6,8-9H,1-5H2	InChI=1S/C6H13NO2/c8-3-1-2-7-4-6(7)5-9/h6,8-9H,1-5H2/t6-,7?/m0/s1
