14
gdb 77278	2.24084	1.3733	1.06647	5.5898	63.65	-0.2803	-0.0251	0.2551	1123.9268	0.098684	-473.823172	-473.814395	-473.813451	-473.857433	30.403	
O	 0.1083197967	 1.3915674339	 0.0269971735	-0.402774
C	 0.0977194334	 0.0179680205	-0.0129647002	 0.114845
C	-1.1714203853	-0.7259219176	 0.2376777634	 0.020994
O	-2.256296305	 0.121187208	 0.4998579322	-0.209583
C	-3.4963763798	-0.2851791994	 0.0826427599	 0.188071
O	-4.4718724753	 0.3439103984	 0.3320598894	-0.242965
C	-0.5737115514	-0.7378031796	-1.1796324216	-0.29001
C	-1.2240261043	 0.0068110291	-2.2129479992	 0.30436
N	-1.7647130059	 0.6089585505	-3.03981325	-0.325063
H	-0.7938125731	 1.7025285824	 0.1824963827	 0.315676
H	 1.0261912742	-0.4137805652	 0.3454292829	 0.136503
H	-1.1720598515	-1.6554834316	 0.7990046338	 0.136218
H	-3.4625098669	-1.2341083689	-0.4793537317	 0.106923
H	-0.1125038657	-1.6669416504	-1.497918565	 0.146804
64.4245	108.3393	127.5531	146.3956	182.9967	291.0835	318.9681	386.3705	404.4861	544.843	628.4502	671.579	715.8331	743.1254	777.0672	941.0799	991.8879	1037.3691	1039.931	1100.3735	1107.2644	1125.5813	1172.1036	1245.2059	1341.9064	1353.9303	1364.3842	1418.4689	1455.2147	1888.1195	2354.7307	3001.3273	3153.3579	3168.3107	3178.0123	3767.3371
OC1C(OC=O)C1C#N	O[C@H]1[C@@H](OC=O)[C@H]1C#N	
InChI=1S/C5H5NO3/c6-1-3-4(8)5(3)9-2-7/h2-5,8H	InChI=1S/C5H5NO3/c6-1-3-4(8)5(3)9-2-7/h2-5,8H/t3-,4+,5-/m0/s1
