20
gdb 95902	2.13085	1.61908	1.30231	3.5219	78.36	-0.2376	0.0349	0.2725	1091.3972	0.172651	-399.3422	-399.332882	-399.331938	-399.376038	35.025	
C	-0.3869419155	 1.5803242962	 0.0117604225	-0.423939
C	 0.0184554107	 0.1048749244	 0.0600009238	 0.102373
N	 0.9864123182	-0.2335615908	-0.9883374912	-0.313162
C	 1.5153582234	-1.577319509	-0.6933411316	-0.170325
C	 1.4459849485	-1.6778634341	 0.8542905807	-0.239704
C	 0.8214177159	-0.3339701175	 1.3237733815	 0.032339
N	 1.7735282438	 0.7153769504	 1.6786784884	-0.520265
C	-1.2084699295	-0.7335603977	-0.0396374395	 0.261753
N	-2.1429888776	-1.4045617018	-0.1616047291	-0.353411
H	 0.5002828954	 2.2050194387	 0.1032026229	 0.141458
H	-0.8972055801	 1.8040258405	-0.929900305	 0.12045
H	-1.0685038885	 1.8166001441	 0.8328332722	 0.133711
H	 0.5920376433	-0.1621739618	-1.9195680249	 0.22926
H	 0.9170530722	-2.3764293217	-1.151951639	 0.111857
H	 2.5349566604	-1.6639274881	-1.0808658559	 0.106791
H	 0.819563807	-2.5220045113	 1.152990905	 0.123458
H	 2.4285631976	-1.8204084841	 1.3101132208	 0.099137
H	 0.1509475957	-0.4784880188	 2.1745312704	 0.093694
H	 2.2964762707	 0.434112686	 2.5020160922	 0.229748
H	 2.4462632584	 0.8241095463	 0.924297046	 0.234776
79.959	120.2617	142.696	190.4346	226.7602	274.2361	290.7457	340.1282	382.887	447.6069	509.2705	567.351	632.2452	670.2876	766.8463	799.9846	824.576	859.3168	878.4069	930.8593	939.7805	1003.7365	1046.4047	1065.4323	1122.0977	1143.3074	1168.8272	1178.7713	1217.4011	1247.9529	1251.6392	1277.0401	1318.943	1353.568	1407.6182	1416.8405	1441.3524	1481.0441	1486.4028	1489.7709	1530.9191	1644.0693	2334.3754	3005.1706	3053.7443	3064.8687	3067.575	3084.3902	3113.0921	3121.7461	3166.9268	3489.5419	3543.3715	3572.2845
CC1(NCCC1N)C#N	C[C@]1(NCC[C@H]1N)C#N	
InChI=1S/C6H11N3/c1-6(4-7)5(8)2-3-9-6/h5,9H,2-3,8H2,1H3	InChI=1S/C6H11N3/c1-6(4-7)5(8)2-3-9-6/h5,9H,2-3,8H2,1H3/t5-,6+/m1/s1
