14
gdb 48015	3.86871	0.74502	0.6747	4.2442	77.04	-0.2629	-0.0661	0.1968	1588.3546	0.099655	-436.678138	-436.669311	-436.668367	-436.713535	29.667	
O	-0.4436963609	 0.4126229895	-0.6786154814	-0.229342
C	 0.0177930341	 1.0620866023	 0.2321397944	 0.021793
C	 1.2267840757	 1.8391858437	 0.1461143318	 0.005762
C	 2.2385643953	 2.4990482447	 0.1044834607	 0.150492
C	 3.4285235436	 3.3033091543	 0.0270479457	-0.342935
C	 4.1708453375	 3.3964830929	-1.3482492326	-0.167018
N	 3.920790113	 4.8381735526	-1.3138520386	-0.312793
C	 3.2185999787	 4.8656694501	-0.1421134698	 0.4294
O	 2.6836995471	 5.7267513147	 0.4909462767	-0.334328
H	-0.4759629467	 1.1025298107	 1.2239344107	 0.103839
H	 4.1029555119	 3.098825863	 0.8637044227	 0.144787
H	 5.2285656786	 3.120613671	-1.3166404013	 0.126719
H	 3.6665079099	 2.8712259859	-2.1627504371	 0.139491
H	 4.1598634221	 5.5800724246	-1.954688982	 0.264133
40.3661	71.6561	91.1064	127.0128	206.9725	232.2156	397.0716	409.7969	440.0163	527.7407	605.8716	711.0291	737.864	816.3104	881.6149	949.767	996.8838	1020.4922	1052.9678	1129.619	1160.0411	1175.3992	1191.2498	1295.5441	1331.3134	1397.2809	1421.8321	1526.6884	1764.8092	1917.7517	2323.8295	2924.4069	3057.1712	3076.8577	3114.2948	3618.772
O=CC#CC1CNC1=O	O=CC#C[C@H]1CNC1=O	
InChI=1S/C6H5NO2/c8-3-1-2-5-4-7-6(5)9/h3,5H,4H2,(H,7,9)	InChI=1S/C6H5NO2/c8-3-1-2-5-4-7-6(5)9/h3,5H,4H2,(H,7,9)/t5-/m0/s1
