17
gdb 47692	2.26203	1.67057	1.004	4.4458	72.77	-0.248	-0.0111	0.2369	1141.2463	0.138409	-455.19431	-455.186277	-455.185333	-455.227827	29.756	
N	-0.0022211031	 0.8517900909	-1.1618986736	-0.542649
C	 0.1215868809	 0.0925131085	-0.1517334056	 0.436371
N	-1.0547307428	-0.2732073835	 0.5153364478	-0.365874
C	-1.5082276117	-1.3033818263	 1.337215741	 0.394813
O	-2.706232913	-1.4713525571	 1.4289415485	-0.345243
C	-0.5600348462	-2.1185350116	 2.2012544449	-0.298204
C	 0.9191602492	-2.1969841491	 1.834879824	-0.231105
C	 1.5455288688	-0.8314044545	 1.5980070962	-0.083569
O	 1.320189013	-0.3641224533	 0.2634105633	-0.244381
H	 0.9174822919	 1.095342919	-1.5239221716	 0.22805
H	-1.8423242442	 0.1903350871	 0.0767700792	 0.275173
H	-0.6573841169	-1.6788274183	 3.2036277143	 0.142393
H	-1.0073653931	-3.112883702	 2.2714468705	 0.144071
H	 1.4510165904	-2.6955680969	 2.6528466793	 0.115976
H	 1.0797996127	-2.805093825	 0.9377931962	 0.1268
H	 1.1856775486	-0.0894558054	 2.3227620974	 0.118306
H	 2.6336473256	-0.8808739726	 1.6747856683	 0.129073
49.4574	98.1319	124.1964	289.0717	310.1717	377.1858	434.4349	491.7393	529.4782	590.6704	656.8005	698.3589	770.5991	793.6102	848.2135	878.2332	882.8402	915.8563	982.7967	1079.8599	1084.3868	1105.9919	1169.5837	1212.2746	1263.2795	1310.3031	1326.9345	1370.2341	1378.2912	1395.1946	1435.1752	1443.8858	1460.9522	1480.1573	1507.3593	1731.325	1781.4417	3026.4313	3027.6769	3042.6665	3085.2485	3106.6966	3110.6514	3522.8507	3573.6628
N=C1NC(=O)CCCO1	[NH][C]1NC(=O)CCCO1	
InChI=1S/C5H8N2O2/c6-5-7-4(8)2-1-3-9-5/h1-3H2,(H2,6,7,8)	InChI=1S/C5H8N2O2/c6-5-7-4(8)2-1-3-9-5/h1-3H2,(H2,6,7,8)
