18
gdb 90842	3.10032	1.93497	1.49093	2.2428	75.12	-0.2387	0.0868	0.3255	906.1035	0.149995	-401.846321	-401.839837	-401.838893	-401.876871	27.521	
O	 0.1124811757	 1.3377507818	-0.1013260941	-0.43394
C	-0.0036041527	-0.0656225702	-0.0238339031	 0.019361
C	 0.4405882486	-0.6691732199	 1.3688000481	-0.265405
C	-0.9085194041	-1.1699272694	 1.9252397865	-0.016636
C	-1.6187332748	-1.9012457394	 0.7853039636	-0.080938
C	-2.9445385435	-1.1170668638	 0.9545326888	-0.027118
C	-2.8868065354	-0.4946037107	-0.4629676331	-0.339515
C	-1.4422178977	-0.5340955111	 0.0556769702	 0.308561
N	-1.9071530996	-0.0991183919	 1.4822543538	-0.198864
H	-0.5100783658	 1.6908157144	 0.5486719369	 0.286662
H	 0.5625152176	-0.4741498635	-0.8638243171	 0.090099
H	 1.1633959835	-1.4838365252	 1.2620915897	 0.104374
H	 0.8931028641	 0.1150462631	 1.9815856082	 0.113354
H	-0.9445055068	-1.4915915676	 2.9684346236	 0.068926
H	-1.4613007734	-2.9014804312	 0.3681644208	 0.065884
H	-3.8264455325	-1.3777224338	 1.5413570344	 0.085222
H	-3.1253563893	-1.1499257188	-1.3035890797	 0.105141
H	-3.338115724	 0.4942400373	-0.5743262773	 0.114833
140.1854	248.5382	371.8232	424.3408	462.7723	492.5894	508.6201	670.4465	710.8701	757.717	800.6023	836.1582	844.6355	870.1539	884.4348	923.9516	941.8649	968.1142	970.107	1009.7033	1028.9453	1069.9724	1087.1154	1118.6933	1128.546	1149.8498	1173.0485	1193.4627	1205.7151	1216.2051	1256.2108	1267.1309	1279.1457	1304.7394	1320.9972	1332.4685	1444.381	1476.8478	1492.6019	3047.2303	3055.9428	3064.2123	3089.6689	3093.2141	3105.3168	3110.7827	3132.4987	3757.6812
OC1CC2C3C4CC13N24	O[C@H]1C[C@@H]2[C@H]3[C@@H]4C[C@]13N24	
InChI=1S/C7H9NO/c9-5-1-3-6-4-2-7(5,6)8(3)4/h3-6,9H,1-2H2	InChI=1S/C7H9NO/c9-5-1-3-6-4-2-7(5,6)8(3)4/h3-6,9H,1-2H2/t3-,4+,5+,6+,7+/m1/s1
