19
gdb 33263	5.69584	0.70209	0.67724	3.7775	78.05	-0.2227	0.0306	0.2532	1683.6025	0.160292	-419.227264	-419.218197	-419.217253	-419.262729	31.662	
C	-0.0677398926	 1.3803087892	 0.018863309	-0.230161
O	 0.0348398231	-0.0254360106	 0.00669186	-0.228728
C	 0.6343519696	-0.5243554909	-1.1625755117	-0.047193
C	 0.6765844133	-2.0480915768	-1.0332752757	-0.20385
N	 1.2813199819	-2.6826981985	-2.1886625597	 0.022974
C	 0.6901704519	-2.9066156456	-3.4155159376	-0.1305
C	 1.6620150617	-3.4735199168	-4.1967667649	-0.089199
N	 2.8352786733	-3.6043004899	-3.4908753752	-0.272887
C	 2.5706604972	-3.1199888636	-2.2994615311	 0.004165
H	 0.9208410485	 1.8611256181	-0.0420013759	 0.110145
H	-0.6823346006	 1.750447853	-0.8163803489	 0.109078
H	-0.5423612553	 1.6638287193	 0.960891155	 0.132537
H	 0.0609592431	-0.2357814143	-2.0594132792	 0.097234
H	 1.6569003887	-0.1312676025	-1.2894166093	 0.100462
H	 1.2535058165	-2.3195211601	-0.1453745496	 0.1347
H	-0.3388554083	-2.430266386	-0.8941968574	 0.133797
H	-0.3415659518	-2.6543250771	-3.5987084757	 0.124276
H	 1.5820419835	-3.800950713	-5.2222890066	 0.107558
H	 3.2591384663	-3.062598844	-1.4684696956	 0.125591
42.41	72.7399	85.8385	105.4782	222.159	230.5467	336.5765	341.5653	448.0459	640.6437	678.9774	727.4787	749.6885	805.0254	817.3922	855.3474	916.4842	997.2478	1046.7728	1064.5198	1094.1922	1103.733	1144.5144	1167.6301	1179.5412	1222.8924	1230.8328	1265.0858	1294.5751	1311.4015	1348.5725	1393.9143	1409.2071	1428.0955	1481.225	1485.3175	1488.3431	1504.9946	1530.8536	1535.3832	1544.6557	2958.9384	2977.7062	2991.5755	3022.3624	3063.821	3114.5476	3120.3437	3240.6003	3246.2332	3273.9574
COCCN1C=CN=C1	COCCn1ccnc1	
InChI=1S/C6H10N2O/c1-9-5-4-8-3-2-7-6-8/h2-3,6H,4-5H2,1H3	InChI=1S/C6H10N2O/c1-9-5-4-8-3-2-7-6-8/h2-3,6H,4-5H2,1H3
