17
gdb 45758	3.03895	1.37875	1.00191	2.2246	73.55	-0.242	-0.0166	0.2254	1157.3066	0.137481	-418.040174	-418.032272	-418.031328	-418.07338	29.518	
O	 0.1760299901	 0.0036348882	 0.0579673671	-0.356967
C	 0.0580502427	 1.2028404347	 0.0539408102	 0.412182
N	-1.1348738915	 1.9211047629	 0.015919507	-0.336748
C	-0.8427061318	 3.2810685596	 0.03298175	 0.060151
N	 0.3944933145	 3.5894753326	 0.0687907786	-0.240232
C	 1.1316212746	 2.3124034244	 0.0893871487	-0.137908
C	 2.054662364	 2.1919672151	 1.2815028077	 0.045193
C	 3.1995758153	 1.213842685	 1.2372266955	-0.255476
C	 3.4708464555	 2.6967557602	 1.1944302458	-0.276884
H	-2.0494512516	 1.4994841542	 0.0045559976	 0.268723
H	-1.6536513955	 4.0026031098	 0.0144386965	 0.139809
H	 1.7278949636	 2.235866943	-0.829474168	 0.118544
H	 1.5518347035	 2.3149299935	 2.2362825044	 0.088963
H	 3.4358816902	 0.6673042098	 2.1427886662	 0.115547
H	 3.3364291716	 0.6392017966	 0.3280848077	 0.123142
H	 3.7949698613	 3.1320254216	 0.255114746	 0.117018
H	 3.8952746835	 3.1719105589	 2.071441139	 0.114942
59.3264	92.0036	150.0107	244.6387	298.3449	369.6277	479.5639	512.1574	573.7781	671.3572	693.2349	768.0111	823.8208	863.6973	880.7947	902.6792	933.7833	948.899	991.8094	1038.5033	1060.5518	1066.4995	1075.864	1130.4822	1165.4205	1192.5565	1197.7337	1227.5513	1254.8678	1271.1152	1350.047	1393.8432	1408.7518	1472.8199	1507.5302	1677.2148	1852.9688	3028.3256	3135.9516	3142.7797	3150.5932	3189.3344	3214.8722	3230.19	3653.0809
O=C1NC=NC1C1CC1	O=C1NC=N[C@H]1C1CC1	
InChI=1S/C6H8N2O/c9-6-5(4-1-2-4)7-3-8-6/h3-5H,1-2H2,(H,7,8,9)	InChI=1S/C6H8N2O/c9-6-5(4-1-2-4)7-3-8-6/h3-5H,1-2H2,(H,7,8,9)/t5-/m0/s1
