16
gdb 32013	2.88037	1.33263	0.96584	3.5722	76.71	-0.2464	-0.0777	0.1687	1200.9124	0.124448	-437.940858	-437.932778	-437.931834	-437.974152	29.502	
C	 0.1009830498	 1.571755026	-0.0541122277	-0.380985
C	-0.0486742011	 0.0443807433	 0.0591273752	-0.276445
C	 0.5946339197	-0.5150274036	 1.2875917203	 0.388715
C	-0.0275904823	-1.1503899689	 2.3078717678	-0.15103
N	 0.6569993288	-1.6256567866	 3.4027745448	-0.200808
C	 1.9351321528	-1.4474516196	 3.4405852255	-0.109459
C	 2.7095202858	-0.7714835294	 2.3965393802	 0.378921
O	 3.8922196152	-0.5753378822	 2.3791473384	-0.32578
O	 1.934386542	-0.3263458302	 1.3223982843	-0.244291
H	 1.1554625014	 1.8581240071	-0.0569458731	 0.146337
H	-0.3546453202	 1.9283649187	-0.9815651356	 0.125794
H	-0.3887322781	 2.0765408837	 0.78389887	 0.128002
H	-1.1050444353	-0.2393881626	 0.0654377633	 0.122524
H	 0.409932634	-0.4311705215	-0.8169461088	 0.133433
H	-1.0984399167	-1.307175257	 2.2907760797	 0.122019
H	 2.504704754	-1.8113880372	 4.2916664756	 0.143054
60.3478	126.1359	149.9218	197.166	276.9876	339.8987	451.0667	477.0321	517.5753	575.4513	672.0798	707.2842	763.499	790.725	864.4959	873.4776	935.494	965.5965	1021.5742	1078.642	1088.3925	1097.103	1167.6622	1246.1236	1276.7294	1353.1563	1366.3751	1402.1819	1415.0477	1473.5932	1496.4275	1507.371	1564.6915	1666.3959	1846.5754	3034.6599	3048.4534	3091.3776	3121.0751	3132.9721	3172.0635	3213.4303
CCC1=CN=CC(=O)O1	CCc1cncc(=O)o1	
InChI=1S/C6H7NO2/c1-2-5-3-7-4-6(8)9-5/h3-4H,2H2,1H3	InChI=1S/C6H7NO2/c1-2-5-3-7-4-6(8)9-5/h3-4H,2H2,1H3
