25
gdb 60470	5.45464	0.46949	0.44714	0.8764	96.54	-0.2572	0.0592	0.3164	2494.8663	0.22586	-352.339947	-352.32825	-352.327306	-352.37795	42.11	
C	 0.1739778789	 1.5575104337	 0.0370217359	-0.3805
C	 0.0413331034	 0.0277978676	 0.0460967144	 0.042619
C	 0.7579114833	-0.5661222111	 1.2666553084	-0.388544
C	-1.4258034419	-0.438147019	 0.0051363057	-0.171173
C	-2.1914132325	-0.0771091712	-1.2732828593	-0.189262
C	-3.6114781239	-0.6513103168	-1.296578024	-0.172807
C	-4.378820477	-0.2856368536	-2.5834527824	-0.356786
C	-5.7301622696	-0.8315983637	-2.6191436161	 0.293293
C	-6.8397948328	-1.2941365737	-2.6224635589	-0.438533
H	 1.2258903681	 1.859060811	 0.0796081727	 0.109584
H	-0.2593583882	 2.0054308586	-0.861984716	 0.112649
H	-0.3311216389	 1.9970746544	 0.9060248119	 0.11006
H	 0.5379855534	-0.3594400463	-0.8559819181	 0.069109
H	 0.2985809297	-0.2156503013	 2.1989132366	 0.110988
H	 0.7104850433	-1.6602686819	 1.2647088336	 0.108614
H	 1.8134714008	-0.2755012866	 1.2888806604	 0.108148
H	-1.4485677845	-1.5294989262	 0.1287619601	 0.089401
H	-1.9560803755	-0.0259454154	 0.8761004379	 0.090146
H	-2.2448875557	 1.0131022593	-1.3868387445	 0.097481
H	-1.6353808814	-0.4474922697	-2.1463549612	 0.092333
H	-3.5760034753	-1.7432187488	-1.2029776109	 0.107929
H	-4.1770726872	-0.2870878482	-0.4306933218	 0.108247
H	-4.4243015053	 0.8070691817	-2.6832181896	 0.127725
H	-3.8177259606	-0.6442772863	-3.456718429	 0.127674
H	-7.8215768505	-1.6976623263	-2.6365785357	 0.191605
36.8254	61.5806	76.9803	117.4355	138.0158	168.4351	221.1656	244.4645	275.1203	304.0805	349.6163	399.4074	418.7717	469.1213	537.7245	614.2108	632.7957	733.4753	775.1362	823.5111	890.1684	924.493	936.2199	961.8813	966.282	1021.2029	1034.8461	1042.1726	1065.0877	1137.3339	1145.8053	1192.4636	1215.2908	1250.0713	1281.7054	1315.1383	1322.8605	1329.1959	1355.3842	1370.7658	1385.4209	1397.8553	1401.2603	1422.8724	1472.6288	1478.9364	1488.1422	1488.4462	1496.0006	1504.8864	1508.1549	1511.9501	2238.1486	2991.2782	2999.3321	3008.2112	3013.2681	3022.833	3027.6688	3029.3724	3035.0307	3039.5264	3051.2202	3080.7383	3086.852	3092.6471	3097.9181	3106.0119	3508.19
CC(C)CCCCC#C	CC(C)CCCCC#C	
InChI=1S/C9H16/c1-4-5-6-7-8-9(2)3/h1,9H,5-8H2,2-3H3	InChI=1S/C9H16/c1-4-5-6-7-8-9(2)3/h1,9H,5-8H2,2-3H3
