21
gdb 82375	2.32946	1.95772	1.34011	2.2952	81.67	-0.2102	0.0689	0.2791	1033.8916	0.185617	-383.229056	-383.221304	-383.22036	-383.260791	31.682	
C	-0.9335891186	 1.1322453361	 0.0941837909	-0.384127
C	-0.0017204623	-0.0761900957	-0.0160942632	 0.036726
C	 0.7465502361	-0.085612977	-1.3420833554	-0.020021
N	 1.8330182366	 0.8984040729	-1.5292765006	-0.34313
C	 2.1546213027	-0.5396378647	-1.4199324425	-0.035306
C	 2.8724183225	-1.0102494544	-0.1728588099	-0.238728
C	 2.2029374345	-0.6205737856	 1.1386645141	-0.015293
C	 1.8749121549	 0.7971430127	 1.4682878787	-0.255345
N	 0.8101770564	-0.1779234435	 1.2032857901	-0.106436
H	-0.3609033054	 2.0625034433	 0.0363819798	 0.127477
H	-1.6673693598	 1.1324263627	-0.7184475628	 0.104094
H	-1.4689649088	 1.1104589915	 1.0471499282	 0.122082
H	-0.6217031828	-0.9853696675	-0.0226885954	 0.079019
H	 0.1073796262	-0.2892839397	-2.2005609624	 0.077873
H	 1.8772328035	 1.1933559443	-2.5005857795	 0.229149
H	 2.4666723698	-1.0417906257	-2.3336086048	 0.082252
H	 2.9240016031	-2.1058734147	-0.2215051584	 0.103224
H	 3.9104917805	-0.6535779814	-0.1773946977	 0.110338
H	 2.4786535297	-1.2755919759	 1.9646991901	 0.082935
H	 1.9298878954	 1.1388867108	 2.4998632926	 0.098173
H	 2.0983838958	 1.5389278814	 0.710517948	 0.145043
125.4339	219.1146	243.9601	253.0465	325.5505	348.3855	400.0618	468.9409	504.5912	648.8337	693.4603	729.8283	756.0031	817.588	832.6955	862.6002	921.861	939.1084	962.3231	970.5014	1023.7993	1049.4216	1074.2235	1097.7727	1120.177	1132.7614	1136.5325	1163.0298	1169.5866	1185.5934	1216.61	1253.0287	1283.8366	1329.4363	1345.7768	1360.7292	1374.9641	1390.9952	1403.5564	1422.8727	1472.2112	1483.2665	1488.4318	1499.2886	1500.6659	2988.2498	3016.0483	3039.4675	3047.2033	3097.4501	3103.4393	3105.3662	3110.377	3122.5726	3123.5302	3214.7304	3505.4202
CC1C2NC2CC2CN12	C[C@H]1[C@H]2N[C@H]2C[C@H]2CN12	
InChI=1S/C7H12N2/c1-4-7-6(8-7)2-5-3-9(4)5/h4-8H,2-3H2,1H3	InChI=1S/C7H12N2/c1-4-7-6(8-7)2-5-3-9(4)5/h4-8H,2-3H2,1H3/t4-,5-,6-,7+,9?/m0/s1
