17
gdb 24211	4.11706	1.67685	1.43876	2.8038	78.43	-0.1947	0.0391	0.2338	917.153	0.140014	-380.833487	-380.827247	-380.826302	-380.864635	25.89	
C	-0.0392319944	 1.5403990594	-0.0293153327	-0.171224
C	 1.5031090028	 1.344374481	-0.0193643059	-0.048685
C	 1.1593916551	 0.1500187348	 0.9212304141	-0.174221
N	-0.0946474596	 0.0018574114	 0.0301112528	-0.232214
C	 0.5880661492	-0.2821421986	-1.2222935116	 0.380287
C	 0.6699733109	-1.1514921948	-2.2754149966	-0.38995
C	 1.8379619755	-0.7511781323	-3.009651859	-0.144545
C	 2.4258357801	 0.3228815723	-2.3670907997	-0.155593
N	 1.6310112254	 0.61015943	-1.2898031298	 0.050487
H	-0.4497428609	 1.9686209652	 0.8870680803	 0.115076
H	-0.4940403852	 1.9770655816	-0.9196972386	 0.124581
H	 2.2507804476	 2.1153900048	 0.1594832611	 0.092169
H	 1.8237800104	-0.7154159002	 0.9140379386	 0.127802
H	 0.8752373727	 0.4311002423	 1.9377814597	 0.115133
H	 0.0028716476	-1.9661485324	-2.5064491504	 0.101155
H	 2.1925087814	-1.1969498394	-3.9266946235	 0.092573
H	 3.2968254914	 0.9069526348	-2.6161542189	 0.117169
39.9568	298.7139	427.0597	511.1888	532.0649	598.746	685.8553	692.6995	711.2962	727.7382	763.9592	809.6437	818.8705	824.7388	838.4311	905.987	928.362	1004.7427	1013.3929	1019.7463	1041.9032	1085.7525	1101.549	1110.1303	1196.7668	1202.9595	1222.0731	1227.403	1254.0422	1280.2406	1286.1584	1406.4356	1438.8336	1483.3353	1489.5428	1519.872	1611.5643	3066.5827	3076.6197	3136.5906	3143.4298	3149.3278	3241.8127	3262.5522	3270.2269	39.9601	298.7139	427.0597	511.1888	532.0648	598.749	685.8555	692.7	711.2963	727.7376	763.9596	809.6444	818.8708	824.7393	838.4316	905.9868	928.3621	1004.743	1013.393	1019.7459	1041.903	1085.7518	1101.5498	1110.1301	1196.7668	1202.959	1222.0732	1227.4026	1254.0428	1280.2405	1286.1581	1406.4359	1438.8339	1483.3345	1489.5427	1519.8713	1611.5641	3066.5829	3076.6198	3136.5907	3143.4299	3149.3279	3241.8128	3262.5523	3270.2271
C1C2CN1C1=CC=CN21	C1[C@H]2CN1c1cccn21	
InChI=1S/C7H8N2/c1-2-7-8-4-6(5-8)9(7)3-1/h1-3,6H,4-5H2	InChI=1S/C7H8N2/c1-2-7-8-4-6(5-8)9(7)3-1/h1-3,6H,4-5H2
