17
gdb 105714	2.37352	1.46479	1.17931	3.949	72.68	-0.2768	-0.0084	0.2683	1107.6865	0.136313	-418.035933	-418.027289	-418.026345	-418.06978	31.072	
C	-0.0818343936	 1.5455069506	 0.004259288	-0.398495
C	 0.1159650728	 0.0297261444	 0.0156671505	-0.214648
C	 0.7668791574	-0.5119566587	 1.3088447182	 0.108016
C	 1.01228168	-2.0591346287	 1.2516681314	-0.154063
O	 2.4426325593	-2.1934186926	 1.3915998714	-0.211848
C	 2.9181019996	-0.936537048	 1.5062166221	 0.130389
N	 2.1276260082	 0.0549370681	 1.4866272823	-0.277846
C	-0.0598128108	-0.1616518247	 2.4773143206	 0.29309
N	-0.7318683161	 0.0829200158	 3.384837619	-0.346313
H	 0.8714349573	 2.0604994615	 0.1433371335	 0.147048
H	-0.5134258798	 1.8635231297	-0.9488538579	 0.117839
H	-0.7590586202	 1.8613389685	 0.8033749956	 0.142773
H	-0.8432231752	-0.4839336847	-0.1223942771	 0.114509
H	 0.7675453449	-0.2760821525	-0.811034581	 0.110926
H	 0.5305298611	-2.607431728	 2.0625607682	 0.148849
H	 0.7164437472	-2.4863797681	 0.2901677276	 0.132098
H	 3.9955918679	-0.8713080325	 1.6080278878	 0.157677
56.3872	107.1765	161.5002	185.617	209.3664	258.4165	342.0733	389.8884	511.1637	527.5471	586.9142	644.8676	781.5024	795.1649	880.4563	903.1101	958.1408	975.0776	982.94	1020.6345	1034.2814	1114.0687	1149.3393	1160.5511	1193.4854	1244.0103	1316.6289	1319.0374	1361.0797	1378.8027	1413.2222	1476.9918	1495.5381	1508.1215	1513.177	1697.1103	2357.3444	3029.9147	3049.4267	3068.646	3072.4859	3117.847	3129.4974	3134.4726	3221.4173
CCC1(COC=N1)C#N	CC[C@]1(COC=N1)C#N	
InChI=1S/C6H8N2O/c1-2-6(3-7)4-9-5-8-6/h5H,2,4H2,1H3	InChI=1S/C6H8N2O/c1-2-6(3-7)4-9-5-8-6/h5H,2,4H2,1H3/t6-/m1/s1
