19
gdb 108282	2.90956	1.32642	1.06007	4.3066	77.8	-0.2336	0.0159	0.2495	1186.7487	0.159402	-419.175009	-419.166454	-419.16551	-419.208282	32.477	
C	 0.0183366858	 1.6381924608	 0.0065853007	-0.388261
C	 0.1681372072	 0.1194611113	-0.1514121568	-0.269457
C	 0.6436883008	-0.5541411618	 1.1156253396	 0.324974
C	 2.1223422809	-0.4250681614	 1.5604350329	-0.118797
O	 2.2323943565	-1.848534627	 1.7786605825	-0.282214
C	 0.8732616938	-2.081097918	 1.3504735653	-0.060501
C	-0.1010700306	-1.9575385595	 2.5219171352	 0.399303
N	-0.4925194946	-2.7796905882	 3.3960263902	-0.551136
N	-0.3222240865	-0.6013677494	 2.2299453751	-0.38356
H	 0.9685683258	 2.108656561	 0.2827416936	 0.120179
H	-0.3200778631	 2.0977409379	-0.9262046052	 0.123747
H	-0.7161571462	 1.8818549455	 0.7814064735	 0.12015
H	-0.7928991994	-0.3197166986	-0.441560097	 0.110795
H	 0.8789759816	-0.1025840969	-0.9563295099	 0.106852
H	 2.8078207873	-0.0948189019	 0.7695462847	 0.105316
H	 2.3066922382	 0.1587283183	 2.4700732902	 0.100516
H	 0.7749789039	-2.886651981	 0.6224499497	 0.097566
H	-1.0922537573	-2.3357554266	 4.0948390936	 0.209225
H	-0.4679589843	 0.1277449056	 2.9169329323	 0.235305
78.4154	119.6894	164.0795	229.252	241.6562	334.5671	347.2639	396.2817	453.9054	489.6766	644.7059	668.6841	738.0581	790.3566	822.8964	856.398	899.509	956.2362	981.4406	994.6028	1002.1726	1028.1129	1031.6017	1059.0428	1120.7476	1145.6724	1170.0985	1194.0823	1259.1122	1271.3629	1297.6643	1320.7521	1350.9558	1354.1368	1388.9483	1412.1254	1477.1231	1502.2878	1506.5998	1512.4008	1796.2566	3011.6425	3032.5202	3035.2626	3061.7249	3071.4367	3102.5877	3111.7145	3119.379	3449.0717	3565.2717
CCC12COC1C(=N)N2	CC[C@]12CO[C@H]1[C]([NH])N2	
InChI=1S/C6H10N2O/c1-2-6-3-9-4(6)5(7)8-6/h4H,2-3H2,1H3,(H2,7,8)	InChI=1S/C6H10N2O/c1-2-6-3-9-4(6)5(7)8-6/h4H,2-3H2,1H3,(H2,7,8)/t4-,6-/m0/s1
