18
gdb 6466	3.75182	1.35944	1.23152	3.2276	68.05	-0.24	-0.0194	0.2206	1045.709	0.150847	-384.953045	-384.944376	-384.943432	-384.986365	32.374	
C	 0.129975281	 1.4366614409	-0.2603686807	-0.409957
C	-0.0778757425	-0.0670446994	-0.0554123686	-0.217544
C	-1.538461211	-0.4698826956	 0.1706994608	 0.408576
O	-2.0925238702	 0.1436443395	 1.3190499972	-0.483083
C	-2.4355830295	-0.4019666679	-1.1203748212	-0.40983
C	-2.4069043811	-1.936867673	-1.1496559959	 0.413044
O	-2.7106569438	-2.7547597585	-1.968754434	-0.291896
C	-1.7548933435	-2.0099794936	 0.2357771707	-0.388293
H	 1.181868761	 1.6615892933	-0.4571913342	 0.126391
H	-0.4527470403	 1.8152957559	-1.1075309758	 0.121856
H	-0.1557943427	 2.007233556	 0.6305506538	 0.114766
H	 0.305276088	-0.6131074836	-0.9265526584	 0.10206
H	 0.5041710755	-0.4059291625	 0.8099131559	 0.109228
H	-2.0656429957	 1.0982940175	 1.1960619088	 0.280986
H	-3.4379705835	-0.0230499666	-0.8963353829	 0.132434
H	-2.0462436891	 0.1066750523	-2.0063462344	 0.122356
H	-0.8731776611	-2.6484679515	 0.3331152997	 0.125766
H	-2.4792433815	-2.2739513832	 1.0127637792	 0.143138
45.9624	111.6154	202.9452	238.4266	272.6211	329.37	356.3115	386.0321	401.9771	443.6615	532.6087	629.7097	671.8707	729.7663	783.2924	845.4898	912.6853	938.2003	997.9051	999.3927	1027.0324	1081.7928	1105.6499	1133.0583	1170.0885	1185.1385	1242.3025	1276.1779	1315.4027	1333.2272	1386.4035	1410.0491	1414.5444	1436.2548	1478.028	1500.3761	1508.7933	1894.1408	3025.9179	3030.1719	3053.9026	3061.2857	3063.2406	3094.6579	3109.4425	3115.2427	3119.8563	3812.1317
CCC1(O)CC(=O)C1	CCC1(O)CC(=O)C1	
InChI=1S/C6H10O2/c1-2-6(8)3-5(7)4-6/h8H,2-4H2,1H3	InChI=1S/C6H10O2/c1-2-6(8)3-5(7)4-6/h8H,2-4H2,1H3
