20
gdb 12645	2.71538	2.0286	1.367	1.6077	76.73	-0.2337	0.0254	0.2591	978.4562	0.176774	-349.026743	-349.018206	-349.017262	-349.059208	32.704	
C	-0.1132119095	 1.5822417229	-0.0311823999	-0.394982
C	 0.0746344112	 0.0634111966	-0.006036184	-0.093412
C	 0.8672321431	-0.5082676742	-1.2184070015	 0.119513
O	 1.8840336706	 0.3798520493	-1.6659676913	-0.431511
C	 1.4750081127	-1.8233610488	-0.6779167245	-0.280078
C	 1.60492874	-1.5364985273	 0.7996598378	-0.188569
C	 0.8452041926	-0.504977425	 1.1826426152	 0.332707
C	 0.6746882472	 0.0166997033	 2.5751602628	-0.501962
H	 0.8462682439	 2.1058834254	-0.0315635131	 0.113299
H	-0.6515696704	 1.8894874698	-0.9329948128	 0.117776
H	-0.6898858781	 1.9222870266	 0.8347620852	 0.108225
H	-0.9257804169	-0.3995634056	-0.0104457727	 0.077734
H	 0.2260340722	-0.6612962907	-2.090607681	 0.07775
H	 2.5119292033	 0.4796752291	-0.9406702642	 0.277795
H	 0.8062949592	-2.6779697029	-0.8568602305	 0.103934
H	 2.4201386999	-2.0494277949	-1.1833215135	 0.104345
H	 2.2098694363	-2.1392695184	 1.4694658215	 0.083025
H	 1.2852772879	-0.5420013229	 3.2898294597	 0.121336
H	 0.9496958312	 1.0758694162	 2.6475881934	 0.127711
H	-0.3725576962	-0.0523597886	 2.8980055633	 0.125364
89.6707	178.8146	197.251	246.0004	251.4381	269.8139	340.7753	375.3814	415.3506	474.0872	549.389	644.7047	737.2814	771.7143	824.136	854.555	897.4215	953.0588	993.6581	1011.6694	1030.5397	1035.635	1072.1727	1103.5332	1129.0409	1173.0574	1198.5878	1248.6607	1266.4269	1297.6831	1319.6165	1340.7127	1359.9724	1409.9277	1414.5537	1434.0053	1478.1528	1479.4742	1485.8037	1494.3898	1499.9593	1707.9813	2968.092	3002.9717	3016.9684	3040.7981	3064.3483	3065.6882	3079.8609	3104.6455	3108.9678	3117.6432	3180.5764	3788.3052
CC1C(O)CC=C1C	C[C@H]1[C@@H](O)CC=C1C	
InChI=1S/C7H12O/c1-5-3-4-7(8)6(5)2/h3,6-8H,4H2,1-2H3	InChI=1S/C7H12O/c1-5-3-4-7(8)6(5)2/h3,6-8H,4H2,1-2H3/t6-,7+/m1/s1
