16
gdb 66039	2.40605	1.34927	1.12757	4.9053	75.82	-0.251	0.0017	0.2527	1128.1093	0.123845	-396.867524	-396.858566	-396.857622	-396.901088	33.157	
N	-0.0243139364	 1.4738881362	-0.0544179348	-0.533587
C	 0.040619718	 0.0179553865	-0.0475689594	 0.096932
C	 0.1331642677	-0.5259395456	 1.4137416352	-0.188956
N	-1.3365095272	-0.6943408059	 1.4370656403	-0.30292
C	-1.4079804376	-0.6136273766	-0.0328557184	-0.155129
C	-2.4952233001	 0.1958091697	-0.5810528526	 0.317711
N	-3.3412678316	 0.8242818425	-1.0552650085	-0.331223
C	 0.9597764988	-0.5584654835	-1.0205055831	 0.272692
C	 1.7274374194	-1.0052838315	-1.831918538	-0.452489
H	 0.9056403031	 1.8515035275	 0.1057298344	 0.238574
H	-0.3191021209	 1.8034663136	-0.970234666	 0.247774
H	 0.7091194081	-1.4567209562	 1.4704301842	 0.110475
H	 0.5102437992	 0.1928387802	 2.146602528	 0.122652
H	-1.6772243198	-1.5642564222	 1.8287713721	 0.233308
H	-1.4014323826	-1.5814702306	-0.5499348145	 0.119814
H	 2.4050880421	-1.3980254441	-2.549679029	 0.204373
84.6196	132.891	144.9699	190.2036	240.0579	250.3324	351.4722	382.9244	461.3754	506.2343	560.2495	581.8397	602.6185	644.4656	655.4826	719.0857	865.9495	880.4625	940.667	945.136	990.572	1025.1691	1065.246	1145.0524	1168.7985	1202.9619	1259.5919	1290.0328	1324.9289	1358.9673	1395.2154	1505.8614	1656.2117	2225.6469	2356.7387	3024.9806	3032.0708	3092.8312	3486.2075	3498.5953	3548.7514	3565.9926
NC1(CNC1C#N)C#C	N[C@]1(CN[C@H]1C#N)C#C	
InChI=1S/C6H7N3/c1-2-6(8)4-9-5(6)3-7/h1,5,9H,4,8H2	InChI=1S/C6H7N3/c1-2-6(8)4-9-5(6)3-7/h1,5,9H,4,8H2/t5-,6-/m0/s1
