18
gdb 18530	5.40153	1.15237	1.07143	1.2202	68.22	-0.2357	0.0712	0.3069	1148.5804	0.15289	-384.877095	-384.869092	-384.868147	-384.910153	29.011	
C	-0.2692071653	 1.3117761245	 0.4519543284	-0.223149
O	-0.1696520834	-0.0876907469	 0.561694438	-0.235519
C	 1.159222737	-0.5534847475	 0.4932195056	-0.079467
C	 1.114147329	-2.0634069548	 0.6318832029	 0.118884
O	 2.4155666084	-2.6847749843	 0.4354190643	-0.310571
C	 2.2528167064	-3.4255521687	 1.6515973189	 0.111172
C	 2.2103604295	-2.5093693286	 2.8294994271	-0.299205
C	 0.9591283191	-2.7281652799	 1.9994162974	-0.133092
H	 0.1299911735	 1.6753139309	-0.5082054942	 0.105409
H	-1.3289880321	 1.5706577936	 0.5146884929	 0.127271
H	 0.2710414503	 1.8249843536	 1.2631696092	 0.10507
H	 1.6252395643	-0.2939837283	-0.4728870484	 0.096015
H	 1.7777297638	-0.1048254982	 1.2867014264	 0.088056
H	 0.3953170543	-2.4669283939	-0.091826589	 0.09113
H	 2.559745013	-4.4646199747	 1.656104079	 0.104016
H	 2.185038809	-2.9952713925	 3.8001256321	 0.115332
H	 2.7567655324	-1.5709632861	 2.8013556563	 0.116043
H	 0.0363910308	-3.111724188	 2.410739153	 0.102603
65.2533	87.2816	148.8371	207.8871	248.5935	348.2422	383.5732	468.0342	556.936	736.9591	765.4636	798.8532	912.6635	952.8063	962.6991	979.837	1009.6025	1036.8323	1043.0676	1050.5886	1081.4708	1104.1812	1135.3468	1171.3931	1185.7134	1202.3685	1224.9256	1240.634	1256.8228	1298.3796	1354.1066	1372.6834	1431.191	1474.4807	1481.0695	1484.5735	1503.2657	1524.9426	2958.7477	2972.8831	2996.3463	3014.5945	3036.7469	3113.6237	3119.2923	3183.6675	3206.2746	3217.1839
COCC1OC2CC12	COC[C@H]1O[C@H]2C[C@@H]12	
InChI=1S/C6H10O2/c1-7-3-6-4-2-5(4)8-6/h4-6H,2-3H2,1H3	InChI=1S/C6H10O2/c1-7-3-6-4-2-5(4)8-6/h4-6H,2-3H2,1H3/t4-,5+,6-/m1/s1
