18
gdb 85121	1.75192	1.6769	1.30091	3.3933	73.53	-0.2506	-0.0361	0.2145	1108.273	0.145068	-439.124657	-439.114944	-439.114	-439.159436	34.514	
C	-0.2389189098	 1.3653817774	-0.1353222691	-0.409437
C	 0.0832850373	-0.114936453	-0.0085005376	 0.03089
N	 1.2382270299	-0.5778034613	-0.8022517111	-0.344221
C	 1.973448588	-1.0583787326	 0.2400819485	 0.417929
O	 3.0454936896	-1.5899711503	 0.3360300367	-0.360483
C	 0.8504620714	-0.6232847744	 1.2578711783	 0.003108
C	 1.3257811601	 0.371181326	 2.315201669	-0.465391
C	 0.2303717612	-1.847160777	 1.8995136337	 0.129183
O	-0.7807650723	-2.3890989516	 1.5312750198	-0.251701
H	 0.6441245124	 1.9902131047	 0.0230054275	 0.12321
H	-0.63190792	 1.5836019948	-1.1339147011	 0.124072
H	-1.0074615922	 1.6532270487	 0.5890579584	 0.130529
H	-0.8090613748	-0.7215352359	-0.1866007896	 0.116316
H	 1.3935911883	-0.6376632558	-1.798292484	 0.253073
H	 1.8927024389	 1.1913103598	 1.868953344	 0.137028
H	 0.4854892997	 0.7965147983	 2.8735640697	 0.130044
H	 1.9868758286	-0.1334077067	 3.026728351	 0.142925
H	 0.8099788138	-2.2390149013	 2.7641479158	 0.092927
69.2561	77.5638	160.9788	170.4101	209.6196	216.9069	243.2943	278.1688	338.4624	402.4212	462.7327	532.9187	607.4188	670.6402	717.0814	741.4334	837.1784	896.447	943.289	999.6272	1037.3992	1075.1945	1112.4052	1138.2573	1166.5815	1209.4317	1262.9435	1280.5238	1382.9161	1397.0382	1406.7685	1412.8049	1429.1385	1482.3993	1487.9594	1498.2187	1505.6515	1815.746	1894.0534	2892.4781	3037.3024	3041.0691	3073.4248	3103.5273	3107.7146	3119.5824	3126.9008	3604.1986
CC1NC(=O)C1(C)C=O	C[C@H]1NC(=O)[C@]1(C)C=O	
InChI=1S/C6H9NO2/c1-4-6(2,3-8)5(9)7-4/h3-4H,1-2H3,(H,7,9)	InChI=1S/C6H9NO2/c1-4-6(2,3-8)5(9)7-4/h3-4H,1-2H3,(H,7,9)/t4-,6-/m1/s1
