14
gdb 129548	3.21696	1.24084	1.02574	1.0542	68.05	-0.2663	-0.0333	0.2331	1135.6087	0.100968	-432.815856	-432.807629	-432.806685	-432.849999	29.22	
N	 0.4265383857	 1.0181568936	 0.6352108646	-0.487209
C	-0.0776245072	-0.2167037161	 0.0410174141	-0.274433
C	-1.5234978988	-0.1324228124	-0.1858403025	 0.359181
C	-2.7027871656	-0.0598653426	-0.3968040961	-0.45107
C	 0.6088442397	-0.5961415166	-1.2601468867	 0.430309
N	 1.3085839243	 0.1720778607	-2.0398600979	-0.319632
C	 1.6696340297	-0.7019732794	-3.0371165701	 0.042617
N	 1.2376512372	-1.9234119779	-2.8935944809	-0.109263
O	 0.5194556626	-1.8581367038	-1.6893860626	-0.194329
H	 1.4318593029	 0.9369517312	 0.7622895305	 0.241739
H	 0.2887910137	 1.7798424956	-0.0236653026	 0.251398
H	 0.1112413085	-1.0354562401	 0.7484565977	 0.147705
H	-3.7485849548	 0.0017315869	-0.5732090702	 0.211157
H	 2.2724348621	-0.4181289393	-3.8874359972	 0.151829
24.3627	101.5122	184.2117	207.4915	236.9644	301.4351	399.0445	451.8258	573.5805	640.2685	655.228	668.5827	701.127	812.6115	901.8151	911.9097	931.2554	935.3827	979.0589	1033.1049	1135.2468	1189.5739	1196.9262	1235.9115	1283.0381	1347.3598	1396.8098	1507.4532	1612.2564	1664.3083	2247.7043	3025.3395	3262.2655	3492.1982	3502.4823	3570.1424
NC(C#C)C1=NC=NO1	N[C@@H](C#C)c1ncno1	
InChI=1S/C5H5N3O/c1-2-4(6)5-7-3-8-9-5/h1,3-4H,6H2	InChI=1S/C5H5N3O/c1-2-4(6)5-7-3-8-9-5/h1,3-4H,6H2/t4-/m0/s1
