13
gdb 129079	3.71218	1.24259	0.93096	0.9476	82.55	-0.2419	-0.0678	0.1742	1158.8909	0.088853	-415.54581	-415.538383	-415.537439	-415.57788	27.955	
N	 0.0191952619	 1.3789682914	 0.0106061506	-0.526298
C	 0.004239977	 0.0935381357	 0.0035195341	 0.286618
C	 1.1909681735	-0.774587477	-0.0077184243	-0.024535
N	 1.217215229	-2.0575982642	-0.0150088714	-0.054304
O	 0.0011930145	-2.7274504999	-0.0121764638	-0.27743
C	-1.1708374746	-2.0183485281	-0.0018958222	 0.252535
C	-1.2231173095	-0.6694428728	 0.0058992809	-0.263632
C	-2.3038305221	-2.8707274663	-0.0005287769	 0.259841
C	-3.2656980862	-3.5927429416	 0.0006464417	-0.364692
H	 0.9804848887	 1.7279161607	 0.0073661462	 0.21658
H	 2.1807474398	-0.3213108306	-0.0105336566	 0.139801
H	-2.1769950002	-0.1599551324	 0.0138877617	 0.139454
H	-4.1167795117	-4.2288913849	 0.00171114	 0.216062
124.0983	136.7449	144.7308	349.4046	397.8278	415.356	480.7373	519.5969	540.3169	623.5322	667.8915	688.8174	719.3775	723.8889	848.8418	906.9981	920.9752	932.1193	955.6228	988.9302	1156.1794	1174.5853	1285.0552	1334.0767	1421.1626	1630.0467	1642.8941	1700.6367	2238.5963	3157.1964	3233.8268	3442.0776	3499.6124
N=C1C=NOC(=C1)C#C	[NH]C1=C[C](ON=C1)C#C	
InChI=1S/C6H4N2O/c1-2-6-3-5(7)4-8-9-6/h1,3-4,7H	InChI=1S/C6H4N2O/c1-2-6-3-5(7)4-8-9-6/h1,3-4,7H
