20
gdb 22135	3.03405	0.99736	0.8758	1.9997	78.38	-0.2393	0.0056	0.2449	1399.917	0.16801	-440.236116	-440.226121	-440.225176	-440.27147	37.13	
C	-1.4029545653	 0.9448675012	-0.2284299986	-0.474379
C	-0.0911206805	 0.345441605	 0.2010812371	 0.376923
C	-0.0125319653	-0.3435881709	 1.545272775	-0.363961
C	 1.3772926374	-0.7602775347	 1.9886515266	 0.456981
O	 2.0137351878	-1.6656877534	 1.1338582146	-0.477753
C	 2.2423358121	 0.2250294552	 2.7389966298	-0.31125
C	 1.6490661103	-0.9805537496	 3.444408005	-0.323693
N	 0.9651158711	 0.3727476088	-0.5187926963	-0.169961
O	 0.7583397668	 1.0372410904	-1.7373557496	-0.406893
H	-1.3272132797	 2.0372448655	-0.2668064191	 0.149892
H	-1.663807132	 0.6137710007	-1.2374410486	 0.152885
H	-2.2046146641	 0.6747577907	 0.4617478	 0.12323
H	-0.4563210868	 0.3237543116	 2.2955242553	 0.111169
H	-0.6671602899	-1.2273883649	 1.5074209498	 0.124702
H	 2.1009677986	-1.1937879426	 0.2921513174	 0.280123
H	 3.3034424963	 0.1994317284	 2.5204835562	 0.114695
H	 1.8460535224	 1.2085259794	 2.969430936	 0.103245
H	 0.8460883484	-0.8236079251	 4.1570553883	 0.105316
H	 2.3191933529	-1.7974728148	 3.6854299355	 0.122689
H	 1.6221326097	 0.9719902388	-2.1578169943	 0.306038
56.2471	70.2649	91.9241	161.2709	274.3989	284.1987	309.3128	330.6241	353.0401	379.3993	433.6673	477.157	527.3632	576.8112	659.2095	752.5749	775.5087	830.438	876.2584	924.835	934.5673	958.8408	988.6562	998.1883	1040.1912	1050.1299	1058.8289	1075.4061	1187.2622	1199.8512	1221.3385	1290.0023	1324.6423	1362.0775	1395.048	1399.9671	1424.0739	1453.9511	1460.4178	1475.2225	1484.4891	1507.836	1732.211	3001.9339	3043.3705	3045.4246	3104.899	3131.0054	3135.3176	3136.5896	3217.1626	3231.1046	3710.3272	3822.8344
CC(CC1(O)CC1)=NO	CC(=NO)CC1(O)CC1	
InChI=1S/C6H11NO2/c1-5(7-9)4-6(8)2-3-6/h8-9H,2-4H2,1H3	InChI=1S/C6H11NO2/c1-5(7-9)4-6(8)2-3-6/h8-9H,2-4H2,1H3
