20
gdb 58980	3.50762	1.05151	0.82741	6.3156	88.42	-0.207	-0.0056	0.2013	1394.5422	0.171137	-403.192543	-403.183093	-403.182149	-403.227218	34.083	
C	-0.0130404471	 1.4214817642	 0.061861748	-0.336979
N	 0.0767527789	-0.0276999578	 0.0069083228	-0.128783
C	-0.1563238837	-0.7347481317	 1.2543027287	-0.347091
C	 0.0254240991	-0.6445864545	-1.2023548744	 0.4384
C	-0.0349120332	-0.0491711323	-2.4285922482	-0.372514
C	-0.0112991862	-1.0357832267	-3.4950241387	 0.40194
O	-0.0579617207	-0.8473551189	-4.6946511638	-0.373615
C	 0.0838046633	-2.4258658791	-2.8336208042	-0.341485
C	 0.0676420875	-2.1598163454	-1.3186044317	-0.329958
H	 0.674987894	 1.8671257803	-0.6613981302	 0.148441
H	-1.0271952396	 1.7852987734	-0.157239507	 0.130174
H	 0.2685786115	 1.7619166648	 1.0608984755	 0.127037
H	-1.2057480717	-0.6704905801	 1.5794370719	 0.126636
H	 0.1058849731	-1.7872571873	 1.1546200032	 0.146946
H	 0.4677572603	-0.3041181035	 2.0439056841	 0.132593
H	-0.1045394125	 1.0096608903	-2.6304956649	 0.089619
H	-0.74917738	-3.050518794	-3.1672465744	 0.123966
H	 1.0029263859	-2.9194505177	-3.1625044184	 0.125561
H	 0.9516819297	-2.5640446766	-0.8118981613	 0.119931
H	-0.8039199085	-2.6108444074	-0.830359837	 0.119179
75.498	98.3238	129.2019	148.2829	162.8287	216.2755	247.9141	378.8456	430.7842	522.8614	541.1357	558.395	573.1728	639.9646	831.1399	836.2918	854.0311	877.0932	955.5369	1014.5012	1018.1327	1084.4918	1127.2817	1158.6207	1162.7285	1175.2999	1199.7986	1240.6967	1245.648	1260.8145	1316.265	1352.2814	1426.3383	1450.8885	1461.8361	1479.2863	1483.029	1488.1346	1491.8491	1509.164	1524.0199	1642.8214	1791.4301	2991.2903	3004.6443	3030.6124	3060.7085	3066.0723	3072.7289	3085.0252	3107.3856	3126.175	3155.7998	3236.8692
CN(C)C1=CC(=O)CC1	CN(C)C1=CC(=O)CC1	
InChI=1S/C7H11NO/c1-8(2)6-3-4-7(9)5-6/h5H,3-4H2,1-2H3	InChI=1S/C7H11NO/c1-8(2)6-3-4-7(9)5-6/h5H,3-4H2,1-2H3
