19
gdb 37037	2.88355	1.76469	1.41999	1.7067	79.08	-0.2251	0.0227	0.2479	974.2289	0.161449	-385.8601	-385.853027	-385.852083	-385.891245	29.258	
C	 0.0841567495	 1.4073763859	-0.160583197	-0.37708
C	 1.4267872002	 0.7066182263	-0.0314448074	 0.194437
C	 1.57847724	 0.2065980623	 1.4032354885	-0.149269
O	 0.281236213	-0.4569714787	 1.3563024597	-0.335432
C	 0.1441352557	-0.0812806749	-0.0227405034	 0.432323
C	-0.2219888508	-1.0746648518	-1.0829871999	-0.368832
C	 0.6776581534	-0.8940709781	-2.2902693412	-0.051238
C	 1.8006840654	-0.1722423652	-2.3295921367	-0.051547
C	 2.4003880539	 0.6069991866	-1.1751861964	-0.366407
H	-0.3039588898	 1.9986695081	 0.6637915274	 0.111179
H	-0.1381358611	 1.7876778432	-1.1526051457	 0.119766
H	 2.3832790541	-0.5295862307	 1.5231051085	 0.103325
H	 1.6352587622	 0.9486727383	 2.209149564	 0.101669
H	-0.0890661313	-2.08407119	-0.6710529466	 0.128161
H	-1.2753154578	-1.0047834029	-1.3844995913	 0.110672
H	 0.3632447612	-1.4163055858	-3.1905598597	 0.088846
H	 2.3600359233	-0.1345489009	-3.2615735299	 0.087549
H	 2.7339759035	 1.5923410588	-1.5286177402	 0.108685
H	 3.3133552053	 0.0938375794	-0.8390898728	 0.113192
115.3592	226.0407	317.4126	352.4788	392.329	404.8076	501.9381	516.6772	567.1808	684.2811	737.3902	766.9386	846.682	870.1211	886.707	917.3803	949.6381	966.0519	967.9091	975.9606	1003.3032	1018.0054	1050.1727	1070.5276	1116.8326	1149.4238	1156.5328	1213.8408	1239.4172	1251.2163	1289.0469	1320.9866	1357.6257	1381.5924	1408.0328	1413.2567	1477.136	1478.8027	1490.7009	1518.8764	1709.6912	2999.3196	3011.3434	3013.9618	3022.6925	3041.874	3060.07	3117.7834	3143.4151	3166.7453	3212.3116
C1C23COC12CC=CC3	C1[C@@]23CO[C@@]12CC=CC3	
InChI=1S/C8H10O/c1-2-4-8-5-7(8,3-1)6-9-8/h1-2H,3-6H2	InChI=1S/C8H10O/c1-2-4-8-5-7(8,3-1)6-9-8/h1-2H,3-6H2/t7-,8-/m0/s1
