22
gdb 118260	4.26731	0.54228	0.49829	5.2899	83.99	-0.2717	0.0382	0.3099	2148.8293	0.192334	-404.366934	-404.355782	-404.354838	-404.404586	38.747	
C	-0.1132518029	 1.6500176088	 0.0005110386	-0.397114
C	-0.0032552057	 0.117058671	-0.0082873609	 0.012109
C	 0.6926164719	-0.4063644304	-1.2774621153	-0.17202
C	-0.0430533602	-0.1140624696	-2.5812277875	-0.086929
O	 0.6504848474	-0.7938231393	-3.6169563937	-0.419009
C	 0.7393362187	-0.4158062239	 1.2317246088	-0.180365
C	 0.0048773875	-0.146951315	 2.5619032629	-0.356509
C	 0.6960509294	-0.7370054588	 3.7061546415	 0.259985
N	 1.2553949871	-1.2089487381	 4.6005543561	-0.305487
H	 0.8813917475	 2.1105859102	-0.0305335315	 0.120609
H	-0.6767240252	 2.0179484906	-0.8611581269	 0.122132
H	-0.6250190986	 2.021108816	 0.8936064583	 0.114507
H	-1.0223502974	-0.2990365499	 0.0115477982	 0.073508
H	 1.7066765762	 0.0082919574	-1.3455316026	 0.105611
H	 0.807359885	-1.4945404334	-1.2077959887	 0.108551
H	-1.0867555492	-0.4634441418	-2.503995957	 0.083544
H	-0.0749905335	 0.9684054109	-2.7757296609	 0.088378
H	 0.2284959854	-0.5795569932	-4.4539552669	 0.286636
H	 0.8815883378	-1.4969686694	 1.1302849804	 0.119681
H	 1.7421798544	 0.025281209	 1.2819102262	 0.118588
H	-0.0979078146	 0.9274736861	 2.7456540187	 0.153733
H	-1.0112066507	-0.5579841472	 2.5222292422	 0.14986
48.4777	69.7807	76.0311	93.9165	116.9892	190.7535	232.845	266.3094	272.6937	317.4971	365.9352	395.2702	429.07	516.9228	566.1837	760.3137	793.8366	858.9498	935.0159	944.8288	949.3618	992.3503	1017.9748	1045.9111	1067.3301	1119.5178	1142.1795	1172.108	1210.9168	1241.8074	1246.4759	1283.8002	1312.3795	1321.0658	1325.3527	1370.9127	1379.0281	1390.3224	1414.6259	1461.6531	1468.2327	1484.7113	1495.7332	1499.3241	1509.218	1528.2687	2361.952	2956.7903	2986.394	2996.8136	3026.1483	3032.2727	3036.9144	3045.3865	3068.3109	3074.3479	3094.0576	3100.6301	3111.5508	3831.0099
CC(CCO)CCC#N	C[C@@H](CCO)CCC#N	
InChI=1S/C7H13NO/c1-7(4-6-9)3-2-5-8/h7,9H,2-4,6H2,1H3	InChI=1S/C7H13NO/c1-7(4-6-9)3-2-5-8/h7,9H,2-4,6H2,1H3/t7-/m1/s1
