15
gdb 22465	3.34019	0.81849	0.67243	8.957	78.85	-0.2292	-0.0571	0.172	1570.2696	0.112054	-450.082145	-450.072787	-450.071843	-450.117221	32.26	
O	-0.2758204991	 0.3485528963	-0.3023471902	-0.443713
N	-0.0525574339	 1.5508179945	-0.0477447814	 0.090313
C	 1.0987844238	 2.188960887	 0.0152531739	 0.111302
C	 1.0928471531	 3.6649141176	 0.3626183802	-0.233235
N	-0.2698813237	 4.1413599624	 0.4659170869	-0.25547
C	-0.5413038027	 5.2763484712	-0.0482844392	 0.12021
N	-1.7614733645	 5.8628809738	 0.0552705938	-0.494224
H	-2.00011004	 6.6235433209	-0.5561457603	 0.271005
H	-2.5198413117	 5.3179692587	 0.4345323349	 0.268202
C	 2.3078695599	 1.4961790931	-0.2144878226	 0.261635
N	 3.3387056897	 0.9964515641	-0.3945691992	-0.332407
H	 1.6086235682	 3.7953813536	 1.3260230606	 0.140033
H	 1.690426997	 4.2145049334	-0.384387006	 0.117743
H	-0.8482645456	 2.1815533755	 0.1555801448	 0.271022
H	 0.1983506894	 5.888996338	-0.5806629161	 0.107583
56.9661	77.5538	130.0713	162.3301	234.125	270.8231	284.7881	324.737	347.0977	386.1022	478.0156	578.8183	606.1266	611.1911	722.414	834.1272	959.7285	1002.1685	1028.8681	1039.5663	1163.5324	1222.852	1238.4459	1304.0331	1347.7037	1390.7278	1422.9816	1487.0503	1498.3851	1630.1142	1663.5799	1761.6122	2326.534	2957.2945	2997.4311	3039.0753	3263.1139	3602.1246	3733.5957
[O-]N=C(CNC=[NH2+])C#N	[O]N[C](CN=CN)C#N	
InChI=1S/C4H6N4O/c5-1-4(8-9)2-7-3-6/h3,9H,2H2,(H2,6,7)	InChI=1S/C4H6N4O/c5-1-4(8-9)2-7-3-6/h3,8H,2H2,(H2,6,7)
