18
gdb 11593	5.85365	0.92035	0.83462	2.4412	70.46	-0.2434	0.0318	0.2752	1372.3153	0.15358	-381.127432	-381.11835	-381.117406	-381.16331	31.259	
C	-0.0821592565	 1.4664558607	-0.1603068428	-0.481968
C	 0.2738146895	-0.0093037322	-0.066084398	 0.409779
O	 1.0980810358	-0.4261524572	 0.727286614	-0.370553
N	-0.3990334676	-0.8260892646	-0.9334889683	-0.31517
C	-0.1471549787	-2.2547593064	-1.0164945375	-0.184082
C	 0.1383624455	-2.6980661829	-2.4311926111	 0.023837
C	-0.1915077567	-4.0746388004	-2.8652028696	-0.242192
N	-0.9704584653	-2.9321181211	-3.3793223838	-0.322309
H	 0.8223852942	 2.0294912571	-0.4053009125	 0.154088
H	-0.8524871627	 1.6900062371	-0.9029522653	 0.110576
H	-0.4225589491	 1.8082055228	 0.8205159485	 0.153594
H	-1.0445942105	-0.4176031843	-1.5891690252	 0.246397
H	 0.7063800846	-2.4469607401	-0.3605246272	 0.155945
H	-1.0022982335	-2.8238263874	-0.6208285137	 0.095875
H	 0.9918585325	-2.2038281106	-2.8908217387	 0.102429
H	 0.4293985715	-4.5762956124	-3.6012172168	 0.125404
H	-0.6587010857	-4.7380123818	-2.1413355837	 0.114332
H	-1.8595691373	-2.8900153964	-2.8837540685	 0.224019
28.1584	40.739	81.9084	96.7735	237.0744	267.1694	338.8827	432.39	452.0434	503.3761	619.7689	637.0257	791.3591	826.6972	893.0692	930.6192	958.4167	994.118	1026.3969	1050.6349	1064.7253	1114.9198	1129.5205	1160.566	1207.9907	1250.8361	1262.8369	1284.1947	1309.5314	1354.7379	1396.4079	1435.5601	1470.4307	1486.105	1491.2387	1512.2157	1536.008	1781.4591	2989.0574	3050.1072	3102.5617	3110.0841	3128.1974	3130.0509	3133.363	3196.0052	3473.2767	3645.3488
CC(=O)NCC1CN1	CC(=O)NC[C@H]1CN1	
InChI=1S/C5H10N2O/c1-4(8)6-2-5-3-7-5/h5,7H,2-3H2,1H3,(H,6,8)	InChI=1S/C5H10N2O/c1-4(8)6-2-5-3-7-5/h5,7H,2-3H2,1H3,(H,6,8)/t5-/m0/s1
