20
gdb 86320	1.95805	1.7396	1.09337	6.1701	74.9	-0.2429	0.0293	0.2722	1159.2695	0.171718	-440.314791	-440.305799	-440.304855	-440.34874	33.998	
C	-0.1072084111	 1.6621240159	-0.7712785296	-0.406322
C	-0.0231327705	 0.2091390082	-0.3337169217	 0.042532
C	 0.664662528	-0.8249176036	-1.2668733796	-0.247234
C	 1.2276996604	-1.5307662394	-0.0156778971	 0.003174
N	 2.6093418179	-2.0195875406	-0.113884375	-0.537767
H	 3.291969819	-0.4701518993	 0.168322733	 0.318548
H	 2.8383247854	-2.63927992	 0.6580431308	 0.247629
H	 2.739253809	-2.5466864802	-0.9718167838	 0.247813
C	 0.9740281457	-0.2249156115	 0.8072088505	-0.186901
C	 2.1154926623	 0.7757319645	 1.0143585026	 0.400459
O	 1.9141860913	 1.8164551286	 1.5884457813	-0.349775
O	 3.3164616472	 0.4626258206	 0.5184356699	-0.383316
H	 0.865350686	 2.0402571659	-1.0999621472	 0.130096
H	-0.8108230488	 1.7662931506	-1.6047158515	 0.106104
H	-0.4442212471	 2.301243411	 0.0490760769	 0.139835
H	-1.0213103893	-0.1503089434	-0.0625427326	 0.080704
H	 0.0431223485	-1.4113494145	-1.9479749215	 0.100113
H	 1.4726111054	-0.3524866105	-1.8366378638	 0.11236
H	 0.5372196747	-2.3119540548	 0.3262240775	 0.081204
H	 0.5102115857	-0.3624713873	 1.7859659209	 0.100743
58.5217	91.362	174.0984	209.8078	274.8359	298.4117	336.5878	374.5706	406.5615	444.8417	528.5716	581.0134	665.1072	740.8336	788.6266	817.7939	897.3652	906.639	929.1891	955.104	974.8098	1014.3555	1053.6971	1071.4917	1118.0107	1137.6115	1160.7027	1219.9349	1247.5831	1253.6568	1270.2597	1284.8326	1302.8731	1353.4165	1362.6637	1403.5719	1416.0131	1485.5236	1490.5322	1493.5234	1509.2194	1644.1585	1838.1914	3013.9436	3035.436	3043.708	3049.0326	3091.4471	3102.4541	3107.961	3121.639	3155.4391	3493.624	3574.3237
CC1CC([NH3+])C1C([O-])=O	C[C@H]1C[C@@H](N)[C@H]1C(=O)O	
InChI=1S/C6H11NO2/c1-3-2-4(7)5(3)6(8)9/h3-5H,2,7H2,1H3,(H,8,9)	InChI=1S/C6H11NO2/c1-3-2-4(7)5(3)6(8)9/h3-5H,2,7H2,1H3,(H,8,9)/t3-,4+,5-/m0/s1
