15
gdb 131730	4.96988	1.03895	0.86393	4.3617	74.6	-0.2189	-0.0733	0.1456	1263.917	0.11387	-450.117009	-450.108815	-450.107871	-450.151188	29.317	
O	 0.0167174594	 1.4454884324	 0.0114220754	-0.394037
C	 0.001553512	 0.0405692844	 0.001077984	-0.161544
C	-1.4199468196	-0.4604573614	 0.0122866823	 0.277621
N	-2.4116169162	 0.3799711229	 0.0217469921	-0.187823
N	-3.6306148964	-0.1471952495	 0.0308663531	-0.236443
C	-3.963352017	-1.5093812804	 0.0313094564	 0.437133
N	-5.1957382824	-1.8330828106	 0.0409073798	-0.558253
N	-2.8732383048	-2.3909416471	 0.0207371243	-0.292575
C	-1.688681269	-1.8775057838	 0.0120121202	-0.024673
H	 0.9347846604	 1.7312503956	-0.0004539826	 0.295765
H	 0.5084885605	-0.3707353225	-0.8904038343	 0.107788
H	 0.5267990602	-0.3840706439	 0.875549263	 0.107616
H	-4.3946331143	 0.5137200733	 0.0384500578	 0.283347
H	-5.2692213547	-2.8487728698	 0.0396670346	 0.225643
H	-0.8465640981	-2.5729734396	 0.0040466939	 0.120434
27.5072	67.0371	187.9726	222.5387	283.1343	381.1651	384.3064	445.4528	492.7791	586.5866	647.1754	698.2242	757.7748	790.6269	836.3127	837.9193	979.246	1012.3154	1045.0786	1063.3154	1111.9387	1226.032	1236.8552	1250.153	1285.6095	1328.8684	1430.3588	1443.1276	1476.2782	1514.428	1573.3947	1675.6673	1728.3914	2937.8887	2950.826	3105.3696	3515.2963	3609.5752	3836.5418
OCC1=NNC(=N)N=C1	OCc1n[nH]c([NH])nc1	
InChI=1S/C4H6N4O/c5-4-6-1-3(2-9)7-8-4/h1,9H,2H2,(H2,5,6,8)	InChI=1S/C4H11N4O/c5-4-6-1-3(2-9)7-8-4/h3-9H,1-2H2
