25
gdb 112710	2.99264	1.0058	0.90558	1.2866	88.62	-0.2586	0.0678	0.3264	1465.0567	0.22915	-389.5167	-389.506466	-389.505522	-389.551865	39.008	
C	-0.1851518252	 1.4909156734	 0.0997736758	-0.386619
C	-0.1732849232	-0.0207706155	-0.1444292107	-0.179513
C	 0.7653412567	-0.4702293985	-1.2742844497	 0.058965
C	 0.9068330852	-2.017233055	-1.3409924061	-0.234409
C	 0.8580423632	-2.3871798956	-2.8363713901	 0.035322
C	 0.5181061769	-3.8460116723	-3.1329512619	-0.408397
C	-0.1342039066	-1.3568691669	-3.3974913734	 0.120699
O	-1.444007556	-1.7695993399	-3.0035254419	-0.439296
C	 0.2832807632	-0.0534165326	-2.6990957763	-0.255772
H	 0.8130531235	 1.8534746317	 0.3708830466	 0.111538
H	-0.5040631104	 2.045381498	-0.7895536383	 0.112616
H	-0.867056841	 1.7560702612	 0.9140500749	 0.110186
H	 0.1237292297	-0.5290122237	 0.7823018847	 0.091135
H	-1.1862319827	-0.3750586283	-0.3756132664	 0.098916
H	 1.7494073554	-0.0224217442	-1.0900887566	 0.060421
H	 1.8189381489	-2.3739704286	-0.8531613922	 0.086149
H	 0.0608936209	-2.4886123816	-0.8283512052	 0.104734
H	 1.8325344216	-2.1495555389	-3.2858266484	 0.065055
H	-0.4717271953	-4.0969888142	-2.7435515759	 0.133377
H	 0.5152963681	-4.0434716029	-4.2105091909	 0.105017
H	 1.2500442694	-4.5187665774	-2.673649818	 0.105252
H	-0.0772323779	-1.281311979	-4.4938281233	 0.050326
H	-2.0601996804	-1.0768469599	-3.2592194488	 0.280545
H	-0.5410574929	 0.6686197264	-2.675221224	 0.080387
H	 1.094508039	 0.4181012543	-3.2649043737	 0.093364
41.6848	127.2022	130.6309	207.4871	224.8899	246.711	258.0972	283.4212	312.1946	384.387	384.7882	412.0945	531.6278	596.8379	710.76	776.2808	799.761	846.3557	864.2669	914.8317	934.1742	945.5899	989.3117	999.2774	1016.37	1051.2922	1077.4026	1083.0044	1105.0375	1151.1505	1160.8872	1201.9211	1229.9291	1241.6216	1275.6333	1288.0682	1311.7901	1322.5256	1339.045	1355.716	1358.7934	1383.1331	1388.7937	1407.3127	1410.861	1426.4063	1477.5959	1489.7629	1493.0961	1497.0105	1499.3376	1503.6307	1506.4692	2982.4531	3006.2732	3013.5482	3018.3875	3027.9855	3033.9494	3036.1826	3042.7423	3052.2771	3071.3715	3086.9065	3093.3362	3094.5724	3098.9322	3123.7017	3826.5575
CCC1CC(C)C(O)C1	CC[C@H]1C[C@@H](C)[C@@H](O)C1	
InChI=1S/C8H16O/c1-3-7-4-6(2)8(9)5-7/h6-9H,3-5H2,1-2H3	InChI=1S/C8H16O/c1-3-7-4-6(2)8(9)5-7/h6-9H,3-5H2,1-2H3/t6-,7+,8+/m1/s1
