21
gdb 26651	2.14896	1.58421	0.93302	0.5657	88.46	-0.1925	0.0348	0.2273	1312.7512	0.180082	-387.153047	-387.142518	-387.141574	-387.188442	37.377	
C	 0.171881158	 1.4550213063	-0.0083385728	-0.494017
C	-0.0435889869	-0.0163346427	-0.0046653125	 0.248679
C	-1.1488391855	-0.8105134205	-0.033676692	 0.098349
C	-2.5864014724	-0.3947005653	-0.0817088428	-0.506997
C	-0.6669062162	-2.1754414926	-0.0090980168	 0.098525
C	-1.5241169203	-3.4029021304	-0.0267502577	-0.507
C	 0.6915455688	-2.0985956287	 0.0330955686	 0.248671
C	 1.7831508964	-3.1075109442	 0.0737529563	-0.494022
O	 1.0845501541	-0.7884306802	 0.036074645	-0.225994
H	 0.7638810525	 1.7736711734	-0.8745393285	 0.133294
H	-0.7855885698	 1.9791193242	-0.0431191555	 0.130125
H	 0.7067751204	 1.7862253628	 0.8897126373	 0.133286
H	-3.0899724932	-0.784147761	-0.9750859676	 0.124679
H	-3.1450322947	-0.7705812113	 0.7843155951	 0.124679
H	-2.6932991187	 0.6932719208	-0.0935295541	 0.120834
H	-2.1493171873	-3.4464862666	-0.9270832794	 0.124672
H	-0.9241139358	-4.3164353681	 0.0000215849	 0.120834
H	-2.2057341407	-3.4319863581	 0.832265348	 0.124683
H	 2.4525040298	-3.0119531521	-0.7894813838	 0.133307
H	 2.3985189602	-2.9997399313	 0.9748613742	 0.133291
H	 1.3675942613	-4.1174398645	 0.068021864	 0.130122
102.5646	103.289	129.0297	131.5488	146.0936	172.1255	242.5514	262.1076	275.9864	308.1917	335.1657	497.7978	560.6609	602.5278	634.3185	668.2139	714.6667	820.368	936.31	967.6586	1022.9256	1051.4543	1055.8341	1065.6806	1073.3705	1111.4398	1157.9333	1175.1722	1278.1554	1292.2398	1399.591	1411.6076	1419.9718	1429.3508	1435.6506	1471.7591	1472.2209	1478.3027	1486.7232	1489.3302	1490.8848	1492.2692	1500.9428	1645.0951	1697.8113	3019.2086	3020.7416	3024.2391	3025.8145	3063.9084	3064.3163	3071.3176	3071.5375	3107.552	3108.9532	3125.998	3126.1904
CC1=C(C)C(C)=C(C)O1	Cc1c(C)c(C)c(C)o1	
InChI=1S/C8H12O/c1-5-6(2)8(4)9-7(5)3/h1-4H3	InChI=1S/C8H12O/c1-5-6(2)8(4)9-7(5)3/h1-4H3
