23
gdb 117768	2.42323	0.97765	0.85924	4.2191	86.55	-0.2372	0.0352	0.2725	1526.8659	0.203716	-384.48247	-384.471161	-384.470217	-384.518941	40.63	
C	-0.1202855376	 1.6347093956	-0.0693011165	-0.381587
C	 0.019880482	 0.1107328249	 0.002223934	-0.194417
C	-1.3425113306	-0.5863138351	 0.0721150592	-0.192652
C	-1.3298134394	-2.1383449026	 0.0578651442	 0.083703
C	-0.5532352805	-2.708441825	 1.2695400542	-0.415413
N	-2.735337532	-2.5670906183	-0.0152426275	-0.300309
C	-2.99740835	-4.0026178543	-0.0530590834	-0.33796
C	-0.6634244201	-2.5962249249	-1.1824071322	 0.318403
N	-0.1205821357	-2.954910774	-2.1375622525	-0.35967
H	 0.8596830517	 2.1185498197	-0.1170654153	 0.117372
H	-0.6863458921	 1.9383069344	-0.9564346202	 0.121349
H	-0.6441428685	 2.0287998627	 0.808841426	 0.113412
H	 0.5677956341	-0.2484596752	-0.8766812363	 0.125573
H	 0.6260591615	-0.1539800758	 0.876296167	 0.100381
H	-1.8621435653	-0.2824502343	 0.9915316338	 0.092403
H	-1.9705009576	-0.2634672515	-0.7647145607	 0.123707
H	-1.0186717893	-2.3512725895	 2.1942185733	 0.114585
H	-0.5694983206	-3.8002514437	 1.2710731594	 0.135175
H	 0.4921545867	-2.3915327543	 1.2623778798	 0.137602
H	-3.2341447088	-2.1385257819	 0.7572470081	 0.22
H	-4.0749048726	-4.1539838715	-0.1626183128	 0.126466
H	-2.5113543871	-4.4372997288	-0.9317232297	 0.150126
H	-2.6647381582	-4.5657995265	 0.8333981983	 0.10175
66.754	90.5055	99.539	137.3778	167.3171	198.7824	213.7281	246.9611	269.807	304.9848	321.3282	379.3218	399.2342	454.3423	581.1204	626.214	696.5329	724.8957	750.7528	864.5021	892.5214	935.6295	949.3425	1011.2214	1051.1707	1075.2325	1122.0453	1132.1054	1156.5747	1185.1884	1195.1331	1250.7053	1288.179	1319.8529	1336.9842	1392.1498	1403.8411	1414.2964	1457.4177	1473.6392	1475.4362	1487.8317	1493.879	1494.7255	1500.64	1509.7848	1514.4371	1523.6253	2354.2662	2975.8682	3013.763	3030.9716	3034.9073	3044.0805	3063.6541	3075.1296	3083.1911	3101.3795	3108.2656	3115.4606	3121.0561	3134.9303	3526.276
CCCC(C)(NC)C#N	CCC[C@@](C)(NC)C#N	
InChI=1S/C7H14N2/c1-4-5-7(2,6-8)9-3/h9H,4-5H2,1-3H3	InChI=1S/C7H14N2/c1-4-5-7(2,6-8)9-3/h9H,4-5H2,1-3H3/t7-/m1/s1
