20
gdb 90010	2.89735	1.35095	1.09562	2.4017	79.88	-0.2606	0.0257	0.2863	1171.0984	0.1715	-403.142926	-403.134433	-403.133489	-403.176095	32.58	
C	-0.4407258906	 1.4549164732	 0.0101066377	-0.409899
C	-0.0978565397	-0.0314908967	 0.0218833735	 0.036425
C	 1.0961746122	-0.4229654561	-0.9014102146	-0.301305
C	 2.0116566524	-0.5272030447	 0.3470151989	 0.209194
C	 3.1604096684	-1.5387426525	 0.5023524289	-0.156899
O	 4.1130866712	-0.4413507528	 0.6874870826	-0.261683
C	 3.1093350443	 0.493939122	 0.553494424	 0.396149
N	 3.1474337081	 1.7475250849	 0.5962691604	-0.548059
C	 0.7499647313	-0.485772751	 1.249177865	-0.301321
H	 0.4553507034	 2.063401306	 0.172130327	 0.157735
H	-0.8818446937	 1.7460431606	-0.9496405471	 0.108916
H	-1.1631756042	 1.6949890271	 0.7980718642	 0.108916
H	-1.0015663804	-0.625352009	-0.1409434609	 0.066594
H	 0.9632167054	-1.3943738319	-1.3866761491	 0.098878
H	 1.395625798	 0.3122717832	-1.652159551	 0.116459
H	 3.1260563496	-2.1782700408	 1.3888496287	 0.118663
H	 3.4113339509	-2.1266705585	-0.3850175345	 0.11866
H	 4.0945778599	 2.0926116732	 0.7586659381	 0.227244
H	 0.7921413692	 0.2027910604	 2.0965103005	 0.116457
H	 0.4804557445	-1.4819559466	 1.6121927977	 0.098876
81.5206	109.685	176.3446	236.1912	270.9786	299.7237	357.7996	365.4713	485.8067	524.8002	682.6364	755.4221	785.0083	810.3946	820.1171	858.9577	907.668	909.7508	917.098	946.9364	968.4216	1012.5721	1059.0833	1063.5988	1140.7571	1147.383	1162.8172	1190.826	1214.2853	1234.0091	1238.7097	1271.8365	1280.9971	1295.826	1365.8151	1373.8483	1419.2568	1462.953	1482.0212	1501.289	1510.3634	1511.2191	1815.1747	3025.328	3049.3096	3051.148	3051.238	3063.8643	3091.8401	3106.3741	3109.1849	3112.6611	3114.0726	3479.561
CC1CC2(COC2=N)C1	C[C@H]1C[C@]2(CO[C]2[NH])C1	
InChI=1S/C7H11NO/c1-5-2-7(3-5)4-9-6(7)8/h5,8H,2-4H2,1H3	InChI=1S/C7H11NO/c1-5-2-7(3-5)4-9-6(7)8/h5,8H,2-4H2,1H3/t5-,7+
