23
gdb 92646	2.85248	1.35918	1.08427	1.3641	84.78	-0.2396	0.078	0.3176	1213.7941	0.208722	-388.289913	-388.281672	-388.280728	-388.322346	33.266	
C	-0.1783569756	 1.6084319944	-0.0464957651	-0.420914
C	 0.0390022672	 0.1023928082	 0.019693579	 0.04431
C	 1.0599447699	-0.5840497898	-0.9315640389	-0.262543
C	 1.3376687375	-1.6156531508	 0.1981027073	 0.03747
C	 2.7318328777	-2.1806476376	 0.4670248627	-0.240044
C	 3.6419758657	-1.153486777	 1.1472526741	-0.075806
O	 3.0004528724	-0.5555709039	 2.2604525868	-0.243333
C	 1.90941096	 0.2520153334	 1.8444418827	-0.088751
C	 0.7772236072	-0.5774040872	 1.2210848411	-0.04987
H	 0.7590656644	 2.1674887675	 0.0330403549	 0.115753
H	-0.6422907398	 1.8862463408	-0.9995897885	 0.114245
H	-0.8422554615	 1.9527439484	 0.7547081776	 0.113879
H	-0.9297427678	-0.3980094655	-0.0960150711	 0.072973
H	 0.6940767145	-0.9658400396	-1.8884613918	 0.091574
H	 1.9230957998	 0.0610136778	-1.1277702377	 0.095885
H	 0.6239952109	-2.4395510368	 0.0953918066	 0.069412
H	 2.6410117482	-3.0449497903	 1.1359428415	 0.101847
H	 3.1957817694	-2.5403591099	-0.4602236036	 0.091727
H	 4.5488218957	-1.6310480845	 1.5299141315	 0.102378
H	 3.9533357165	-0.3712760902	 0.4330223102	 0.082137
H	 1.5616757609	 0.7822737296	 2.735704208	 0.104223
H	 2.2800412329	 1.0098587656	 1.1356952558	 0.082251
H	 0.1425785238	-0.9838261224	 2.0137695869	 0.061199
120.1566	166.5491	197.5185	228.3396	323.1177	332.8438	388.8475	440.7694	472.0182	502.3965	598.4999	646.0744	749.6095	803.4575	874.021	886.9843	900.1061	912.4795	952.411	968.9549	1000.1816	1028.8888	1050.9728	1068.443	1109.812	1142.9388	1150.6612	1166.9039	1172.6148	1227.5048	1239.6091	1250.2232	1264.1201	1282.2813	1306.3648	1333.3563	1350.8843	1355.6233	1380.5701	1386.0049	1410.873	1414.4743	1425.8897	1471.6988	1490.0809	1494.1261	1497.9002	1501.3386	1509.6881	2951.9421	2974.1479	3019.937	3026.4572	3030.1862	3042.8178	3048.0423	3058.0569	3062.9966	3080.2929	3083.4692	3088.697	3097.6861	3104.2814
CC1CC2CCOCC12	C[C@H]1C[C@H]2CCOC[C@@H]12	
InChI=1S/C8H14O/c1-6-4-7-2-3-9-5-8(6)7/h6-8H,2-5H2,1H3	InChI=1S/C8H14O/c1-6-4-7-2-3-9-5-8(6)7/h6-8H,2-5H2,1H3/t6-,7+,8-/m0/s1
