20
gdb 72908	2.67855	1.77605	1.40104	1.4492	76.76	-0.2288	0.0606	0.2894	1001.0837	0.172557	-403.108887	-403.101233	-403.100289	-403.14098	30.574	
C	-0.2139636471	 1.502602989	 0.0152039591	-0.483873
C	 0.0314761701	 0.0011151405	-0.0321935957	 0.285743
C	-1.1434428896	-0.8951116889	 0.4298153068	-0.125957
O	-0.3426302562	-1.5085459552	 1.4601477728	-0.293855
C	 0.793998331	-0.660622808	 1.1538212105	 0.07085
C	 2.0036029054	-1.3627452872	 0.5676298588	-0.041872
C	 1.7312678843	-2.5319046793	-0.3044192906	-0.244739
N	 2.0007276864	-1.2264856958	-0.910472381	-0.096451
C	 0.801414298	-0.4531562155	-1.300566849	-0.245625
H	 0.727075726	 2.0566262151	-0.0720892934	 0.12407
H	-0.8622179507	 1.820608909	-0.8096332944	 0.122082
H	-0.6967641445	 1.7997262036	 0.9516875415	 0.12085
H	-1.995002731	-0.3480542825	 0.854413362	 0.098614
H	-1.517567196	-1.6267531939	-0.2978466682	 0.097047
H	 1.0518336641	-0.0257121197	 2.0083961742	 0.07266
H	 2.9632398165	-1.2472220696	 1.0627325541	 0.088329
H	 2.5044071945	-3.2772268316	-0.4688763274	 0.114284
H	 0.7162321047	-2.9200861391	-0.2995904995	 0.125305
H	 0.1745441189	-1.0447273467	-1.9772085119	 0.105365
H	 1.1475428755	 0.4215314857	-1.8612255786	 0.107172
66.354	216.8956	237.1093	254.2516	328.4218	371.6117	396.9079	498.6328	613.2424	658.5385	695.0311	765.8296	816.2997	874.8494	882.5885	919.6391	931.3043	956.4343	973.1357	989.9669	1012.3261	1034.2069	1067.1054	1093.4573	1115.3856	1142.546	1158.3412	1171.8236	1202.0948	1225.026	1264.122	1274.8259	1281.2528	1325.9385	1345.8454	1370.2702	1390.6624	1415.3715	1493.4415	1495.2524	1499.8472	1510.9114	1526.9281	3004.3305	3024.7428	3034.4544	3047.6267	3048.6815	3073.147	3090.8027	3101.0785	3109.0149	3150.6133	3195.353
CC12COC1C1CN1C2	C[C@]12CO[C@H]1[C@H]1CN1C2	
InChI=1S/C7H11NO/c1-7-3-8-2-5(8)6(7)9-4-7/h5-6H,2-4H2,1H3	InChI=1S/C7H11NO/c1-7-3-8-2-5(8)6(7)9-4-7/h5-6H,2-4H2,1H3/t5-,6+,7+,8?/m1/s1
