17
gdb 83982	2.64599	1.59359	1.22317	1.8549	67.32	-0.2556	-0.0398	0.2158	1026.3318	0.136336	-458.959954	-458.951923	-458.950979	-458.992997	29.563	
O	 0.6292486685	 0.5837567829	 1.081599762	-0.432986
C	 0.0882065402	-0.3740829536	 0.2183589798	 0.046256
C	-1.4600113698	-0.4578426947	-0.0143783614	-0.093742
C	-2.2175287705	 0.8793789854	 0.0083554291	-0.089741
O	-2.9609440771	 0.9337326574	-1.2031059178	-0.249561
C	-2.1863545159	 0.3469854389	-2.2425910201	-0.095235
C	-1.2254313094	-0.6404543013	-1.5497304931	-0.161335
C	 0.2012851282	-0.12373973	-1.2874048433	 0.328917
O	 0.9827588861	 0.5263824592	-1.9238957646	-0.305845
H	 1.151576956	 1.1897850017	 0.5414448172	 0.301003
H	 0.46727706	-1.3760077628	 0.469319934	 0.107534
H	-1.9777491049	-1.2533503277	 0.5191128345	 0.086322
H	-2.9256499342	 0.9606116815	 0.8355113756	 0.120833
H	-1.51197209	 1.7216690937	 0.0814960376	 0.098229
H	-2.8737341257	-0.1453063775	-2.9359519529	 0.114148
H	-1.619250109	 1.1090864918	-2.7970307993	 0.114434
H	-1.2691576626	-1.6603860349	-1.9337780374	 0.110768
69.5465	142.9924	162.4757	193.4272	233.2369	256.9671	486.4447	523.7193	569.7709	646.7287	669.0938	776.026	836.7375	861.3023	867.0587	929.6867	960.5182	1003.8264	1046.3349	1047.5466	1076.3447	1103.7992	1112.0026	1162.3636	1198.2109	1231.1929	1240.6743	1260.3345	1273.1891	1312.8747	1341.0015	1366.2456	1387.0766	1394.3741	1514.8795	1526.5031	1872.5183	2986.9135	2997.8995	3001.3947	3082.4625	3103.3624	3108.8716	3127.377	3779.2787
OC1C2COCC2C1=O	O[C@H]1[C@H]2COC[C@H]2C1=O	
InChI=1S/C6H8O3/c7-5-3-1-9-2-4(3)6(5)8/h3-5,7H,1-2H2	InChI=1S/C6H8O3/c7-5-3-1-9-2-4(3)6(5)8/h3-5,7H,1-2H2/t3-,4+,5-/m0/s1
