12
gdb 25179	3.13558	1.52202	1.02465	6.909	72.47	-0.2613	-0.0984	0.1629	1044.0534	0.078862	-435.555494	-435.548522	-435.547578	-435.587255	25.621	
O	-0.0693601915	-0.0483452143	 0.0047226765	-0.305988
C	 0.0111480611	 1.1433201289	 0.0092638217	 0.413932
O	-1.1894529903	 1.8858549767	 0.0287621194	-0.208918
C	-1.2190191867	 3.2210093327	 0.0355669045	 0.10105
C	-0.105481078	 3.9878167059	 0.024490513	-0.187753
C	 1.1524285627	 3.3287226498	 0.0046760614	-0.115177
C	 1.22326315	 1.9631370212	-0.0028092147	-0.076344
C	 2.4740942546	 1.2807435137	-0.0226079859	 0.254435
N	 3.5053704431	 0.7552999579	-0.0387576423	-0.321667
H	-2.2333482949	 3.6031908457	 0.0508436166	 0.160976
H	-0.1832852963	 5.0657338331	 0.0306971557	 0.135376
H	 2.0690915362	 3.9084771289	-0.0046674559	 0.150078
100.614	152.2248	193.959	363.0267	405.5607	466.9948	498.5272	555.029	582.8878	589.198	719.6622	787.7645	806.8496	869.1886	955.1838	965.6256	985.1614	1073.4199	1119.9391	1221.5688	1288.761	1366.0467	1449.9266	1578.6556	1661.7676	1862.3761	2346.0516	3199.5004	3209.3109	3241.4972
O=C1OC=CC=C1C#N	O=c1occcc1C#N	
InChI=1S/C6H3NO2/c7-4-5-2-1-3-9-6(5)8/h1-3H	InChI=1S/C6H3NO2/c7-4-5-2-1-3-9-6(5)8/h1-3H
