14
gdb 10570	2.64571	1.90412	1.33498	5.0115	67.59	-0.302	-0.0133	0.2887	929.007	0.106717	-341.600674	-341.592758	-341.591814	-341.63289	28.285	
C	-0.0800321669	 1.5274249434	-0.013097007	-0.420561
C	 0.0305088035	 0.0219490582	-0.0032165959	-0.025659
C	 1.3236006274	-0.6758432944	-0.2388671235	-0.300576
C	 0.721754629	-0.7030718334	 1.178578771	 0.022535
C	 1.3605960208	 0.0928174712	 2.1962117387	 0.251855
N	 1.8755585405	 0.7531063605	 2.9932720632	-0.332488
C	 0.1361375297	-1.9390421191	 1.6335052617	 0.246225
N	-0.347731073	-2.934622234	 1.9667458622	-0.324997
H	 0.8212652941	 2.0015454519	 0.3837003869	 0.149165
H	-0.2264149223	 1.8790158158	-1.0392205079	 0.138517
H	-0.9313557947	 1.8627232556	 0.586066482	 0.146088
H	-0.8549832799	-0.5087538853	-0.3395555413	 0.134787
H	 1.3326370608	-1.6227532844	-0.764818773	 0.158738
H	 2.2204866909	-0.0763646159	-0.3465839172	 0.15637
132.4286	136.9881	163.6842	187.5561	233.9798	334.0733	388.598	488.5962	519.595	598.1844	609.4439	613.0128	778.9883	878.2031	906.2229	949.1449	1023.8462	1072.1442	1090.6572	1129.6951	1199.09	1248.7457	1293.9735	1400.042	1425.9784	1480.9396	1491.1649	1499.4704	2358.524	2361.9491	3045.9776	3114.3606	3125.7513	3149.9252	3167.0394	3245.5734
CC1CC1(C#N)C#N	C[C@H]1CC1(C#N)C#N	
InChI=1S/C6H6N2/c1-5-2-6(5,3-7)4-8/h5H,2H2,1H3	InChI=1S/C6H6N2/c1-5-2-6(5,3-7)4-8/h5H,2H2,1H3/t5-/m0/s1
