15
gdb 20698	4.78358	1.42795	1.13386	4.5843	62.99	-0.2518	0.0069	0.2588	1021.72	0.120116	-396.01197	-396.003997	-396.003053	-396.045952	27.493	
C	 0.2179608674	 1.3940352576	-0.0900450495	-0.498212
C	 0.0667906383	-0.0891191739	-0.0821689487	 0.362389
N	 0.2842452888	-0.915213801	-1.0918411353	-0.363056
C	 0.0391595332	-2.1487361873	-0.5574218981	 0.318634
C	 0.1581178127	-3.3819479222	-1.403356937	-0.147503
O	 1.2195724238	-3.2690257825	-2.3291197367	-0.419804
N	-0.3172323417	-2.1398276341	 0.7142757067	-0.270058
N	-0.3009552512	-0.8105727692	 0.998038605	-0.235936
H	 1.2530407555	 1.6845554143	 0.1206561761	 0.15516
H	-0.0430707465	 1.7830937758	-1.0758124021	 0.163156
H	-0.4251005035	 1.8670564378	 0.6572737822	 0.132299
H	 0.347585847	-4.2500883851	-0.7656699599	 0.127084
H	-0.801541878	-3.5578671357	-1.9189165382	 0.102275
H	 1.2270790551	-2.3472761795	-2.6165637984	 0.295392
H	-0.5296044609	-0.495063845	 1.926569004	 0.27818
26.6936	53.6818	153.665	213.1496	311.5275	354.8246	389.8798	473.1623	546.8336	636.4978	698.359	723.1401	793.6765	994.9302	1016.1007	1026.1831	1061.013	1078.9628	1083.3652	1154.9607	1219.994	1287.5039	1348.6982	1386.7933	1415.3486	1430.8071	1446.6401	1478.6225	1502.473	1507.1695	1546.4279	1592.4246	2956.4911	3044.071	3087.6967	3105.7172	3141.8752	3660.5302	3775.047
CC1=NC(CO)=NN1	Cc1nc(CO)n[nH]1	
InChI=1S/C4H7N3O/c1-3-5-4(2-8)7-6-3/h8H,2H2,1H3,(H,5,6,7)	InChI=1S/C4H7N3O/c1-3-5-4(2-8)7-6-3/h8H,2H2,1H3,(H,5,6,7)
