15
gdb 103324	3.50868	1.28086	1.10883	4.7715	62.05	-0.2569	-0.0118	0.2451	1070.7608	0.110127	-494.82399	-494.815803	-494.814858	-494.85669	30.792	
O	-0.1288043682	 1.4443121606	-0.1398003995	-0.438214
C	 0.0133847474	 0.0344479492	 0.0410129687	-0.17267
C	-1.4053231756	-0.5057709263	 0.0518574764	 0.464686
O	-2.196554334	 0.1440889462	 0.9947399171	-0.486429
C	-2.0375692881	-0.8179010389	-1.3565230885	-0.1507
O	-1.1393442963	-1.9974127207	-1.4270101902	-0.306581
C	-1.5897148449	-2.0422431957	-0.0122729322	-0.148171
C	-3.0071137131	-1.7841824531	-0.6199214881	 0.483942
O	-4.1095610783	-2.2112270186	-0.64270391	-0.303064
H	 0.7153332934	 1.8660775136	 0.0428348687	 0.300502
H	 0.5968893645	-0.4281352349	-0.7606981931	 0.125653
H	 0.4861767336	-0.1894886234	 1.0079648078	 0.103929
H	-1.9352870902	 1.0748763221	 0.9649060575	 0.297636
H	-2.139664436	-0.2020499359	-2.2473258295	 0.116671
H	-1.1911229941	-2.8284127642	 0.6260360249	 0.112808
104.3683	130.4218	175.7876	245.6985	300.9625	315.9271	399.0341	431.0581	490.9014	498.2123	567.9313	670.6368	704.0543	789.808	803.6005	850.7399	886.5689	957.106	1016.1311	1038.821	1080.0481	1099.9167	1129.8628	1137.2384	1194.8914	1207.0043	1234.2877	1263.6716	1285.7045	1415.0729	1452.8764	1513.2516	1951.6393	3003.6313	3083.6125	3150.1685	3158.5051	3757.571	3843.5438
OCC1(O)C2OC1C2=O	OC[C@@]1(O)[C@H]2O[C@@H]1C2=O	
InChI=1S/C5H6O4/c6-1-5(8)3-2(7)4(5)9-3/h3-4,6,8H,1H2	InChI=1S/C5H6O4/c6-1-5(8)3-2(7)4(5)9-3/h3-4,6,8H,1H2/t3-,4+,5+
