19
gdb 26240	3.89754	1.0249	0.8545	4.4767	79.44	-0.2172	0.0261	0.2432	1378.9829	0.159506	-419.259584	-419.250266	-419.249322	-419.294141	34.19	
C	 0.0254220644	 1.3350396004	-0.4854277455	-0.385963
C	-0.0045834504	 0.0315872808	 0.3238277775	 0.049175
O	 0.3483054246	 0.2920102822	 1.663210394	-0.437928
C	-1.3555237095	-0.6348771163	 0.2940369689	 0.336605
N	-2.0496858034	-0.8936211714	 1.377377915	-0.323771
C	-3.2085732073	-1.5035841599	 0.9452566165	-0.175363
C	-3.2187762249	-1.6184167096	-0.4191149582	 0.297871
C	-4.2094096715	-2.1876110388	-1.3761361096	-0.507956
N	-2.0179015017	-1.0540888776	-0.8218401323	-0.358563
H	 1.0132857454	 1.7943255626	-0.3952215951	 0.130595
H	-0.1719003062	 1.1550343317	-1.5486115334	 0.09216
H	-0.7216309711	 2.0350911834	-0.1012770542	 0.128358
H	 0.7362391504	-0.6602623164	-0.1149714531	 0.078945
H	-0.3835974103	-0.047950868	 2.2022983339	 0.295696
H	-3.9698083516	-1.826300837	 1.6394301922	 0.109241
H	-4.5757439978	-1.4377704941	-2.0880742047	 0.131491
H	-3.7924809659	-3.0180628015	-1.9590734341	 0.131556
H	-5.0727038707	-2.5706287925	-0.827269269	 0.145317
H	-1.6962655924	-0.9715859481	-1.771995659	 0.262532
38.9588	121.4192	138.668	178.1004	241.6065	263.5357	320.9474	343.6748	385.5945	461.5616	490.7679	529.4913	648.6372	656.6513	700.4163	751.0325	832.9781	909.8862	989.5935	996.8121	1030.8415	1061.9846	1065.509	1099.5938	1150.5838	1188.2019	1209.2792	1269.2287	1310.2217	1364.6352	1378.4512	1401.8037	1419.7607	1441.04	1467.9965	1480.5144	1487.7357	1495.7061	1504.8641	1551.1124	1632.015	2938.0294	3020.4293	3033.0123	3066.3211	3105.8952	3124.4546	3128.613	3247.8108	3659.5115	3679.5553
CC(O)C1=NC=C(C)N1	C[C@@H](O)c1ncc(C)[nH]1	
InChI=1S/C6H10N2O/c1-4-3-7-6(8-4)5(2)9/h3,5,9H,1-2H3,(H,7,8)	InChI=1S/C6H10N2O/c1-4-3-7-6(8-4)5(2)9/h3,5,9H,1-2H3,(H,7,8)/t5-/m1/s1
