23
gdb 92622	3.22716	1.22344	1.05635	1.5079	84.3	-0.2394	0.0751	0.3145	1250.3957	0.208848	-388.322922	-388.314698	-388.313754	-388.355729	32.853	
C	-0.0658950902	 1.5756880022	 0.0248439142	-0.404415
C	 0.1238888679	 0.0606218144	 0.0219388505	 0.045637
C	 0.8160768347	-0.5025266395	-1.233716295	-0.226071
C	 1.228738418	-1.9373741823	-0.845074693	-0.028934
C	 2.6018189501	-2.4094707342	-1.3581567276	-0.237258
C	 3.533909224	-2.0002372915	-0.2113338598	-0.082796
O	 2.7842094691	-2.2270309868	 0.9738456041	-0.263621
C	 1.4187550889	-1.9042093904	 0.7089980342	 0.1193
C	 1.0163621474	-0.4800293138	 1.1537584771	-0.236689
H	 0.8990620266	 2.0894527041	-0.0599766141	 0.111397
H	-0.6923176009	 1.9017576707	-0.8124887543	 0.110393
H	-0.5435933091	 1.9166292908	 0.9494989506	 0.11249
H	-0.8644753197	-0.4151034184	 0.106139118	 0.069578
H	 0.1833749815	-0.4697014279	-2.126077111	 0.091757
H	 1.707804729	 0.1024651515	-1.4511317247	 0.090038
H	 0.4385819075	-2.6392451317	-1.1235053191	 0.070393
H	 2.6172224251	-3.4972787254	-1.4769437485	 0.103082
H	 2.8791881302	-1.958989369	-2.3155132384	 0.097414
H	 4.4507675752	-2.5928179185	-0.1477823675	 0.105642
H	 3.8220452641	-0.9391988962	-0.3014764052	 0.08378
H	 0.8179256517	-2.6623269285	 1.2210703662	 0.074424
H	 1.926035571	 0.1292292993	 1.2307261872	 0.101318
H	 0.5322572281	-0.4621911389	 2.1343704061	 0.09314
85.0101	114.1923	228.1603	234.5616	263.2287	381.135	411.292	442.2975	502.5121	561.6581	635.1135	707.2085	801.0024	846.109	857.1135	902.9966	920.1982	927.7369	940.246	951.4657	995.0725	1028.7845	1035.6739	1057.6097	1082.8654	1102.4039	1136.9433	1158.1784	1186.8867	1211.6514	1235.9639	1241.3919	1272.0207	1275.5032	1303.8037	1310.6128	1332.45	1347.0101	1360.9571	1369.0224	1386.5172	1398.2295	1412.5375	1484.6818	1487.4101	1495.6024	1497.6076	1501.1548	1522.2223	2960.0935	2991.5288	3010.9029	3023.7076	3033.1238	3045.8803	3049.9672	3066.8013	3081.9877	3086.0017	3088.2083	3094.0273	3095.5929	3101.7179
CC1CC2CCOC2C1	C[C@H]1C[C@H]2CCO[C@H]2C1	
InChI=1S/C8H14O/c1-6-4-7-2-3-9-8(7)5-6/h6-8H,2-5H2,1H3	InChI=1S/C8H14O/c1-6-4-7-2-3-9-8(7)5-6/h6-8H,2-5H2,1H3/t6-,7+,8-/m0/s1
