23
gdb 91756	2.31636	1.72002	1.51278	1.3454	83.53	-0.2371	0.0731	0.3101	1048.654	0.209799	-388.31599	-388.308155	-388.307211	-388.347741	32.453	
C	-0.1054131884	 1.5605850205	-0.0111873262	-0.416921
C	 0.0382991157	 0.0393280702	-0.000614861	 0.030772
C	 0.7382383154	-0.6024370409	-1.2431525863	-0.244822
C	 1.727516325	-1.6524853789	-0.6606393804	 0.001835
C	 1.1092520603	-1.9789230375	 0.7134032125	-0.22841
C	 0.8082414027	-0.5570518363	 1.2039210244	 0.120228
O	 2.0231361882	 0.1227217601	 1.5249774609	-0.274533
C	 2.9687842371	 0.23428011	 0.4660061882	-0.065123
C	 3.1121003774	-1.0372484981	-0.3835326337	-0.222806
H	 0.861693362	 2.0683943355	-0.0473133378	 0.126527
H	-0.6887092448	 1.8886842654	-0.8781744517	 0.109397
H	-0.6229952091	 1.9095166183	 0.8885897897	 0.114058
H	-0.9728326348	-0.3824701606	 0.0659930652	 0.072527
H	 0.0041257731	-1.0832930993	-1.8964040316	 0.093503
H	 1.2560221383	 0.1467082694	-1.8519490256	 0.094184
H	 1.8288379182	-2.5273171519	-1.308558279	 0.058542
H	 0.182674764	-2.5562222992	 0.6178696024	 0.088043
H	 1.7877941257	-2.5175783445	 1.3804487238	 0.093601
H	 0.2225442108	-0.5175641707	 2.1263950442	 0.067754
H	 2.6991387682	 1.0743667085	-0.1905187447	 0.087913
H	 3.9178259695	 0.495795822	 0.9441347686	 0.104482
H	 3.7334084504	-1.775338789	 0.1371078742	 0.097502
H	 3.6276058652	-0.7789428725	-1.316424906	 0.091748
156.6066	181.6449	224.0958	259.5266	346.0186	355.6	421.8851	433.8746	513.4426	567.4825	685.8452	757.8312	796.3339	812.6837	835.521	883.324	900.1486	927.0491	936.9483	971.2367	989.4584	1032.6641	1035.9869	1050.6041	1088.9006	1091.4228	1128.892	1149.204	1192.2377	1206.9426	1223.4064	1257.0793	1273.5528	1290.9516	1312.7869	1329.3883	1338.5206	1349.0957	1368.1847	1378.3072	1387.4395	1416.8536	1422.4112	1482.7546	1491.9681	1493.5967	1494.5844	1502.2172	1516.4168	2991.6704	3012.321	3025.5028	3036.2329	3040.4573	3041.6228	3064.3126	3066.4651	3075.9737	3077.1334	3084.509	3096.3978	3098.1568	3117.5862
CC1CC2CC1OCC2	C[C@H]1C[C@@H]2C[C@H]1OCC2	
InChI=1S/C8H14O/c1-6-4-7-2-3-9-8(6)5-7/h6-8H,2-5H2,1H3	InChI=1S/C8H14O/c1-6-4-7-2-3-9-8(6)5-7/h6-8H,2-5H2,1H3/t6-,7+,8+/m0/s1
