13
gdb 20754	5.5925	1.60094	1.25435	5.4891	63.74	-0.2665	-0.0844	0.1821	907.1501	0.095186	-398.613502	-398.606682	-398.605738	-398.644577	25.096	
C	-0.0239437768	 1.5363091905	 0.0170362139	-0.47358
C	-0.0023211455	 0.033928262	-0.0000711118	 0.345761
N	-0.0580417586	-0.5259096377	-1.1643043213	-0.110716
O	-0.0400711403	-1.9118503105	-1.2176844679	-0.261051
C	 0.033966568	-2.7432843875	-0.1054207722	 0.445598
O	 0.0413167159	-3.9307670634	-0.286788548	-0.329691
C	 0.0941997761	-2.0612341893	 1.1807295986	-0.218571
C	 0.0767339436	-0.7192633667	 1.2306482673	-0.115274
H	 0.8808377098	 1.9304261193	 0.4927311989	 0.142741
H	-0.0861894826	 1.9212361373	-1.0013138265	 0.159221
H	-0.8819752179	 1.9039438377	 0.5905001665	 0.142724
H	 0.15190203	-2.6933121636	 2.0584713127	 0.144303
H	 0.1204536183	-0.1824223479	 2.1731333496	 0.128534
98.1037	169.4896	275.6407	310.684	354.1586	458.9786	490.2307	541.9347	617.7707	746.2526	755.5624	792.6797	863.4343	920.7911	985.0186	1021.7171	1063.7813	1072.1814	1129.6524	1220.5447	1274.2733	1412.0715	1437.5655	1473.9074	1481.0913	1600.3326	1686.6799	1841.9548	3038.3884	3094.3517	3152.5184	3181.0567	3218.8506
CC1=NOC(=O)C=C1	Cc1noc(=O)cc1	
InChI=1S/C5H5NO2/c1-4-2-3-5(7)8-6-4/h2-3H,1H3	InChI=1S/C5H5NO2/c1-4-2-3-5(7)8-6-4/h2-3H,1H3
