21
gdb 109392	3.11952	1.09694	0.8806	2.1907	81.56	-0.2418	0.0089	0.2507	1374.9884	0.183207	-424.222171	-424.213136	-424.212192	-424.256712	33.574	
C	-0.2477435046	 1.5825228513	-0.2589153803	-0.374913
C	 0.1982152922	 0.1428308922	 0.0554965113	-0.271979
C	 0.7572625862	-0.5947601037	-1.1419016117	 0.294231
C	 2.0368786269	-0.9758313064	-1.1770118155	-0.16535
C	 2.7892571912	-1.6535028671	-2.2979354255	-0.143779
O	 2.101162449	-2.6602361683	-3.0195882654	-0.218757
C	 0.9953863726	-2.2205856784	-3.7504544576	 0.017038
O	-0.1535412488	-2.029675797	-2.9765398908	-0.221026
C	-0.2275591338	-0.7996546626	-2.2812186048	-0.176399
H	 0.5917864911	 2.1771987572	-0.6330068208	 0.120073
H	-1.0390803736	 1.6087660839	-1.0150838253	 0.120761
H	-0.6364068638	 2.0711390154	 0.6398033362	 0.117245
H	 0.9503528315	 0.1639084302	 0.8508170522	 0.102453
H	-0.6624321535	-0.4140920389	 0.452209269	 0.106531
H	 2.6574718477	-0.738627577	-0.3138626308	 0.083446
H	 3.1588409718	-0.8842817239	-3.0021579147	 0.098915
H	 3.6729463021	-2.1513556976	-1.887860107	 0.117028
H	 1.2423833261	-1.2922387398	-4.3014616767	 0.066672
H	 0.7585807529	-3.0228596152	-4.4535121465	 0.1132
H	-1.2492127125	-0.7555884649	-1.8902828398	 0.112949
H	-0.1265978907	 0.0360221805	-2.9975620154	 0.10166
39.93	81.6095	167.1273	202.8447	222.3359	292.5763	369.8806	376.9739	399.2843	437.9957	524.463	619.672	671.8057	783.3014	821.4704	842.3624	931.5425	934.6676	968.1301	997.5818	1028.3	1031.4268	1074.9006	1103.1623	1114.9698	1157.3088	1199.1614	1217.6526	1270.1444	1285.6075	1314.8571	1346.8728	1350.202	1378.1471	1405.1017	1409.5505	1417.0503	1448.7273	1476.5123	1481.6742	1486.1395	1499.0369	1500.8481	1507.2003	1736.8868	2914.1926	2929.382	2940.2492	3008.8589	3035.764	3067.0959	3070.0173	3077.703	3100.6916	3106.5156	3108.6234	3132.47
CCC1=CCOCOC1	CCC1=CCOCOC1	
InChI=1S/C7H12O2/c1-2-7-3-4-8-6-9-5-7/h3H,2,4-6H2,1H3	InChI=1S/C7H12O2/c1-2-7-3-4-8-6-9-5-7/h3H,2,4-6H2,1H3
