20
gdb 13594	4.09861	1.18705	1.10511	2.4795	76.71	-0.239	-0.0078	0.2312	1194.0777	0.175359	-349.026414	-349.01717	-349.016226	-349.060684	33.411	
C	 0.0986426214	 1.5529897112	-0.06720004	-0.377869
C	-0.0683386076	 0.0374494886	-0.1215791834	-0.284297
C	-1.4957685373	-0.4326116607	 0.130461717	 0.388136
O	-2.3904550832	 0.3524566558	 0.3787358713	-0.333901
C	-1.7144820132	-1.9052502643	 0.0519834074	-0.122928
C	-2.9059944529	-2.5083363746	 0.7780864708	-0.285751
C	-2.9178551509	-2.4826936401	-0.7127131637	 0.016773
C	-3.8819460963	-1.6161331621	-1.4909203218	-0.417645
H	 1.1406383405	 1.8349476542	-0.2430218415	 0.106965
H	-0.5245194109	 2.0413670849	-0.8207883798	 0.129508
H	-0.207572143	 1.9433692471	 0.9065526413	 0.131522
H	 0.2501613694	-0.3669851684	-1.0927732258	 0.120811
H	 0.5779191185	-0.4604595755	 0.6155695479	 0.12125
H	-0.808150258	-2.5000423289	 0.0031166752	 0.082399
H	-2.7540246206	-3.4478714051	 1.2974527893	 0.113104
H	-3.5350917583	-1.7872878945	 1.2896844498	 0.136853
H	-2.6819527591	-3.4282541234	-1.195132774	 0.091139
H	-4.0513184483	-0.6625196623	-0.9884727834	 0.156408
H	-3.505142806	-1.4108299697	-2.4989723895	 0.112054
H	-4.844607074	-2.1288261622	-1.594847537	 0.115469
52.0698	75.7119	168.0555	178.7994	198.3514	237.7879	279.3516	345.8574	391.3572	408.9064	577.525	647.1742	746.2918	776.9714	819.4647	858.8936	873.2798	949.1907	969.4943	1012.5769	1051.7353	1074.6499	1090.1885	1098.4311	1119.2679	1137.7441	1148.9517	1207.478	1236.9451	1276.6198	1353.5113	1391.6432	1412.9432	1414.3562	1425.1807	1451.5195	1474.4676	1491.9042	1497.6117	1501.3583	1505.105	1778.3762	3012.1218	3034.1608	3038.5633	3050.7219	3088.8736	3121.1402	3126.9979	3127.7378	3133.1408	3146.6666	3160.241	3226.2613
CCC(=O)C1CC1C	CCC(=O)[C@H]1C[C@H]1C	
InChI=1S/C7H12O/c1-3-7(8)6-4-5(6)2/h5-6H,3-4H2,1-2H3	InChI=1S/C7H12O/c1-3-7(8)6-4-5(6)2/h5-6H,3-4H2,1-2H3/t5-,6+/m1/s1
