18
gdb 39536	4.02352	1.54146	1.2931	1.2976	82.23	-0.2049	0.007	0.2119	995.9867	0.150014	-364.800369	-364.793739	-364.792794	-364.830918	27.988	
C	-0.0035441515	 1.3995032575	-0.1971225965	-0.218051
C	 1.3924808573	 1.9085698733	 0.0921682538	-0.097466
C	 2.1790699319	 0.9045365919	 0.4813394708	-0.17565
C	 1.4051830065	-0.35734826	 0.5475133775	 0.338974
C	 1.9055737059	-1.7741225783	 0.3035458888	-0.374052
C	 0.9171035964	-2.6195278319	 1.08490434	-0.067664
C	 0.0179198004	-1.8818193624	 1.7426160078	-0.078799
C	 0.2357366722	-0.4300819839	 1.4821927564	-0.094885
N	 0.0223567009	-0.0628546911	 0.0585721941	-0.160864
H	-0.7678654416	 1.886894599	 0.4238414526	 0.1113
H	-0.2961258977	 1.5689255322	-1.242150289	 0.113612
H	 1.6756777148	 2.9521215676	 0.0202013998	 0.099596
H	 3.2273776859	 0.9707209516	 0.745556431	 0.099498
H	 1.9067245248	-2.0225793366	-0.7643922409	 0.121533
H	 2.9345147175	-1.9104796805	 0.6648767185	 0.105198
H	 0.9498896783	-3.7031714736	 1.0744728809	 0.096279
H	-0.7800957334	-2.2645221236	 2.3674578396	 0.096558
H	 0.0626793015	 0.3277057788	 2.241864255	 0.084883
201.9992	234.7505	280.3758	369.0085	438.3434	483.5535	511.0757	681.6812	704.5804	737.1166	749.0951	780.9747	829.7024	846.4067	919.5414	928.8952	939.3328	948.5555	955.128	978.8271	998.4318	1034.8728	1036.742	1062.8727	1117.0394	1136.0815	1175.2134	1197.614	1213.8412	1253.2195	1308.8819	1325.5395	1358.522	1366.4327	1395.4536	1463.6164	1488.8642	1660.936	1666.5255	3005.5749	3013.1271	3030.1343	3057.7157	3145.6222	3189.1267	3194.3548	3213.999	3219.3836
C1C=CC23CC=CC2N13	C1C=C[C@@]23CC=C[C@@H]2N13	
InChI=1S/C8H9N/c1-3-7-8(4-1)5-2-6-9(7)8/h1-3,5,7H,4,6H2	InChI=1S/C8H9N/c1-3-7-8(4-1)5-2-6-9(7)8/h1-3,5,7H,4,6H2/t7-,8-,9?/m0/s1
