21
gdb 112182	2.37461	1.23507	1.02921	4.1114	78.76	-0.2632	0.0171	0.2804	1297.8864	0.180413	-424.273526	-424.263426	-424.262482	-424.308478	36.696	
C	-0.0897886046	 1.6328008232	-0.1090575518	-0.387471
C	-0.056745051	 0.1610079561	 0.3170642248	-0.20116
C	-1.3551205456	-0.5563304976	 0.0063515025	 0.12684
O	-1.5834650819	-0.666718044	-1.4484087015	-0.270241
C	-1.6804696888	-2.0309953971	-1.383046272	 0.453716
O	-1.8677960076	-2.7915453695	-2.2792773669	-0.340584
C	-1.4782389956	-2.1051168738	 0.1372318941	 0.054051
C	-0.2424672508	-2.8975912529	 0.5640035783	-0.447028
C	-2.7308263659	-2.5811128323	 0.8779730279	-0.444193
H	 0.8607502865	 2.1259525438	 0.1130105177	 0.117622
H	-0.2759673504	 1.7185249269	-1.1832621715	 0.142406
H	-0.8818299795	 2.1795871419	 0.4141621789	 0.117281
H	 0.7722601961	-0.3507698154	-0.1830422469	 0.109863
H	 0.126373113	 0.0831424643	 1.396636506	 0.105279
H	-2.2040435086	-0.0243235211	 0.4500353762	 0.088076
H	 0.6560576334	-2.5989258639	 0.0189170877	 0.128976
H	-0.0520703514	-2.7727843204	 1.6351698776	 0.121167
H	-0.4059940219	-3.9620760046	 0.3718865615	 0.138034
H	-2.9146110003	-3.6397898055	 0.6724969779	 0.138224
H	-2.6058639303	-2.4605934017	 1.9594892327	 0.120881
H	-3.6188981349	-2.0197633665	 0.5719177467	 0.128259
80.1801	92.187	159.0713	171.6901	203.1346	211.5399	227.6869	273.3675	306.9997	317.2631	404.9207	475.5541	592.443	664.6032	734.5342	749.7026	803.9178	848.1538	888.7877	961.4617	966.5216	999.0481	1019.4403	1062.3885	1088.0821	1118.4245	1147.1406	1206.6275	1217.7043	1266.0154	1289.5545	1314.7232	1352.7899	1400.316	1408.7675	1414.8741	1423.9811	1471.4974	1482.863	1486.7251	1498.5205	1502.3609	1507.9374	1508.3653	1926.8246	3028.7031	3032.8534	3038.441	3040.7542	3046.8301	3076.2196	3103.2899	3107.7664	3108.6212	3114.435	3121.6087	3124.1073
CCC1OC(=O)C1(C)C	CC[C@H]1OC(=O)C1(C)C	
InChI=1S/C7H12O2/c1-4-5-7(2,3)6(8)9-5/h5H,4H2,1-3H3	InChI=1S/C7H12O2/c1-4-5-7(2,3)6(8)9-5/h5H,4H2,1-3H3/t5-/m1/s1
