15
gdb 132904	3.09444	1.3681	0.95427	3.5028	74.64	-0.2145	-0.0439	0.1705	1153.7514	0.112118	-461.949948	-461.94213	-461.941186	-461.982356	29.446	
C	-0.0306529438	 1.5325286949	 0.0203908214	-0.495275
C	-0.0072346324	 0.031696893	-0.0088459512	 0.049012
C	-0.0359406509	-0.6928018331	-1.1430809503	 0.016038
O	-0.0157290411	-2.0403794947	-1.191334836	-0.241276
C	 0.0385722432	-2.8234135326	-0.0270930168	 0.397396
N	 0.0564086397	-4.089514916	-0.1091280045	-0.541174
C	 0.0711102682	-2.0869657116	 1.2173327163	-0.322808
C	 0.0488136369	-0.7420843765	 1.2062948258	 0.28717
F	 0.0782346491	-0.0515290199	 2.3453055127	-0.063743
H	 0.8611041431	 1.9356836617	 0.5119832463	 0.143329
H	-0.073563579	 1.9380824042	-0.9933844615	 0.129186
H	-0.8976240709	 1.9070155191	 0.5749601327	 0.14333
H	-0.0784524794	-0.2603689111	-2.1358771765	 0.139114
H	 0.0265329298	-4.3898921892	-1.0830921034	 0.221612
H	 0.1132132375	-2.654638608	 2.1360566551	 0.138089
98.2664	166.4607	202.7442	260.6614	295.252	358.8904	408.2769	428.2317	537.7347	559.417	679.5026	698.4231	743.1224	762.6525	828.7989	845.6116	880.2643	888.9741	1022.0244	1068.9039	1082.384	1181.7661	1207.79	1225.4624	1299.17	1352.3908	1421.8484	1450.4214	1476.5673	1499.4805	1628.6264	1703.8011	1750.7641	3037.0451	3091.3009	3122.2929	3209.0068	3241.188	3498.4362
CC1=COC(=N)C=C1F	CC1=C(C=C(OC1)[NH])F	
InChI=1S/C6H6FNO/c1-4-3-9-6(8)2-5(4)7/h2-3,8H,1H3	InChI=1S/C6H7FNO/c1-4-3-9-6(8)2-5(4)7/h2,8H,3H2,1H3
