21
gdb 126604	5.05133	0.77578	0.72066	2.1603	87.14	-0.2235	0.0296	0.2531	1671.5698	0.183159	-383.306851	-383.297098	-383.296154	-383.342957	34.558	
C	-0.1210457847	 1.5087702817	 0.0392122475	-0.381236
C	-0.1674055796	-0.0141438728	-0.1024001533	-0.167999
C	 0.8297416333	-0.5280494422	-1.1469534719	-0.142599
N	 0.823111845	-1.9743751253	-1.2707089858	 0.058701
C	 0.2100784632	-2.7331580006	-2.2155982886	-0.128824
C	 0.4162709289	-4.0587153091	-1.8840765723	 0.182728
C	-0.0481250827	-5.2776014978	-2.6217132619	-0.504973
C	 1.1768467615	-3.9837188069	-0.6946861419	-0.073106
N	 1.4181153383	-2.7277369925	-0.3261725492	-0.272014
H	 0.8746530888	 1.8496593781	 0.3435621546	 0.120684
H	-0.3675039508	 2.0075252568	-0.905048425	 0.11413
H	-0.8344649011	 1.8548068637	 0.7925148935	 0.120116
H	 0.0630060667	-0.4948030513	 0.8539285724	 0.127966
H	-1.1762776322	-0.3386505014	-0.384236121	 0.102416
H	 0.6054620935	-0.1109513029	-2.1341038185	 0.112885
H	 1.8464379253	-0.2240445364	-0.8792160612	 0.127968
H	-0.3141216751	-2.2825239799	-3.04468333	 0.122707
H	 0.7925290396	-5.8835601617	-2.9788458519	 0.128589
H	-0.663756296	-5.9256478043	-1.9877380932	 0.128256
H	-0.6492588606	-5.0055141369	-3.4940460993	 0.120066
H	 1.5636136386	-4.7983443482	-0.0981388629	 0.10354
39.3136	59.8421	83.795	92.464	230.3243	244.6127	263.6638	298.9584	370.3187	408.8565	626.3411	647.7098	680.9662	752.0493	777.0892	785.1853	873.0347	880.8302	900.4816	999.7976	1008.799	1032.9813	1044.842	1065.7869	1116.9165	1126.9039	1186.4075	1224.1487	1254.2205	1313.8281	1331.3832	1367.8476	1389.042	1405.614	1410.907	1414.5563	1425.8132	1470.7569	1481.5117	1485.9534	1493.2173	1499.8679	1508.1078	1510.1781	1614.3351	3027.9188	3030.6355	3037.0613	3051.6559	3074.9041	3077.1795	3093.3861	3105.7183	3109.0644	3109.612	3232.0537	3248.627
CCCN1C=C(C)C=N1	CCCn1cc(C)cn1	
InChI=1S/C7H12N2/c1-3-4-9-6-7(2)5-8-9/h5-6H,3-4H2,1-2H3	InChI=1S/C7H12N2/c1-3-4-9-6-7(2)5-8-9/h5-6H,3-4H2,1-2H3
