20
gdb 106038	2.48365	1.61727	1.28047	2.2068	77.81	-0.2408	0.0799	0.3207	1071.6979	0.171376	-403.079204	-403.070769	-403.069825	-403.112478	32.442	
C	-0.1291509186	 1.5603492136	-0.1933760845	-0.427111
C	 0.0277585158	 0.0472094877	-0.1230179327	-0.023512
C	 1.2059064174	-0.6999322572	-0.8261232723	-0.112604
C	 2.4556616515	-0.1156838861	-0.1522160631	-0.153118
N	 2.0291074952	-0.7282200787	 1.149781291	-0.201983
C	 1.1993112604	-1.7090109989	 0.3874265718	-0.119949
C	 0.5101427765	-0.6477855776	 1.154326001	 0.327907
C	-0.1059996011	-0.6638329329	 2.5182141346	-0.18282
O	 0.1315571947	 0.5545584347	 3.2079569437	-0.419515
H	 0.7812775226	 2.0901003666	 0.098468677	 0.119666
H	-0.3981248489	 1.8806598914	-1.2061133331	 0.111591
H	-0.922015833	 1.8889906611	 0.4857880274	 0.132519
H	-0.9090246254	-0.4375169263	-0.4235170039	 0.076877
H	 1.1641372932	-0.9349491342	-1.8884045611	 0.071852
H	 3.3789045373	-0.6075804637	-0.4697826588	 0.109294
H	 2.6043838266	 0.9692413178	-0.1439857757	 0.098016
H	 1.2662692138	-2.7839844448	 0.4951481538	 0.098771
H	-1.1939530208	-0.7687737924	 2.4451291458	 0.107748
H	 0.2769902262	-1.527843984	 3.0823830952	 0.095373
H	 1.0895904266	 0.6662816439	 3.217919824	 0.290997
57.171	129.3685	145.4113	225.8249	262.1884	329.3341	391.2624	452.9227	485.4074	579.6078	662.5977	665.85	777.5575	787.625	833.98	862.3307	911.4127	948.315	971.5764	979.2784	1007.7649	1033.2391	1060.3387	1078.2713	1089.6268	1126.931	1145.478	1152.3595	1164.5855	1204.4046	1212.6198	1258.0021	1295.8822	1316.8233	1355.4432	1389.2015	1405.4154	1412.9735	1445.741	1487.0954	1493.5079	1496.0895	1520.1297	2989.1264	3033.6912	3036.9479	3044.3398	3070.9676	3099.3273	3101.7408	3117.8712	3128.3378	3198.2733	3793.6624
CC1C2CN3C2C13CO	C[C@H]1[C@H]2CN3[C@H]2[C@]13CO	
InChI=1S/C7H11NO/c1-4-5-2-8-6(5)7(4,8)3-9/h4-6,9H,2-3H2,1H3	InChI=1S/C7H11NO/c1-4-5-2-8-6(5)7(4,8)3-9/h4-6,9H,2-3H2,1H3/t4-,5+,6+,7-,8?/m0/s1
