18
gdb 125885	3.61545	1.24854	1.07995	4.4205	77.16	-0.2542	0.0005	0.2548	1152.0594	0.149066	-398.115182	-398.107165	-398.10622	-398.148476	29.852	
C	-0.2404069532	 1.51025325	-0.1211247784	-0.407641
C	-0.0287344743	 0.0191954714	 0.0069697846	 0.01185
C	 1.3162073204	-0.6001631191	-0.2869863659	-0.321547
C	 0.7914749072	-0.5747378041	 1.1263551607	 0.022463
N	 1.4152146633	 0.2845344282	 2.0906486413	 0.070064
C	 2.7345918058	 0.4731033122	 2.3434554634	-0.095304
C	 2.7564184347	 1.3279947663	 3.4168454912	-0.074501
N	 1.4725509277	 1.6139879873	 3.7708184546	-0.185773
N	 0.6614642252	 0.9810293138	 2.9732892939	-0.1485
H	 0.6663160814	 2.0688555579	 0.1261307099	 0.126587
H	-0.5232887976	 1.7667590461	-1.1472483642	 0.118688
H	-1.0308570153	 1.8526472609	 0.5526307995	 0.144242
H	-0.8926419746	-0.5827038742	-0.2608704564	 0.098677
H	 1.3734204186	-1.5608641307	-0.7855085652	 0.124803
H	 2.1255935703	 0.0808581021	-0.5278861515	 0.12566
H	 0.4475138087	-1.5095681885	 1.5567492934	 0.120907
H	 3.5051255368	-0.0014330567	 1.7607074651	 0.144629
H	 3.5981530948	 1.747741787	 3.943188804	 0.124697
50.8307	104.7208	158.564	206.3167	263.5966	350.425	415.046	534.249	635.5001	686.5088	726.8978	789.7002	792.7945	841.919	858.1389	894.2727	939.4006	960.6838	1021.8756	1036.6329	1073.3673	1082.4519	1100.45	1125.3337	1142.464	1153.7979	1192.2436	1205.4385	1238.9218	1295.2765	1339.6694	1387.9542	1414.3087	1422.5254	1483.5924	1489.2753	1491.0997	1499.0919	1523.2679	3041.7086	3108.1404	3118.0982	3137.7122	3147.7679	3159.9006	3225.2061	3269.4967	3295.7292
CC1CC1N1C=CN=N1	C[C@H]1C[C@H]1n1ccnn1	
InChI=1S/C6H9N3/c1-5-4-6(5)9-3-2-7-8-9/h2-3,5-6H,4H2,1H3	InChI=1S/C6H9N3/c1-5-4-6(5)9-3-2-7-8-9/h2-3,5-6H,4H2,1H3/t5-,6+/m0/s1
