18
gdb 40268	2.93766	1.49747	1.14906	2.6607	73.18	-0.2412	0.0233	0.2645	1075.9927	0.149029	-439.066172	-439.058375	-439.057431	-439.098696	29.766	
C	-0.0137398905	 1.5140676662	 0.0692314191	-0.234378
O	 1.1977076496	 0.7639787817	 0.1798310776	-0.275499
C	-0.0334445741	 0.047915394	-0.0316567268	 0.380297
C	-0.4511993442	-0.7970347422	 1.1505898935	-0.294021
C	 0.5380706176	-1.9345637857	 1.381734615	-0.066982
O	 0.4482680349	-3.0255340718	 0.4622331202	-0.229754
C	 0.5535175353	-2.856172983	-0.8832676931	 0.13184
N	 0.3450653409	-1.8978001422	-1.6717035734	-0.258176
C	-0.1886657208	-0.5798796813	-1.4046553813	-0.20815
H	-0.3558434729	 1.9942354917	 0.9854991777	 0.111101
H	-0.1045121274	 2.1229011744	-0.8298531784	 0.114788
H	-0.4654336855	-0.1782858541	 2.0540321927	 0.110518
H	-1.4605485744	-1.1996289737	 1.0056808072	 0.112831
H	 1.5580367439	-1.5320466298	 1.3617915022	 0.133378
H	 0.3675328293	-2.3958023146	 2.3571814218	 0.116798
H	 0.8571650624	-3.8148823213	-1.3069975775	 0.119245
H	-1.2641625352	-0.6219201579	-1.6372906807	 0.118199
H	 0.2523018411	 0.1055074896	-2.1366435258	 0.117965
93.5678	96.6679	229.4106	291.0143	320.384	362.1213	417.3515	456.1965	482.8638	562.8476	698.8919	782.1243	829.1948	845.7441	899.685	945.1404	961.9404	976.2948	997.9366	1015.7021	1036.2628	1097.9797	1131.4649	1156.8522	1171.0156	1213.6419	1269.4909	1297.9207	1320.5369	1349.438	1372.7021	1410.563	1438.8679	1446.8237	1458.0208	1470.8175	1503.7242	1531.2668	1778.1477	2993.3554	3038.9181	3041.644	3060.6998	3077.7095	3089.829	3106.8857	3124.5935	3161.9746
C1OC11CCOC=NC1	C1O[C@]21CCOC=NC2	
InChI=1S/C6H9NO2/c1-2-8-5-7-3-6(1)4-9-6/h5H,1-4H2	InChI=1S/C6H9NO2/c1-2-8-5-7-3-6(1)4-9-6/h5H,1-4H2/t6-/m1/s1
