17
gdb 81514	3.2595	1.44633	1.13945	2.4879	74.62	-0.2247	0.0094	0.2341	1068.6183	0.134522	-417.925757	-417.917262	-417.916318	-417.95861	32.203	
C	-0.0121191224	 1.5589752785	-0.031853598	-0.339619
N	 0.0450755324	 0.0960442521	 0.0124506055	-0.110447
C	-1.0269792273	-0.7410859948	 0.6678499128	-0.0965
C	-0.0094100563	-1.909038213	 0.5689533623	-0.235381
C	 0.7571996594	-0.6677781652	 1.1051913384	-0.069102
C	-0.4272357059	-0.4434113149	 2.1060774644	 0.309412
O	-0.5127872049	 0.8299456721	 2.6840991259	-0.461033
C	-0.6652745887	-1.4551319145	 3.1508235131	 0.217474
N	-0.8971498418	-2.2070944606	 3.9984938377	-0.34064
H	 0.9821619483	 1.917801657	-0.3184185485	 0.123117
H	-0.6973099606	 1.8328189486	-0.8416200126	 0.119363
H	-0.3187161726	 2.0688749588	 0.8832406315	 0.129922
H	-2.0738566981	-0.7118961016	 0.362417844	 0.096023
H	-0.13528403	-2.7644825867	 1.2311191802	 0.134673
H	 0.2518801246	-2.1772393071	-0.4515533638	 0.122909
H	 1.8204888362	-0.5502241646	 1.3160481555	 0.101091
H	-1.3225364625	 0.8815797258	 3.2046307615	 0.298739
102.9567	120.0021	164.6425	269.4837	276.6694	305.7889	329.7113	377.1018	509.0083	517.4767	531.8806	608.0466	704.0369	738.5857	773.8463	812.5095	887.885	921.3168	1003.6804	1018.5571	1052.7728	1081.1629	1109.816	1148.0295	1168.0663	1176.289	1191.0762	1204.2133	1208.9583	1242.8584	1281.5885	1356.1607	1440.7189	1482.1697	1492.6591	1516.1767	2339.4357	3033.0874	3093.3776	3104.1148	3112.8324	3120.9808	3123.7723	3191.5374	3803.1597
CN1C2CC1C2(O)C#N	CN1[C@H]2C[C@@H]1[C@]2(O)C#N	
InChI=1S/C6H8N2O/c1-8-4-2-5(8)6(4,9)3-7/h4-5,9H,2H2,1H3	InChI=1S/C6H8N2O/c1-8-4-2-5(8)6(4,9)3-7/h4-5,9H,2H2,1H3/t4-,5+,6-
