17
gdb 6300	4.12541	1.09487	0.96754	3.8492	69.33	-0.2652	-0.0303	0.2349	1215.6047	0.139519	-363.908873	-363.899529	-363.898584	-363.943633	32.182	
C	-0.1401957757	 1.6417698904	 0.0187323561	-0.399416
C	-0.0308070023	 0.1043924368	 0.0430261136	-0.130828
C	 0.7743587658	-0.4130610397	 1.2515440161	-0.310283
C	 2.2744543048	-0.1598870107	 1.1165860032	 0.381696
C	 3.1102915709	-0.4474971492	 2.3476385735	-0.475263
O	 2.7619521312	 0.2337677246	 0.081746819	-0.289918
C	-1.3614438117	-0.5098698051	 0.0277071059	 0.261718
N	-2.4124165575	-0.9912106354	 0.0278140818	-0.324314
H	 0.8606567881	 2.0745050864	-0.0277807917	 0.146641
H	-0.70417541	 1.9765141315	-0.8549437244	 0.140008
H	-0.6501128775	 2.009600313	 0.9141699211	 0.129695
H	 0.4970341758	-0.2160377816	-0.862148971	 0.148176
H	 0.406681184	 0.0292682422	 2.1854137296	 0.133286
H	 0.6390024722	-1.4963209999	 1.3674245984	 0.148004
H	 2.8939103214	-1.445674508	 2.7430342441	 0.143063
H	 4.1699304418	-0.3623042845	 2.1051832296	 0.1501
H	 2.8598932585	 0.2681839993	 3.1395293653	 0.147637
51.8425	78.9291	116.0403	137.9441	198.8088	229.4185	289.1192	324.4914	374.4792	473.5025	544.0804	573.7979	586.0487	809.1357	819.7385	848.9026	939.283	962.6742	992.7333	1081.6634	1113.2643	1144.2886	1178.1364	1246.8186	1289.1137	1337.1151	1373.0156	1386.6702	1407.4093	1447.8782	1463.3512	1476.0932	1496.6999	1503.8843	1809.6668	2356.4492	3031.343	3039.7545	3050.9164	3057.7659	3072.31	3099.5729	3125.7853	3145.8269	3155.8715
CC(CC(C)=O)C#N	C[C@@H](CC(=O)C)C#N	
InChI=1S/C6H9NO/c1-5(4-7)3-6(2)8/h5H,3H2,1-2H3	InChI=1S/C6H9NO/c1-5(4-7)3-6(2)8/h5H,3H2,1-2H3/t5-/m0/s1
