20
gdb 11068	3.14077	2.18008	1.83726	1.3239	72.72	-0.2512	0.0739	0.3251	831.2889	0.180368	-349.031042	-349.024125	-349.023181	-349.061558	28.863	
O	-0.0403127738	 1.3697228636	 0.0186410285	-0.502609
C	 0.0246470078	-0.0372934724	 0.0029054178	 0.432948
C	 0.6534102443	-0.6526307967	-1.2718834427	-0.259955
C	 0.0889828236	-2.1071028559	-1.2770391729	-0.208245
C	-0.793359119	-2.1440454621	-0.0048628261	-0.004142
C	 0.1322245094	-2.1331752679	 1.236696314	-0.208241
C	 0.6967839758	-0.6787540057	 1.2422075176	-0.259957
C	-1.3611471424	-0.7114341631	 0.019787868	-0.247618
H	 0.8597869426	 1.7113821466	 0.0066247245	 0.272894
H	 0.3226710576	-0.084441445	-2.1462770181	 0.099847
H	 1.7480541436	-0.6187549072	-1.2486766518	 0.083359
H	-0.5126694358	-2.2900462774	-2.1723286525	 0.096135
H	 0.873792533	-2.8690689275	-1.2544493516	 0.091788
H	-1.5235806494	-2.9554056675	-0.0007180071	 0.055989
H	-0.4384166083	-2.3347115038	 2.1481551121	 0.096134
H	 0.9154469801	-2.894310585	 1.1714427096	 0.091785
H	 1.789988453	-0.6441159751	 1.1818772553	 0.083361
H	 0.396728457	-0.1289068005	 2.1391012651	 0.099848
H	-1.9306163039	-0.4757813769	 0.9236963956	 0.093341
H	-1.9613333853	-0.4572675205	-0.8588780251	 0.09334
154.1298	255.5596	286.9342	364.8586	368.9874	425.8323	474.4473	530.8469	599.4007	749.8593	782.1402	803.7303	822.1167	867.1216	924.0022	933.0648	953.2885	961.8555	978.17	997.5864	1015.1207	1038.4655	1095.7231	1127.744	1164.8259	1168.8741	1223.2852	1235.5871	1237.8968	1262.2859	1264.2203	1294.9894	1311.1377	1312.9001	1338.8008	1352.9919	1399.8253	1482.7917	1494.6564	1496.3948	1499.0856	1528.5373	3037.507	3039.9822	3049.6464	3049.8904	3055.7107	3075.6807	3078.7229	3093.9274	3094.4033	3101.3312	3106.0149	3809.6026
OC12CCC(CC1)C2	O[C@@]12CC[C@@H](CC1)C2	
InChI=1S/C7H12O/c8-7-3-1-6(5-7)2-4-7/h6,8H,1-5H2	InChI=1S/C7H12O/c8-7-3-1-6(5-7)2-4-7/h6,8H,1-5H2/t6-,7-
