14
gdb 25759	2.89165	1.57631	1.0226	4.9294	70.91	-0.1992	-0.025	0.1743	1068.5011	0.103158	-470.081061	-470.073398	-470.072453	-470.113072	29.283	
N	-0.0013425431	 1.3731768273	-0.1337094055	-0.551505
C	 0.0005042616	 0.0187469272	 0.0072980616	 0.285671
N	 1.1913580293	-0.6239344482	 0.1179587592	-0.5596
H	 1.1255682575	-1.6374698635	 0.065604095	 0.293464
H	 2.0024686333	-0.1973509709	-0.3008217791	 0.260133
C	-1.1827062153	-0.6952497111	 0.0302955058	 0.101968
C	-1.2734748482	-2.1240510165	 0.0181023188	 0.389405
O	-0.4498828964	-3.0162434464	 0.0138120959	-0.41444
O	-2.6621089832	-2.3696656947	 0.0142819855	-0.209966
C	-3.2491699293	-1.1373954171	 0.0294741426	 0.066076
N	-2.4621879966	-0.1244022107	 0.0403391468	-0.352115
H	 0.7582263511	 1.8910227915	 0.2802612974	 0.262399
H	-0.9150965116	 1.7958253385	-0.0487757484	 0.285334
H	-4.329366189	-1.1252002556	 0.0336061143	 0.143175
146.1047	157.3474	181.4887	296.7555	339.9881	408.8911	426.2919	443.4225	573.8963	594.5161	623.2511	639.083	678.4544	714.5879	761.5984	792.9153	845.2845	904.6481	959.8281	1081.3319	1121.5001	1135.9705	1259.6927	1306.0037	1349.4976	1506.2846	1589.7566	1623.6037	1645.4674	1708.5494	1814.3963	3253.1526	3477.4026	3569.7006	3665.0401	3685.2273
NC(=[NH2+])C1=C([O-])OC=N1	[NH2]=C(N)[C]1C(=O)OC=N1	
InChI=1S/C4H5N3O2/c5-3(6)2-4(8)9-1-7-2/h1,8H,(H3,5,6)	InChI=1S/C4H5N3O2/c5-3(6)2-4(8)9-1-7-2/h1H,5-6H2
