21
gdb 61453	2.44829	1.15253	0.8847	3.957	80.07	-0.2318	0.027	0.2588	1393.9439	0.181632	-420.421709	-420.41136	-420.410415	-420.457946	36.901	
C	-0.1529492894	 2.0036826228	-0.4393152674	-0.416121
C	-0.0829216562	 0.521806483	-0.0652161227	 0.013773
N	-1.4364654151	 0.0059032448	 0.1528500044	-0.313172
C	-1.6982974045	-1.0100809076	 1.0209294961	 0.426107
C	-3.1584490168	-1.4137210145	 1.1410253139	-0.480881
O	-0.8220139164	-1.56546599	 1.6679908249	-0.388837
C	 0.6750046655	-0.2865557715	-1.1043977166	 0.025759
C	 2.1106643094	-0.5983201967	-0.8856198754	-0.242189
N	 1.0968634747	-1.6587519595	-0.8042427728	-0.32436
H	 0.8537031789	 2.4107147254	-0.5636551547	 0.133746
H	-0.6858141962	 2.1459619733	-1.3874748077	 0.116583
H	-0.6687392979	 2.5801349917	 0.333844231	 0.123824
H	 0.4320967241	 0.4044905868	 0.8941602573	 0.106295
H	-2.1911346396	 0.3976912076	-0.3862917987	 0.241926
H	-3.2753638151	-2.4287474476	 0.7505330013	 0.157004
H	-3.4276428932	-1.4382550688	 2.1995022531	 0.154257
H	-3.8447228188	-0.7491702626	 0.6097949978	 0.111242
H	 0.3216231799	-0.1484100415	-2.1270045533	 0.077097
H	 2.7896857744	-0.6691664377	-1.7309556098	 0.113106
H	 2.5717294686	-0.2417714319	 0.0332683806	 0.109339
H	 0.8721312438	-1.8674034653	 0.1676880185	 0.255503
47.3435	69.8626	94.9859	105.6125	187.1608	223.2641	232.3899	309.8504	336.1697	385.3394	405.9532	495.6543	520.0469	618.4729	651.0926	799.8355	861.5601	897.1604	921.6998	958.5337	980.4089	986.8299	1027.1008	1052.4687	1085.5116	1108.8366	1130.5067	1150.7183	1180.2942	1240.2602	1261.7701	1272.7944	1304.2689	1339.035	1362.9232	1396.5755	1407.7051	1438.2818	1469.7875	1484.6232	1492.8622	1499.1045	1512.2159	1529.691	1755.3991	3031.1475	3049.9579	3058.7821	3095.4298	3100.1034	3103.1428	3124.3451	3125.3916	3135.4497	3183.2532	3485.1396	3643.1386
CC(NC(C)=O)C1CN1	C[C@@H](NC(=O)C)[C@H]1CN1	
InChI=1S/C6H12N2O/c1-4(6-3-7-6)8-5(2)9/h4,6-7H,3H2,1-2H3,(H,8,9)	InChI=1S/C6H12N2O/c1-4(6-3-7-6)8-5(2)9/h4,6-7H,3H2,1-2H3,(H,8,9)/t4-,6-/m1/s1
