18
gdb 79394	2.19793	1.72062	1.53047	1.5005	71.39	-0.2186	0.0495	0.2681	986.5208	0.1462	-438.988504	-438.979815	-438.97887	-439.021375	33.155	
C	-0.0046981654	 1.4748193341	-0.0922945986	-0.532794
C	 0.0059861667	-0.025871525	-0.0283792792	 0.260214
N	 0.6403848717	-0.851986085	-1.1134635615	-0.383235
C	 0.1040772548	-1.8603639562	-0.1458091533	-0.067931
C	 0.5343933709	-1.0027844149	 1.0838680799	-0.148144
C	-0.8463900703	-1.1746422168	 1.7484046376	 0.049419
O	-1.3429037416	-0.211716931	 2.6512130219	-0.449824
C	-1.1763366945	-1.0671787939	 0.247298082	 0.3092
O	-2.3853673625	-1.1683548638	-0.4051067451	-0.47199
H	 1.0134070044	 1.8625455035	-0.1984217938	 0.141327
H	-0.588039727	 1.8159132682	-0.9551869001	 0.131237
H	-0.451700539	 1.9255369572	 0.8004052884	 0.108091
H	 0.0493637063	-0.8325716006	-1.9500937104	 0.210553
H	 0.217925754	-2.937509134	-0.2649796608	 0.085733
H	 1.526915762	-0.9891428473	 1.5274254957	 0.090065
H	-1.0388256812	-2.1520915427	 2.2017857412	 0.089252
H	-0.9355811535	 0.6368164855	 2.4533402626	 0.285135
H	-3.0260828056	-0.6247794274	 0.0678990035	 0.293692
112.2721	171.4525	182.4782	189.379	226.0673	284.9357	317.835	348.4062	434.8818	534.0519	573.6757	660.8178	669.9977	742.4996	812.5719	852.2359	859.7885	903.676	947.8533	960.2591	1004.3865	1041.0416	1075.4855	1089.5212	1110.4083	1144.374	1180.2595	1194.8537	1230.7038	1270.2214	1281.6747	1292.2311	1318.3477	1338.4237	1396.7512	1410.3823	1449.7279	1473.8327	1495.514	3028.2529	3068.2794	3090.9607	3104.6722	3121.4737	3156.6597	3391.5407	3796.8988	3832.2656
CC12NC3C1C(O)C23O	C[C@@]12N[C@H]3[C@@H]1[C@@H](O)[C@@]23O	
InChI=1S/C6H9NO2/c1-5-2-3(7-5)6(5,9)4(2)8/h2-4,7-9H,1H3	InChI=1S/C6H9NO2/c1-5-2-3(7-5)6(5,9)4(2)8/h2-4,7-9H,1H3/t2-,3+,4-,5-,6-/m1/s1
