16
gdb 53070	6.27577	0.71928	0.65053	3.2793	88.53	-0.2008	-0.0215	0.1793	1667.0383	0.123715	-400.782782	-400.773773	-400.772829	-400.818524	31.731	
C	-0.0682427844	 1.4620932021	 0.016022233	-0.507904
C	 0.0028345334	 0.0096117642	 0.0157221746	 0.195515
C	 0.0741969608	-1.1967644011	 0.0172039697	-0.119626
C	 0.0921824396	-2.6033881518	 0.0099108834	 0.127235
C	 1.1585751957	-3.417727798	 0.15187264	-0.117765
N	 0.7879580222	-4.7609826675	 0.0912257302	-0.318428
C	-0.5787922123	-4.9139717991	-0.099037004	 0.419739
O	-1.1676893237	-5.9642266351	-0.1878579714	-0.363571
C	-1.133133949	-3.483363098	-0.1658300782	-0.470667
H	 0.5365126995	 1.8939401415	-0.7899074675	 0.149207
H	-1.098906535	 1.8062952431	-0.1243624603	 0.150767
H	 0.2938044947	 1.8816934562	 0.9618568218	 0.149208
H	 2.1941220017	-3.1480974933	 0.2971005002	 0.134169
H	 1.4133033996	-5.5454412654	 0.1723417696	 0.26458
H	-1.8823982222	-3.3387139049	 0.6195003576	 0.153771
H	-1.6411655504	-3.3265983228	-1.1231140187	 0.153771
14.8756	82.0892	87.4144	154.6286	278.893	289.4025	397.4247	416.0044	462.454	502.3554	512.2048	558.082	586.2956	709.0511	839.5917	869.3629	884.4828	951.5581	989.8247	1049.733	1051.8497	1090.0765	1147.1728	1183.2678	1232.4831	1309.7586	1348.6497	1405.693	1415.3996	1433.351	1474.6814	1477.5308	1664.4685	1842.0557	2345.087	3021.1568	3057.1858	3077.5213	3085.4686	3093.5495	3248.2329	3664.3908
CC#CC1=CNC(=O)C1	CC#CC1=CNC(=O)C1	
InChI=1S/C7H7NO/c1-2-3-6-4-7(9)8-5-6/h5H,4H2,1H3,(H,8,9)	InChI=1S/C7H7NO/c1-2-3-6-4-7(9)8-5-6/h5H,4H2,1H3,(H,8,9)
