16
gdb 64872	2.69941	1.24093	1.01061	4.5142	69.38	-0.2633	-0.0459	0.2173	1187.498	0.121503	-437.886784	-437.877747	-437.876803	-437.921677	31.737	
C	-0.4316216002	 1.6163310031	-0.1184916439	-0.437998
C	 0.0656131551	 0.178229627	-0.0889043871	 0.259282
C	 1.1222915385	-0.2314250242	-1.1574704006	-0.341218
C	 2.0373737229	-0.4848292206	 0.0512902133	 0.047358
O	 1.0243131822	-0.0393137065	 0.9838140152	-0.314974
C	 2.4346563777	-1.9274892076	 0.3128546634	 0.133211
O	 2.7485651065	-2.6961756472	-0.5566624525	-0.227631
C	-1.05916171	-0.765032024	 0.0300942245	 0.272378
N	-1.9431873219	-1.5045444	 0.1128327544	-0.326793
H	 0.420553229	 2.294173905	-0.2117038026	 0.132011
H	-1.1069384417	 1.7698925035	-0.9653845523	 0.14401
H	-0.9695695814	 1.8494226554	 0.803861307	 0.152661
H	 0.8959187372	-1.1162032	-1.7508977902	 0.156544
H	 1.4207851487	 0.589791491	-1.808490223	 0.129369
H	 2.9392760658	 0.1401609178	 0.1134980935	 0.116998
H	 2.4104623515	-2.2111733228	 1.3877009308	 0.104794
36.2048	66.9256	156.5289	187.8583	212.7364	238.8372	306.059	347.9482	432.1289	526.5524	558.3895	592.792	642.4396	788.8961	852.0707	899.3481	920.3555	933.6657	993.3995	1033.186	1067.4889	1124.8422	1131.652	1200.1231	1252.0969	1259.1127	1272.207	1349.448	1397.1854	1408.2249	1478.137	1486.6744	1494.965	1835.1351	2354.9558	2905.1929	3013.4609	3047.71	3101.739	3127.7299	3134.3427	3164.9168
CC1(CC(O1)C=O)C#N	C[C@]1(C[C@@H](O1)C=O)C#N	
InChI=1S/C6H7NO2/c1-6(4-7)2-5(3-8)9-6/h3,5H,2H2,1H3	InChI=1S/C6H7NO2/c1-6(4-7)2-5(3-8)9-6/h3,5H,2H2,1H3/t5-,6+/m1/s1
