22
gdb 101784	2.3969	1.01975	0.78947	3.3806	79.3	-0.2334	0.034	0.2675	1512.759	0.191871	-441.522644	-441.511687	-441.510743	-441.559336	39.53	
C	-0.5590829919	 1.850506229	 0.2399307468	-0.398253
C	-0.4512123212	 0.3903642717	-0.2056250004	-0.170045
C	-1.6448267904	-0.4855292129	 0.1826108204	 0.134262
C	-1.4647305867	-1.9202803781	-0.3182959135	-0.399631
O	-1.7503451662	-0.4365399089	 1.6130667149	-0.267292
C	-2.9676560984	-0.9064445435	 2.1539126807	-0.1831
C	-4.1079593867	 0.1217742054	 2.2002267507	 0.350884
N	-3.7152363194	 1.4082940244	 2.0105123529	-0.508688
O	-5.2526299741	-0.2229307787	 2.4187626352	-0.359871
H	 0.2843665033	 2.4369720095	-0.1365213067	 0.115367
H	-1.4778384627	 2.3162435913	-0.1347239238	 0.114656
H	-0.5499741991	 1.9280731358	 1.3311787142	 0.128039
H	-0.3446304503	 0.342632806	-1.2956442674	 0.100099
H	 0.4560102298	-0.0587368287	 0.2172961026	 0.106349
H	-2.5607830995	-0.0574377951	-0.2561618131	 0.076724
H	-2.3139976452	-2.5581652035	-0.0596182066	 0.122914
H	-1.3698966511	-1.9299029047	-1.4085981839	 0.118633
H	-0.5606065087	-2.3611938265	 0.1132137653	 0.124649
H	-3.3535169995	-1.7922429022	 1.6385192123	 0.125352
H	-2.7614005235	-1.2023186453	 3.1888486769	 0.135494
H	-2.738337698	 1.6279179676	 1.9177552916	 0.273002
H	-4.3936727405	 2.1440317074	 2.1149084809	 0.260458
52.9865	58.0951	93.2705	116.7848	208.7781	219.6224	246.1957	283.2066	296.0042	322.8812	390.529	411.5595	492.5553	508.3351	537.8933	588.0683	679.7044	760.6135	825.0151	857.5567	893.2551	970.0131	997.5896	1023.8409	1040.0953	1088.1791	1114.8506	1129.582	1146.7954	1198.3328	1279.2151	1311.242	1331.1443	1355.006	1366.537	1389.7737	1398.7556	1404.3327	1409.5819	1468.9237	1476.5233	1495.4405	1497.2389	1501.6196	1516.0253	1592.8633	1807.8253	2973.9523	3029.5645	3032.6389	3040.7788	3046.5638	3067.5698	3088.5565	3100.5449	3109.348	3114.1423	3119.473	3602.1907	3741.9017
CCC(C)OCC(N)=O	CC[C@@H](C)OCC(=O)N	
InChI=1S/C6H13NO2/c1-3-5(2)9-4-6(7)8/h5H,3-4H2,1-2H3,(H2,7,8)	InChI=1S/C6H13NO2/c1-3-5(2)9-4-6(7)8/h5H,3-4H2,1-2H3,(H2,7,8)/t5-/m1/s1
