17
gdb 66199	2.39045	1.5459	1.39579	3.7525	72.57	-0.2647	0.003	0.2678	1024.4932	0.136634	-418.037569	-418.029337	-418.028392	-418.070246	30.91	
C	 0.01450834	 1.5154813592	 0.0734657394	-0.4232
C	-0.0287702539	-0.0092827466	-0.0289139714	 0.201766
C	 0.7076192268	-0.5521757819	-1.2661648178	-0.254811
C	 0.809697589	-2.0766880791	-1.1816264659	-0.176133
N	 1.2593463577	-2.5428543799	 0.1259870992	-0.250945
C	 1.1312749101	-1.7688957446	 1.111497434	 0.130271
O	 0.5933542282	-0.5120482291	 1.1690464982	-0.25216
C	-1.4378455674	-0.4676219872	-0.0393645413	 0.287971
N	-2.539292879	-0.8149042228	-0.0698764437	-0.335592
H	 1.0566665556	 1.8432346669	 0.0897623565	 0.136755
H	-0.491727127	 1.9681814494	-0.7826935414	 0.140692
H	-0.4759845611	 1.8475270469	 0.990900151	 0.150408
H	 0.1933885105	-0.2296445598	-2.1758576759	 0.124993
H	 1.7082947158	-0.1066827285	-1.2681503243	 0.121964
H	-0.1593919658	-2.5415737243	-1.4017834616	 0.141114
H	 1.509800081	-2.4500722436	-1.9355594338	 0.121189
H	 1.4764842696	-2.0507961748	 2.1037830788	 0.135718
92.0625	149.0962	196.1589	231.9629	251.9044	307.095	390.7321	423.8767	487.1447	525.9545	601.7053	614.4092	683.4026	793.768	858.4986	886.3914	917.3536	958.3374	980.7157	1025.2294	1049.7979	1129.8523	1138.5066	1179.2205	1202.2721	1268.4426	1275.2368	1360.3246	1373.5946	1404.523	1412.2102	1471.5811	1482.5944	1489.7224	1491.2643	1744.1121	2356.4235	3036.0332	3048.1422	3055.8624	3076.0143	3103.9667	3137.8803	3142.1777	3169.7576
CC1(CCN=CO1)C#N	C[C@]1(CCN=CO1)C#N	
InChI=1S/C6H8N2O/c1-6(4-7)2-3-8-5-9-6/h5H,2-3H2,1H3	InChI=1S/C6H8N2O/c1-6(4-7)2-3-8-5-9-6/h5H,2-3H2,1H3/t6-/m0/s1
