21
gdb 59022	3.07446	1.01656	0.90657	2.0509	81.42	-0.232	0.0277	0.2597	1384.4362	0.18135	-424.236227	-424.226485	-424.22554	-424.271144	36.431	
C	 0.2692846592	 1.3060436286	-0.2025446622	-0.409753
C	-0.021555139	-0.1743994257	 0.0852661487	 0.010854
O	 0.4050081144	-0.5298926156	 1.4011823283	-0.436351
C	-1.4867268075	-0.4911477242	-0.0054025466	 0.393025
C	-2.0914089142	-1.1587602165	-0.9882045006	-0.197125
C	-3.584774772	-1.2308008245	-0.7977877418	-0.278853
C	-3.7840317896	-0.7654077635	 0.6713927682	 0.119465
O	-3.8872915398	-1.8674484057	 1.5664127738	-0.436054
C	-2.4811949051	-0.0208905626	 1.0352012088	-0.305104
H	 1.3451526226	 1.5064983247	-0.1294748107	 0.103243
H	-0.0543730274	 1.5768644755	-1.2119896661	 0.120961
H	-0.2463777753	 1.9493527342	 0.5164031889	 0.127225
H	 0.5105542512	-0.7841203032	-0.6626625021	 0.064974
H	 1.3164490935	-0.2378494581	 1.5031549459	 0.280331
H	-1.5857070676	-1.59043079	-1.8459496611	 0.08272
H	-4.1113424767	-0.572364555	-1.5034970592	 0.100254
H	-3.9923707268	-2.2386119815	-0.9495584614	 0.093407
H	-4.6652543083	-0.116305589	 0.7718194946	 0.056475
H	-4.6569778416	-2.3850569578	 1.3094011645	 0.277073
H	-2.173522861	-0.2714482196	 2.0536473104	 0.137504
H	-2.6190318389	 1.0678413895	 0.9962333895	 0.095729
49.4423	76.3946	152.3136	194.5727	252.5589	269.0364	295.882	300.2716	352.8393	405.4734	425.902	505.3412	545.6561	644.2635	765.867	812.7398	850.7816	870.6211	906.679	910.1959	964.8127	976.9234	1006.5853	1031.2652	1071.962	1085.9863	1120.7658	1149.5338	1173.5779	1214.9507	1231.7877	1241.4393	1295.1758	1301.1512	1336.0829	1355.998	1376.6552	1398.0234	1420.4343	1420.7174	1467.8271	1478.2656	1491.0612	1499.7288	1724.1622	2967.2899	2988.1274	3007.0363	3024.5031	3027.5891	3039.5959	3095.1673	3100.8165	3120.1689	3181.5112	3813.8819	3816.2188
CC(O)C1=CCC(O)C1	C[C@@H](O)C1=CC[C@@H](O)C1	
InChI=1S/C7H12O2/c1-5(8)6-2-3-7(9)4-6/h2,5,7-9H,3-4H2,1H3	InChI=1S/C7H12O2/c1-5(8)6-2-3-7(9)4-6/h2,5,7-9H,3-4H2,1H3/t5-,7-/m1/s1
