16
gdb 35018	3.07006	1.29334	1.09606	1.5697	84.25	-0.2329	0.0073	0.2402	1127.4958	0.122427	-363.495053	-363.486731	-363.485787	-363.527683	32.157	
C	-0.0231057663	-1.2298685671	 0.0093133432	-0.442742
C	 0.0386981151	-0.0283991436	 0.0070655757	 0.359141
C	 0.0899530686	 1.4053153452	-0.0040793955	-0.258302
N	 0.4684938583	 2.2242153657	 1.1766202063	-0.180751
C	 1.5286296882	 1.4488295316	 1.9197118408	-0.156028
C	 2.4859721626	 1.4460766595	 0.7033863066	-0.313567
C	 1.3751075946	 2.1769084893	-0.0600960347	 0.15727
C	 1.5688904545	 3.2661808637	-0.9577241031	 0.189547
C	 1.7641251666	 4.1694665381	-1.7282069956	-0.373343
H	-0.0815826899	-2.290414164	 0.0052196752	 0.204527
H	-0.7291624356	 1.880030056	-0.5379334874	 0.131167
H	 1.882016087	 2.051000055	 2.7573906122	 0.119004
H	 1.1822424383	 0.4790565825	 2.2838859029	 0.124627
H	 3.366037483	 2.0726222888	 0.8492552509	 0.12542
H	 2.7871068279	 0.4809033338	 0.2905757751	 0.120251
H	 1.9287681369	 4.9707850455	-2.4053784226	 0.193779
106.8388	134.7304	175.3673	194.8428	303.2996	367.8828	451.6493	503.7409	524.8575	562.6136	599.3888	610.9299	627.4162	663.3988	667.54	772.8683	783.905	794.5331	869.4005	966.6727	972.5432	1012.3243	1076.7548	1100.097	1170.6642	1216.7712	1220.0081	1256.2391	1290.2981	1310.0733	1402.9862	1481.7656	1503.9169	2229.688	2234.4203	3074.5943	3079.4882	3127.5821	3145.3591	3149.241	3500.6919	3501.7652
C#CC1N2CCC12C#C	C#C[C@H]1N2CC[C@@]12C#C	
InChI=1S/C8H7N/c1-3-7-8(4-2)5-6-9(7)8/h1-2,7H,5-6H2	InChI=1S/C8H7N/c1-3-7-8(4-2)5-6-9(7)8/h1-2,7H,5-6H2/t7-,8+,9?/m1/s1
