16
gdb 6653	6.92652	0.86496	0.81439	5.9417	66.79	-0.2609	0.0138	0.2747	1361.6944	0.129399	-379.976204	-379.966889	-379.965945	-380.012014	31.01	
C	-0.1222815943	 1.4074019567	 0.1626472403	-0.484127
C	-0.2863778075	-0.09841245	 0.2759266629	 0.403274
O	 0.299147321	-0.765031101	 1.111041434	-0.369807
N	-1.1249978541	-0.6731008172	-0.6393595521	-0.310104
C	-1.3103166443	-2.1099020352	-0.6902241885	-0.159737
C	-2.1891760748	-2.6224290365	 0.4760733538	-0.328894
C	-2.4284638967	-4.0588714413	 0.3836281073	 0.256511
N	-2.6098920202	-5.1955626472	 0.2812075336	-0.303149
H	-0.1521305929	 1.8403019688	 1.1643142462	 0.157977
H	 0.8633732286	 1.6241143207	-0.260658403	 0.158161
H	-0.8819989765	 1.8844514317	-0.4620500236	 0.115477
H	-1.6047920209	-0.0956966638	-1.3083315234	 0.252117
H	-1.7679974033	-2.3676287246	-1.6478703376	 0.126499
H	-0.334163763	-2.5989427584	-0.6329223013	 0.154736
H	-1.6806358012	-2.3943253897	 1.4170600921	 0.18576
H	-3.1518788799	-2.0999213132	 0.4797468693	 0.145305
30.8123	62.9338	76.7275	87.7534	175.9459	261.0521	336.5647	376.1013	402.8249	450.4663	532.2905	633.7574	650.6492	761.3478	888.638	957.2528	992.7944	1018.8262	1052.3472	1086.8042	1120.6658	1232.572	1272.3064	1296.3655	1341.0804	1396.3134	1405.6517	1467.1798	1469.8614	1478.9825	1486.0689	1531.0584	1775.6247	2362.767	3049.7455	3053.4834	3070.3707	3103.3952	3120.1216	3127.1406	3142.6296	3660.4837
CC(=O)NCCC#N	CC(=O)NCCC#N	
InChI=1S/C5H8N2O/c1-5(8)7-4-2-3-6/h2,4H2,1H3,(H,7,8)	InChI=1S/C5H8N2O/c1-5(8)7-4-2-3-6/h2,4H2,1H3,(H,7,8)
