20
gdb 22131	3.94474	0.87336	0.85053	1.4238	80.16	-0.2415	0.0075	0.2489	1442.3992	0.167542	-440.226244	-440.216339	-440.215395	-440.261088	36.742	
C	-0.2473353206	 1.6726036393	 0.2577245576	-0.252748
O	-0.0140523854	 0.2843249099	 0.3603259965	-0.284868
C	-1.0824520026	-0.5495573031	-0.0354945494	 0.418806
C	-2.3244590782	-0.3913557697	 0.8372428509	-0.45028
C	-1.3946783475	-0.5588120966	-1.5834447695	-0.373425
C	-1.1585931666	-2.05128144	-1.5429413219	 0.424458
C	-0.5857541051	-2.0235789232	-0.1437476075	-0.3686
N	-1.4691539054	-2.9447883647	-2.3841984128	-0.237893
O	-1.1175791139	-4.2242397962	-1.9089897325	-0.394352
H	 0.7042741178	 2.1677529156	 0.4656247451	 0.129555
H	-0.578611185	 1.9612510615	-0.7509923912	 0.107627
H	-0.9913579416	 2.03090003	 0.9823319188	 0.110552
H	-2.7817409161	 0.5962107593	 0.7236105695	 0.11835
H	-3.0777962759	-1.1354935734	 0.5611673585	 0.126206
H	-2.0661648938	-0.5367889963	 1.8909576958	 0.125459
H	-2.3803679175	-0.218478346	-1.9100672397	 0.115596
H	-0.6222271645	-0.0280107348	-2.1494677105	 0.123789
H	 0.5070007689	-2.0744113814	-0.1274979382	 0.133667
H	-0.9900388402	-2.7477570722	 0.5673627796	 0.122695
H	-1.4183987768	-4.7941926682	-2.6246678691	 0.305407
46.3444	106.5731	168.4552	197.105	232.0551	257.549	278.6279	329.3797	345.5611	355.447	414.0115	470.0238	485.3699	538.9955	655.5435	754.1184	813.9869	866.68	901.2074	913.5796	944.4453	976.285	1042.6273	1101.5276	1115.0138	1131.1619	1180.2271	1182.7699	1199.1204	1213.7304	1239.808	1275.3423	1290.5156	1401.397	1403.5776	1441.0038	1460.7562	1476.7165	1485.0873	1489.0931	1504.7359	1511.2556	1788.4682	2988.2667	3034.977	3042.1569	3049.9694	3062.3114	3107.4232	3108.2764	3112.8132	3114.3954	3117.7346	3818.76
COC1(C)CC(C1)=NO	CO[C@@]1(C)CC(=NO)C1	
InChI=1S/C6H11NO2/c1-6(9-2)3-5(4-6)7-8/h8H,3-4H2,1-2H3	InChI=1S/C6H11NO2/c1-6(9-2)3-5(4-6)7-8/h8H,3-4H2,1-2H3/t6-
