17
gdb 97307	3.13967	0.98099	0.81559	7.5296	76.16	-0.2331	0.0004	0.2336	1386.7733	0.136013	-455.177325	-455.168535	-455.167591	-455.211248	32.545	
N	-0.2308880651	 1.2948076722	 0.1232619056	-0.506173
C	-0.0598891705	-0.0565887953	 0.0809393118	 0.106238
N	 1.0805819944	-0.612722329	-0.0351777963	-0.23396
H	 2.7667396742	-0.3516139528	 0.3939676407	 0.294412
C	 1.1580529113	-2.0319811704	-0.1369215252	 0.052809
C	 2.1658644664	-2.6079173129	-1.090113549	-0.318189
C	 2.4113097654	-2.7137151398	 0.4059169123	-0.188728
C	 3.5546127518	-1.9652484406	 1.0384546638	 0.420018
O	 4.3794545034	-2.5286251564	 1.7117470763	-0.349779
O	 3.6241434346	-0.6476700382	 0.7881477394	-0.390005
H	 0.5919573697	 1.8621827222	 0.2598749075	 0.269196
H	-1.0879017973	 1.6572006178	 0.5048146359	 0.268021
H	-0.9963651789	-0.6259272566	 0.1086333939	 0.107138
H	 0.2251218766	-2.5807652138	-0.0024253259	 0.089804
H	 1.918478861	-3.5162297371	-1.6271405564	 0.126744
H	 2.7744775103	-1.899119431	-1.6399157142	 0.136974
H	 2.2786530726	-3.6928139384	 0.8492611798	 0.115482
64.2916	118.5926	156.4523	179.8474	249.7952	304.5624	371.9956	378.1131	446.899	518.7107	542.8083	570.2457	665.3545	768.4172	795.3247	826.5914	848.8855	876.3756	968.6258	974.2316	1014.1199	1044.7318	1071.8488	1112.968	1124.244	1185.6145	1225.8223	1279.2803	1305.3736	1359.0938	1367.5435	1438.0685	1480.0243	1492.0684	1635.4288	1763.8811	1847.8216	3058.7909	3090.9813	3141.7667	3192.4991	3234.3593	3300.0185	3592.1405	3718.2614
NC=[NH+]C1CC1C([O-])=O	NC=N[C@H]1C[C@H]1C(=O)O	
InChI=1S/C5H8N2O2/c6-2-7-4-1-3(4)5(8)9/h2-4H,1H2,(H2,6,7)(H,8,9)	InChI=1S/C5H8N2O2/c6-2-7-4-1-3(4)5(8)9/h2-4H,1H2,(H2,6,7)(H,8,9)/t3-,4+/m1/s1
