19
gdb 65612	3.26831	1.25972	1.18328	1.1168	80.94	-0.2444	0.0476	0.292	1124.0668	0.158046	-385.81999	-385.811453	-385.810508	-385.85316	33.111	
C	-0.3596217412	 1.6310784311	-0.009635924	-0.456603
C	-0.0735290058	 0.1248291436	 0.0229097342	 0.122452
C	 1.1581520995	-0.3432691405	-0.8536356104	-0.284079
C	 1.8860612928	-0.8057485019	 0.4182686884	 0.129332
O	 2.6727791522	 0.2447239842	 1.0278492223	-0.297151
C	 1.6407250517	 0.506735471	 2.0089782352	-0.098695
C	 0.6656920571	-0.4432344155	 1.3050792545	-0.113508
C	-1.2828509978	-0.6315756456	-0.2633276927	 0.286065
C	-2.2803764024	-1.2634281643	-0.4939855609	-0.464563
H	 0.5593101309	 2.2056097627	 0.1329174419	 0.129492
H	-0.7836433463	 1.9087055443	-0.9790695622	 0.128828
H	-1.0775379918	 1.9147651498	 0.7660825754	 0.12432
H	 0.9041378249	-1.1542549536	-1.5389039172	 0.114285
H	 1.6693723786	 0.4531160902	-1.3991046778	 0.113046
H	 2.4058249741	-1.7672165921	 0.4153378108	 0.078781
H	 1.9417358034	 0.1545814219	 3.0048006529	 0.100845
H	 1.3806597829	 1.5686000425	 2.0741801003	 0.105233
H	 0.0960670434	-1.1481602762	 1.9064483331	 0.088474
H	-3.1621673362	-1.8172318414	-0.7018337339	 0.193446
54.1818	145.9433	168.1146	233.3082	306.9555	324.9122	379.4779	406.7205	497.3182	538.0278	611.3179	620.0537	625.9998	711.5643	804.4368	833.9052	855.6332	914.7119	930.3785	968.3044	982.1704	1013.4438	1016.5966	1055.6603	1105.546	1130.5758	1159.2326	1177.3758	1197.3684	1232.7059	1242.0341	1267.1046	1303.7668	1322.9885	1362.2008	1406.6336	1459.0454	1490.234	1494.9474	1529.4024	2228.3783	3009.4594	3040.5101	3066.3843	3066.8656	3077.1295	3112.2123	3121.2919	3132.427	3137.2632	3501.7444
CC1(CC2OCC12)C#C	C[C@]1(C[C@H]2OC[C@@H]12)C#C	
InChI=1S/C8H10O/c1-3-8(2)4-7-6(8)5-9-7/h1,6-7H,4-5H2,2H3	InChI=1S/C8H10O/c1-3-8(2)4-7-6(8)5-9-7/h1,6-7H,4-5H2,2H3/t6-,7-,8-/m1/s1
