21
gdb 73502	2.69648	1.73837	1.39051	1.2296	80.08	-0.2432	0.0786	0.3218	1014.7861	0.18592	-387.102024	-387.09463	-387.093686	-387.133401	31.082	
O	-0.0553279617	 1.3576608336	 0.0332780178	-0.48293
C	 0.0539826269	-0.0355662104	-0.0347928048	 0.418612
C	 1.0784930243	-0.6353563005	-1.0005653349	-0.303558
C	 0.3241333918	-1.7929260969	-1.7012093082	-0.198523
C	-0.859095023	-2.1639614856	-0.7690969185	-0.039514
C	-0.4412655606	-3.1155372831	 0.3779372888	-0.194896
C	 0.2301873933	-2.2158192185	 1.4466483173	-0.242519
C	-0.3543511576	-0.8269613565	 1.197834255	-0.105984
C	-1.2112703264	-0.8424902819	-0.0583199157	-0.123568
H	 0.6633827208	 1.68540205	 0.5846404206	 0.278053
H	 1.3885832468	 0.1372985224	-1.7091546509	 0.103216
H	 1.9820995852	-0.9840184286	-0.4862749967	 0.093322
H	-0.0754517867	-1.4321200492	-2.6547841991	 0.100283
H	 0.9652172247	-2.6519940958	-1.9244576576	 0.089085
H	-1.6935861915	-2.5776114281	-1.3404806278	 0.066362
H	-1.3398901474	-3.5727940766	 0.8067853878	 0.095901
H	 0.2042059434	-3.9307260113	 0.0341761517	 0.088872
H	 0.0041191742	-2.5578074487	 2.4608949519	 0.096241
H	 1.3226929058	-2.2257101166	 1.3530701513	 0.096382
H	-0.6715919241	-0.2216845806	 2.0407551488	 0.078871
H	-2.1907906781	-0.3839212572	-0.108408167	 0.086291
121.6179	233.4635	268.7498	313.6708	358.4632	391.9998	453.9504	528.8378	573.126	694.4711	699.2183	756.8572	789.4187	840.7505	847.5172	884.9244	906.4448	926.7162	951.6085	966.0672	979.2871	997.0024	1027.0973	1040.7416	1079.5251	1105.6809	1128.2006	1175.3583	1193.3475	1217.6828	1229.2371	1260.7495	1276.7084	1282.9854	1295.2683	1308.0926	1315.239	1336.4794	1351.4298	1359.4211	1436.4018	1481.1916	1498.2241	1499.0546	1519.7677	3030.7106	3034.7894	3036.406	3041.1316	3071.6962	3077.7807	3079.5095	3087.2562	3096.5091	3162.4503	3192.5376	3796.4735
OC12CCC3CCC1C23	O[C@@]12CC[C@H]3CC[C@@H]1[C@@H]23	
InChI=1S/C8H12O/c9-8-4-3-5-1-2-6(8)7(5)8/h5-7,9H,1-4H2	InChI=1S/C8H12O/c9-8-4-3-5-1-2-6(8)7(5)8/h5-7,9H,1-4H2/t5-,6-,7+,8+/m1/s1
