15
gdb 132097	3.04811	1.41645	0.9729	3.4833	74.73	-0.2094	-0.0457	0.1638	1137.292	0.113345	-458.138982	-458.13098	-458.130035	-458.172202	29.274	
C	-0.013382704	 1.5586880118	 0.0206899877	-0.507799
C	-0.0132862905	 0.0556709252	 0.0100749997	 0.016871
C	-1.1283204834	-0.7043852552	-0.1476773744	 0.370483
F	-2.3394573383	-0.1987992529	-0.3095700371	-0.047743
N	-1.090293172	-2.0489165153	-0.1520623314	-0.393294
C	 0.1090476791	-2.7839725456	 0.006613749	 0.422907
N	 0.0173117086	-4.0558582181	-0.0149144297	-0.568211
N	 1.2647096331	-2.0277406635	 0.1698787222	-0.316975
C	 1.1751819665	-0.7307340258	 0.1668764411	-0.01718
H	 0.6112674553	 1.9662770985	-0.7821196401	 0.13795
H	-1.0239624546	 1.9494231753	-0.1138994584	 0.139421
H	 0.3735812977	 1.9538319881	 0.9666932055	 0.137943
H	-1.9415567819	-2.5795959584	-0.2721183655	 0.280189
H	 0.9482067751	-4.4489445936	 0.1094844564	 0.226034
H	 2.1133701093	-0.1882424304	 0.298952145	 0.119406
57.4796	91.8005	204.1592	264.8152	265.6222	350.9566	441.7356	463.2705	548.0786	577.3592	590.8349	701.1556	761.4389	764.493	795.9319	841.3224	933.6859	990.5287	991.061	1073.2749	1084.9867	1232.0853	1255.3611	1303.2598	1312.1296	1419.7538	1427.0902	1488.7705	1498.1263	1501.9426	1581.1253	1708.6072	1739.8284	3030.739	3079.6119	3111.2565	3130.2738	3520.6925	3618.2287
CC1=C(F)NC(=N)N=C1	CC1=CN=C(N[C@@H]1F)[NH]	
InChI=1S/C5H6FN3/c1-3-2-8-5(7)9-4(3)6/h2H,1H3,(H2,7,8,9)	InChI=1S/C5H7FN3/c1-3-2-8-5(7)9-4(3)6/h2,4,7H,1H3,(H,8,9)/t4-/m0/s1
