20
gdb 84907	2.27713	1.50718	1.05889	3.7691	82.32	-0.2378	0.0118	0.2496	1189.489	0.172457	-403.19345	-403.184853	-403.183909	-403.226904	32.59	
C	-0.1289053197	 1.5514860022	-0.0039111675	-0.383088
C	 0.0526945673	 0.0205032402	 0.009098622	-0.034257
C	 0.7458908822	-0.4709322125	-1.2385472531	-0.046812
C	 1.919629779	-1.0994132534	-1.237904114	-0.070067
C	 2.7021755726	-1.3650000339	 0.0208162198	-0.252509
C	 2.2158711755	-0.4646806912	 1.1622008124	-0.187662
N	 0.7588659586	-0.4420583978	 1.2017183535	-0.044979
C	 0.0907332517	-0.8921749943	 2.2992642156	 0.149935
O	 0.6004075407	-1.2946873364	 3.3252979412	-0.348527
H	 0.8395566713	 2.0597453303	 0.0068133637	 0.126825
H	-0.6640705512	 1.8666755422	-0.9053600133	 0.119798
H	-0.7024697502	 1.876353396	 0.8689398653	 0.123478
H	-0.9484611186	-0.4308464559	 0.0405239709	 0.100471
H	 0.2221898022	-0.2762044079	-2.1705855026	 0.093752
H	 2.3455592595	-1.4447387919	-2.1764456337	 0.093977
H	 2.6053554061	-2.4211235321	 0.307642474	 0.12604
H	 3.7713815877	-1.1942101306	-0.1534696989	 0.108949
H	 2.5541184722	-0.8156871913	 2.1373708792	 0.147965
H	 2.5941524799	 0.5548370977	 1.0129362133	 0.109211
H	-1.0076887868	-0.8539029493	 2.1527244523	 0.067503
58.3315	119.5377	216.0202	240.0874	243.6579	303.953	326.3635	389.1665	467.397	511.5661	532.7595	632.4824	729.4293	770.9601	810.1379	867.7151	905.7395	944.3801	1003.9358	1016.4873	1030.6606	1041.4288	1063.8859	1090.0943	1120.8457	1161.0689	1205.1099	1246.8758	1301.3634	1312.6654	1337.4623	1360.138	1382.2036	1402.1937	1422.6452	1442.0414	1452.6017	1472.6956	1488.5645	1495.354	1498.0898	1726.3215	1790.4677	2924.2668	3011.1141	3015.0796	3023.5551	3039.1662	3056.6808	3112.1659	3120.0244	3136.3506	3151.848	3174.7109
CC1C=CCCN1C=O	C[C@H]1C=CCCN1C=O	
InChI=1S/C7H11NO/c1-7-4-2-3-5-8(7)6-9/h2,4,6-7H,3,5H2,1H3	InChI=1S/C7H11NO/c1-7-4-2-3-5-8(7)6-9/h2,4,6-7H,3,5H2,1H3/t7-/m0/s1
