21
gdb 121689	4.41537	0.54929	0.52271	2.648	81.83	-0.2485	-0.038	0.2106	2152.8433	0.178577	-424.264172	-424.253252	-424.252308	-424.302546	37.22	
C	-0.1102892701	 1.5260452306	-0.0974238523	-0.380692
C	-0.1552284553	 0.0132989727	 0.1330068336	-0.172248
C	 0.8966629291	-0.4673820584	 1.138039332	-0.156133
C	 0.8522958699	-1.9763698051	 1.3704984047	-0.310584
C	 1.8777174268	-2.4838758264	 2.3658581607	 0.359803
O	 2.6628872472	-1.7622443214	 2.9366743045	-0.304048
C	 1.8647746846	-3.9887687907	 2.6561226946	-0.372173
C	 1.6642295892	-4.24116964	 4.144002385	 0.162518
O	 0.882685082	-5.0377561539	 4.590383498	-0.23168
H	 0.8665757571	 1.8386475005	-0.4824942045	 0.116764
H	-0.8698784856	 1.8424615119	-0.8188126851	 0.113022
H	-0.2869996069	 2.0731864843	 0.8350431107	 0.117502
H	-1.1547831777	-0.274284521	 0.4858545089	 0.095634
H	-0.0115034452	-0.5079419073	-0.8231011517	 0.094114
H	 1.8990417142	-0.187097969	 0.7936496088	 0.110684
H	 0.7607411418	 0.0461524589	 2.0969284517	 0.112055
H	-0.1381017873	-2.2978041892	 1.7275012274	 0.129414
H	 0.9992155806	-2.5299657995	 0.4308666227	 0.125573
H	 1.1141878758	-4.5391250013	 2.0859013419	 0.126315
H	 2.8629587869	-4.3676874852	 2.3992771454	 0.155764
H	 2.3082509929	-3.6133608204	 4.793958533	 0.108397
22.0349	58.8544	76.6338	102.041	114.9607	143.2865	222.0429	248.4186	291.1318	302.9115	445.0381	467.9767	520.8335	636.6033	729.7261	775.9815	801.1884	872.871	908.1007	915.8718	977.737	1018.7412	1042.1926	1072.0627	1088.6938	1121.6782	1137.1138	1196.8334	1237.4383	1264.5157	1300.2674	1311.2493	1327.6998	1373.4829	1400.8003	1406.6511	1416.4341	1443.0065	1447.5391	1483.2254	1494.6127	1500.3806	1511.1943	1795.2889	1840.0063	2927.0527	3001.7253	3011.0955	3026.295	3031.316	3036.0316	3037.6479	3040.7024	3079.3071	3099.2061	3104.4229	3125.9207
CCCCC(=O)CC=O	CCCCC(=O)CC=O	
InChI=1S/C7H12O2/c1-2-3-4-7(9)5-6-8/h6H,2-5H2,1H3	InChI=1S/C7H12O2/c1-2-3-4-7(9)5-6-8/h6H,2-5H2,1H3
