25
gdb 122322	4.42624	0.62843	0.59617	0.2434	96.82	-0.223	0.0358	0.2588	2020.37	0.229555	-352.386665	-352.376448	-352.375504	-352.422968	37.505	
C	-0.0099746251	 1.5873315153	 0.2599745508	-0.381459
C	-0.0305120283	 0.0845986986	-0.0324826293	-0.159595
C	-1.4303764439	-0.5298255993	 0.0703782482	-0.153726
C	-1.4503187888	-2.0418706959	-0.2263887907	-0.319832
C	-2.8117620791	-2.6639883326	-0.1187203909	 0.356056
C	-3.528829027	-3.2031236921	-1.1076797438	-0.17481
C	-4.8382002829	-3.7874366731	-0.636356778	-0.241762
C	-4.9694759206	-3.2234510231	 0.8022167524	-0.202098
C	-3.5347169135	-2.8068327513	 1.2093513436	-0.297789
H	 1.001492955	 1.9976044326	 0.1777468233	 0.110444
H	-0.6495518723	 2.1358496272	-0.4404970214	 0.113647
H	-0.3734625784	 1.7989577139	 1.271843221	 0.112786
H	 0.3724393639	-0.0992171496	-1.0374031032	 0.093932
H	 0.6435940657	-0.4339370722	 0.6624005572	 0.093248
H	-1.8320935599	-0.3452334807	 1.0751993651	 0.09524
H	-2.1085263716	-0.0206020548	-0.6267875439	 0.095961
H	-1.0475161094	-2.2152167711	-1.2317306807	 0.09612
H	-0.7639693787	-2.5421119218	 0.473388999	 0.095589
H	-3.1992097175	-3.2656050034	-2.1402560587	 0.077195
H	-5.6874563388	-3.5115688372	-1.2723409585	 0.097372
H	-4.798332137	-4.8867606181	-0.6429947779	 0.100239
H	-5.6117658951	-2.3371161017	 0.785042147	 0.102279
H	-5.4205596752	-3.9342092058	 1.4994563534	 0.092996
H	-3.0415608929	-3.5761803889	 1.8225423541	 0.099032
H	-3.5220047487	-1.8900095751	 1.809542062	 0.098936
48.7204	72.5747	81.7026	128.9027	144.9418	232.6672	246.0011	288.789	323.567	390.566	514.2387	605.5851	690.788	735.6481	789.7136	814.1057	842.7472	878.9175	899.4324	907.4189	918.6155	937.2137	966.2963	1010.1712	1037.4168	1060.4119	1063.3404	1101.4349	1122.2439	1151.1883	1171.9772	1228.1842	1235.2225	1246.1818	1277.1985	1286.565	1315.1575	1320.8958	1327.1888	1331.0675	1360.902	1370.5208	1392.9444	1412.9741	1475.8097	1482.7961	1485.0761	1489.2481	1498.0891	1499.976	1506.5399	1511.9743	1717.2267	2991.7106	2996.1473	2997.9965	3010.3122	3019.9701	3029.0684	3033.9037	3040.273	3045.1849	3049.0478	3060.2674	3068.3882	3095.6425	3098.4402	3100.2182	3177.2066
CCCCC1=CCCC1	CCCCC1=CCCC1	
InChI=1S/C9H16/c1-2-3-6-9-7-4-5-8-9/h7H,2-6,8H2,1H3	InChI=1S/C9H16/c1-2-3-6-9-7-4-5-8-9/h7H,2-6,8H2,1H3
