18
gdb 54954	3.05568	1.06795	0.96841	2.9504	80.69	-0.2443	0.0102	0.2545	1277.2021	0.145402	-401.945645	-401.935855	-401.934911	-401.980068	36.429	
C	-0.294206791	 1.5586267267	 0.107894156	-0.475124
C	-0.0194710441	 0.0650126122	 0.0072018298	 0.134538
C	 1.3613616227	-0.4174956603	-0.3691942232	-0.31141
C	 0.8892996247	-0.6465577983	 1.040976563	-0.162353
C	 1.5260883475	 0.1410779409	 2.1462036017	 0.415219
N	 1.3476369021	-0.3902641781	 3.3922839398	-0.533637
O	 2.1686834533	 1.1612303736	 1.9625814151	-0.374229
C	-1.1363061347	-0.7236006497	-0.4477327327	 0.276773
C	-2.0812591034	-1.3655868251	-0.8254899983	-0.454774
H	 0.5770540318	 2.0842469176	 0.4993790583	 0.160702
H	-0.5385989533	 1.9555005196	-0.8820841497	 0.124582
H	-1.1472210454	 1.7507555872	 0.7659702885	 0.12126
H	 1.4489977437	-1.2760731186	-1.0234757465	 0.12385
H	 2.1212125852	 0.348400116	-0.4793455083	 0.144947
H	 0.5697334534	-1.6504696233	 1.2979067651	 0.094079
H	 0.7059708979	-1.1448567272	 3.5614677476	 0.260818
H	 1.6806603892	 0.1423131845	 4.1794754013	 0.261732
H	-2.9126959595	-1.9309326278	-1.1664413175	 0.193028
70.9425	106.1375	145.8128	197.6095	222.9629	233.6786	263.6332	336.3626	360.4799	421.2621	523.3798	546.4668	572.9225	594.1787	623.6028	642.5853	657.764	751.0009	821.0738	846.4843	939.1456	969.2217	983.7288	1075.3486	1078.4226	1091.565	1111.0639	1130.9154	1259.6991	1290.666	1315.5606	1413.7521	1433.2724	1468.3791	1498.0004	1502.4987	1617.0364	1777.3643	2231.9818	3044.5089	3106.1402	3142.7562	3152.9524	3168.8238	3241.0953	3503.7006	3601.2916	3736.7075
CC1(CC1C(N)=O)C#C	C[C@]1(C[C@H]1C(=O)N)C#C	
InChI=1S/C7H9NO/c1-3-7(2)4-5(7)6(8)9/h1,5H,4H2,2H3,(H2,8,9)	InChI=1S/C7H9NO/c1-3-7(2)4-5(7)6(8)9/h1,5H,4H2,2H3,(H2,8,9)/t5-,7+/m0/s1
