21
gdb 106743	2.16226	1.51263	1.07436	3.2745	84.32	-0.234	-0.0023	0.2316	1226.6609	0.180942	-387.100612	-387.091085	-387.090141	-387.134981	35.661	
C	 0.0367733764	 1.5212115763	-0.2828908549	-0.376797
C	 0.0260392449	 0.040808211	 0.1260302148	-0.299951
C	-1.3656618313	-0.5305874558	 0.1682863798	 0.202982
C	-2.1080037214	-1.016640122	-1.0773034653	-0.367857
C	-1.9400251603	-1.9860975932	 0.0393538375	 0.276041
C	-1.1841393195	-3.2783892078	-0.0622763495	-0.493227
C	-3.02184349	-1.6865970205	 1.0938944493	-0.416124
C	-2.3692793353	-0.2887540061	 1.2505478253	 0.379071
O	-2.4735623172	 0.5690401926	 2.0855527006	-0.329881
H	 1.0561492874	 1.9189471381	-0.2876161446	 0.110379
H	-0.3850043432	 1.6561730632	-1.2842938107	 0.114385
H	-0.5591637785	 2.11263818	 0.4176554436	 0.145217
H	 0.6399517334	-0.5454008981	-0.5695350974	 0.09613
H	 0.4872143671	-0.0644272464	 1.1156164115	 0.109193
H	-3.0879930644	-0.6216566012	-1.3340799986	 0.115662
H	-1.4517030956	-1.1534993101	-1.9328668678	 0.11849
H	-0.3225534116	-3.1840103988	-0.7309926928	 0.122792
H	-0.8187557636	-3.605212995	 0.9174129511	 0.124247
H	-1.8236428967	-4.0753880698	-0.4599428788	 0.128506
H	-4.0641609424	-1.7357195461	 0.7634745785	 0.114863
H	-2.9132618683	-2.2548045504	 2.0232094283	 0.125877
65.8959	102.4533	131.3103	199.549	210.2903	242.9244	277.346	340.6923	391.17	466.1063	488.4612	558.7502	611.0412	663.8266	730.9425	773.6694	798.0743	852.1466	954.5008	966.2927	984.4008	999.573	1004.637	1044.1756	1075.5278	1087.9191	1107.2163	1121.5883	1186.6008	1206.0031	1255.2154	1304.0127	1337.875	1368.0509	1390.5302	1409.3591	1424.2596	1459.2706	1479.9892	1485.6643	1496.4376	1498.0763	1507.4906	1510.8284	1862.8981	3019.9571	3024.7676	3038.0425	3047.3702	3056.2452	3084.1869	3099.9302	3101.3713	3104.0683	3106.5544	3121.3217	3187.2889
CCC12CC1(C)CC2=O	CC[C@@]12C[C@]1(C)CC2=O	
InChI=1S/C8H12O/c1-3-8-5-7(8,2)4-6(8)9/h3-5H2,1-2H3	InChI=1S/C8H12O/c1-3-8-5-7(8,2)4-6(8)9/h3-5H2,1-2H3/t7-,8-/m0/s1
