14
gdb 50058	3.1021	0.96158	0.89891	3.9346	70.48	-0.266	-0.1045	0.1615	1291.9084	0.098875	-436.698312	-436.689646	-436.688701	-436.732992	29.857	
O	 0.1363984864	-0.1050671345	-0.3100465589	-0.252859
C	 0.0676563998	 1.0515303916	 0.0231326266	 0.14678
C	 1.2717922513	 1.9305604213	 0.0955936158	-0.099447
C	 1.1522170851	 3.3949685898	-0.2085930534	-0.296395
C	 1.4515131096	 2.9910786489	 1.2121650658	-0.137988
C	 0.4018896282	 3.1906032311	 2.241822438	 0.305934
O	-0.7871553864	 3.2570444184	 2.0335391292	-0.292751
C	 0.9199305969	 3.3318329127	 3.6188994815	 0.227101
N	 1.3337307008	 3.445815491	 4.6925772142	-0.292614
H	-0.8959953472	 1.5365559194	 0.2699155667	 0.117531
H	 2.18917993	 1.4228080145	-0.1815194054	 0.132201
H	 1.9446121268	 3.8701921052	-0.773704686	 0.148839
H	 0.1521608165	 3.7793168107	-0.3814669881	 0.159586
H	 2.4690092622	 3.0912857699	 1.5711935541	 0.134081
32.9608	89.9214	143.4249	180.6498	228.8768	277.1867	326.4512	348.4627	461.4677	504.0356	600.6471	737.5955	794.0406	815.6501	863.9284	893.2239	947.8656	1049.8183	1066.0242	1104.6902	1112.1493	1132.293	1181.2267	1210.3912	1338.5362	1403.5334	1439.047	1472.0609	1774.8632	1815.9079	2338.768	2959.2362	3143.0116	3182.0882	3190.6188	3240.5548
O=CC1CC1C(=O)C#N	O=C[C@H]1C[C@H]1C(=O)C#N	
InChI=1S/C6H5NO2/c7-2-6(9)5-1-4(5)3-8/h3-5H,1H2	InChI=1S/C6H5NO2/c7-2-6(9)5-1-4(5)3-8/h3-5H,1H2/t4-,5-/m1/s1
