19
gdb 63735	2.74124	1.29066	1.172	1.9732	77.5	-0.2279	-0.0255	0.2023	1159.2215	0.156703	-423.024349	-423.014952	-423.014007	-423.05872	34.935	
C	-0.5008431523	 1.5152922963	 0.1512797735	-0.445747
C	-0.0397283883	 0.0748038185	-0.0331110354	 0.299843
O	-1.1137377781	-0.8459179928	 0.0511498494	-0.469898
C	 0.8542028694	-0.2136313362	-1.2842877246	-0.379361
C	 2.045086261	-0.5149130476	-0.354989392	 0.235274
C	 3.1663371212	-1.5208172903	-0.4895852367	-0.307277
C	 3.4895067867	-0.0627712516	-0.4531848168	-0.308702
C	 1.1756378859	-0.3376533188	 0.8490619018	 0.297055
O	 1.3109586179	-0.5037971034	 2.0314387212	-0.331518
H	 0.329034659	 2.2199235998	 0.0349631406	 0.119988
H	-1.2721886601	 1.7560144299	-0.5867772446	 0.128726
H	-0.9203432181	 1.6543656854	 1.1536915045	 0.123607
H	-1.3924768596	-0.877661675	 0.9742054326	 0.288332
H	 0.4917087028	-1.0782594688	-1.843176178	 0.122094
H	 0.9820177465	 0.6354218871	-1.9594054633	 0.10532
H	 3.3836469759	-2.120491999	 0.3880474042	 0.137074
H	 3.2415434035	-2.0443386303	-1.4366909246	 0.126075
H	 3.7840557523	 0.424928287	-1.3765988352	 0.124455
H	 3.9363926744	 0.3468979496	 0.4465405635	 0.134658
36.7689	146.574	187.9748	206.0566	220.7257	247.4541	258.562	318.4999	337.1632	390.4149	514.2027	577.7457	724.2678	726.3483	767.3045	801.573	822.9814	887.5286	912.5463	935.7474	960.07	978.6524	1029.5998	1057.3617	1074.5349	1101.4602	1125.3209	1179.3465	1197.7699	1220.6333	1232.6573	1276.9907	1349.8109	1375.5129	1398.7415	1457.9179	1473.7239	1486.6621	1488.6948	1490.1227	1871.2238	3030.0276	3069.5852	3101.7424	3111.5655	3129.0401	3129.8029	3132.623	3213.5573	3228.7047	3790.9036
CC1(O)CC2(CC2)C1=O	C[C@@]1(O)CC2(CC2)C1=O	
InChI=1S/C7H10O2/c1-6(9)4-7(2-3-7)5(6)8/h9H,2-4H2,1H3	InChI=1S/C7H10O2/c1-6(9)4-7(2-3-7)5(6)8/h9H,2-4H2,1H3/t6-/m1/s1
