18
gdb 90302	3.11214	1.63495	1.3555	3.6417	75.36	-0.2345	0.0133	0.2478	990.1286	0.149209	-401.910832	-401.903619	-401.902675	-401.942223	29.084	
C	-0.3427691377	 1.4809396459	-0.314362226	-0.396653
C	-0.0249859576	 0.028639057	-0.047489427	 0.082258
O	 1.1769655095	-0.4204058885	-0.8241846589	-0.281479
C	 1.8545918827	-0.5162766	 0.3569052575	 0.403171
N	 3.042176858	-0.2790636619	 0.7302916754	-0.303195
C	 2.8797265153	 0.123563142	 2.1266719139	 0.005144
C	 2.2738451378	 1.4909592475	 2.2651451579	-0.292489
C	 1.356825738	 0.2999200964	 2.4478562585	-0.106648
C	 0.6952682185	-0.4066222884	 1.2867456776	-0.156742
H	 0.5056651044	 2.129564096	-0.0890837114	 0.139382
H	-0.6152063355	 1.6224424394	-1.3641794442	 0.137201
H	-1.1903350353	 1.7903843513	 0.3057458623	 0.129323
H	-0.8640738213	-0.6221812851	-0.3048816626	 0.100283
H	 3.6000526834	-0.2455594797	 2.8466776426	 0.096609
H	 2.4855764581	 2.0461638993	 3.1734246222	 0.117446
H	 2.2270468061	 2.1030930555	 1.3714756829	 0.12539
H	 0.9861559901	 0.1138625176	 3.4478483421	 0.09371
H	 0.2910799556	-1.3703764845	 1.6082609972	 0.107289
136.2952	179.7761	216.4881	287.4223	399.4132	464.2103	481.7036	548.881	649.7164	674.9964	752.9704	755.1487	765.7109	807.6373	859.6442	891.5361	933.2144	968.2617	1010.2493	1045.4585	1057.6805	1068.6598	1088.2371	1096.1848	1125.2484	1134.6087	1182.6425	1203.1504	1208.3203	1295.984	1323.7149	1342.2757	1374.8969	1381.0417	1416.7927	1470.2642	1482.1574	1494.9153	1737.0085	3048.3543	3067.0776	3084.6923	3115.3653	3130.3692	3143.3176	3184.2103	3191.0935	3218.3303
CC1OC2=NC3CC3C12	C[C@H]1O[C]2[N][C@H]3C[C@H]3[C@@H]12	
InChI=1S/C7H9NO/c1-3-6-4-2-5(4)8-7(6)9-3/h3-6H,2H2,1H3	InChI=1S/C7H9NO/c1-3-6-4-2-5(4)8-7(6)9-3/h3-6H,2H2,1H3/t3-,4-,5+,6-/m1/s1
