17
gdb 19843	3.33872	2.54297	1.81279	2.6729	67.16	-0.2337	0.07	0.3037	765.8015	0.145133	-363.81785	-363.811676	-363.810732	-363.847788	25.429	
C	-0.0020166001	 1.5321731348	-0.0250491154	-0.310993
C	 1.3012800211	 0.7864923676	 0.0292011902	 0.09064
O	 2.0246543947	 0.868670355	 1.2231836835	-0.24689
C	 2.1314722828	-0.3450829352	 1.9498401353	-0.079216
C	 0.7786276205	-0.9449360913	 2.2823770944	-0.040281
N	-0.2905264792	 0.0210648622	 2.5799261207	-0.329446
C	-0.3217014534	-0.7268591553	 1.3076065067	-0.04649
C	 0.0009059232	 0.0205252749	 0.0428071172	-0.046922
H	-0.2802171985	 2.0535188389	 0.8830227178	 0.142657
H	-0.2943631103	 2.0034580743	-0.9566838161	 0.105378
H	 1.9279767662	 0.7446894462	-0.8607284663	 0.082988
H	 2.7242447588	-1.0924826476	 1.3953042665	 0.086334
H	 2.679883044	-0.0894224946	 2.8622513653	 0.112543
H	 0.8131520651	-1.8801427976	 2.8374666038	 0.082541
H	-0.9580400328	-0.3821706296	 3.2314002701	 0.231565
H	-1.0719020254	-1.5065025182	 1.2055288	 0.081624
H	-0.2571509766	-0.5176157547	-0.8639808235	 0.083969
200.5394	218.0342	348.2022	396.8119	472.9702	494.4687	612.0234	719.0554	771.2363	784.6187	806.598	839.4522	883.7337	900.3393	959.6765	1001.5865	1016.0099	1038.1145	1062.4294	1081.7506	1101.888	1119.5385	1126.5456	1162.2322	1180.0779	1182.3214	1239.7857	1250.4515	1297.2609	1348.6843	1392.4979	1406.661	1413.1519	1457.8242	1473.3846	1493.9433	2963.3846	3072.7558	3104.8643	3126.4756	3136.7923	3140.4758	3156.9126	3239.8301	3510.4329
C1C2OCC3NC3C12	C1[C@H]2OC[C@H]3N[C@H]3[C@@H]12	
InChI=1S/C6H9NO/c1-3-5(1)8-2-4-6(3)7-4/h3-7H,1-2H2	InChI=1S/C6H9NO/c1-3-5(1)8-2-4-6(3)7-4/h3-7H,1-2H2/t3-,4+,5+,6-/m0/s1
