16
gdb 128850	6.0193	0.69397	0.66253	2.666	67.59	-0.2704	-0.0718	0.1986	1650.2379	0.12276	-471.138398	-471.129655	-471.128711	-471.173637	29.556	
C	 0.0308025897	 1.36427619	-0.1601168599	-0.23384
O	-0.0063117147	-0.0339788489	 0.0170018414	-0.229578
C	-1.3114543883	-0.5546665024	-0.0108240805	-0.057056
C	-1.19995787	-2.0689911732	 0.1967437432	-0.305924
C	-2.5243091797	-2.7432438353	 0.1307738481	 0.397948
N	-3.1399035433	-3.3072673651	 1.131078974	-0.143906
O	-4.2983703721	-3.7718480278	 0.6081300786	-0.137208
N	-4.3390760566	-3.453816487	-0.7468821385	 0.04956
N	-3.2807169297	-2.8401576685	-1.029340584	-0.201428
H	 1.0792690013	 1.6680536892	-0.1240256159	 0.133566
H	-0.3945737614	 1.6629592213	-1.1306572493	 0.110611
H	-0.5208283784	 1.8899944297	 0.6346229073	 0.10967
H	-1.9326274379	-0.1082931172	 0.7839459499	 0.101131
H	-1.804344945	-0.3397404818	-0.973111072	 0.111471
H	-0.5470297299	-2.4781418118	-0.5807633599	 0.147113
H	-0.7418489041	-2.2747677711	 1.1664247074	 0.147872
40.0066	77.4354	95.3894	109.0544	227.1782	262.7291	333.5479	348.3848	463.5214	675.6055	693.1548	728.2765	785.2091	813.731	956.1733	997.3571	1046.5085	1057.3223	1065.8852	1110.7449	1164.4102	1180.6322	1226.5741	1228.5417	1294.2979	1311.6334	1328.5929	1423.3359	1473.6894	1482.3259	1486.0887	1490.114	1504.5744	1534.2806	1599.4583	2959.6978	2978.2783	2994.0836	3023.3705	3065.9747	3121.6765	3126.6968
COCCC1=NON=N1	COCCc1nonn1	
InChI=1S/C4H7N3O2/c1-8-3-2-4-5-7-9-6-4/h2-3H2,1H3	InChI=1S/C4H7N3O2/c1-8-3-2-4-5-7-9-6-4/h2-3H2,1H3
