19
gdb 87502	3.02593	1.44135	1.16501	3.0367	77.28	-0.2234	0.0673	0.2907	1102.5885	0.15886	-419.085224	-419.076906	-419.075962	-419.117759	32.361	
C	-0.2012710373	 1.4497310541	-0.0276981658	-0.317472
N	 0.0370399091	 0.014295115	 0.0164110508	-0.172315
C	 1.4152056349	-0.4596050811	-0.230226361	-0.349981
C	 0.8001445866	-0.5086332908	 1.1021235227	 0.547657
C	 1.1865120994	 0.0724010527	 2.4758633042	-0.205051
N	-0.1658821051	-0.434494606	 2.9549953673	-0.32771
C	 0.4131504702	-1.5824820775	 2.1315247325	-0.170389
C	 1.7824151355	-1.3406201647	 2.815447803	 0.129103
O	 2.9170544929	-1.8432883598	 2.1687684938	-0.429156
H	 0.6592044349	 2.0483386632	 0.3156015288	 0.09215
H	-0.4348756342	 1.7466822547	-1.0548688505	 0.118732
H	-1.0593569923	 1.686343529	 0.6078327216	 0.136538
H	 1.5093474856	-1.3495138726	-0.8462415533	 0.119003
H	 2.1896499796	 0.2905889258	-0.3920471557	 0.101836
H	 1.5586625453	 1.0628684525	 2.7412545797	 0.080836
H	-0.0977881098	-0.6756012651	 3.9514758608	 0.203989
H	-0.1243141417	-2.5183046327	 1.9811236585	 0.089476
H	 1.7803588157	-1.559201765	 3.8934685132	 0.065455
H	 3.6984489905	-1.5281731317	 2.6338566696	 0.287299
128.7586	144.1677	207.5674	216.0454	247.8295	330.0812	354.752	423.3414	437.8979	522.9616	620.8258	661.5568	783.5966	798.0155	849.9998	870.2178	886.0661	903.4105	996.9673	1031.6755	1047.952	1087.7953	1111.3746	1115.2294	1121.5019	1128.9946	1151.3876	1172.3771	1178.3325	1190.0992	1219.5688	1235.8676	1263.5426	1300.5601	1317.3724	1426.0781	1445.0317	1460.5758	1492.7222	1496.9933	1540.212	2962.156	2999.3035	3070.0695	3084.075	3108.3759	3112.4578	3127.5923	3176.0321	3352.6132	3819.4497
CN1CC11C2NC1C2O	CN1C[C@]21[C@H]1N[C@@H]2[C@H]1O	
InChI=1S/C6H10N2O/c1-8-2-6(8)4-3(9)5(6)7-4/h3-5,7,9H,2H2,1H3	InChI=1S/C6H10N2O/c1-8-2-6(8)4-3(9)5(6)7-4/h3-5,7,9H,2H2,1H3/t3-,4-,5+,6-,8?
