23
gdb 77719	2.50077	1.55227	1.43718	0.3176	88.66	-0.2172	0.0851	0.3024	1095.8043	0.208353	-351.137876	-351.129776	-351.128832	-351.16976	33.486	
C	-0.1778196857	 1.325900647	-0.0476542289	-0.430056
C	 0.1518012548	-0.1456773166	 0.0851110432	-0.081515
C	 1.5131988706	-0.7493503705	-0.1544545547	 0.260444
C	 2.6512518047	 0.1635550122	 0.3450200971	-0.294829
C	 2.0141911497	 0.1498474408	 1.7746615831	-0.29483
C	 0.8883400059	-0.7628006533	 1.2478159873	 0.260445
C	 0.5900784839	-2.1991117166	 1.6303712811	-0.296434
C	 0.6380621838	-2.97257321	 0.2746745882	-0.21555
C	 1.6084285935	-2.1771905504	-0.6549560304	-0.296434
H	 0.6243427149	 1.9727915138	 0.316008114	 0.120024
H	-0.3615331624	 1.588599667	-1.0953996612	 0.115134
H	-1.0815569185	 1.5730968732	 0.520399295	 0.115134
H	-0.6527152439	-0.7800513494	-0.2794672955	 0.079972
H	 3.6222460994	-0.3374808298	 0.3193355394	 0.097475
H	 2.7597357548	 1.1353979845	-0.1475253106	 0.093098
H	 2.6479564539	-0.3584436768	 2.5057620119	 0.097475
H	 1.7135890553	 1.1128874967	 2.2001512709	 0.093098
H	 1.3794655429	-2.5627500885	 2.2999433518	 0.094448
H	-0.3631385812	-2.3554967535	 2.1484213671	 0.093884
H	 0.952301993	-4.0123153235	 0.4047272892	 0.095243
H	-0.3612507213	-3.0094307362	-0.1709769425	 0.105441
H	 1.3573105078	-2.3184615186	-1.7125180482	 0.093884
H	 2.6367085143	-2.5356875114	-0.5214951974	 0.094448
178.3394	205.4303	215.8176	250.7212	251.1056	308.5081	346.1887	475.7501	541.2209	610.1121	633.7426	719.0792	722.5348	771.2268	783.5811	839.9164	873.8903	897.702	941.402	944.6527	973.8299	998.5287	1000.3122	1035.92	1062.3316	1100.7905	1117.413	1134.7423	1182.055	1204.7504	1222.6395	1231.2443	1239.4002	1252.4941	1264.6106	1289.1434	1300.6002	1326.7768	1343.8737	1348.5759	1415.4014	1456.2916	1474.1935	1490.393	1491.2046	1500.886	1503.1988	1506.452	1514.7572	3023.0619	3024.5027	3032.6931	3039.2984	3046.0522	3046.5674	3059.4584	3063.0784	3086.7277	3087.3926	3093.4028	3105.4379	3115.9373	3139.0241
CC1C23CCC12CCC3	C[C@H]1[C@@]23CC[C@@]12CCC3	
InChI=1S/C9H14/c1-7-8-3-2-4-9(7,8)6-5-8/h7H,2-6H2,1H3	InChI=1S/C9H14/c1-7-8-3-2-4-9(7,8)6-5-8/h7H,2-6H2,1H3/t7-,8+,9-
