18
gdb 46623	2.88013	1.65512	1.07904	3.313	80.67	-0.2012	0.017	0.2182	1096.2902	0.150488	-402.015101	-402.007292	-402.006348	-402.048671	28.882	
O	 0.0636309534	-0.033293185	 0.001764891	-0.38694
C	 0.0098147546	 1.177728286	 0.0093471801	 0.384732
C	-1.24897115	 2.0655063695	 0.0314271631	-0.338148
C	-0.7442172013	 3.5342998712	 0.0326120984	-0.357036
C	 0.7579697307	 3.3961283534	 0.0096569216	 0.410862
C	 1.8508052909	 4.1594181181	-0.0037584635	-0.29349
C	 3.0902852508	 3.2763309923	-0.0258327141	-0.266641
C	 2.517026918	 1.8197802166	-0.0241903972	-0.184034
N	 1.0725762094	 2.0355829068	-0.0006188577	-0.096357
H	-1.8650410021	 1.8257185393	-0.8391640736	 0.136609
H	-1.84134243	 1.8160795506	 0.9156381956	 0.13658
H	-1.1003788335	 4.0937939994	-0.8368629123	 0.132061
H	-1.0743879832	 4.083178983	 0.9189692624	 0.13208
H	 1.8775744242	 5.238891892	 0.000273215	 0.097981
H	 3.7110410175	 3.4572487752	-0.9113052929	 0.114927
H	 3.736345912	 3.4491686858	 0.8430140479	 0.114929
H	 2.8009204228	 1.2507477131	-0.9141530722	 0.130943
H	 2.8285833159	 1.2418390428	 0.8506199185	 0.130943
35.1447	102.7085	111.1493	223.4821	289.4859	526.7903	548.9141	571.9103	624.4931	629.7998	698.6389	737.0528	805.9298	818.3773	831.5803	910.5422	977.9892	991.8187	1026.9337	1046.7162	1062.0052	1071.5118	1156.6664	1202.8714	1216.6654	1243.7856	1246.2695	1262.9665	1295.8444	1300.6489	1326.0462	1401.0415	1423.2543	1469.2394	1490.0599	1498.7885	1524.691	1732.1096	1816.2269	3025.6242	3047.3422	3056.6281	3060.6494	3073.4812	3091.2305	3093.8674	3115.0012	3242.4593
O=C1CCC2=CCCN12	O=C1CCC2=CCCN12	
InChI=1S/C7H9NO/c9-7-4-3-6-2-1-5-8(6)7/h2H,1,3-5H2	InChI=1S/C7H9NO/c9-7-4-3-6-2-1-5-8(6)7/h2H,1,3-5H2
