20
gdb 61260	3.57749	0.88227	0.76401	4.8409	79.63	-0.2597	0.0379	0.2975	1497.2807	0.17034	-403.153356	-403.143789	-403.142845	-403.188715	34.071	
C	-0.0851173881	 1.6797426646	-0.0023653791	-0.413569
C	 0.0275583924	 0.1530935748	-0.0573834369	 0.001131
C	-1.3513346052	-0.5446208212	 0.026631065	-0.348269
C	-2.0412507965	-0.2849073067	 1.2867480864	 0.261822
N	-2.5696260393	-0.0653217452	 2.2911252138	-0.316387
C	 0.7278356616	-0.3037837796	-1.3328306681	 0.154721
C	 2.2589244836	-0.1159270027	-1.430232691	-0.302627
C	 2.2924515942	-1.6485151452	-1.5937240215	-0.065318
O	 0.8634889835	-1.7433965285	-1.4016574129	-0.29885
H	 0.9027713676	 2.1490261123	-0.040301372	 0.123299
H	-0.6707644995	 2.0624064148	-0.8464257252	 0.119564
H	-0.5753243571	 2.0025300488	 0.9200082792	 0.147688
H	 0.6257748016	-0.1967771272	 0.7932996307	 0.094612
H	-1.9937063548	-0.2102114547	-0.7977890975	 0.144241
H	-1.2127185098	-1.6240835384	-0.0900092187	 0.173397
H	 0.1780860282	 0.0725624751	-2.2097290359	 0.07384
H	 2.6184925271	 0.4663317437	-2.2790711389	 0.116602
H	 2.7232454494	 0.2577129652	-0.5151025855	 0.115221
H	 2.5911646197	-2.0045473205	-2.5870471416	 0.107695
H	 2.8453032615	-2.2114041996	-0.8335091902	 0.111189
55.0899	84.121	97.7126	123.7424	192.0779	228.3717	292.6816	346.5147	401.9473	405.9067	456.1717	570.0116	757.3616	814.9922	848.5018	886.1766	893.6429	947.0196	963.6036	968.7221	1013.4945	1034.0643	1080.2719	1110.3339	1128.405	1164.5036	1182.6072	1213.249	1244.4538	1255.8514	1283.6285	1289.9569	1339.7084	1358.6459	1366.9483	1401.086	1417.5671	1469.4339	1489.4521	1498.749	1502.1632	1530.8804	2359.3605	2978.4437	3023.5713	3029.2142	3033.5664	3043.2264	3065.8382	3077.9139	3093.7691	3100.6963	3118.8917	3136.2737
CC(CC#N)C1CCO1	C[C@@H](CC#N)[C@H]1CCO1	
InChI=1S/C7H11NO/c1-6(2-4-8)7-3-5-9-7/h6-7H,2-3,5H2,1H3	InChI=1S/C7H11NO/c1-6(2-4-8)7-3-5-9-7/h6-7H,2-3,5H2,1H3/t6-,7+/m0/s1
