20
gdb 110025	2.28017	1.48035	1.03232	4.8141	75.69	-0.2357	0.0363	0.2721	1212.1307	0.171435	-440.334115	-440.324803	-440.323859	-440.368213	34.659	
C	 0.0327346039	 1.5933235481	-0.0897264294	-0.397666
C	 0.0781827554	 0.0672522978	 0.0395064622	-0.17407
C	-1.3112023221	-0.5595193371	 0.2028507946	-0.114683
C	-1.388024349	-2.0879823602	 0.0461013005	 0.079735
O	-0.2288560938	-2.6423110109	 0.6478029909	-0.423029
C	-2.6692024598	-2.4623323915	 0.832611401	-0.186439
N	-2.7346192514	-1.4225032173	 1.8375037006	-0.305202
C	-1.9775823468	-0.3147065188	 1.5693779491	 0.425106
O	-1.885842091	 0.6656710304	 2.2774983647	-0.385826
H	 1.0421791895	 2.0033278886	-0.1938009479	 0.104406
H	-0.5414072787	 1.8978007909	-0.9731686787	 0.100465
H	-0.4362475824	 2.037524082	 0.7902862555	 0.15503
H	 0.5529692635	-0.3699123122	-0.8471437915	 0.090832
H	 0.7003861702	-0.2212662277	 0.8911571964	 0.120365
H	-1.990929571	-0.1201283701	-0.5426189321	 0.097067
H	-1.4651305152	-2.3935982595	-1.0057201004	 0.070348
H	-0.2565453085	-3.5975362144	 0.5373063321	 0.286176
H	-3.551721253	-2.4646779866	 0.1754590286	 0.103435
H	-2.5777582773	-3.4582800857	 1.2807014978	 0.103315
H	-3.3165448826	-1.4622562559	 2.658288296	 0.250635
75.4726	107.4819	161.921	181.8766	218.8171	275.7135	288.1819	326.8693	397.5816	440.9517	499.9705	516.6609	652.48	714.6085	746.3685	785.6826	846.2421	875.1582	934.7743	976.8244	999.0013	1047.4732	1078.1199	1097.6195	1148.2858	1153.2984	1196.1952	1226.774	1251.5438	1276.4504	1287.1876	1313.2951	1344.8934	1374.2274	1385.0892	1407.8759	1422.7768	1449.8348	1486.0456	1498.2619	1516.5498	1518.1903	1822.2151	2987.7327	3000.5708	3018.9412	3030.0652	3036.2788	3054.2905	3083.8107	3101.1981	3139.776	3649.4852	3824.3878
CCC1C(O)CNC1=O	CC[C@H]1[C@@H](O)CNC1=O	
InChI=1S/C6H11NO2/c1-2-4-5(8)3-7-6(4)9/h4-5,8H,2-3H2,1H3,(H,7,9)	InChI=1S/C6H11NO2/c1-2-4-5(8)3-7-6(4)9/h4-5,8H,2-3H2,1H3,(H,7,9)/t4-,5-/m0/s1
