20
gdb 79154	4.38002	1.21144	1.13117	2.4526	78.34	-0.2409	0.0871	0.328	1142.6616	0.172821	-403.093068	-403.085567	-403.084623	-403.124701	30.702	
C	-0.1504365684	 1.5248677713	-0.0287523864	-0.407295
C	 0.0483885368	 0.0081462145	-0.0021952695	-0.007528
C	 1.060977786	-0.5396471269	-1.0523215331	-0.184739
N	 2.0847803461	-1.2350417849	-0.2383005253	-0.165219
C	 1.3196590334	-1.9267206124	 0.9007821279	-0.093706
C	 2.5543904609	-1.6741038588	 1.7955988909	 0.188505
O	 3.724227156	-2.3873270368	 1.5537964085	-0.454296
C	 2.294649401	-0.3679476804	 1.0108353262	-0.0856
C	 0.761250318	-0.5179157272	 1.2448796181	-0.015731
H	 0.8045199133	 2.0522154443	 0.0762171016	 0.115136
H	-0.6046440386	 1.846402787	-0.9719412764	 0.11672
H	-0.8056830117	 1.8567035865	 0.7836561245	 0.115105
H	-0.9275688613	-0.4801307785	-0.1115091229	 0.071229
H	 0.6145428561	-1.2476826426	-1.7567107913	 0.104713
H	 1.5382274746	 0.2584404822	-1.6306182516	 0.103857
H	 0.7659457662	-2.8520080794	 0.7245282017	 0.078123
H	 2.3836715104	-1.6436637406	 2.872785156	 0.085722
H	 3.8282968574	-2.3834566162	 0.5914056185	 0.289278
H	 2.8955365178	 0.5431173427	 0.9682128591	 0.079783
H	 0.3210987461	-0.314261514	 2.2244391933	 0.065944
127.8831	200.0257	222.6914	278.1488	316.7014	395.6681	476.0765	547.4149	563.58	683.0742	721.0312	750.737	796.3158	838.2167	862.1949	903.0936	916.2384	934.22	945.3188	970.5935	1045.7594	1060.1474	1075.092	1111.4638	1113.1761	1118.4217	1126.3657	1163.6592	1165.1559	1207.1506	1209.9813	1249.1568	1262.1659	1280.2904	1311.585	1322.3327	1336.7118	1379.0595	1412.0527	1461.772	1493.2081	1498.3279	1500.5481	3026.6717	3027.8431	3046.7901	3081.4499	3086.8231	3091.4607	3094.4383	3096.9667	3098.1271	3113.1528	3743.2893
CC1CN2C3C(O)C2C13	C[C@H]1CN2[C@H]3[C@@H](O)[C@@H]2[C@@H]13	
InChI=1S/C7H11NO/c1-3-2-8-5-4(3)6(8)7(5)9/h3-7,9H,2H2,1H3	InChI=1S/C7H11NO/c1-3-2-8-5-4(3)6(8)7(5)9/h3-7,9H,2H2,1H3/t3-,4-,5+,6-,7+/m0/s1
