17
gdb 89144	2.26873	1.66027	1.18112	4.505	72.64	-0.2555	0.0202	0.2757	1063.8558	0.136619	-417.984766	-417.976386	-417.975442	-418.017369	32.316	
N	-0.1462393666	 1.450208777	 0.0683732101	-0.594419
C	-0.0375734305	 0.0378517598	-0.0671799689	 0.29563
C	 0.7109279643	-0.7842994577	-1.1337167449	-0.357664
C	-0.4966371064	-1.7928351721	-1.147601516	 0.144959
O	-0.2826120834	-3.1654157963	-1.0018284028	-0.432018
C	-1.1737935044	-0.9819037505	-0.0286674044	-0.138728
C	-0.258739953	-0.8103160635	 1.1729430116	-0.208575
C	 0.6669039311	-1.825091096	 1.5994697672	 0.294085
N	 1.4209210196	-2.6509689852	 1.9019035856	-0.358541
H	 0.7358373482	 1.855033965	 0.3697828656	 0.240736
H	-0.3835571547	 1.8800027201	-0.8209885801	 0.237358
H	 0.8263805052	-0.2529916865	-2.081388337	 0.106288
H	 1.6791570433	-1.1977445202	-0.8365435458	 0.120359
H	-1.0672307297	-1.6800218575	-2.0730950531	 0.102213
H	 0.2684880119	-3.3216462285	-0.2253985213	 0.300679
H	-2.2382105034	-0.8225931747	 0.0968960522	 0.104679
H	-0.7164435716	-0.2534731832	 1.9838490421	 0.14296
128.2984	146.9774	165.9038	246.1602	275.7223	352.9261	394.1725	401.8117	447.5931	495.9223	564.8376	572.9495	663.8895	742.2914	792.8538	837.9554	863.7399	900.5713	965.5602	970.6802	979.6014	1041.538	1083.518	1097.3337	1142.2195	1202.2996	1207.212	1245.5789	1273.7733	1293.0983	1312.99	1330.5418	1438.4185	1451.3745	1491.3725	1658.8704	2336.1122	3057.9287	3077.6249	3115.7258	3175.7888	3189.4822	3487.1937	3561.9242	3786.2712
NC12CC(O)C1C2C#N	N[C@]12C[C@@H](O)[C@H]1[C@H]2C#N	
InChI=1S/C6H8N2O/c7-2-3-5-4(9)1-6(3,5)8/h3-5,9H,1,8H2	InChI=1S/C6H8N2O/c7-2-3-5-4(9)1-6(3,5)8/h3-5,9H,1,8H2/t3-,4-,5-,6+/m1/s1
