18
gdb 76271	2.31542	1.61633	1.04297	1.9528	72.49	-0.2551	-0.0175	0.2376	1142.8815	0.148236	-439.181033	-439.17233	-439.171386	-439.214784	32.344	
C	-0.305872781	 1.5538923479	 0.0873428778	-0.40543
C	 0.0516333981	 0.0689093859	 0.0129119488	-0.131473
C	 0.8274138391	-0.4519980106	-1.2275460162	-0.139474
C	 1.5878461833	 0.6008310007	-2.0503782712	-0.398242
C	 1.8374233659	-1.450488357	-0.6509840134	 0.419104
O	 2.5546438964	-2.2046953066	-1.2582353023	-0.353448
N	 1.822960725	-1.2992642844	 0.7307135227	-0.359078
C	 0.8938272233	-0.3833311366	 1.2107488544	 0.423908
O	 0.780715705	-0.0473963345	 2.3623516442	-0.351461
H	 0.5771522127	 2.1915650325	-0.005218557	 0.127651
H	-1.0104779317	 1.8286620828	-0.7023992636	 0.120042
H	-0.7679764572	 1.7649026149	 1.0545397079	 0.14599
H	-0.8798872621	-0.5064458779	 0.0996974106	 0.120671
H	 0.1669253422	-1.0023461317	-1.9039018484	 0.112148
H	 2.2883251437	 1.1703365487	-1.4312317461	 0.126469
H	 2.1615928259	 0.1013690135	-2.834660001	 0.145649
H	 0.8969359893	 1.3061750638	-2.5187835881	 0.125621
H	 2.461840692	-1.7942691714	 1.337500851	 0.27135
42.0646	136.9013	215.5093	244.6968	250.8968	262.8054	271.1825	384.8134	439.7934	549.7296	613.461	630.7518	661.7859	721.0077	745.4914	768.9895	845.3534	867.1921	1000.6079	1030.694	1062.1359	1070.9594	1129.6057	1167.8638	1198.7312	1257.0804	1309.1791	1328.2894	1338.1646	1350.7569	1358.7686	1402.0474	1415.8263	1489.2474	1494.2277	1504.6986	1508.6194	1829.4391	1871.858	3019.7204	3043.3702	3051.184	3067.8841	3114.9704	3122.3083	3129.8064	3132.2504	3615.2926
CC1C(C)C(=O)NC1=O	C[C@H]1[C@@H](C)C(=O)NC1=O	
InChI=1S/C6H9NO2/c1-3-4(2)6(9)7-5(3)8/h3-4H,1-2H3,(H,7,8,9)	InChI=1S/C6H9NO2/c1-3-4(2)6(9)7-5(3)8/h3-4H,1-2H3,(H,7,8,9)/t3-,4+
