15
gdb 77460	2.09544	1.56687	1.25443	3.3375	70.13	-0.1963	-0.0337	0.1626	1044.2864	0.110164	-494.872419	-494.863659	-494.862715	-494.905968	32.094	
O	 0.0840309939	 1.2615362003	 0.3087526848	-0.440502
C	-0.1834499053	-0.1146851169	 0.0510698054	-0.037846
C	-1.5823638729	-0.5461747924	 0.2026648528	 0.316555
O	-2.0419750309	-1.4056881334	 1.115293723	-0.37892
C	-2.5180540105	 0.079609584	-0.7815801704	-0.38688
C	-1.6028890309	-0.3367376749	-1.9573082548	 0.310513
O	-1.9118923101	-0.6437952003	-3.0996288525	-0.399085
C	-0.3403017744	-0.6205195273	-1.3337132162	 0.180014
O	 0.6186423153	-1.323854856	-1.9706654464	-0.425287
H	 0.7579397255	 1.5494423984	-0.3179175199	 0.281722
H	 0.5094290789	-0.7570910501	 0.6175646246	 0.083695
H	-1.3164227108	-1.7122205579	 1.6752059437	 0.313213
H	-3.4777457724	-0.4387155106	-0.8412123066	 0.136545
H	-2.6783598348	 1.1536279748	-0.6518918837	 0.137884
H	 0.1940036294	-1.6537206478	-2.7813751839	 0.30838
77.6819	112.1883	155.5601	217.2836	246.9917	276.2814	385.1252	405.178	477.402	502.4656	516.1211	565.2722	593.0816	643.5988	676.8142	754.7665	851.0961	975.9045	996.3157	1015.4858	1104.1156	1129.8043	1162.4608	1199.1579	1228.807	1294.8038	1344.4305	1421.3748	1435.6135	1453.0728	1465.2123	1513.4034	1756.812	2984.0289	3055.5427	3119.3136	3672.8069	3773.8603	3797.2565
OC1C2(O)CC(=O)C12O	O[C@H]1[C](O)CC(=O)[C]1O	
InChI=1S/C5H6O4/c6-2-1-4(8)3(7)5(2,4)9/h3,7-9H,1H2	InChI=1S/C5H6O4/c6-2-1-3(7)5(9)4(2)8/h4,6,8-9H,1H2/t4-/m0/s1
