27
gdb 86461	1.57005	1.56971	0.84037	0.1698	96.55	-0.2864	0.0834	0.3698	1514.2491	0.253021	-353.601497	-353.59138	-353.590436	-353.635643	39.968	
C	-0.0326014734	 1.570517388	 0.0109195738	-0.402875
C	 0.0159621159	 0.0393956758	 0.0019570931	 0.017531
C	 0.6931948816	-0.4993288881	-1.2682736834	-0.170263
C	 0.7714345131	-2.0343470828	-1.2967178759	 0.017693
C	 1.4636642782	-2.542525287	-2.565236973	-0.402947
C	 1.4615327504	-2.5549451043	-0.0256472665	-0.170187
C	 0.7954949179	-2.0482804411	 1.2635626113	 0.017604
C	 1.5128919797	-2.5691618381	 2.5129517037	-0.402941
C	 0.7161021864	-0.5132850655	 1.2539027275	-0.170171
H	 0.9785762067	 1.9949623287	 0.0043811749	 0.110063
H	-0.5598909803	 1.9578906022	-0.8676448802	 0.107169
H	-0.5443714551	 1.9484211657	 0.9026789328	 0.107185
H	-1.0203218054	-0.3324249472	 0.0092523409	 0.064902
H	 0.1607813287	-0.1367664868	-2.1570535147	 0.082647
H	 1.7125249349	-0.0878472126	-1.3320566877	 0.08359
H	-0.259869216	-2.419861089	-1.2966113202	 0.064876
H	 2.4992301039	-2.1853535019	-2.6169303908	 0.110055
H	 1.4889301731	-3.637272483	-2.5940500023	 0.107172
H	 0.9481206284	-2.1952380582	-3.4671962532	 0.10717
H	 1.4754837705	-3.6524836263	-0.0314204971	 0.082627
H	 2.514909393	-2.2343995233	-0.0335614693	 0.083575
H	-0.2353750219	-2.4345453492	 1.2793346884	 0.064889
H	 2.54882475	-2.2108852001	 2.5482994032	 0.110038
H	 1.0148714616	-2.2323984733	 3.4286560474	 0.107181
H	 1.5405754344	-3.6640924699	 2.5296423346	 0.107153
H	 1.7363149942	-0.1020204096	 1.3040069341	 0.083558
H	 0.1997087894	-0.160727173	 2.1560691187	 0.082707
142.0528	144.0051	158.5865	229.9334	233.9825	239.3705	246.4719	249.897	405.6955	408.2936	409.4802	425.3144	451.4453	454.2355	510.7793	846.1367	852.3041	852.9777	860.1783	860.7326	951.5487	952.5855	959.1524	992.0538	1015.4447	1016.4523	1056.0104	1058.2432	1095.6656	1130.2788	1141.1245	1195.1083	1196.4828	1199.5949	1291.3996	1292.0061	1296.3173	1303.3573	1303.9851	1364.2288	1374.883	1375.8879	1376.7052	1393.9819	1394.3622	1412.3083	1412.4929	1412.962	1478.6246	1479.5092	1494.9662	1497.242	1497.7468	1498.9231	1500.2945	1501.6562	1502.132	2978.3377	2978.7487	2982.1432	2991.35	2991.8528	3002.6865	3022.0478	3022.2173	3024.0118	3039.6418	3040.1062	3046.5781	3087.5089	3087.8204	3088.8851	3093.5078	3094.078	3094.4665
CC1CC(C)CC(C)C1	C[C@H]1C[C@@H](C)C[C@@H](C)C1	
InChI=1S/C9H18/c1-7-4-8(2)6-9(3)5-7/h7-9H,4-6H2,1-3H3	InChI=1S/C9H18/c1-7-4-8(2)6-9(3)5-7/h7-9H,4-6H2,1-3H3/t7-,8+,9-
