15
gdb 20227	4.51197	2.75656	2.38025	0.9271	70.07	-0.2095	-0.0473	0.1621	633.4171	0.120341	-325.37882	-325.37354	-325.372596	-325.407641	22.664	
C	-0.0535136752	 1.6465314861	 0.0647311009	-0.263912
C	 1.441611282	 1.9511005601	-0.0267813334	-0.097195
C	 2.0872182665	 0.8120142779	 0.2980125092	 0.045358
C	 2.3632713247	-0.2631828914	-0.7174176637	-0.078582
C	 1.6748636953	-1.311811479	 0.0506802473	-0.04327
C	 1.1640854788	-0.224942965	 1.0244658981	-0.121168
C	 0.0242339336	 0.0871022037	 0.0642228625	 0.046364
N	 0.8653753842	-0.6503287865	-1.028691245	-0.185304
H	-0.6030335132	 1.9777784209	 0.9576366584	 0.115681
H	-0.5568342158	 2.0899202808	-0.801835418	 0.121508
H	 1.81899364	 2.6634522791	-0.7538998863	 0.105233
H	 3.0217294505	-0.3170147393	-1.5745153311	 0.107179
H	 1.8109641908	-2.382813203	 0.1244917112	 0.096875
H	 1.0971961196	-0.2580583361	 2.1109292886	 0.073741
H	-0.9272785518	-0.4456386883	 0.1383890713	 0.07749
288.814	350.9689	495.6397	545.5106	595.3178	675.05	750.6274	766.8798	784.9564	830.3431	858.7172	881.1021	908.4075	924.1152	939.5611	944.3186	997.6642	1022.8283	1043.4242	1049.8548	1116.6423	1136.6405	1158.2255	1202.5335	1239.2381	1240.9126	1258.1188	1273.6575	1317.3407	1331.6177	1453.0248	1581.7305	3004.9553	3069.9746	3085.2829	3122.0898	3172.2723	3194.8785	3210.488
C1C=C2C3C4C2C1N34	C1[CH][C]2[C@H]3[C@H]4[C@@H]2[C@@H]1N34	
InChI=1S/C7H7N/c1-2-4-5-3(1)6-7(5)8(4)6/h1,4-7H,2H2	InChI=1S/C7H7N/c1-2-4-5-3(1)6-7(5)8(4)6/h1,4-7H,2H2/t4-,5+,6+,7-,8?/m1/s1
