19
gdb 72104	2.80367	1.71675	1.54826	0.8428	72.83	-0.2127	0.0767	0.2893	948.7941	0.162108	-423.026955	-423.019836	-423.018892	-423.058086	29.538	
O	-0.1191999932	 1.4008644833	 0.0215017794	-0.476338
C	 0.0035373723	 0.0155065077	-0.0304208948	 0.350353
C	 1.1671517433	-0.6890422141	 0.6534743181	-0.302749
C	 1.020223198	-2.1119440184	 0.0767551007	 0.065198
C	-0.0945699768	-2.8762406355	 0.7992198965	-0.203666
C	-1.4066347847	-2.0403010254	 0.7840820346	-0.23177
C	-1.2642702234	-0.8059971458	-0.0954226845	-0.113063
C	-0.2781789955	-0.8254273753	-1.2508059173	 0.012454
O	 0.6101726518	-1.9173548274	-1.292313958	-0.268128
H	 0.62346657	 1.7843592793	-0.4597576661	 0.279473
H	 2.1142415834	-0.2268268452	 0.3494617009	 0.092728
H	 1.1119609738	-0.6787169758	 1.7460786367	 0.106423
H	 1.9534307402	-2.6783305011	 0.0577535951	 0.079898
H	-0.2381823786	-3.8295145593	 0.2829230571	 0.108053
H	 0.2153453875	-3.1061769969	 1.8243127348	 0.095273
H	-2.2385678466	-2.6522837688	 0.4210635795	 0.107464
H	-1.6777502348	-1.7288606523	 1.7990532491	 0.105677
H	-2.1625119381	-0.2209941532	-0.2679808784	 0.092836
H	-0.5261572287	-0.4301421557	-2.2282430937	 0.099888
132.1226	230.6303	309.2929	339.7727	372.5811	397.2187	483.3008	513.8799	603.0116	658.2716	702.9836	783.8712	813.4925	830.069	870.6151	916.3422	922.5155	944.2947	975.0879	1005.7923	1034.0156	1069.213	1072.273	1099.7404	1116.0929	1158.3297	1200.198	1224.1392	1246.2926	1259.2886	1275.3527	1295.1158	1325.9599	1337.7557	1360.9824	1366.7446	1380.5077	1456.6164	1480.7149	1493.8021	1509.0765	3031.5254	3033.1749	3047.9074	3065.8441	3088.1157	3093.6998	3096.7798	3159.9681	3192.5147	3780.4294
OC12CC3CCC1C2O3	O[C@@]12C[C@H]3CC[C@@H]1[C@@H]2O3	
InChI=1S/C7H10O2/c8-7-3-4-1-2-5(7)6(7)9-4/h4-6,8H,1-3H2	InChI=1S/C7H10O2/c8-7-3-4-1-2-5(7)6(7)9-4/h4-6,8H,1-3H2/t4-,5-,6+,7+/m1/s1
