18
gdb 101523	2.80418	0.93709	0.78236	4.346	76.83	-0.2446	-0.0357	0.2089	1463.4484	0.146743	-435.279062	-435.268933	-435.267988	-435.314693	35.847	
C	-0.0768042541	 1.5954940168	-0.0078073162	-0.394587
C	-0.0164508133	 0.0617624221	-0.0413753859	 0.053403
C	 0.7585945893	-0.469850159	-1.2457374588	-0.100797
O	 2.1213437423	-0.0956334884	-1.0699686889	-0.425193
N	 0.6106246893	-0.4891155991	 1.1553485942	-0.316377
C	-0.0515374753	-0.618075135	 2.3348764358	 0.303416
N	-1.3019835362	-0.3649392322	 2.4715403704	-0.533403
C	 0.7847299705	-1.0967101656	 3.4287918656	 0.225706
N	 1.4132056127	-1.4694854449	 4.3250022112	-0.324643
H	 0.9304264107	 2.0199657778	-0.0057314036	 0.130952
H	-0.609859341	 1.9737765397	-0.8861779394	 0.114288
H	-0.6101141008	 1.9277421765	 0.8851985025	 0.142944
H	-1.035524844	-0.3345950846	-0.0800880783	 0.11875
H	 0.6546280325	-1.5629832853	-1.2957693521	 0.101873
H	 0.3395464988	-0.0392323249	-2.1665263735	 0.100322
H	 2.6481267253	-0.51283099	-1.757025018	 0.298022
H	 1.6173153292	-0.5417114749	 1.1440679046	 0.267846
H	-1.6144993758	-0.567189929	 3.4171417303	 0.23748
64.9581	76.1276	96.6204	152.9127	221.3828	234.0475	267.8749	276.1905	317.6798	353.7902	436.2843	482.4857	518.7458	579.1424	640.6325	728.9205	813.0087	838.6935	910.459	947.7469	962.627	1007.2255	1115.3906	1137.3681	1159.6354	1181.3845	1222.9365	1272.1691	1298.8281	1361.7294	1385.6741	1400.2389	1451.8931	1494.4252	1497.4756	1516.0853	1539.0346	1679.5929	2347.4375	2992.1273	3031.2275	3046.0984	3076.7747	3118.2388	3140.2126	3537.0363	3638.5676	3843.5324
CC(CO)NC(=N)C#N	C[C@@H](CO)NC(=N)C#N	
InChI=1S/C5H9N3O/c1-4(3-9)8-5(7)2-6/h4,9H,3H2,1H3,(H2,7,8)	InChI=1S/C5H9N3O/c1-4(3-9)8-5(7)2-6/h4,9H,3H2,1H3,(H2,7,8)/t4-/m0/s1
