13
gdb 21791	6.31886	1.17893	1.0958	2.116	61.31	-0.2556	-0.0434	0.2122	1029.1237	0.095005	-398.601991	-398.594931	-398.593987	-398.634876	24.251	
O	-0.5009336856	 0.5215664	 0.698121223	-0.222066
C	 0.0843032216	 0.9376221864	-0.2636822189	 0.158789
C	 1.3143374394	 1.8447673613	-0.180657615	-0.388349
C	 1.244794172	 2.9740502754	-1.149917934	 0.407068
C	 0.9314185215	 4.293827073	-1.0363730746	-0.330596
C	 1.0192269933	 4.7698375432	-2.3714452662	 0.04248
N	 1.349519963	 3.8257460491	-3.2168176038	-0.135307
O	 1.4935073913	 2.676991854	-2.4400764534	-0.207659
H	-0.2250294456	 0.6800165684	-1.299480319	 0.105371
H	 1.4112118529	 2.2086673558	 0.8436455191	 0.146874
H	 2.1891858771	 1.2223287426	-0.4128215491	 0.15667
H	 0.6805841027	 4.8403953768	-0.1429710902	 0.12858
H	 0.8537501663	 5.7708134738	-2.744426428	 0.138146
38.4638	66.6605	146.0709	303.6217	362.7592	445.1232	647.2352	658.1566	724.6265	799.4269	815.2246	917.6005	921.2329	943.4015	1005.7806	1028.6684	1044.6633	1054.9756	1181.1835	1212.0023	1264.693	1292.0396	1382.5686	1416.7712	1444.4882	1510.3725	1636.4261	1841.596	2906.8425	3031.3021	3129.3884	3245.5395	3283.6205
O=CCC1=CC=NO1	O=CCc1ccno1	
InChI=1S/C5H5NO2/c7-4-2-5-1-3-6-8-5/h1,3-4H,2H2	InChI=1S/C5H5NO2/c7-4-2-5-1-3-6-8-5/h1,3-4H,2H2
