20
gdb 107728	3.81971	1.16138	1.09489	2.0387	78.65	-0.2247	0.0683	0.293	1197.6681	0.170067	-403.086683	-403.077964	-403.07702	-403.119989	33.539	
C	 0.1416621174	 1.4440064627	 0.2165561487	-0.380078
C	-0.1371791072	-0.022693704	-0.1364657795	-0.290776
C	 0.585578631	-0.4654267495	-1.3729582845	 0.37814
C	 0.3532188781	-0.0171211892	-2.8196552679	-0.367471
C	 1.3450915618	-1.1531571347	-3.1996507221	 0.361573
O	 1.2696392254	-1.833792085	-4.4026920337	-0.478546
C	 2.662315859	-0.6639260532	-2.5678005547	-0.207261
N	 2.0427053749	-0.8531095077	-1.2134937875	-0.185362
C	 1.052796563	-1.8073469079	-1.7957765563	-0.174198
H	 1.2120998141	 1.6006401107	 0.3791037975	 0.132227
H	-0.1797667979	 2.1151065722	-0.5872146061	 0.113125
H	-0.3895091872	 1.7369904342	 1.1269631571	 0.111428
H	 0.1729017493	-0.6686957445	 0.6923752881	 0.111121
H	-1.214716152	-0.1781420886	-0.2760780584	 0.096844
H	-0.6644923341	-0.2596720872	-3.1380311849	 0.107082
H	 0.6113121591	 1.0073436005	-3.1136086153	 0.088691
H	 1.2659179767	-1.1924605685	-5.1218509335	 0.284754
H	 3.4781053196	-1.3826398117	-2.6805657019	 0.111547
H	 3.0143730466	 0.3511834545	-2.7903760881	 0.088215
H	 0.8854377824	-2.8163592431	-1.4422871773	 0.098943
79.5381	118.8386	142.1055	205.6107	276.4959	307.6353	364.0542	415.7382	457.924	483.2229	603.1051	634.4342	713.2593	749.9385	792.3561	850.6547	898.6574	923.3208	941.1272	964.2788	985.7316	1001.6735	1053.4886	1060.4002	1080.5792	1114.0242	1138.1717	1147.2865	1164.1956	1200.3267	1233.3811	1261.7785	1296.0952	1331.9417	1341.0178	1380.8743	1406.7568	1427.5133	1474.5539	1491.3932	1498.9861	1509.434	1512.6768	3021.5257	3026.0168	3031.1787	3037.2077	3069.1456	3099.9	3104.1584	3104.9894	3116.5798	3203.1707	3802.5054
CCC12CC3(O)CN1C23	CC[C@@]12C[C@@]3(O)CN1[C@@H]23	
InChI=1S/C7H11NO/c1-2-6-3-7(9)4-8(6)5(6)7/h5,9H,2-4H2,1H3	InChI=1S/C7H11NO/c1-2-6-3-7(9)4-8(6)5(6)7/h5,9H,2-4H2,1H3/t5-,6-,7+,8?/m0/s1
