18
gdb 98535	3.77524	1.03481	0.93111	3.4291	72.68	-0.224	-0.025	0.199	1277.5078	0.146875	-438.999858	-438.991188	-438.990244	-439.034834	31.397	
O	 0.0149843	 1.3932235114	-0.0339877299	-0.394133
C	-0.0292085055	-0.0053548086	 0.0421814449	-0.183743
C	-1.4749596524	-0.4835350035	-0.0297541681	 0.225605
O	-2.4137726822	 0.2717381012	-0.0968827883	-0.278484
C	-1.667789859	-1.9796310305	-0.0153482807	 0.224663
C	-1.1407100156	-3.0612028662	 0.967530534	-0.212975
N	-1.9705023255	-3.9017508786	-0.0173393218	-0.14666
C	-2.9974737357	-2.7509371638	 0.0762281807	-0.204438
C	-1.305605993	-3.0351939236	-1.0993317077	-0.205738
H	 0.9345317101	 1.6677623473	 0.0269420152	 0.294125
H	 0.526293325	-0.498571858	-0.7755745953	 0.109552
H	 0.3979170378	-0.3976985435	 0.982705787	 0.11251
H	-0.0743892789	-3.3030268237	 0.9545326937	 0.103503
H	-1.5395377427	-3.0568903808	 1.9852635165	 0.112408
H	-3.5387966459	-2.7250405673	 1.0245063348	 0.110903
H	-3.6779846437	-2.7022614755	-0.7761405724	 0.113945
H	-1.860328924	-3.0026697776	-2.0402794069	 0.115155
H	-0.2502563589	-3.2715028789	-1.2607416157	 0.103801
20.9537	77.5623	132.3507	186.8856	240.778	275.1391	345.5508	451.5078	537.6433	598.0526	600.7289	743.6822	780.5692	791.7961	859.0129	925.5728	940.0674	979.386	980.9423	1021.3552	1032.2026	1041.3879	1143.1542	1145.9557	1161.2397	1164.8782	1166.6091	1198.4459	1199.8568	1228.7264	1252.0799	1286.848	1324.1897	1443.1436	1492.7015	1509.2155	1511.8276	1562.3573	1817.3258	2945.3321	2964.9105	3049.3387	3054.4126	3068.6371	3119.3629	3124.5095	3137.1304	3835.3516
OCC(=O)C12CN(C1)C2	OCC(=O)[C@@]12CN(C1)C2	
InChI=1S/C6H9NO2/c8-1-5(9)6-2-7(3-6)4-6/h8H,1-4H2	InChI=1S/C6H9NO2/c8-1-5(9)6-2-7(3-6)4-6/h8H,1-4H2
