21
gdb 70895	3.18278	1.46779	1.37801	1.3166	80.92	-0.2507	0.0736	0.3242	1048.3687	0.184465	-387.11026	-387.102513	-387.101569	-387.141655	32.588	
C	-0.0206377818	 1.4749438976	 0.0146267698	-0.501518
C	 0.0161732561	-0.0274029234	-0.040769678	 0.354122
C	 0.2345244748	-0.7902587916	-1.3453556228	-0.291041
C	 0.1696486447	-2.2147008119	-0.7596489342	 0.372705
O	 0.339724041	-3.2146835026	-1.7268011092	-0.498415
C	 1.2084756025	-2.127177449	 0.3916101607	-0.277939
C	 0.6324630946	-0.8855023363	 1.0551277251	-0.100901
C	-0.8735097801	-0.9137241664	 0.8194850076	-0.100899
C	-1.1735199457	-2.1718996451	 0.0189841282	-0.277958
H	 0.9216151472	 1.9115761715	-0.3371365208	 0.115293
H	-0.8259247701	 1.8788148716	-0.6103745177	 0.115291
H	-0.1872310408	 1.8287291758	 1.0376761724	 0.113368
H	-0.5536581585	-0.6156257597	-2.085672848	 0.094519
H	 1.2041205309	-0.5826313043	-1.8107266989	 0.094517
H	 0.2863877576	-4.068916391	-1.2857506353	 0.27571
H	 1.1906569635	-3.0134245841	 1.0380225077	 0.08195
H	 2.2257183471	-1.9918709953	 0.0103961112	 0.097796
H	 1.0577550169	-0.4420496596	 1.9468978742	 0.076825
H	-1.5667428408	-0.4912301117	 1.536215865	 0.076826
H	-2.0300582685	-2.071792924	-0.6553575763	 0.097793
H	-1.3214334904	-3.0605759706	 0.6450678594	 0.081955
209.079	223.1652	251.642	258.7557	345.7323	351.6213	457.5883	461.677	466.6333	544.248	620.1702	643.3159	701.837	793.8217	853.7067	870.2752	909.3213	926.2847	955.0477	959.7219	974.3863	994.2165	1033.5708	1043.3253	1058.6875	1103.8571	1132.7242	1153.1401	1161.6989	1170.1522	1187.5622	1228.2178	1253.5535	1264.8146	1308.3512	1312.0461	1331.8431	1397.2523	1418.3647	1432.1432	1488.3406	1488.4584	1490.2582	1501.8627	1519.8105	3019.3794	3024.9137	3030.6521	3040.9024	3077.2573	3078.9891	3082.8878	3086.7672	3091.3715	3182.5473	3192.1377	3810.6724
CC12CC3(O)CC1C2C3	C[C@@]12C[C@@]3(O)C[C@@H]1[C@@H]2C3	
InChI=1S/C8H12O/c1-7-4-8(9)2-5(7)6(7)3-8/h5-6,9H,2-4H2,1H3	InChI=1S/C8H12O/c1-7-4-8(9)2-5(7)6(7)3-8/h5-6,9H,2-4H2,1H3/t5-,6+,7-,8-
