14
gdb 129397	4.35615	1.13068	0.90019	5.6005	66.83	-0.2337	-0.0274	0.2063	1207.153	0.102438	-466.198013	-466.189935	-466.188991	-466.230848	30.255	
N	 0.1844734191	 0.394454108	 1.2069531613	-0.550496
C	-0.0589353321	 0.1185908973	-0.1199095383	 0.24551
N	 0.5470617538	 0.5678936926	-1.1508162423	-0.495783
C	-1.2178114788	-0.7998511974	-0.295423084	 0.406334
N	-1.7564048854	-1.0616401115	-1.4571283376	-0.182009
O	-2.7924900375	-1.9691889748	-1.1195052976	-0.201833
C	-2.7359209646	-2.1285253333	 0.2051409672	 0.507141
N	-3.6664452419	-2.9222902501	 0.7879125803	-0.597844
N	-1.7896565589	-1.4404546211	 0.7830998608	-0.41463
H	 1.0767728387	 0.7933929186	 1.4475986453	 0.248878
H	-0.2418912545	-0.2160093133	 1.8872305606	 0.268718
H	 1.3134815771	 1.1883314956	-0.8814501692	 0.203151
H	-4.1336676988	-3.5899136148	 0.1958966598	 0.28087
H	-3.4592499462	-3.2255833257	 1.7252744636	 0.281993
56.5458	162.5657	190.4216	323.6366	361.1756	379.0404	393.6169	415.9835	441.6632	485.495	536.7161	598.7537	643.4093	754.5849	772.3881	810.4255	867.7892	903.9804	1010.4044	1034.9936	1108.8474	1117.4455	1136.8147	1315.2651	1396.0158	1460.0914	1576.8388	1602.0379	1627.3312	1689.8226	1724.7562	3450.5827	3580.9686	3605.5647	3707.087	3722.077
NC(=N)C1=NOC(N)=N1	NC(=N)c1noc(N)n1	
InChI=1S/C3H5N5O/c4-1(5)2-7-3(6)9-8-2/h(H3,4,5)(H2,6,7,8)	InChI=1S/C3H5N5O/c4-1(5)2-7-3(6)9-8-2/h(H3,4,5)(H2,6,7,8)
