14
gdb 46224	2.88092	1.35069	1.07842	6.282	68.84	-0.2796	-0.0175	0.2621	1088.9097	0.10129	-432.832353	-432.824627	-432.823683	-432.865043	28.186	
N	 0.0082218018	 1.2192101057	-0.1970263692	-0.529658
C	 0.0093077231	-0.0072263711	 0.0298503119	 0.419614
O	 1.015832524	-0.8737017476	 0.4409873934	-0.261263
C	 0.1158290826	-2.020864239	 0.4646471301	-0.154196
C	-1.0084373647	-1.1104599857	-0.0322887372	 0.194854
N	-2.4011361022	-1.0254202324	 0.3394145896	-0.333672
C	-2.0646375056	-1.4045302531	-1.0467983674	-0.281633
C	-2.4163137749	-0.4750632369	-2.0935373683	 0.361815
N	-2.6974624871	 0.2234977574	-2.969642606	-0.321901
H	 0.9232734969	 1.6447433416	-0.0457722685	 0.241748
H	 0.4529849612	-2.8078427962	-0.214301747	 0.135731
H	-0.0037639643	-2.4091699934	 1.4804663457	 0.133
H	-2.6973781132	-1.8435510224	 0.8675023548	 0.254065
H	-2.1663712477	-2.4477144269	-1.3380880819	 0.141497
95.6636	101.7396	182.4828	257.2561	261.4524	335.5829	466.5278	489.936	565.4051	647.5124	712.8959	760.1437	818.1641	864.3446	913.6597	927.4392	960.2467	978.7113	989.9059	1052.8774	1094.2413	1147.8916	1191.146	1194.7465	1258.0613	1311.6804	1373.4165	1479.0232	1509.6528	1845.5629	2368.3922	3054.9112	3115.9083	3137.3817	3496.0149	3501.3149
N=C1OCC11NC1C#N	[NH][C]1OC[C@]21N[C@H]2C#N	
InChI=1S/C5H5N3O/c6-1-3-5(8-3)2-9-4(5)7/h3,7-8H,2H2	InChI=1S/C5H5N3O/c6-1-3-5(8-3)2-9-4(5)7/h3,7-8H,2H2/t3-,5-/m0/s1
