20
gdb 112665	2.42471	1.30223	1.09748	1.9496	76.36	-0.2603	0.0167	0.277	1219.2428	0.171538	-440.313868	-440.304781	-440.303837	-440.347929	34.025	
C	-0.2974289984	 1.3946988213	-0.202862904	-0.385634
C	-0.187576565	-0.1278389259	-0.3078516228	-0.184583
C	 1.0212079146	-0.592799455	-1.1190164583	 0.110907
C	 1.0982375662	-2.1179629309	-1.329567776	-0.262267
C	 0.3934126167	-2.3306029804	-2.6671324618	 0.046243
O	-0.9900770265	-2.582607254	-2.4430135384	-0.432833
C	 0.5605182986	-0.9845963628	-3.356864045	 0.388914
N	 0.3032816501	-0.7884405061	-4.579057839	-0.554249
O	 0.9583380493	-0.043582912	-2.4643897171	-0.246599
H	 0.5842515733	 1.8234712502	 0.2869394679	 0.112366
H	-0.3813551955	 1.8482323521	-1.1939838916	 0.131955
H	-1.1765572041	 1.6838721637	 0.3801122062	 0.114965
H	-0.1004754079	-0.5687495536	 0.693541003	 0.098994
H	-1.0891614346	-0.5550258614	-0.7604654315	 0.12296
H	 1.9410760981	-0.1925192832	-0.6806716724	 0.087344
H	 2.1405743981	-2.4392421725	-1.4060472265	 0.113177
H	 0.6177950804	-2.6821392595	-0.5284932348	 0.12553
H	 0.8415464049	-3.1298073702	-3.268185963	 0.094639
H	-1.4334147586	-2.4456176308	-3.2894239785	 0.295282
H	 0.4080787804	 0.1983090311	-4.8220528263	 0.222891
79.2385	89.1985	127.6323	207.9264	234.9128	258.5815	366.9914	379.3398	415.8708	443.455	478.2357	655.7256	702.0698	746.8112	782.6174	823.4828	893.3559	903.8194	909.6778	951.5649	983.3222	1026.1612	1041.412	1062.6887	1100.7597	1129.4945	1159.5283	1207.5325	1234.7936	1284.1716	1299.2322	1320.8562	1338.4502	1351.1383	1395.4358	1407.8092	1413.3317	1419.0014	1478.59	1485.893	1498.6192	1509.2742	1769.1152	3030.2554	3036.8842	3040.8231	3051.9982	3073.1262	3082.0499	3105.3639	3122.3613	3129.6981	3469.8138	3787.1184
CCC1CC(O)C(=N)O1	CC[C@H]1C[C@@H](O)[C]([NH])O1	
InChI=1S/C6H11NO2/c1-2-4-3-5(8)6(7)9-4/h4-5,7-8H,2-3H2,1H3	InChI=1S/C6H11NO2/c1-2-4-3-5(8)6(7)9-4/h4-5,7-8H,2-3H2,1H3/t4-,5+/m0/s1
