20
gdb 53518	1.92407	1.06428	0.71756	3.4941	86.01	-0.2443	0.0314	0.2756	1613.1193	0.167592	-403.130718	-403.119581	-403.118637	-403.169986	37.639	
C	-0.2909730781	 1.418993207	 0.158565023	-0.499066
C	-0.1962567008	-0.0334381434	 0.1169922595	 0.112548
C	-0.1056930707	-1.2340999129	 0.094053175	 0.019125
C	-0.0199728895	-2.6889877254	 0.0612282587	-0.345009
C	-1.3926620442	-3.3863977642	-0.0436778292	 0.112142
C	-1.2559892383	-4.894013235	-0.2136870332	-0.396844
O	-2.1430624829	-3.1635689491	 1.1534035018	-0.189425
C	-3.0218906331	-2.1422003138	 1.1744083699	 0.134694
N	-3.6442941463	-1.8693550821	 2.2385067996	-0.450222
H	 0.7029148801	 1.8796984775	 0.173662427	 0.150641
H	-0.8231599202	 1.8117844889	-0.7148892292	 0.145463
H	-0.8251906001	 1.756097654	 1.0535850127	 0.152963
H	 0.5935197215	-3.0093479988	-0.7907185758	 0.125795
H	 0.4781840746	-3.0611597559	 0.9652593034	 0.140633
H	-1.9402035833	-2.9621687187	-0.8962281346	 0.090198
H	-2.242616662	-5.3604387995	-0.2667722187	 0.129841
H	-0.7076247018	-5.1292105717	-1.1305102153	 0.118738
H	-0.7185001221	-5.3273896395	 0.6351361117	 0.134576
H	-3.1238590015	-1.6332561854	 0.2073649144	 0.088815
H	-4.2807474712	-1.0924355119	 2.0733142995	 0.224395
9.7935	45.2554	65.2224	94.3712	137.1917	210.3145	215.0229	243.1934	275.2013	308.2788	384.0657	395.1952	485.0885	518.9661	589.3888	773.6751	811.5284	865.2071	904.684	929.1943	1034.3242	1052.3375	1054.5665	1063.4414	1112.7657	1136.2224	1149.3307	1170.5022	1245.2616	1301.8753	1307.6971	1374.7337	1381.8527	1411.7914	1414.6962	1430.199	1458.5058	1478.1232	1479.1382	1485.9785	1498.0902	1740.5476	2372.9291	3012.5221	3021.9032	3027.5266	3036.6192	3046.5052	3060.5021	3087.6543	3089.8134	3120.3962	3128.7309	3516.5291
CC#CCC(C)OC=N	CC#CC[C@@H](C)O[CH][NH]	
InChI=1S/C7H11NO/c1-3-4-5-7(2)9-6-8/h6-8H,5H2,1-2H3	InChI=1S/C7H11NO/c1-3-4-5-7(2)9-6-8/h6-8H,5H2,1-2H3/t7-/m1/s1
