15
gdb 75683	3.04959	1.26888	1.06492	2.2877	67.97	-0.2585	-0.0674	0.1911	1121.2131	0.10935	-457.740728	-457.732269	-457.731325	-457.774231	30.127	
C	-0.0739483947	 1.651223716	-0.1439371537	-0.41527
C	-0.0103475957	 0.1346041169	-0.023528203	-0.205425
C	 1.0620543235	-0.6556176032	-0.8404305642	 0.4257
O	 1.2291933858	-0.8562775644	-2.0038198482	-0.286911
C	 1.6898477148	-1.2111434207	 0.4387425736	-0.160015
O	 1.9978672588	-0.0690941998	 1.242524342	-0.248718
C	 0.6411852894	-0.479781307	 1.2363903288	 0.317533
C	 0.0025450231	-0.9735648669	 2.4834000409	 0.052321
O	 0.5850441798	-1.1668569367	 3.5181679671	-0.241577
H	 0.8785756742	 2.0987447536	 0.149394537	 0.14546
H	-0.2837343776	 1.9353262476	-1.1791263289	 0.141827
H	-0.8642833021	 2.0668733012	 0.4884997193	 0.128121
H	-0.982977585	-0.3275453201	-0.2375866354	 0.115322
H	 2.2144604182	-2.1355515099	 0.6528594081	 0.144119
H	-1.0876655623	-1.1644986266	 2.3721993366	 0.087512
77.0987	108.9539	178.8544	198.0036	210.0616	246.7652	316.9472	410.4318	496.2813	553.7522	653.2709	705.4746	758.0963	785.0724	828.5652	896.2426	990.5618	1022.7195	1034.6017	1061.1974	1083.903	1100.5262	1163.4068	1212.6127	1215.5985	1325.7443	1389.5918	1408.9959	1429.407	1493.0875	1502.1977	1820.6842	1905.7023	2890.1281	3038.8403	3045.6504	3113.866	3132.0892	3194.272
CC1C(=O)C2OC12C=O	C[C@H]1C(=O)[C@H]2O[C@@]12C=O	
InChI=1S/C6H6O3/c1-3-4(8)5-6(3,2-7)9-5/h2-3,5H,1H3	InChI=1S/C6H6O3/c1-3-4(8)5-6(3,2-7)9-5/h2-3,5H,1H3/t3-,5+,6-/m0/s1
