19
gdb 30272	2.91579	1.56173	1.07044	0.7776	81.68	-0.2056	0.0243	0.2299	1132.7055	0.161823	-385.931491	-385.923846	-385.922902	-385.963621	30.012	
C	-0.0483033751	 1.6055437915	-0.0710568823	-0.391902
C	 0.0018190273	 0.0783384812	 0.0418535904	-0.117507
C	 0.7557704853	-0.6005717825	-1.1603572923	-0.207562
C	 1.566040151	-1.8228070203	-0.611586641	-0.35865
C	 1.5971789093	-1.4649566637	 0.833150321	 0.309436
C	 0.7722655413	-0.4636976522	 1.2161926136	 0.261939
C	 0.9183615118	-0.3540317231	 2.6382149502	-0.373215
C	 1.8308836448	-1.3075486795	 2.980581138	-0.013563
O	 2.2576749106	-2.0085729765	 1.881405398	-0.201205
H	 0.962387932	 2.0273580925	-0.090861365	 0.115819
H	-0.5640744423	 1.9147169899	-0.986703592	 0.110748
H	-0.5809421855	 2.0489059004	 0.7767350092	 0.113335
H	-1.033713143	-0.2909544105	 0.0758388295	 0.078954
H	 0.0721377691	-0.8866062077	-1.9638911306	 0.099448
H	 1.4585637116	 0.1271387503	-1.5797160743	 0.107403
H	 1.0455001771	-2.7736117012	-0.7893156427	 0.113537
H	 2.5529580365	-1.9093302084	-1.0784359277	 0.114175
H	 0.4348065114	 0.328224022	 3.3205001516	 0.108734
H	 2.2770524667	-1.6012981823	 3.9164836863	 0.130079
96.8288	162.0109	218.5488	236.6371	281.7072	426.8778	461.7622	560.3198	614.8257	631.859	696.0855	726.7682	730.5549	818.3096	822.6827	893.895	916.0247	950.5964	979.8708	1006.7366	1057.5109	1085.3513	1099.7968	1113.8311	1159.5348	1182.0554	1221.2174	1253.3584	1277.6271	1308.2025	1315.9664	1356.3657	1375.2549	1407.7019	1459.4503	1484.7768	1496.6503	1500.6196	1506.169	1520.3896	1652.3821	2987.2399	3012.9949	3027.4215	3047.3249	3063.115	3096.8632	3097.7868	3103.0634	3247.541	3281.4035
CC1CCC2=C1C=CO2	C[C@H]1CCc2c1cco2	
InChI=1S/C8H10O/c1-6-2-3-8-7(6)4-5-9-8/h4-6H,2-3H2,1H3	InChI=1S/C8H10O/c1-6-2-3-8-7(6)4-5-9-8/h4-6H,2-3H2,1H3/t6-/m0/s1
