19
gdb 53678	4.64759	0.46563	0.42775	0.4424	92.16	-0.2427	0.0252	0.2679	2548.2413	0.154548	-385.82511	-385.81339	-385.812445	-385.866186	37.539	
C	 0.0676974674	 1.49671116	-0.0643232017	-0.499177
C	 0.0222984618	 0.0423766345	-0.0522866782	 0.143679
C	-0.0257123766	-1.1596991609	-0.0421182599	 0.001306
C	-0.0540914962	-2.6143053932	-0.030385223	-0.200669
O	-1.3946720991	-3.0756268238	-0.0010778082	-0.241107
C	-1.4555121915	-4.4923075456	 0.0110229981	-0.200668
C	-2.8416785581	-4.9332890295	 0.0410601691	 0.001304
C	-3.9802143486	-5.3212494819	 0.0659153497	 0.14368
C	-5.3612804736	-5.7784719297	 0.0959284397	-0.499177
H	 0.6071726531	 1.8875395557	 0.8053639132	 0.148281
H	 0.5656216331	 1.8742511326	-0.9641389973	 0.148278
H	-0.943285727	 1.9181430898	-0.043733758	 0.154346
H	 0.4652595222	-3.008874409	-0.9218285667	 0.112255
H	 0.4992330003	-2.9952736499	 0.8464139185	 0.112255
H	-0.9482567405	-4.9031151323	-0.8800496085	 0.112255
H	-0.9142873098	-4.889460444	 0.8881926094	 0.112255
H	-5.598275863	-6.3938553649	-0.7788695595	 0.148281
H	-5.5656332565	-6.3764595491	 0.990794668	 0.148278
H	-6.0528457474	-4.9288646289	 0.1003136254	 0.154346
18.8002	19.168	49.1231	66.4365	86.4042	117.5014	205.8316	211.1619	256.5157	319.0356	339.6216	374.5948	377.4506	449.0996	562.7993	761.4812	826.3962	1009.5311	1019.756	1040.7997	1051.1162	1052.0768	1056.4607	1062.8168	1105.9537	1179.7078	1182.3496	1246.4059	1258.058	1374.787	1414.0437	1414.3869	1445.1987	1476.423	1476.4834	1478.8252	1478.8688	1493.8842	1510.9732	2380.2822	2381.5283	2935.8575	2945.2005	2952.8186	2958.3826	3027.8027	3027.9716	3088.5565	3088.5734	3090.6976	3090.712
CC#CCOCC#CC	CC#CCOCC#CC	
InChI=1S/C8H10O/c1-3-5-7-9-8-6-4-2/h7-8H2,1-2H3	InChI=1S/C8H10O/c1-3-5-7-9-8-6-4-2/h7-8H2,1-2H3
