15
gdb 34543	4.11553	1.25533	1.05975	5.8093	73.5	-0.2607	-0.0521	0.2087	1095.1843	0.114481	-416.811135	-416.803871	-416.802927	-416.843052	27.393	
N	 0.00793794	-1.091352345	-0.1468931633	-0.32134
C	-0.0441665929	 0.0548156106	-0.0099117878	 0.292142
C	-0.1037710884	 1.4875054061	 0.1714762174	 0.27822
N	-1.0827320295	 2.1442901668	-0.2965876654	-0.281083
C	-1.1241794717	 3.5475276184	-0.0402559981	 0.00818
C	-1.108339758	 4.0262773462	 1.4055221418	-0.296273
C	 0.0988672691	 4.2221233283	 0.5360647322	-0.057813
C	 1.3070807263	 3.3296419314	 0.6914406447	-0.109826
O	 0.9557368994	 1.9422218474	 0.8850469923	-0.262896
H	-1.7551866473	 4.0871423392	-0.7361008405	 0.110066
H	-1.7123833998	 4.8922848808	 1.6503653604	 0.129839
H	-1.0765221722	 3.2612886329	 2.1736882866	 0.140831
H	 0.3309504775	 5.2280385135	 0.1996941519	 0.106956
H	 1.9392667474	 3.3977997053	-0.2029184535	 0.128493
H	 1.9121452502	 3.5877861483	 1.5641343513	 0.134504
105.4727	149.2485	174.2545	292.9844	346.9851	443.7988	501.3805	539.9692	593.1206	690.0262	730.2069	770.7993	822.9565	828.9116	916.267	938.9326	986.2672	1006.9262	1059.0718	1097.3895	1121.4745	1128.8747	1176.3244	1222.9124	1238.4037	1281.1463	1370.0271	1391.9878	1418.0619	1485.4919	1513.302	1704.8172	2363.3624	3029.4187	3097.0193	3140.5035	3159.1353	3182.5672	3231.4906
N#CC1=NC2CC2CO1	N#CC1=N[C@H]2C[C@H]2CO1	
InChI=1S/C6H6N2O/c7-2-6-8-5-1-4(5)3-9-6/h4-5H,1,3H2	InChI=1S/C6H6N2O/c7-2-6-8-5-1-4(5)3-9-6/h4-5H,1,3H2/t4-,5-/m0/s1
