15
gdb 24827	2.66726	1.66208	1.02399	7.8954	81.87	-0.2227	-0.0513	0.1714	1085.4505	0.115856	-416.835608	-416.828211	-416.827267	-416.868375	28.048	
N	-0.1049149054	 1.077593919	 0.9955993028	-0.454044
C	-0.0310272225	 0.1154269979	 0.150984049	 0.142272
C	 1.2439206049	-0.3888193695	-0.354451509	-0.138151
C	 1.5733967649	-1.3644789134	-1.2236380012	-0.006568
N	 0.7659694037	-2.2210835985	-1.9307456726	-0.329065
C	-0.5996043961	-2.2958540791	-1.9261570673	 0.005824
C	-1.5015644392	-1.5633021278	-1.240496225	-0.171657
C	-1.3836620392	-0.4593547099	-0.2827218803	 0.31149
O	-2.4000139653	 0.0160908323	 0.1834250025	-0.305108
H	 0.8335088781	 1.4083169678	 1.2370521487	 0.212434
H	 2.103842059	 0.1333356065	 0.0579125124	 0.095759
H	 2.6254064038	-1.5349032466	-1.4262202857	 0.125224
H	 1.2403403146	-2.8771755922	-2.5280783316	 0.267913
H	-0.9681659006	-3.0742039043	-2.5868895723	 0.128645
H	-2.5403892206	-1.8227321621	-1.4140306404	 0.115033
33.9575	120.0159	354.3766	368.2183	376.3829	383.1047	438.7681	514.1538	528.1708	611.1894	646.9137	738.5408	784.266	803.6191	869.4865	917.2509	931.3434	960.8547	972.6919	990.9864	1021.9524	1165.8979	1249.6748	1289.6287	1349.4929	1396.6786	1439.6703	1463.6284	1561.4025	1640.9364	1681.9345	1706.5375	1747.0723	3150.9663	3177.5288	3191.0464	3197.9422	3423.4541	3655.277
N=C1C=CNC=CC1=O	[NH]C1=C[CH]NC=CC1=O	
InChI=1S/C6H6N2O/c7-5-1-3-8-4-2-6(5)9/h1-4,7-8H	InChI=1S/C6H6N2O/c7-5-1-3-8-4-2-6(5)9/h1-4,7-8H
