20
gdb 83542	3.186	1.47297	1.28617	2.8639	78.95	-0.2292	0.0781	0.3073	1065.0284	0.17256	-403.092936	-403.085193	-403.084249	-403.124737	31.168	
C	-0.0672665201	 1.638625215	 0.0522061552	-0.441771
C	 0.0067671038	 0.1221278405	 0.0041041782	 0.038296
C	 0.8226728117	-0.6305651863	-1.1135907162	-0.202232
C	 2.2232256369	-0.0349600223	-0.9031003465	-0.084001
O	 2.2916316458	-0.0325058642	 0.5427097534	-0.27509
C	 1.0322851607	-0.6305679909	 0.9038328099	-0.003057
C	 0.8998087242	-1.7835544177	-0.0923271178	 0.449516
C	 0.1439951773	-3.0424056678	-0.0494146047	-0.345159
N	 1.6317785898	-3.0306638208	-0.106357699	-0.39896
H	 0.9241077478	 2.0854697567	 0.1568045395	 0.137142
H	-0.5375717771	 2.0429299983	-0.8508954227	 0.11359
H	-0.6671631398	 1.9638037664	 0.9088438539	 0.117462
H	-0.9847130847	-0.3296753479	 0.0908082826	 0.079348
H	 0.4593243022	-0.7553619897	-2.1338031591	 0.068454
H	 3.0228916701	-0.6623771328	-1.3147871646	 0.101433
H	 2.3363161124	 0.9838990985	-1.2890343581	 0.099613
H	 0.9620991842	-0.7284656108	 1.9853862311	 0.082251
H	-0.2680555044	-3.4135384221	 0.885412037	 0.122382
H	-0.4088798182	-3.3426312851	-0.9368208501	 0.111836
H	 1.9472389575	-3.253961407	-1.0485832121	 0.228947
156.5503	180.9715	226.1057	253.8538	269.8788	307.405	440.9918	462.7985	579.8123	658.192	718.098	753.0797	789.2334	871.2774	900.6687	923.1914	931.1007	952.7783	960.7213	980.2514	987.6336	1051.8086	1052.6406	1068.9272	1082.3083	1115.224	1129.6448	1148.77	1187.4399	1194.8768	1227.0631	1251.7497	1265.3345	1270.4958	1285.2757	1358.9595	1385.8977	1409.2441	1449.7574	1491.0462	1503.2312	1524.1214	1533.1836	3025.1284	3035.9646	3066.0717	3078.1963	3093.8844	3099.5922	3118.4229	3126.3414	3147.3839	3182.7655	3479.6619
CC1C2COC1C21CN1	C[C@H]1[C@H]2CO[C@@H]1[C@]12CN1	
InChI=1S/C7H11NO/c1-4-5-2-9-6(4)7(5)3-8-7/h4-6,8H,2-3H2,1H3	InChI=1S/C7H11NO/c1-4-5-2-9-6(4)7(5)3-8-7/h4-6,8H,2-3H2,1H3/t4-,5+,6-,7+/m0/s1
