25
gdb 120548	4.87719	0.61496	0.60502	1.001	90.61	-0.2426	0.0856	0.3282	2002.9873	0.227723	-389.479963	-389.469298	-389.468354	-389.516369	38.834	
C	-0.1904890212	 1.6373019228	-0.74307132	-0.379645
C	-0.0440893599	 0.1972196587	-0.2437783775	-0.164517
C	 0.8071869756	-0.6784736267	-1.1701841289	-0.169779
C	 0.9514622177	-2.122623745	-0.687590532	 0.004743
C	-0.3101040632	-3.0185564728	-0.8941553444	-0.2697
C	 0.3524295844	-3.6195257008	-2.1477878214	 0.176431
C	 1.7230670593	-3.0557799136	-1.6700694586	-0.280657
O	 0.1966024724	-5.0095310281	-2.2612117388	-0.239385
C	 0.8190749969	-5.5478753218	-3.4047415014	-0.239831
H	 0.7863235671	 2.1244966024	-0.8395573862	 0.112767
H	-0.6718580842	 1.6684529851	-1.7270339202	 0.112627
H	-0.795929674	 2.2391275253	-0.058032902	 0.11066
H	 0.4049446152	 0.1997550293	 0.7584340625	 0.093921
H	-1.038590117	-0.2522002422	-0.1271362817	 0.098151
H	 0.3749997588	-0.6658874838	-2.1812661977	 0.089204
H	 1.8080775571	-0.2343711897	-1.2661652548	 0.089804
H	 1.3414491313	-2.1200885172	 0.3350181283	 0.066105
H	-0.4034345133	-3.7856476727	-0.1212715619	 0.109831
H	-1.2760653282	-2.5231862162	-1.0216048698	 0.095052
H	 0.0183261874	-3.1267930508	-3.0745054568	 0.059542
H	 2.3698339315	-2.5756684528	-2.4099319083	 0.089684
H	 2.2890479354	-3.8297645038	-1.1438601865	 0.10222
H	 0.4175676076	-5.1078165579	-4.3317955639	 0.101499
H	 1.9084593777	-5.3908385374	-3.3955591223	 0.106601
H	 0.6203229357	-6.6224698804	-3.4101922557	 0.124671
50.3218	89.2449	97.5143	117.356	160.326	203.8702	238.374	251.608	284.1173	361.2598	426.4358	449.2675	467.9882	657.3858	743.7217	812.2718	832.7392	865.4845	897.1191	921.8588	941.5071	975.8524	987.553	1039.889	1052.9334	1078.0955	1091.8835	1140.1474	1157.5	1167.7253	1185.3977	1206.3329	1220.4022	1250.4288	1257.3098	1272.917	1278.5368	1295.6094	1314.5586	1331.6822	1372.3574	1394.0577	1401.0374	1413.4174	1465.5957	1480.4933	1483.1381	1487.4531	1493.5006	1495.8951	1499.9155	1510.1511	1510.373	2966.8578	2975.475	2999.1648	3016.6529	3017.6549	3024.8551	3028.4098	3045.1384	3050.1796	3057.9837	3063.2963	3094.4537	3100.4914	3107.5828	3111.7864	3117.02
CCCC1CC(C1)OC	CCC[C@H]1C[C@@H](C1)OC	
InChI=1S/C8H16O/c1-3-4-7-5-8(6-7)9-2/h7-8H,3-6H2,1-2H3	InChI=1S/C8H16O/c1-3-4-7-5-8(6-7)9-2/h7-8H,3-6H2,1-2H3/t7-,8-
