16
gdb 52957	4.90929	0.82685	0.76878	4.1924	81.79	-0.2349	-0.0015	0.2334	1487.0016	0.123103	-400.719463	-400.710712	-400.709767	-400.755161	31.396	
C	-0.023774198	 1.4822720762	-0.0088702427	-0.507922
C	-0.0244948964	 0.0278887607	 0.0092028656	 0.22255
C	-0.0316071491	-1.176873749	 0.0326850365	-0.107842
C	-0.0095138618	-2.599289641	 0.0438268434	 0.191132
C	-0.2109073574	-3.485215732	-1.1585776787	-0.310353
C	-1.1654330183	-3.6107047315	 0.0234846042	-0.285274
C	-0.4126073882	-4.3374277423	 1.1294113408	 0.439783
O	-0.5574161326	-5.3476341169	 1.7551821409	-0.343017
N	 0.5989057428	-3.3603113867	 1.1509292852	-0.396075
H	 0.9975332878	 1.8785773139	-0.024830614	 0.153413
H	-0.5398647176	 1.8637427613	-0.8967161872	 0.153506
H	-0.5283118603	 1.8934246897	 0.8722712188	 0.154931
H	-0.6338029	-3.0069154624	-2.0367615922	 0.135847
H	 0.5036551326	-4.2768919729	-1.3654485357	 0.125456
H	-2.2268717188	-3.4263228196	-0.0547713228	 0.129629
H	 1.5887476053	-3.5738249073	 1.2098009778	 0.244236
10.052	80.9564	98.8943	201.0788	294.9449	319.5984	393.8203	441.9267	465.6531	517.0433	531.5605	609.5334	709.615	753.2799	853.2345	869.2295	929.8712	944.4714	979.9703	1028.6298	1051.2882	1052.8153	1067.1721	1089.3608	1127.669	1229.0793	1234.9814	1316.7053	1394.4967	1416.1061	1474.1057	1477.6831	1482.1733	1903.5425	2368.7987	3028.2863	3089.5804	3091.7718	3117.7279	3211.0896	3234.5489	3543.7515
CC#CC12CC1C(=O)N2	CC#C[C@]12C[C@H]1C(=O)N2	
InChI=1S/C7H7NO/c1-2-3-7-4-5(7)6(9)8-7/h5H,4H2,1H3,(H,8,9)	InChI=1S/C7H7NO/c1-2-3-7-4-5(7)6(9)8-7/h5H,4H2,1H3,(H,8,9)/t5-,7-/m0/s1
