15
gdb 28063	4.61513	0.93046	0.78417	6.7414	70.87	-0.2218	0.0067	0.2285	1382.2491	0.112487	-454.011212	-454.00266	-454.001715	-454.045863	29.643	
C	-0.0727569678	 1.4997981205	 0.0549319709	-0.496962
C	-0.0618336569	 0.0100386606	-0.0191274349	 0.356869
N	-0.2170802119	-0.7089882413	-1.1170772256	-0.364067
C	-0.1283332731	-2.0091226785	-0.712632852	 0.359695
O	-0.2801361347	-3.0670160699	-1.5668955792	-0.228902
C	 0.104731152	-2.9105446863	-2.8668281583	 0.154714
O	-0.0558842416	-3.7800798634	-3.6665852168	-0.268837
C	 0.0760872075	-2.1128674747	 0.6345545805	-0.209984
N	 0.1129741584	-0.7977677894	 1.0631664555	-0.276413
H	 0.9001444436	 1.8998171247	 0.3629177615	 0.138967
H	-0.3093886459	 1.8967688561	-0.9327056156	 0.163179
H	-0.8228235182	 1.8657837034	 0.7646721043	 0.136545
H	 0.5557038047	-1.9264054057	-3.0576909779	 0.121008
H	 0.1888529924	-2.9536297217	 1.2952151227	 0.144424
H	 0.2331424815	-0.4956829046	 2.015441855	 0.269762
43.5019	63.9289	118.2422	148.2046	234.8862	324.7405	376.7309	452.9514	512.8632	531.3778	658.7088	682.5806	700.9768	734.3581	845.2469	973.9609	1017.1859	1042.094	1057.7062	1061.5802	1110.0037	1129.0093	1254.3576	1314.9213	1383.8389	1413.5539	1415.3874	1444.975	1482.5729	1504.5494	1570.5179	1619.1266	1868.0899	3033.7661	3051.6208	3084.9767	3152.0505	3296.1783	3664.9265
CC1=NC(OC=O)=CN1	Cc1nc(OC=O)c[nH]1	
InChI=1S/C5H6N2O2/c1-4-6-2-5(7-4)9-3-8/h2-3H,1H3,(H,6,7)	InChI=1S/C5H6N2O2/c1-4-6-2-5(7-4)9-3-8/h2-3H,1H3,(H,6,7)
