17
gdb 55554	4.57756	0.84561	0.76096	5.9396	72.51	-0.2461	-0.0052	0.2409	1485.1076	0.135953	-455.200206	-455.191039	-455.190095	-455.235415	33.03	
N	-0.1969779988	 1.3540877966	 0.3916648846	-0.567652
C	 0.0910411196	 0.10980586	-0.1562043259	 0.464327
O	 1.1393505693	-0.1619781899	-0.6809450397	-0.328909
N	-1.0227961502	-0.7511538301	-0.0802701573	-0.425307
C	-1.0437637884	-2.120010304	-0.3613116334	 0.461751
O	-0.0555455689	-2.7796479399	-0.5791443349	-0.335752
C	-2.4218424474	-2.7050561261	-0.3442962538	-0.147821
C	-2.6783348531	-3.8595567963	-1.2978699208	-0.244703
C	-2.5493377595	-4.1314154809	 0.1630418318	-0.24726
H	 0.6215306137	 1.9400324556	 0.4653436279	 0.267041
H	-0.8043033004	 1.3917551254	 1.1967662769	 0.251077
H	-1.9117355012	-0.3178632768	 0.1148060974	 0.24991
H	-3.2499783992	-2.0313667101	-0.148380482	 0.077208
H	-3.6578360358	-3.9115270676	-1.7587517932	 0.117615
H	-1.8435241766	-4.1349547199	-1.9312735104	 0.147246
H	-1.6282095053	-4.5890385398	 0.5041293672	 0.144501
H	-3.4376171979	-4.3765862362	 0.7336267456	 0.116727
44.3849	49.7447	115.1677	144.6612	273.674	277.5697	322.3417	401.242	420.3168	536.0791	559.8218	593.8432	699.4701	740.4475	778.645	794.4066	828.7369	878.0885	914.2693	940.1887	990.5602	1068.7138	1095.9547	1097.7724	1116.3405	1123.7382	1170.0207	1209.3907	1230.7578	1309.0777	1409.1689	1450.9473	1484.8543	1507.822	1626.5018	1797.6761	1867.722	3143.1228	3144.7922	3155.1321	3232.234	3246.1856	3570.5038	3628.9406	3685.3286
NC(=O)NC(=O)C1CC1	NC(=O)NC(=O)C1CC1	
InChI=1S/C5H8N2O2/c6-5(9)7-4(8)3-1-2-3/h3H,1-2H2,(H3,6,7,8,9)	InChI=1S/C5H8N2O2/c6-5(9)7-4(8)3-1-2-3/h3H,1-2H2,(H3,6,7,8,9)
