22
gdb 63264	2.02522	1.5195	1.37549	2.8423	83.03	-0.2545	0.037	0.2915	1146.4331	0.191413	-404.37231	-404.36197	-404.361026	-404.406983	38.943	
C	-0.3229020864	 1.5494647465	 0.0964854483	-0.432716
C	-0.0019360246	 0.063017674	 0.034545783	 0.381994
C	-1.1526162467	-0.7205801485	-0.580497562	-0.432717
O	 1.2270721654	-0.1461742783	-0.7703372951	-0.304605
C	 1.8930553054	-0.7059512946	 0.2906225121	 0.422947
N	 3.0613341206	-1.1587562009	 0.3772033343	-0.561441
C	 0.7430432363	-0.5789371233	 1.2741743622	 0.090632
C	 1.0450338419	 0.3419598232	 2.4605885904	-0.443607
C	 0.2168370756	-1.9239790511	 1.7848584756	-0.443606
H	 0.5400888515	 2.1394595508	 0.408531412	 0.128482
H	-0.6321365643	 1.9025550762	-0.8919949262	 0.125907
H	-1.1444667869	 1.7383273954	 0.7952384912	 0.121881
H	-1.4287995951	-0.2782054007	-1.542485001	 0.125917
H	-0.8868444963	-1.764162361	-0.7551953376	 0.128473
H	-2.0323115279	-0.6899498036	 0.070726068	 0.121878
H	 3.5586549677	-1.0755172054	-0.5114752207	 0.221738
H	 1.5005042455	 1.286614907	 2.1574884852	 0.123501
H	 0.1331550492	 0.5634392674	 3.0258622847	 0.113714
H	 1.7482529253	-0.1568100591	 3.1335005755	 0.137205
H	 0.944501914	-2.355450163	 2.4779930732	 0.137199
H	-0.7291028987	-1.7953876625	 2.3222332721	 0.113716
H	 0.0621875786	-2.6492957084	 0.9837986948	 0.123508
53.4285	159.3622	176.1197	186.6499	206.4564	211.2469	270.1512	298.47	327.6003	333.6177	374.4964	396.0644	471.4391	563.6185	618.2612	663.3495	697.3067	788.4913	835.0776	868.2853	932.9579	961.5989	962.0028	994.6754	1001.6429	1022.5944	1029.9438	1149.1855	1161.5024	1182.1378	1241.0301	1266.1607	1275.1826	1336.9348	1398.786	1405.6495	1412.7188	1428.3875	1466.783	1475.1299	1483.0275	1485.2533	1498.9936	1500.0572	1506.4743	1522.4101	1814.9274	3037.2083	3041.1309	3041.801	3048.0843	3104.4956	3107.2234	3110.6608	3113.2433	3124.3527	3127.0103	3139.9314	3140.9727	3468.9277
CC1(C)OC(=N)C1(C)C	CC1(C)O[C]([NH])C1(C)C	
InChI=1S/C7H13NO/c1-6(2)5(8)9-7(6,3)4/h8H,1-4H3	InChI=1S/C7H13NO/c1-6(2)5(8)9-7(6,3)4/h8H,1-4H3
