15
gdb 70774	3.88079	1.34898	1.13449	4.5894	71.31	-0.2625	-0.0056	0.2569	1051.6263	0.111768	-416.705493	-416.697987	-416.697042	-416.737364	28.697	
C	 0.0272423892	 1.4490591782	-0.1088786416	-0.534957
C	 0.0132361739	-0.0433941334	-0.0530717944	 0.285782
N	 0.5963424733	-0.9434846468	-1.1087866129	-0.394094
C	 0.0643794973	-1.9155230021	-0.1034723122	 0.226931
C	 0.1402337533	-3.3441272105	-0.2352941661	 0.144379
N	 0.1803250492	-4.4950809875	-0.3386903653	-0.338016
C	 0.4897307072	-0.9980767121	 1.0932326822	 0.033848
O	-0.7985918349	-1.0431539064	 1.7562832867	-0.315327
C	-1.1522790722	-1.0230842593	 0.3506444674	-0.000658
H	 1.0497794394	 1.8191905575	-0.2271465941	 0.146192
H	-0.5707767802	 1.819158432	-0.948052072	 0.133144
H	-0.3905610339	 1.8569627436	 0.8165979618	 0.148045
H	 0.0077477583	-0.9465628749	-1.9461237424	 0.223071
H	 1.4040340566	-1.0141972845	 1.6833081972	 0.125655
H	-2.2030440767	-1.0707751138	 0.0616862156	 0.116005
133.8466	137.9818	216.4758	244.3479	303.3985	436.1086	468.7488	524.3164	538.1324	594.1776	700.2233	739.6943	779.5467	832.9878	838.1662	905.1053	917.3839	1001.1001	1045.0757	1069.3639	1086.3948	1101.5164	1151.1129	1160.7014	1211.3942	1246.2285	1277.7499	1303.2953	1391.3953	1429.4461	1481.4609	1488.2538	2353.0303	3039.529	3108.8347	3120.2517	3120.7878	3151.4057	3411.4485
CC12NC3(C#N)C1OC23	C[C@@]12N[C@@]3(C#N)[C@@H]1O[C@@H]23	
InChI=1S/C6H6N2O/c1-5-3-6(2-7,8-5)4(5)9-3/h3-4,8H,1H3	InChI=1S/C6H6N2O/c1-5-3-6(2-7,8-5)4(5)9-3/h3-4,8H,1H3/t3-,4+,5-,6+
