19
gdb 80849	2.06395	1.71016	1.54979	2.0202	75.87	-0.2368	-0.002	0.2349	1025.0129	0.15784	-422.994733	-422.986172	-422.985228	-423.027306	33.536	
C	-0.0778624973	 1.4563667061	-0.0012321475	-0.51957
C	-0.0501402631	-0.0317619348	-0.0322145183	 0.30851
C	-0.0362479955	-0.9122896699	-1.0428219825	-0.239012
C	 0.0137210726	-2.2516385529	-0.29703953	-0.020176
O	 0.973686414	-1.9723177348	 0.7680234101	-0.30904
C	-0.0129403406	-0.9768620252	 1.2001834946	 0.265629
C	 0.1704272817	-0.434564942	 2.5889004353	-0.520915
C	-1.1020314093	-2.0443112135	 0.7846390672	 0.105448
O	-2.4075736647	-1.7051391069	 0.4633638944	-0.425834
H	 0.8065774941	 1.857966179	 0.509052832	 0.138544
H	-0.1065112107	 1.8772889867	-1.0099822518	 0.130435
H	-0.9496624205	 1.8316193196	 0.5495041458	 0.132722
H	-0.042505417	-0.7482745034	-2.1111432159	 0.108225
H	 0.1870692282	-3.1805271576	-0.8378818969	 0.07831
H	 1.0940850923	 0.1480759117	 2.6681320412	 0.129734
H	-0.6687667442	 0.2154647629	 2.8566633889	 0.127776
H	 0.2172975065	-1.2509423382	 3.3142906042	 0.133431
H	-1.1373998946	-2.8676799222	 1.5008020781	 0.103169
H	-2.3572431018	-1.0126968143	-0.2104073889	 0.272617
139.9651	166.5301	181.078	215.7915	230.2292	297.0392	371.3327	379.1949	499.9721	554.5468	588.5587	618.6229	643.6541	666.9401	789.0737	797.1032	830.4178	845.7882	894.6618	911.6473	952.685	1004.2726	1058.2696	1086.5502	1112.0802	1142.7792	1174.9212	1202.0529	1219.2503	1258.4758	1269.1094	1300.5399	1334.9884	1409.0166	1417.0577	1432.8871	1473.4249	1477.6165	1487.4815	1495.8535	1673.5895	3018.9081	3039.2959	3065.267	3106.6039	3108.7267	3110.159	3120.612	3139.6562	3231.9088	3737.7258
CC1=CC2OC1(C)C2O	CC1=C[C@H]2O[C@]1(C)[C@H]2O	
InChI=1S/C7H10O2/c1-4-3-5-6(8)7(4,2)9-5/h3,5-6,8H,1-2H3	InChI=1S/C7H10O2/c1-4-3-5-6(8)7(4,2)9-5/h3,5-6,8H,1-2H3/t5-,6+,7+/m1/s1
