16
gdb 30463	4.9016	1.07593	0.88842	5.3411	80.67	-0.2038	-0.0592	0.1446	1272.3723	0.124286	-434.076346	-434.067772	-434.066827	-434.109944	31.211	
C	-0.0476292987	 1.432442655	-0.0169230192	-0.314126
N	 0.0249617038	-0.0156034306	-0.0073488554	-0.304318
C	-1.0538826852	-0.6737534753	 0.024753954	 0.447311
O	-2.2874965215	 0.0072816496	 0.0574579743	-0.233859
C	-3.4528410263	-0.6794976894	 0.0390374683	 0.009727
C	-3.4935468268	-2.0267087935	 0.0477708515	 0.160886
N	-4.6570459997	-2.8101163495	 0.1391333572	-0.592108
C	-2.19886567	-2.6744466708	 0.0565835455	 0.006033
N	-1.0689813647	-2.0580269735	 0.0369480416	-0.276613
H	 0.9650102373	 1.839411448	-0.0662591981	 0.119181
H	-0.6174808413	 1.814578286	-0.8756862209	 0.114758
H	-0.5346808783	 1.826965075	 0.8860781151	 0.116894
H	-4.3164753668	-0.0234666969	 0.0391547235	 0.125395
H	-5.5081009596	-2.2795358966	 0.0015618823	 0.247746
H	-4.6508893261	-3.5990957902	-0.4965817568	 0.252445
H	-2.1707767062	-3.7657837073	 0.0826255971	 0.120649
51.4145	109.2555	194.8875	210.7298	224.4934	336.7955	346.5531	367.9169	464.0784	530.1435	561.3555	636.8157	724.97	757.3476	769.8198	785.8274	863.5908	951.9008	981.2548	1056.5652	1092.2005	1107.4845	1129.3164	1178.6772	1236.1314	1309.9156	1394.4674	1435.6939	1453.3601	1483.6668	1497.6011	1603.2633	1655.1183	1730.0897	1741.0264	2992.0632	3038.5991	3105.6616	3110.1816	3193.8796	3524.8264	3616.0928
CN=C1OC=C(N)C=N1	C[N]C1=NC=C(CO1)N	
InChI=1S/C5H7N3O/c1-7-5-8-2-4(6)3-9-5/h2-3H,6H2,1H3	InChI=1S/C5H8N3O/c1-7-5-8-2-4(6)3-9-5/h2H,3,6H2,1H3
