14
gdb 25244	3.32898	1.71172	1.13993	2.5925	71.35	-0.2333	-0.0312	0.2021	983.8933	0.104778	-432.895574	-432.888998	-432.888053	-432.926525	25.422	
N	-0.0868967074	 1.3397825715	 0.0804060474	-0.557068
C	-0.0488739489	 0.068968084	 0.0007416563	 0.275527
N	 1.051062571	-0.8052334508	-0.1290989102	-0.368247
C	 0.711888149	-2.2392569412	-0.0179932436	-0.291625
C	-0.7801235427	-2.1530072858	 0.0011050108	 0.24372
C	-1.169118884	-0.8636052253	 0.0104350659	 0.297662
O	-2.5231707831	-0.8137429757	 0.0083087042	-0.184607
C	-2.8708730645	-2.1341943504	-0.0029397129	 0.043719
N	-1.8833248737	-2.9813464208	-0.0119914461	-0.342476
H	 0.8511269956	 1.7421675421	 0.0510702564	 0.20799
H	 1.9435215311	-0.4918584283	 0.218239731	 0.244341
H	 1.1014790709	-2.8075312857	-0.8717112734	 0.138595
H	 1.122466743	-2.6876710486	 0.8968440881	 0.132825
H	-3.9284814563	-2.345893305	 0.0003309461	 0.159646
162.3913	207.1986	268.6967	298.7983	375.8529	536.0588	610.7661	631.2587	646.8136	659.9058	755.6471	782.5607	834.4427	842.3969	948.9227	999.241	1030.7612	1082.0882	1095.8669	1105.4677	1177.5402	1223.1342	1280.8034	1319.3368	1373.1078	1437.0589	1446.2747	1503.6858	1519.2705	1639.8037	1752.3971	3013.1409	3045.7467	3282.4011	3465.8587	3637.4654
N=C1NCC2=C1OC=N2	[NH][C]1NCc2c1ocn2	
InChI=1S/C5H5N3O/c6-5-4-3(1-7-5)8-2-9-4/h2H,1H2,(H2,6,7)	InChI=1S/C5H5N3O/c6-5-4-3(1-7-5)8-2-9-4/h2H,1H2,(H2,6,7)
