19
gdb 104897	2.21504	1.59539	1.22162	1.9421	66.57	-0.2442	0.0611	0.3053	1090.6716	0.158905	-497.288339	-497.279246	-497.278302	-497.322261	33.641	
O	 0.1676703735	 1.3324595653	-0.4595609275	-0.419774
C	 0.1048448455	 0.0089847127	 0.0242691054	-0.108863
C	-1.344931829	-0.4875017511	 0.1433800106	 0.428041
C	-1.4464722378	-2.0159135406	 0.2504518194	-0.099741
O	-2.7874859115	-2.4559773429	 0.2091907584	-0.420788
O	-1.9537945184	 0.1486457881	 1.2506907901	-0.289984
C	-3.2379970386	 0.6076511559	 0.8557539799	-0.098766
C	-3.0310733881	 0.9088927115	-0.6258636143	-0.113099
O	-2.086996565	-0.090998766	-1.0231391805	-0.3321
H	-0.2783840327	 1.3209663727	-1.3144192703	 0.288697
H	 0.6759206574	-0.681458552	-0.6154884272	 0.087329
H	 0.5572389506	 0.0059047387	 1.0197162156	 0.126537
H	-0.8449095655	-2.4761163241	-0.5486907018	 0.089669
H	-1.0332713379	-2.3303535231	 1.213275039	 0.122797
H	-3.141316173	-2.1299886573	-0.6267549976	 0.285735
H	-3.9952031922	-0.1705893119	 1.0094475305	 0.11331
H	-3.4892784329	 1.4907158006	 1.4484006226	 0.116564
H	-3.9320224508	 0.7988279386	-1.2349374035	 0.112916
H	-2.6080125637	 1.9102294348	-0.7704146287	 0.111521
89.5429	102.4516	124.1511	194.8201	222.9167	282.0908	328.2514	363.7127	401.4006	448.0435	472.8103	637.4883	653.8899	681.4401	792.9615	853.3571	910.8925	947.3422	953.9565	1036.3346	1051.5351	1071.5292	1079.6882	1122.837	1133.3053	1151.2016	1200.9444	1227.6895	1238.1219	1258.2991	1273.3592	1371.8417	1384.9007	1388.189	1405.3209	1425.2512	1437.0581	1484.8958	1494.922	1508.3231	1514.8432	2978.686	2994.5905	3029.854	3034.5478	3092.083	3098.0024	3100.474	3109.3531	3794.3362	3797.558
OCC1(CO)OCCO1	OCC1(CO)OCCO1	
InChI=1S/C5H10O4/c6-3-5(4-7)8-1-2-9-5/h6-7H,1-4H2	InChI=1S/C5H10O4/c6-3-5(4-7)8-1-2-9-5/h6-7H,1-4H2
