14
gdb 24326	3.99163	1.67055	1.17768	2.1062	78.42	-0.209	-0.0582	0.1508	955.8715	0.105078	-399.607997	-399.60211	-399.601166	-399.638105	24.075	
O	-0.0315270816	 1.332767369	 0.0096423422	-0.121725
C	 1.2239542886	 1.8385292149	 0.0002265483	-0.141779
C	 2.1310069975	 0.8097301265	-0.0139499951	 0.218325
C	 3.5476599284	 0.6890866401	-0.0281850715	-0.207379
C	 4.0597944131	-0.5750790173	-0.0398988979	-0.113765
C	 3.1852592345	-1.7174386128	-0.0376564646	-0.031969
N	 1.8802187375	-1.6712309007	-0.0248759317	-0.337634
C	 1.3448781192	-0.4128893938	-0.0129736013	 0.207598
C	 0.0289297261	-0.0187446567	 0.001845217	-0.091309
H	 1.3011137734	 2.9128885249	 0.0052194502	 0.146454
H	 4.1889744883	 1.5643703947	-0.0296457234	 0.110601
H	 5.1306732748	-0.744100346	-0.0510874574	 0.103352
H	 3.6357156582	-2.7088679015	-0.0473035975	 0.107531
H	-0.9097913981	-0.5452014613	 0.0080799028	 0.151698
213.8961	253.7501	425.5628	450.0984	551.4294	574.4581	620.0277	627.5284	679.9301	721.8037	749.5759	804.5812	824.2481	899.1897	925.605	970.2693	988.8715	1014.665	1082.0561	1153.4457	1187.64	1236.8255	1244.3676	1312.3945	1363.8058	1409.2346	1442.6879	1463.2937	1580.4141	1598.2758	1665.4606	3138.7894	3180.0439	3201.2819	3276.8223	3291.4847
O1C=C2C=CC=NC2=C1	o1cc2cccnc2c1	
InChI=1S/C7H5NO/c1-2-6-4-9-5-7(6)8-3-1/h1-5H	InChI=1S/C7H5NO/c1-2-6-4-9-5-7(6)8-3-1/h1-5H
