23
gdb 60403	3.84635	0.63742	0.60006	1.0505	83.42	-0.2564	0.0723	0.3287	1950.8918	0.202968	-425.415452	-425.404603	-425.403658	-425.452241	39.251	
C	-0.0379347978	 1.5252379712	-0.3221945048	-0.403647
C	 0.0201057842	 0.0562334127	 0.0961576561	 0.131311
O	 0.5948804537	-0.0869378993	 1.3957756658	-0.428802
C	-1.3487881177	-0.6295252974	 0.0096133974	-0.181279
C	-1.3004963938	-2.1210922074	 0.3671144493	-0.223417
C	-2.6725918954	-2.7470704737	 0.3552145971	 0.060613
O	-3.2895375346	-2.962629114	-0.9235573241	-0.268804
C	-2.9924092835	-4.1065245571	-0.1134664131	 0.077729
C	-1.9939867398	-5.1014274872	-0.6477867955	-0.418717
H	 0.949376472	 1.9860455731	-0.2310654574	 0.123327
H	-0.3783295366	 1.6306194867	-1.357292046	 0.118617
H	-0.7365325652	 2.0827703127	 0.3148722042	 0.105232
H	 0.7201207903	-0.4736001529	-0.5629448781	 0.088089
H	 0.0571847457	 0.4288355065	 2.007525889	 0.274672
H	-2.0466395828	-0.1082276118	 0.6828384732	 0.080657
H	-1.753315034	-0.5117030157	-1.0027354466	 0.113224
H	-0.6410005768	-2.6397689663	-0.3357233026	 0.099182
H	-0.8591830465	-2.2366010974	 1.3638996034	 0.111204
H	-3.3584004953	-2.3171960066	 1.09132188	 0.079462
H	-3.8831863892	-4.5666857006	 0.3218407939	 0.082705
H	-1.1147241367	-4.6130705273	-1.0717235485	 0.128823
H	-1.6682021389	-5.7790926369	 0.1490277637	 0.121428
H	-2.4543843411	-5.7086599415	-1.4343377765	 0.12839
44.3083	64.1931	101.6381	132.9779	170.2783	230.0664	236.6208	250.299	299.0406	347.8955	397.8932	453.5411	469.2035	499.3049	547.2595	748.4987	781.0507	826.8386	862.9685	917.3522	939.9081	967.3304	997.3755	1040.426	1049.0362	1080.635	1099.1995	1118.647	1156.2234	1173.9999	1181.8878	1207.4148	1270.6367	1295.6845	1307.8321	1341.882	1350.8001	1392.2566	1402.1102	1407.2383	1421.0606	1421.6501	1468.9988	1473.2511	1486.8073	1491.8407	1494.9347	1496.0626	1514.2695	2995.5843	3022.172	3031.5726	3038.4468	3045.1046	3056.7638	3061.1118	3075.981	3092.6115	3096.1506	3098.4045	3118.7208	3137.0432	3792.3536
CC(O)CCC1OC1C	C[C@@H](O)CC[C@H]1O[C@H]1C	
InChI=1S/C7H14O2/c1-5(8)3-4-7-6(2)9-7/h5-8H,3-4H2,1-2H3	InChI=1S/C7H14O2/c1-5(8)3-4-7-6(2)9-7/h5-8H,3-4H2,1-2H3/t5-,6+,7-/m1/s1
