16
gdb 96696	2.74218	1.06773	0.79895	4.3862	78.38	-0.2397	-0.0334	0.2063	1398.6352	0.122032	-434.065737	-434.055714	-434.05477	-434.101466	35.361	
C	-0.2739947708	 1.6051060975	-0.1027028273	-0.333916
N	-0.3612848498	 0.1643652587	-0.1224123612	-0.240117
C	 0.3566051401	-0.517169748	-0.9153115295	 0.277268
N	 0.3123406765	-1.9209014519	-0.926299311	-0.4152
C	 0.0204023891	-2.7531749454	 0.165977797	 0.450546
N	-0.0045010032	-4.0899738297	-0.2208388282	-0.568428
O	-0.128359233	-2.3857875123	 1.3040416227	-0.337276
C	 1.2641049555	 0.0069455542	-1.9115529817	 0.276531
C	 2.0064374117	 0.4319200004	-2.7581963091	-0.474537
H	 0.4127974941	 2.0377916945	-0.8426244184	 0.112515
H	-1.2755981713	 2.0204441594	-0.2639298206	 0.130409
H	 0.0393771593	 1.9262667502	 0.897720839	 0.137989
H	 0.7922464171	-2.3547384361	-1.6990733321	 0.255829
H	-0.3803844783	-4.3033539084	-1.1330596978	 0.251034
H	-0.3473530297	-4.6914104947	 0.5134635174	 0.264465
H	 2.6677224929	 0.8170372117	-3.4956497492	 0.212888
41.9395	76.8012	126.3658	130.1754	166.0041	246.4235	294.956	319.0746	389.5356	415.4568	462.4012	487.9092	568.4567	624.9908	640.362	664.0987	673.4944	706.6577	765.2265	857.2123	973.885	1074.661	1128.2703	1133.0085	1157.5285	1245.7511	1314.8937	1438.1713	1484.2702	1495.9571	1520.4054	1624.077	1722.0121	1845.845	2217.5346	3001.1316	3071.8553	3075.3698	3494.6945	3569.8945	3634.9229	3684.2866
CN=C(NC(N)=O)C#C	CN=C(NC(=O)N)C#C	
InChI=1S/C5H7N3O/c1-3-4(7-2)8-5(6)9/h1H,2H3,(H3,6,7,8,9)	InChI=1S/C5H7N3O/c1-3-4(7-2)8-5(6)9/h1H,2H3,(H3,6,7,8,9)
