21
gdb 106287	3.71379	1.15453	1.07786	1.35	83.62	-0.2192	0.0203	0.2395	1220.5424	0.182064	-387.057178	-387.048426	-387.047482	-387.09018	34.664	
C	-0.0036654661	 1.5435201105	 0.0431137413	-0.506825
C	 0.0257257819	 0.0326583849	 0.0297967311	 0.294632
C	 0.9876311867	-0.7945368733	-0.8997473461	-0.299668
C	 0.6064308064	-1.9402857645	 0.098983865	 0.323525
C	 1.400623692	-3.2147892758	 0.2031717436	-0.210506
O	 0.8601211478	-3.9834075742	 1.2714434493	-0.42386
C	 0.6292337557	-0.8246624857	 1.2021702978	-0.271321
C	-0.9097663963	-2.0241279377	-0.1575469813	-0.117786
C	-1.2855783111	-0.7453830682	-0.2041883685	-0.132626
H	 0.9938832961	 1.9599652144	 0.2175465823	 0.111907
H	-0.3690755111	 1.941444332	-0.9106499303	 0.115589
H	-0.6638145222	 1.9188244182	 0.8335249181	 0.117
H	 0.6948680766	-0.9197934586	-1.9455931048	 0.087794
H	 2.0351913623	-0.480650751	-0.8208564932	 0.084032
H	 1.3422631585	-3.7644330518	-0.7515471726	 0.083835
H	 2.4624242592	-2.9785077292	 0.3792416451	 0.081756
H	 1.3571680691	-4.804367961	 1.3322442818	 0.287503
H	 1.6434193594	-0.5173618791	 1.48366662	 0.081551
H	 0.0080639585	-0.9810466333	 2.0862010958	 0.097739
H	-1.4841757556	-2.9346376991	-0.2498175417	 0.102312
H	-2.2626642578	-0.3070798175	-0.3573290528	 0.09342
78.95	152.0495	201.0814	230.6208	275.1974	279.6003	344.4011	401.9725	470.7832	534.8539	545.4842	609.8919	650.8143	699.5142	725.8435	831.1994	862.6002	879.7721	900.9698	907.6778	958.0377	1001.6237	1036.3761	1047.1669	1058.1847	1068.6167	1084.1343	1144.5095	1149.9883	1181.2553	1198.2007	1216.649	1240.0105	1253.143	1279.867	1329.6029	1356.4607	1413.673	1466.8254	1475.967	1492.2244	1493.7109	1514.5344	1518.928	1632.1379	2956.0348	2985.6754	3023.4965	3026.7535	3040.4052	3086.519	3094.4481	3103.7689	3119.4809	3211.7477	3244.0811	3829.3771
CC12CC(CO)(C1)C=C2	C[C@@]12C[C@@](CO)(C1)C=C2	
InChI=1S/C8H12O/c1-7-2-3-8(4-7,5-7)6-9/h2-3,9H,4-6H2,1H3	InChI=1S/C8H12O/c1-7-2-3-8(4-7,5-7)6-9/h2-3,9H,4-6H2,1H3/t7-,8-
