19
gdb 7447	2.90299	1.6554	1.11234	6.2585	67.71	-0.2459	0.0307	0.2766	1074.632	0.165218	-402.245192	-402.236305	-402.235361	-402.27857	33.1	
C	 0.044048373	 1.5738447697	-0.1302348754	-0.39895
C	 0.0204773947	 0.0456887133	-0.0177573744	 0.01974
N	 0.7943742494	-0.43753408	 1.1523026356	-0.528846
H	 0.1744453688	-2.0368058145	 1.0237975027	 0.315434
H	 1.7823931591	-0.233583588	 1.0363721617	 0.244934
H	 0.4899978272	 0.0489178246	 1.9926096449	 0.239829
C	-1.4100447912	-0.5484934524	 0.0586352911	-0.128424
C	-2.362649996	 0.0186783195	-0.9987044064	-0.398911
C	-1.4229545287	-2.0983846402	-0.007138695	 0.411805
O	-0.4437093698	-2.7234709311	 0.652028053	-0.381854
O	-2.2797146029	-2.7090911183	-0.5943895043	-0.336123
H	 1.0771248944	 1.9371987459	-0.1092879897	 0.111224
H	-0.4126718532	 1.9236831084	-1.0588779478	 0.135568
H	-0.4933581076	 2.0367662323	 0.7064538618	 0.116616
H	 0.5153975549	-0.3770883497	-0.9016758281	 0.104861
H	-1.80674999	-0.2930928556	 1.0549615355	 0.095538
H	-3.2998652578	-0.5375861701	-0.9794286963	 0.149054
H	-2.5730128566	 1.0763716852	-0.8243519681	 0.107373
H	-1.9429119778	-0.089472439	-2.0046597407	 0.121133
64.4587	99.9274	212.3666	238.8599	287.7102	294.1017	343.6493	358.9086	373.7919	421.849	467.1727	535.0945	592.5162	723.947	816.1258	848.5456	912.5342	940.8925	975.994	1004.7855	1046.2924	1063.5428	1112.3016	1121.7723	1171.339	1216.588	1251.8687	1308.9367	1335.8237	1368.5694	1400.5932	1406.8103	1417.0433	1489.5824	1491.7281	1500.233	1508.8202	1514.3775	1646.3824	1844.4215	2977.9068	3025.9818	3032.2583	3047.8652	3092.3765	3115.0177	3124.4691	3152.6832	3175.45	3482.0175	3566.1128
CC([NH3+])C(C)C([O-])=O	C[C@@H](N)[C@@H](C)C(=O)O	
InChI=1S/C5H11NO2/c1-3(4(2)6)5(7)8/h3-4H,6H2,1-2H3,(H,7,8)	InChI=1S/C5H11NO2/c1-3(4(2)6)5(7)8/h3-4H,6H2,1-2H3,(H,7,8)/t3-,4-/m1/s1
