15
gdb 19423	4.25016	2.03282	1.64086	1.4103	66.58	-0.2429	-0.0044	0.2385	788.9177	0.12028	-362.614242	-362.608084	-362.607139	-362.644302	24.704	
C	 0.0188958297	 1.5067067735	-0.0229953147	-0.241158
O	 1.195052337	 0.6964778867	 0.0012953715	-0.288299
C	-0.0853235928	 0.042283787	 0.0047642046	 0.476753
C	-0.4798074091	-0.7670654705	 1.1933972902	-0.166807
C	-0.9737523613	-1.9533148459	 0.8219387395	-0.057997
C	-1.0123783295	-2.0702653005	-0.6670233545	-0.091897
N	-1.9073984216	-1.051450892	-1.2983803768	-0.33584
C	-0.4536929557	-0.7981346444	-1.1950616581	-0.168121
H	-0.1750130417	 2.0790103613	 0.8835630978	 0.114958
H	-0.1728482275	 2.0366192977	-0.9551912561	 0.115955
H	-0.3854993765	-0.3942676396	 2.2058313776	 0.107116
H	-1.3440262463	-2.7217885204	 1.4891117725	 0.107658
H	-0.8809121075	-3.0250988945	-1.163498722	 0.095726
H	-2.1073289262	-1.3456946488	-2.2542926805	 0.230107
H	 0.1592937391	-0.7379305796	-2.0872789108	 0.101845
150.0989	252.5068	330.9059	396.0222	433.8788	530.2488	626.3389	750.7354	775.2367	806.6047	841.4913	858.4452	872.2	907.1598	928.5413	945.2346	967.0961	993.1131	1062.5066	1102.1289	1126.4059	1141.397	1149.6593	1164.417	1236.2243	1254.4005	1337.6943	1346.5931	1393.664	1443.7592	1529.3806	1649.6216	3079.0338	3165.732	3173.3516	3183.3245	3201.835	3224.5312	3465.2726
C1OC11C=CC2NC12	C1O[C@]21C=C[C@H]1N[C@@H]21	
InChI=1S/C6H7NO/c1-2-6(3-8-6)5-4(1)7-5/h1-2,4-5,7H,3H2	InChI=1S/C6H7NO/c1-2-6(3-8-6)5-4(1)7-5/h1-2,4-5,7H,3H2/t4-,5-,6+/m1/s1
