14
gdb 130651	4.91378	1.31044	1.04808	2.8504	67.38	-0.2625	-0.0534	0.2091	1043.4436	0.10333	-432.888879	-432.882288	-432.881344	-432.920301	24.903	
O	-0.0372179936	 0.038427225	 0.0047322065	-0.273829
C	-0.0174479078	 1.2343599048	 0.0109569235	 0.3949
C	-1.2757719643	 2.1393417339	 0.0323195166	-0.279751
N	-0.6825504626	 3.45625207	 0.0314066277	 0.046361
N	-1.2359918709	 4.6782875859	 0.0447589262	-0.165707
N	-0.2416172868	 5.5284005409	 0.0361787369	-0.183159
C	 0.9453363102	 4.8533232203	 0.0170055387	-0.205105
C	 0.6738928537	 3.5057097815	 0.0138728169	 0.352268
C	 1.247708546	 2.129185583	-0.0007286966	-0.486954
H	-1.8984358085	 1.9608670448	-0.8496034275	 0.170097
H	-1.8749148016	 1.9514987742	 0.9284817955	 0.170085
H	 1.8883539582	 5.3740040348	 0.0072330995	 0.1301
H	 1.8683380426	 1.8927882127	 0.8705133257	 0.165345
H	 1.8456984453	 1.9019784282	-0.8900479494	 0.165349
73.1404	205.6427	243.487	348.9181	470.3247	514.0244	528.7651	653.4516	708.8567	744.3963	757.6029	826.2794	829.5248	846.7334	1004.3947	1020.1501	1069.155	1127.1189	1153.632	1178.0926	1198.1212	1227.81	1234.4516	1272.8565	1321.6448	1349.3965	1443.3832	1462.6532	1495.8629	1588.4966	1877.8798	3050.6015	3060.7189	3084.7062	3105.6822	3278.5874
O=C1CN2N=NC=C2C1	O=C1Cn2nncc2C1	
InChI=1S/C5H5N3O/c9-5-1-4-2-6-7-8(4)3-5/h2H,1,3H2	InChI=1S/C5H5N3O/c9-5-1-4-2-6-7-8(4)3-5/h2H,1,3H2
