18
gdb 45785	2.93334	1.4214	1.04316	3.7116	80.93	-0.2255	0.0126	0.2381	1150.3641	0.149042	-401.984062	-401.976178	-401.975234	-402.016851	30.845	
O	 0.0407018383	-0.0503021998	 0.1561512718	-0.383727
C	-0.0244660684	 1.159631514	 0.0390624233	 0.398501
C	-1.3443365678	 1.868876237	-0.2367314321	-0.399926
C	-1.2604119066	 3.3611562632	-0.3557903396	-0.091892
C	-0.1197553812	 4.0341267952	-0.2312757204	-0.0946
C	 1.1743472707	 3.3790554878	 0.0360601904	 0.393009
C	 2.4355915963	 3.9598851808	-0.5789580527	-0.315
C	 2.1962460284	 4.0921342061	 0.9040850873	-0.314987
N	 1.0857993353	 1.948696338	 0.149415634	-0.405342
H	-1.7611932357	 1.4209248769	-1.1483106593	 0.142387
H	-2.0369087572	 1.5729617762	 0.562156779	 0.142397
H	-2.1853868977	 3.895909746	-0.5527920752	 0.097934
H	-0.0929929466	 5.1154989126	-0.3230665708	 0.095622
H	 3.1887489897	 3.2540908251	-0.9135679422	 0.121874
H	 2.3401485046	 4.8399112022	-1.2054544264	 0.125592
H	 1.9345849119	 5.0640369895	 1.3078080887	 0.125589
H	 2.7873533989	 3.4758525239	 1.5735200877	 0.121877
H	 1.9339316772	 1.4305524253	 0.3317834266	 0.240693
65.028	88.6828	246.7519	270.3966	385.369	429.8828	476.259	489.0263	523.0086	542.768	641.0038	644.4163	736.6781	765.5105	847.2386	888.4039	922.7353	929.8306	959.5541	973.7733	981.4656	996.5251	1011.3563	1063.9043	1071.1346	1184.0902	1191.8098	1207.8882	1257.1023	1326.0221	1358.1699	1378.366	1431.4071	1454.2928	1464.1984	1478.4963	1498.9987	1736.719	1787.8734	3025.9822	3047.1563	3129.8177	3132.6641	3159.3726	3183.542	3211.1819	3226.4584	3599.3851
O=C1CC=CC2(CC2)N1	O=C1CC=CC2(CC2)N1	
InChI=1S/C7H9NO/c9-6-2-1-3-7(8-6)4-5-7/h1,3H,2,4-5H2,(H,8,9)	InChI=1S/C7H9NO/c9-6-2-1-3-7(8-6)4-5-7/h1,3H,2,4-5H2,(H,8,9)
