18
gdb 73912	2.90243	1.38725	1.01847	1.93	88.74	-0.2148	-0.0162	0.1986	1177.5658	0.147373	-364.775561	-364.76714	-364.766195	-364.808294	32.58	
C	-0.0418889922	 1.5175341486	 0.1317246427	-0.523725
C	-0.0358840486	 0.0287272117	 0.0354660777	 0.263574
C	-0.0204160719	-0.7232279714	-1.0864730735	 0.090787
C	-0.0254900792	-2.2190135192	-0.7783354067	-0.322277
C	 0.0304671409	-2.2591590068	 0.7419102239	-0.050633
N	 1.259209684	-1.6645793891	 1.3063155961	-0.331876
C	 0.0030401925	-0.8569230605	 1.2364506508	-0.139757
C	 0.0197117845	-0.2414120833	-2.4154865224	 0.209446
C	 0.0446755165	 0.1295073634	-3.563024405	-0.428255
H	 0.8659611123	 1.8788053237	 0.6314813953	 0.137177
H	-0.100272912	 1.9795136836	-0.8562126028	 0.139534
H	-0.8911358705	 1.8706811279	 0.7307209659	 0.124847
H	-0.9335549552	-2.6987959546	-1.1636042831	 0.112273
H	 0.8310302997	-2.7268946383	-1.2343076926	 0.127882
H	-0.4541193061	-3.0662118892	 1.2804365177	 0.089047
H	 1.3662641293	-2.0061311371	 2.260740522	 0.227483
H	-0.4757140715	-0.5586754186	 2.1637041267	 0.086822
H	 0.0713367974	 0.4656255992	-4.5696177528	 0.187651
117.6241	142.0114	166.7158	190.1048	291.0885	314.6532	381.627	499.6357	514.5849	558.7523	589.0096	611.5394	639.0889	643.5017	759.8578	814.0816	848.9928	875.4172	932.06	959.4912	994.7964	1047.2785	1075.7635	1083.5474	1131.6886	1162.0134	1176.7063	1193.6371	1239.8571	1260.175	1333.59	1373.2717	1408.9428	1417.1063	1468.7249	1479.7681	1482.5881	1674.2295	2213.8747	3017.614	3033.2214	3063.1731	3076.3469	3125.1884	3160.1013	3171.9986	3470.4455	3503.786
CC1=C(CC2NC12)C#C	CC1=C(C[C@H]2N[C@@H]12)C#C	
InChI=1S/C8H9N/c1-3-6-4-7-8(9-7)5(6)2/h1,7-9H,4H2,2H3	InChI=1S/C8H9N/c1-3-6-4-7-8(9-7)5(6)2/h1,7-9H,4H2,2H3/t7-,8+/m1/s1
