27
gdb 57522	2.54977	1.04781	0.96596	0.0771	95.55	-0.2588	0.0698	0.3286	1458.7033	0.249798	-353.557403	-353.546331	-353.545387	-353.592777	43.221	
C	-0.3978546658	 1.7093709258	-0.0961223367	-0.402972
C	-0.2900919045	 0.2080531685	-0.429803813	 0.26329
C	 0.1300004741	-0.5739019138	 0.8269885926	-0.39884
C	-1.6872416844	-0.2746906934	-0.8716750385	-0.394619
C	 0.6808202349	-0.0538230859	-1.6189493075	-0.277595
C	 2.1936905381	-0.0050080754	-1.4101914181	 0.379515
C	 2.8139303126	 1.3034483864	-0.9496138529	-0.46363
C	 2.8940084794	-1.2765516285	-0.9821272743	-0.289442
C	 3.0064143989	-0.8027623648	-2.4100587272	-0.310738
H	 0.537248469	 2.1228482427	 0.286787793	 0.112439
H	-0.6818534214	 2.2888376826	-0.9817393537	 0.105546
H	-1.1659178006	 1.8764928044	 0.6675077776	 0.104749
H	-0.5942738555	-0.4202821888	 1.6350026894	 0.102939
H	 0.1797848012	-1.6500447221	 0.6286030312	 0.105217
H	 1.1111945604	-0.2591030998	 1.1932793632	 0.115579
H	-2.0152244229	 0.240822382	-1.781598532	 0.106596
H	-1.6898554656	-1.3506120348	-1.0784315598	 0.105337
H	-2.4331175722	-0.0816856083	-0.0927986765	 0.104872
H	 0.4478764467	-1.0514707444	-2.0130278455	 0.083004
H	 0.4197775857	 0.6486028415	-2.4241514499	 0.087678
H	 2.5696779557	 1.5359519329	 0.0917183593	 0.11959
H	 3.9055315117	 1.2569931517	-1.0206512643	 0.107041
H	 2.4776690923	 2.1442515022	-1.5674289357	 0.112375
H	 3.7670240683	-1.1900088325	-0.3432061114	 0.104964
H	 2.2922166479	-2.1571040833	-0.7852170645	 0.107294
H	 2.4753986542	-1.3601037182	-3.174880105	 0.10547
H	 3.9540797618	-0.3911029664	-2.7411808398	 0.104344
48.8781	107.5421	175.7877	210.8096	252.9285	257.1301	270.0755	286.1864	300.79	316.8273	361.8217	366.6764	397.2362	418.3579	428.3428	521.7358	727.4234	748.8127	786.7458	854.2651	883.4872	893.1118	931.1228	936.3012	952.595	957.1846	959.7764	982.2586	1031.6477	1050.583	1054.0603	1077.4381	1082.7383	1116.2907	1185.3723	1187.89	1226.9471	1266.678	1293.9596	1318.0997	1356.4181	1385.4963	1398.3597	1402.5374	1422.049	1434.0877	1466.7987	1474.8303	1480.2307	1483.8515	1484.8261	1493.6313	1500.2654	1506.1386	1509.9893	1514.506	1518.7663	2995.5218	3019.8976	3025.7297	3027.2283	3033.7861	3037.5461	3085.7614	3087.6822	3089.7948	3090.9778	3094.5516	3095.3239	3107.6398	3124.231	3126.9595	3129.7693	3201.4622	3215.9388
CC(C)(C)CC1(C)CC1	CC(C)(C)CC1(C)CC1	
InChI=1S/C9H18/c1-8(2,3)7-9(4)5-6-9/h5-7H2,1-4H3	InChI=1S/C9H18/c1-8(2,3)7-9(4)5-6-9/h5-7H2,1-4H3
