21
gdb 108926	3.61469	1.01143	0.91999	1.3064	85.06	-0.2189	0.024	0.2428	1373.3861	0.182136	-387.092281	-387.08323	-387.082285	-387.125994	35.073	
C	-0.3729273469	 1.4761429871	-0.0215632081	-0.373486
C	 0.1300593899	 0.0231055842	 0.0405458869	-0.285726
C	 0.8507147557	-0.4170910539	-1.2001027127	 0.337866
C	 2.1126799801	-0.8522173408	-1.2863345481	-0.280623
C	 2.4703357859	-1.2931335426	-2.669724842	 0.387546
O	 3.7269231951	-0.9830977996	-3.1946931263	-0.468548
C	 1.6984865097	-2.4854771428	-3.1921812278	-0.340845
C	 1.2155485265	-1.0764211144	-3.4846562777	-0.09068
C	 0.1702399466	-0.4565219601	-2.5639842575	-0.326646
H	 0.4591043509	 2.1709242424	-0.1730399313	 0.122392
H	-1.0823755966	 1.620606653	-0.8423181444	 0.119347
H	-0.8806465317	 1.7508561563	 0.9080842013	 0.112292
H	 0.7928009959	-0.0984073697	 0.9047516764	 0.100975
H	-0.730631725	-0.6381664219	 0.2167772431	 0.101244
H	 2.8090965938	-0.9226681119	-0.4568461566	 0.082101
H	 4.3369115592	-1.6821508903	-2.9368741234	 0.281282
H	 2.1339171848	-3.0112334757	-4.0365148079	 0.107439
H	 1.1526493164	-3.1072449209	-2.4889842111	 0.105952
H	 1.2978816447	-0.7340705042	-4.5088527111	 0.093357
H	-0.7576936345	-1.0438376536	-2.5315114323	 0.105414
H	-0.1157438306	 0.5491607195	-2.8986151993	 0.109348
59.4452	124.3268	203.363	223.5643	240.0352	273.0126	310.3777	401.8471	420.6223	463.6075	505.1174	595.7119	618.0072	757.9076	785.9258	839.5933	854.397	867.7356	899.7323	921.214	955.045	967.3263	1003.6929	1049.1486	1062.9272	1075.2467	1084.0288	1101.1258	1165.435	1196.2616	1235.0593	1236.9219	1283.2115	1320.088	1332.5302	1345.2516	1355.8074	1402.0927	1407.1312	1468.0829	1478.7215	1482.2331	1498.3212	1507.1184	1701.4845	3003.2638	3013.8158	3036.3805	3041.2201	3058.8477	3107.7035	3110.0214	3115.5281	3181.2657	3187.8863	3209.1512	3803.4794
CCC1=CC2(O)CC2C1	CCC1=C[C@@]2(O)C[C@H]2C1	
InChI=1S/C8H12O/c1-2-6-3-7-5-8(7,9)4-6/h4,7,9H,2-3,5H2,1H3	InChI=1S/C8H12O/c1-2-6-3-7-5-8(7,9)4-6/h4,7,9H,2-3,5H2,1H3/t7-,8-/m1/s1
