14
gdb 128729	2.65509	1.64045	1.02049	2.4787	68.29	-0.2502	-0.0579	0.1923	1089.2134	0.100686	-473.808836	-473.801159	-473.800215	-473.84127	28.01	
C	 0.0255806911	 1.3683051352	 0.0074901245	-0.236205
O	-0.0395706171	-0.0623988932	 0.0028361123	-0.220084
C	-1.2427164765	-0.6224792253	 0.0102744835	 0.328407
N	-2.2898441484	 0.1405999915	 0.0212770737	-0.178117
O	-3.5340356566	-0.4875526855	 0.0288996037	-0.231014
C	-3.6164916581	-1.8201929964	 0.0248764393	 0.114121
C	-2.5654985997	-2.662994463	 0.0135722987	-0.27628
C	-1.2244532762	-2.1248442017	 0.0047137682	 0.320766
O	-0.1858966446	-2.7566379506	-0.0055050981	-0.344435
H	 1.0883466837	 1.6084400274	-0.0000174131	 0.143381
H	-0.4697474859	 1.7802887486	-0.8761922074	 0.145406
H	-0.4557365356	 1.773866505	 0.9018213142	 0.145406
H	-4.6565787394	-2.1290107733	 0.0320750994	 0.154486
H	-2.7142893868	-3.7347468588	 0.0110418811	 0.134161
101.9803	144.3091	195.2741	217.1413	310.4866	349.2627	437.5429	493.7523	534.0422	577.3599	591.2446	729.2906	782.8602	860.5368	891.5518	970.0685	973.2134	1023.8862	1054.4548	1176.7016	1200.6664	1236.5674	1282.1713	1384.9031	1436.8786	1480.7842	1487.4286	1494.7474	1601.466	1645.0788	1775.1891	3046.3178	3119.3323	3162.6742	3198.1517	3228.7729
COC1=NOC=CC1=O	COc1noccc1=O	
InChI=1S/C5H5NO3/c1-8-5-4(7)2-3-9-6-5/h2-3H,1H3	InChI=1S/C5H5NO3/c1-8-5-4(7)2-3-9-6-5/h2-3H,1H3
