20
gdb 23527	3.12637	1.20695	1.1331	1.254	83.06	-0.2375	0.0232	0.2607	1185.9994	0.172053	-403.095714	-403.087391	-403.086447	-403.128309	32.839	
C	-0.1508532238	 1.5865630692	-0.0055907368	-0.438239
C	 0.0343925281	 0.0759569795	 0.0154499562	 0.035128
C	 1.1742184554	-0.6261007208	-0.8170574621	-0.133185
C	 2.4582514377	 0.0429938769	-0.2661484734	-0.221277
C	 2.1276644964	 0.024377991	 1.2682974472	-0.222143
C	 0.7357194214	-0.6536929593	 1.2238145568	-0.12286
C	 0.9930196804	-1.7421122849	 0.2009332546	 0.486478
N	 0.8994918082	-2.9994156654	 0.2510981563	-0.315226
O	 1.1378955294	-3.5793315284	-1.0206745093	-0.402872
H	 0.7715475594	 2.1353058896	 0.1994638903	 0.120952
H	-0.5191251031	 1.9123868711	-0.9843525743	 0.120887
H	-0.8904588957	 1.8913815737	 0.7426532162	 0.120408
H	-0.9190789082	-0.4173684582	-0.1950446724	 0.087588
H	 1.0960003338	-0.797267712	-1.8879944045	 0.083729
H	 3.3517439861	-0.5371493974	-0.5077415188	 0.11139
H	 2.5988721377	 1.053460113	-0.6585582992	 0.101269
H	 2.8456336251	-0.5663320193	 1.8419906704	 0.109429
H	 2.0889716781	 1.0244218893	 1.7078938248	 0.100587
H	 0.2237929588	-0.8477234814	 2.1645770868	 0.075418
H	 1.0306455746	-4.5174012962	-0.8311193589	 0.302539
105.1125	174.5509	180.7655	260.8231	283.4234	297.1414	348.0751	401.0233	469.9749	575.0146	675.3126	683.5157	710.9111	757.5806	790.6728	853.8003	898.1942	904.4769	936.1952	963.7653	988.9669	1015.9733	1044.9168	1050.5409	1121.1282	1131.0634	1133.635	1154.6251	1195.2583	1208.4043	1248.4175	1255.6545	1265.3454	1313.2777	1326.1371	1395.6511	1405.7759	1412.4639	1484.4994	1494.2322	1505.9064	1516.8961	1810.5774	3036.4269	3060.8533	3064.5448	3069.4862	3095.6809	3099.7112	3114.8035	3120.7153	3138.7198	3152.2595	3819.6468
CC1C2CCC1C2=NO	C[C@H]1[C@H]2CC[C@@H]1C2=NO	
InChI=1S/C7H11NO/c1-4-5-2-3-6(4)7(5)8-9/h4-6,9H,2-3H2,1H3	InChI=1S/C7H11NO/c1-4-5-2-3-6(4)7(5)8-9/h4-6,9H,2-3H2,1H3/t4-,5+,6-
