15
gdb 77213	3.78637	1.05976	0.89577	2.566	75.35	-0.2524	-0.0005	0.2519	1254.8712	0.108846	-420.520282	-420.511115	-420.51017	-420.554621	33.214	
O	 0.2375951082	 1.2327498879	-0.1615408612	-0.410032
C	 0.0074828042	-0.1401586769	-0.1590353181	 0.056875
C	-0.1809876283	-0.8626059333	 1.2104724576	-0.067818
O	-1.4346165011	-1.4327772795	 0.7484562614	-0.289235
C	-1.4633214091	-0.5717591313	-0.4222069834	-0.118204
C	-2.4683624956	 0.474138526	-0.3482984393	 0.382782
C	-3.3160283451	 1.3240700599	-0.2972462674	-0.458381
C	 0.8008322466	-1.847873935	 1.6136045238	 0.300232
C	 1.6412946333	-2.6471128553	 1.930385713	-0.434206
H	 1.1866516966	 1.3887923242	-0.1813516347	 0.297645
H	 0.7027919102	-0.6864870854	-0.8050840154	 0.099811
H	-0.3581800514	-0.132603895	 2.0117047325	 0.116898
H	-1.6071183805	-1.1676878919	-1.3304032502	 0.116232
H	-4.0605900185	 2.0799422241	-0.2488212473	 0.202935
H	 2.3743795907	-3.3594770585	 2.2192616886	 0.204468
44.1431	113.1219	149.4977	186.0904	207.1389	243.8865	324.0855	389.0311	454.2973	470.8827	600.6969	616.1962	622.7301	630.1229	676.5599	678.072	762.2357	822.6933	949.0858	976.5942	1005.832	1041.4048	1084.9577	1159.9778	1194.5985	1230.1434	1267.8393	1288.6556	1352.2119	1366.014	1447.557	2234.3891	2237.7942	3018.3248	3040.2324	3055.2911	3501.7091	3503.3022	3830.344
OC1C(OC1C#C)C#C	O[C@H]1[C@@H](O[C@H]1C#C)C#C	
InChI=1S/C7H6O2/c1-3-5-7(8)6(4-2)9-5/h1-2,5-8H	InChI=1S/C7H6O2/c1-3-5-7(8)6(4-2)9-5/h1-2,5-8H/t5-,6-/m0/s1
