23
gdb 57408	2.78448	1.2442	1.22223	1.3524	85.03	-0.2379	0.0637	0.3016	1205.7108	0.204671	-388.261124	-388.251576	-388.250632	-388.295287	37.531	
C	-1.4704022466	-0.4220057747	-0.7499792006	-0.418962
C	-0.1525599197	-0.1279221754	-0.0156692099	 0.289444
C	-0.1488467559	 1.2976726823	 0.5451505525	-0.385475
O	-0.0554494774	-0.9756614866	 1.1334065484	-0.451639
C	 1.0185728584	-0.2902150145	-0.9946943466	 0.034785
C	 2.4918204616	-0.3251932697	-0.7125203415	-0.100681
C	 2.8737994664	-1.2179913212	 0.4818598033	-0.215945
C	 2.2156687082	-2.4356181698	-0.2376912496	-0.22402
C	 1.7916276386	-1.5202203229	-1.3979487881	-0.114925
H	-1.6289617549	 0.2683999714	-1.5844229798	 0.113654
H	-1.4645156595	-1.4389742243	-1.1603162184	 0.107989
H	-2.3138755325	-0.3303620694	-0.0593166279	 0.118089
H	-0.9985469369	 1.4417720898	 1.2186771513	 0.114804
H	 0.7720993412	 1.4777704817	 1.1061310135	 0.125345
H	-0.2117222775	 2.0348325206	-0.2607222851	 0.106971
H	-0.2453093749	-1.875677097	 0.8520673238	 0.279202
H	 0.8294945308	 0.3198730235	-1.8794871215	 0.079205
H	 3.1580958362	 0.4044547844	-1.1594968036	 0.078095
H	 3.9555434159	-1.3363718326	 0.5782170898	 0.093879
H	 2.4546443008	-0.9379716127	 1.4481540105	 0.117135
H	 2.9685625769	-3.155432979	-0.569060261	 0.100024
H	 1.4407704503	-2.9918286533	 0.2969914076	 0.074368
H	 1.8373334303	-1.8173395706	-2.4403394372	 0.078655
34.7776	173.2058	205.0402	220.2918	247.3101	271.7607	285.3262	347.7526	373.2211	393.2814	398.3556	518.798	602.96	731.2472	735.6662	786.3052	795.666	816.2992	883.7636	927.2091	953.306	956.7132	962.608	970.3578	1010.0907	1020.891	1034.2739	1079.9152	1113.7619	1132.9723	1136.9599	1152.0913	1205.0258	1221.0037	1250.2884	1269.8512	1275.5356	1307.6235	1353.2553	1365.3612	1394.633	1414.4221	1448.0305	1476.7086	1480.4612	1483.3414	1497.0599	1504.8722	1507.6137	3025.6643	3042.9584	3050.7936	3071.8679	3090.9532	3093.1697	3096.3597	3111.1749	3119.1589	3121.9763	3134.0406	3157.3923	3170.0798	3827.5188
CC(C)(O)C1C2CCC12	CC(C)(O)[C@H]1[C@H]2CC[C@@H]12	
InChI=1S/C8H14O/c1-8(2,9)7-5-3-4-6(5)7/h5-7,9H,3-4H2,1-2H3	InChI=1S/C8H14O/c1-8(2,9)7-5-3-4-6(5)7/h5-7,9H,3-4H2,1-2H3/t5-,6+,7-
