18
gdb 41272	3.50517	1.86501	1.49325	0.8704	74.35	-0.2124	0.0614	0.2737	896.592	0.150423	-401.846512	-401.840284	-401.83934	-401.87675	26.318	
C	 0.0566956314	 1.512196594	-0.1008880986	-0.177171
C	 1.606263609	 1.4646680032	-0.0107036769	-0.10203
C	 1.9650295807	 1.3466585787	 1.4725852653	 0.107964
O	 3.297964213	 0.8732849575	 1.7886985376	-0.307513
C	 2.7859842435	-0.415538678	 2.2388320041	-0.200506
C	 1.4807112778	-0.128326223	 1.5189254721	 0.278527
C	-0.0178816963	-0.4152893744	 1.4974700477	-0.290859
N	-0.0840659171	 0.0178443527	 0.0506969083	-0.148824
C	 1.4325204663	-0.0869944316	-0.0372018485	-0.022605
H	-0.473064746	 2.1064658766	 0.6538485527	 0.099675
H	-0.3021988104	 1.8099058808	-1.0902877071	 0.11525
H	 2.2098901841	 2.072053599	-0.6852086464	 0.077211
H	 1.637274579	 2.1296523375	 2.1674310493	 0.068639
H	 3.3967553548	-1.2521341171	 1.8822258065	 0.109733
H	 2.7173535174	-0.4538621018	 3.3357711836	 0.101178
H	-0.2768357109	-1.4777953792	 1.559491326	 0.112901
H	-0.658625815	 0.1459550256	 2.1864280385	 0.104701
H	 1.8834239786	-0.8104462004	-0.7157517042	 0.073729
222.2545	251.6098	335.6713	367.8963	422.0986	516.3382	617.9922	716.9885	786.962	800.7926	853.1214	869.7702	895.888	904.8583	947.8005	952.973	969.0526	981.3501	1007.9486	1021.8309	1050.6301	1121.7792	1136.2736	1166.0678	1168.6265	1185.9777	1194.5683	1202.2932	1208.8429	1241.5486	1248.367	1278.7631	1300.871	1319.8637	1336.5806	1373.3054	1490.565	1503.3744	1517.5077	2995.3394	3024.3012	3028.949	3034.9289	3065.9194	3080.4197	3083.5519	3106.2695	3119.5258
C1C2C3OCC33CN1C23	C1[C@H]2[C@@H]3OC[C@]43CN1[C@@H]24	
InChI=1S/C7H9NO/c1-4-5-7(2-8(1)5)3-9-6(4)7/h4-6H,1-3H2	InChI=1S/C7H9NO/c1-4-5-7(2-8(1)5)3-9-6(4)7/h4-6H,1-3H2/t4-,5+,6+,7-/m1/s1
