19
gdb 53048	3.47403	0.97786	0.87324	1.5335	86.09	-0.2187	0.0354	0.2541	1411.1044	0.159422	-381.989332	-381.980147	-381.979202	-382.02575	33.078	
C	 0.0625554339	 1.5037568071	-0.1609422742	-0.503667
C	 0.0253086896	 0.0518708404	-0.0682986653	 0.153262
C	-0.0040047469	-1.1497755648	 0.022555189	-0.016104
C	-0.0486390254	-2.5900806487	 0.1014067533	 0.129651
C	 0.4124275221	-3.3857685711	-1.1596515077	-0.217096
N	-0.764257575	-4.2946533215	-1.0594201975	-0.320176
C	-1.3341129422	-3.5046917923	 0.0582709332	-0.074887
C	-0.8952549093	-4.0716619264	 1.4220865284	-0.151146
N	 0.2977504247	-3.1772326026	 1.4226682584	-0.367912
H	 1.0921367436	 1.8713034321	-0.2367481096	 0.148609
H	-0.4805579177	 1.8609895377	-1.0431308143	 0.146109
H	-0.391545496	 1.9709400968	 0.7199677186	 0.150154
H	 0.4276539495	-2.7633351107	-2.0608718291	 0.105424
H	 1.3795295564	-3.895441273	-1.0674973222	 0.097597
H	-1.3419411465	-4.2672898371	-1.8906937616	 0.222414
H	-2.3517634659	-3.1330183047	-0.0669303534	 0.077036
H	-1.5618332135	-3.8537617588	 2.2647175112	 0.100938
H	-0.691683203	-5.1464721801	 1.386814657	 0.103534
H	 1.1963289114	-3.6481099724	 1.4467158458	 0.216259
9.3051	70.1168	98.2823	122.5656	261.2342	300.7795	341.3619	382.0328	474.0881	518.2982	528.7541	614.3486	706.5583	777.1501	828.4298	893.7535	934.6016	963.8195	980.4873	1010.8407	1024.1168	1048.6684	1051.8536	1053.4623	1065.772	1110.3729	1144.8232	1166.6848	1194.7333	1268.2009	1304.1433	1321.2975	1350.7922	1368.6362	1393.3294	1414.1035	1477.0823	1478.3838	1501.1576	1502.5605	2361.7938	3016.5836	3023.7106	3025.1881	3067.8867	3079.5234	3084.6973	3086.5493	3105.595	3521.7348	3547.886
CC#CC12CNC1CN2	CC#C[C@]12CN[C@H]1CN2	
InChI=1S/C7H10N2/c1-2-3-7-5-8-6(7)4-9-7/h6,8-9H,4-5H2,1H3	InChI=1S/C7H10N2/c1-2-3-7-5-8-6(7)4-9-7/h6,8-9H,4-5H2,1H3/t6-,7-/m0/s1
