17
gdb 125110	3.0578	1.31382	0.95295	3.2854	72.85	-0.21	-0.0003	0.2097	1215.1789	0.136671	-455.141695	-455.13298	-455.132036	-455.175226	31.997	
C	-0.0550912767	 1.4466865769	-0.0857885563	-0.501522
C	-0.0528516945	-0.0347631587	 0.0016643281	 0.337287
C	-0.9942474281	-0.9836620992	-0.2626663443	 0.082376
O	-2.2625109365	-0.8136950595	-0.7027921416	-0.449782
C	-0.3428367042	-2.2182188611	 0.0310330581	 0.286933
C	-0.9664605297	-3.5761582415	-0.0742807253	-0.282386
N	-1.9096215795	-3.5813200562	-1.2129599436	-0.526129
H	-2.4906590864	-4.4124580509	-1.1856861114	 0.246309
H	-2.5469959919	-1.7008106318	-1.0028777391	 0.299113
H	-1.395528477	-3.6090578856	-2.0889049673	 0.249044
N	 0.8930346375	-2.0285873577	 0.4271206305	-0.219778
O	 1.0790499125	-0.6539604755	 0.4244561641	-0.219936
H	 0.757970398	 1.8094942525	-0.7237140384	 0.142257
H	-1.0056439134	 1.7793596473	-0.5086278301	 0.150208
H	 0.0658629062	 1.9105722613	 0.8996391647	 0.143106
H	-0.1841533199	-4.3442922389	-0.1289091175	 0.127828
H	-1.5538196765	-3.7772702515	 0.8299724793	 0.135073
95.5443	100.3136	145.8374	212.2393	256.3695	281.9496	336.5128	365.1938	426.1141	514.386	593.5346	625.5994	707.9117	725.9334	733.4458	784.9016	896.5964	944.2253	1001.1945	1017.4354	1031.38	1061.5623	1063.8775	1173.3101	1241.5538	1294.5492	1313.1594	1389.4601	1409.4001	1423.3508	1475.4662	1486.9812	1494.6086	1515.1256	1540.6631	1654.179	1724.693	3017.9662	3033.6099	3057.0221	3086.7755	3132.7466	3498.6156	3524.7641	3581.7912
CC1=C([O-])C(C[NH3+])=NO1	Cc1c(O)c(CN)no1	
InChI=1S/C5H8N2O2/c1-3-5(8)4(2-6)7-9-3/h8H,2,6H2,1H3	InChI=1S/C5H8N2O2/c1-3-5(8)4(2-6)7-9-3/h8H,2,6H2,1H3
