14
gdb 133243	3.34812	1.35425	0.97005	2.0942	68.51	-0.242	-0.0628	0.1792	1107.9926	0.10099	-478.00859	-478.001036	-478.000092	-478.040914	27.818	
C	-0.0303469863	 1.443480103	-0.0077885418	-0.314234
N	-0.0067151556	-0.0167506935	 0.0002103414	-0.052014
N	-0.0433685449	-0.6177023969	-1.1875207662	-0.187695
C	-0.02365202	-1.9209967284	-1.2223283145	-0.108287
C	 0.035529186	-2.6952821404	-0.031578675	 0.297563
F	 0.0519499657	-4.0175422336	-0.1598271639	-0.057561
C	 0.0733624539	-2.0999401229	 1.1824173836	-0.375341
C	 0.0530968495	-0.6544441996	 1.2640887544	 0.445633
O	 0.0829166121	 0.0172938158	 2.2810008409	-0.396231
H	 0.8679974931	 1.8327362592	 0.4773346523	 0.155773
H	-0.0795670341	 1.7630424429	-1.0466568003	 0.148833
H	-0.8961960867	 1.8042156314	 0.5525108847	 0.155932
H	-0.0541408297	-2.3923355952	-2.196885552	 0.143504
H	 0.1187127772	-2.6620585819	 2.1055062463	 0.144126
106.7889	127.5997	191.9222	298.7865	324.9099	355.489	457.6505	458.9327	514.7145	618.0599	693.1857	735.8866	744.3695	778.1803	873.2751	898.0999	994.4891	1038.859	1149.862	1163.3194	1221.5206	1268.2156	1281.3375	1355.454	1432.2664	1453.0878	1470.7493	1504.1605	1565.5805	1665.5699	1770.6668	3062.0348	3126.2168	3183.4779	3212.4668	3232.3165
CN1N=CC(F)=CC1=O	Cn1ncc(F)cc1=O	
InChI=1S/C5H5FN2O/c1-8-5(9)2-4(6)3-7-8/h2-3H,1H3	InChI=1S/C5H5FN2O/c1-8-5(9)2-4(6)3-7-8/h2-3H,1H3
