21
gdb 81641	2.55362	1.49187	1.37915	1.732	83.43	-0.2311	0.0135	0.2446	1084.3251	0.184425	-387.097959	-387.089952	-387.089008	-387.129887	32.843	
C	-0.072959904	 1.5022945471	 0.0212330319	-0.481521
C	-0.026198083	 0.002965184	-0.0389160752	 0.296922
C	-0.0436927196	-0.7086909877	-1.1741714949	-0.178581
C	 0.0337670525	-2.2181214965	-1.1007882274	-0.1017
C	 1.1560144141	-2.6062030185	-0.0909356602	-0.228631
C	 0.1332869101	-2.2775685364	 1.0328373399	-0.075277
C	 0.0616760141	-0.7602580878	 1.2723649334	-0.297483
C	-0.9644721356	-2.700445052	 0.003968257	 0.168545
O	-2.2579712071	-2.1752224827	 0.0741474387	-0.44194
H	 0.8305626783	 1.9055898016	 0.4968931053	 0.125263
H	-0.1569456188	 1.9443710921	-0.9754268665	 0.121695
H	-0.920278759	 1.853661219	 0.6239763441	 0.12315
H	-0.1107038611	-0.2210845014	-2.1430004283	 0.082022
H	 0.0061832242	-2.6959795084	-2.0810339461	 0.058466
H	 1.3925187119	-3.672989603	-0.1252682798	 0.09732
H	 2.076829081	-2.0203406816	-0.1310133355	 0.095597
H	 0.1962648581	-2.8281398731	 1.9745117988	 0.060031
H	 0.9363441946	-0.4198795112	 1.8441992614	 0.10481
H	-0.8121842279	-0.5235296033	 1.8964415381	 0.110001
H	-1.0681612523	-3.7886584671	-0.0169652531	 0.084823
H	-2.1913763205	-1.237873063	-0.1497440418	 0.276487
133.915	188.0992	225.4902	287.2411	318.6596	373.9994	404.0442	449.4029	467.3799	546.0845	583.9475	608.3638	764.9445	792.8889	840.5841	844.982	869.175	881.9491	927.3067	963.4719	999.0027	1034.8626	1050.2885	1063.3219	1089.1754	1108.2675	1116.8214	1149.1892	1182.808	1204.0562	1211.8521	1241.6512	1281.0442	1294.0275	1322.0408	1343.0929	1352.8682	1386.848	1414.6152	1439.9814	1468.9252	1478.3332	1488.3001	1496.178	1710.5319	3001.8602	3015.0387	3028.1417	3057.4171	3059.8174	3071.4741	3081.5532	3097.7196	3108.491	3117.3843	3159.7284	3754.5693
CC1=CC2CC(C1)C2O	CC1=C[C@H]2C[C@@H](C1)[C@H]2O	
InChI=1S/C8H12O/c1-5-2-6-4-7(3-5)8(6)9/h2,6-9H,3-4H2,1H3	InChI=1S/C8H12O/c1-5-2-6-4-7(3-5)8(6)9/h2,6-9H,3-4H2,1H3/t6-,7+,8-/m0/s1
