18
gdb 98546	3.80723	1.11908	0.94473	2.3114	74.33	-0.2486	0.0117	0.2603	1270.732	0.147058	-439.082668	-439.073766	-439.072822	-439.116878	32.188	
C	-0.3770017766	 1.4576276559	-0.8386246799	-0.334773
N	-0.2252204188	 0.0179148609	-0.8553096536	-0.325467
C	 0.8863885527	-0.607349168	-0.388459237	 0.28419
O	 1.8631464456	-0.0483534431	 0.0836667971	-0.388222
C	 0.8447991369	-2.0966501591	-0.5172635828	 0.357967
C	 1.6962893534	-3.1241221515	 0.2354227077	-0.292452
C	 1.6318080404	-4.0468489766	-1.033060847	-0.24261
C	 0.7928312454	-2.9628210661	-1.7202894144	-0.036987
O	-0.3753076954	-2.7434852196	-0.9217751537	-0.300249
H	 0.551437311	 1.8795597606	-0.4512586842	 0.169357
H	-0.5574248389	 1.8505088347	-1.845378842	 0.125627
H	-1.2052678946	 1.7653405528	-0.1903403921	 0.127989
H	-0.9835577244	-0.5745658304	-1.1558010501	 0.259993
H	 2.6988451626	-2.7457488426	 0.4359808842	 0.138696
H	 1.2506127542	-3.5081201449	 1.1550860542	 0.112391
H	 2.6089448892	-4.1903249343	-1.4986481251	 0.116453
H	 1.1320164915	-5.0116420892	-0.9227662623	 0.116702
H	 0.7283208957	-2.6957588595	-2.7691619693	 0.111396
72.7578	85.9108	114.3766	155.7789	204.4247	297.4174	318.9803	374.9982	488.2818	508.5248	585.9398	731.9491	750.6213	771.514	797.2862	881.1194	909.1957	930.0147	935.7245	999.1128	1032.6517	1064.1099	1138.0882	1153.3759	1176.5005	1181.0005	1208.455	1217.3895	1235.8897	1270.773	1298.9568	1415.9072	1442.0652	1463.8308	1485.3049	1496.9289	1499.112	1573.0517	1773.4572	3027.2765	3073.1393	3078.8003	3084.4356	3128.3541	3149.9545	3152.0958	3184.7723	3631.3243
CNC(=O)C12CCC1O2	CNC(=O)[C@]12CC[C@H]1O2	
InChI=1S/C6H9NO2/c1-7-5(8)6-3-2-4(6)9-6/h4H,2-3H2,1H3,(H,7,8)	InChI=1S/C6H9NO2/c1-7-5(8)6-3-2-4(6)9-6/h4H,2-3H2,1H3,(H,7,8)/t4-,6+/m1/s1
