20
gdb 83142	1.99405	1.80833	1.42005	2.7139	79.68	-0.2257	-0.0194	0.2062	1058.7188	0.170302	-403.157328	-403.148344	-403.147399	-403.190738	33.839	
C	-0.0637069726	 1.5637763665	 0.0034983549	-0.329664
N	 0.13191257	 0.1210720184	 0.0574032514	-0.116298
C	 1.3650234889	-0.5410280518	-0.3043620172	-0.080806
C	 2.6548211536	 0.2750083456	-0.3889930316	-0.251322
C	 2.8631632865	 0.8952676687	 1.0096804699	-0.336333
C	 1.8228218311	 0.2487573822	 1.9328227563	 0.360427
O	 1.8011826614	 0.3451948242	 3.1360574713	-0.324353
C	 0.8640866102	-0.586420153	 1.1185776779	 0.201517
C	 0.164747417	-1.7326264852	 1.8004206938	-0.472643
H	 0.8379630923	 2.1822515883	 0.1045103639	 0.10895
H	-0.5255191984	 1.8056964115	-0.9592940316	 0.129312
H	-0.764106634	 1.8514102815	 0.7928226925	 0.137291
H	 1.2546237787	-1.3990902519	-0.964084327	 0.094411
H	 3.4812404806	-0.3941091656	-0.6458579893	 0.1146
H	 2.602918459	 1.0288030282	-1.1816822991	 0.112262
H	 3.8560209543	 0.6859248703	 1.4179002306	 0.135417
H	 2.7470195175	 1.9843011187	 1.0338002526	 0.134543
H	-0.4097650386	-1.3674235873	 2.6571714575	 0.137114
H	-0.5169225966	-2.2257876741	 1.1041688781	 0.1244
H	 0.8855750389	-2.4656276451	 2.1766671052	 0.121174
91.0461	131.6512	154.2567	208.5407	225.5833	259.2843	266.4747	373.861	471.1855	486.916	559.3295	606.0158	646.6917	688.3022	749.5418	802.4607	848.4194	893.5603	969.1968	1003.2725	1030.6048	1070.136	1085.0558	1093.7461	1148.7247	1157.1811	1180.0168	1184.3587	1243.3054	1261.962	1291.7357	1320.9569	1329.733	1402.4948	1423.2629	1453.464	1459.9567	1480.8584	1486.562	1491.6221	1500.7267	1509.0266	1820.6644	3010.6271	3042.6072	3047.1912	3054.8819	3074.9135	3081.6954	3101.496	3107.0744	3109.7398	3129.5272	3132.4655
CN1C2CCC(=O)C12C	CN1[C@H]2CCC(=O)[C@@]12C	
InChI=1S/C7H11NO/c1-7-5(8(7)2)3-4-6(7)9/h5H,3-4H2,1-2H3	InChI=1S/C7H11NO/c1-7-5(8(7)2)3-4-6(7)9/h5H,3-4H2,1-2H3/t5-,7-,8?/m0/s1
