18
gdb 37503	3.75806	2.0135	1.7605	1.4622	78.31	-0.2263	0.0072	0.2335	825.3119	0.152395	-364.766393	-364.760879	-364.759934	-364.795806	24.947	
C	-0.0873069538	 1.5812629513	 0.0711156108	-0.25466
C	 1.4335026301	 1.4659568245	 0.0106361512	 0.002718
C	 1.9384584335	 0.5036263047	 1.1281999576	-0.072982
C	 2.4331179785	-0.4461243632	 0.0138504839	-0.015134
C	 2.1489695465	-1.8405281152	 0.4646825327	-0.085567
C	 1.1160141605	-1.77742632	 1.3142631482	-0.100044
C	 0.6507699928	-0.3466305611	 1.3908732806	-0.065503
C	 0.0320981526	 0.044147992	 0.001042664	 0.005781
N	 1.3015568995	 0.2041224812	-0.8433240551	-0.164695
H	-0.5598016723	 2.0151721454	 0.9562864004	 0.094071
H	-0.4970627643	 2.0205382032	-0.8410404982	 0.11163
H	 2.0975398283	 2.2550046375	-0.3436125059	 0.073938
H	 2.5493056897	 0.7943631167	 1.9849197736	 0.062617
H	 3.3903047383	-0.236045695	-0.4628892536	 0.071622
H	 2.6458807335	-2.7293418792	 0.097657082	 0.100787
H	 0.5980230673	-2.6095315268	 1.7756443738	 0.098289
H	 0.0323547634	-0.074071345	 2.246823272	 0.065444
H	-0.7515154941	-0.5990989509	-0.396826178	 0.071688
327.1166	363.5228	412.2814	504.9225	635.6614	691.4682	730.1478	757.8226	801.7232	823.9324	829.4994	854.6098	868.3418	904.8533	923.9785	937.2789	945.3242	959.3786	981.8744	997.4022	1016.1729	1020.354	1058.336	1096.5353	1127.621	1149.7534	1179.7285	1199.1871	1216.036	1221.7906	1234.9778	1268.2402	1271.1325	1290.497	1302.5814	1332.4592	1369.4656	1485.9331	1639.3144	3060.4133	3092.4703	3105.7731	3111.7046	3120.5087	3122.2587	3127.0243	3197.9824	3224.4015
C1C2C3C4C=CC3C1N24	C1[C@H]2[C@@H]3[C@H]4C=C[C@@H]3[C@@H]1N24	
InChI=1S/C8H9N/c1-2-5-8-4(1)6-3-7(8)9(5)6/h1-2,4-8H,3H2	InChI=1S/C8H9N/c1-2-5-8-4(1)6-3-7(8)9(5)6/h1-2,4-8H,3H2/t4-,5-,6-,7+,8+/m1/s1
