18
gdb 22723	4.232	0.94783	0.8505	1.7361	78.03	-0.232	0.0141	0.2461	1368.1054	0.145549	-438.997375	-438.988403	-438.987459	-439.031267	33.349	
C	 0.0688664807	 1.3017805594	 0.2781951628	-0.259122
O	-0.0172345803	-0.0331982612	-0.1983416696	-0.277997
C	-1.2874066638	-0.5504090368	-0.1474130929	 0.44859
C	-1.8987184093	-1.0845218271	 1.1086220723	-0.33986
C	-1.6544541729	-2.0387228398	-0.0650031533	-0.242911
C	-2.6891654347	-1.7995390682	-1.1049587054	 0.46228
C	-2.3674741042	-0.3115321883	-1.2294804493	-0.403577
N	-3.437184432	-2.6175436264	-1.7179088099	-0.265995
O	-4.2231008672	-1.9498827953	-2.6806108894	-0.396233
H	 1.1186797145	 1.5941636078	 0.2121197134	 0.132156
H	-0.5324949483	 1.9890496791	-0.3328349911	 0.116738
H	-0.264372936	 1.3760396663	 1.3223384252	 0.114643
H	-1.1937992486	-1.2261076586	 1.9220301136	 0.123924
H	-2.9102801157	-0.8325837678	 1.4153551281	 0.116733
H	-1.0265069464	-2.9134051432	 0.0395575358	 0.11311
H	-3.1650273528	 0.4047568622	-1.012584666	 0.115616
H	-1.934465849	-0.0897496663	-2.2093744444	 0.13631
H	-4.715505284	-2.677103806	-3.0754236699	 0.305596
71.2634	94.7943	166.6056	196.4194	232.5195	298.8962	361.0445	394.4337	407.8199	431.8353	501.3841	569.0096	645.49	708.5906	814.9643	867.5107	906.8649	943.1941	977.3587	985.9609	998.8888	1058.7441	1069.7556	1081.6035	1117.9289	1157.9539	1179.3558	1201.5395	1225.3355	1251.5449	1268.0628	1373.9775	1410.5295	1462.5084	1475.329	1488.0545	1501.927	1506.4179	1789.8123	2996.157	3051.3552	3056.0369	3108.9509	3113.7224	3127.9246	3205.5008	3212.8933	3820.7719
COC12CC1C(C2)=NO	CO[C@]12C[C@H]1C(=NO)C2	
InChI=1S/C6H9NO2/c1-9-6-2-4(6)5(3-6)7-8/h4,8H,2-3H2,1H3	InChI=1S/C6H9NO2/c1-9-6-2-4(6)5(3-6)7-8/h4,8H,2-3H2,1H3/t4-,6-/m0/s1
