20
gdb 109258	3.54474	1.10792	0.94341	1.163	80.49	-0.223	0.0219	0.2449	1278.7507	0.172409	-403.125488	-403.11715	-403.116205	-403.158525	32.296	
O	 0.0174878276	 1.1751148308	-0.8093363815	-0.406591
C	-0.093528502	-0.1575129921	-0.352871979	-0.142109
C	-1.4523307764	-0.5382804243	 0.1858598338	 0.238504
C	-2.5171255362	 0.257609819	 0.0948193614	-0.162188
C	-3.8706698377	-0.1093763794	 0.6437867281	-0.204648
N	-4.1148790571	-1.5355568404	 0.8860669474	-0.098482
C	-3.8398861608	-2.446903188	-0.2258224725	-0.248604
C	-2.9531498105	-2.4245747486	 0.9690364373	-0.001908
C	-1.5369522986	-1.881723729	 0.8663384358	-0.322305
H	-0.150042243	 1.7530249005	-0.057274794	 0.28333
H	 0.1484920585	-0.7901016438	-1.2178433442	 0.123082
H	 0.6719376528	-0.3863940418	 0.4099145297	 0.092186
H	-2.4239762035	 1.2211866282	-0.3987510021	 0.089457
H	-4.035611778	 0.4131368834	 1.5977785285	 0.113565
H	-4.6581890005	 0.2508396931	-0.0304495394	 0.112343
H	-4.5638627012	-3.2456518945	-0.3640955181	 0.110304
H	-3.4386413787	-2.0262490858	-1.1457921446	 0.112989
H	-3.0704138596	-3.2190151719	 1.704308339	 0.086621
H	-0.901566401	-2.6130750803	 0.3455711888	 0.109223
H	-1.1123497939	-1.7994292551	 1.8779052657	 0.115231
69.5824	134.831	210.913	220.8414	313.9337	337.5277	359.9298	408.8168	449.6573	532.7972	585.6988	720.1858	752.4709	793.7419	819.6195	864.1917	928.2465	954.8641	980.5805	987.712	1039.6383	1068.3076	1077.3259	1085.0692	1114.2472	1133.3855	1159.2632	1175.0399	1208.7058	1249.8857	1274.7908	1303.5835	1323.3398	1353.2865	1370.1541	1393.4982	1415.595	1421.1831	1476.2715	1481.1136	1491.0833	1505.5946	1746.37	2946.4707	2994.1291	2995.4127	3014.9227	3030.4015	3037.7169	3097.1946	3112.2056	3165.65	3182.1388	3809.6329
OCC1=CCN2CC2C1	OCC1=CCN2C[C@H]2C1	
InChI=1S/C7H11NO/c9-5-6-1-2-8-4-7(8)3-6/h1,7,9H,2-5H2	InChI=1S/C7H11NO/c9-5-6-1-2-8-4-7(8)3-6/h1,7,9H,2-5H2/t7-,8?/m1/s1
