17
gdb 89321	1.98083	1.75628	1.11955	3.898	74.6	-0.2765	0.0069	0.2834	1111.221	0.13557	-417.985728	-417.977094	-417.97615	-418.018851	32.371	
C	 0.0562831094	 1.5435554749	 0.0069503648	-0.476752
C	-0.0602183383	 0.052030903	 0.0540005994	 0.2577
C	-1.3590334047	-0.768508521	-0.0288521615	-0.300351
C	-0.7596519526	-1.7975669965	 0.9695103384	 0.02181
O	-0.6256486474	-3.0785997305	 0.4053303119	-0.416461
C	 0.5342475039	-0.9446597076	 1.0392496411	 0.164241
N	 1.0858412106	-0.7669156942	-0.3044482198	-0.384275
C	 1.3590464444	-0.7628105024	 2.1911029339	 0.195599
N	 1.980799372	-0.634230158	 3.1589570472	-0.348388
H	 1.0640156206	 1.8561151655	 0.2899726308	 0.149953
H	-0.14063628	 1.9079211414	-1.0078224705	 0.13328
H	-0.6653278755	 2.015137423	 0.6809716842	 0.128263
H	-2.232089907	-0.2541734949	 0.3780237944	 0.120595
H	-1.6014814049	-1.1696203641	-1.0167712245	 0.117772
H	-1.2898809126	-1.8198576395	 1.9284391732	 0.095868
H	-0.2050195707	-3.6592842743	 1.0494420335	 0.295894
H	 0.8498900927	-1.572328895	-0.8848595564	 0.245253
107.1547	128.1479	166.4323	201.2356	242.1627	330.7147	361.5236	393.2806	424.2347	511.2603	559.8207	575.1487	594.9809	749.9787	760.8889	806.9311	881.7113	941.1221	965.4234	1040.4454	1075.6124	1096.8755	1122.5971	1148.3153	1181.6117	1209.494	1221.9186	1247.651	1281.4451	1335.8042	1407.8214	1412.9278	1459.1484	1481.9442	1485.1854	1495.293	2346.1379	3036.8074	3041.7774	3065.425	3100.2884	3124.1265	3131.9693	3452.5691	3803.2082
CC12CC(O)C1(N2)C#N	C[C@]12C[C@@H](O)[C@]1(N2)C#N	
InChI=1S/C6H8N2O/c1-5-2-4(9)6(5,3-7)8-5/h4,8-9H,2H2,1H3	InChI=1S/C6H8N2O/c1-5-2-4(9)6(5,3-7)8-5/h4,8-9H,2H2,1H3/t4-,5+,6-/m1/s1
