18
gdb 58729	3.6872	1.41746	1.24577	1.9548	73.55	-0.2197	0.0604	0.2801	1042.2423	0.1468	-401.822379	-401.814534	-401.81359	-401.854828	30.765	
C	 0.0055865082	 1.538859178	-0.0743826394	-0.415289
C	-0.0026491847	 0.0119037287	 0.032446427	-0.020864
O	 0.5751317379	-0.4368962808	 1.2556258727	-0.431689
C	-1.3819353678	-0.5563958086	-0.101331795	 0.373339
C	-1.9177957619	-2.0138052186	-0.1229383671	-0.182028
C	-3.2455019412	-1.4886849057	-0.6900322598	-0.113142
C	-3.0185251933	-1.5607611403	 0.7967589288	-0.006483
N	-2.482409449	-0.1310980148	 0.8545261178	-0.232856
C	-2.6729998358	-0.0509085263	-0.6415078071	-0.125184
H	 1.0115050477	 1.9110512513	 0.1337311327	 0.124918
H	-0.2900262402	 1.8687592933	-1.0754613173	 0.113745
H	-0.6866155291	 1.9768351245	 0.6523793421	 0.133416
H	 0.6347880006	-0.4132827683	-0.7529683171	 0.091645
H	-0.0550367028	-0.2029377789	 1.9487928091	 0.286988
H	-1.4472591136	-2.9772751548	-0.2539467005	 0.103042
H	-3.9643369549	-1.9838370556	-1.326172448	 0.100122
H	-3.5555036334	-2.0506494079	 1.5989592116	 0.102411
H	-2.9344113769	 0.8756986249	-1.1391896605	 0.097907
64.8092	147.9936	182.3256	252.6084	326.2551	384.4588	439.1351	483.6197	623.4002	688.7699	741.8331	765.3568	793.0929	815.786	861.1322	866.8416	891.514	917.8537	949.085	987.6223	997.7439	1002.4362	1027.1234	1042.2954	1052.179	1077.5259	1110.1375	1140.0102	1190.0292	1236.5257	1247.0119	1293.3544	1340.2779	1353.2378	1397.5507	1409.0016	1434.3201	1491.4437	1502.1653	3035.3815	3037.8587	3109.5088	3126.8955	3178.9522	3191.4694	3220.1907	3231.7863	3777.8385
CC(O)C12C3C4C3N1C24	C[C@@H](O)[C@@]12[C@@H]3[C@H]4[C@@H]3N1[C@@H]24	
InChI=1S/C7H9NO/c1-2(9)7-4-3-5(4)8(7)6(3)7/h2-6,9H,1H3	InChI=1S/C7H9NO/c1-2(9)7-4-3-5(4)8(7)6(3)7/h2-6,9H,1H3/t2-,3+,4-,5+,6-,7+,8?/m1/s1
