23
gdb 114230	4.05873	0.80035	0.7601	1.3525	87.25	-0.251	0.0768	0.3278	1607.8116	0.204727	-388.265047	-388.255133	-388.254188	-388.300313	37.213	
C	-0.1799629831	 1.5078133011	 0.1234110181	-0.403869
C	-0.0577578194	 0.0002742391	 0.1033200052	-0.058693
C	 1.2511493375	-0.663433148	-0.2680919227	-0.350646
C	 0.7414560942	-0.7258761598	 1.1459309222	 0.376912
C	 1.4601260928	-0.1530320694	 2.3781863868	-0.335403
C	 1.3711292625	-1.5663325028	 3.0295163987	 0.058798
C	 0.891017119	-1.6366239926	 4.4632186751	-0.094622
O	 0.7437318499	-3.0062464627	 4.8113113448	-0.422403
C	 0.3791748005	-2.0053706228	 1.9117663966	-0.308
H	 0.7442136806	 1.9751448475	 0.4794287311	 0.114485
H	-0.3861809239	 1.9042999475	-0.8771040229	 0.115074
H	-0.9909257602	 1.8358109947	 0.7840827987	 0.112626
H	-0.9536391558	-0.518594271	-0.2330422026	 0.077423
H	 1.2238435808	-1.5687852957	-0.8671068767	 0.10571
H	 2.1021034908	-0.0191121214	-0.4731650749	 0.103293
H	 2.4631366394	 0.2556270685	 2.2286536827	 0.096932
H	 0.8602954162	 0.5921699324	 2.9146001789	 0.093014
H	 2.3194941011	-2.1048954723	 2.9460175416	 0.079534
H	 1.6150506289	-1.1306754715	 5.1241748078	 0.082213
H	-0.0670543085	-1.0970034147	 4.5552633156	 0.077719
H	 0.4043864019	-3.0545074512	 5.7096718838	 0.285495
H	-0.6591038104	-2.0180603787	 2.2623129775	 0.094271
H	 0.5873233152	-2.9575211662	 1.4172251448	 0.100137
36.4475	97.4177	166.8384	174.8702	199.9999	226.1129	262.15	315.1759	371.6821	408.3281	440.9999	445.6612	570.8059	731.3897	778.5553	833.927	865.8236	890.189	910.0266	927.5784	937.8527	993.8008	1010.777	1044.5528	1067.5111	1076.4763	1088.6127	1111.8452	1129.5046	1150.7027	1182.4515	1203.185	1225.1369	1232.737	1238.7543	1254.141	1284.1234	1292.0714	1335.0558	1364.5913	1412.1985	1429.9941	1460.5048	1475.2454	1490.399	1492.0939	1495.0505	1507.925	1519.8769	2949.4053	2976.058	3023.4924	3029.4047	3038.8169	3064.3628	3083.176	3089.2456	3092.4166	3097.8032	3111.5794	3122.428	3195.9867	3829.6405
CC1CC11CC(CO)C1	C[C@H]1C[C@]21C[C@@H](CO)C2	
InChI=1S/C8H14O/c1-6-2-8(6)3-7(4-8)5-9/h6-7,9H,2-5H2,1H3	InChI=1S/C8H14O/c1-6-2-8(6)3-7(4-8)5-9/h6-7,9H,2-5H2,1H3/t6-,7-,8+/m0/s1
