17
gdb 11599	6.04298	0.87699	0.80174	1.8766	65.38	-0.2471	0.032	0.2791	1378.8133	0.140768	-401.013274	-401.004175	-401.003231	-401.048911	30.995	
N	-0.0890879038	 1.2004591961	 0.510502071	-0.523526
C	 0.0096418568	 0.0050073796	-0.1398643175	 0.407974
O	 1.0087692726	-0.3226363019	-0.7510719306	-0.360485
C	-1.2401293157	-0.8704774804	-0.0681364284	-0.303838
C	-0.9036257333	-2.3602219142	-0.1913167105	-0.205305
C	-2.1431954149	-3.2113581886	-0.2901101018	 0.088254
C	-2.2578810443	-4.5196963036	 0.3634587599	-0.179801
O	-2.9063678728	-3.3709356172	 0.9131630474	-0.241854
H	 0.6944398769	 1.8315755727	 0.4750661993	 0.260177
H	-0.8999503486	 1.4604341603	 1.0429263277	 0.258669
H	-1.8010511406	-0.6823331809	 0.8537567697	 0.117178
H	-1.8944341347	-0.5660798645	-0.8969574005	 0.127736
H	-0.2740094216	-2.5068315798	-1.0747890405	 0.130109
H	-0.3147435395	-2.678512722	 0.675601271	 0.108538
H	-2.7610807372	-3.0365116845	-1.1741768764	 0.088778
H	-2.9204960447	-5.2790264928	-0.0498755361	 0.113463
H	-1.4182765146	-4.9037457484	 0.9418405963	 0.113932
29.536	61.5945	94.1096	107.0407	145.0216	245.9784	353.7616	430.4593	477.081	530.8292	604.0544	672.3036	774.588	807.172	849.0407	888.4422	954.9088	992.0218	1057.7529	1082.2764	1106.6847	1118.7857	1158.9291	1169.8686	1214.1571	1252.3629	1295.1024	1309.2574	1340.5871	1405.2496	1451.5587	1463.7503	1479.8495	1530.8043	1617.1642	1796.0451	3020.5049	3051.048	3070.338	3078.5198	3082.575	3103.4975	3166.608	3605.1697	3743.5302
NC(=O)CCC1CO1	NC(=O)CC[C@H]1CO1	
InChI=1S/C5H9NO2/c6-5(7)2-1-4-3-8-4/h4H,1-3H2,(H2,6,7)	InChI=1S/C5H9NO2/c6-5(7)2-1-4-3-8-4/h4H,1-3H2,(H2,6,7)/t4-/m0/s1
