12
gdb 132921	3.23981	1.44155	0.99888	6.4546	61.24	-0.2333	-0.0713	0.162	1053.0275	0.07723	-513.957303	-513.949894	-513.94895	-513.989483	27.3	
N	 0.0008208404	 1.4487498745	 0.164429227	-0.597781
C	-0.0434196353	 0.0581232964	 0.0395134911	 0.062011
C	-1.154718832	-0.7159353112	 0.0150159133	 0.040835
O	-1.1050184593	-2.057443307	-0.0178866407	-0.206083
C	 0.1243984129	-2.7549979554	-0.0307488102	 0.449366
O	 0.0788412121	-3.9472664334	-0.040896755	-0.330192
N	 1.270965946	-1.9830669038	-0.0376930908	-0.380308
C	 1.1681840128	-0.7110380603	-0.0004310737	 0.350008
F	 2.2874470721	 0.001382015	-0.0179346025	-0.055927
H	 0.8288736399	 1.8551003724	-0.2486493705	 0.264477
H	-0.833187796	 1.9210543658	-0.1565972479	 0.2571
H	-2.1698662037	-0.336323743	 0.02628944	 0.146496
78.9639	193.4119	216.1904	293.893	357.1054	390.1824	400.6772	482.4057	552.7639	611.8458	667.0082	736.1357	751.2743	779.189	796.3687	838.9601	882.736	1096.4175	1121.6921	1255.3734	1266.5634	1355.6916	1484.0216	1613.9329	1644.8641	1737.272	1880.505	3207.1051	3555.0175	3652.415
NC1=COC(=O)N=C1F	Nc1coc(=O)nc1F	
InChI=1S/C4H3FN2O2/c5-3-2(6)1-9-4(8)7-3/h1H,6H2	InChI=1S/C4H3FN2O2/c5-3-2(6)1-9-4(8)7-3/h1H,6H2
