17
gdb 65400	3.77712	1.08846	0.97191	2.8279	70.54	-0.2592	-0.0452	0.214	1220.8588	0.132703	-458.924968	-458.916071	-458.915127	-458.958781	31.992	
C	 0.1273933004	 1.738859771	 0.4179586909	-0.486831
C	-0.0449178455	 0.2739307963	 0.093246727	 0.342189
O	 0.840620862	-0.2696699174	-0.8701157402	-0.259547
C	 0.9745727046	-0.7583805763	 0.4644135464	-0.094197
C	 2.2145709796	-0.4081168355	 1.220394087	 0.137289
O	 2.9841083931	 0.4721773963	 0.927504853	-0.251063
C	-1.4760786909	-0.1894544084	-0.027415	 0.016672
C	-2.0208110913	-0.6284615495	-1.3211011495	-0.172911
O	-1.6922052991	-1.5680299313	-0.293379052	-0.229655
H	 1.1853761352	 1.9966907261	 0.4639633587	 0.171321
H	-0.3483100648	 2.3461082165	-0.3596383996	 0.133652
H	-0.3477662271	 1.9842214641	 1.3734497382	 0.125212
H	 0.6044357883	-1.7716987967	 0.6144016785	 0.125298
H	 2.3726386344	-1.0419871901	 2.1219269981	 0.08424
H	-2.154544649	 0.2462354804	 0.7071463215	 0.099173
H	-3.0835315897	-0.5132039729	-1.5261462912	 0.120325
H	-1.3597370102	-0.6458904325	-2.183716517	 0.138834
88.3024	110.6104	148.3458	193.5384	212.2212	236.9267	296.7045	320.9314	376.7732	507.3936	581.7903	693.7431	753.0578	831.9397	851.8372	894.7679	900.1891	959.5295	974.0088	1019.8125	1061.1164	1091.4235	1121.047	1126.9104	1164.8959	1168.5514	1232.7314	1280.9705	1313.7424	1408.2906	1423.0653	1424.6243	1433.2214	1491.6067	1499.9783	1516.4447	1821.6178	2880.7472	3041.5618	3096.8157	3101.6087	3107.709	3132.9581	3158.3599	3197.4506
CC1(OC1C=O)C1CO1	C[C@]1(O[C@H]1C=O)[C@H]1CO1	
InChI=1S/C6H8O3/c1-6(5-3-8-5)4(2-7)9-6/h2,4-5H,3H2,1H3	InChI=1S/C6H8O3/c1-6(5-3-8-5)4(2-7)9-6/h2,4-5H,3H2,1H3/t4-,5+,6+/m0/s1
