23
gdb 69819	2.94989	1.46567	1.20336	0.2742	88.43	-0.2341	0.0801	0.3142	1145.9271	0.208511	-351.150487	-351.142471	-351.141526	-351.182239	33.746	
C	 0.100063517	 1.5262560386	 0.002201217	-0.465646
C	-0.020583122	 0.0165992086	 0.0219427183	 0.357617
C	-0.9356433557	-0.6130534243	 1.0460849513	-0.348733
C	 0.565904085	-0.7464062234	 1.1967823909	-0.061758
C	 1.3220880282	-2.0259394634	 0.9515340835	-0.016562
C	 0.6857231127	-3.3940017174	 0.9488783202	-0.307613
C	 1.1088354167	-2.7604098164	-0.3555275815	-0.011804
C	 0.0817555941	-2.1799080964	-1.322292072	-0.255768
C	 0.1070679482	-0.6397367949	-1.347684889	-0.248171
H	 1.0579207337	 1.8419772351	-0.4291626973	 0.111037
H	-0.6976610533	 1.982484463	-0.5971249616	 0.110866
H	 0.0360292468	 1.9445146087	 1.012058933	 0.108528
H	-1.4468327193	 0.0445723437	 1.7418294845	 0.101662
H	-1.519320072	-1.4850816094	 0.7732545231	 0.105586
H	 0.9959868696	-0.1356777273	 1.9858551186	 0.07485
H	 2.3459640899	-1.9892094025	 1.311738273	 0.077309
H	 1.2648821012	-4.227417047	 1.3321015477	 0.104391
H	-0.3778609364	-3.4634051495	 1.1546406257	 0.107745
H	 1.9979372183	-3.172476898	-0.8227759508	 0.078066
H	 0.2739167916	-2.5543077398	-2.3327971009	 0.096669
H	-0.9262908515	-2.5264480588	-1.0679879619	 0.10063
H	-0.6910508749	-0.2724345299	-2.0063465783	 0.090142
H	 1.0533795724	-0.306694669	-1.7978668234	 0.090957
164.8531	209.2834	232.4891	260.3309	333.4731	363.8981	389.4621	440.0209	474.7273	522.7286	644.4211	671.7479	738.1137	774.3643	826.9649	863.9397	893.8323	913.1793	923.4302	932.1427	967.8634	982.5877	1036.2451	1043.0787	1053.6053	1059.4263	1069.8453	1113.2039	1116.6063	1129.3818	1143.9048	1156.6684	1221.7862	1243.5817	1251.3218	1268.4538	1322.7354	1359.8408	1369.3745	1391.4991	1412.3164	1415.3135	1424.3432	1482.4486	1485.7661	1491.3494	1492.0636	1504.5205	1515.3955	3000.859	3015.5487	3030.2169	3045.3946	3072.7543	3073.6334	3092.4995	3124.2142	3128.7515	3131.2031	3143.2522	3151.7641	3206.9042	3210.7141
CC12CC1C1CC1CC2	C[C@]12C[C@H]1[C@H]1C[C@H]1CC2	
InChI=1S/C9H14/c1-9-3-2-6-4-7(6)8(9)5-9/h6-8H,2-5H2,1H3	InChI=1S/C9H14/c1-9-3-2-6-4-7(6)8(9)5-9/h6-8H,2-5H2,1H3/t6-,7+,8+,9+/m1/s1
