18
gdb 113183	2.62743	1.15776	1.04275	4.3667	68.	-0.2474	0.0195	0.2669	1215.8312	0.147938	-476.240037	-476.231011	-476.230067	-476.273867	33.937	
N	 0.3751442118	 1.1780394792	 0.2549993301	-0.617076
H	 0.1781750606	 0.3962284734	-0.3569538221	 0.244071
H	 1.3017191861	 1.0724576986	 0.6574860316	 0.26281
H	-0.1809132221	 2.950606483	-0.1967187543	 0.303936
C	-0.6220066742	 1.3544100719	 1.2897595566	 0.132482
C	-1.5085446725	 0.2195044839	 1.7641224258	-0.321143
C	-0.4349281555	 0.7406661723	 2.6725530854	-0.058801
C	 0.8144947155	-0.0695989247	 2.9345746642	-0.106703
O	 2.0144530436	 0.687711553	 2.7720477307	-0.412271
C	-1.2747043015	 2.7210461766	 1.2751550413	 0.425524
O	-0.841349838	 3.50175038	 0.2794798959	-0.380065
O	-2.0986665008	 3.0734248913	 2.0821279037	-0.365899
H	-2.5368922435	 0.4727304518	 1.9911984612	 0.148592
H	-1.3518633199	-0.7490533593	 1.2989900585	 0.113587
H	-0.7749483685	 1.3771178458	 3.4845597859	 0.119878
H	 0.7655399525	-0.5186757412	 3.9367578437	 0.111388
H	 0.8992706104	-0.8916638743	 2.2176197976	 0.108233
H	 1.976230086	 1.4401844387	 3.3719936941	 0.291458
80.619	111.206	140.5475	194.6188	273.321	319.2889	359.2724	379.0934	405.2924	435.9639	466.2975	542.627	633.1248	738.671	759.0671	831.7743	853.3437	876.2273	889.1193	936.6601	961.7498	1037.6352	1051.7099	1070.4247	1083.5436	1132.4034	1185.3157	1233.3656	1254.5671	1274.082	1326.9294	1364.7351	1393.5065	1422.2911	1441.2244	1469.8206	1502.951	1649.8773	1850.8829	3007.4537	3081.757	3132.997	3158.358	3234.1298	3469.4399	3506.526	3599.9065	3813.4063
[NH3+]C1(CC1CO)C([O-])=O	N[C@]1(C[C@H]1CO)C(=O)O	
InChI=1S/C5H9NO3/c6-5(4(8)9)1-3(5)2-7/h3,7H,1-2,6H2,(H,8,9)	InChI=1S/C5H9NO3/c6-5(4(8)9)1-3(5)2-7/h3,7H,1-2,6H2,(H,8,9)/t3-,5-/m0/s1
