18
gdb 33530	2.1794	1.68276	1.16677	2.7658	77.37	-0.2433	0.0172	0.2605	1101.7571	0.146904	-401.860162	-401.851501	-401.850556	-401.893799	32.361	
C	-0.1428320291	-1.2352123342	-0.2127688877	-0.442725
C	-0.0877836854	-0.0404076525	-0.0943835348	 0.328997
C	-0.0438084367	 1.410971917	 0.0608065564	 0.168044
C	-0.2057741255	 1.9193846611	 1.527256162	-0.323877
C	 1.2584589598	 2.3704379671	 1.3887260465	-0.069896
O	 1.3216799619	 1.9168685351	 0.0151231335	-0.313748
C	-0.9126331185	 2.0918186218	-0.9847662713	-0.029047
C	-0.6386202347	 3.4915415423	-1.3830634853	-0.251771
N	-0.3491305133	 2.377253845	-2.3073770496	-0.321148
H	-0.1847346255	-2.2905637205	-0.3262066741	 0.201427
H	-0.9363996733	 2.7220062793	 1.6313916074	 0.121703
H	-0.3964817016	 1.1419924821	 2.2657505861	 0.125496
H	 1.4435484062	 3.4470450741	 1.4677158601	 0.10976
H	 1.9770491474	 1.8343128025	 2.0181393973	 0.115857
H	-1.935815732	 1.7217613336	-1.0016044664	 0.100118
H	-1.4596609642	 4.1364399206	-1.6827378776	 0.114859
H	 0.2040864277	 3.9953904691	-0.9201083709	 0.118993
H	 0.6525147068	 2.1915035165	-2.2735263715	 0.246957
78.2976	90.4547	142.1118	181.2767	219.3011	278.6773	407.4419	472.4805	521.8102	539.0391	625.5802	642.0531	669.7805	785.2407	833.7054	862.1859	875.1547	932.3403	961.1633	971.8369	996.956	1014.5594	1033.1887	1107.38	1144.8073	1159.0314	1166.3012	1188.8839	1213.0542	1228.6551	1257.8312	1276.9658	1308.196	1347.7434	1408.2357	1486.0273	1498.0192	1529.8258	2232.6671	3032.8351	3076.6719	3094.1667	3116.4096	3130.115	3157.2898	3206.0049	3482.0885	3499.7378
C#CC1(CCO1)C1CN1	C#C[C@]1(CCO1)[C@H]1CN1	
InChI=1S/C7H9NO/c1-2-7(3-4-9-7)6-5-8-6/h1,6,8H,3-5H2	InChI=1S/C7H9NO/c1-2-7(3-4-9-7)6-5-8-6/h1,6,8H,3-5H2/t6-,7+/m1/s1
