19
gdb 121218	2.54697	1.08825	0.82432	2.1611	73.59	-0.2472	-0.0343	0.2128	1414.2426	0.156496	-460.129399	-460.119594	-460.11865	-460.165863	33.203	
C	-0.0303616835	 1.3351881487	-0.0198470625	-0.225584
O	-0.070709155	-0.0651243524	 0.1110851802	-0.234427
C	 0.7084690039	-0.5352885458	 1.1898384691	-0.075753
C	 0.6382508003	-2.0486380214	 1.1549090405	 0.126051
O	 1.4576982795	-2.6368349013	 0.1133178038	-0.277453
C	 2.0478451427	-3.5788999543	 1.0181181304	-0.080233
C	 1.3386252667	-2.9145506323	 2.2319907245	-0.181939
C	 2.2802932695	-2.3071783235	 3.2374071057	 0.143303
O	 2.3897094051	-1.1378831156	 3.5044136667	-0.236181
H	 0.9922638029	 1.6994765602	-0.2053100707	 0.106811
H	-0.6602987508	 1.6021009301	-0.8719309689	 0.126
H	-0.4148841852	 1.8418531981	 0.880075831	 0.102347
H	 1.7507191177	-0.1977445561	 1.1048790699	 0.101872
H	 0.3196562442	-0.1662162439	 2.1520973668	 0.098132
H	-0.4133259007	-2.3324664624	 1.014486148	 0.089761
H	 1.7369296844	-4.6112143056	 0.8146826732	 0.109332
H	 3.144327721	-3.5300444032	 1.0136653457	 0.111228
H	 0.6754425475	-3.5953806696	 2.7763758355	 0.11039
H	 2.9168562997	-3.0688426898	 3.747243661	 0.086343
37.3754	74.3763	90.2655	109.6952	122.7452	214.6444	235.4922	316.2112	349.6828	372.8	484.345	702.8467	723.0409	853.3215	894.251	902.0483	944.809	998.0528	1012.3933	1059.1693	1075.1794	1126.8695	1151.6309	1164.2777	1169.3429	1186.7442	1212.0486	1224.3416	1252.3058	1284.38	1337.0294	1351.9804	1373.1752	1426.1714	1436.4609	1475.1094	1484.9842	1491.3309	1513.9185	1528.5198	1828.2824	2853.854	2966.9362	2986.0124	3008.1171	3013.1198	3015.6042	3035.4233	3047.8895	3061.8956	3113.4863
COCC1OCC1C=O	COC[C@H]1OC[C@H]1C=O	
InChI=1S/C6H10O3/c1-8-4-6-5(2-7)3-9-6/h2,5-6H,3-4H2,1H3	InChI=1S/C6H10O3/c1-8-4-6-5(2-7)3-9-6/h2,5-6H,3-4H2,1H3/t5-,6-/m1/s1
