14
gdb 24988	4.89306	1.24327	1.00391	3.4202	64.13	-0.2149	0.0269	0.2418	1087.9756	0.102642	-473.855179	-473.847857	-473.846913	-473.887874	26.289	
O	 0.0377181223	 0.0049168139	 0.0534828982	-0.382203
C	-0.0293486787	 1.1989763109	 0.0306613112	 0.458164
N	-1.1450159065	 2.0253857712	 0.0314103877	-0.499334
C	-0.722394076	 3.3498857766	-0.0014873883	 0.247297
C	 0.6028851253	 3.3271763919	-0.021404431	 0.266192
C	 1.1853154528	 4.6950879833	-0.057448048	-0.167939
O	 0.0006489279	 5.517773814	-0.0555916618	-0.279927
C	-1.2211587009	 4.7531921862	-0.0216073377	-0.162605
O	 1.0878625411	 2.0489045917	-0.0033672845	-0.252149
H	-2.077171787	 1.6516754235	 0.0531770848	 0.28021
H	 1.8033531459	 4.9414674958	 0.8172474297	 0.125178
H	 1.7761077826	 4.906263976	-0.9597417664	 0.12518
H	-1.8274556443	 4.9978713821	-0.9056994679	 0.120969
H	-1.8000983545	 5.0330443028	 0.870355994	 0.120968
47.1498	117.8884	199.6413	250.7599	323.1007	403.2759	532.0013	573.242	626.0707	729.6517	756.5906	778.518	871.41	882.8521	903.5096	1022.4632	1042.9428	1057.799	1073.8518	1143.7078	1207.6316	1224.7095	1268.7602	1314.5747	1359.8204	1417.8774	1478.2858	1524.7248	1533.5857	1760.3136	1907.4984	2990.2731	2998.8162	3012.6046	3022.2936	3696.4504
O=C1NC2=C(COC2)O1	O=c1[nH]c2c(COC2)o1	
InChI=1S/C5H5NO3/c7-5-6-3-1-8-2-4(3)9-5/h1-2H2,(H,6,7)	InChI=1S/C5H5NO3/c7-5-6-3-1-8-2-4(3)9-5/h1-2H2,(H,6,7)
