17
gdb 72986	2.71934	1.51648	1.22235	2.0593	75.61	-0.2347	0.0221	0.2568	1055.8641	0.133299	-421.752689	-421.7439	-421.742956	-421.785404	34.254	
O	 0.0803727721	 1.4056945076	-0.0146316981	-0.458125
C	-0.0220821767	 0.0365313904	-0.0190884048	 0.386743
C	 0.7004426562	-0.790992328	-1.073088542	-0.288705
C	-0.4879419143	-1.8056112459	-1.0684949455	-0.237477
C	-1.2190807236	-0.9499897162	-0.030113531	-0.212781
C	-0.3223475195	-0.790000687	 1.2012716425	 0.139264
O	 0.5800616598	-1.7863533374	 1.6038051423	-0.459518
C	-0.9116367629	-0.0295030559	 2.2783716983	 0.221545
C	-1.3801002303	 0.6358125053	 3.1661302351	-0.405558
H	-0.2218656016	 1.7314682734	 0.8437978158	 0.28997
H	 0.7693256402	-0.2428942785	-2.0147454217	 0.116413
H	 1.686433083	-1.1683806793	-0.7945651449	 0.116196
H	-1.0147350452	-1.8404046597	-2.0237333462	 0.107331
H	-0.2412017908	-2.8236071314	-0.7574993351	 0.100964
H	-2.2888622793	-0.7939288611	 0.0456223031	 0.097147
H	 0.0819677297	-2.4659054176	 2.0728601174	 0.286634
H	-1.8042994967	 1.1974105812	 3.961978995	 0.199957
120.5226	142.7601	225.576	246.2408	262.5161	299.1001	333.3747	382.6396	442.6004	461.1041	532.3854	568.7466	590.3128	664.3464	686.7408	697.2562	762.7809	802.7909	889.9585	942.0963	952.2171	984.035	1025.3591	1073.7486	1114.0649	1167.4925	1188.6244	1218.1961	1236.0524	1266.4207	1276.1842	1310.4871	1406.0945	1430.2904	1470.8556	1500.813	2221.2925	3066.5079	3075.6688	3115.3496	3134.8523	3182.2633	3497.2891	3753.7509	3789.786
OC12CCC1C2(O)C#C	O[C@]12CC[C@H]1[C@]2(O)C#C	
InChI=1S/C7H8O2/c1-2-6(8)5-3-4-7(5,6)9/h1,5,8-9H,3-4H2	InChI=1S/C7H8O2/c1-2-6(8)5-3-4-7(5,6)9/h1,5,8-9H,3-4H2/t5-,6+,7+/m0/s1
