21
gdb 61605	3.44813	0.812	0.72569	1.5977	85.49	-0.2591	0.0565	0.3156	1618.0319	0.179269	-387.044907	-387.034489	-387.033545	-387.080867	37.942	
C	 0.3097803224	 1.5993052264	-0.1726023713	-0.384406
C	 0.044900091	 0.0930534232	 0.0315401975	-0.166267
C	 0.5665085583	-0.7660009438	-1.1499785915	-0.219788
C	-0.1774299832	-0.5042572278	-2.4377744743	 0.05556
O	 0.2059477768	 0.6303655028	-3.2282559227	-0.259368
C	 0.3855170088	-0.6758016459	-3.7886157153	 0.070988
C	 1.7937363529	-1.1201155145	-4.0913490663	-0.419875
C	 0.6238796948	-0.373904582	 1.2904829332	 0.315359
C	 1.121638306	-0.7569855778	 2.3158246222	-0.458617
H	 1.38512031	 1.7929734238	-0.2293466077	 0.12456
H	-0.1476845159	 1.948804549	-1.1003354376	 0.142587
H	-0.0947653732	 2.1753894855	 0.6635566443	 0.120691
H	-1.0434904867	-0.0551150599	 0.0900779469	 0.10429
H	 1.636207632	-0.5806167288	-1.278789481	 0.11415
H	 0.4492279431	-1.8250484186	-0.8907772564	 0.112808
H	-1.2618749365	-0.617211021	-2.3485564481	 0.084479
H	-0.3316760031	-0.9044978766	-4.5805709678	 0.086611
H	 2.4829370314	-0.8789010981	-3.2802120484	 0.130083
H	 1.8216875575	-2.2014304858	-4.2649807144	 0.12331
H	 2.1554108545	-0.6273874899	-4.999905376	 0.130767
H	 1.5494585692	-1.0934146601	 3.2274357648	 0.192077
43.3285	80.7809	106.6039	162.9933	189.7378	218.9808	239.7539	283.4564	315.5269	390.4622	451.4538	489.8543	535.2675	566.3781	624.8004	635.716	761.1876	814.9608	838.0173	891.7559	931.609	949.7378	997.4979	1045.8286	1063.1459	1109.5007	1119.9278	1143.841	1175.7606	1185.8819	1246.1869	1291.316	1310.2118	1337.7214	1363.4182	1402.1896	1414.8417	1419.6639	1465.9968	1469.8943	1490.6201	1493.1707	1501.0808	1512.155	2233.9241	2996.2844	3038.9062	3041.864	3049.1298	3060.7158	3080.6924	3099.6153	3102.6745	3119.5032	3138.9582	3139.8933	3505.5202
CC(CC1OC1C)C#C	C[C@@H](C[C@H]1O[C@H]1C)C#C	
InChI=1S/C8H12O/c1-4-6(2)5-8-7(3)9-8/h1,6-8H,5H2,2-3H3	InChI=1S/C8H12O/c1-4-6(2)5-8-7(3)9-8/h1,6-8H,5H2,2-3H3/t6-,7+,8-/m1/s1
