18
gdb 30094	3.72229	1.14055	1.04758	2.2909	79.35	-0.2228	0.0053	0.2281	1199.3301	0.14909	-401.972974	-401.965005	-401.964061	-402.006012	30.011	
C	-0.0959379003	 1.5636776456	-0.1549690891	-0.418184
C	 0.0208649285	 0.0625946057	-0.0187288358	 0.007372
C	 1.3375392202	-0.6441429931	-0.1773139473	-0.304267
C	 0.677788047	-0.605348282	 1.1878205821	-0.135008
C	 1.2666789931	 0.1295126922	 2.3099365274	 0.361328
C	 1.1433555889	 0.0367362645	 3.6600376013	-0.211824
N	 1.9582688571	 0.9816184688	 4.2746730272	-0.254226
C	 2.5260735822	 1.5912458443	 3.2904330067	 0.063278
O	 2.1677707017	 1.138036128	 2.0623907152	-0.183727
H	 0.7933800761	 2.073040959	 0.2225079396	 0.134688
H	-0.2231510279	 1.8431580133	-1.2065379931	 0.118305
H	-0.961319321	 1.9448923835	 0.398011564	 0.120537
H	-0.8441623073	-0.4829849409	-0.3879483334	 0.090859
H	 1.3750338708	-1.5950150657	-0.6972135331	 0.115964
H	 2.2207541607	-0.026861438	-0.302148542	 0.12819
H	 0.2017180921	-1.5224381461	 1.5193022762	 0.098872
H	 0.5312071789	-0.6421611907	 4.2320427167	 0.120823
H	 3.2373427293	 2.4014784515	 3.3170003077	 0.147021
58.5351	125.007	171.8945	212.2465	271.3103	348.9851	433.3009	477.9331	650.7575	665.3274	722.5619	761.2492	818.951	841.9486	853.9507	882.1596	931.5656	942.5113	969.8277	1014.8173	1069.8616	1077.3173	1108.6595	1125.3247	1127.0686	1146.3418	1201.4787	1213.5114	1246.7586	1274.0468	1355.8829	1376.7526	1403.2392	1426.1277	1487.1485	1499.7276	1503.592	1556.6072	1634.971	3035.5722	3091.5809	3122.779	3134.7434	3140.5794	3162.9467	3223.0843	3264.1949	3278.3265
CC1CC1C1=CN=CO1	C[C@H]1C[C@H]1c1cnco1	
InChI=1S/C7H9NO/c1-5-2-6(5)7-3-8-4-9-7/h3-6H,2H2,1H3	InChI=1S/C7H9NO/c1-5-2-6(5)7-3-8-4-9-7/h3-6H,2H2,1H3/t5-,6+/m0/s1
