17
gdb 127017	6.64638	0.83461	0.75196	1.9629	72.38	-0.2546	0.0058	0.2603	1520.9468	0.135029	-455.160048	-455.151096	-455.150151	-455.194514	31.328	
C	-0.0704810301	 1.4643850576	-0.0158402537	-0.391674
C	 0.0014086091	-0.0482501756	 0.0187906885	-0.060515
O	-1.3583919296	-0.54312067	-0.0262261453	-0.259174
C	-1.5372677044	-1.8449601285	-0.0069096085	 0.522014
N	-2.6850967377	-2.4544085022	-0.041609558	-0.407021
C	-2.2929510653	-3.7728120702	 0.0016602407	 0.373589
C	-3.2597875948	-4.9058128252	-0.0146249964	-0.485064
N	-1.0006753041	-3.9748528267	 0.0587268922	-0.192017
O	-0.4739403307	-2.6535484783	 0.0534350225	-0.222483
H	 0.9411515646	 1.8790270686	 0.0167855008	 0.130204
H	-0.5580430848	 1.8092464906	-0.93130306	 0.14012
H	-0.6304282442	 1.8463800989	 0.8416327382	 0.140122
H	 0.5520362849	-0.4510844309	-0.8373648846	 0.133006
H	 0.4799094438	-0.4139573714	 0.9329965538	 0.132998
H	-3.8693202112	-4.8678690555	-0.9222999826	 0.148978
H	-2.7280516186	-5.857542726	 0.0248648665	 0.14794
H	-3.938960727	-4.8338384753	 0.8400291959	 0.148978
54.9658	83.4755	143.7052	145.8037	210.4048	254.7341	312.6297	345.3461	371.9946	515.9957	667.6426	673.3321	768.0496	770.9363	815.0883	894.8864	924.0389	995.2359	1035.1611	1043.9376	1070.3825	1109.8295	1133.7854	1180.0469	1298.3887	1348.5809	1381.1003	1399.2911	1420.1127	1439.5149	1472.4565	1474.554	1483.9897	1497.4766	1517.5097	1587.5121	1659.1764	3047.5922	3051.9128	3052.2457	3091.278	3113.4837	3127.6794	3134.9134	3150.8285
CCOC1=NC(C)=NO1	CCOc1nc(C)no1	
InChI=1S/C5H8N2O2/c1-3-8-5-6-4(2)7-9-5/h3H2,1-2H3	InChI=1S/C5H8N2O2/c1-3-8-5-6-4(2)7-9-5/h3H2,1-2H3
