19
gdb 53053	3.14665	0.9277	0.72949	2.1737	93.43	-0.2132	-0.0106	0.2026	1569.3344	0.157394	-385.886088	-385.876011	-385.875067	-385.922987	34.435	
C	-0.118566845	 1.4778995842	-0.036746413	-0.508431
C	-0.029938761	 0.0266548512	-0.0041450331	 0.188079
C	 0.0533372134	-1.1782482683	 0.0220000275	-0.131132
C	 0.0897837702	-2.5896156938	 0.0583876716	 0.109594
C	 1.1589993076	-3.3976556274	-0.0196877644	 0.165075
C	 2.5949204806	-3.0246429026	-0.1656899812	-0.516895
C	 0.6967352047	-4.8265733982	 0.0642468335	-0.139356
O	-0.7175929976	-4.7791776908	 0.1963281085	-0.266728
C	-1.1627950516	-3.4288446056	 0.2002448396	-0.176588
H	 0.4491059699	 1.9309335458	 0.7840947327	 0.151028
H	 0.2789600924	 1.8810400124	-0.9752186236	 0.151029
H	-1.1575365074	 1.8132563736	 0.0542219727	 0.151795
H	 3.1907896281	-3.407684474	 0.6727110787	 0.130505
H	 3.0256468333	-3.4571746055	-1.077878389	 0.130503
H	 2.7160622565	-1.9399467326	-0.2077826577	 0.139482
H	 0.9736216789	-5.4027349141	-0.8349430937	 0.102525
H	 1.1398015974	-5.3530187652	 0.9266384356	 0.102525
H	-1.6997254521	-3.2095055202	 1.1356526355	 0.108495
H	-1.866234108	-3.2592859091	-0.6291005404	 0.108497
20.4999	82.7653	86.5311	104.9729	158.3521	205.2818	254.0287	282.0206	325.815	422.8629	460.0621	522.9829	594.0884	630.3756	804.3608	924.0279	949.6743	968.6979	975.6966	1047.749	1051.6788	1052.4743	1092.456	1101.806	1114.093	1171.6753	1222.6885	1246.8062	1295.9369	1373.6913	1394.0363	1411.9189	1416.0431	1475.3047	1476.3948	1481.1875	1483.0072	1516.2781	1530.1227	1713.3003	2346.6016	2954.6849	2967.0806	2981.5465	3001.7542	3017.0528	3023.5486	3061.3094	3081.7077	3087.4823	3123.4491
CC#CC1=C(C)COC1	CC#CC1=C(C)COC1	
InChI=1S/C8H10O/c1-3-4-8-6-9-5-7(8)2/h5-6H2,1-2H3	InChI=1S/C8H10O/c1-3-4-8-6-9-5-7(8)2/h5-6H2,1-2H3
