16
gdb 133091	3.53627	1.05171	0.82631	0.8011	74.74	-0.2421	-0.0127	0.2294	1300.3332	0.124987	-445.914131	-445.90636	-445.905416	-445.946952	29.499	
O	 0.3511833321	 1.0350751	 0.7654736251	-0.405662
C	 0.0120595371	 0.0947716471	-0.2380926775	-0.148396
C	-1.4102668762	-0.4222805119	-0.1372679479	 0.270269
C	-2.0586381884	-0.4833446876	 1.0987970158	-0.202964
C	-3.3554333599	-0.9828456356	 1.1881151238	-0.082714
C	-4.0245978406	-1.4309615148	 0.0521319506	-0.259996
C	-3.3662317321	-1.362754266	-1.1675795527	 0.327942
F	-3.9964894663	-1.7815171827	-2.2718373895	-0.083264
C	-2.0774257322	-0.8632124851	-1.2814930219	-0.359912
H	-0.253879898	 1.7801134346	 0.6834092341	 0.284657
H	 0.1860086362	 0.4980829605	-1.2477719941	 0.097511
H	 0.7186120301	-0.733596211	-0.104783897	 0.131528
H	-1.5376722665	-0.1342799719	 1.9824585152	 0.110616
H	-3.8525477386	-1.0260244228	 2.1515373537	 0.105592
H	-5.0340464874	-1.821950736	 0.0950285628	 0.11114
H	-1.6110048794	-0.8207153167	-2.2602265203	 0.103653
55.3256	170.6448	231.0985	245.4802	330.0886	369.8367	451.5694	459.4272	522.1971	556.7832	633.4805	705.8804	754.0964	810.598	882.3244	914.0237	937.8112	972.1311	990.1205	1014.0308	1081.2227	1099.8221	1158.3634	1182.5681	1209.158	1291.2036	1297.8649	1341.5156	1381.0212	1413.0631	1475.3139	1496.8043	1521.0297	1632.8206	1650.2277	2984.2365	3049.7373	3181.2465	3186.6679	3204.4906	3210.3999	3807.294
OCC1=CC=CC(F)=C1	OCc1cccc(F)c1	
InChI=1S/C7H7FO/c8-7-3-1-2-6(4-7)5-9/h1-4,9H,5H2	InChI=1S/C7H7FO/c8-7-3-1-2-6(4-7)5-9/h1-4,9H,5H2
