16
gdb 24099	7.08618	0.74707	0.67978	5.2041	77.06	-0.1946	0.0224	0.217	1546.4077	0.126176	-396.960417	-396.952075	-396.951131	-396.994116	30.588	
N	-0.0796910193	-1.1375615928	-0.0548530413	-0.295099
C	-0.0204298276	 0.0152967007	-0.0232078343	 0.255163
C	 0.0527289067	 1.4758163857	 0.044315507	-0.269527
N	 1.4086645582	 1.9419227686	-0.1801427132	-0.404213
C	 1.6056104539	 3.3285690783	-0.0564702645	 0.318159
C	 0.6405653711	 4.3158173011	-0.0098603049	-0.163355
N	 1.2988356803	 5.5280601398	 0.0479307816	-0.254078
C	 2.6486306045	 5.3253547797	 0.0528927768	-0.054706
C	 2.8781472668	 3.9712282949	-0.0152531683	-0.264552
H	-0.5984411239	 1.8898524806	-0.7366199494	 0.160085
H	-0.3732885504	 1.801215982	 1.0109653183	 0.137714
H	 2.0847409021	 1.4070123852	 0.3490494149	 0.244965
H	-0.4349300969	 4.2683429294	-0.0202832764	 0.110595
H	 0.8464396958	 6.4231484005	 0.0899552939	 0.262363
H	 3.3380829332	 6.1527212362	 0.0995397349	 0.122424
H	 3.8415711954	 3.4857721901	-0.042029115	 0.094062
55.142	94.3155	112.1808	228.41	299.8008	397.7986	407.4602	411.9046	507.4937	617.2293	620.0771	637.0694	684.5154	742.9832	762.7994	811.1545	900.974	955.0629	991.078	1016.5231	1087.1796	1090.6362	1130.3958	1173.1616	1229.4072	1278.1082	1316.245	1363.9548	1417.264	1478.9425	1491.309	1498.9822	1541.7004	1627.9254	2370.8504	2938.9236	3035.5172	3246.7998	3271.1994	3275.9286	3568.9264	3697.3161
N#CCNC1=CNC=C1	N#CCNc1c[nH]cc1	
InChI=1S/C6H7N3/c7-2-4-9-6-1-3-8-5-6/h1,3,5,8-9H,4H2	InChI=1S/C6H7N3/c7-2-4-9-6-1-3-8-5-6/h1,3,5,8-9H,4H2
