17
gdb 16356	2.55881	2.35189	1.44879	2.8342	70.29	-0.2535	0.0281	0.2816	902.7129	0.14205	-363.856441	-363.848779	-363.847835	-363.888241	28.955	
C	-0.3069090739	 1.4819965395	 0.0352086954	-0.403693
C	 0.1055305206	 0.0284467647	-0.0114380618	 0.074213
O	 1.3746111503	-0.1617470348	-0.741987985	-0.289014
C	 1.9798309375	-0.7336616447	 0.3621046494	 0.395385
N	 3.1366750055	-1.1914771827	 0.5258576695	-0.564896
C	 0.7706031735	-0.5971123851	 1.216941949	 0.194734
C	 0.7182359417	-0.2143756612	 2.6695584999	-0.318241
C	 0.2576560279	-1.5778039004	 2.2322017019	-0.320827
H	 0.4758146828	 2.0935265601	 0.4923837376	 0.131644
H	-0.5006259871	 1.857103795	-0.9740868	 0.133602
H	-1.2257993588	 1.5960890784	 0.6205474238	 0.122037
H	-0.6664647095	-0.5967990131	-0.4724019232	 0.095051
H	 3.6965943974	-1.1108008425	-0.3236329661	 0.226365
H	 1.6679897951	-0.1309460502	 3.1859635828	 0.141591
H	-0.033181535	 0.508014106	 2.9710758591	 0.120488
H	-0.8076179397	-1.7845379369	 2.2364199057	 0.120047
H	 0.8920474817	-2.4304761023	 2.4473725022	 0.141514
107.2395	186.5236	203.3682	216.1235	233.7275	318.2978	475.6191	501.8921	595.1127	686.4342	737.2904	778.4691	840.13	847.0618	862.3699	919.8903	956.3563	989.8553	1010.9689	1058.2324	1066.3842	1076.1412	1087.6781	1143.8109	1196.1852	1200.5134	1266.5159	1302.6956	1380.5902	1409.2172	1410.4502	1457.4928	1485.3751	1489.4554	1503.4171	1825.0502	3038.826	3053.7413	3108.9514	3124.9604	3132.3266	3134.6697	3216.621	3230.5797	3486.2167
CC1OC(=N)C11CC1	C[C@H]1O[C]([NH])C21CC2	
InChI=1S/C6H9NO/c1-4-6(2-3-6)5(7)8-4/h4,7H,2-3H2,1H3	InChI=1S/C6H9NO/c1-4-6(2-3-6)5(7)8-4/h4,7H,2-3H2,1H3/t4-/m1/s1
