18
gdb 68808	2.70378	1.31178	1.1459	5.0175	76.94	-0.2622	0.0312	0.2933	1133.2096	0.146572	-401.937864	-401.928981	-401.928037	-401.971147	33.493	
C	 0.0758966051	 1.5723874966	 0.0867788644	-0.500839
C	 0.0030932	 0.0745233413	 0.106131708	 0.284746
C	 1.133848967	-0.8254585229	-0.3559132182	-0.402071
C	 0.6155902274	-0.9545485118	 1.0497064054	 0.374639
O	 1.3922658695	-0.7052696343	 2.1629435707	-0.460118
C	-0.6749330173	-1.77662753	 1.0765677558	-0.3094
C	-1.3007109053	-0.7659155646	 0.0409662061	-0.207148
C	-2.4941060363	-0.0876038233	 0.5208220689	 0.276468
N	-3.4358015122	 0.4627484286	 0.9052407617	-0.334986
H	 1.0601016263	 1.9067495701	 0.427906044	 0.130533
H	-0.084653131	 1.9689645677	-0.9222449981	 0.125583
H	-0.6783495526	 2.0140196379	 0.7454226183	 0.145634
H	 0.9731326408	-1.6058010062	-1.0980819821	 0.105792
H	 2.0894357909	-0.3160315149	-0.4340969054	 0.120381
H	 2.1221445017	-1.3339414242	 2.1799215421	 0.290227
H	-0.6197022073	-2.8217618746	 0.7566198226	 0.104546
H	-1.176766702	-1.7144812173	 2.0430910199	 0.139013
H	-1.5106632447	-1.1913927882	-0.9459254239	 0.116998
94.8931	140.1161	171.9705	187.4389	261.7183	266.383	347.0732	371.9215	424.2577	486.0067	504.5988	559.1507	610.6391	720.4813	756.481	806.2292	852.4515	913.3933	963.0519	976.4433	1024.3745	1033.0198	1060.4971	1097.583	1131.7967	1180.5726	1205.3564	1237.5463	1240.7404	1298.9151	1325.19	1346.7651	1412.2519	1425.6963	1479.4701	1484.6212	1497.6604	1515.1381	2352.8514	3031.8371	3051.4749	3058.0912	3094.6498	3095.6074	3113.0796	3133.8853	3196.5581	3797.6035
CC12CC1(O)CC2C#N	C[C@@]12C[C@]1(O)C[C@H]2C#N	
InChI=1S/C7H9NO/c1-6-4-7(6,9)2-5(6)3-8/h5,9H,2,4H2,1H3	InChI=1S/C7H9NO/c1-6-4-7(6,9)2-5(6)3-8/h5,9H,2,4H2,1H3/t5-,6-,7+/m0/s1
