15
gdb 46576	3.32042	1.7374	1.39103	5.0015	65.09	-0.2577	0.0023	0.2599	907.792	0.113452	-457.706456	-457.700033	-457.699089	-457.737186	25.782	
O	-0.1210210453	-0.0553349877	 0.0765443578	-0.328355
C	 0.0081256557	 1.1290576615	 0.0378736864	 0.445001
O	-1.0903867041	 1.9698320605	-0.0464051202	-0.243202
C	-0.7574180506	 3.3781848938	 0.0227729655	-0.187224
C	 0.6819459241	 3.3275385445	 0.4479366922	 0.373704
C	 2.1013980598	 3.9347766434	 0.5388333167	-0.307012
C	 2.0940441411	 2.4886958739	 1.1501133891	 0.03174
O	 0.8457048561	 2.8289780729	 1.8471273292	-0.332802
C	 1.2514374186	 2.0010068323	-0.0590448062	-0.192573
H	-0.8991594731	 3.8371719258	-0.9612081186	 0.128339
H	-1.417024152	 3.8481538959	 0.7554062648	 0.14394
H	 2.6443004179	 4.1062127275	-0.3933625535	 0.113145
H	 2.2288651441	 4.7333721109	 1.2691480827	 0.126436
H	 2.8736293241	 1.9772759669	 1.7126875934	 0.11821
H	 1.7242838437	 1.9604523081	-1.0436573293	 0.110651
149.3821	213.7668	302.9921	354.1001	469.8606	552.064	601.3655	617.1258	677.9108	736.1193	771.3138	813.6079	887.8212	908.5755	921.3242	978.4388	993.9617	1018.156	1027.0542	1061.8703	1108.4472	1127.1479	1129.9157	1189.0223	1197.6565	1210.0324	1248.0949	1298.3062	1340.9868	1382.5658	1487.8401	1496.2978	1897.8626	3054.0119	3072.2104	3086.2874	3118.8392	3135.4774	3162.0236
O=C1OCC23CC(O2)C13	O=C1OC[C@@]23C[C@@H](O2)[C@@H]13	
InChI=1S/C6H6O3/c7-5-4-3-1-6(4,9-3)2-8-5/h3-4H,1-2H2	InChI=1S/C6H6O3/c7-5-4-3-1-6(4,9-3)2-8-5/h3-4H,1-2H2/t3-,4+,6-/m1/s1
