17
gdb 37681	3.06615	2.41849	2.07583	1.4713	71.43	-0.2217	0.0811	0.3028	756.5362	0.140548	-384.655671	-384.650556	-384.649612	-384.684766	23.647	
O	-0.0000458755	 1.4672154266	-0.0802876662	-0.257804
C	 1.3289834765	 1.8928262066	 0.0619426413	 0.096292
C	 2.4238730758	 1.1461233758	-0.6741727246	-0.118657
C	 2.0452522712	-0.11941682	-1.4227601408	-0.061746
C	 0.6180807853	-0.618679933	-1.2723140299	-0.094364
C	 1.7448061393	-1.2428598422	-0.4616081616	-0.089027
C	 1.3315564009	-0.4040719494	 0.7825610493	-0.11181
C	 2.1638178493	 0.8788640185	 0.8064209739	-0.119048
C	 0.0498238944	 0.0545198694	-0.0316924163	 0.080281
H	 1.4018942231	 2.9626823263	 0.2191946618	 0.098599
H	 3.2945245668	 1.7035663275	-0.9999472285	 0.083179
H	 2.5330349168	-0.3405645095	-2.3642084134	 0.086931
H	 0.051299875	-1.0139674553	-2.1065967325	 0.082264
H	 2.16036809	-2.2409157383	-0.4964940676	 0.087775
H	 1.1745795603	-0.8988836658	 1.7381468547	 0.070256
H	 2.8480076142	 1.1275849998	 1.6076820688	 0.086159
H	-0.9127689934	-0.327615617	 0.3099952818	 0.080719
369.4592	487.6153	593.571	637.4204	658.0541	710.3361	720.5597	760.3257	773.9957	799.9862	820.5342	831.8502	873.337	903.8343	937.8563	951.5339	966.182	989.8337	1000.4727	1027.2496	1043.4368	1058.1762	1060.5993	1070.1105	1081.4357	1106.2788	1147.1696	1169.0804	1214.1464	1239.8397	1249.0933	1289.837	1297.684	1337.9821	1338.5895	1391.4153	1411.4143	3107.4679	3143.6429	3170.5711	3178.9754	3181.3777	3189.9516	3194.1802	3206.9996
O1C2C3C4C5C4C(C23)C15	O1[C@@H]2[C@@H]3[C@@H]4[C@H]5[C@@H]4[C@@H]([C@H]23)[C@@H]15	
InChI=1S/C8H8O/c9-7-3-1-2(3)5-6(4(1)7)8(5)9/h1-8H	InChI=1S/C8H8O/c9-7-3-1-2(3)5-6(4(1)7)8(5)9/h1-8H/t1-,2+,3-,4+,5-,6+,7+,8-/m1/s1
