17
gdb 90698	3.54532	1.36643	1.08642	4.623	75.19	-0.232	-0.0563	0.1757	1107.3015	0.136528	-421.840848	-421.833213	-421.832268	-421.873145	29.059	
C	-0.2674909219	 1.4222814885	-0.0774862952	-0.40488
C	 0.1671441411	-0.0299445462	-0.0575590007	 0.152568
O	 1.4309050088	-0.2311733123	-0.7377322678	-0.30317
C	 2.0890074475	-0.640534519	 0.4874518878	 0.011535
C	 0.7719315187	-0.5617910841	 1.2790482158	-0.153106
C	 0.4556682933	-1.9922159647	 1.6130784463	-0.069097
C	 1.3681045164	-2.8545961087	 1.1423654146	-0.18342
C	 2.4664038716	-2.1351508969	 0.4502447947	 0.378152
O	 3.454584899	-2.6051194666	-0.0598229222	-0.322179
H	 0.4912114217	 2.0655529872	 0.3788216819	 0.124202
H	-0.423891904	 1.7548442353	-1.1079663046	 0.134861
H	-1.208033886	 1.546454808	 0.4707376114	 0.117543
H	-0.6101866229	-0.6740954061	-0.4874576415	 0.085353
H	 2.9338685237	 0.0042419581	 0.7444481115	 0.097311
H	 0.6958756183	 0.1223818242	 2.1263010807	 0.09249
H	-0.4430722816	-2.2707504368	 2.1540347209	 0.120072
H	 1.3493898764	-3.9331268501	 1.2348242763	 0.121765
82.4419	161.6744	203.4053	237.3542	305.14	342.1834	445.2939	489.9288	603.0184	704.1358	735.057	804.7978	814.2754	856.2581	898.7035	906.7639	919.4937	997.9197	1008.1569	1015.88	1077.1883	1094.5121	1108.1873	1122.8194	1187.3336	1223.328	1239.5121	1281.4808	1286.3174	1328.0938	1368.7788	1380.0086	1405.8204	1482.6035	1492.2055	1636.1647	1821.5854	3024.9483	3034.1786	3074.0525	3093.8549	3107.0109	3116.8757	3184.7402	3225.4546
CC1OC2C1C=CC2=O	C[C@H]1O[C@H]2[C@@H]1C=CC2=O	
InChI=1S/C7H8O2/c1-4-5-2-3-6(8)7(5)9-4/h2-5,7H,1H3	InChI=1S/C7H8O2/c1-4-5-2-3-6(8)7(5)9-4/h2-5,7H,1H3/t4-,5-,7+/m1/s1
