18
gdb 80701	2.03869	1.55733	1.41182	1.7643	71.89	-0.228	-0.0278	0.2002	1054.7651	0.145428	-439.035042	-439.025966	-439.025021	-439.068941	33.508	
C	-0.3079764059	 1.3798368167	-0.1356831986	-0.423155
C	-0.0569975476	-0.0956139168	 0.0879012134	-0.064837
C	 1.2377302631	-0.8042177846	-0.235807854	-0.097153
N	 2.3762562802	 0.1135149244	 0.0395826962	-0.346191
C	 2.0321908295	 0.0704894706	 1.4996668242	-0.140097
C	 1.9058434801	 1.4024314381	 2.2041398325	 0.147169
O	 1.1715298314	 1.5795274393	 3.1441738648	-0.255519
C	 0.7538807765	-0.7299958986	 1.1988494431	 0.338271
O	 0.2758603727	-1.7227955091	 2.0263749471	-0.456555
H	 0.6293026911	 1.941834782	-0.1239757731	 0.135544
H	-0.7701945353	 1.5427938367	-1.1150625556	 0.115713
H	-0.9745712858	 1.7960593419	 0.6261927973	 0.12357
H	-0.9048156364	-0.7436027612	-0.1299627152	 0.096082
H	 1.3269102177	-1.6302651946	-0.9303003787	 0.104223
H	 3.259653278	-0.3557351049	-0.1308550296	 0.228306
H	 2.7257834294	-0.5568065646	 2.0753373051	 0.115706
H	 2.5471376915	 2.2167089277	 1.7968028919	 0.084377
H	-0.35093277	-1.3213971729	 2.6401960692	 0.294545
61.3343	127.4477	145.3878	193.1798	219.112	272.9004	312.7735	356.9525	385.7794	472.6542	550.1735	575.4781	689.618	710.701	771.6933	814.6824	909.512	917.7511	963.7739	982.2624	1020.6472	1061.7389	1063.0136	1098.3825	1120.1122	1134.9019	1180.8803	1232.0167	1235.6645	1304.5968	1337.7842	1349.3903	1357.8544	1405.1206	1409.0464	1479.753	1500.0292	1507.271	1819.4071	2878.4467	3025.8085	3036.8994	3097.4949	3116.0445	3133.069	3192.6425	3523.2622	3781.0403
CC1C2NC(C=O)C12O	C[C@H]1[C@H]2N[C@@H](C=O)[C@@]12O	
InChI=1S/C6H9NO2/c1-3-5-6(3,9)4(2-8)7-5/h2-5,7,9H,1H3	InChI=1S/C6H9NO2/c1-3-5-6(3,9)4(2-8)7-5/h2-5,7,9H,1H3/t3-,4-,5+,6-/m0/s1
