18
gdb 37617	2.86432	2.32682	2.06592	1.5089	77.27	-0.237	0.0148	0.2518	790.7387	0.152472	-364.784364	-364.778837	-364.777893	-364.813733	25.191	
C	-0.0253884126	 1.5815721529	 0.0289739752	-0.209252
C	 1.4790121143	 1.8303976701	 0.0240336044	-0.07573
C	 1.9575914038	 0.8708731268	 1.1308788934	-0.059737
C	 2.4893632196	-0.0805733508	 0.1275981897	-0.042174
C	 2.2083962454	 0.8812400738	-1.050634472	-0.085812
C	 1.3202910467	 0.2026076817	-2.0448109778	-0.077752
C	 0.207230939	-0.3125531516	-1.5115444729	-0.061798
C	-0.0022070699	 0.0263404374	-0.0611960206	-0.055497
N	 1.2076640125	-0.3498531206	 0.7886642343	-0.105267
H	-0.4599354426	 1.9187776525	 0.9771278717	 0.099518
H	-0.5747143207	 2.0363585038	-0.7985838902	 0.100825
H	 1.8104150108	 2.8676403267	 0.0243424085	 0.070988
H	 2.2151747349	 1.0840292987	 2.1611523986	 0.089135
H	 3.2682198336	-0.8343741912	 0.1735291858	 0.089253
H	 3.1026915219	 1.344843224	-1.4667610768	 0.067913
H	 1.6040085632	 0.0917543766	-3.0858437468	 0.091486
H	-0.5290830207	-0.8853707252	-2.0638389787	 0.091249
H	-0.8797838991	-0.4535308457	 0.3718148342	 0.072652
345.8021	378.8364	440.2661	555.2496	569.7284	659.6026	687.6871	708.425	761.695	768.9637	821.5676	859.9229	875.4438	894.3275	917.6399	935.9666	955.3614	970.6762	989.7076	1002.6172	1018.6871	1029.5845	1053.7423	1061.9947	1096.3488	1152.231	1170.0898	1197.755	1211.5075	1223.7535	1251.6274	1272.057	1293.485	1328.3233	1332.7509	1365.7948	1393.741	1482.8469	1666.9679	3041.5847	3106.146	3108.4293	3110.3655	3129.3332	3163.0501	3176.2296	3189.1439	3200.4688
C1C2C3C4C2C=CC1N34	C1[C@H]2[C@@H]3[C@@H]4[C@H]2C=C[C@H]1N34	
InChI=1S/C8H9N/c1-2-5-6-3-4(1)9-7(5)8(6)9/h1-2,4-8H,3H2	InChI=1S/C8H9N/c1-2-5-6-3-4(1)9-7(5)8(6)9/h1-2,4-8H,3H2/t4-,5+,6-,7+,8-,9?/m1/s1
