16
gdb 77346	3.00346	1.29591	0.94599	2.0334	71.24	-0.2385	-0.0405	0.198	1179.5652	0.123146	-437.85593	-437.847359	-437.846415	-437.889279	32.05	
O	 0.2607292645	 1.2714584896	 0.4361327036	-0.435303
C	 0.084127797	-0.0589400346	 0.0595609945	 0.052123
C	-1.3816315983	-0.5612690826	-0.0084754695	-0.171951
N	-1.3326616531	-1.7377838911	-0.9179165251	-0.310324
C	-0.3124704078	-1.4515910963	-1.9361461026	-0.281924
C	 0.5461600541	-0.3218822637	-1.3726448829	 0.343051
O	 1.3704663634	 0.3509162699	-1.9378982419	-0.319173
C	-1.9634814532	-0.8961897839	 1.2789267988	 0.294859
C	-2.4200512546	-1.1913735066	 2.3501084291	-0.417858
H	 0.905786245	 1.6417137045	-0.1860017283	 0.294989
H	 0.636855886	-0.7493590764	 0.7232734447	 0.100084
H	-1.9797707342	 0.2272497277	-0.4869591731	 0.125191
H	-1.0723235386	-2.5519308914	-0.3726152186	 0.233542
H	 0.288226002	-2.3321440949	-2.1819468066	 0.142342
H	-0.7671140812	-1.1028232223	-2.8733099031	 0.146995
H	-2.8326002209	-1.4395570379	 3.2968832411	 0.203359
76.3264	121.59	141.0759	231.7511	265.8851	340.3682	384.1291	430.7856	480.8733	546.1717	570.3035	608.3281	633.459	649.3051	665.3736	748.4298	802.8535	931.9746	972.5526	1041.7407	1065.0496	1099.5402	1108.6772	1174.9927	1207.6033	1230.5316	1273.6285	1307.1995	1341.9092	1364.2938	1406.6258	1460.7225	1464.9312	1847.372	2245.7625	2939.1486	3011.237	3022.6908	3090.5944	3503.0517	3538.7561	3707.1989
OC1C(NCC1=O)C#C	O[C@H]1[C@@H](NCC1=O)C#C	
InChI=1S/C6H7NO2/c1-2-4-6(9)5(8)3-7-4/h1,4,6-7,9H,3H2	InChI=1S/C6H7NO2/c1-2-4-6(9)5(8)3-7-4/h1,4,6-7,9H,3H2/t4-,6-/m0/s1
