14
gdb 47260	2.44534	1.77621	1.15253	3.5437	64.61	-0.2655	-0.0802	0.1853	1009.1593	0.100782	-473.855975	-473.848235	-473.847291	-473.889065	27.65	
O	 0.0442325293	 0.1159609064	-0.5057886135	-0.270107
C	 0.0131316826	 1.239562097	-0.0772745965	 0.280609
C	-1.2437987943	 2.0307579315	 0.1817025216	-0.339189
C	-1.5339273621	 2.9396946419	-1.0313998374	-0.159946
N	-0.5345599596	 3.9054653692	-1.415561252	-0.22357
C	 0.6569071204	 3.999060967	-1.047668143	 0.138379
O	 1.4613911369	 3.2729714943	-0.1672669601	-0.225679
C	 1.3265323124	 1.9716107909	 0.2489148765	 0.354615
O	 2.2005437202	 1.4697528548	 0.8853880107	-0.269565
H	-2.0738173441	 1.3332623038	 0.3177245821	 0.142781
H	-1.133359889	 2.6412900436	 1.0848805162	 0.133192
H	-1.735476948	 2.312617841	-1.9088368018	 0.149724
H	-2.4586961699	 3.494678477	-0.8395792441	 0.139149
H	 1.2798720051	 4.8078117817	-1.4228446885	 0.149607
51.5576	103.5327	169.4459	259.626	322.2296	369.1696	398.4902	474.5599	541.5929	627.7881	700.9856	785.0781	826.1362	851.4142	918.3536	953.2283	993.3397	1032.1107	1062.7348	1082.35	1166.0304	1252.2166	1265.5493	1335.7588	1384.2963	1441.6819	1473.3057	1478.4799	1782.1151	1827.9276	1863.5574	3036.0329	3046.6271	3071.9309	3119.1341	3169.6298
O=C1CCN=COC1=O	O=C1CCN=COC1=O	
InChI=1S/C5H5NO3/c7-4-1-2-6-3-9-5(4)8/h3H,1-2H2	InChI=1S/C5H5NO3/c7-4-1-2-6-3-9-5(4)8/h3H,1-2H2
