20
gdb 82586	2.21016	2.06196	1.57743	2.3292	77.45	-0.1994	0.0646	0.264	958.1152	0.172541	-403.082539	-403.074858	-403.073914	-403.114154	31.192	
C	-0.3406620625	 1.5744807875	 0.0860902998	-0.423481
C	 0.0156038948	 0.1039554337	-0.042625405	 0.076276
C	 0.6010605581	-0.5248634325	-1.3291055446	-0.117893
C	 1.8827800344	 0.1351895958	-1.8858954311	 0.135415
O	 1.8187136667	 1.52099144	-2.1367333258	-0.428849
C	 2.7272595048	-0.4137591477	-0.7030318674	-0.114675
C	 2.4190061811	 0.3043370129	 0.6192500652	-0.17599
N	 1.1334798688	-0.4562737647	 0.8086377856	-0.167001
C	 1.5231950338	-1.3483999176	-0.3659996723	 0.009717
H	 0.457659542	 2.2319771516	-0.2571175867	 0.142198
H	-1.2284978201	 1.7934763925	-0.5169263813	 0.114224
H	-0.5784652439	 1.8069839575	 1.1301526452	 0.116622
H	-0.867984661	-0.4879050145	 0.2314399171	 0.07891
H	-0.0960076124	-0.9371518193	-2.0605183687	 0.063573
H	 2.1711632199	-0.4129016536	-2.7958872994	 0.071271
H	 2.6489674074	 1.7973907463	-2.5380300347	 0.284385
H	 3.749052906	-0.7354400474	-0.9123831788	 0.059382
H	 3.1147198261	 0.0321597763	 1.4194978939	 0.101415
H	 2.3294290511	 1.39393002	 0.5912822963	 0.105675
H	 1.5380272951	-2.4301933168	-0.243809767	 0.068825
165.5946	178.8253	226.4013	263.6099	288.4123	320.9317	460.6958	523.1646	554.709	623.002	670.0368	749.8438	782.3274	819.6873	846.5383	880.9574	924.5277	958.2916	961.9478	978.0128	1026.4727	1041.1038	1088.8623	1111.7147	1142.6112	1152.2826	1166.1389	1176.82	1193.1963	1198.3048	1210.2468	1224.8068	1271.8994	1304.8453	1309.3583	1345.1321	1353.6205	1385.8797	1409.8829	1429.8983	1486.2276	1496.6663	1515.6951	2978.4037	3004.1112	3037.7174	3042.1209	3084.6492	3088.1062	3093.4247	3096.724	3124.6318	3154.5268	3813.3627
CC1C2C(O)C3CN1C23	C[C@H]1[C@H]2[C@@H](O)[C@H]3CN1[C@@H]23	
InChI=1S/C7H11NO/c1-3-5-6-4(7(5)9)2-8(3)6/h3-7,9H,2H2,1H3	InChI=1S/C7H11NO/c1-3-5-6-4(7(5)9)2-8(3)6/h3-7,9H,2H2,1H3/t3-,4-,5+,6+,7-/m0/s1
