14
gdb 16135	4.71461	1.79959	1.5389	4.0687	63.02	-0.2317	-0.0229	0.2088	807.4525	0.107954	-378.725718	-378.719042	-378.718097	-378.75642	25.307	
O	-0.8580289906	 1.1460068824	-0.2102571831	-0.281155
C	 0.2613315729	 0.9151071507	 0.1854137175	 0.085933
C	 1.3989291774	 1.8515877382	 0.0509719463	 0.231698
C	 1.1142299291	 3.3452449592	-0.0421857834	-0.315988
C	 1.663270943	 2.6895829307	-1.2557603584	-0.050222
N	 3.0956455169	 2.6506862864	-1.3446785172	-0.284569
C	 3.5622501113	 1.8864354919	-0.2882351708	 0.035046
N	 2.6833593828	 1.4229344312	 0.5249484015	-0.296277
H	 0.529951589	-0.0440931316	 0.6766899918	 0.087269
H	 0.0576390577	 3.5866290579	-0.0676372857	 0.146598
H	 1.7541713349	 4.0078595897	 0.5306650922	 0.126897
H	 1.0843933882	 2.5854661949	-2.1652168038	 0.124845
H	 3.5504713101	 2.6103985518	-2.2436017573	 0.255878
H	 4.6298724073	 1.7307483366	-0.1749199097	 0.134048
122.226	207.8947	232.0427	333.7149	401.5527	459.4846	509.8808	595.1649	636.6765	733.2951	769.4745	886.815	906.0045	929.1346	963.1008	985.1483	1054.8154	1073.4915	1076.4908	1094.2462	1143.0754	1227.083	1281.9614	1332.617	1379.1448	1413.3618	1429.3566	1462.4208	1640.0652	1803.7202	2913.323	3132.5886	3193.4399	3202.045	3235.7675	3625.4854
O=CC12CC1NC=N2	O=C[C@]12C[C@H]1NC=N2	
InChI=1S/C5H6N2O/c8-2-5-1-4(5)6-3-7-5/h2-4H,1H2,(H,6,7)	InChI=1S/C5H6N2O/c8-2-5-1-4(5)6-3-7-5/h2-4H,1H2,(H,6,7)/t4-,5-/m1/s1
