19
gdb 62257	4.38974	0.60236	0.54618	2.5604	73.94	-0.2589	-0.0316	0.2274	1938.3742	0.154141	-460.168563	-460.157794	-460.15685	-460.206448	35.6	
C	 0.1143356875	 1.6597785667	 0.0684164571	-0.402816
C	-0.0813939698	 0.1335927814	 0.0135228789	-0.104913
C	 0.5907636209	-0.5105627644	-1.1940787872	-0.050228
O	-0.0048180161	 0.0194209197	-2.363914945	-0.258136
C	 0.5419267856	-0.4916013433	-3.5514336646	-0.144667
C	-0.1919505251	 0.1388147197	-4.722378213	 0.139411
O	 0.0679234329	-0.0896681293	-5.8730510651	-0.235156
C	 0.3878753013	-0.4993702443	 1.3064270314	 0.153777
O	 1.1913414309	-1.3939135959	 1.3865612716	-0.24479
H	 1.1767785653	 1.9148715924	 0.1449110257	 0.127858
H	-0.2818143178	 2.1159721308	-0.8403537738	 0.145265
H	-0.4022554669	 2.0954527936	 0.9292259356	 0.122216
H	-1.1634370154	-0.0616840895	-0.0480265676	 0.110926
H	 1.6727217332	-0.3038616598	-1.1824065599	 0.103546
H	 0.4727698844	-1.6032662915	-1.1592723401	 0.109688
H	 1.6180922858	-0.2674430331	-3.643481076	 0.125207
H	 0.4370514868	-1.5880334573	-3.6168255593	 0.12551
H	-1.0013412601	 0.8377704496	-4.4153420256	 0.094523
H	-0.0725010335	-0.0592044455	 2.2212217168	 0.082777
42.373	54.6143	88.6638	102.6647	104.2829	134.3714	198.6645	220.886	266.4125	384.2383	399.1241	417.395	559.4346	682.5766	740.4595	819.8744	921.4943	923.2747	946.892	1016.4082	1062.2817	1112.5842	1116.8897	1154.0012	1174.5647	1180.9585	1238.0407	1267.839	1302.0867	1327.2828	1350.2367	1400.6459	1402.8912	1422.0674	1441.223	1482.0203	1493.1272	1508.0919	1516.7217	1825.852	1846.6627	2867.3034	2895.7731	2962.2791	2982.3985	2991.8136	2998.7608	3024.6068	3040.8853	3106.3437	3139.5713
CC(COCC=O)C=O	C[C@@H](COCC=O)C=O	
InChI=1S/C6H10O3/c1-6(4-8)5-9-3-2-7/h2,4,6H,3,5H2,1H3	InChI=1S/C6H10O3/c1-6(4-8)5-9-3-2-7/h2,4,6H,3,5H2,1H3/t6-/m1/s1
