15
gdb 13550	3.75114	1.36311	1.12207	4.2141	62.1	-0.2829	0.0002	0.2831	1047.101	0.116715	-399.780274	-399.77167	-399.770726	-399.814102	29.895	
C	 0.0822531068	 1.5455622839	-0.2577427588	-0.421843
C	-0.0325207261	 0.076354163	 0.0533480949	 0.077998
O	 1.1687274713	-0.7120222029	 0.0407448018	-0.247717
C	 0.4653456749	-0.5826313857	 1.2704715656	 0.033205
C	 1.1677427508	 0.17180736	 2.3917526436	-0.045723
O	 0.2482628904	 0.6819627457	 3.3397025638	-0.404377
C	 2.1766164986	-0.6949075071	 3.0358738145	 0.258217
N	 2.9274587977	-1.3948286589	 3.5661745348	-0.309822
H	 0.946001213	 2.0069208969	 0.2246288596	 0.131796
H	 0.1874439376	 1.6885923283	-1.3377141833	 0.138128
H	-0.8214539984	 2.071424309	 0.066628633	 0.136855
H	-0.8722996682	-0.4208801174	-0.4358673348	 0.10212
H	-0.0360075022	-1.4929733464	 1.6079862917	 0.103387
H	 1.6879192252	 1.0373490862	 1.9747692142	 0.14773
H	-0.1337901212	-0.0575401047	 3.8265820593	 0.300047
37.5322	117.1742	165.9516	179.8434	242.4726	259.4628	308.8639	392.1086	429.487	510.0002	551.122	616.1776	786.5943	853.4298	901.4677	991.9376	1006.6443	1055.9638	1100.4495	1107.9427	1168.2155	1181.1339	1244.1841	1292.8892	1306.9032	1399.9102	1405.1974	1421.3763	1466.7742	1489.6758	1512.2213	2357.2613	3046.4645	3077.8323	3094.7755	3101.0551	3110.1474	3138.2294	3802.8949
CC1OC1C(O)C#N	C[C@H]1O[C@H]1[C@@H](O)C#N	
InChI=1S/C5H7NO2/c1-3-5(8-3)4(7)2-6/h3-5,7H,1H3	InChI=1S/C5H7NO2/c1-3-5(8-3)4(7)2-6/h3-5,7H,1H3/t3-,4+,5-/m1/s1
