16
gdb 15694	3.03891	2.02505	1.42034	3.3479	60.99	-0.2484	0.001	0.2494	894.4915	0.130927	-420.908243	-420.90056	-420.899616	-420.940621	27.316	
C	 0.0829289291	 1.2020395268	 0.3033365511	-0.246782
O	-0.0690149144	-0.1601364747	-0.0676880254	-0.258191
C	-1.4157378841	-0.5807157056	-0.1920007572	-0.00451
C	-1.4315015538	-2.006754923	-0.7251631492	-0.264439
C	-1.3008777597	-2.8348624252	 0.5620065655	-0.074772
O	-1.9275762721	-2.0461236388	 1.5920467291	-0.219072
C	-2.0265404243	-0.7463088754	 1.2160174167	 0.429539
O	-2.4785907058	 0.1040514353	 1.9290434149	-0.343081
H	 1.1569501188	 1.3975089558	 0.3316398243	 0.12963
H	-0.3848894113	 1.8664688866	-0.4383580389	 0.110136
H	-0.3548792636	 1.4125871736	 1.285498781	 0.143722
H	-1.9998706592	 0.1354568003	-0.7832957053	 0.091423
H	-2.388510552	-2.2103751428	-1.2139856144	 0.121129
H	-0.6232381571	-2.18602224	-1.4355546575	 0.127795
H	-1.814667042	-3.7970699742	 0.5233099147	 0.125797
H	-0.2547433484	-2.9967401886	 0.8396251908	 0.131677
84.0336	122.7881	180.4806	196.0796	252.2772	317.1236	402.6391	493.0716	674.0999	684.2087	732.4765	832.7709	890.626	915.6444	961.5055	1011.7131	1060.4285	1107.9314	1132.8842	1183.4885	1188.0178	1215.7129	1223.2959	1246.745	1295.6593	1337.6418	1364.0604	1405.4634	1474.3013	1478.6077	1486.9488	1513.8174	1520.4786	1870.333	2995.4092	3031.6652	3060.228	3070.8235	3072.2565	3118.0993	3128.3988	3135.9654
COC1CCOC1=O	CO[C@H]1CCOC1=O	
InChI=1S/C5H8O3/c1-7-4-2-3-8-5(4)6/h4H,2-3H2,1H3	InChI=1S/C5H8O3/c1-7-4-2-3-8-5(4)6/h4H,2-3H2,1H3/t4-/m0/s1
