23
gdb 40556	3.49396	1.03531	0.87811	0.2149	92.5	-0.2223	0.032	0.2542	1419.4624	0.208198	-351.168181	-351.159595	-351.158651	-351.201654	33.881	
C	 0.9798048632	 1.3639721414	 0.2507780024	-0.251134
C	 0.8945764175	 0.2458151325	-0.7572554573	-0.277962
C	-0.2279881051	 0.4435979231	 0.2260334462	-0.073506
C	-0.4964021593	-0.4827283639	 1.3635879067	 0.296515
C	-0.0964236188	-1.757888147	 1.384540722	-0.14846
C	-0.3060410939	-2.6998953592	 2.5420715075	-0.239182
C	-0.7423738024	-1.9690647833	 3.8192733832	-0.193683
C	-1.8115730142	-0.9203817572	 3.4968270128	-0.200976
C	-1.2653990776	 0.127853066	 2.5182786377	-0.278023
H	 1.6809383804	 1.2417982607	 1.0694509032	 0.1119
H	 0.8588542284	 2.386613857	-0.0896324861	 0.107525
H	 0.7113024728	 0.4982683981	-1.795787849	 0.108753
H	 1.5563148356	-0.6009126051	-0.6172603292	 0.113211
H	-1.1258466161	 0.9073297615	-0.1805824694	 0.083824
H	 0.4152608861	-2.1661828377	 0.5161161651	 0.074079
H	-1.0587273622	-3.4546768047	 2.2660221192	 0.103144
H	 0.6154172129	-3.2680229376	 2.7261082066	 0.097309
H	-1.1098110234	-2.6863888994	 4.5610830234	 0.088127
H	 0.127231154	-1.4695507663	 4.2664912052	 0.094884
H	-2.6795969769	-1.4195771901	 3.0463073445	 0.095655
H	-2.1683972914	-0.433015931	 4.4108051617	 0.08834
H	-0.6121173871	 0.8370636475	 3.0484871116	 0.104812
H	-2.0876715827	 0.738546435	 2.1215445021	 0.094846
66.7136	97.2833	191.9697	198.2988	273.2183	325.7755	391.0738	456.6375	463.7485	548.4427	624.3303	749.0821	787.9334	815.7592	826.8609	847.7099	866.0344	901.2613	909.3796	940.8427	953.836	980.0493	1047.3113	1055.8695	1079.45	1082.0314	1095.3272	1098.5285	1134.2951	1149.6592	1174.5944	1195.5867	1199.3226	1234.0107	1265.7731	1294.6949	1328.0979	1363.4353	1370.6327	1379.0604	1389.4342	1411.5286	1465.5596	1471.7897	1478.4949	1489.1181	1499.379	1500.6581	1732.4673	2987.533	2996.0405	3014.0349	3017.7933	3032.3344	3033.2956	3066.0549	3070.1059	3108.65	3130.631	3140.4728	3149.3339	3212.039	3227.7114
C1CC1C1=CCCCC1	C1CC1C1=CCCCC1	
InChI=1S/C9H14/c1-2-4-8(5-3-1)9-6-7-9/h4,9H,1-3,5-7H2	InChI=1S/C9H14/c1-2-4-8(5-3-1)9-6-7-9/h4,9H,1-3,5-7H2
