18
gdb 49560	3.32286	1.31199	1.22325	3.2533	73.79	-0.2373	0.0232	0.2606	1069.9636	0.149813	-439.084445	-439.077019	-439.076075	-439.116774	28.514	
O	-0.0007896251	-0.0113745039	-0.2667607596	-0.333707
C	 0.0278962107	 1.1864756016	-0.0720120403	 0.122137
N	 1.1288640508	 1.8870145119	 0.2970274278	-0.034814
C	 2.5462944737	 1.5152603157	 0.0733132581	-0.037339
C	 2.6758773141	 2.7911318199	-0.8095145722	-0.224934
C	 1.4913499653	 3.3045047832	 0.0583398898	-0.048559
C	 2.0453158429	 3.8359671945	 1.3859069092	-0.059543
O	 3.2356988435	 3.1412438963	 1.74301083	-0.266743
C	 3.2692740936	 1.7555082539	 1.4015066869	-0.070271
H	-0.8676145142	 1.8387381862	-0.1405551003	 0.066856
H	 2.6994353342	 0.5216244789	-0.3475876595	 0.113232
H	 3.6129129012	 3.3474612382	-0.76694191	 0.121081
H	 2.3721157524	 2.6012160822	-1.8395931217	 0.118329
H	 0.7121896398	 3.936673598	-0.3738344013	 0.091199
H	 2.3271911291	 4.891095144	 1.3034770049	 0.113254
H	 1.2738877302	 3.7360353258	 2.1642143427	 0.103022
H	 2.8032673835	 1.14040304	 2.1846088617	 0.111964
H	 4.3297526743	 1.4927754338	 1.3307569138	 0.114835
58.2791	174.5111	221.1095	276.7528	332.5606	386.4548	423.8037	570.1823	609.5608	648.218	793.2706	835.4975	847.936	869.4111	919.1015	923.2942	996.3288	1028.5711	1034.054	1071.5945	1077.7302	1093.3552	1115.079	1157.7624	1197.3643	1235.9605	1247.0954	1265.317	1296.2969	1312.0842	1331.6809	1370.7446	1403.3413	1411.3242	1435.4561	1482.5643	1492.86	1502.1199	1784.0533	2916.1471	2994.301	3006.8864	3072.3711	3079.0212	3083.7153	3094.27	3128.1826	3152.8362
O=CN1C2CC1COC2	O=CN1[C@H]2C[C@@H]1COC2	
InChI=1S/C6H9NO2/c8-4-7-5-1-6(7)3-9-2-5/h4-6H,1-3H2	InChI=1S/C6H9NO2/c8-4-7-5-1-6(7)3-9-2-5/h4-6H,1-3H2/t5-,6+
