17
gdb 90608	2.3993	1.55378	1.2057	2.9096	70.32	-0.2277	-0.0038	0.2239	1065.2551	0.136091	-455.088773	-455.080486	-455.079541	-455.121874	31.303	
O	 0.0937811596	 1.0471870815	-0.7904065802	-0.421648
C	 0.0389813924	-0.2006164426	-0.1387454368	 0.097274
C	 0.2777525661	-0.1953739655	 1.4082846573	-0.218733
N	-1.1568745446	-0.5604003897	 1.6418223786	-0.115833
C	-1.4223812125	-0.6301897784	 0.1621412086	-0.063183
C	-2.5050087737	 0.4787188962	 0.2971048772	 0.044209
O	-3.8348106158	 0.1888389697	-0.0382661424	-0.430315
C	-2.0751766095	 0.5227783532	 1.7858944949	 0.274898
N	-2.2892001716	 1.2185298384	 2.8151107073	-0.513512
H	 1.0155235945	 1.3144373043	-0.8660205835	 0.291655
H	 0.6236765208	-0.9582631844	-0.6764881806	 0.077317
H	 0.9613738576	-0.968084759	 1.7698527809	 0.113982
H	 0.5538308879	 0.772979701	 1.8347576257	 0.125844
H	-1.7563789031	-1.5868227046	-0.2464159396	 0.08195
H	-2.2381669687	 1.3957059187	-0.2322815634	 0.137324
H	-4.1287847328	-0.5574305571	 0.4959343685	 0.289818
H	-2.9996309268	 1.9266378382	 2.6239280973	 0.228953
55.7899	164.1009	187.4699	250.1625	272.7644	321.9773	356.5728	406.403	429.0277	520.3459	649.1737	714.6844	772.6593	813.448	849.7137	863.8217	918.3439	941.1395	988.3203	1003.6181	1032.4833	1075.2282	1127.3703	1150.3823	1175.9409	1190.135	1197.8287	1230.1963	1264.0098	1279.4058	1303.345	1317.4344	1337.8493	1415.5068	1432.8837	1489.1054	1773.4295	3013.6012	3054.6108	3084.3932	3105.0862	3114.3382	3473.3979	3801.6791	3818.084
OC1CN2C1C(O)C2=N	O[C@H]1CN2[C@H]1[C@@H](O)[C]2[NH]	
InChI=1S/C5H8N2O2/c6-5-4(9)3-2(8)1-7(3)5/h2-4,6,8-9H,1H2	InChI=1S/C5H8N2O2/c6-5-4(9)3-2(8)1-7(3)5/h2-4,6,8-9H,1H2/t2-,3+,4+/m0/s1
