20
gdb 81269	2.55483	1.52069	1.275	2.0596	78.84	-0.2143	-0.0099	0.2044	1096.543	0.171673	-403.134996	-403.126662	-403.125718	-403.167527	32.499	
C	-0.1584194504	 1.5389005268	 0.021472754	-0.429679
C	 0.0050074971	 0.0318812944	-0.0725285108	 0.060238
C	 0.7840421602	-0.5741779868	-1.2901748146	-0.153363
C	 2.0319233856	-0.2688807736	-0.4160534483	-0.205082
N	 1.1395525469	-0.5421191379	 0.7807255261	-0.14271
C	 0.9203826183	-2.0133970824	 0.5877456953	-0.060002
C	-0.1322050027	-2.6435116643	 1.4895669045	-0.421452
C	 0.6009075954	-2.0445496565	-0.9338905875	 0.423306
O	 0.2724036182	-2.9765154625	-1.6170200397	-0.341275
H	 0.7443351707	 2.0930046633	-0.2445263882	 0.123843
H	-0.9624280333	 1.8673741821	-0.6447987246	 0.123763
H	-0.4310487186	 1.8125880927	 1.0454713539	 0.134228
H	-0.9609627717	-0.4340451859	 0.1437739156	 0.08271
H	 0.6473292191	-0.2839000282	-2.3309411488	 0.082001
H	 2.9033582153	-0.9244607187	-0.4987419364	 0.111408
H	 2.355477302	 0.7708935633	-0.4388467507	 0.118945
H	 1.8771411075	-2.5218008676	 0.758193228	 0.101375
H	-1.1023156778	-2.1444427787	 1.4127203409	 0.123398
H	-0.2742650046	-3.6891437386	 1.2021704806	 0.139514
H	 0.1882510927	-2.6046097408	 2.5339618608	 0.128836
129.7801	179.3178	187.1623	210.2822	224.6812	274.0648	372.8674	457.588	508.4533	526.2059	605.1174	686.2722	761.7173	790.3539	826.8647	846.6255	851.8627	867.2064	973.8975	1011.7255	1035.277	1057.7226	1072.4532	1086.8996	1117.9091	1144.4267	1171.9319	1180.676	1199.0624	1220.3676	1255.891	1270.7529	1292.9583	1361.1448	1399.5932	1408.1958	1416.8975	1488.8474	1492.0259	1494.5356	1497.0225	1530.6038	1868.6263	3034.3961	3043.6254	3045.4888	3059.2881	3068.1419	3109.6599	3117.3366	3124.8243	3124.9741	3129.9219	3142.3267
CC1C2CN1C(C)C2=O	C[C@H]1[C@H]2CN1[C@@H](C)C2=O	
InChI=1S/C7H11NO/c1-4-6-3-8(4)5(2)7(6)9/h4-6H,3H2,1-2H3	InChI=1S/C7H11NO/c1-4-6-3-8(4)5(2)7(6)9/h4-6H,3H2,1-2H3/t4-,5-,6+/m0/s1
