18
gdb 37147	3.97914	1.87646	1.63538	1.5434	78.18	-0.215	0.0786	0.2936	860.4911	0.150403	-364.670567	-364.664789	-364.663845	-364.700188	25.969	
C	-0.0150487964	 1.524623011	-0.1215897977	-0.299039
C	 1.3069870864	 0.812672686	 0.021066517	 0.0074
C	-0.008907778	 0.0125432979	-0.0345020721	-0.214198
C	 0.3151615292	-0.7148699414	-1.321009219	 0.318282
C	 0.0632011987	-1.7140886313	-2.4819651263	-0.364198
C	 1.4903173317	-1.1302713338	-2.7768017579	-0.114433
C	 1.8410421745	-1.0622601734	-1.2756275831	 0.002237
N	 2.1192198008	 0.4362898462	-1.1808208416	-0.180237
C	 1.0705464745	 0.2647506763	-2.2563840102	-0.011921
H	-0.3585071544	 2.0645990279	 0.7560407119	 0.11148
H	-0.2850717249	 2.0057548582	-1.0545896526	 0.115677
H	 1.8749682529	 0.9193712812	 0.9371633684	 0.094028
H	-0.4004114177	-0.5028031646	 0.8334173236	 0.091922
H	 0.01122713	-2.7758536533	-2.2236916975	 0.102105
H	-0.7236992543	-1.454503277	-3.1961022729	 0.102791
H	 2.1512114556	-1.3549462314	-3.6125270599	 0.082047
H	 2.3374867449	-1.7986819776	-0.6415812771	 0.076773
H	 0.6642665864	 1.0933648489	-2.836599753	 0.079283
280.6655	344.9106	404.8283	459.8164	521.117	649.8684	712.8451	781.2175	785.6113	798.549	807.9968	845.0703	863.5838	881.7068	892.7475	906.9372	936.5595	958.3988	1003.9953	1005.2474	1044.1275	1068.1708	1084.176	1088.8208	1104.2489	1112.2643	1128.0242	1148.0302	1165.7308	1174.3644	1183.1497	1196.17	1231.7745	1262.3221	1315.0038	1327.189	1347.2598	1479.042	1508.2793	3046.8521	3101.1268	3104.2481	3106.7722	3128.8501	3131.7796	3185.13	3192.0927	3212.4877
C1C2C1C13CC4C1N2C34	C1[C@H]2[C@@H]1[C@]13C[C@@H]4[C@H]1N2[C@H]34	
InChI=1S/C8H9N/c1-4-5(1)9-6-3-2-8(4,6)7(3)9/h3-7H,1-2H2	InChI=1S/C8H9N/c1-4-5(1)9-6-3-2-8(4,6)7(3)9/h3-7H,1-2H2/t3-,4-,5+,6-,7+,8-/m1/s1
