23
gdb 94855	3.6031	1.06683	1.00713	1.5834	84.47	-0.2529	0.0643	0.3172	1299.4556	0.207084	-388.294172	-388.285356	-388.284411	-388.328128	34.755	
O	 0.1491712579	 1.450576637	 0.0045906833	-0.439992
C	 0.0794072674	 0.0270434011	-0.0094213052	 0.150598
C	 0.7288154576	-0.6114136325	 1.2386804193	-0.234949
C	-0.4444041925	-0.8038434803	 2.209565599	-0.278129
C	-1.5700967513	-1.3232223835	 1.29508439	 0.399749
C	-1.578375651	-2.8847023661	 1.1858327726	-0.262051
C	-2.7359716375	-2.9259225158	 2.2172773739	-0.210351
C	-2.9761705363	-1.4155785119	 1.952944812	-0.289221
C	-1.3857619763	-0.5020196502	 0.0023577149	-0.332051
H	-0.311153322	 1.7628404216	 0.7909311389	 0.273693
H	 0.607421484	-0.2533330365	-0.9242813774	 0.081746
H	 1.1505076433	-1.5892829291	 0.9765000971	 0.098441
H	 1.5429140686	 0.0086615925	 1.6225345328	 0.099648
H	-0.2184535185	-1.4759088789	 3.043153227	 0.09497
H	-0.7397496914	 0.1595588603	 2.6507359848	 0.081116
H	-1.9025986739	-3.2189700286	 0.1953998043	 0.094703
H	-0.6529314914	-3.4099817186	 1.4408173797	 0.092893
H	-3.5636313336	-3.6086400827	 2.0125592344	 0.095974
H	-2.3794121542	-3.1156652829	 3.2332280358	 0.102015
H	-3.1609229261	-0.7700442404	 2.8172678124	 0.089579
H	-3.7753188151	-1.2517096007	 1.2230645153	 0.096796
H	-2.0601107056	 0.3626259382	-0.0092026127	 0.097791
H	-1.6222534922	-1.0914089521	-0.8889915421	 0.097032
34.1549	121.9733	157.736	249.0716	268.1702	326.4079	375.3877	388.0322	426.852	498.6027	638.1483	682.7466	735.1594	787.6295	813.0372	839.8381	870.5757	896.5184	905.4686	940.9799	955.6192	962.3181	991.5927	1005.2479	1033.7731	1069.2663	1097.4456	1120.9383	1151.1141	1196.8651	1199.5446	1219.6663	1239.5474	1253.4442	1257.4981	1277.6457	1292.2859	1293.8113	1301.8671	1327.3713	1345.4106	1347.316	1436.6941	1473.2055	1476.1095	1480.1348	1484.075	1498.3305	1507.6714	2998.4774	3034.1172	3034.3379	3039.5676	3044.5124	3061.549	3070.8507	3077.4439	3086.1663	3087.1996	3091.9462	3100.804	3116.0189	3803.931
OC1CCC2(CCC2)C1	O[C@H]1CCC2(CCC2)C1	
InChI=1S/C8H14O/c9-7-2-5-8(6-7)3-1-4-8/h7,9H,1-6H2	InChI=1S/C8H14O/c9-7-2-5-8(6-7)3-1-4-8/h7,9H,1-6H2/t7-/m0/s1
