16
gdb 26030	3.25148	1.13898	1.04482	1.7265	76.1	-0.2429	-0.0011	0.2419	1191.9176	0.123973	-400.746291	-400.737904	-400.73696	-400.779923	30.622	
C	 0.0204438094	 1.5647773298	 0.0214991477	-0.388925
C	 0.0467957166	 0.0173420279	-0.0040088073	-0.27797
C	 0.7130208067	-0.479288667	-1.2122837284	 0.333693
C	 1.260922022	-0.8662992306	-2.2088310513	-0.4702
C	 0.6628590485	-0.5493762952	 1.2385007539	 0.368175
C	 0.221655521	-1.3439258147	 2.2435046978	-0.207839
N	 1.241316182	-1.5332351592	 3.170728267	-0.256086
C	 2.2286160068	-0.8561182854	 2.6873542917	 0.073432
O	 1.9655921071	-0.2255894483	 1.5188816674	-0.17776
H	 1.037425128	 1.9604609944	 0.0668412551	 0.143053
H	-0.4611804243	 1.9478160347	-0.8811879757	 0.130472
H	-0.5322368131	 1.9159176422	 0.8971435209	 0.12469
H	-0.9897662056	-0.3432379059	-0.0139001637	 0.126728
H	 1.7455207622	-1.2187001593	-3.085600982	 0.200969
H	-0.7499230654	-1.7954258238	 2.3672462912	 0.126425
H	 3.2209979281	-0.7317507798	 3.0912495357	 0.151141
52.6376	99.602	170.4789	194.2131	233.9005	315.0696	380.4372	453.483	541.976	633.6991	645.6199	667.6739	691.3867	734.6915	838.2108	859.7582	863.9068	939.7733	975.9229	997.7635	1076.54	1103.6706	1122.5306	1136.6028	1239.1589	1251.0685	1304.6383	1315.9121	1364.8432	1404.0542	1490.1681	1498.649	1549.8707	1634.0669	2239.4611	3031.2293	3050.7993	3129.4752	3138.8868	3263.3442	3278.2741	3504.5008
CC(C#C)C1=CN=CO1	C[C@@H](C#C)c1cnco1	
InChI=1S/C7H7NO/c1-3-6(2)7-4-8-5-9-7/h1,4-6H,2H3	InChI=1S/C7H7NO/c1-3-6(2)7-4-8-5-9-7/h1,4-6H,2H3/t6-/m0/s1
