21
gdb 80556	2.78593	1.32222	1.197	1.6103	83.7	-0.2278	0.0085	0.2363	1161.1469	0.183961	-387.089358	-387.080951	-387.080007	-387.122097	33.597	
C	 0.2110020178	 1.5663097262	-0.001602711	-0.398293
C	 0.0276348585	 0.0431969097	 0.0161540014	-0.014465
C	 0.5419994695	-0.5953740731	-1.2927980586	-0.236438
C	 0.6754389986	-2.1141655233	-1.242600121	-0.110104
C	 2.0458909681	-2.702876106	-0.9744100249	 0.11145
O	 3.1619902894	-1.8777259157	-0.8433120327	-0.419113
C	 0.9794714245	-2.759496369	 0.1015370404	-0.132596
C	 1.0915632373	-1.8538854133	 1.2705838759	-0.120146
C	 0.6802957964	-0.5830392619	 1.2304457567	-0.047608
H	 1.2726401911	 1.8323646991	-0.0602205053	 0.116298
H	-0.292744459	 2.012257927	-0.8653589256	 0.113257
H	-0.2006414161	 2.0275571569	 0.9024578676	 0.11078
H	-1.0525257358	-0.1588506203	 0.0939888288	 0.087748
H	-0.1195431074	-0.3110561599	-2.1172556318	 0.095951
H	 1.5254370934	-0.1649079521	-1.5214361819	 0.110749
H	 0.0321584927	-2.6749663757	-1.9129902701	 0.082537
H	 2.3112656314	-3.6297281656	-1.4734109434	 0.099255
H	 3.0547073863	-1.3631803098	-0.0329714661	 0.281766
H	 0.556451872	-3.7394777401	 0.3056359115	 0.08973
H	 1.5262187624	-2.2596011297	 2.1816943513	 0.092096
H	 0.7719814688	 0.0412489567	 2.1172378589	 0.087143
74.4575	156.9231	235.3066	244.2404	304.679	332.8528	360.9348	426.6865	477.8612	512.2222	580.212	635.4177	726.5966	741.8043	776.908	808.6392	867.9474	886.477	940.1933	945.7829	991.7292	1009.2734	1047.6332	1053.0497	1088.572	1101.8856	1117.456	1129.2566	1158.9882	1204.6269	1216.1871	1260.8299	1309.2762	1325.6467	1333.7005	1351.6887	1372.309	1379.9512	1408.8689	1426.0281	1446.0862	1491.7412	1498.7956	1500.3117	1697.4197	2973.4151	3025.1046	3028.3371	3073.581	3094.6085	3100.7241	3132.33	3137.7165	3149.5516	3158.0691	3163.1121	3755.5541
CC1CC2C(O)C2C=C1	C[C@H]1C[C@H]2[C@@H](O)[C@H]2C=C1	
InChI=1S/C8H12O/c1-5-2-3-6-7(4-5)8(6)9/h2-3,5-9H,4H2,1H3	InChI=1S/C8H12O/c1-5-2-3-6-7(4-5)8(6)9/h2-3,5-9H,4H2,1H3/t5-,6+,7-,8+/m1/s1
