15
gdb 28115	5.32282	1.31185	1.05942	0.5919	75.13	-0.1931	0.0131	0.2062	1078.3641	0.116343	-413.046136	-413.038898	-413.037954	-413.077903	27.438	
C	-0.0217436958	 1.4633307685	 0.0365476346	-0.50256
C	-0.0017937421	-0.0260158802	-0.0344151356	 0.320829
N	-0.0495828408	-0.7317549975	-1.1585903603	-0.397137
C	-0.0052988907	-2.0189226824	-0.7109475571	 0.336782
C	 0.0684025382	-2.1224210317	 0.656679714	 0.337733
N	 0.0708280189	-0.8160864382	 1.1016780007	-0.42425
N	 0.1126291609	-3.4070456833	 1.1062274467	-0.360796
C	 0.0644506263	-4.1027298394	-0.0208178107	-0.010519
N	-0.0080155932	-3.322256479	-1.1579364375	-0.389618
H	 0.8839407336	 1.862768847	 0.5083510756	 0.13261
H	-0.0846019415	 1.85851414	-0.9779060761	 0.157676
H	-0.8816510989	 1.8343994257	 0.6068431285	 0.132492
H	 0.1153768447	-0.4848645064	 2.0499018552	 0.267263
H	 0.0786194524	-5.1802474339	-0.0806384078	 0.128927
H	-0.052699392	-3.6548441192	-2.1055399202	 0.27057
80.7595	149.9629	279.5386	287.7076	357.4917	447.5727	468.222	524.6752	578.5521	650.5586	670.157	755.8101	780.0245	788.4567	835.272	957.3299	986.456	1018.5778	1058.0643	1081.5319	1187.1921	1212.6691	1276.6349	1363.883	1398.8619	1407.207	1467.4544	1479.2166	1480.3384	1490.3963	1528.1844	1540.705	1615.1459	3026.2939	3073.6997	3149.6657	3258.9357	3676.0291	3679.4973
CC1=NC2=C(N1)N=CN2	Cc1nc2c([nH]1)nc[nH]2	
InChI=1S/C5H6N4/c1-3-8-4-5(9-3)7-2-6-4/h2H,1H3,(H,6,7)(H,8,9)	InChI=1S/C5H6N4/c1-3-8-4-5(9-3)7-2-6-4/h2H,1H3,(H,6,7)(H,8,9)
