18
gdb 49114	3.28818	1.26446	0.94964	5.3235	85.72	-0.2068	-0.0301	0.1767	1215.0785	0.149331	-401.950399	-401.942577	-401.941633	-401.982966	29.396	
O	-0.1406929875	-0.0232192219	-0.0103011293	-0.312968
C	-0.0439463307	 1.1919987007	-0.0380173267	 0.057801
C	 1.1941136303	 1.9204001754	-0.0352784928	-0.012993
C	 1.3804339545	 3.2604938089	-0.0399463751	 0.327089
C	 0.859676251	 4.6532788389	 0.2557790172	-0.361599
C	 2.3433012703	 4.9400294398	 0.6758667671	-0.172416
N	 2.6987949149	 3.6522209899	 0.0227153312	-0.055389
C	 3.5000370541	 2.497245568	 0.457059935	-0.190432
C	 2.5970306704	 1.3059004425	 0.0052413407	-0.312754
H	-0.9547529508	 1.8350010395	-0.0574740353	 0.040882
H	 0.5321575674	 5.2130722092	-0.6223237656	 0.140509
H	 0.1037619236	 4.7239361332	 1.0379345146	 0.140318
H	 2.8385017917	 5.8163644652	 0.2518988086	 0.121451
H	 2.4829596219	 4.9211469004	 1.7639250019	 0.116609
H	 4.4924660779	 2.4881728011	 0.0011583237	 0.117835
H	 3.6181535266	 2.5125630201	 1.5514459324	 0.103801
H	 2.6518146088	 0.4546365449	 0.6874114925	 0.131624
H	 2.9036708456	 0.9457802443	-0.9842497702	 0.120631
101.0353	152.026	178.8439	215.4625	246.2755	342.0242	399.2448	519.0771	580.884	616.8184	747.3202	765.0306	792.953	845.6362	907.8271	937.8111	1000.9555	1016.2578	1048.4202	1053.1082	1073.273	1125.7353	1169.1029	1180.8653	1191.5181	1210.8985	1230.1874	1252.8501	1290.8933	1307.3196	1345.7569	1401.8638	1424.4499	1467.7431	1490.2879	1506.7639	1523.8761	1688.957	1753.4618	2848.9579	2989.4097	3028.8277	3034.7379	3087.605	3097.7534	3104.3064	3106.7044	3147.4066
O=CC1=C2CCN2CC1	O=C[C]1[C]2CCN2CC1	
InChI=1S/C7H9NO/c9-5-6-1-3-8-4-2-7(6)8/h5H,1-4H2	InChI=1S/C7H9NO/c9-5-6-1-3-8-4-2-7(6)8/h5H,1-4H2
