21
gdb 68824	2.55291	1.50248	1.25358	1.652	83.62	-0.219	0.0819	0.3009	1133.	0.180181	-387.046385	-387.03724	-387.036295	-387.079573	35.636	
C	-0.115895267	 1.4637166767	 0.0335650127	-0.487281
C	 0.0182469295	-0.0215324166	 0.1006206711	 0.427747
C	 1.1808697398	-0.8590333502	-0.3489869178	-0.387826
C	 0.6531093054	-0.996693225	 1.0750456532	 0.114268
C	 1.4796363733	-0.8125171575	 2.3127830481	-0.498312
C	-0.6724322386	-1.7171264107	 0.9849751598	 0.440761
C	-1.0290195309	-3.1649821217	 0.9739822428	-0.341295
C	-1.5357085201	-2.2440233297	 2.0811263159	-0.349076
O	-1.1931588498	-0.7983025238	 0.0105689809	-0.356761
H	 0.8510748074	 1.9444465026	 0.2083711447	 0.121132
H	-0.4713156583	 1.7736681801	-0.9558557247	 0.132333
H	-0.8290501108	 1.8270633457	 0.7799777912	 0.127742
H	 1.0260153187	-1.6494169725	-1.0784036238	 0.110438
H	 2.1320389937	-0.3394142133	-0.4254257345	 0.105472
H	 2.2277137447	-0.0259374542	 2.1705548534	 0.120236
H	 0.8583170045	-0.5327408474	 3.1703852432	 0.123173
H	 2.0208206034	-1.729980137	 2.5750929284	 0.121831
H	-1.7494013346	-3.4894644402	 0.2309790661	 0.1241
H	-0.2628455915	-3.8949582506	 1.214733724	 0.11385
H	-1.1118003101	-2.3492564394	 3.0747407118	 0.113421
H	-2.5836505986	-1.9652136052	 2.0599584135	 0.124047
120.487	167.4945	180.0067	186.3389	204.7711	221.731	337.0465	357.5581	437.0026	471.314	500.7832	566.599	618.4707	703.0461	757.5633	812.0915	859.8882	876.9728	891.6213	942.6313	956.1553	969.7061	988.5446	1001.8375	1042.3879	1053.0205	1065.977	1102.8681	1111.8102	1158.4271	1185.0734	1192.8621	1230.992	1323.8079	1375.6567	1407.9392	1414.3885	1433.1381	1448.0082	1473.4737	1482.8455	1489.3556	1496.3965	1503.9121	1524.6069	3021.4491	3032.244	3079.682	3095.5637	3098.35	3109.3066	3115.1747	3126.8179	3129.8057	3200.5696	3210.4102	3224.5284
CC12CC1(C)C1(CC1)O2	C[C@@]12C[C@]1(C)C1(CC1)O2	
InChI=1S/C8H12O/c1-6-5-7(6,2)9-8(6)3-4-8/h3-5H2,1-2H3	InChI=1S/C8H12O/c1-6-5-7(6,2)9-8(6)3-4-8/h3-5H2,1-2H3/t6-,7+/m0/s1
