17
gdb 46119	3.24408	1.05757	0.88134	4.4567	72.44	-0.2347	-0.0334	0.2013	1286.6126	0.136022	-418.027448	-418.019018	-418.018074	-418.061593	30.616	
O	 0.2080011309	 0.1185934556	 0.0647803339	-0.295243
C	 0.0881227765	 1.3132181524	 0.0378168913	 0.399539
C	-1.0277219409	 2.1462771118	 0.6804421473	-0.33414
C	-0.8220258334	 3.5389669066	 0.0594106986	-0.186027
N	 0.6199511227	 3.6517773757	-0.2609822318	-0.075962
C	 1.399397432	 4.1769984016	 0.8587878436	-0.300566
C	 2.787135831	 4.4465892602	 0.464882489	 0.283667
N	 3.8861418305	 4.6437832622	 0.1696953235	-0.299273
C	 1.0285814378	 2.3040366494	-0.6747332901	-0.301577
H	-2.0061180809	 1.697987599	 0.4955375381	 0.14081
H	-0.871989786	 2.1515972999	 1.7660715663	 0.138153
H	-1.3856283011	 3.6235509708	-0.8767827388	 0.122984
H	-1.1338270961	 4.3625974109	 0.7048211427	 0.115573
H	 0.9510202243	 5.1235805263	 1.1790786815	 0.158904
H	 1.4294546814	 3.5213130482	 1.7495516552	 0.133783
H	 2.0786735482	 2.0960138076	-0.4582013764	 0.155329
H	 0.8927577231	 2.1816507519	-1.758019784	 0.144046
47.5737	80.9902	115.712	180.6753	353.3597	358.1793	389.2351	452.5321	467.7939	515.7833	583.5392	656.6772	742.7117	824.9593	848.4864	900.0576	938.0046	963.8484	999.445	1047.7284	1068.4351	1122.9747	1138.1385	1197.8216	1211.3212	1269.0435	1281.0075	1291.5561	1341.4267	1357.0771	1393.6375	1451.0803	1460.9236	1479.1094	1502.1704	1858.0736	2367.7944	2926.6064	3022.7353	3039.7831	3048.0302	3069.0444	3108.8566	3114.1633	3118.5762
O=C1CCN(CC#N)C1	O=C1CCN(CC#N)C1	
InChI=1S/C6H8N2O/c7-2-4-8-3-1-6(9)5-8/h1,3-5H2	InChI=1S/C6H8N2O/c7-2-4-8-3-1-6(9)5-8/h1,3-5H2
