12
gdb 5706	5.10998	2.2098	1.5657	0.7398	55.49	-0.1858	0.018	0.2037	734.6389	0.085442	-418.455452	-418.449636	-418.448691	-418.485382	21.911	
C	 0.0710677869	 1.3927596116	-0.1282520672	 0.009424
O	 1.4728675473	 1.7788720602	-0.0136486142	-0.282401
C	 1.9558396974	 0.6845962801	 0.6270542197	 0.353761
C	 1.1316190871	-0.3707607347	 0.6223968149	 0.216532
O	-0.0359216001	-0.0385188957	-0.0479412647	-0.283106
C	 1.8737632897	-1.4656966001	 1.1473816593	-0.333863
C	 3.1051734359	-0.9329528693	 1.4324689814	-0.016169
O	 3.1714622189	 0.4172488662	 1.0988894416	-0.192597
H	-0.470256573	 1.8449268576	 0.716002551	 0.116584
H	-0.3088340777	 1.7360523883	-1.0906635089	 0.141523
H	 1.5724249083	-2.4866490469	 1.3157030481	 0.128398
H	 3.9856664293	-1.3228290574	 1.9113314789	 0.141914
148.554	219.1971	307.4747	455.4571	592.6122	618.4771	642.1298	674.1647	737.4076	766.3331	810.0871	876.9169	922.6935	1008.9431	1042.6427	1116.5315	1132.9252	1155.4839	1234.4913	1257.3995	1406.1816	1435.5994	1494.0369	1513.4282	1526.9447	1709.7437	2991.6822	3135.5054	3266.9067	3304.7039
C1OC2=C(O1)C=CO2	C1Oc2c(O1)cco2	
InChI=1S/C5H4O3/c1-2-6-5-4(1)7-3-8-5/h1-2H,3H2	InChI=1S/C5H4O3/c1-2-6-5-4(1)7-3-8-5/h1-2H,3H2
