21
gdb 82565	3.16722	1.37675	1.1832	1.6182	82.65	-0.238	0.0761	0.3141	1139.2586	0.182902	-387.047238	-387.038861	-387.037917	-387.080349	32.544	
C	 0.0167588849	 1.5898545491	 0.0031520412	-0.417839
C	 0.0636348917	 0.0800646463	 0.1309267487	-0.005354
C	 1.2422892289	-0.7951537414	-0.1843074046	-0.068682
C	 2.5586960009	-0.1279817526	 0.2310035019	-0.319963
C	 2.0340663855	-0.0772930003	 1.6993646889	 0.463648
C	 2.8535824945	-0.7418010688	 2.8266499923	-0.352744
C	 2.8637038445	 0.6614706536	 3.4608240844	-0.07292
O	 2.0354953203	 1.1861689078	 2.405205571	-0.317214
C	 0.7098567621	-0.6856219824	 1.2603434928	-0.142312
H	 0.9232687446	 2.0688569948	 0.3758809152	 0.14465
H	-0.1287406335	 1.8850534454	-1.0423662938	 0.106729
H	-0.8199694391	 1.9931231838	 0.5834182937	 0.116015
H	-0.8697336377	-0.3976537777	-0.1650126918	 0.082812
H	 1.16714968	-1.6418240299	-0.8555211316	 0.08301
H	 3.4304727736	-0.7800123099	 0.1315826997	 0.099239
H	 2.7864031512	 0.8378153876	-0.2286153835	 0.104706
H	 2.3072182158	-1.4981023812	 3.3943771486	 0.110396
H	 3.8237232188	-1.1458380889	 2.5312415565	 0.108024
H	 2.3832850741	 0.7522669058	 4.4420319012	 0.102282
H	 3.8424430556	 1.15591926	 3.4991555942	 0.099836
H	 0.1527533434	-1.409102801	 1.8464799549	 0.075683
70.2503	113.499	172.8097	189.0532	281.3001	339.9544	387.7661	454.4786	470.5094	610.0984	720.8276	775.571	782.2259	819.266	868.7694	878.2714	896.0639	933.3774	966.3086	978.2537	989.8107	1000.2536	1031.5081	1058.2596	1068.1957	1102.2136	1130.008	1158.7002	1169.075	1185.3859	1198.3482	1215.7235	1226.8002	1243.7843	1264.4937	1312.7952	1349.4526	1359.5084	1420.2244	1441.1252	1477.6549	1487.096	1495.2859	1506.0562	1531.7091	3015.5961	3033.3141	3053.7643	3055.7272	3071.6172	3089.5588	3104.3651	3112.2035	3126.1645	3143.1771	3160.6262	3186.5887
CC1C2CC3(CCO3)C12	C[C@H]1[C@H]2C[C@]3(CCO3)[C@@H]12	
InChI=1S/C8H12O/c1-5-6-4-8(7(5)6)2-3-9-8/h5-7H,2-4H2,1H3	InChI=1S/C8H12O/c1-5-6-4-8(7(5)6)2-3-9-8/h5-7H,2-4H2,1H3/t5-,6+,7-,8+/m0/s1
