20
gdb 109410	2.36379	1.40655	1.05625	4.0369	79.13	-0.2402	-0.0084	0.2319	1227.0481	0.169564	-403.144089	-403.134782	-403.133838	-403.178157	34.498	
C	 0.1207375437	 1.5700615377	 0.1361056252	-0.383185
C	-0.1474298192	 0.0658719369	 0.0061541593	-0.209681
C	 0.6162143121	-0.555978743	-1.1626004744	-0.183843
C	 2.1502139011	-0.6811430217	-1.1120451025	 0.403085
O	 3.061825329	 0.0665725635	-0.9330631884	-0.306074
N	 2.1808772843	-2.0907758951	-1.4651536938	-0.211203
C	 1.41429987	-2.7613229997	-0.3633194242	-0.290298
C	 0.639423362	-2.0748604679	-1.407683197	 0.319051
C	-0.1830237394	-2.783177712	-2.4414353793	-0.491016
H	 1.190378412	 1.7654082388	 0.2519417461	 0.148953
H	-0.220535422	 2.1091500353	-0.7544291754	 0.11595
H	-0.4028899441	 1.9877288095	 1.000902976	 0.113666
H	 0.1279175244	-0.4384186155	 0.939610037	 0.10151
H	-1.2205423377	-0.1148849534	-0.1354497894	 0.102379
H	 0.3545794359	-0.0352983124	-2.0934242428	 0.108134
H	 1.4938236416	-3.8427582089	-0.4152122624	 0.135549
H	 1.49388146	-2.3567328382	 0.6422906719	 0.131444
H	-1.2246352171	-2.8715798812	-2.1121076377	 0.129338
H	-0.1748709563	-2.2390388615	-3.391468144	 0.130359
H	 0.2007360998	-3.7910635511	-2.6221106842	 0.135883
84.9095	112.3601	144.6223	178.8916	199.1869	255.4571	272.8647	338.7371	368.591	480.2601	522.4723	619.1946	653.3308	707.9946	761.5613	765.423	855.4271	912.575	947.4842	982.3863	1008.9282	1017.5589	1065.7245	1072.6498	1115.7404	1126.4769	1152.9169	1157.5057	1204.1805	1266.3547	1299.4609	1335.0521	1364.3441	1396.8538	1416.4524	1426.9127	1483.2026	1488.8854	1491.9073	1499.1042	1510.298	1513.8908	1905.4298	3024.6832	3028.8902	3033.338	3038.2822	3062.2264	3095.6533	3105.2417	3115.1684	3116.6574	3123.2618	3203.0114
CCC1C(=O)N2CC12C	CC[C@H]1C(=O)N2C[C@@]12C	
InChI=1S/C7H11NO/c1-3-5-6(9)8-4-7(5,8)2/h5H,3-4H2,1-2H3	InChI=1S/C7H11NO/c1-3-5-6(9)8-4-7(5,8)2/h5H,3-4H2,1-2H3/t5-,7-,8?/m0/s1
