19
gdb 62975	2.23286	1.59611	1.2782	5.4347	79.58	-0.2482	0.0293	0.2775	1083.9195	0.158919	-382.046892	-382.038146	-382.037202	-382.079832	33.589	
C	-0.0900023691	 1.5600284172	-0.1459308076	-0.448637
C	-0.0107640274	 0.0420687387	-0.0495048296	 0.309431
C	-1.364050089	-0.5882781148	 0.2722550153	-0.453007
C	 0.6937441072	-0.6795433614	-1.2191779571	-0.078665
N	 2.0751385667	-0.1589198118	-1.2845517529	-0.328652
C	 1.7453754398	-1.2376226359	-0.3318448536	-0.056426
C	 1.1297525151	-0.5617613182	 0.9041043269	-0.219945
C	 1.9720401858	 0.3499131145	 1.6616836515	 0.306513
N	 2.6273997343	 1.0761135758	 2.2781575931	-0.345987
H	 0.8767592216	 1.9825159512	-0.4250222431	 0.154533
H	-0.8288614692	 1.8518052822	-0.9007178237	 0.109605
H	-0.3956273182	 1.9980622119	 0.8098877799	 0.124459
H	-2.1020994198	-0.3218416498	-0.4923158299	 0.121201
H	-1.3020683865	-1.6814316095	 0.3104031546	 0.115479
H	-1.7402618571	-0.2341103475	 1.2377046888	 0.12718
H	 0.2157494857	-1.1186094804	-2.0868933763	 0.097828
H	 2.5358758904	-0.5887396899	-2.0853861893	 0.237535
H	 2.2612695072	-2.1887670871	-0.3520273905	 0.108231
H	 0.6928393525	-1.2928613054	 1.5890260035	 0.119326
106.1209	137.7895	215.1008	224.8502	247.0891	271.0283	334.8127	360.7821	394.4587	507.729	542.4927	566.4059	658.7976	769.8935	819.3137	843.3081	869.1878	921.9929	956.002	961.1424	980.2665	1017.4472	1023.7552	1056.0557	1091.6786	1106.072	1159.5415	1199.5417	1219.3682	1240.7117	1298.8241	1321.1186	1348.9226	1379.7336	1401.4841	1422.4717	1481.2783	1487.5519	1499.3101	1509.6585	2353.9265	3025.9086	3035.6794	3083.1325	3094.2676	3097.2752	3102.0055	3138.7189	3183.8003	3202.2509	3487.2836
CC1(C)C2NC2C1C#N	CC1(C)[C@H]2N[C@H]2[C@H]1C#N	
InChI=1S/C7H10N2/c1-7(2)4(3-8)5-6(7)9-5/h4-6,9H,1-2H3	InChI=1S/C7H10N2/c1-7(2)4(3-8)5-6(7)9-5/h4-6,9H,1-2H3/t4-,5+,6+/m1/s1
