23
gdb 83274	2.60087	1.34256	1.18926	1.2444	85.43	-0.2356	0.0784	0.3139	1206.7275	0.206774	-388.292469	-388.283424	-388.28248	-388.325883	35.253	
C	-0.3750134662	 1.4364177666	 0.2194677253	-0.41116
C	-0.0516813186	-0.0268712011	 0.0148850546	-0.037847
C	 0.5934487628	-0.5880031275	-1.2419933206	-0.072536
C	 1.0753235323	 0.2380025325	-2.4289113106	-0.239465
C	 2.2397046757	 1.1955596792	-2.1004875169	-0.203173
C	 3.1533687911	 0.6127369653	-1.0211992823	 0.150335
C	 4.3067388425	 1.531147176	-0.6475593488	-0.399607
O	 2.3968854194	 0.398593643	 0.1746606482	-0.265641
C	 1.370462398	-0.541327885	 0.05267512	 0.068547
H	-1.1839577286	 1.76744232	-0.4412353084	 0.110652
H	-0.6988968641	 1.6127213377	 1.2507914393	 0.116303
H	 0.4967767008	 2.0686885391	 0.0429840259	 0.128884
H	-0.7803843749	-0.7008740142	 0.4593256301	 0.0786
H	 0.2252864063	-1.5695857388	-1.527053687	 0.082362
H	 1.421077032	-0.4696908812	-3.192100365	 0.10049
H	 0.2463562315	 0.7921021678	-2.8851124065	 0.100238
H	 2.8167738339	 1.3983399125	-3.0098371288	 0.092427
H	 1.8672075802	 2.161618098	-1.7417982728	 0.104485
H	 3.554089247	-0.354589142	-1.3694234541	 0.061989
H	 3.9274026276	 2.4932051781	-0.2886318391	 0.120895
H	 4.9090256974	 1.0842138507	 0.1479345975	 0.121545
H	 4.9502539813	 1.7131533642	-1.5135743487	 0.11158
H	 1.5815736227	-1.4690727908	 0.5830728587	 0.080097
92.4563	132.971	182.6356	191.8803	228.6255	254.3447	301.9568	421.971	465.0937	469.2752	486.3653	576.6771	693.5863	740.5935	765.321	821.0585	855.4424	910.0503	913.3771	952.6627	959.7721	1002.598	1016.7355	1082.0115	1090.395	1109.8748	1130.3212	1142.9635	1159.0397	1167.6276	1192.5449	1237.1679	1257.5389	1269.5225	1329.5315	1348.6453	1363.2733	1375.154	1390.1506	1398.6413	1410.7972	1418.1163	1442.0898	1478.1002	1485.5847	1491.2959	1500.6954	1502.3707	1509.0292	2956.1165	3021.8531	3034.5168	3036.654	3042.1535	3051.4079	3079.9277	3087.6893	3099.7383	3113.8421	3120.5207	3122.0091	3135.2431	3143.7214
CC1C2CCC(C)OC12	C[C@H]1[C@H]2CC[C@@H](C)O[C@@H]12	
InChI=1S/C8H14O/c1-5-3-4-7-6(2)8(7)9-5/h5-8H,3-4H2,1-2H3	InChI=1S/C8H14O/c1-5-3-4-7-6(2)8(7)9-5/h5-8H,3-4H2,1-2H3/t5-,6+,7-,8+/m1/s1
