19
gdb 101931	2.24381	1.42576	1.00249	1.345	72.24	-0.2362	0.0173	0.2535	1218.0125	0.159054	-456.333123	-456.323369	-456.322425	-456.36822	34.959	
C	-0.4343193038	 1.1973895055	 0.1894180713	-0.246032
O	 0.0656324412	-0.1266511434	 0.0719663363	-0.261503
C	 0.7794570049	-0.3917390229	-1.1256544448	 0.007283
C	 1.6296318036	-1.6236927829	-0.8999575232	-0.033746
C	 2.2098090874	-1.9479310615	 0.4190062328	-0.247152
N	 1.0740613135	-2.7402212621	-0.104160741	-0.338151
C	-0.2356171131	-0.5497246452	-2.2842930799	 0.389153
N	-0.6159100425	-1.8237912791	-2.56607485	-0.523092
O	-0.6843645904	 0.4260908389	-2.8591623633	-0.372917
H	 0.3875507261	 1.9279641171	 0.1823215052	 0.111438
H	-1.1276102978	 1.4428465515	-0.6212353874	 0.148212
H	-0.95172357	 1.2486395927	 1.1501058214	 0.125407
H	 1.4133743206	 0.4664402919	-1.3927592456	 0.096891
H	 2.1652588133	-1.9471308247	-1.7900377102	 0.103977
H	 3.1555597724	-2.4786872175	 0.4721779385	 0.120041
H	 2.0046133807	-1.2674608509	 1.2383737768	 0.128366
H	 0.2360650289	-2.3907933585	 0.3595243487	 0.246261
H	-0.2704319626	-2.6141349668	-2.045645355	 0.284611
H	-1.3400349224	-1.9614546823	-3.2522978208	 0.260954
54.8875	94.2253	115.2462	178.7816	183.5739	203.8358	277.0259	360.9409	361.261	373.402	407.2646	563.6457	619.3127	640.0577	767.3891	807.2299	856.2065	890.4928	959.0099	969.6839	1013.4772	1059.2979	1112.1793	1118.7643	1142.781	1153.5099	1187.2765	1197.2092	1232.5135	1284.0527	1299.6969	1321.8789	1361.49	1369.4332	1427.0512	1478.4319	1482.5133	1499.9414	1515.1604	1622.1157	1788.2052	2999.3454	3005.0405	3081.8478	3123.4492	3127.893	3133.4845	3217.9468	3479.4543	3580.9294	3716.9511
COC(C1CN1)C(N)=O	CO[C@@H]([C@H]1CN1)C(=O)N	
InChI=1S/C5H10N2O2/c1-9-4(5(6)8)3-2-7-3/h3-4,7H,2H2,1H3,(H2,6,8)	InChI=1S/C5H10N2O2/c1-9-4(5(6)8)3-2-7-3/h3-4,7H,2H2,1H3,(H2,6,8)/t3-,4+/m1/s1
