17
gdb 125331	5.01901	1.25558	1.01693	3.0826	83.69	-0.2103	-0.0103	0.2	1150.2709	0.138694	-380.908312	-380.901069	-380.900125	-380.939838	28.239	
C	-0.0203175954	 1.4624096022	 0.0194260952	-0.486968
C	 0.0005874574	-0.0291778161	-0.0176362544	 0.260472
C	-0.034655893	-0.8255016524	-1.0965176742	-0.111025
N	 0.0038553247	-2.1687937289	-0.6856040829	 0.052251
N	-0.0074935737	-3.3348794732	-1.3474767591	-0.300351
C	 0.0494411014	-4.2365728054	-0.3609045026	 0.012115
C	 0.0970376634	-3.6428972295	 0.9266224993	-0.389805
C	 0.0651506184	-2.2881218839	 0.6690603932	 0.417342
C	 0.0690810989	-0.8988930191	 1.2405514371	-0.474559
H	 0.8766594846	 1.8656181713	 0.5065160357	 0.130054
H	-0.0724116306	 1.8834315751	-0.9881931363	 0.131275
H	-0.881255997	 1.8389732495	 0.5863102682	 0.130022
H	-0.0844850804	-0.5871234906	-2.1478239922	 0.139238
H	 0.0546666336	-5.2889103297	-0.6051454497	 0.10981
H	 0.1465162186	-4.1409781957	 1.8808774727	 0.103518
H	 0.9713101383	-0.6847847573	 1.8277148316	 0.138305
H	-0.7843591591	-0.7115258463	 1.9047457985	 0.138307
126.5537	172.4325	254.4087	264.8644	288.3605	452.2355	479.4375	534.0297	650.8798	683.8189	733.7014	787.3632	823.5208	842.4499	876.0675	880.2792	931.9206	959.1254	1015.1016	1051.7341	1060.5727	1133.9749	1156.9465	1169.2036	1198.1896	1257.9123	1300.0126	1343.2161	1402.0132	1409.4156	1427.1724	1448.5532	1462.5184	1477.7324	1492.2305	1584.684	1696.8347	3016.4286	3028.0002	3053.5551	3060.8643	3112.2321	3243.6361	3262.7612	3272.669
CC1=CN2N=CC=C2C1	CC1=Cn2nccc2C1	
InChI=1S/C7H8N2/c1-6-4-7-2-3-8-9(7)5-6/h2-3,5H,4H2,1H3	InChI=1S/C7H8N2/c1-6-4-7-2-3-8-9(7)5-6/h2-3,5H,4H2,1H3
