14
gdb 26914	3.10973	1.43781	0.98557	3.9008	71.31	-0.198	-0.0463	0.1517	1104.641	0.101131	-473.882231	-473.874262	-473.873317	-473.914619	29.98	
N	 0.0050989574	 1.4761990299	 0.1831757667	-0.604255
C	-0.0009660276	 0.0622192903	 0.0673486259	 0.047407
C	-1.1460649408	-0.6778997279	 0.0488704883	 0.446461
O	-2.3660098925	-0.1161328939	 0.0854187199	-0.411275
O	-1.1673583258	-2.0084249625	 0.0272034973	-0.271811
C	 0.0209735229	-2.8214176579	-0.0374729051	 0.420803
O	-0.149350393	-4.0075926642	-0.0827635052	-0.343178
C	 1.2289534944	-2.0483776368	-0.0282294428	-0.292934
C	 1.2047470995	-0.6866125837	 0.0377137122	-0.048571
H	 0.4686237423	 1.9182299852	-0.6038624293	 0.245633
H	-0.9384908584	 1.8406460549	 0.2356923151	 0.253153
H	-3.0214005042	-0.8260184902	 0.0798994854	 0.316645
H	 2.1539262474	-2.6078786255	-0.0609448783	 0.122716
H	 2.1390556784	-0.1330156377	 0.0694666098	 0.119206
114.2158	147.292	198.608	288.541	316.2127	352.9263	373.8069	436.8696	466.8904	511.9054	598.7555	671.8445	728.0439	737.8573	778.7185	819.9216	839.4279	845.6473	993.4635	1043.9409	1099.2862	1170.9226	1210.5966	1297.358	1338.4581	1405.1859	1475.5508	1578.5854	1655.501	1720.7228	1859.396	3176.1925	3229.4368	3509.8357	3604.5911	3794.8422
NC1=C(O)OC(=O)C=C1	Nc1c(O)oc(=O)cc1	
InChI=1S/C5H5NO3/c6-3-1-2-4(7)9-5(3)8/h1-2,8H,6H2	InChI=1S/C5H5NO3/c6-3-1-2-4(7)9-5(3)8/h1-2,8H,6H2
