21
gdb 94092	4.38604	0.79455	0.72272	2.5988	87.12	-0.2351	-0.0262	0.209	1606.4074	0.181604	-387.123367	-387.113839	-387.112895	-387.159099	34.461	
C	-0.0406066539	 1.6191698934	-0.0631795618	-0.39624
C	 0.0249214808	 0.0896086979	 0.008749089	 0.00341
C	 0.7768341642	-0.5663830715	-1.1825879783	-0.219404
C	 1.5226874047	-1.7858382243	-0.5913257481	-0.301011
C	 1.6001142962	-1.458534638	 0.88807974	 0.296559
C	 2.4462424429	-2.2655105569	 1.8329489461	-0.378979
C	 1.8465085242	-3.6477402426	 2.0550928226	 0.161508
O	 2.3942847278	-4.6873971255	 1.800004694	-0.234525
C	 0.7818874311	-0.4514287866	 1.2012390051	-0.171933
H	 0.9658318772	 2.0515053577	-0.0874311381	 0.115071
H	-0.5703671467	 1.9474008742	-0.9637615406	 0.114494
H	-0.5657080539	 2.0374320535	 0.8022609807	 0.111578
H	-1.009314785	-0.2877791391	 0.0469367365	 0.078576
H	 0.1114183668	-0.8304472712	-2.0085885903	 0.097861
H	 1.5082015727	 0.1501109113	-1.5738512183	 0.101895
H	 0.9701965725	-2.7232621372	-0.7500508751	 0.111153
H	 2.5108751714	-1.9397108037	-1.0404343524	 0.106014
H	 3.4665130032	-2.3982149489	 1.4580607199	 0.121919
H	 2.4886550715	-1.766612335	 2.8099248208	 0.120126
H	 0.8149110411	-3.6235514705	 2.4767898484	 0.077374
H	 0.6400971612	-0.0592535172	 2.2042927901	 0.084555
41.0898	46.2372	112.5747	132.1654	228.1823	235.895	280.4005	362.1095	447.9209	473.4138	509.7152	604.3259	625.8442	806.2484	828.4649	849.4647	873.971	910.4548	930.2793	968.5476	994.9761	1011.3557	1047.8597	1059.6024	1109.7661	1125.1462	1167.7044	1193.1082	1208.6316	1243.6212	1285.3494	1291.8135	1312.5356	1322.0363	1345.2766	1376.1346	1409.7522	1417.5826	1457.5975	1483.742	1497.3321	1498.7127	1502.5168	1709.218	1834.6889	2865.5246	2972.0362	3004.9972	3024.9025	3026.9422	3038.8305	3055.0721	3088.3288	3094.8457	3097.5119	3099.783	3172.7004
CC1CCC(CC=O)=C1	C[C@H]1CCC(=C1)CC=O	
InChI=1S/C8H12O/c1-7-2-3-8(6-7)4-5-9/h5-7H,2-4H2,1H3	InChI=1S/C8H12O/c1-7-2-3-8(6-7)4-5-9/h5-7H,2-4H2,1H3/t7-/m0/s1
