20
gdb 113811	3.00162	0.97612	0.89059	3.5862	75.55	-0.2486	0.0616	0.3102	1393.4598	0.169853	-440.229116	-440.219499	-440.218555	-440.265212	34.864	
C	 0.9668110745	 1.1378563729	-0.2445308761	-0.42185
C	 0.000065632	 0.0612581487	 0.1786719707	 0.078939
O	 0.5559291287	-1.2019258233	 0.555502457	-0.248832
C	-0.1125700105	-0.4313996224	 1.5628502668	 0.045894
C	 0.690149721	 0.1505944984	 2.6921548754	-0.082039
N	 0.7045159755	-0.6064503606	 3.957960616	-0.354872
C	 1.9641315011	-0.4199847883	 3.2139695739	-0.024709
C	 2.6069552177	-1.6958304903	 2.7213000913	-0.07126
O	 3.2614103893	-2.3587570071	 3.7945233956	-0.424052
H	 1.8209958874	 1.1929134099	 0.433886438	 0.131068
H	 1.3422983632	 0.9360273918	-1.2529270221	 0.131798
H	 0.4688427475	 2.1136400148	-0.2629624894	 0.121727
H	-0.8889628931	-0.0273192192	-0.4490469026	 0.089283
H	-1.065720869	-0.8589380323	 1.8764086452	 0.101707
H	 0.594178656	 1.2327114111	 2.7803223898	 0.093842
H	 0.6533471684	 0.030341597	 4.7483115638	 0.233458
H	 2.675818784	 0.2952318653	 3.6251068177	 0.088969
H	 1.8596133146	-2.3365275384	 2.2418946025	 0.115486
H	 3.3798048061	-1.4719963178	 1.979519658	 0.108879
H	 2.5738935957	-2.5768155904	 4.4339377285	 0.286564
15.2118	86.7725	139.0607	148.7899	187.4226	239.0465	297.4276	380.7282	391.8013	419.3717	465.5723	527.2785	661.5312	787.1065	791.8521	829.5759	872.6648	927.7278	934.3137	979.4594	1002.5122	1005.0742	1060.6212	1071.3758	1083.9664	1138.4491	1165.0835	1175.2803	1180.3767	1221.8866	1270.1613	1270.912	1301.1869	1358.8643	1372.4125	1402.5485	1412.1694	1431.8529	1459.3807	1478.415	1488.8923	1491.6358	1505.1625	3037.6871	3049.2214	3084.1416	3092.8745	3099.4552	3100.2947	3105.3183	3119.0997	3132.2443	3505.8321	3799.6393
CC1OC1C1NC1CO	C[C@H]1O[C@H]1[C@H]1N[C@H]1CO	
InChI=1S/C6H11NO2/c1-3-6(9-3)5-4(2-8)7-5/h3-8H,2H2,1H3	InChI=1S/C6H11NO2/c1-3-6(9-3)5-4(2-8)7-5/h3-8H,2H2,1H3/t3-,4+,5+,6-/m1/s1
