16
gdb 127159	4.39424	1.10397	0.88723	2.8937	77.63	-0.2189	-0.0134	0.2054	1244.6798	0.125107	-434.060392	-434.051975	-434.051031	-434.094864	29.765	
C	-0.0108694953	 1.4394831735	-0.0904795901	-0.353769
N	-0.0076902036	-0.0211104873	 0.0213817016	-0.183625
C	-0.0197124376	-0.627581579	 1.2660008811	 0.101154
N	-0.03268258	 0.0416595982	 2.347086177	-0.475733
C	 0.0078953108	-0.7826019887	-1.1233908288	 0.55998
C	 0.0183795825	-2.130616174	-1.3806136432	-0.377259
C	 0.0321492608	-2.177735745	-2.7948847446	 0.041411
N	 0.0305883162	-0.9951880119	-3.3567065001	-0.155442
O	 0.0147096822	-0.0924288884	-2.2720245421	-0.228937
H	 0.8819219152	 1.7818930678	-0.6195811908	 0.147454
H	-0.8936063027	 1.7765159547	-0.6395016275	 0.147534
H	-0.0234109901	 1.8376902409	 0.92158781	 0.178164
H	-0.0170058699	-1.7178718476	 1.1979907684	 0.113881
H	-0.0403286379	-0.5828841499	 3.1494084177	 0.233382
H	 0.01711176	-2.9557562191	-0.6914523921	 0.11819
H	 0.0434913494	-3.0525223441	-3.4307721465	 0.133615
26.0454	88.6602	130.0413	197.655	230.7681	333.6338	336.4864	458.1569	490.8434	628.5622	712.7839	737.0033	758.3151	799.756	896.6789	921.5088	934.7351	938.6855	1038.3214	1043.0123	1074.0384	1117.698	1159.4048	1207.1083	1237.7404	1317.471	1367.3826	1406.7108	1434.7714	1448.2186	1499.4582	1507.7403	1555.2407	1638.3693	1719.6775	3057.7764	3099.6	3121.1876	3185.177	3238.6742	3293.6453	3526.9055
CN(C=N)C1=CC=NO1	CN(C=N)c1ccno1	
InChI=1S/C5H7N3O/c1-8(4-6)5-2-3-7-9-5/h2-4,6H,1H3	InChI=1S/C5H7N3O/c1-8(4-6)5-2-3-7-9-5/h2-4,6H,1H3
