19
gdb 111032	2.52565	1.26188	0.98666	1.0989	83.61	-0.2577	0.0426	0.3003	1244.8977	0.158731	-385.797323	-385.788636	-385.787692	-385.830905	33.428	
O	-0.1200741258	 1.4799621274	-0.1678080749	-0.421051
C	 0.0387878406	 0.0869881052	 0.0791950048	-0.143424
C	-1.3408625262	-0.5327408662	-0.006141909	 0.034424
C	-2.0453307986	-0.8247804413	-1.3685680641	-0.078471
C	-1.0960611906	-2.0408437708	-1.564705731	-0.267779
C	-1.5347584942	-2.0924954728	-0.0601890418	 0.243574
C	-2.980655809	-1.786093364	-0.5802371838	-0.258354
C	-1.1451978646	-3.0494079773	 0.9357294203	 0.057161
C	-0.8105892074	-3.8441589025	 1.7752295777	-0.368883
H	 0.7357578753	 1.9031991007	-0.0533244899	 0.287182
H	 0.7397767013	-0.3614342186	-0.6379897546	 0.088208
H	 0.4446633186	-0.0960837515	 1.0871147621	 0.094847
H	-1.9889961876	-0.039075279	 0.7259952159	 0.077973
H	-2.340253657	-0.0929744561	-2.1184512915	 0.083851
H	-1.4721798561	-2.8539346379	-2.1907164131	 0.097918
H	-0.0437228815	-1.8468630505	-1.7728782295	 0.100373
H	-3.6647790103	-1.3336227524	 0.1419788607	 0.098733
H	-3.4599906645	-2.5858754254	-1.1497384091	 0.096557
H	-0.5199232625	-4.5483530568	 2.5147855507	 0.177161
62.0552	109.9928	170.6455	209.6748	244.5614	329.5494	368.8719	491.0238	509.4757	547.7827	582.2775	619.3701	630.2146	633.2735	768.5623	805.8916	874.8851	912.0433	946.4899	953.0918	999.6463	1024.7413	1065.4067	1074.9923	1099.5345	1128.0509	1140.7548	1155.006	1161.5044	1213.4658	1222.07	1238.2501	1261.8457	1263.2093	1286.8357	1402.7667	1469.0952	1502.2464	1518.9741	1545.7005	2230.3749	2975.1202	3015.0263	3053.3771	3058.4445	3069.7	3126.1458	3133.8175	3137.6357	3502.3603	3829.0864
OCC1C2CC1(C2)C#C	OC[C@H]1[C@H]2C[C@@]1(C2)C#C	
InChI=1S/C8H10O/c1-2-8-3-6(4-8)7(8)5-9/h1,6-7,9H,3-5H2	InChI=1S/C8H10O/c1-2-8-3-6(4-8)7(8)5-9/h1,6-7,9H,3-5H2/t6-,7-,8+/m0/s1
