15
gdb 32193	2.03559	1.8037	1.00009	1.1902	69.73	-0.2465	-0.0529	0.1935	1118.8366	0.113812	-453.993423	-453.985434	-453.98449	-454.026404	28.808	
O	 0.1660245476	 1.2006962902	-0.6030381062	-0.40732
C	 0.0008529753	-0.0076492849	 0.1312743579	-0.191794
C	-1.4059817168	-0.5241970211	 0.1245011493	 0.321929
N	-2.092066931	-0.8341016647	 1.1911824949	-0.300189
C	-3.3203156082	-1.2929655266	 0.7364736985	-0.097793
C	-3.3793668994	-1.2536696103	-0.6206656016	-0.102727
N	-2.147668976	-0.7564702697	-1.0324559005	-0.095476
C	-1.766627833	-0.5228666064	-2.3627920775	 0.158866
O	-2.4727464155	-0.7878076688	-3.2982046706	-0.279579
H	-0.3687945207	 1.8798214426	-0.1772878378	 0.293955
H	 0.6842241655	-0.7240918512	-0.3379304813	 0.13218
H	 0.2943760623	 0.0934651039	 1.1825221729	 0.139103
H	-4.0835650032	-1.6163144549	 1.4272496953	 0.124711
H	-4.1371192259	-1.5039372048	-1.3423130631	 0.162785
H	-0.772630401	-0.0596969134	-2.4356345801	 0.141348
89.409	136.39	153.8106	209.2171	265.1834	313.344	376.9603	420.7638	550.4557	632.2637	659.5088	751.2111	791.0161	843.644	882.8518	927.8038	965.6247	1038.3179	1055.9479	1087.4218	1134.4604	1177.2445	1204.5407	1294.9881	1356.6562	1369.7152	1409.582	1425.3827	1451.3946	1495.9691	1530.6461	1591.2993	1822.2004	3038.4122	3054.5637	3082.0629	3257.2772	3303.1628	3806.897
OCC1=NC=CN1C=O	OCc1nccn1C=O	
InChI=1S/C5H6N2O2/c8-3-5-6-1-2-7(5)4-9/h1-2,4,8H,3H2	InChI=1S/C5H6N2O2/c8-3-5-6-1-2-7(5)4-9/h1-2,4,8H,3H2
