18
gdb 8208	2.71938	2.41114	1.66298	2.1437	67.34	-0.2226	0.0748	0.2974	846.523	0.153356	-384.930845	-384.923088	-384.922144	-384.962224	30.352	
C	-0.0773122527	 1.4889552078	 0.0250343587	-0.46274
C	 0.0218194942	-0.0072150949	 0.0564083193	 0.411669
C	 1.3303894697	-0.7339874006	-0.2291739374	-0.426688
C	 0.6801953886	-0.8004717351	 1.144203325	 0.332545
O	 1.2696582535	-0.1471116098	 2.2258284741	-0.471621
C	-0.2477632151	-1.975860944	 1.4169804178	-0.297823
C	-1.1602776304	-1.9816846758	 0.1745682751	-0.0965
O	-1.1674009139	-0.6491729075	-0.3426748692	-0.296384
H	 0.8049570885	 1.9313939049	 0.4932844782	 0.129005
H	-0.1551421377	 1.8584861655	-1.0022982223	 0.122569
H	-0.9635539002	 1.8184517867	 0.5758165235	 0.125948
H	 1.3408613214	-1.610270471	-0.8692528888	 0.110414
H	 2.2113376525	-0.10476539	-0.3028910025	 0.113319
H	 2.0724339705	-0.6240369522	 2.4626605771	 0.283273
H	 0.2642602058	-2.9341165555	 1.5522908393	 0.097024
H	-0.8089148444	-1.7542656936	 2.3307171535	 0.116145
H	-0.7793990447	-2.6778884458	-0.5860135247	 0.097721
H	-2.1937302356	-2.2610564292	 0.3960184533	 0.112125
182.9187	191.2436	206.019	223.1576	297.8213	363.7896	388.8467	437.1866	498.8384	553.152	652.6658	710.1143	735.8692	845.1522	888.5524	911.1394	930.692	949.7317	969.1068	1019.0703	1060.3983	1082.3482	1114.9314	1165.8996	1203.136	1234.4978	1239.5415	1257.76	1306.0538	1340.1496	1392.3166	1405.1511	1424.4733	1477.1499	1481.4658	1494.3211	1512.1864	1528.2921	3000.126	3041.9363	3044.56	3082.6536	3095.6682	3106.742	3125.5034	3131.2407	3216.689	3795.1481
CC12CC1(O)CCO2	C[C@@]12C[C@]1(O)CCO2	
InChI=1S/C6H10O2/c1-5-4-6(5,7)2-3-8-5/h7H,2-4H2,1H3	InChI=1S/C6H10O2/c1-5-4-6(5,7)2-3-8-5/h7H,2-4H2,1H3/t5-,6-/m1/s1
