21
gdb 67632	2.36651	1.86755	1.56314	0.176	85.53	-0.2073	0.098	0.3053	1006.792	0.183228	-349.927342	-349.919391	-349.918447	-349.959161	32.377	
C	-0.1141551124	 1.5111515434	 0.0029505644	-0.51826
C	 0.0084571245	 0.017685398	-0.0059573712	 0.302549
C	 0.87362705	-0.8202215204	-0.9866245617	-0.14121
C	 1.1323663685	-2.1278190557	-0.2625205247	-0.073191
C	 0.9458092682	-1.9537714166	 1.2328087839	-0.238102
C	-0.1441021298	-0.8987013185	 1.201191648	-0.175757
C	-1.0497435537	-1.075567566	-0.0107425348	 0.302551
C	-2.546436644	-1.0016909673	-0.0080522767	-0.51826
C	-0.1798073556	-1.9085729955	-0.9913677808	-0.141214
H	 0.8244082203	 1.9886922579	 0.3114707967	 0.117319
H	-0.3710657036	 1.9008308256	-0.9893440163	 0.116161
H	-0.8937702904	 1.8395458815	 0.698331133	 0.115949
H	 1.473707268	-0.4375719571	-1.8016807256	 0.079447
H	 1.8541657342	-2.8246673466	-0.673097615	 0.079578
H	 0.6205599575	-2.8785322968	 1.7239211336	 0.094551
H	 1.8573211129	-1.6007721215	 1.7294980409	 0.094552
H	-0.5701855182	-0.4902698895	 2.1115188633	 0.074459
H	-2.9030981232	-0.2363423621	 0.6892501902	 0.11595
H	-2.9399352902	-0.75311183	-1.000961691	 0.116161
H	-2.9944884076	-1.9566949437	 0.2941857536	 0.117319
H	-0.5391313053	-2.5171318193	-1.8107432298	 0.079447
162.041	182.4591	197.7917	220.1572	281.8179	301.8709	410.4608	562.2704	585.6847	597.9285	719.377	739.3787	751.7871	774.6829	824.677	860.0416	875.5143	929.8014	940.8752	952.5131	971.9017	987.6632	1014.3013	1029.6537	1052.4616	1070.9224	1096.254	1106.8919	1163.429	1185.4067	1205.5374	1207.0742	1225.0466	1278.2453	1300.9586	1335.1188	1369.3966	1410.2161	1416.6067	1469.4797	1482.8024	1486.9257	1491.9414	1495.8071	1506.9364	3013.3817	3016.0691	3029.6251	3068.6002	3069.2442	3069.7601	3088.589	3092.3221	3171.5795	3181.1075	3191.0677	3204.2028
CC12C3C4CC1C2(C)C34	C[C@@]12[C@H]3[C@H]4C[C@@H]1[C@]2(C)[C@@H]34	
InChI=1S/C9H12/c1-8-5-3-4-6(8)7(4)9(5,8)2/h4-7H,3H2,1-2H3	InChI=1S/C9H12/c1-8-5-3-4-6(8)7(4)9(5,8)2/h4-7H,3H2,1-2H3/t4-,5+,6+,7-,8+,9-
