20
gdb 64096	3.18254	1.2275	1.11958	4.1569	74.8	-0.2263	0.0123	0.2386	1173.1645	0.171206	-440.321045	-440.312092	-440.311148	-440.35437	34.289	
C	-0.1058703574	 1.5369216155	 0.0168132186	-0.426943
C	-0.0394028176	 0.0068039652	 0.001468514	 0.216496
C	-1.4597360662	-0.5806399606	-0.0328570006	-0.405111
C	 0.7755586765	-0.4484982948	-1.2161007671	-0.069537
O	 1.064776514	-1.8585192128	-1.2262660187	-0.230688
C	 1.2892404186	-2.5417540405	-0.0792888742	 0.396037
O	 1.6850237864	-3.6742967963	-0.1328258846	-0.32508
C	 0.9343765608	-1.8632999909	 1.2447300814	-0.321599
N	 0.6505623218	-0.4315537399	 1.2280543499	-0.306906
H	 0.8969966214	 1.9770358084	 0.0634053624	 0.111538
H	-0.5989999103	 1.9200002348	-0.8815921962	 0.121891
H	-0.6654177678	 1.8766489044	 0.8922382889	 0.134237
H	-2.0187556927	-0.1711355623	-0.8794680148	 0.118047
H	-1.4573458265	-1.6685537264	-0.1401994132	 0.128865
H	-1.9881916631	-0.327984292	 0.8900833016	 0.128682
H	 0.2499931127	-0.2599372549	-2.157372969	 0.119193
H	 1.7296288095	 0.0948951869	-1.246352018	 0.101928
H	 0.0655082515	-2.4152752759	 1.6268743979	 0.148469
H	 1.7473215876	-2.0720037343	 1.944061775	 0.142926
H	 1.5236462108	 0.0817549766	 1.3043360767	 0.217557
76.0439	148.5025	202.1397	226.2192	250.0265	279.8318	328.8209	375.2827	430.571	452.376	490.036	528.0418	561.1386	708.4566	759.5148	798.6295	815.6156	898.2256	925.0136	955.0087	992.7107	1018.4383	1053.5416	1082.4091	1128.6649	1194.7153	1211.0596	1231.7284	1258.7443	1280.2688	1323.9004	1358.9606	1400.1755	1410.0994	1430.0858	1458.2804	1474.6707	1486.9274	1491.2169	1504.5874	1507.6055	1518.42	1843.4118	3012.3809	3029.6323	3032.9258	3047.1321	3080.1873	3100.3131	3107.4707	3115.4297	3122.4475	3127.1171	3505.449
CC1(C)COC(=O)CN1	CC1(C)COC(=O)CN1	
InChI=1S/C6H11NO2/c1-6(2)4-9-5(8)3-7-6/h7H,3-4H2,1-2H3	InChI=1S/C6H11NO2/c1-6(2)4-9-5(8)3-7-6/h7H,3-4H2,1-2H3
