17
gdb 75935	2.74477	1.59103	1.15027	3.2628	68.02	-0.2708	0.0014	0.2722	1055.1216	0.13639	-458.988978	-458.98106	-458.980116	-459.021396	30.344	
O	 0.3243157125	 1.0148045518	-0.7029300961	-0.436167
C	 0.0484406629	-0.2110104355	-0.087116743	-0.072674
C	 0.3990013762	-0.1927594037	 1.4008953567	 0.419484
O	 1.2592045802	 0.4722988723	 1.9079626199	-0.357778
O	-0.4286800435	-1.0124399424	 2.0797702974	-0.218473
C	-1.4457461441	-1.5338852214	 1.1845171307	-0.155584
C	-1.4122901691	-0.6198168098	-0.0280224796	 0.295935
C	-2.501619288	 0.3818314413	-0.2977214619	-0.298002
C	-2.2970195531	-0.7982082253	-1.2215985454	-0.338434
H	 0.9643978555	 1.4624915505	-0.1305941968	 0.29979
H	 0.6387798345	-1.0218398065	-0.5529706852	 0.100829
H	-1.1846529253	-2.5706770915	 0.9405909036	 0.12289
H	-2.3962868642	-1.5230094736	 1.7219128112	 0.13203
H	-3.3709590492	 0.3803301485	 0.3514009871	 0.115577
H	-2.1876737646	 1.3571347283	-0.6493122738	 0.142803
H	-1.8671502702	-0.6090927485	-2.1995445763	 0.131526
H	-3.0297124105	-1.5990778542	-1.2011091987	 0.116248
84.2809	183.386	220.7018	248.7217	276.4913	345.7368	359.504	482.4752	515.171	544.7727	637.2313	721.5779	783.6778	794.1678	876.3484	898.941	948.9221	976.7674	996.5684	1024.6699	1063.097	1072.8721	1091.8445	1145.0751	1190.6513	1193.9251	1220.1363	1239.2779	1290.3771	1341.155	1376.9365	1401.2403	1434.9523	1462.0341	1505.8683	1519.5099	1872.7299	2933.1499	3035.7125	3109.8117	3126.9696	3139.4881	3210.9886	3235.8563	3734.735
OC1C(=O)OCC11CC1	O[C@H]1C(=O)OCC21CC2	
InChI=1S/C6H8O3/c7-4-5(8)9-3-6(4)1-2-6/h4,7H,1-3H2	InChI=1S/C6H8O3/c7-4-5(8)9-3-6(4)1-2-6/h4,7H,1-3H2/t4-/m0/s1
