19
gdb 40561	3.89524	1.15517	0.95562	0.7289	79.24	-0.2286	0.0146	0.2431	1247.4672	0.161134	-419.181263	-419.173267	-419.172323	-419.214114	30.329	
C	 0.0182357467	 1.1743536659	-0.4116729331	-0.236801
C	 1.2073857436	 0.4683359538	 0.1500330991	-0.210423
N	-0.128000934	 0.1220895952	 0.5988438938	-0.109707
C	-0.6782371882	-1.11819413	 0.2381089091	 0.301106
N	 0.0587427218	-2.1276300545	 0.0106179326	-0.275849
C	-0.5994966058	-3.4094709501	-0.22891522	-0.14887
C	-2.0555599556	-3.4422425685	 0.2251275287	-0.094426
O	-2.7434976729	-2.3034534239	-0.2722263708	-0.242281
C	-2.1952196334	-1.1170764084	 0.2530305103	-0.153865
H	-0.2364880146	 2.1790027711	-0.0869029222	 0.123001
H	-0.2639639461	 0.9330186944	-1.4341136198	 0.125719
H	 1.7109983637	-0.2588656393	-0.4789026668	 0.140904
H	 1.8301468418	 0.9646573507	 0.888123088	 0.121496
H	-0.5372338414	-3.6311308215	-1.3027765011	 0.11326
H	-0.0276577153	-4.1932511214	 0.2836695977	 0.10528
H	-2.5780014432	-4.3200342001	-0.1651287734	 0.10981
H	-2.1115855362	-3.4687038783	 1.3262560959	 0.092167
H	-2.5336213477	-0.9385907494	 1.2885651174	 0.115306
H	-2.5730858834	-0.2890278456	-0.3560832154	 0.124173
85.3429	107.6402	198.5771	216.3303	272.9808	353.1473	419.1368	497.2913	521.8408	578.2789	623.0952	803.1276	830.743	874.5465	903.1347	915.5223	942.8088	1007.326	1021.4267	1038.7932	1096.6655	1117.813	1121.5853	1132.8329	1144.9074	1173.4844	1187.0162	1202.0862	1235.5643	1268.1158	1309.953	1350.0105	1370.5712	1388.584	1424.1429	1477.8293	1481.8445	1491.6223	1497.1584	1518.0693	1730.8555	2959.9678	2970.0673	3016.8053	3048.7061	3071.8796	3091.4305	3104.757	3124.3216	3192.7152	3217.3865
C1CN1C1=NCCOC1	C1CN1C1=NCCOC1	
InChI=1S/C6H10N2O/c1-4-9-5-6(7-1)8-2-3-8/h1-5H2	InChI=1S/C6H10N2O/c1-4-9-5-6(7-1)8-2-3-8/h1-5H2
