16
gdb 51681	3.27267	1.10342	0.87327	4.0625	72.66	-0.2459	-0.04	0.2059	1269.4299	0.123794	-437.936086	-437.927786	-437.926842	-437.970235	29.414	
O	 0.2508262751	-0.1658459797	 0.2302175932	-0.230065
C	 0.1239968313	 0.9633578665	-0.1608439948	 0.151228
C	 1.2089963367	 2.028409008	-0.0708200586	-0.254582
N	 1.1955576266	 2.933212954	-1.1889698631	-0.106527
C	 1.6370995469	 2.5989531296	-2.5257375138	-0.225537
C	 1.5329123629	 3.9170403678	-3.2458107348	-0.076605
C	 1.1095310185	 4.8671517639	-2.4113145988	-0.183204
C	 0.8966233603	 4.282185112	-1.057397917	 0.409546
O	 0.5455540098	 4.8257365348	-0.0303236338	-0.393918
H	-0.823607579	 1.3286314516	-0.6203656487	 0.086633
H	 1.0012345232	 2.6422400058	 0.8170933617	 0.170445
H	 2.1805031136	 1.5382360092	 0.0642960095	 0.127172
H	 2.6679754814	 2.2128313704	-2.5313264883	 0.132885
H	 1.0062712672	 1.8286860604	-2.9936671508	 0.133841
H	 1.777898348	 4.0208479836	-4.2944632605	 0.127248
H	 0.9351552273	 5.9136071821	-2.6147175515	 0.131439
56.5523	66.5838	112.5973	202.4281	272.9842	321.3515	379.2969	421.912	540.0635	662.029	671.921	724.6357	782.3717	821.71	849.0752	953.958	970.4983	1011.427	1030.361	1050.7213	1090.783	1138.5157	1186.9231	1205.8118	1267.5644	1323.543	1338.2535	1366.2582	1410.1672	1417.7618	1442.7626	1496.3645	1655.1212	1804.8936	1841.4621	2871.3897	2992.7509	3015.0022	3018.8283	3073.0907	3224.052	3255.5776
O=CCN1CC=CC1=O	O=CCN1CC=CC1=O	
InChI=1S/C6H7NO2/c8-5-4-7-3-1-2-6(7)9/h1-2,5H,3-4H2	InChI=1S/C6H7NO2/c8-5-4-7-3-1-2-6(7)9/h1-2,5H,3-4H2
