16
gdb 37608	2.83235	1.45317	1.05262	1.8869	82.52	-0.2148	-0.0385	0.1763	1122.9538	0.123439	-400.707827	-400.700027	-400.699083	-400.740479	29.388	
C	 0.0823102429	 1.674365611	-0.1873004946	-0.307786
N	 1.3973221248	 0.9988240966	 0.1576630332	-0.120638
C	 0.6635503802	-0.2121079666	 0.7575239395	-0.232221
C	 1.2711720335	-1.0390425247	-0.3634310814	 0.304575
C	 1.2762672968	-2.4436074397	-0.6710969054	-0.097646
C	 0.6152276783	-3.3788255334	 0.0199294183	-0.341557
O	-1.8171326214	 0.1989080484	 0.5965430169	-0.283374
C	-0.6713586531	 0.4688768628	 0.3978925694	 0.406282
C	 1.8126597302	 0.0882232462	-0.8760517424	-0.184826
H	-0.0780654327	 2.5817934788	 0.403404509	 0.144462
H	-0.0587748245	 1.8988854938	-1.2461056576	 0.14019
H	 0.8388978848	-0.471552283	 1.8037318445	 0.118188
H	 1.8646829161	-2.7322952872	-1.5402097393	 0.095545
H	 0.6502346373	-4.4239433594	-0.2635806976	 0.120569
H	 0.0113472366	-3.1267681644	 0.8859856766	 0.116775
H	 2.3753482503	 0.3587540908	-1.7618421393	 0.121462
89.3139	108.6043	187.7651	191.9265	382.9168	384.8093	430.0826	507.9631	542.007	628.9169	678.0483	729.6343	801.6588	861.5554	887.5781	907.0422	933.4305	946.0808	1012.339	1018.2802	1031.7314	1047.3521	1074.8764	1140.5874	1165.9826	1195.8506	1233.8844	1268.2053	1295.2425	1322.7812	1446.428	1452.7413	1632.2102	1709.346	1901.2482	3060.3931	3102.2872	3126.0565	3145.6136	3155.3389	3203.5786	3241.8538
C1N2C3C4=CCOC13C24	C1N2[C@H](C(=C2)C=C)C1=O	
InChI=1S/C7H7NO/c1-2-9-7-3-8-5(7)4(1)6(7)8/h1,5-6H,2-3H2	InChI=1S/C7H7NO/c1-2-5-3-8-4-6(9)7(5)8/h2-3,7H,1,4H2/t7-/m1/s1
