20
gdb 63354	2.504	1.40322	1.12212	3.7811	82.21	-0.2367	0.0133	0.25	1177.86	0.171029	-403.208218	-403.199211	-403.198267	-403.242058	34.599	
C	-0.2359368032	 1.6037781313	 0.0083766288	-0.39249
C	 0.0093743424	 0.0784430587	 0.0282034916	 0.201142
C	-1.3461905516	-0.6626947412	 0.048477404	-0.392489
N	 0.7410515574	-0.3015004287	-1.181736798	-0.331614
C	 1.9597645046	-0.8996535283	-1.3224387935	 0.404519
O	 2.4281589381	-1.1477214385	-2.4189930195	-0.385995
C	 2.7058616849	-1.2423677527	-0.0409313485	-0.394219
C	 1.998065959	-0.8740741909	 1.2266786344	-0.086397
C	 0.8057068992	-0.2900524978	 1.2516218121	-0.049779
H	 0.7136562771	 2.1442094745	-0.0137142441	 0.127679
H	-0.8177130159	 1.8876761063	-0.8757433792	 0.112632
H	-0.7966121886	 1.9190505961	 0.8938832884	 0.11789
H	-1.9393912612	-0.402383933	-0.8353084329	 0.112631
H	-1.1912099451	-1.7444573532	 0.055218284	 0.127687
H	-1.9266488961	-0.3875570546	 0.9346161766	 0.117883
H	 0.2953812871	-0.0985163033	-2.0667820776	 0.236701
H	 2.9238568267	-2.3176116133	-0.0742854149	 0.142046
H	 3.6878447757	-0.7557042952	-0.1014443467	 0.142043
H	 2.5049254215	-1.1059936207	 2.16013061	 0.097809
H	 0.3309806981	-0.0413008356	 2.196714435	 0.09232
54.9347	77.7202	229.7973	240.7459	264.2864	316.8113	335.2964	396.8824	482.1695	491.79	493.5598	534.7065	541.3239	654.1646	667.0721	748.1987	840.317	907.3835	924.356	956.2207	973.7752	974.3856	1007.5628	1017.2616	1024.4271	1171.1259	1171.4943	1207.3087	1208.3678	1299.531	1338.7275	1373.9174	1395.4703	1408.5315	1425.882	1451.2389	1459.1606	1478.5399	1482.3232	1501.1357	1507.8119	1743.7702	1785.3818	3030.0015	3030.3694	3034.9874	3052.5543	3098.0541	3104.6969	3122.6885	3124.989	3149.9625	3174.6187	3585.0532
CC1(C)NC(=O)CC=C1	CC1(C)NC(=O)CC=C1	
InChI=1S/C7H11NO/c1-7(2)5-3-4-6(9)8-7/h3,5H,4H2,1-2H3,(H,8,9)	InChI=1S/C7H11NO/c1-7(2)5-3-4-6(9)8-7/h3,5H,4H2,1-2H3,(H,8,9)
