22
gdb 77696	2.53539	1.32275	1.1642	0.7468	82.19	-0.2356	0.0684	0.304	1195.0351	0.192582	-404.316957	-404.30732	-404.306376	-404.350681	37.607	
C	-0.7572372334	 1.01755105	 0.0812122653	-0.440994
C	-0.064887554	-0.3358118509	 0.0574181868	-0.067775
C	 0.8435029318	-0.7273578298	-1.1205447616	 0.346139
C	 0.5020542678	-0.9871372165	-2.5296979656	-0.31638
N	 1.3209080513	 0.1917884314	-2.158423124	-0.363402
C	 1.8184257725	-1.4243417084	-0.1709976516	-0.351433
C	 1.136632384	-0.647567901	 1.0062356424	 0.396924
C	 1.941548744	 0.5660996263	 1.4587822141	-0.453904
O	 0.7058721097	-1.4187893479	 2.1129871609	-0.485268
H	-0.0535108186	 1.8451795285	-0.0542218122	 0.11745
H	-1.5117428404	 1.0860458246	-0.7112323132	 0.114659
H	-1.2735051847	 1.1731936777	 1.0338548002	 0.128646
H	-0.8007953072	-1.1318699433	 0.2191070537	 0.089752
H	 1.0330717479	-1.7518658884	-3.0909920141	 0.115925
H	-0.5252939039	-0.8257824831	-2.8496097194	 0.107285
H	 0.737510798	 1.026091554	-2.1805341358	 0.226752
H	 1.6268682198	-2.4977673572	-0.0874480781	 0.101758
H	 2.8815073478	-1.2439501915	-0.3487252553	 0.10179
H	 2.2589286907	 1.1754774422	 0.6075287247	 0.133178
H	 1.358712383	 1.1903837801	 2.1428803012	 0.120805
H	 2.8501392377	 0.2411494642	 1.9815202423	 0.105136
H	 1.4654503563	-1.5763616711	 2.6843033595	 0.272957
69.5421	188.0551	221.6235	232.6275	246.2062	253.0895	279.0195	300.2495	344.98	366.0347	410.6708	502.8342	525.8398	546.6525	707.0036	751.8718	814.2519	864.667	891.5983	909.1247	919.9851	961.6332	974.8796	1015.3237	1045.9705	1069.9699	1087.2905	1101.9065	1143.8298	1159.9229	1182.1563	1197.829	1226.4168	1263.2255	1278.8648	1301.022	1361.3005	1382.8292	1404.4579	1408.9228	1419.4688	1471.5896	1488.4791	1490.1617	1500.8847	1506.8874	1516.8234	3022.3218	3028.7169	3042.3901	3055.9637	3087.4817	3091.5833	3096.5585	3104.2071	3115.2484	3118.7582	3179.6329	3481.9817	3800.739
CC1C2(CN2)CC1(C)O	C[C@H]1[C@]2(CN2)C[C@]1(C)O	
InChI=1S/C7H13NO/c1-5-6(2,9)3-7(5)4-8-7/h5,8-9H,3-4H2,1-2H3	InChI=1S/C7H13NO/c1-5-6(2,9)3-7(5)4-8-7/h5,8-9H,3-4H2,1-2H3/t5-,6+,7-/m1/s1
