23
gdb 94461	2.87885	1.28305	1.12282	1.6266	84.84	-0.2346	0.0821	0.3167	1229.0443	0.206878	-388.298686	-388.289688	-388.288743	-388.333399	34.327	
C	-0.2041263588	 1.4683455749	-0.3397118316	-0.413838
C	 0.1184603814	-0.0122169573	-0.1976355838	-0.115361
C	 1.542760843	-0.4638793401	-0.5796821236	-0.082638
O	 1.7865981297	-0.9941304374	 0.7345455582	-0.328758
C	 0.4623261197	-0.5911379746	 1.204916953	 0.459017
C	 0.567155205	 0.3281916948	 2.4441790544	-0.261879
C	 0.2186699962	-0.5548266087	 3.6748118565	-0.206656
C	 0.1701346317	-1.9978173846	 3.1311442258	-0.208022
C	-0.330575778	-1.8064662825	 1.6941564554	-0.248133
H	 0.561149287	 2.0954160056	 0.129280653	 0.121834
H	-0.2605498333	 1.7481162043	-1.3975496911	 0.11542
H	-1.1686440577	 1.7162538258	 0.1165068667	 0.117738
H	-0.6567222018	-0.6061642	-0.6921879693	 0.073215
H	 1.6166876527	-1.2335342225	-1.3583545394	 0.095222
H	 2.2350382511	 0.3530416112	-0.8268601599	 0.091976
H	 1.583485099	 0.7263606691	 2.4948774876	 0.111625
H	-0.11260625	 1.1812811374	 2.3636716572	 0.097259
H	 0.9354203364	-0.4362950556	 4.4914159204	 0.097288
H	-0.7638043715	-0.2761580677	 4.0718375033	 0.095218
H	 1.1778666427	-2.4271464163	 3.1045670979	 0.11408
H	-0.4589453102	-2.661751666	 3.7303002517	 0.089007
H	-1.4017076082	-1.559210961	 1.6941835799	 0.089415
H	-0.1814296062	-2.6720093089	 1.0433258778	 0.09697
37.6255	46.2177	180.3302	197.5294	242.1707	285.2879	376.4874	386.2262	450.2535	503.1028	576.6427	708.0255	753.8289	796.8453	853.0184	871.271	895.3904	909.7359	916.2434	942.8838	986.345	998.5477	1028.3005	1038.0237	1045.7557	1083.3056	1138.2102	1156.5669	1164.8643	1199.9549	1207.4127	1226.9344	1248.1482	1267.2576	1283.1214	1300.1068	1333.8363	1335.7326	1348.7964	1359.927	1388.0716	1411.6719	1470.1049	1473.2079	1490.823	1497.3506	1497.6201	1509.1357	1528.0608	2998.0808	3013.2306	3028.1927	3035.4074	3039.895	3045.7721	3054.7232	3060.675	3086.6114	3092.2302	3094.6022	3099.1547	3102.2811	3111.5716
CC1COC11CCCC1	C[C@H]1COC21CCCC2	
InChI=1S/C8H14O/c1-7-6-9-8(7)4-2-3-5-8/h7H,2-6H2,1H3	InChI=1S/C8H14O/c1-7-6-9-8(7)4-2-3-5-8/h7H,2-6H2,1H3/t7-/m0/s1
