17
gdb 80173	2.3328	1.77331	1.44525	3.8693	67.05	-0.2662	0.0123	0.2785	972.7286	0.135911	-458.986945	-458.978855	-458.977911	-459.019427	30.711	
C	-0.0326577745	 1.6244986466	 0.0287576023	-0.401439
C	 0.0513679764	 0.0960097301	-0.021529493	-0.146248
C	 0.81383707	-0.5398944537	-1.1685340393	-0.13742
C	 2.324637837	-0.4198653185	-1.1793357215	 0.071412
O	 2.9191725746	 0.5571465057	-0.3840379604	-0.411398
C	 1.6691995529	-1.6105876214	-0.5282968262	 0.011071
O	 1.5514583487	-1.5256449892	 0.8762633551	-0.22619
C	 0.7140270781	-0.4932548641	 1.2296400297	 0.432254
O	 0.5636040647	-0.1669560691	 2.3680767235	-0.333476
H	 0.9639240929	 2.0659992954	-0.0137094212	 0.151263
H	-0.6216595982	 2.0038930076	-0.8109724363	 0.112348
H	-0.514303259	 1.9339563576	 0.9599944673	 0.13851
H	-0.9693978593	-0.3115265747	-0.0275115858	 0.115086
H	 0.3053650462	-0.7133356416	-2.1089339996	 0.104197
H	 2.8087045885	-0.596987005	-2.1393645011	 0.101826
H	 3.5754689602	 0.1348009923	 0.1817545005	 0.30245
H	 1.7863337009	-2.627515208	-0.8804428341	 0.115754
101.0808	170.2279	195.4904	223.0103	250.3062	290.0863	342.2507	490.1782	549.6047	601.8636	649.3919	716.5988	753.401	783.7782	791.3769	811.6262	924.4463	1005.8058	1022.7813	1041.4802	1072.3754	1096.7985	1097.7052	1133.6028	1138.2163	1168.9402	1223.6856	1288.5215	1320.0571	1323.749	1351.8687	1360.1101	1405.019	1436.3647	1493.1119	1510.0747	1889.9068	3014.4575	3053.3811	3108.6399	3122.3308	3152.7114	3185.1624	3197.1932	3799.3514
CC1C2C(O)C2OC1=O	C[C@H]1[C@H]2[C@@H](O)[C@H]2OC1=O	
InChI=1S/C6H8O3/c1-2-3-4(7)5(3)9-6(2)8/h2-5,7H,1H3	InChI=1S/C6H8O3/c1-2-3-4(7)5(3)9-6(2)8/h2-5,7H,1H3/t2-,3-,4+,5-/m0/s1
