19
gdb 31661	2.25053	1.34301	0.85197	1.0045	81.12	-0.173	0.056	0.229	1348.336	0.159237	-419.224453	-419.214456	-419.213512	-419.260054	35.607	
C	 0.0201010393	 1.4447211457	-0.0031716604	-0.331541
N	-0.0604346447	 0.0030921191	 0.0072287697	 0.014072
C	-0.0259104577	-0.8019292825	-1.1150176917	-0.176077
C	 0.002161485	-2.1156041618	-0.6983972809	 0.11325
N	-0.0632302548	-3.2800403807	-1.4972565431	-0.608793
C	-0.002605426	-2.1079354044	 0.7291823676	 0.222824
C	-0.0254791898	-3.3065322674	 1.621016961	-0.193646
O	 0.127814594	-2.8801636979	 2.9682715268	-0.419459
C	-0.0326805802	-0.7883627905	 1.122610716	-0.177417
H	 1.0414104387	 1.8008951436	-0.1894168308	 0.13022
H	-0.6352449291	 1.8539617194	-0.7781963384	 0.133042
H	-0.3105394993	 1.8313758536	 0.963402344	 0.137867
H	-0.034295967	-0.3751577418	-2.10564157	 0.098052
H	 0.1183499377	-3.0763784556	-2.4727942575	 0.234082
H	 0.605103021	-3.9815670782	-1.196778699	 0.235488
H	-0.9702078642	-3.8616331176	 1.4886304185	 0.099451
H	 0.7826800251	-4.007992954	 1.3408676241	 0.076897
H	-0.0147923129	-3.6418265368	 3.5366727239	 0.285947
H	-0.0329521551	-0.363578942	 2.1124911401	 0.125741
38.6802	85.2963	146.4179	156.0223	189.8947	219.534	250.0446	266.637	317.1279	363.3125	538.0025	599.3223	612.5396	616.6611	626.4589	682.4562	758.4519	807.0515	840.9288	1026.8078	1045.9432	1068.1329	1086.4484	1114.9105	1148.8387	1178.5507	1196.8454	1228.3526	1244.3618	1274.7925	1395.8667	1428.8851	1442.4383	1460.8162	1479.9871	1488.0377	1519.2801	1520.7692	1584.167	1628.7895	1659.3243	2917.4496	2951.0174	3016.6149	3081.1591	3126.1686	3250.7795	3275.5506	3505.7452	3596.5909	3838.8971
CN1C=C(N)C(CO)=C1	Cn1cc(N)c(CO)c1	
InChI=1S/C6H10N2O/c1-8-2-5(4-9)6(7)3-8/h2-3,9H,4,7H2,1H3	InChI=1S/C6H10N2O/c1-8-2-5(4-9)6(7)3-8/h2-3,9H,4,7H2,1H3
