23
gdb 93684	3.1389	1.14712	1.06314	1.0425	88.41	-0.2419	0.0222	0.2641	1299.6365	0.204898	-388.312569	-388.303	-388.302055	-388.346217	37.473	
C	-0.2413358678	 1.5097762334	 0.018353381	-0.401123
C	-0.0142892315	-0.0077109632	 0.0197018295	-0.037488
C	 0.7413048603	-0.4627460028	-1.2334929173	-0.089678
O	 1.1065604219	-1.8279802961	-1.1629421792	-0.295799
C	 2.02219517	-2.1626782393	-0.1118451078	 0.320115
C	 1.8241100452	-3.6678449722	 0.1142658638	-0.40525
C	 3.4680892844	-1.8800854433	-0.566244999	-0.407188
C	 1.700398408	-1.4055746283	 1.1565426918	-0.088955
C	 0.7646483168	-0.4626612007	 1.228502601	-0.081869
H	 0.7114049992	 2.0509187432	 0.0161073126	 0.118354
H	-0.8107106936	 1.8237174712	-0.8629823276	 0.114109
H	-0.800266591	 1.8231020345	 0.9059909436	 0.115718
H	-0.9979049946	-0.5006743831	 0.0244104259	 0.08815
H	 0.1186514928	-0.3659627982	-2.1285899981	 0.100766
H	 1.6255902396	 0.1804702576	-1.3734384493	 0.084729
H	 2.0122886332	-4.2098722822	-0.8172073573	 0.120082
H	 2.510441464	-4.0416466526	 0.8800897869	 0.10814
H	 0.798229028	-3.8696762616	 0.4320121566	 0.121517
H	 3.614571093	-0.8186899084	-0.7841437264	 0.116201
H	 4.1836073737	-2.1604064385	 0.2134330921	 0.110985
H	 3.693814088	-2.4564407536	-1.4682691701	 0.118643
H	 2.2727800218	-1.6908753526	 2.0361335555	 0.086387
H	 0.5513876386	 0.0259432868	 2.1772368419	 0.083457
73.8287	187.3772	209.9596	223.6399	239.9147	251.7713	290.5169	316.8795	362.8057	390.5381	437.2182	473.9475	535.7827	585.7748	694.8572	748.6118	767.7963	852.4488	889.361	922.4869	935.8631	958.6507	979.2316	998.7392	1017.5044	1082.6931	1108.1849	1120.3109	1143.3416	1180.2052	1202.0017	1230.532	1256.7827	1296.0094	1316.154	1351.7131	1388.1979	1391.3961	1402.0098	1408.0602	1433.2396	1475.1888	1480.2627	1491.1702	1496.8903	1500.0322	1501.5	1507.4312	1719.6974	2970.4797	2993.8497	3028.6314	3037.1912	3042.4182	3073.2909	3097.8073	3100.5829	3108.1609	3115.9522	3119.1193	3125.502	3136.0715	3162.163
CC1COC(C)(C)C=C1	C[C@H]1COC(C)(C)C=C1	
InChI=1S/C8H14O/c1-7-4-5-8(2,3)9-6-7/h4-5,7H,6H2,1-3H3	InChI=1S/C8H14O/c1-7-4-5-8(2,3)9-6-7/h4-5,7H,6H2,1-3H3/t7-/m1/s1
