19
gdb 82414	2.58117	1.68004	1.22374	4.0294	74.99	-0.2267	0.0261	0.2528	1053.3206	0.16155	-419.214422	-419.206357	-419.205413	-419.247018	31.43	
C	-0.1385493198	 1.5201350026	 0.0759418149	-0.410219
C	 0.0013993898	-0.007669801	-0.0099735	-0.06541
N	 0.5810915988	-0.530745807	-1.2659041422	-0.09366
C	 1.419379452	 0.2808787857	-2.1433940867	-0.251957
C	 2.0182731777	-0.7908343587	-1.303750158	 0.001648
C	 2.8125179041	-0.412816853	-0.063981239	-0.205468
N	 2.045205847	-0.7743685957	 1.1201037537	-0.308536
C	 0.7120547551	-0.5174267168	 1.2525196542	 0.396699
O	 0.1115639629	-0.6621134313	 2.3012825785	-0.382419
H	 0.8283843363	 2.0309863757	 0.1297716247	 0.116212
H	-0.6813989103	 1.9019977292	-0.7933425222	 0.12635
H	-0.7000687316	 1.7712589411	 0.9790381866	 0.145541
H	-1.0052663426	-0.4304065867	 0.0598643737	 0.118918
H	 1.2529067951	 0.1253943799	-3.2061896621	 0.119453
H	 1.6513874363	 1.3076017245	-1.8705385337	 0.112455
H	 2.2876403007	-1.7451473506	-1.7518805288	 0.097366
H	 3.7617928757	-0.9545652737	-0.0419495276	 0.121983
H	 3.0560728192	 0.659232542	-0.0681172114	 0.111843
H	 2.5240613436	-1.013432456	 1.9755346753	 0.249203
63.0882	164.8254	240.3202	257.6087	297.6859	356.2621	430.0758	456.448	478.1108	517.225	559.7605	694.1525	737.4005	764.9431	806.4246	848.4501	898.7588	950.5211	985.8135	1043.9977	1070.9162	1088.1334	1108.9616	1124.4837	1130.2569	1148.6481	1168.4298	1267.8691	1314.1038	1319.3218	1326.6357	1359.3101	1381.3485	1400.5694	1409.1155	1472.9875	1493.8946	1498.3105	1510.1385	1523.0191	1792.7529	2995.9107	3040.1482	3060.7682	3084.6076	3102.9929	3111.2949	3121.9614	3129.7973	3184.8445	3618.7817
CC1N2CC2CNC1=O	C[C@H]1N2C[C@H]2CNC1=O	
InChI=1S/C6H10N2O/c1-4-6(9)7-2-5-3-8(4)5/h4-5H,2-3H2,1H3,(H,7,9)	InChI=1S/C6H10N2O/c1-4-6(9)7-2-5-3-8(4)5/h4-5H,2-3H2,1H3,(H,7,9)/t4-,5-,8?/m1/s1
