13
gdb 25071	6.13469	0.91432	0.79961	4.5261	64.8	-0.2461	0.0077	0.2538	1312.5766	0.087902	-456.575937	-456.568165	-456.567221	-456.608929	28.132	
O	-0.4907168875	 0.2512470562	-0.9988588225	-0.365748
C	-0.2289578705	 1.2495482279	-0.4126967945	 0.498933
O	-1.0282103986	 1.8919263515	 0.4907795878	-0.211343
C	-0.3405241027	 3.0085303193	 0.9316913828	-0.118508
C	 0.840928185	 3.0560977277	 0.3238446028	 0.323155
C	 2.0049202393	 3.986413522	 0.3692371287	-0.473532
C	 1.7926469335	 5.0928135397	 1.2947230879	 0.301102
C	 1.6107282936	 6.0010065562	 2.0584011245	-0.428392
O	 0.9372050312	 1.9654560473	-0.5244097581	-0.246421
H	-0.8212078281	 3.6410592526	 1.6549180215	 0.178496
H	 2.9054304649	 3.4232978776	 0.6511731076	 0.165791
H	 2.1995345319	 4.3697606703	-0.6420516063	 0.165792
H	 1.461385568	 6.8094678917	 2.7311309778	 0.210674
55.7471	108.2602	178.3246	276.6032	301.9627	332.492	423.9765	561.2155	590.8806	635.1491	671.0762	713.7229	753.1152	775.8581	787.3972	921.9188	954.9085	961.0081	983.4704	1064.7959	1136.6558	1219.3322	1220.5711	1296.4114	1382.4772	1465.1415	1746.0864	1944.6609	2251.3345	3012.7012	3036.5446	3318.1871	3502.5441
O=C1OC=C(CC#C)O1	O=c1occ(CC#C)o1	
InChI=1S/C6H4O3/c1-2-3-5-4-8-6(7)9-5/h1,4H,3H2	InChI=1S/C6H4O3/c1-2-3-5-4-8-6(7)9-5/h1,4H,3H2
