14
gdb 25212	2.60966	1.73768	1.04311	6.1444	78.24	-0.2336	-0.078	0.1556	1055.3117	0.103377	-436.74353	-436.736317	-436.735373	-436.775918	26.987	
O	-0.0243554347	 0.055828018	 0.6886110801	-0.306107
C	 0.0259380557	 1.1829063016	 0.2585953573	 0.301828
N	-1.1349490854	 1.9643584665	 0.343606276	-0.351523
C	-1.484108522	 3.2378111156	-0.0120857022	 0.01999
C	-0.7327925748	 4.1942283374	-0.6041237373	-0.121393
C	 0.6333515446	 4.0944791241	-1.0053416382	-0.074433
C	 1.5027115282	 3.0578190875	-0.9031058065	-0.177499
C	 1.3402478045	 1.7163162639	-0.3583442521	 0.261583
O	 2.2643771318	 0.9268909085	-0.3645028074	-0.299327
H	-1.8650375525	 1.4141229388	 0.7795603586	 0.267083
H	-2.515799263	 3.4627812597	 0.2360420307	 0.13573
H	-1.2320406293	 5.1375907646	-0.7904856538	 0.108756
H	 1.0330666384	 4.9958113551	-1.4644872438	 0.115943
H	 2.5107846886	 3.2037964087	-1.2796865115	 0.119368
49.5245	122.5848	336.952	341.1957	365.6637	408.4946	438.4038	541.468	595.5818	638.7664	730.8452	762.9671	766.6138	814.1866	887.3554	890.6812	960.7875	970.4359	1034.9029	1064.352	1200.1815	1223.4514	1297.8601	1364.879	1429.9456	1478.5374	1516.5213	1620.1772	1688.879	1740.0587	1793.2797	3152.7079	3181.4973	3187.2414	3207.1994	3572.9205
O=C1NC=CC=CC1=O	O=c1[nH]ccccc1=O	
InChI=1S/C6H5NO2/c8-5-3-1-2-4-7-6(5)9/h1-4H,(H,7,8,9)	InChI=1S/C6H5NO2/c8-5-3-1-2-4-7-6(5)9/h1-4H,(H,7,8,9)
