14
gdb 18750	3.19893	2.29174	1.61755	3.5716	56.59	-0.2769	-0.0062	0.2707	780.1395	0.107553	-419.680057	-419.673358	-419.672414	-419.71117	25.111	
O	 0.2927451043	 1.2212850108	-0.54003607	-0.41887
C	 0.0523386775	-0.0497830233	-0.0186334135	 0.134901
C	 0.1138344798	-0.3081998891	 1.5280073191	-0.285584
C	-1.2971010309	-0.923456451	 1.4670992523	 0.102707
O	-2.3184054731	 0.0953361492	 1.7362477814	-0.24938
C	-2.4383743667	 0.3929860218	 0.3983284291	 0.435278
O	-3.1178078297	 1.2349215002	-0.097076539	-0.326041
C	-1.4054435526	-0.6332729089	-0.0509744473	-0.266965
H	-0.3899178794	 1.82998297	-0.23469257	 0.298039
H	 0.731220219	-0.7223751087	-0.5478398919	 0.110692
H	 0.9055501858	-1.0000635208	 1.8225246594	 0.119244
H	 0.1673924389	 0.5862047798	 2.1521117044	 0.126838
H	-1.5349435609	-1.8660896588	 1.9538781775	 0.106486
H	-1.6885569517	-1.3285583612	-0.8377795017	 0.112654
105.3526	114.8777	297.1408	371.92	393.2637	441.8345	504.4488	627.6762	720.2597	773.925	819.365	876.5935	887.1627	915.109	964.5901	1009.4459	1030.3255	1094.8711	1103.5295	1148.8578	1158.9263	1191.8774	1227.3991	1261.1503	1301.4119	1316.7122	1332.1011	1439.2999	1462.9824	1922.8516	3075.5781	3085.9907	3135.1665	3146.0691	3155.8983	3796.2877
OC1CC2OC(=O)C12	O[C@H]1C[C@H]2OC(=O)[C@@H]12	
InChI=1S/C5H6O3/c6-2-1-3-4(2)5(7)8-3/h2-4,6H,1H2	InChI=1S/C5H6O3/c6-2-1-3-4(2)5(7)8-3/h2-4,6H,1H2/t2-,3+,4-/m0/s1
