21
gdb 62155	5.31522	0.53129	0.5048	0.6584	81.72	-0.2519	-0.0292	0.2227	2100.9395	0.178386	-424.250631	-424.239678	-424.238734	-424.288853	37.117	
C	 0.0518524445	 1.5225146665	 0.0818402855	-0.395865
C	-0.0608729379	-0.0070337315	 0.0037404358	 0.01264
C	 0.5929307642	-0.5877307975	-1.2644966562	-0.195656
C	-0.0588635512	-0.1320092626	-2.5827106761	-0.287299
C	 0.6368029069	-0.7401959719	-3.7792606777	 0.161494
O	 0.1051247067	-1.4224093292	-4.6161250262	-0.235304
C	 0.5545351869	-0.6638779739	 1.2591184918	-0.279309
C	-0.2236901771	-0.3466711825	 2.5161163342	 0.158025
O	 0.2369254965	 0.1394196869	 3.5161796927	-0.238345
H	 1.1022459002	 1.8359066567	 0.0586548042	 0.122294
H	-0.465682761	 2.0124930353	-0.7472649558	 0.121834
H	-0.3829110003	 1.9063331565	 1.0099097901	 0.132001
H	-1.127999387	-0.2735641804	-0.0209847054	 0.083344
H	 1.6592841724	-0.3227443921	-1.2724792232	 0.105526
H	 0.5486990003	-1.6827357036	-1.2134856747	 0.109977
H	-1.1184391306	-0.4026807939	-2.6212933692	 0.122047
H	 0.0214454943	 0.9590360605	-2.6805907187	 0.122693
H	 1.7280303765	-0.5122579987	-3.8361979056	 0.071201
H	 0.5352223674	-1.7568720932	 1.1386023642	 0.1174
H	 1.5954313193	-0.3565396618	 1.4029720495	 0.119805
H	-1.3080794214	-0.6064127995	 2.454137391	 0.071498
44.3148	48.8322	60.3509	74.6146	115.2253	152.7211	237.6975	253.5592	276.2593	338.2782	406.8135	469.3113	508.1401	545.0366	763.9879	781.792	836.763	890.8831	933.2148	959.4075	1000.2669	1017.9033	1038.2841	1058.0029	1138.8039	1156.409	1158.5559	1199.2364	1242.459	1257.5659	1294.3073	1316.5	1359.5176	1377.1198	1385.9855	1418.1265	1429.8493	1431.0837	1459.3322	1465.8746	1491.3846	1499.2494	1504.6686	1835.4126	1838.0845	2843.378	2848.8267	2996.1126	3011.1228	3014.7244	3026.8176	3034.2606	3054.8322	3089.685	3097.9658	3100.5269	3112.956
CC(CCC=O)CC=O	C[C@@H](CCC=O)CC=O	
InChI=1S/C7H12O2/c1-7(4-6-9)3-2-5-8/h5-7H,2-4H2,1H3	InChI=1S/C7H12O2/c1-7(4-6-9)3-2-5-8/h5-7H,2-4H2,1H3/t7-/m0/s1
