20
gdb 126395	2.64925	1.24274	0.90902	2.4067	84.59	-0.1881	0.0323	0.2204	1343.7407	0.171402	-399.3533	-399.343299	-399.342355	-399.388848	35.6	
C	-0.0377047858	 1.4627855026	 0.1101761124	-0.371938
C	-0.0568066258	-0.0635588847	-0.0906813335	-0.294276
C	 0.7469189433	-0.5215409488	-1.269593391	 0.325731
N	 0.1701233276	-0.7768370736	-2.4466966161	-0.33639
N	 1.1697700208	-1.1249315466	-3.2714894099	 0.056418
C	 0.876568136	-1.5793120603	-4.6105089973	-0.319907
C	 2.3828432026	-1.1055859629	-2.6477176444	-0.114495
C	 2.1510697977	-0.7137364545	-1.3436352994	 0.088297
N	 3.067586067	-0.60652371	-0.2796859036	-0.613801
H	 0.9811441266	 1.8392205884	 0.2574635102	 0.103621
H	-0.4504733471	 1.97078768	-0.7663784193	 0.128029
H	-0.6285830019	 1.7523343989	 0.9852442308	 0.110069
H	 0.3186003032	-0.5559920222	 0.8153506347	 0.104116
H	-1.0896685118	-0.3976099146	-0.228883213	 0.116906
H	 1.6573695104	-1.2432059266	-5.2983630745	 0.131775
H	 0.8053253816	-2.6724611882	-4.6624470364	 0.134848
H	-0.0790751461	-1.1482894165	-4.91005014	 0.15511
H	 3.2915502819	-1.3679119142	-3.1666323117	 0.113088
H	 4.0257785946	-0.5429145567	-0.5989159716	 0.238713
H	 2.8744586051	 0.1892351705	 0.3156819737	 0.244084
54.1119	69.2084	122.7986	155.6787	170.9738	191.1149	264.6925	287.2476	312.4113	417.4838	494.9769	613.2163	625.157	629.7825	718.1257	734.6319	770.6125	788.8957	826.999	970.6327	1022.626	1057.2151	1078.3646	1093.935	1111.2678	1146.9116	1213.024	1239.2995	1287.2507	1355.38	1367.7717	1405.8384	1411.0981	1448.6616	1467.2131	1478.1379	1489.2354	1494.6329	1502.1187	1512.4075	1535.2593	1624.7517	1658.5219	3026.336	3027.4633	3028.4025	3076.7939	3095.0808	3097.1291	3112.4012	3152.7236	3251.3971	3531.2166	3618.3189
CCC1=NN(C)C=C1N	CCc1nn(C)cc1N	
InChI=1S/C6H11N3/c1-3-6-5(7)4-9(2)8-6/h4H,3,7H2,1-2H3	InChI=1S/C6H11N3/c1-3-6-5(7)4-9(2)8-6/h4H,3,7H2,1-2H3
