15
gdb 133010	2.69716	1.44953	0.94838	1.9548	76.14	-0.2106	-0.0427	0.1678	1162.614	0.111689	-461.941909	-461.93394	-461.932996	-461.975008	29.088	
C	 0.0164693414	 1.4575397584	-0.0458579195	-0.321701
N	-0.0003610023	 0.0077700254	 0.0037529146	-0.311313
C	 0.5325315033	-0.6593840573	-0.9255380276	 0.415484
O	 1.1473280236	 0.0274354023	-2.0180014993	-0.260387
C	 1.7176904653	-0.6392090904	-3.0126772619	 0.406833
F	 2.2154636826	 0.1926692722	-3.9007938446	-0.041277
C	 1.7858493709	-1.9763615204	-3.113830273	-0.383225
C	 1.1842947032	-2.7262036865	-2.0442169714	-0.050618
C	 0.5890807093	-2.1013285181	-1.0049817095	-0.193227
H	 1.039418897	 1.8574352461	-0.0701011361	 0.122682
H	-0.4979296888	 1.8451887909	-0.9358558607	 0.122737
H	-0.4860559271	 1.8507605477	 0.8405863044	 0.121695
H	 2.27088471	-2.4363870275	-3.9613092114	 0.125105
H	 1.2157494935	-3.8093386271	-2.0844070611	 0.120991
H	 0.127733428	-2.6346430856	-0.1851227928	 0.12622
70.777	120.2113	185.3394	189.7615	249.6384	395.9105	460.1692	473.0006	521.7901	591.0986	665.1641	717.0538	732.3401	783.8637	836.0576	873.7676	993.0432	1003.2454	1023.282	1063.7828	1109.3354	1112.4294	1177.0879	1206.717	1299.1205	1391.4957	1435.0215	1444.3646	1485.3374	1499.1164	1609.7531	1705.7074	1766.1999	2999.1136	3047.4283	3109.8232	3195.0567	3234.4242	3248.9348
CN=C1OC(F)=CC=C1	CN=c1oc(F)ccc1	
InChI=1S/C6H6FNO/c1-8-6-4-2-3-5(7)9-6/h2-4H,1H3	InChI=1S/C6H6FNO/c1-8-6-4-2-3-5(7)9-6/h2-4H,1H3
