16
gdb 32166	3.65568	1.15667	0.88407	2.8333	76.57	-0.2179	-0.0314	0.1865	1252.3927	0.125849	-434.114526	-434.106203	-434.105259	-434.14784	30.84	
N	-0.0831001568	 1.3504304395	 0.1274177042	-0.569606
C	-0.0073650359	-0.0235475646	 0.0417358265	 0.350714
N	-1.1536867125	-0.7027985079	 0.0310056645	-0.371299
C	-1.0712544846	-2.0387289129	 0.0079124646	 0.283607
C	-2.3918803689	-2.7676184133	 0.0071605598	-0.153039
O	-2.1680500229	-4.1621112389	-0.0670044889	-0.414996
C	 0.1523659745	-2.6985291685	-0.0160374742	-0.078743
N	 1.3072844934	-2.0155614189	-0.0170024913	-0.232171
C	 1.2330036296	-0.6965658623	 0.0144764722	-0.064198
H	 0.7010264484	 1.8758575746	-0.2252232301	 0.254942
H	-0.9860171053	 1.7322149113	-0.1116364385	 0.255783
H	-2.9400045336	-2.4880415875	 0.9210695807	 0.111018
H	-2.9883685301	-2.4004121444	-0.8430275351	 0.1092
H	-3.0197265419	-4.6053078863	-0.0340370407	 0.294031
H	 0.203987858	-3.7790890984	-0.0393511425	 0.127201
H	 2.1671211687	-0.1378506715	 0.0187220589	 0.097556
48.6719	175.6943	195.4971	204.9049	238.081	343.9615	385.0451	464.1387	471.0961	515.0576	581.4754	608.2962	625.8242	740.2581	782.7025	882.3022	935.6335	975.0131	1022.4743	1038.7279	1080.3636	1132.5123	1186.7589	1207.8414	1242.4181	1263.3771	1302.8101	1367.1764	1445.8796	1469.7925	1498.5039	1505.6994	1592.7611	1615.9766	1643.5666	2972.1338	2996.3062	3139.1732	3220.4938	3579.8488	3694.8477	3848.1931
NC1=NC(CO)=CN=C1	Nc1nc(CO)cnc1	
InChI=1S/C5H7N3O/c6-5-2-7-1-4(3-9)8-5/h1-2,9H,3H2,(H2,6,8)	InChI=1S/C5H7N3O/c6-5-2-7-1-4(3-9)8-5/h1-2,9H,3H2,(H2,6,8)
