18
gdb 100248	2.00989	1.30312	1.09883	4.1582	72.53	-0.2589	-0.0492	0.2097	1215.4177	0.143381	-439.096201	-439.085763	-439.084819	-439.132302	35.981	
C	 0.4446199227	 1.2553244895	-0.0881416	-0.256379
O	 0.1252170115	-0.1240994207	-0.0097724675	-0.266589
C	-1.2529600189	-0.4504812329	 0.0672934978	 0.241561
C	-2.0862279088	 0.0640389693	-1.1075128426	-0.438731
C	-1.2763699342	-2.0014890458	 0.0811611056	-0.374522
C	-0.530363381	-2.5916325394	 1.1922443687	 0.275154
N	 0.0422605685	-3.0724525136	 2.072721855	-0.308356
C	-1.8111203779	 0.051433388	 1.4132727586	 0.127357
O	-2.9277790482	 0.4671469024	 1.5715463742	-0.241973
H	 1.5244519523	 1.3280658581	 0.0552361066	 0.144766
H	 0.1877924695	 1.6839916313	-1.065054219	 0.122117
H	-0.0528626417	 1.8461028672	 0.6940742005	 0.121387
H	-1.679748229	-0.3080536063	-2.051947452	 0.126137
H	-3.1224656171	-0.2642891462	-1.0045374202	 0.14364
H	-2.0981077785	 1.1555618839	-1.1341104115	 0.135659
H	-2.3117181674	-2.3540192344	 0.1188768144	 0.164453
H	-0.8354469223	-2.3491295006	-0.8589230989	 0.165283
H	-1.0771283596	-0.0181476	 2.2448552902	 0.119037
47.4217	71.0823	106.7841	147.722	166.981	205.7249	255.0254	284.3502	308.9685	345.4129	388.7355	412.3539	441.0087	558.3573	611.7748	761.1236	844.4416	891.0255	947.5048	986.2963	1013.1779	1096.3028	1142.5993	1173.1621	1179.826	1199.2467	1231.0989	1283.3556	1339.1955	1390.3239	1411.1613	1447.9265	1476.0243	1482.6658	1486.7186	1502.8408	1511.0809	1836.0921	2365.7623	2911.926	2997.3082	3053.3112	3056.216	3059.7076	3104.394	3128.5424	3134.3551	3140.4755
COC(C)(CC#N)C=O	CO[C@@](C)(CC#N)C=O	
InChI=1S/C6H9NO2/c1-6(5-8,9-2)3-4-7/h5H,3H2,1-2H3	InChI=1S/C6H9NO2/c1-6(5-8,9-2)3-4-7/h5H,3H2,1-2H3/t6-/m0/s1
