16
gdb 14246	3.95506	1.75277	1.57897	4.1572	64.	-0.2709	0.009	0.2799	858.5442	0.131187	-383.756331	-383.749356	-383.748412	-383.787616	26.317	
C	 0.406295467	 1.5420709126	 0.0801104712	-0.407489
C	 0.1125814314	 0.0512559312	 0.0160915709	 0.014379
C	 0.9427762192	-0.847006694	-0.9612407591	-0.264352
C	 1.3051546213	-1.8010384919	 0.2259436836	-0.227485
C	 0.5721562887	-0.8405330493	 1.1940638137	 0.098993
O	 1.8609926265	-0.4305990436	 1.7571358607	-0.256237
C	 2.5503660421	-1.3271092954	 0.9638277144	 0.455987
O	 3.7201742172	-1.5342432998	 0.9598600178	-0.324266
H	 1.4604629015	 1.7249555167	 0.3052148916	 0.137949
H	 0.1717106581	 2.022666916	-0.8752449428	 0.119433
H	-0.1918264094	 2.0297648592	 0.8571452703	 0.121632
H	-0.9570820184	-0.1168413863	-0.1497403484	 0.084935
H	 0.3450280317	-1.3297098242	-1.7357091239	 0.117605
H	 1.8027573776	-0.368354794	-1.4351398501	 0.124172
H	 1.1377580758	-2.8705871419	 0.1253719635	 0.108601
H	-0.1197002804	-1.1272349855	 1.9847900867	 0.096143
90.2014	190.0645	216.6804	246.5297	349.0551	444.9176	532.5561	620.5837	723.3991	794.3422	796.119	850.4001	881.3411	904.2053	930.8787	949.2609	990.8334	1053.0406	1080.5661	1113.6502	1122.3605	1162.7282	1195.7033	1221.9096	1245.5836	1283.6344	1289.6891	1328.849	1356.9387	1414.1715	1488.7321	1493.4826	1498.9993	1935.4223	3036.6551	3048.0755	3074.4497	3101.1965	3119.2895	3126.6993	3128.8557	3152.1979
CC1CC2C1OC2=O	C[C@H]1C[C@@H]2[C@H]1OC2=O	
InChI=1S/C6H8O2/c1-3-2-4-5(3)8-6(4)7/h3-5H,2H2,1H3	InChI=1S/C6H8O2/c1-3-2-4-5(3)8-6(4)7/h3-5H,2H2,1H3/t3-,4+,5-/m0/s1
