18
gdb 70827	2.34122	1.70801	1.49649	1.5171	71.8	-0.2233	0.0623	0.2856	983.7356	0.146237	-438.99464	-438.986189	-438.985245	-439.026905	33.28	
C	 0.0299173324	 1.4417413275	-0.057865177	-0.529012
C	 0.0145735253	-0.0561771718	-0.0288018452	 0.22434
N	 0.6451759142	-0.9226888609	-1.0880953592	-0.403776
C	 0.0607309843	-1.9081984081	-0.1214900895	-0.181017
C	 0.5033221648	-1.0404410795	 1.1035470744	 0.417864
O	 1.7137709142	-1.0443607084	 1.7500056964	-0.476161
C	-0.8672455869	-1.0982151637	 1.786761336	-0.388739
C	-1.1791730335	-1.0231512249	 0.2684430197	 0.354681
O	-2.3926313468	-0.9224697961	-0.3781630892	-0.473663
H	 1.0564538255	 1.8142315653	-0.1342180489	 0.128871
H	-0.5390023954	 1.8270190883	-0.9109141443	 0.129256
H	-0.4159999918	 1.8505558167	 0.8547801206	 0.128902
H	 0.0854668598	-0.893197034	-1.9446808828	 0.210529
H	 0.1254627436	-2.9905688966	-0.2432135058	 0.075557
H	 2.397686014	-1.0118563579	 1.0684763228	 0.295164
H	-1.1145799571	-2.0335352341	 2.2986565534	 0.094578
H	-1.1519864115	-0.2327465128	 2.3917166138	 0.104251
H	-2.9206678751	-1.7013726388	-0.1713000353	 0.288375
165.7905	183.022	222.3757	233.9855	259.5092	273.6289	328.7473	391.4942	459.7374	516.1484	553.0688	609.7599	666.2907	669.9051	724.7908	797.3834	861.7575	916.4886	918.4686	960.132	1013.3537	1056.0154	1065.4236	1103.9487	1123.5958	1138.0837	1143.1857	1168.3505	1249.5757	1271.1166	1278.2357	1316.0474	1329.2719	1399.2278	1415.484	1430.2393	1478.981	1493.0548	1526.1977	3031.6914	3046.2254	3098.6749	3105.3577	3105.6497	3107.8839	3405.9611	3775.5957	3801.5409
CC12NC3C1(O)CC23O	C[C@@]12N[C@H]3[C@]1(O)C[C@@]23O	
InChI=1S/C6H9NO2/c1-4-5(8)2-6(4,9)3(5)7-4/h3,7-9H,2H2,1H3	InChI=1S/C6H9NO2/c1-4-5(8)2-6(4,9)3(5)7-4/h3,7-9H,2H2,1H3/t3-,4+,5+,6-
