14
gdb 55609	5.16774	0.77921	0.68016	3.5265	63.98	-0.2717	-0.0184	0.2533	1542.5617	0.10029	-507.215316	-507.206159	-507.205215	-507.250491	31.416	
N	-0.3027570117	 1.3539658803	 0.0091474851	-0.567705
C	 0.1164212348	 0.0388837086	 0.0642342611	 0.477962
O	 1.2622471237	-0.3035382776	 0.1926449228	-0.327976
N	-0.9804635225	-0.8502227964	 0.0134652553	-0.454453
C	-0.8966033978	-2.2235846951	-0.0560695901	 0.567935
O	 0.0754442641	-2.9031471341	-0.2013649581	-0.342398
O	-2.192870899	-2.6960702898	 0.0567140041	-0.243108
C	-2.3691455034	-4.0556003096	-0.0002685121	 0.121902
N	-3.5423319474	-4.4984859219	 0.0873538613	-0.426403
H	 0.4570955017	 2.0093215996	-0.0919707236	 0.273558
H	-1.1371873688	 1.586592156	-0.5069521345	 0.258342
H	-1.9114628948	-0.4852191512	 0.1457113677	 0.270547
H	-1.4294941712	-4.595658054	-0.1179486055	 0.150203
H	-3.5305813778	-5.515832195	 0.0333638165	 0.241593
49.9134	74.0888	125.8939	131.7672	149.7059	262.4268	356.8156	389.6166	417.2503	528.9703	536.1304	574.0341	615.5719	751.8072	781.6802	825.6581	849.7999	938.8452	989.1338	1071.2674	1097.5032	1122.1467	1189.531	1271.2099	1332.3617	1388.866	1520.0031	1629.2706	1751.2502	1832.1526	1905.8682	3140.9593	3511.0711	3581.4606	3629.0197	3698.9763
NC(=O)NC(=O)OC=N	NC(=O)NC(=O)O[CH][NH]	
InChI=1S/C3H5N3O3/c4-1-9-3(8)6-2(5)7/h1,4H,(H3,5,6,7,8)	InChI=1S/C3H5N3O3/c4-1-9-3(8)6-2(5)7/h1,4H,(H3,5,6,7,8)
