16
gdb 27356	1.99665	1.82963	0.96162	8.0577	75.82	-0.2189	-0.0106	0.2082	1173.5097	0.125957	-434.144722	-434.136393	-434.135449	-434.177496	31.436	
C	-0.0214568111	 1.5102825159	 0.0818895547	-0.498
C	-0.0015186892	 0.0173079431	-0.0383953968	 0.377941
C	-0.0379953089	-0.684391638	-1.1860495933	-0.300148
C	 0.0058847468	-2.1562685007	-1.1862314154	 0.373776
O	-0.0054459477	-2.8066268475	-2.214275583	-0.375087
N	 0.0494544146	-2.7832378692	 0.0732542817	-0.374444
C	 0.0875317165	-2.0624474843	 1.1420789272	 0.454838
N	 0.2163392033	-2.6588736281	 2.3826350475	-0.572119
N	 0.0554309492	-0.6872983622	 1.1560615262	-0.407543
H	 0.8745370357	 1.8782266617	 0.5969871384	 0.138413
H	-0.0584933259	 1.9694954441	-0.9065361995	 0.1538
H	-0.8929688794	 1.850419373	 0.6539523724	 0.139988
H	-0.0945718351	-0.1817712946	-2.1428663608	 0.107896
H	 0.086290114	-3.6592403019	 2.3230830407	 0.273172
H	-0.2959652427	-2.2367319547	 3.1442185187	 0.251123
H	 0.22559733	-0.1919617667	 2.0168384515	 0.256393
117.7862	150.4939	172.3675	217.913	284.7339	342.142	360.3106	449.2613	499.5952	532.7713	562.8865	582.0639	619.7916	639.1741	740.3171	784.1574	875.5104	914.2437	971.5248	1018.1573	1065.9935	1068.8273	1154.5331	1169.9631	1249.9426	1338.886	1397.518	1420.226	1478.8472	1482.3019	1518.8848	1620.2225	1664.881	1719.8115	1773.7029	3026.0638	3077.2102	3146.0641	3219.08	3559.4617	3633.7844	3667.5375
CC1=CC(=O)N=C(N)N1	Cc1cc(=O)nc(N)[nH]1	
InChI=1S/C5H7N3O/c1-3-2-4(9)8-5(6)7-3/h2H,1H3,(H3,6,7,8,9)	InChI=1S/C5H7N3O/c1-3-2-4(9)8-5(6)7-3/h2H,1H3,(H3,6,7,8,9)
