15
gdb 50880	6.45792	0.68011	0.61769	5.0139	72.19	-0.2544	-0.0083	0.2461	1684.1344	0.110076	-453.925927	-453.916415	-453.91547	-453.961758	32.598	
N	 0.0019757113	 1.6012288471	-0.024974849	-0.524672
C	 0.0660619643	 0.3416050138	-0.0596059769	 0.526956
N	-1.0494906797	-0.4943455023	-0.1133511895	-0.368198
C	-2.3924329872	-0.1546620524	-0.1391119228	 0.16419
O	-2.8637024514	 0.9484088453	-0.119564891	-0.256229
O	 1.1562100825	-0.4882279302	-0.0547693325	-0.263666
C	 2.4387522598	 0.1381512091	-0.0031149563	-0.261883
C	 3.4648215161	-0.8909793544	-0.0057593773	 0.275882
C	 4.3384151902	-1.713754396	-0.0064382999	-0.383038
H	 0.9139317231	 2.0454742997	 0.0121252249	 0.234332
H	-0.828843853	-1.4783905572	-0.136463163	 0.26431
H	-3.0029238421	-1.0799859191	-0.1822054491	 0.08226
H	 2.5633322824	 0.8033784211	-0.8686659067	 0.149473
H	 2.5168237482	 0.7523878927	 0.904548045	 0.149466
H	 5.1095163356	-2.4445077973	-0.0071385459	 0.210818
36.5687	64.1665	101.5074	113.6566	193.1433	244.5031	299.9037	333.8872	352.1454	529.4913	575.0354	576.4287	624.5581	692.5703	726.2012	779.4786	838.5772	947.3307	996.6287	1006.8085	1025.0823	1037.7813	1102.3187	1191.9581	1253.533	1267.3572	1400.9989	1449.4243	1500.8298	1540.9986	1751.0919	1857.8375	2254.157	2922.8113	3003.5458	3037.5343	3504.1269	3552.5147	3631.3122
N=C(NC=O)OCC#C	N=C(NC=O)OCC#C	
InChI=1S/C5H6N2O2/c1-2-3-9-5(6)7-4-8/h1,4H,3H2,(H2,6,7,8)	InChI=1S/C5H6N2O2/c1-2-3-9-5(6)7-4-8/h1,4H,3H2,(H2,6,7,8)
