14
gdb 9590	4.54817	1.31554	1.2191	2.7906	64.58	-0.2774	-0.0269	0.2506	983.2634	0.105677	-378.725892	-378.717891	-378.716947	-378.758404	28.041	
C	 0.2723994605	 1.3081778986	 0.2200834965	-0.463519
C	 0.0118878256	-0.1794912394	 0.0595645532	 0.115345
C	 0.7144270673	-0.9527565462	-1.0387612236	-0.257482
N	 1.0640276642	-1.1525496856	 0.3416180844	-0.077544
C	 2.3081968239	-0.8506930971	 0.8872670921	 0.140658
O	 3.3569876374	-1.045643771	 0.3294442766	-0.27219
C	-1.3248257798	-0.6015854637	 0.4432240126	 0.277037
N	-2.3996701551	-0.9052486116	 0.7391596321	-0.323628
H	 1.2855854263	 1.5529408034	-0.109215679	 0.147207
H	-0.4386889653	 1.8800318474	-0.3821137685	 0.155679
H	 0.1563909708	 1.6171060162	 1.2625231986	 0.152369
H	 0.1991460541	-1.7744659631	-1.526076629	 0.152985
H	 1.4151887055	-0.3973524637	-1.6572086533	 0.150192
H	 2.2212030348	-0.4779480742	 1.9238589574	 0.10289
88.2543	136.3342	180.5982	199.7676	246.7889	276.5451	373.1205	413.869	504.489	564.6348	638.0638	715.8759	851.6026	899.5397	955.0359	999.2552	1037.1846	1095.7383	1128.2397	1134.9526	1206.5297	1252.9295	1395.6754	1411.7901	1419.8262	1479.456	1498.1911	1504.1492	1806.6651	2362.2488	2976.4442	3048.8857	3116.552	3123.7234	3130.9015	3212.9874
CC1(CN1C=O)C#N	C[C@]1(CN1C=O)C#N	
InChI=1S/C5H6N2O/c1-5(2-6)3-7(5)4-8/h4H,3H2,1H3	InChI=1S/C5H6N2O/c1-5(2-6)3-7(5)4-8/h4H,3H2,1H3/t5-,7?/m1/s1
