22
gdb 98465	2.12921	1.35259	0.95605	3.3627	84.08	-0.2413	0.036	0.2774	1338.626	0.193181	-404.378656	-404.36818	-404.367236	-404.414711	37.933	
C	 0.4708811686	 0.1127364579	 1.2265088843	-0.380269
C	-0.1262084986	-0.0814381381	-0.1753218687	-0.302358
C	-1.4877351323	-0.7628534995	-0.1893525785	 0.24417
C	-1.8057377315	-1.7054648391	-1.3457736993	-0.29502
C	-1.5175908508	-2.2677151019	 0.0096020965	-0.277903
C	-2.7130848407	-0.0485973571	 0.3354210189	 0.374144
O	-3.7734821746	-0.6348898604	 0.500063074	-0.397315
N	-2.5751776379	 1.2867100339	 0.5891184543	-0.33196
C	-3.6846495452	 2.1093518824	 1.0296853303	-0.336277
H	 1.4569178548	 0.5842925421	 1.1703375603	 0.11323
H	-0.1662037801	 0.7376352545	 1.8596538748	 0.118082
H	 0.5859408869	-0.8509618408	 1.7322376412	 0.126117
H	-0.1724153824	 0.8802606122	-0.7066745676	 0.092187
H	 0.5624991967	-0.6944582743	-0.7679719104	 0.101327
H	-2.8348608615	-1.7267715144	-1.6830474624	 0.13492
H	-1.0557311051	-1.7989816467	-2.1239573816	 0.107895
H	-0.5640930135	-2.7577600973	 0.1754562613	 0.105959
H	-2.3553958031	-2.6590608551	 0.5726621483	 0.140426
H	-1.7004521076	 1.7352756756	 0.3819046089	 0.245089
H	-3.9798148524	 2.8355396125	 0.2628141827	 0.122627
H	-4.5247544611	 1.4427307623	 1.2256267564	 0.172362
H	-3.432151299	 2.6532840413	 1.9462932462	 0.122565
45.135	67.674	112.1659	138.7643	186.6812	217.2058	235.3847	293.2441	334.5403	352.599	421.7745	451.8215	488.0339	561.2581	762.6541	768.553	791.6018	806.3395	891.1665	893.4161	941.1638	963.8707	1015.2482	1054.5717	1073.4105	1086.6201	1095.3689	1113.6617	1154.269	1167.6859	1204.7058	1220.5692	1276.0329	1303.0354	1348.4915	1375.0857	1410.8062	1435.855	1450.793	1481.5456	1490.7715	1496.4214	1498.8583	1502.1427	1512.7277	1561.8792	1751.7743	3001.8065	3024.3344	3039.3404	3051.4599	3076.3484	3108.5424	3110.7194	3136.2106	3139.6907	3157.1084	3228.7982	3242.9147	3671.8118
CCC1(CC1)C(=O)NC	CCC1(CC1)C(=O)NC	
InChI=1S/C7H13NO/c1-3-7(4-5-7)6(9)8-2/h3-5H2,1-2H3,(H,8,9)	InChI=1S/C7H13NO/c1-3-7(4-5-7)6(9)8-2/h3-5H2,1-2H3,(H,8,9)
