18
gdb 12859	3.03471	2.28302	1.80806	2.2585	66.63	-0.2431	0.0823	0.3255	816.1369	0.154821	-384.932695	-384.925565	-384.924621	-384.963743	27.613	
C	-0.1729108663	 1.5289969936	 0.1532392728	-0.465499
C	 0.0540348595	 0.0358212465	 0.0481406651	 0.43079
C	-1.2055570969	-0.8097268052	-0.17684762	-0.122944
O	-0.9035645548	-2.1066756614	 0.3212589111	-0.25187
C	-0.1139948842	-1.9146786323	 1.4895770608	-0.096653
C	 0.8169656732	-0.7499026274	 1.1595869206	-0.143674
C	 1.8518450516	-1.0189935594	 0.0513880402	-0.080646
O	 1.0813819547	-0.2892642507	-0.9246388613	-0.324705
H	 0.7698721203	 2.0491804349	 0.3420443617	 0.124668
H	-0.5892818268	 1.9179258274	-0.7825003282	 0.129958
H	-0.8720915945	 1.7645967712	 0.9621355296	 0.116916
H	-2.05982752	-0.3711825108	 0.3663148481	 0.081098
H	-1.4594176367	-0.8989841605	-1.2358885642	 0.119835
H	-0.7487821164	-1.6641594391	 2.3563198809	 0.089012
H	 0.4036012576	-2.8551175637	 1.700188906	 0.111359
H	 1.1663655543	-0.1950779032	 2.0305801006	 0.078964
H	 2.839798563	-0.5688459784	 0.2079284651	 0.097765
H	 1.9749941725	-2.0727206116	-0.227426639	 0.105627
131.7534	202.9728	228.4217	258.3201	339.3072	380.8206	406.9764	597.3635	634.7574	718.7773	830.7214	865.4338	883.872	914.9005	948.1746	963.5265	980.5159	1027.9416	1039.3115	1092.9799	1126.3172	1154.2214	1169.0958	1172.0725	1223.1225	1225.4679	1259.3214	1281.3551	1328.4078	1349.4631	1363.5531	1405.957	1407.3382	1481.5242	1485.5258	1494.3027	1509.8845	1520.0601	2960.3392	2967.5162	3013.6319	3035.0671	3057.1686	3085.2429	3101.0138	3104.8463	3112.102	3117.8802
CC12COCC1CO2	C[C@]12COC[C@H]1CO2	
InChI=1S/C6H10O2/c1-6-4-7-2-5(6)3-8-6/h5H,2-4H2,1H3	InChI=1S/C6H10O2/c1-6-4-7-2-5(6)3-8-6/h5H,2-4H2,1H3/t5-,6-/m0/s1
