19
gdb 88637	3.41145	1.06743	0.97464	3.9424	75.96	-0.2726	0.0106	0.2833	1276.7432	0.15904	-423.045672	-423.037085	-423.036141	-423.07945	32.128	
C	 0.2603861666	 1.6288262022	-0.1783769613	-0.4222
C	-0.0803710756	 0.1709081544	 0.0484085309	-0.000586
C	 0.9521126956	-0.9172142467	-0.1398338665	-0.304189
C	 0.4134644628	-0.6188855584	 1.2396495066	-0.030694
C	 1.2831796835	-0.0538484064	 2.3302724208	 0.100147
C	 2.206442459	-1.0380542493	 3.0808222771	-0.428918
C	 3.3280702499	-0.1734229006	 2.5119109747	 0.451081
O	 4.5139804252	-0.1210615666	 2.5477205169	-0.313528
O	 2.4735004847	 0.6717625173	 1.8451364975	-0.245812
H	 1.2807417637	 1.8591078709	 0.1340247411	 0.149513
H	 0.1657606053	 1.8814902285	-1.2400450541	 0.117676
H	-0.4191359546	 2.2848623273	 0.3775883777	 0.113118
H	-1.0871220396	-0.0958353392	-0.2646479048	 0.086018
H	 0.6641287105	-1.8450093918	-0.6214840766	 0.11148
H	 1.966037487	-0.5947548937	-0.3508518814	 0.132927
H	-0.2943426312	-1.3382076434	 1.6470779137	 0.093111
H	 0.7204043132	 0.6111248681	 2.9925094693	 0.101895
H	 2.1452388645	-1.0427204569	 4.1700718541	 0.142664
H	 2.2047562096	-2.0620318256	 2.7025063745	 0.146301
62.8318	89.7397	150.7456	210.7524	251.1029	273.4219	364.8977	472.1191	502.2252	523.6198	594.7497	708.3802	772.3609	794.9103	850.7556	887.3196	899.2536	937.1528	971.3699	981.626	1041.578	1069.7001	1086.2736	1111.6491	1116.0346	1128.9833	1150.2016	1160.2113	1200.8815	1223.8336	1243.1909	1295.6029	1370.0139	1393.68	1419.4355	1428.8267	1451.9971	1491.7316	1504.8488	1508.0156	1941.3879	3033.079	3062.9791	3086.972	3088.6123	3120.7605	3128.8329	3136.5665	3144.0554	3147.9404	3223.2653
CC1CC1C1CC(=O)O1	C[C@H]1C[C@H]1[C@H]1CC(=O)O1	
InChI=1S/C7H10O2/c1-4-2-5(4)6-3-7(8)9-6/h4-6H,2-3H2,1H3	InChI=1S/C7H10O2/c1-4-2-5(4)6-3-7(8)9-6/h4-6H,2-3H2,1H3/t4-,5+,6+/m0/s1
