17
gdb 42440	4.74106	0.74688	0.70648	3.1134	77.4	-0.2543	0.0104	0.2647	1590.5985	0.13539	-417.97393	-417.964609	-417.963665	-418.009509	33.128	
O	 0.0907970074	 0.265394161	-0.8717518917	-0.400409
C	 0.0532750258	 1.3013477578	-0.2233396993	 0.451981
N	 1.1240722408	 1.7937497789	 0.4587453929	-0.3357
C	 2.4370038508	 1.1655744792	 0.3896362167	-0.291442
C	 3.4878979366	 2.1144948821	 0.0350876915	 0.283531
C	 4.348376536	 2.9097104244	-0.230097858	-0.440647
C	-1.2028124094	 2.1157400919	-0.1171242989	-0.125428
C	-1.9805055186	 2.2954397966	-1.3797512303	-0.220309
N	-2.4662760285	 1.3993969058	-0.3346988772	-0.304254
H	 1.0450687824	 2.6776045832	 0.9350142329	 0.25649
H	 2.6830431739	 0.6836928552	 1.3455938515	 0.142595
H	 2.3524156655	 0.3699745814	-0.357191593	 0.180172
H	 5.1146022599	 3.6016960669	-0.4792173251	 0.20629
H	-1.2335589455	 2.8895313426	 0.6458920041	 0.089384
H	-2.5549637977	 3.2066490476	-1.5184823462	 0.12297
H	-1.555176593	 1.859023072	-2.2785061568	 0.135319
H	-2.2149117767	 0.4441023535	-0.5926564431	 0.249458
28.8244	63.3857	99.2188	184.9613	220.1056	294.8829	320.302	326.7736	372.7977	474.3388	563.3177	622.1819	672.5658	690.8979	764.3754	831.3082	871.5929	915.984	955.0464	982.4928	1014.1755	1045.8289	1080.4758	1121.5149	1136.1023	1182.5325	1230.1804	1260.9147	1292.7206	1323.1394	1370.8455	1413.2395	1485.2119	1494.3405	1540.1012	1758.5577	2243.1993	3014.4516	3089.2257	3115.7939	3138.0891	3210.5437	3462.9723	3504.9094	3644.9391
O=C(NCC#C)C1CN1	O=C(NCC#C)[C@H]1CN1	
InChI=1S/C6H8N2O/c1-2-3-7-6(9)5-4-8-5/h1,5,8H,3-4H2,(H,7,9)	InChI=1S/C6H8N2O/c1-2-3-7-6(9)5-4-8-5/h1,5,8H,3-4H2,(H,7,9)/t5-/m1/s1
