17
gdb 8018	3.45411	2.043	1.59541	3.7854	68.13	-0.2376	-0.0008	0.2367	848.3384	0.142373	-363.861603	-363.854349	-363.853405	-363.892844	27.951	
C	-0.0968969497	 1.5558926728	 0.0250002088	-0.470226
C	 0.0037184302	 0.049431387	-0.0445274063	 0.373328
C	-1.2871997469	-0.7700347485	 0.2781440522	-0.301719
C	-0.5524397034	-1.3310504749	 1.5307812885	-0.18208
N	 0.7169116238	-0.6593767548	 1.0943118489	-0.167952
C	 1.4984808987	-1.3975192687	 0.1641274759	 0.39076
O	 2.1722580183	-2.3742019236	 0.3189548438	-0.320158
C	 1.010529406	-0.5723148233	-1.0466522198	-0.440182
H	 0.8971720162	 2.0131193021	 0.0503800086	 0.126768
H	-0.6307291343	 1.944401536	-0.8498228242	 0.123131
H	-0.6394608569	 1.8755184946	 0.9205496381	 0.123582
H	-2.1764192142	-0.1689233271	 0.4788108403	 0.111915
H	-1.5374677112	-1.5270552089	-0.4692564977	 0.114519
H	-0.9074086607	-0.9315452202	 2.4835174484	 0.119698
H	-0.4560688687	-2.4162432778	 1.6114102879	 0.132518
H	 0.6073527477	-1.1821273026	-1.8581075414	 0.134102
H	 1.7398557752	 0.1312073379	-1.4574320521	 0.131995
105.7152	197.2671	220.7696	285.0826	330.0722	359.7356	480.0261	545.3877	599.1273	673.6891	753.2318	804.6305	844.6115	862.3943	917.3179	947.5701	959.4294	996.9143	1013.3468	1073.847	1105.9238	1153.9411	1189.3552	1207.9629	1213.5346	1244.5312	1272.2811	1297.5895	1316.0078	1413.8197	1443.3397	1482.1333	1485.2859	1494.6544	1509.9316	1887.4435	3030.406	3064.3755	3067.11	3069.2754	3098.6806	3107.9224	3112.1635	3126.6747	3130.0847
CC12CCN1C(=O)C2	C[C@]12CCN1C(=O)C2	
InChI=1S/C6H9NO/c1-6-2-3-7(6)5(8)4-6/h2-4H2,1H3	InChI=1S/C6H9NO/c1-6-2-3-7(6)5(8)4-6/h2-4H2,1H3/t6-/m1/s1
