18
gdb 75645	2.87785	1.57682	1.25845	3.2656	77.74	-0.2251	-0.0364	0.1887	1038.0647	0.146949	-401.811404	-401.803669	-401.802724	-401.843497	30.262	
C	 0.0849467427	 1.6350022522	 0.0836345418	-0.411839
C	 0.0670798851	 0.1178305465	 0.0267839259	-0.205667
C	 1.1678511547	-0.6181016177	-0.8758171588	 0.321601
O	 1.711405643	-0.320712234	-1.8902784542	-0.275469
C	 1.200901011	-1.7964809116	 0.1784558168	-0.085549
N	 2.056067023	-2.1105129901	 1.4741362106	-0.171681
C	 2.1366234742	-0.5776554293	 1.5725707052	-0.198269
C	 0.6583615997	-0.7731437835	 1.147530738	 0.230577
C	 0.6884866579	-1.9390828145	 2.1956386608	-0.252495
H	 1.0373545433	 2.002291042	 0.4785945434	 0.125667
H	-0.0429989032	 2.0534811917	-0.9196532218	 0.138024
H	-0.7192268229	 2.0191152587	 0.7185690404	 0.124782
H	-0.9125137156	-0.2595537233	-0.2938491031	 0.108836
H	 0.5798671537	-2.6436086891	-0.1297215234	 0.099081
H	 2.3323954238	-0.2134974398	 2.58439241	 0.102899
H	 2.836705346	-0.1391463882	 0.8552150719	 0.12367
H	 0.0022442737	-2.7756551242	 2.0456227873	 0.113706
H	 0.8057655198	-1.6899573257	 3.2537098292	 0.112127
114.0093	179.2798	186.5675	199.4997	273.5098	414.8698	509.1778	532.2477	589.5763	603.6321	641.0464	734.322	785.2779	822.5624	855.4698	895.7749	925.2516	944.0005	985.825	998.9453	1038.8598	1065.4118	1075.9024	1089.5359	1151.1981	1154.4681	1172.0258	1189.0697	1197.2196	1225.8769	1276.6228	1292.2056	1341.678	1406.4887	1491.0306	1493.6727	1506.4746	1545.0228	1893.1828	3035.2712	3037.2329	3049.1417	3055.8692	3063.5993	3109.1062	3109.9233	3114.7987	3131.2748
CC1C(=O)C2N3CC12C3	C[C@H]1C(=O)[C@H]2N3C[C@@]12C3	
InChI=1S/C7H9NO/c1-4-5(9)6-7(4)2-8(6)3-7/h4,6H,2-3H2,1H3	InChI=1S/C7H9NO/c1-4-5(9)6-7(4)2-8(6)3-7/h4,6H,2-3H2,1H3/t4-,6+/m0/s1
