21
gdb 32836	5.06165	0.7364	0.6819	1.693	88.07	-0.1688	0.054	0.2229	1722.0153	0.183365	-383.310932	-383.300989	-383.300045	-383.346484	36.677	
C	-0.0477014099	 1.6078938375	 0.171463569	-0.379831
C	-0.007107181	 0.078190414	 0.1594034803	-0.149904
C	-1.3799684899	-0.55580856	-0.1442346697	-0.308622
C	-1.3698996513	-2.0513910899	-0.1683218368	 0.335411
C	-1.409413817	-2.9361950283	-1.2271733816	-0.307394
C	-1.3398071378	-4.2600596012	-0.7013650416	 0.265295
N	-1.2811318559	-5.4427590971	-1.4687445207	-0.606602
C	-1.2600905355	-4.1478822328	 0.6693768816	-0.177505
N	-1.2723968175	-2.7982969643	 0.9754644202	-0.302618
H	 0.937003735	 2.0315817522	 0.3918567909	 0.112339
H	-0.3704596959	 2.0029742084	-0.7983454308	 0.115068
H	-0.7478312017	 1.981501314	 0.9275557858	 0.110956
H	 0.7149869418	-0.2746323443	-0.5860973861	 0.106705
H	 0.3555173233	-0.2898094566	 1.1277420131	 0.088652
H	-2.1102965685	-0.1914734692	 0.5933453106	 0.093644
H	-1.7323728705	-0.198946389	-1.1184859017	 0.109038
H	-1.4739699947	-2.6646697054	-2.2708605524	 0.076898
H	-1.8747323671	-5.3887526817	-2.2874938527	 0.23638
H	-1.5523619664	-6.2585952716	-0.9338869652	 0.233348
H	-1.1945780297	-4.898761967	 1.4398748223	 0.097484
H	-1.2402986699	-2.4218806379	 1.9059522356	 0.251258
36.5201	79.6935	100.0941	176.4348	241.5986	256.9758	276.8983	307.8958	328.7325	417.7553	432.4201	619.5274	625.3466	661.635	684.5832	740.1149	753.1392	774.2001	805.656	866.8564	892.9062	989.644	1003.1288	1042.2021	1077.3613	1104.8523	1109.1295	1133.2541	1185.3041	1247.1938	1300.7743	1305.4041	1321.1599	1338.6473	1379.8227	1411.1658	1458.6811	1473.0017	1485.5104	1491.5575	1499.3869	1509.278	1551.4497	1640.9377	1659.145	2997.166	3024.6845	3027.7898	3054.2877	3071.4463	3095.4853	3101.9702	3234.2431	3261.1423	3524.1018	3611.1076	3687.4867
CCCC1=CC(N)=CN1	CCCc1cc(N)c[nH]1	
InChI=1S/C7H12N2/c1-2-3-7-4-6(8)5-9-7/h4-5,9H,2-3,8H2,1H3	InChI=1S/C7H12N2/c1-2-3-7-4-6(8)5-9-7/h4-5,9H,2-3,8H2,1H3
