20
gdb 22481	2.75848	0.75233	0.67639	0.7631	87.49	-0.2427	0.0106	0.2534	1766.7606	0.167553	-403.093186	-403.082017	-403.081073	-403.131528	38.432	
C	 0.9325696806	 0.4686673191	-1.0607643333	-0.377771
C	-0.027672442	 0.0392626682	 0.0647074575	-0.265068
C	 0.704314627	-0.5818765081	 1.2262237182	 0.37167
C	 0.8205989592	-2.0928258463	 1.3135168763	-0.417468
C	-0.4768620281	-2.7613802748	 1.3942147452	 0.085092
C	-1.5537094804	-3.2962315765	 1.4580920582	 0.035499
C	-2.8507480686	-3.952439716	 1.544115242	-0.495625
N	 1.2893906021	 0.0617591845	 2.1616758306	-0.173204
O	 1.1714284136	 1.4540110738	 1.9959837747	-0.399583
H	 1.5031061507	-0.3824099566	-1.4469914823	 0.114838
H	 0.3738548014	 0.9020522552	-1.895660511	 0.115522
H	 1.640091213	 1.2161556934	-0.6943118683	 0.139123
H	-0.5756114485	 0.9148642757	 0.4233503728	 0.127802
H	-0.7583400174	-0.6803476127	-0.3161524003	 0.111642
H	 1.3617216697	-2.4573957297	 0.4276178737	 0.133353
H	 1.4377292687	-2.3370564767	 2.1840856019	 0.144384
H	-2.8766661961	-4.6739180891	 2.3682432022	 0.148863
H	-3.6525886923	-3.226032011	 1.7166903515	 0.14863
H	-3.0875964148	-4.4944305482	 0.621853912	 0.146355
H	 1.6213312122	 1.7864129157	 2.7795488584	 0.305946
24.7029	42.7066	73.4598	76.3848	194.1754	216.7071	228.3341	248.1272	317.5917	329.3476	363.4362	383.2923	416.6141	450.9054	589.135	690.9148	763.8431	786.2557	809.8832	920.7163	985.1157	989.3468	1052.6065	1054.1236	1074.9897	1097.053	1162.9523	1210.7747	1245.2708	1294.2067	1324.2471	1352.4592	1403.0972	1407.361	1415.6806	1456.675	1478.7971	1479.2566	1485.9121	1499.1176	1509.8166	1731.7216	2373.1447	2998.4787	3026.9372	3040.1561	3057.5744	3075.8792	3087.2291	3087.9406	3097.0749	3110.4392	3131.2812	3823.9956
CCC(CC#CC)=NO	CCC(=NO)CC#CC	
InChI=1S/C7H11NO/c1-3-5-6-7(4-2)8-9/h9H,4,6H2,1-2H3	InChI=1S/C7H11NO/c1-3-5-6-7(4-2)8-9/h9H,4,6H2,1-2H3
