19
gdb 16660	2.84353	2.24622	1.69845	2.5489	69.99	-0.2239	0.0623	0.2863	854.3338	0.167031	-365.043943	-365.036451	-365.035507	-365.075132	29.725	
C	-0.7402542868	 1.2634485044	 0.0637132643	-0.428497
C	 0.0473358289	-0.0475623281	 0.0192779054	 0.013492
C	 0.9807645508	-0.2034862727	-1.1756442465	-0.03238
C	 2.305636224	 0.4711018158	-1.1381662422	-0.252965
N	 2.18927287	-0.9570517794	-0.7909380321	-0.107282
C	 2.0840543102	-1.1994831872	 0.6609884526	-0.16066
C	 0.971034047	-0.3065322731	 1.2439849223	 0.050463
O	 1.5775517613	 0.8721998357	 1.7722605842	-0.419175
H	-0.0691979618	 2.1262843999	 0.1012654039	 0.12626
H	-1.3663700209	 1.3706763515	-0.8273163936	 0.122389
H	-1.4066346612	 1.3032110246	 0.9338382856	 0.108088
H	-0.6694878454	-0.8793780387	-0.018002336	 0.077937
H	 0.5353938235	-0.4611020509	-2.1336351451	 0.083058
H	 2.8327580207	 0.6584878698	-2.0696670968	 0.10768
H	 2.5003117144	 1.1803512644	-0.3410045429	 0.135925
H	 1.8260512009	-2.2550144249	 0.7993628245	 0.104111
H	 3.0380539654	-1.0122293738	 1.1613409203	 0.118236
H	 0.4222968255	-0.8233754935	 2.0435404309	 0.068093
H	 0.8820563834	 1.4346237262	 2.1277255912	 0.285228
139.1362	225.0655	226.5471	274.3685	330.9684	347.1633	403.588	441.9404	529.8373	652.3573	721.7581	766.3902	805.9842	857.2046	890.6555	918.1944	968.5836	999.2344	1017.7467	1032.0507	1062.1593	1110.2149	1123.1824	1143.5435	1162.0199	1185.6781	1217.174	1247.8209	1277.3357	1300.0838	1333.5074	1344.4002	1365.6658	1393.8532	1407.5653	1423.6457	1482.3164	1500.307	1505.1654	1509.6947	2994.4721	3014.1986	3029.0326	3047.753	3092.9437	3102.4683	3114.3548	3115.6913	3132.4881	3213.8141	3816.8872
CC1C2CN2CC1O	C[C@H]1[C@H]2CN2C[C@H]1O	
InChI=1S/C6H11NO/c1-4-5-2-7(5)3-6(4)8/h4-6,8H,2-3H2,1H3	InChI=1S/C6H11NO/c1-4-5-2-7(5)3-6(4)8/h4-6,8H,2-3H2,1H3/t4-,5+,6+,7?/m0/s1
