21
gdb 106323	2.74466	1.24886	1.09741	1.7331	78.78	-0.2285	0.0699	0.2984	1240.0553	0.181081	-424.192029	-424.18263	-424.181685	-424.225931	35.815	
C	-0.0223867683	 1.4749753018	-0.281532339	-0.379191
C	-0.0457198922	 0.0130907193	 0.1873501116	-0.295601
C	-1.3880820735	-0.621353403	-0.0000565875	 0.410627
O	-2.4951762146	-0.0732502973	 0.7524298714	-0.363879
C	-2.9556385059	-1.4262551705	 1.092310065	 0.1445
C	-4.4475522833	-1.6423621412	 0.9312573803	-0.424789
C	-1.951714433	-2.041151839	 0.1232309799	-0.277621
C	-1.9642179051	-1.2855922208	-1.2011970118	 0.081477
O	-3.1086065225	-0.8039650608	-1.8362454565	-0.437466
H	 0.9596017029	 1.9248173798	-0.1089565466	 0.112893
H	-0.2474871199	 1.5489237497	-1.3502888621	 0.123026
H	-0.7668094356	 2.0641011923	 0.2617157442	 0.135607
H	 0.6936217401	-0.5760287529	-0.3681329042	 0.103886
H	 0.233761434	-0.0426399382	 1.2468725685	 0.10595
H	-2.6577174463	-1.6237858136	 2.1304408578	 0.085916
H	-5.0025191801	-0.9334365989	 1.5548082329	 0.123715
H	-4.759168107	-1.5324651219	-0.1082688799	 0.139126
H	-4.7067129326	-2.6537058494	 1.263101676	 0.120627
H	-1.4470831002	-2.9900049527	 0.2557290712	 0.093897
H	-1.240280768	-1.6693149719	-1.9155643963	 0.105248
H	-3.4321710588	-0.086869171	-1.2734326748	 0.292052
77.6907	124.6742	172.7336	208.5203	231.0994	236.5736	285.0451	330.3397	376.2536	424.1622	490.0498	578.1221	598.3658	723.9055	743.2443	783.5233	818.4062	866.3863	888.6807	943.5408	971.971	985.815	997.2306	1038.7955	1076.9691	1086.0746	1102.3957	1143.0217	1153.1879	1198.2257	1248.3903	1289.1833	1303.4382	1321.5288	1351.7884	1389.6837	1392.3775	1407.2895	1409.6818	1473.1613	1488.1218	1489.3829	1499.178	1504.1996	1511.5545	3013.523	3025.8551	3040.1369	3040.6842	3064.3526	3101.8392	3110.97	3118.8462	3146.61	3150.4465	3189.2257	3748.8213
CCC12OC(C)C1C2O	CC[C@]12O[C@@H](C)[C@H]1[C@H]2O	
InChI=1S/C7H12O2/c1-3-7-5(6(7)8)4(2)9-7/h4-6,8H,3H2,1-2H3	InChI=1S/C7H12O2/c1-3-7-5(6(7)8)4(2)9-7/h4-6,8H,3H2,1-2H3/t4-,5-,6+,7-/m0/s1
