14
gdb 29330	3.38295	1.29779	0.94096	6.0588	74.82	-0.2177	-0.0241	0.1936	1152.1992	0.102786	-432.900344	-432.892148	-432.891204	-432.933013	30.457	
N	 0.0647801672	 1.4227015803	 0.0890964454	-0.620314
C	 0.0141080851	 0.0214078829	 0.0070878594	 0.190832
C	-1.0437344124	-0.8401294003	 0.024248166	-0.094203
O	-0.6318606333	-2.1307758372	 0.0059161667	-0.19197
C	 0.7423743509	-2.1022095533	-0.0335801618	 0.229387
C	 1.4601057065	-3.306927385	-0.0541380837	 0.202954
N	 2.1090374673	-4.2700546692	-0.0664723867	-0.360574
C	 1.1894997751	-0.8005500375	-0.0283191466	 0.098583
N	 2.4783485227	-0.3068361609	-0.1047382527	-0.625891
H	 0.5869497321	 1.8274142717	-0.6815431844	 0.25488
H	-0.8542924265	 1.8460199959	 0.1159162371	 0.250125
H	-2.1098112442	-0.6853686318	 0.0598186705	 0.138555
H	 3.2024457863	-0.9888552369	 0.0771300423	 0.266558
H	 2.6132211632	 0.5351279913	 0.4411090985	 0.261078
112.3088	131.3514	179.9786	237.1081	278.9548	358.8403	394.447	427.4097	509.7067	515.524	603.1592	611.9058	669.3341	712.3073	741.9472	751.4655	760.6496	815.8789	963.4431	1125.7891	1152.1892	1212.8774	1242.0855	1322.7491	1335.2047	1485.3009	1603.3109	1629.2907	1654.7881	1693.4324	2318.3308	3273.4931	3509.7938	3537.1487	3608.3824	3638.1341
NC1=COC(C#N)=C1N	Nc1coc(C#N)c1N	
InChI=1S/C5H5N3O/c6-1-4-5(8)3(7)2-9-4/h2H,7-8H2	InChI=1S/C5H5N3O/c6-1-4-5(8)3(7)2-9-4/h2H,7-8H2
