17
gdb 6666	7.16369	0.75175	0.69889	1.5148	67.58	-0.2635	-0.0367	0.2267	1552.3414	0.139359	-401.015206	-401.00587	-401.004926	-401.050744	31.256	
C	-0.1955339642	 1.4406131002	 0.0694584884	-0.441483
C	 0.1059323931	-0.022384123	-0.0831925649	 0.409414
N	 1.2739808602	-0.4483749337	-0.3284583094	-0.514946
O	-1.0402836132	-0.7487014528	 0.0826402362	-0.239507
C	-0.9584353161	-2.1627832097	-0.0319597372	-0.095555
C	-2.3637757019	-2.7198670906	 0.1853202113	-0.2871
C	-2.3612580335	-4.2287209416	 0.3092930625	 0.15265
O	-3.03782184	-4.9718239632	-0.35109313	-0.225984
H	 0.7194200186	 2.0165835724	-0.0595609153	 0.150015
H	-0.9377293083	 1.752769614	-0.6717511159	 0.140747
H	-0.6218801842	 1.6381351822	 1.0578488955	 0.139195
H	 1.3241870943	-1.462825153	-0.4064757471	 0.216812
H	-0.5793383232	-2.4413371577	-1.0242697543	 0.126786
H	-0.2622446172	-2.5620750552	 0.7199416876	 0.115245
H	-2.7473454568	-2.3081281651	 1.1290840539	 0.138024
H	-3.0383799469	-2.4240087698	-0.6209467646	 0.13781
H	-1.6710116708	-4.6248597833	 1.0911777133	 0.077879
48.3917	60.1251	91.8869	137.4816	140.8155	174.4567	294.3183	321.8406	458.4678	517.5232	559.0138	612.4517	784.8685	857.8688	882.7251	891.2917	983.8332	1018.1327	1076.1119	1076.9514	1112.3972	1131.2016	1142.4261	1227.0583	1277.8277	1310.4487	1320.8873	1401.6706	1428.5681	1431.7854	1467.2819	1474.2805	1478.0121	1523.8388	1739.1753	1840.9637	2854.795	2995.6402	3027.1152	3042.2803	3051.3937	3109.4875	3120.9967	3170.9006	3502.6798
CC(=N)OCCC=O	C[C]([NH])OCCC=O	
InChI=1S/C5H9NO2/c1-5(6)8-4-2-3-7/h3,6H,2,4H2,1H3	InChI=1S/C5H9NO2/c1-5(6)8-4-2-3-7/h3,6H,2,4H2,1H3
