16
gdb 8021	3.48298	2.03903	1.55745	4.2406	66.95	-0.2337	0.0165	0.2502	846.0524	0.13078	-379.887032	-379.879804	-379.87886	-379.918203	27.69	
C	-0.2822024807	 1.5965896303	 0.016233799	-0.478723
C	 0.0639001298	 0.1286790881	 0.0413293275	 0.305229
C	-1.0518042297	-0.9284420838	 0.2321306053	-0.113766
O	-0.2976048559	-1.6157307183	 1.2539393202	-0.281825
C	 0.787271538	-0.6666821527	 1.1770423022	-0.034567
C	 1.8068244684	-1.0806066366	 0.1156106113	 0.398042
N	 2.8047579735	-1.8530972755	 0.1472216158	-0.550589
N	 1.1573139569	-0.2961330898	-0.8500386928	-0.378091
H	 0.6206085579	 2.2079107062	 0.0968465057	 0.133815
H	-0.7858551901	 1.8617906282	-0.9212084713	 0.123357
H	-0.9562281427	 1.8524424228	 0.8391516638	 0.129188
H	-1.9904140366	-0.5300652575	 0.637459189	 0.105986
H	-1.2686492839	-1.5624970154	-0.6359993052	 0.100152
H	 1.1116976476	-0.2919879587	 2.148018859	 0.098462
H	 3.2239208963	-1.9718253347	-0.7775534206	 0.209167
H	 1.0682029013	-0.5200610124	-1.8335148588	 0.234161
122.0974	203.5882	221.2965	273.5863	324.3596	388.5524	455.2017	479.108	622.5828	665.3853	740.7548	820.0124	845.8036	861.778	926.9596	969.3274	991.2061	1004.4647	1029.6822	1053.7507	1141.1994	1152.5343	1167.0041	1201.7771	1267.7341	1275.8646	1323.0392	1340.2307	1377.5302	1415.2685	1486.3564	1492.5502	1510.4896	1797.1172	3012.7968	3032.0564	3062.7322	3096.7071	3120.3791	3122.1036	3449.3966	3561.4198
CC12COC1C(=N)N2	C[C@]12CO[C@H]1[C]([NH])N2	
InChI=1S/C5H8N2O/c1-5-2-8-3(5)4(6)7-5/h3H,2H2,1H3,(H2,6,7)	InChI=1S/C5H8N2O/c1-5-2-8-3(5)4(6)7-5/h3H,2H2,1H3,(H2,6,7)/t3-,5-/m0/s1
