23
gdb 71230	2.61502	1.74322	1.59074	0.0607	87.97	-0.2585	0.0875	0.346	1012.3863	0.209089	-351.148992	-351.141612	-351.140668	-351.179977	32.053	
C	-0.0517579554	 1.5393549842	 0.0241171784	-0.480851
C	 0.022584663	 0.0226741383	-0.0001490437	 0.337459
C	 1.0772749784	-0.6492468728	-0.9379040435	-0.272646
C	 1.3003047899	-1.6811188844	 0.1784886969	-0.021269
C	 0.0376660134	-2.5645053872	 0.5419416848	-0.019071
C	-0.0469205524	-1.81667148	 1.9063074472	-0.242387
C	 0.7408946267	-0.6809267584	 1.2325157434	-0.04648
C	-1.1622921454	-2.1756065857	-0.3277337953	-0.22213
C	-1.3417004835	-0.6392098139	-0.2557032995	-0.243372
H	 0.9298248836	 1.983384344	 0.2226893658	 0.107423
H	-0.4089013419	 1.9343682529	-0.9345752982	 0.109734
H	-0.7397298504	 1.8893445097	 0.8034896947	 0.110333
H	 0.7462085493	-0.9800758471	-1.9285986335	 0.084436
H	 1.9650191664	-0.0192824049	-1.0592896693	 0.088843
H	 2.2625417465	-2.1845420496	 0.2870577615	 0.055155
H	 0.1919870296	-3.6456362969	 0.5694675875	 0.056114
H	-1.0409893122	-1.6191842669	 2.3226309478	 0.085433
H	 0.563630186	-2.2996459545	 2.6756804414	 0.092541
H	 1.3750121675	-0.0140616374	 1.8212150377	 0.051173
H	-0.992748375	-2.4961487172	-1.3617293658	 0.09686
H	-2.0670503138	-2.6904783891	 0.014528153	 0.090338
H	-2.0347970197	-0.3684624946	 0.5494914376	 0.094683
H	-1.7786436505	-0.2525101985	-1.184120899	 0.087681
213.5315	246.374	284.4678	293.1531	379.3319	396.9347	410.9335	472.6747	582.268	617.5981	692.456	773.59	797.1363	826.8387	841.748	864.9174	906.5661	929.8505	947.4524	968.139	977.9305	998.0209	1016.2641	1045.1242	1055.7272	1073.177	1087.997	1137.0733	1144.3197	1178.908	1211.8983	1218.5125	1232.1222	1237.9637	1271.6571	1272.4214	1282.1906	1295.8172	1313.9952	1330.1112	1364.3735	1375.6574	1408.9001	1481.2338	1484.1697	1489.6857	1494.8602	1499.6732	1513.5585	3015.1618	3023.8508	3028.7177	3032.9258	3037.5469	3054.7072	3070.7059	3073.7786	3075.5194	3079.905	3080.1282	3085.0514	3087.8677	3094.1786
CC12CC3C(CC13)CC2	C[C@@]12C[C@@H]3[C@@H](C[C@H]13)CC2	
InChI=1S/C9H14/c1-9-3-2-6-4-8(9)7(6)5-9/h6-8H,2-5H2,1H3	InChI=1S/C9H14/c1-9-3-2-6-4-8(9)7(6)5-9/h6-8H,2-5H2,1H3/t6-,7-,8+,9-/m1/s1
