19
gdb 90861	3.6972	1.50662	1.26322	0.831	81.64	-0.2255	-0.0153	0.2102	1040.8973	0.160112	-385.814753	-385.807486	-385.806542	-385.845973	30.046	
C	-0.0696155015	 1.5412574265	 0.0238521881	-0.410277
C	 0.0038669227	 0.0266989792	 0.0506211668	 0.119454
O	 0.6904068491	-0.3906913381	-1.1777156446	-0.284971
C	 0.8155104986	-1.783910691	-1.2710198839	 0.126559
C	 1.8719422559	-2.7603733749	-0.6592217701	-0.094936
C	 2.4693001971	-2.4523438471	 0.7448335132	-0.279013
C	 1.0983077106	-1.8557049666	 1.0239133205	 0.143159
C	 0.849761026	-0.5506236034	 1.15893638	-0.147492
C	 0.4452736291	-2.6358842232	-0.1176424085	-0.20795
H	 0.9355461044	 1.9733718512	 0.0331751788	 0.126317
H	-0.5822536017	 1.8861813931	-0.8773938587	 0.125669
H	-0.6135972283	 1.9056420602	 0.9005680335	 0.119285
H	-1.0036085289	-0.4081737168	 0.0335613974	 0.084663
H	 0.5132202756	-2.1256272868	-2.2595185604	 0.096701
H	 2.2595677529	-3.5424390323	-1.3055749467	 0.088049
H	 2.679731356	-3.4004955262	 1.2526150829	 0.108011
H	 3.3330850395	-1.7854369446	 0.825803732	 0.102203
H	 1.5447835887	 0.1062060859	 1.6778034564	 0.09184
H	-0.3563036658	-3.3613956052	-0.0520841068	 0.092729
150.3625	209.9272	242.6911	295.6177	380.8875	457.2654	469.6921	519.2167	557.455	685.7686	742.2858	770.9622	777.0173	805.6623	860.3596	876.0113	923.7527	959.5675	966.8789	980.7407	1018.0257	1038.2226	1053.9054	1068.4903	1074.1384	1126.4309	1140.6449	1165.2408	1187.3396	1228.6937	1242.0652	1293.7576	1317.0237	1331.6801	1375.12	1393.0658	1410.7956	1482.4285	1493.722	1499.9745	1679.5392	3019.7768	3030.6038	3044.7609	3087.9027	3117.3575	3122.2949	3126.5827	3147.6557	3152.0397	3179.8061
CC1OC2C3CC(=C1)C23	C[C@H]1O[C@H]2[C@H]3C[C]([CH]1)[C@@H]23	
InChI=1S/C8H10O/c1-4-2-5-3-6-7(5)8(6)9-4/h2,4,6-8H,3H2,1H3	InChI=1S/C8H10O/c1-4-2-5-3-6-7(5)8(6)9-4/h2,4,6-8H,3H2,1H3/t4-,6+,7-,8+/m1/s1
