19
gdb 114645	2.9043	1.32227	1.15769	2.4855	75.47	-0.2258	-0.0185	0.2074	1148.7714	0.159265	-423.018905	-423.010746	-423.009802	-423.051788	31.328	
C	-0.06959058	 1.5222123991	-0.0904660636	-0.383455
C	-0.0087728983	 0.0033083958	 0.0937249625	-0.199586
C	-1.3883785065	-0.6427328011	 0.0785892785	 0.141398
O	-2.0613699206	-0.4069033872	-1.2034175092	-0.297678
C	-2.3505783805	-1.7314802641	-1.6678668869	-0.012391
C	-2.8775802352	-2.4483488442	-0.3923319296	-0.266045
C	-1.4187176758	-2.1827661511	 0.1235750418	-0.20339
C	-1.0358012785	-2.483329718	-1.3486216307	 0.442384
O	-0.2165712707	-3.1321468489	-1.9225572621	-0.319478
H	 0.9339339012	 1.9570253092	-0.0931820302	 0.114744
H	-0.5558405763	 1.7732469725	-1.0366775118	 0.138753
H	-0.637911346	 1.9976000317	 0.7168872868	 0.112687
H	 0.6064466455	-0.4464354771	-0.6946470893	 0.115085
H	 0.473089169	-0.243145882	 1.0489863946	 0.097942
H	-2.0120075054	-0.2066660558	 0.8711976311	 0.078495
H	-2.8534658217	-1.7088500255	-2.6308878803	 0.101568
H	-3.6806375587	-1.929261844	 0.1342492488	 0.120135
H	-3.1057134112	-3.5059594041	-0.5364587196	 0.123587
H	-0.9729685001	-2.6879103052	 0.9767014891	 0.095247
87.7166	121.8471	177.9766	203.2546	249.8852	387.9839	423.3617	455.9972	495.85	627.1631	635.2458	764.1634	797.8473	827.0671	840.5384	872.4957	912.2135	955.5571	962.7112	993.3009	1011.8456	1052.1049	1064.3193	1082.1944	1099.0489	1129.7643	1167.508	1201.0775	1218.447	1244.8515	1276.9251	1291.0292	1314.5605	1359.2753	1409.0127	1412.7555	1476.7605	1478.3962	1498.2206	1509.6057	1909.4494	3002.5206	3024.3752	3037.7683	3066.1863	3075.3238	3104.7585	3125.0304	3145.9555	3159.481	3168.4569
CCC1OC2CC1C2=O	CC[C@H]1O[C@@H]2C[C@H]1C2=O	
InChI=1S/C7H10O2/c1-2-5-4-3-6(9-5)7(4)8/h4-6H,2-3H2,1H3	InChI=1S/C7H10O2/c1-2-5-4-3-6(9-5)7(4)8/h4-6H,2-3H2,1H3/t4-,5-,6-/m1/s1
