25
gdb 121233	2.95475	0.79089	0.67396	1.7811	89.68	-0.2387	0.0825	0.3212	1807.3885	0.22795	-389.486229	-389.475428	-389.474484	-389.523273	38.73	
C	-0.079251586	 1.5852501261	-0.2086430095	-0.381768
C	 0.1041634463	 0.0664206222	-0.1527885883	-0.169958
C	 0.5020710689	-0.4407575906	 1.2395625332	-0.184924
C	 0.6970612595	-1.9537905303	 1.2814950412	-0.066642
C	 1.9994133607	-2.5038229724	 0.6564729099	-0.075898
O	 2.4647823087	-2.9978634099	 1.9266370731	-0.294394
C	 1.2305319954	-2.6164427493	 2.5856975017	 0.140908
C	 1.4750319651	-1.7916902703	 3.8385409946	-0.186137
C	 2.2468282167	-2.5860620283	 4.8977599515	-0.38617
H	 0.845744256	 2.1061882846	 0.0624461985	 0.115191
H	-0.3660352991	 1.9166590716	-1.2114773137	 0.11239
H	-0.8588830543	 1.9152335793	 0.4870209162	 0.114282
H	-0.8251975716	-0.4284101791	-0.4646644198	 0.095392
H	 0.8671990264	-0.2365835769	-0.8819903345	 0.099051
H	 1.4242849234	 0.0638319046	 1.5554537484	 0.099224
H	-0.2708641615	-0.1483899337	 1.9630804151	 0.094738
H	-0.2049360779	-2.4446416497	 0.9032147527	 0.071106
H	 1.8713955404	-3.3115058519	-0.0758710204	 0.095111
H	 2.6810883306	-1.7526956534	 0.2349664675	 0.094754
H	 0.6578855993	-3.5174351452	 2.8568027639	 0.063694
H	 2.0336803695	-0.8863131018	 3.5775911048	 0.098431
H	 0.505658836	-1.4671444516	 4.2393614623	 0.092923
H	 3.2021086911	-2.9307238366	 4.4921307966	 0.138473
H	 2.4499957306	-1.9745067818	 5.781845205	 0.108657
H	 1.6822008558	-3.4674415858	 5.22178167	 0.111564
40.7808	83.3301	96.8824	106.1668	115.3605	202.2537	230.6681	243.8089	285.556	322.1625	414.4301	466.4198	501.4813	738.2595	756.0924	823.1405	827.1905	872.655	879.3414	914.6015	944.4702	976.281	996.0822	1029.262	1047.5968	1055.0467	1091.0556	1112.4307	1138.1004	1158.5515	1170.0741	1198.5873	1247.4573	1260.1467	1280.6741	1303.4186	1307.148	1329.7798	1335.8029	1366.2594	1380.6916	1401.0742	1406.7022	1413.5966	1417.1007	1472.5777	1484.1895	1494.0977	1497.8371	1499.3376	1509.7022	1510.4147	1528.5848	2971.5058	3000.6876	3009.3041	3016.9124	3025.5048	3029.8601	3034.1139	3035.7433	3037.5597	3052.2141	3065.3025	3073.7298	3096.1696	3102.2545	3103.0241	3119.8503
CCCC1COC1CC	CCC[C@H]1CO[C@H]1CC	
InChI=1S/C8H16O/c1-3-5-7-6-9-8(7)4-2/h7-8H,3-6H2,1-2H3	InChI=1S/C8H16O/c1-3-5-7-6-9-8(7)4-2/h7-8H,3-6H2,1-2H3/t7-,8-/m0/s1
