19
gdb 108271	2.39593	1.722	1.20587	2.2965	77.65	-0.2299	0.0011	0.231	1070.0586	0.159822	-422.992428	-422.984325	-422.983381	-423.025056	31.503	
O	 0.0186757026	 1.5462708727	-0.0910289738	-0.424375
C	 0.1338630514	 0.1366939146	-0.0419513979	-0.100869
C	-1.2471555022	-0.5084184317	 0.0354182124	 0.354288
C	-2.0023772327	-0.558820504	-1.3434424683	-0.280342
C	-1.576813427	-2.075388705	-1.4609157874	-0.317689
C	-1.3748339914	-1.9974078778	 0.0381032678	 0.195456
C	-1.8832336938	-2.4173809525	 1.1900802306	-0.237372
C	-2.0270610495	-1.2031569452	 2.0986742465	-0.128152
O	-1.885574319	-0.0578104947	 1.2307155366	-0.335676
H	-0.5443994442	 1.7858899769	 0.6553422008	 0.290814
H	 0.6614581534	-0.1715190513	-0.9507235706	 0.101867
H	 0.7318369228	-0.1913622921	 0.8232003185	 0.085646
H	-3.0794584161	-0.4560540324	-1.2046570869	 0.117725
H	-1.6489120138	 0.1242464626	-2.1185850973	 0.115175
H	-2.3145978156	-2.7907861764	-1.8272888208	 0.117767
H	-0.6521031744	-2.1910521736	-2.0336845375	 0.119735
H	-2.2942920035	-3.387964949	 1.4377012625	 0.106158
H	-3.0202459184	-1.1663351485	 2.5641552535	 0.114117
H	-1.2820989286	-1.1583540226	 2.9085981913	 0.105727
89.0961	140.3017	177.3521	240.3191	291.9853	341.1486	394.4423	474.5976	493.329	628.2328	679.1333	714.0387	772.2637	797.2214	821.4249	875.6573	915.6343	922.6424	935.3817	1014.4645	1022.046	1051.8047	1065.6677	1086.868	1121.1402	1128.4427	1172.0965	1196.5389	1219.1991	1221.9865	1239.3224	1257.6848	1315.3515	1363.897	1376.1756	1431.5816	1470.3396	1484.151	1501.2706	1518.8	1725.8043	2975.1306	2980.3777	3035.705	3060.9516	3071.5967	3075.8674	3121.4486	3146.5436	3212.3342	3785.0664
OCC12CCC1=CCO2	OC[C@@]12CC[C]1[CH]CO2	
InChI=1S/C7H10O2/c8-5-7-3-1-6(7)2-4-9-7/h2,8H,1,3-5H2	InChI=1S/C7H10O2/c8-5-7-3-1-6(7)2-4-9-7/h2,8H,1,3-5H2/t7-/m0/s1
