21
gdb 73545	2.48576	1.87049	1.55831	1.1081	81.78	-0.2323	0.0743	0.3065	977.252	0.184806	-387.033265	-387.025758	-387.024814	-387.06467	31.711	
O	 0.2237791172	 1.3978219945	-0.0830740928	-0.500593
C	 0.0991687101	-0.0099353278	-0.0324879674	 0.493376
C	 0.7039613629	-0.5414787219	-1.3452755145	-0.31522
C	-0.5413391377	-0.9462661668	-2.2253904185	-0.194793
C	-1.847920873	-0.6298235322	-1.4124831428	-0.358593
C	-1.3062248817	-0.6623278479	-0.007522066	 0.311508
C	-1.487808717	-0.1118853225	 1.4391201766	-0.350586
C	-0.0110304275	-0.6828730909	 1.3781969064	-0.159523
C	-0.6305696391	-1.9073196431	 0.6630694102	-0.259547
H	-0.0677899573	 1.7712854585	 0.7535590737	 0.277148
H	 1.2823315709	 0.2571233429	-1.8113340087	 0.114285
H	 1.3780917621	-1.3881861586	-1.2044891221	 0.104771
H	-0.5392605677	-0.4236873682	-3.1853238419	 0.102232
H	-0.5057812254	-2.0160117332	-2.45169982	 0.101354
H	-2.213540651	 0.3749809035	-1.6507059418	 0.108641
H	-2.6494275419	-1.3416866331	-1.6284700334	 0.094714
H	-1.6322558104	 0.9649636144	 1.5576981279	 0.081985
H	-2.1725437902	-0.6549584133	 2.0953782636	 0.095632
H	 0.7139728209	-0.6915642941	 2.1958848732	 0.067101
H	-1.2955587092	-2.5254138307	 1.2709517724	 0.090145
H	 0.0326352649	-2.5277361394	 0.0601685059	 0.095964
122.3046	201.829	264.0685	318.1786	354.1472	432.1213	481.5094	532.3405	561.0632	616.3226	668.7074	732.7308	778.871	797.1108	841.6641	857.9974	878.2037	922.4137	951.919	960.4388	980.5396	992.98	1005.0364	1030.6399	1070.1782	1097.8977	1106.3502	1142.2723	1152.7066	1189.4747	1202.0136	1209.9228	1221.2716	1245.4297	1254.1988	1283.4706	1305.7713	1319.4643	1349.2914	1371.9852	1480.6004	1483.5933	1501.8277	1512.9743	1548.7223	3044.6447	3055.0877	3055.9674	3066.9832	3081.5646	3084.6567	3087.4489	3101.5368	3111.0283	3128.9835	3138.9333	3831.2714
OC12CCCC11CC2C1	O[C@]12CCC[C@@]31C[C@H]2C3	
InChI=1S/C8H12O/c9-8-3-1-2-7(8)4-6(8)5-7/h6,9H,1-5H2	InChI=1S/C8H12O/c9-8-3-1-2-7(8)4-6(8)5-7/h6,9H,1-5H2/t6-,7+,8-/m0/s1
