19
gdb 72412	2.87452	1.57928	1.33605	2.4529	74.57	-0.2391	-0.0157	0.2234	1021.2244	0.160155	-423.065698	-423.058047	-423.057103	-423.097453	30.799	
C	 0.0285699117	 1.4787062333	 0.091306898	-0.468081
C	-0.029152119	-0.0254338168	-0.0408224339	 0.399044
C	 0.6847478413	-0.692227979	-1.2364999225	-0.272337
C	 0.4297295307	-2.121671819	-0.7142237654	-0.156626
C	 0.9855354767	-1.965242509	 0.7220753104	-0.08997
O	 0.648538763	-0.6202770726	 1.0907299764	-0.307979
C	-1.0940606353	-2.1052481699	-0.5529595631	 0.420931
O	-1.8609869384	-3.0142516599	-0.7263092296	-0.327114
C	-1.4322012523	-0.6679121799	-0.1114340489	-0.360217
H	 1.0675519157	 1.8194047553	 0.1184379408	 0.125136
H	-0.4768772621	 1.959900536	-0.7512738381	 0.117505
H	-0.460221771	 1.801709711	 1.0151923503	 0.130382
H	 0.2098176723	-0.4858543681	-2.1994311521	 0.108291
H	 1.7446888534	-0.4294119466	-1.2848469417	 0.109946
H	 0.8158124087	-2.9746520662	-1.2690470463	 0.088983
H	 0.5437893224	-2.6733310488	 1.4327775161	 0.116195
H	 2.0757997735	-2.0931282104	 0.737387778	 0.106618
H	-1.9552413602	-0.6582478938	 0.8482478606	 0.134
H	-2.0764649612	-0.1900751556	-0.8584037291	 0.125293
116.0861	215.9663	236.2208	269.4436	303.1004	404.3256	445.4389	472.139	539.5822	585.0108	628.0855	699.667	793.4883	801.4867	867.4688	897.1996	907.667	945.4247	956.7142	969.1051	1005.2889	1028.4854	1088.7139	1108.4704	1134.6182	1169.7841	1196.286	1208.429	1227.8818	1253.7794	1272.7028	1285.1798	1344.3299	1372.5188	1417.1198	1436.2584	1482.3999	1493.2171	1496.6592	1532.4044	1860.2658	3013.1586	3042.1873	3049.8723	3058.1235	3062.5613	3110.139	3115.921	3116.3716	3119.9948	3143.3651
CC12CC(CO1)C(=O)C2	C[C@@]12C[C@@H](CO1)C(=O)C2	
InChI=1S/C7H10O2/c1-7-2-5(4-9-7)6(8)3-7/h5H,2-4H2,1H3	InChI=1S/C7H10O2/c1-7-2-5(4-9-7)6(8)3-7/h5H,2-4H2,1H3/t5-,7-/m0/s1
