15
gdb 22326	3.49527	1.18673	0.89101	6.0301	77.95	-0.2147	-0.0422	0.1725	1221.3988	0.112569	-453.941452	-453.933063	-453.932119	-453.974401	31.481	
N	 0.0940865241	 1.3022569934	-0.072897579	-0.579927
C	-0.0190961648	-0.0477901304	-0.0279297977	 0.380186
C	-1.1529243344	-0.7964763041	-0.0139045039	-0.312616
C	-0.8481742187	-2.2234835428	-0.0090096503	 0.338219
O	-1.6235944324	-3.1571295759	 0.0049954527	-0.354669
C	 0.6724659125	-2.303841375	-0.0203176845	 0.27714
C	 1.2297019295	-0.8978161872	-0.0364640341	-0.38872
N	 1.4713702726	-3.2981050592	-0.0182524682	-0.223192
O	 0.8388636752	-4.5298476454	-0.003747947	-0.351287
H	 0.9821511982	 1.7341151514	 0.1181249138	 0.265004
H	-0.7199014708	 1.8762324904	 0.072252898	 0.267503
H	-2.1672590566	-0.4194100509	-0.0064114531	 0.098521
H	 1.8389908749	-0.7008033207	-0.926881078	 0.140702
H	 1.8611361892	-0.6910232173	 0.8369171175	 0.133973
H	 1.5859526915	-5.1390491163	-0.0052528662	 0.309164
72.6558	162.837	207.8797	271.52	294.5153	324.3159	344.9389	420.5467	453.5346	507.4983	510.9879	555.0916	594.3428	707.6017	741.46	772.8266	857.6854	901.8761	972.068	1020.5018	1072.661	1140.3786	1160.0225	1226.2612	1261.8338	1296.8455	1419.8227	1421.9612	1464.4033	1634.5188	1675.8808	1723.3058	1791.7372	3026.7742	3059.6013	3217.1457	3603.4799	3719.1127	3801.5287
NC1=CC(=O)C(C1)=NO	NC1=CC(=O)C(=NO)C1	
InChI=1S/C5H6N2O2/c6-3-1-4(7-9)5(8)2-3/h2,9H,1,6H2	InChI=1S/C5H6N2O2/c6-3-1-4(7-9)5(8)2-3/h2,9H,1,6H2
