23
gdb 76548	2.42088	1.2403	1.0916	1.3634	85.98	-0.2401	0.0673	0.3074	1280.7927	0.204128	-388.26826	-388.258105	-388.25716	-388.303765	37.944	
C	-0.141898445	 1.4581262352	-0.305952432	-0.40494
C	 0.0879350226	-0.0324436891	-0.1836599779	-0.109925
C	 1.4812565215	-0.5999527523	-0.1264921698	 0.010695
O	 2.5396398921	 0.3132536272	-0.1932146059	-0.418025
C	 0.607218457	-0.6370802084	 1.101074802	 0.32044
C	 0.9260564503	 0.0832862415	 2.4157264431	-0.297077
C	 0.5883390462	-1.2331909612	 3.1776728765	-0.222835
C	 0.1175676584	-1.897302402	 1.8433331698	-0.063809
C	-1.375794445	-2.1949165019	 1.7550199916	-0.392374
H	 0.6605445611	 2.02036361	 0.175723618	 0.132396
H	-0.1720459614	 1.7632786405	-1.3573584159	 0.116726
H	-1.0928098734	 1.7488370758	 0.1541580783	 0.109115
H	-0.6278508454	-0.6461603955	-0.7271258733	 0.0793
H	 1.6637543104	-1.5446680077	-0.6429235425	 0.075818
H	 3.2351624179	 0.0082043349	 0.399016995	 0.286269
H	 1.9538240154	 0.4453217932	 2.5168037866	 0.086403
H	 0.256969354	 0.9170888574	 2.648259355	 0.10251
H	 1.4580968553	-1.7166148951	 3.6289573452	 0.096502
H	-0.1877270511	-1.1448087423	 3.9426730238	 0.096417
H	 0.683196161	-2.8000779961	 1.5833207541	 0.0613
H	-1.9714637829	-1.3126739548	 2.0152787024	 0.112978
H	-1.6656829716	-2.5038555033	 0.7445767616	 0.111847
H	-1.6541270572	-3.0020687961	 2.4418425642	 0.110268
25.8934	123.9149	162.4307	171.7005	188.2581	228.3148	249.7972	281.6996	303.0376	381.1373	424.7449	518.1863	574.1028	594.708	750.8519	761.1695	799.8505	864.3392	878.6264	926.8072	944.9496	955.8515	997.2077	1025.7326	1052.56	1085.1051	1108.2609	1138.0633	1150.7694	1169.3934	1181.1701	1199.8711	1231.2784	1245.8549	1258.4789	1278.9466	1294.2257	1325.2609	1350.7599	1367.9314	1406.9399	1411.4022	1461.8353	1481.434	1492.819	1494.6131	1495.9071	1501.4693	1504.4683	3022.2169	3023.3891	3033.6688	3044.703	3059.8729	3072.2288	3082.7714	3089.7241	3090.194	3092.6895	3112.2661	3119.0007	3135.6615	3801.4449
CC1C(O)C11CCC1C	C[C@H]1[C@@H](O)[C@]21CC[C@H]2C	
InChI=1S/C8H14O/c1-5-3-4-8(5)6(2)7(8)9/h5-7,9H,3-4H2,1-2H3	InChI=1S/C8H14O/c1-5-3-4-8(5)6(2)7(8)9/h5-7,9H,3-4H2,1-2H3/t5-,6+,7-,8-/m1/s1
