22
gdb 20080	3.07365	1.43122	1.18284	0.1222	82.82	-0.2387	0.0858	0.3244	1143.9859	0.199676	-313.047375	-313.038178	-313.037233	-313.081439	34.235	
C	-0.3958327979	 0.9703426766	-1.6004341519	-0.403228
C	 0.0093184816	-0.2171709882	-0.7522212455	-0.033211
C	 1.4546557594	-0.6183602845	-0.5235748514	-0.033215
C	 2.626455196	 0.1314215845	-1.1223357211	-0.403233
C	 0.6281618783	-0.0711568336	 0.6265882441	-0.031645
C	 0.8959370836	 1.2568273891	 1.2640028095	 0.031961
C	 0.0472410274	 1.7155782148	 2.4265643326	-0.271844
C	 1.4842343723	 1.3165637998	 2.6541909789	-0.271853
H	 0.2918568081	 1.8140080526	-1.5071617897	 0.11363
H	-0.4346275682	 0.6973227031	-2.6610971027	 0.113014
H	-1.3907400984	 1.3304429388	-1.3156026391	 0.116918
H	-0.6804658474	-1.0527120577	-0.8496656916	 0.076294
H	 1.6237503499	-1.692304703	-0.4851421705	 0.076295
H	 2.4642797827	 1.2109482199	-1.1636892945	 0.113632
H	 3.5366582016	-0.0371420169	-0.5360260274	 0.116919
H	 2.8251353167	-0.2076354744	-2.1453786349	 0.113015
H	 0.3066365247	-0.8152060662	 1.3535034427	 0.06967
H	 1.2209632016	 2.0447367968	 0.5933462725	 0.075377
H	-0.2153632342	 2.7656522236	 2.4949104922	 0.107145
H	-0.7270136616	 1.0422549763	 2.7801598851	 0.108606
H	 1.67402174	 0.3755531741	 3.1604960118	 0.108606
H	 2.2075816236	 2.0928656444	 2.8787167411	 0.107146
46.4281	120.6904	153.3361	170.4304	182.1887	243.7818	290.6499	315.5813	465.3084	490.216	563.0886	747.4944	749.1394	781.0767	820.8114	826.0931	912.442	915.6549	948.8071	970.4741	1011.1487	1046.6754	1052.6967	1063.6469	1073.5862	1104.4804	1130.3975	1138.3584	1158.4742	1186.4242	1198.2574	1215.0602	1225.2402	1274.7387	1315.1369	1376.7653	1416.5548	1420.9771	1423.5322	1465.2873	1469.478	1487.4457	1493.8924	1500.3509	1505.977	1517.8722	3029.53	3033.054	3083.9157	3085.5091	3103.7626	3106.3158	3116.928	3121.5513	3126.4201	3130.9945	3135.6643	3163.8167	3203.872	3219.9345
CC1C(C)C1C1CC1	C[C@H]1[C@@H](C)[C@H]1C1CC1	
InChI=1S/C8H14/c1-5-6(2)8(5)7-3-4-7/h5-8H,3-4H2,1-2H3	InChI=1S/C8H14/c1-5-6(2)8(5)7-3-4-7/h5-8H,3-4H2,1-2H3/t5-,6+,8-
