22
gdb 117342	4.18634	0.68497	0.60818	2.537	81.03	-0.2496	0.0374	0.2871	1893.7433	0.191996	-441.502604	-441.491725	-441.490781	-441.539215	38.995	
C	-0.2616770633	 1.5239658729	 0.3291456113	-0.389366
C	-0.0144487961	 0.0561630423	 0.0333302952	-0.027064
O	-1.2896987419	-0.6015216943	 0.0146741703	-0.249592
C	-1.2800607111	-1.9288221419	-0.2419268972	 0.391313
N	-0.1986433913	-2.5640842133	-0.4267500259	-0.538181
C	-2.7071368349	-2.4474824577	-0.2755057024	-0.303615
C	-2.8693175198	-3.9283347348	 0.0945153871	 0.118216
C	-4.34029248	-4.3308793555	 0.191815573	-0.397494
O	-2.1644699055	-4.7886756723	-0.8044807928	-0.419103
H	 0.6891217152	 2.064915073	 0.3523121142	 0.118428
H	-0.8967513577	 1.9765692623	-0.4380469135	 0.123579
H	-0.7530978701	 1.650112718	 1.2983284249	 0.124055
H	 0.480057374	-0.0920043734	-0.9326980711	 0.115278
H	 0.6205753956	-0.4146322647	 0.7911209726	 0.117911
H	-0.4060446741	-3.5421967515	-0.6241774349	 0.237449
H	-3.3092328664	-1.8316848894	 0.3999560975	 0.123306
H	-3.11814232	-2.2777643308	-1.2817385728	 0.112074
H	-2.3828862218	-4.1027421863	 1.0610819988	 0.104345
H	-4.8577291134	-4.1511411007	-0.7589517773	 0.108629
H	-4.4231409172	-5.3942395068	 0.4307403545	 0.128574
H	-4.8584965544	-3.7567926558	 0.9663543847	 0.121407
H	-2.5523134758	-4.6822320492	-1.681006446	 0.279853
45.311	85.5057	99.0624	123.3236	164.9983	229.0093	244.4254	260.5087	302.0592	333.491	358.2124	403.7004	457.6574	477.6188	589.505	708.7657	807.3203	838.2114	882.8093	910.4602	924.1684	951.9331	972.6764	1051.7712	1061.4289	1087.7941	1130.8161	1140.4161	1160.3622	1184.0378	1190.8133	1286.2272	1291.1413	1327.6243	1361.1314	1381.8128	1405.1536	1410.2969	1421.9911	1440.1621	1460.9095	1485.9336	1492.3386	1495.488	1496.8791	1521.3859	1726.9379	3008.5	3026.8479	3043.5417	3045.6509	3052.6256	3080.2636	3082.2353	3099.0837	3117.7991	3120.8676	3123.0878	3501.4933	3790.9755
CCOC(=N)CC(C)O	CCO[C]([NH])C[C@@H](C)O	
InChI=1S/C6H13NO2/c1-3-9-6(7)4-5(2)8/h5,7-8H,3-4H2,1-2H3	InChI=1S/C6H13NO2/c1-3-9-6(7)4-5(2)8/h5,7-8H,3-4H2,1-2H3/t5-/m1/s1
