17
gdb 46752	2.85445	1.79723	1.39996	4.4155	70.92	-0.2216	0.039	0.2606	940.6687	0.139546	-417.998229	-417.991358	-417.990414	-418.029532	27.476	
O	-0.0208912543	-0.0453087265	 0.0805157417	-0.392215
C	-0.0013515408	 1.1662404082	 0.039971613	 0.41529
N	-1.0977457836	 1.9860106611	-0.0042076008	-0.297832
C	-0.8656246479	 3.4219304851	 0.0735433769	-0.181756
C	 0.6754325329	 3.5392019436	 0.0309177284	-0.036555
C	 1.4284740664	 3.751818936	 1.3619463584	-0.063649
N	 0.8858458658	 2.752553884	 2.3105933178	-0.328901
C	 1.9353395945	 2.3530485001	 1.3433216229	-0.045213
C	 1.2211796825	 2.077871463	 0.0035676287	-0.150701
H	-2.0151552047	 1.5821301376	 0.1053069975	 0.247013
H	-1.3400337388	 3.9398095196	-0.7686445123	 0.1025
H	-1.2665757864	 3.8387680465	 1.0047811383	 0.117798
H	 1.0373058839	 4.1790281609	-0.7734697461	 0.084174
H	 1.8937040639	 4.6633799331	 1.7162864985	 0.096226
H	 1.3449872087	 2.9017074469	 3.2079423662	 0.234036
H	 2.8746484189	 1.936120643	 1.6821884279	 0.100654
H	 1.8975724389	 1.8234850978	-0.812444647	 0.099131
114.0246	164.4006	227.3715	345.455	467.9337	500.7246	572.3566	606.7275	696.4884	720.0201	732.3566	807.4115	830.8523	849.8281	910.9467	922.4652	959.0956	988.0955	1013.9273	1023.1365	1059.8401	1090.7108	1102.0071	1115.1738	1175.1831	1215.7538	1224.4987	1243.4264	1260.6036	1302.6206	1313.5232	1339.1379	1357.5705	1380.5496	1458.2831	1522.2869	1824.2002	3019.1962	3054.6881	3111.1409	3121.4498	3186.3917	3204.9544	3484.9391	3631.7221
O=C1NCC2C3NC3C12	O=C1NC[C@H]2[C@H]3N[C@H]3[C@@H]12	
InChI=1S/C6H8N2O/c9-6-3-2(1-7-6)4-5(3)8-4/h2-5,8H,1H2,(H,7,9)	InChI=1S/C6H8N2O/c9-6-3-2(1-7-6)4-5(3)8-4/h2-5,8H,1H2,(H,7,9)/t2-,3+,4-,5+/m1/s1
