16
gdb 18622	3.04847	2.30072	1.85448	4.0891	65.44	-0.2495	0.0311	0.2806	786.3335	0.132085	-379.913828	-379.906853	-379.905909	-379.944943	26.385	
C	-0.0054965283	 1.5287038437	 0.1365696172	-0.426256
C	 0.0390541568	 0.0342105693	-0.0731134049	 0.000334
C	 0.6872478403	-0.6324453616	-1.2303166516	-0.063767
C	 1.6754579724	 0.151633753	-2.076204529	-0.120722
O	 2.6880216268	 0.5730916042	-1.1560016667	-0.245104
C	 2.468647503	 0.0232872768	 0.0876096207	 0.43476
N	 3.2170451267	 0.1853864675	 1.0874272668	-0.538227
N	 1.2885449918	-0.7664657126	 0.1103673461	-0.149895
H	 0.8212897658	 2.0522683297	-0.3478647181	 0.142516
H	-0.9442615947	 1.9256694624	-0.2633743845	 0.12558
H	 0.0301205631	 1.7615432529	 1.205186876	 0.147356
H	-0.8091307388	-0.492566544	 0.3583198866	 0.109116
H	 0.2557978488	-1.5312615366	-1.6599373936	 0.109054
H	 2.1275016797	-0.4851894361	-2.8442537894	 0.125922
H	 1.2507621244	 1.0373459614	-2.560589724	 0.122714
H	 4.0099592825	 0.77606855	 0.8378345884	 0.226618
116.9038	169.3961	203.5527	233.9869	380.5621	468.149	505.1156	679.0797	695.9822	756.3129	785.2184	799.5747	865.5055	873.3838	957.4853	969.2318	998.5864	1020.2633	1057.8091	1105.1118	1118.8542	1151.9341	1170.1989	1223.8861	1244.3691	1316.0823	1371.3871	1390.4255	1422.5131	1434.6397	1493.5731	1499.9956	1526.0602	1778.5791	3039.4901	3044.8385	3078.4521	3107.3601	3124.3928	3141.4007	3158.7198	3500.1481
CC1C2COC(=N)N12	C[C@H]1[C@H]2CO[C]([NH])N12	
InChI=1S/C5H8N2O/c1-3-4-2-8-5(6)7(3)4/h3-4,6H,2H2,1H3	InChI=1S/C5H8N2O/c1-3-4-2-8-5(6)7(3)4/h3-4,6H,2H2,1H3/t3-,4+,7?/m0/s1
