16
gdb 14145	4.18115	1.74211	1.485	2.6988	67.91	-0.2165	0.0082	0.2247	871.933	0.130176	-383.717038	-383.709883	-383.708939	-383.748326	27.6	
O	-0.1876174912	 1.378091687	-0.0713050514	-0.433163
C	 0.0066259849	 0.0012316082	-0.0428945134	 0.073661
C	-0.1910848211	-0.7669829241	 1.250131892	-0.383826
C	-1.2206005258	-0.863432908	 0.1464064635	 0.383339
O	-2.4200138796	-0.1230532118	 0.327576104	-0.323281
C	-3.4909238445	-0.7825893275	-0.3616018082	-0.131081
C	-2.8730425036	-2.0281570586	-0.935988744	-0.11023
C	-1.5776541144	-2.0620329783	-0.6342006636	-0.159647
H	-1.1456680985	 1.5123859519	-0.0357089826	 0.293651
H	 0.7847016099	-0.3288637586	-0.7264579199	 0.097348
H	 0.4332835823	-1.6313788027	 1.4534760503	 0.112882
H	-0.4805864949	-0.1842307789	 2.1182855135	 0.128004
H	-4.3015222104	-0.9938837289	 0.3513045717	 0.115136
H	-3.9008213673	-0.1170939336	-1.1366199765	 0.112542
H	-3.4310108449	-2.7562467737	-1.5095636478	 0.110697
H	-0.8594273009	-2.8240946626	-0.9055047576	 0.113968
95.1348	176.4114	218.8484	295.8569	402.808	410.7451	465.8879	536.7431	618.4753	716.5157	779.3471	817.0186	849.2967	876.5996	908.4864	948.2408	956.7203	991.1639	1029.8054	1042.6991	1060.6186	1097.776	1115.126	1158.708	1197.1619	1227.2935	1282.5008	1342.2813	1378.4575	1394.5013	1422.4574	1472.1121	1518.5161	1676.4124	2983.9474	3006.282	3123.8252	3139.3295	3215.7371	3222.0868	3239.0303	3729.477
OC1CC11OCC=C1	O[C@H]1C[C@]21OCC=C2	
InChI=1S/C6H8O2/c7-5-4-6(5)2-1-3-8-6/h1-2,5,7H,3-4H2	InChI=1S/C6H8O2/c7-5-4-6(5)2-1-3-8-6/h1-2,5,7H,3-4H2/t5-,6+/m0/s1
