25
gdb 59648	3.19428	0.93171	0.76288	1.2731	89.25	-0.2608	0.0766	0.3374	1591.6929	0.22879	-389.517269	-389.506911	-389.505967	-389.552742	39.162	
C	 0.0701844525	 1.59841401	-0.0638098829	-0.410063
C	 0.0075012736	 0.0702662169	-0.0291246404	 0.109605
O	 0.6938259995	-0.4889357324	-1.1490891652	-0.441832
C	 0.6530782952	-0.5290804584	 1.2180627801	 0.065715
C	-0.0360803024	-0.1200829	 2.5503943299	-0.23844
C	 0.0201003278	-1.3723492733	 3.468438937	-0.214042
C	 0.9061912634	-2.4006577028	 2.7304738711	 0.048673
C	 0.6413388958	-3.8536162233	 3.1188627005	-0.408562
C	 0.6564831345	-2.0675272494	 1.2513335517	-0.214098
H	 1.111357716	 1.9364012257	-0.0389651625	 0.121619
H	-0.3909505687	 1.9849521623	-0.9806813498	 0.100144
H	-0.4618228863	 2.0422082038	 0.7830815636	 0.120571
H	-1.0520992733	-0.2433928588	-0.0472926984	 0.056262
H	 0.3292633742	-0.0941284037	-1.9473754579	 0.277787
H	 1.6970475147	-0.1879453888	 1.2359324191	 0.07003
H	 0.4568527965	 0.7441852862	 3.0042282995	 0.097545
H	-1.0760481861	 0.1764257453	 2.3717370148	 0.09332
H	 0.3945292171	-1.1442656598	 4.470866925	 0.091554
H	-0.9854471972	-1.790550575	 3.5983838524	 0.092053
H	 1.9582909994	-2.1683834615	 2.9510926209	 0.066426
H	-0.3975706167	-4.1316726957	 2.9041792277	 0.10899
H	 1.2907128739	-4.540669434	 2.5656851486	 0.110421
H	 0.8153935533	-4.0208600492	 4.1875683509	 0.10833
H	-0.3296890666	-2.4500830166	 0.9490037826	 0.083459
H	 1.39349827	-2.5025563273	 0.5727012417	 0.104537
53.068	83.1403	123.3529	166.3577	236.708	239.9205	283.1236	287.6693	324.3415	353.9387	419.3567	452.8407	478.4201	543.8715	625.9877	780.23	840.7358	850.5221	898.7622	921.5071	926.3235	959.7623	971.6751	1006.0389	1034.0442	1057.1492	1077.4267	1096.5732	1113.9436	1141.0367	1171.4108	1191.5975	1223.3496	1255.719	1269.475	1292.9134	1305.2661	1310.5272	1337.0477	1350.8247	1358.9534	1369.5643	1386.7777	1405.0474	1411.5033	1430.8116	1487.5358	1489.0206	1493.5056	1496.9291	1498.9002	1499.6851	1512.5668	2932.1119	2991.61	3003.8647	3017.2203	3021.5937	3025.7351	3027.5808	3041.9913	3070.5334	3086.4249	3090.6591	3092.3842	3093.0432	3104.6972	3113.5665	3817.5039
CC(O)C1CCC(C)C1	C[C@@H](O)[C@H]1CC[C@@H](C)C1	
InChI=1S/C8H16O/c1-6-3-4-8(5-6)7(2)9/h6-9H,3-5H2,1-2H3	InChI=1S/C8H16O/c1-6-3-4-8(5-6)7(2)9/h6-9H,3-5H2,1-2H3/t6-,7-,8+/m1/s1
