20
gdb 40027	3.37439	1.56608	1.45634	1.7848	81.29	-0.2195	0.0878	0.3073	989.0292	0.17383	-365.960619	-365.953742	-365.952797	-365.991574	29.143	
C	 0.0193704654	 1.5188899307	-0.0267179333	-0.306445
C	 1.3178958789	 0.7516069819	-0.0054892802	-0.34693
C	 0.0083116416	 0.0091029684	 0.0340235555	 0.386143
C	-0.4584584825	-0.7683114429	 1.274874506	-0.298442
C	-1.5545917723	-1.6772265527	 0.7026034856	-0.068422
C	-2.603867445	-0.8294642385	-0.0594680869	-0.153431
N	-1.9093060802	-1.045588835	-1.3759999169	-0.162196
C	-1.0461695869	-2.0834932237	-0.7076031138	-0.051568
C	-0.4448998732	-0.8109026773	-1.1482715669	-0.098967
H	-0.2641097421	 2.0670506328	 0.8661390047	 0.109826
H	-0.2805354005	 1.9936209448	-0.9552374221	 0.117959
H	 1.9060846714	 0.7111801536	-0.9168564378	 0.112451
H	 1.9104532543	 0.7736833793	 0.9036260796	 0.110502
H	 0.3612886528	-1.3685644617	 1.6894681601	 0.099176
H	-0.833503565	-0.1142623069	 2.0697619415	 0.096107
H	-1.9231505756	-2.4476128739	 1.3793470387	 0.069209
H	-3.5873614538	-1.3021674095	-0.1144926892	 0.105972
H	-2.7215998655	 0.2190178677	 0.2361503987	 0.100505
H	-0.8771741109	-3.0717339559	-1.1193406027	 0.088902
H	 0.0993101589	-0.7445151412	-2.0847670907	 0.08965
119.6082	237.5424	283.8343	375.1513	381.7195	494.7311	517.0733	622.7723	750.1713	771.9291	781.5332	805.4721	842.5168	859.9539	883.6114	898.7683	929.4567	941.4358	969.6202	986.1973	995.5175	1027.1263	1034.5501	1056.8798	1060.7238	1077.8006	1108.059	1155.1809	1171.0797	1190.1547	1196.6125	1257.5762	1261.8796	1269.0116	1291.7625	1299.5556	1326.2113	1344.535	1409.7153	1466.8493	1487.6604	1502.0484	1503.837	3021.5232	3041.2064	3070.9767	3100.3599	3116.5874	3121.6949	3125.9648	3162.7001	3178.8703	3199.9352	3215.4149
C1CC11CC2CN3C2C13	C1CC21C[C@H]1CN3[C@H]1[C@H]23	
InChI=1S/C8H11N/c1-2-8(1)3-5-4-9-6(5)7(8)9/h5-7H,1-4H2	InChI=1S/C8H11N/c1-2-8(1)3-5-4-9-6(5)7(8)9/h5-7H,1-4H2/t5-,6+,7+,9?/m0/s1
