17
gdb 32198	2.78363	1.45786	1.02578	1.3204	76.7	-0.2475	-0.0412	0.2063	1142.7224	0.137548	-418.060972	-418.052654	-418.05171	-418.094164	30.467	
C	 0.0422511373	 1.5258167784	 0.0539444159	-0.513048
C	 0.030966017	 0.0210531641	 0.0529359441	 0.220819
C	 0.019505596	-0.7128347869	-1.1305265586	-0.040514
N	 0.0028510302	-2.0476064545	-1.176945644	-0.251437
C	 0.0004901227	-2.6610911193	 0.0038398237	 0.061221
N	 0.0163934696	-2.0808113102	 1.2048577302	-0.298569
C	 0.0289513075	-0.7434951199	 1.2317152929	 0.213673
C	 0.0788388917	-0.0994316727	 2.6021020822	-0.162643
O	 1.2927624375	 0.6149158165	 2.818313329	-0.409796
H	 0.8382458341	 1.9072882388	 0.6975978919	 0.161652
H	 0.1815405428	 1.9152209508	-0.9580467147	 0.124952
H	-0.9027136279	 1.929763928	 0.4374104191	 0.136648
H	 0.0232705762	-0.1961257132	-2.0894783078	 0.111528
H	-0.0130991807	-3.7483925646	-0.0093085247	 0.117686
H	-0.7191303537	 0.6434248702	 2.7064761725	 0.119082
H	-0.0758895024	-0.8822114155	 3.3538962878	 0.11756
H	 2.0117179722	-0.0255253501	 2.7897507706	 0.291187
78.1114	127.5415	141.1706	216.0555	270.3539	341.5797	366.5816	414.9183	439.4039	525.9971	600.131	640.5746	752.8481	816.3511	887.6114	941.6106	968.2349	1006.634	1022.5356	1052.9171	1072.2059	1144.7104	1184.7164	1210.0792	1259.2446	1279.2016	1318.1745	1377.0474	1412.0589	1417.7547	1435.0618	1468.1695	1481.3059	1496.2324	1507.3022	1591.7974	1618.105	3032.7166	3033.6049	3084.8422	3096.0121	3132.1786	3138.4844	3164.4529	3809.9085
CC1=CN=CN=C1CO	Cc1cncnc1CO	
InChI=1S/C6H8N2O/c1-5-2-7-4-8-6(5)3-9/h2,4,9H,3H2,1H3	InChI=1S/C6H8N2O/c1-5-2-7-4-8-6(5)3-9/h2,4,9H,3H2,1H3
