19
gdb 13351	4.68583	1.13823	1.0682	3.7131	72.88	-0.2468	0.0351	0.2818	1162.8387	0.167556	-365.109132	-365.100891	-365.099947	-365.143675	29.454	
O	 0.4080215971	-0.4402566804	 0.7931057903	-0.325167
C	 0.081597322	 0.6599041271	 0.3993889667	 0.150394
N	 0.9121552865	 1.5767457756	-0.1647210072	-0.29126
C	 2.331980799	 1.3627437679	-0.3754365959	 0.062693
C	 2.7787802856	 1.5359127898	-1.8433067449	-0.214657
C	 4.297010752	 1.8486158766	-1.7765788236	-0.204122
C	 4.6157932849	 2.1118594407	-0.2753905582	-0.202137
C	 3.2502232725	 2.3285898047	 0.3935364037	-0.214079
H	-0.9591554275	 1.0373184097	 0.4612307914	 0.069651
H	 0.5151049432	 2.4594570061	-0.4490204578	 0.240918
H	 2.5215048466	 0.339061836	-0.0415459193	 0.124937
H	 2.5431007651	 0.6574376983	-2.4490641295	 0.109427
H	 2.2333810013	 2.379974151	-2.2836391572	 0.087889
H	 4.8964308726	 1.0207182253	-2.164108795	 0.105405
H	 4.5384528875	 2.7205877791	-2.3906928333	 0.101903
H	 5.1011043181	 1.2335304033	 0.1636914437	 0.107034
H	 5.2964782813	 2.9547215813	-0.1312994819	 0.098082
H	 2.9041177603	 3.3600255582	 0.238791362	 0.085776
H	 3.2530641321	 2.1402931894	 1.470304056	 0.107313
32.0112	36.2107	133.5404	183.7869	238.6926	408.0221	418.1599	522.0366	535.7476	619.1265	758.4722	787.908	828.0339	887.5372	901.55	958.1839	975.2141	997.3094	1029.7574	1035.8209	1073.336	1105.1348	1189.063	1206.0694	1211.3345	1239.843	1275.0907	1295.916	1317.3142	1331.7713	1341.8503	1353.6172	1383.6495	1433.2004	1485.5478	1493.3608	1496.7172	1517.9261	1534.5233	1804.8469	2928.5951	3014.7069	3026.9659	3046.3651	3060.4699	3081.7542	3086.8876	3097.5331	3099.3515	3111.6162	3617.2146
O=CNC1CCCC1	O=CNC1CCCC1	
InChI=1S/C6H11NO/c8-5-7-6-3-1-2-4-6/h5-6H,1-4H2,(H,7,8)	InChI=1S/C6H11NO/c8-5-7-6-3-1-2-4-6/h5-6H,1-4H2,(H,7,8)
