15
gdb 131635	2.74315	1.24836	0.87162	3.177	71.94	-0.2565	-0.0652	0.1913	1241.8523	0.113541	-453.968419	-453.960088	-453.959143	-454.002472	29.262	
O	-0.0208419025	 1.379207766	 0.4483009317	-0.412531
C	 0.0246993794	 0.0727464984	-0.1037176735	-0.206809
C	-1.3559268092	-0.5019821212	-0.0458370908	 0.127668
C	-1.7459994846	-1.8380938323	 0.0363285107	 0.187154
N	-3.1088634994	-1.8302506442	 0.0213977705	-0.234203
N	-3.6279234687	-0.6084239743	-0.0541774989	-0.204338
C	-2.5696218401	 0.2086343353	-0.0987015063	-0.059623
C	-1.0154310212	-3.0909766247	 0.1378458561	 0.084452
O	-1.5578715849	-4.1766498878	 0.1899878359	-0.296822
H	 0.8250145553	 1.8044335357	 0.2789532213	 0.293859
H	 0.3697752807	 0.1027838948	-1.150421703	 0.111072
H	 0.7299957918	-0.5722462166	 0.4436759781	 0.102158
H	-3.6983782904	-2.6464243633	 0.0721320103	 0.290335
H	-2.7085185444	 1.2766055761	-0.1515267263	 0.136744
H	 0.0890503181	-2.9928776718	 0.1689638442	 0.080885
35.4486	141.595	157.3514	199.0286	240.9461	265.0914	312.4362	389.1519	571.2796	591.7789	654.7728	699.1648	720.8707	805.7198	895.8692	967.0494	1020.1056	1034.9378	1072.25	1145.1784	1169.6519	1213.9684	1250.0425	1268.5312	1310.2465	1366.2859	1402.6423	1452.5653	1467.5022	1502.7615	1514.9054	1604.6872	1769.6167	2918.6054	2961.2154	2985.4238	3272.5383	3655.2631	3832.2668
OCC1=C(NN=C1)C=O	OCc1c([nH]nc1)C=O	
InChI=1S/C5H6N2O2/c8-2-4-1-6-7-5(4)3-9/h1,3,8H,2H2,(H,6,7)	InChI=1S/C5H6N2O2/c8-2-4-1-6-7-5(4)3-9/h1,3,8H,2H2,(H,6,7)
