21
gdb 74471	2.94925	1.39844	1.09731	0.2385	90.71	-0.2064	0.0284	0.2348	1190.3611	0.183283	-349.948665	-349.940468	-349.939524	-349.98097	33.157	
C	-0.0407871029	 1.4943793395	 0.0734223562	-0.494324
C	-0.0045998175	 0.000569888	 0.0018081349	 0.316309
C	 0.0567279283	-0.7644567526	-1.0969411496	-0.274549
C	 0.0544929833	-2.2190985911	-0.7741295143	 0.380544
C	-0.7478206603	-3.2128109102	-1.590644714	-0.321501
C	 0.7559933222	-3.2421898539	-1.6441389332	-0.310117
C	 0.0840941133	-2.2877537516	 0.7369095803	-0.135502
C	 1.2643885355	-1.6731769963	 1.4470741442	-0.292805
C	 0.0046419678	-0.854024643	 1.2331826356	-0.139496
H	 0.81799589	 1.888231745	 0.6320443836	 0.125694
H	-0.0367089715	 1.9457499441	-0.9224960482	 0.120295
H	-0.938856313	 1.8437117849	 0.599350953	 0.122979
H	 0.1287204265	-0.39398067	-2.1144884622	 0.084177
H	-1.255983279	-4.0060681574	-1.0509834289	 0.110451
H	-1.2894365729	-2.843612249	-2.4552438587	 0.109833
H	 1.243663957	-2.8909213452	-2.5476349195	 0.109402
H	 1.2741141285	-4.0548837812	-1.1458819314	 0.112683
H	-0.456184859	-3.0855524604	 1.2343699552	 0.081454
H	 1.4670780184	-2.0249483089	 2.453649899	 0.104464
H	 2.1445585175	-1.4113114751	 0.868616034	 0.110848
H	-0.5849853923	-0.5646038657	 2.097424684	 0.079163
121.0259	181.9327	188.3028	226.6415	264.4863	349.0361	388.0262	465.8025	504.6179	597.5102	614.2199	753.4922	783.0566	796.1601	832.9535	848.7827	889.0635	900.9123	928.705	956.6974	958.0372	992.8432	1014.9458	1047.1066	1054.7342	1061.6654	1069.6827	1076.5816	1086.9067	1095.7739	1165.877	1190.6449	1196.9124	1256.3043	1284.3035	1326.3515	1374.0766	1401.0797	1415.2931	1465.2002	1474.704	1478.2392	1490.3414	1499.1132	1697.0093	3014.5705	3058.8927	3108.7044	3121.1562	3121.8581	3127.3365	3153.7583	3168.3429	3181.1024	3201.7489	3211.2275	3217.8997
CC1=CC2(CC2)C2CC12	CC1=CC2(CC2)[C@H]2C[C@@H]12	
InChI=1S/C9H12/c1-6-5-9(2-3-9)8-4-7(6)8/h5,7-8H,2-4H2,1H3	InChI=1S/C9H12/c1-6-5-9(2-3-9)8-4-7(6)8/h5,7-8H,2-4H2,1H3/t7-,8-/m0/s1
