22
gdb 7588	2.53371	1.66801	1.41607	1.3258	77.98	-0.2496	0.0806	0.3302	1049.7653	0.198057	-350.197718	-350.187957	-350.187013	-350.23136	36.98	
C	 0.1126235897	 1.4388394491	-0.2846320598	-0.401506
C	 0.0292526074	-0.0305832026	 0.1546964095	-0.00309
C	 0.6759272594	-0.2417702883	 1.5327141514	-0.403452
C	-1.4053386893	-0.5644675922	 0.1065960554	 0.354899
C	-2.4237557288	 0.1038706334	 1.0142737648	-0.471256
C	-1.9115144637	-1.0602818393	-1.2405784937	-0.382969
C	-1.5912688467	-2.0393168464	-0.135523748	 0.0543
O	-0.4448872843	-2.8390841977	-0.222316075	-0.420517
H	 1.1566069559	 1.7635464416	-0.3460850158	 0.107457
H	-0.34532427	 1.5885819778	-1.268004151	 0.109286
H	-0.393143106	 2.1030819321	 0.4247842881	 0.111365
H	 0.6054622647	-0.6274582957	-0.5597613606	 0.079784
H	 0.6434611332	-1.2968483522	 1.8178863616	 0.129242
H	 1.7247448026	 0.0735132193	 1.5165828914	 0.104688
H	 0.1742228136	 0.3418847159	 2.312410593	 0.107407
H	-2.5660340795	 1.157866849	 0.7523835792	 0.118279
H	-3.3996816162	-0.3849546713	 0.9310712329	 0.109668
H	-2.1219301465	 0.0567156861	 2.0658270627	 0.119825
H	-2.9497133849	-0.8948695235	-1.5110620713	 0.103322
H	-1.215219698	-1.0244535893	-2.0729546854	 0.107265
H	-2.4312343656	-2.5187839959	 0.3690585566	 0.078897
H	-0.5844901071	-3.4836115997	-0.9235171763	 0.287107
69.5351	167.4484	198.2455	225.7747	235.3082	253.4483	277.7562	282.6837	292.5066	359.3171	404.7832	460.3107	492.6648	578.6655	665.6561	800.9141	860.9739	892.3936	928.6356	937.1481	957.8539	967.4386	1030.3229	1041.032	1069.1253	1112.9694	1120.445	1148.529	1180.8179	1190.7252	1276.6578	1281.4155	1327.7474	1350.9235	1383.2716	1396.1246	1412.015	1422.923	1429.4187	1484.6862	1486.3664	1489.5064	1502.0711	1505.8039	1511.1051	1513.0961	3027.0042	3029.6791	3035.2676	3049.7844	3084.476	3088.869	3095.5451	3098.1106	3098.6785	3100.8903	3116.5058	3120.2676	3207.3442	3808.1656
CC(C)C1(C)CC1O	CC(C)[C@@]1(C)C[C@H]1O	
InChI=1S/C7H14O/c1-5(2)7(3)4-6(7)8/h5-6,8H,4H2,1-3H3	InChI=1S/C7H14O/c1-5(2)7(3)4-6(7)8/h5-6,8H,4H2,1-3H3/t6-,7-/m1/s1
