20
gdb 70551	2.54463	1.56132	1.16118	2.9285	78.78	-0.2205	-0.0093	0.2113	1112.3701	0.171765	-403.158497	-403.150191	-403.149246	-403.191179	32.923	
C	 0.2025063215	 1.3393746741	-0.3106256504	-0.465922
C	-0.1280588235	-0.0861322763	 0.0828009457	 0.345281
C	-0.8256146833	-0.3381965175	 1.4003998227	-0.348932
C	 0.6256553976	-0.7247904812	 1.2282315823	-0.042817
N	 0.9227285106	-2.1124425303	 0.9931198122	-0.304852
C	 1.7004153492	-2.3141538679	-0.2228272183	-0.262239
C	 0.9422424957	-1.7579786593	-1.4351324035	 0.400927
O	 1.3725441221	-1.8723994746	-2.5569778549	-0.310818
C	-0.360892054	-1.0440220839	-1.089747111	-0.376225
H	 1.0461330786	 1.3739576784	-1.0101293703	 0.124639
H	-0.652577908	 1.8198562408	-0.8000123223	 0.121039
H	 0.4679235837	 1.9429384386	 0.5627968311	 0.114807
H	-1.053515002	 0.523211689	 2.0198120492	 0.107872
H	-1.5423246064	-1.1497590255	 1.4589022246	 0.114226
H	 1.3796954192	-0.114998228	 1.7319557525	 0.072185
H	 1.3390439828	-2.5649237455	 1.7965845992	 0.226293
H	 2.6997224044	-1.8414456072	-0.2189795627	 0.109436
H	 1.8593140591	-3.3850496089	-0.3903983014	 0.129968
H	-1.091813038	-1.8133085418	-0.8176312859	 0.12922
H	-0.7265445593	-0.5274177932	-1.980166549	 0.115912
72.4249	152.9923	222.152	267.2655	335.738	353.8826	398.6422	447.8197	470.124	476.4093	539.4358	572.8474	687.9182	754.8738	802.7936	814.4596	891.6971	926.9957	948.2639	973.4919	1001.6639	1041.7225	1055.4299	1070.398	1106.0662	1122.5638	1134.5876	1186.1267	1214.103	1241.7392	1282.9433	1286.143	1324.1304	1340.3119	1416.7934	1424.3479	1449.1486	1457.2445	1474.6217	1490.0228	1492.2876	1504.3168	1824.9479	2938.0973	3022.5484	3049.2568	3060.5042	3068.9495	3083.2667	3100.7752	3112.6063	3129.4142	3220.5842	3558.0133
CC12CC1NCC(=O)C2	C[C@]12C[C@H]1NCC(=O)C2	
InChI=1S/C7H11NO/c1-7-2-5(9)4-8-6(7)3-7/h6,8H,2-4H2,1H3	InChI=1S/C7H11NO/c1-7-2-5(9)4-8-6(7)3-7/h6,8H,2-4H2,1H3/t6-,7+/m1/s1
