19
gdb 106012	3.27565	1.61405	1.4062	1.5292	78.07	-0.2319	0.0669	0.2988	978.4012	0.160423	-385.809219	-385.801905	-385.800961	-385.840923	29.611	
O	-0.0118678776	 1.4031210982	 0.0357596339	-0.418859
C	 0.0376097194	-0.018400989	-0.0038773656	-0.246954
C	-1.36148056	-0.5422134476	 0.0064323937	 0.415518
C	-1.801104604	-2.0393508289	-0.0274286153	-0.196033
C	-3.0396453338	-1.5736766707	-0.7592521657	-0.065067
C	-3.0124737655	-1.6162841509	 0.7725743793	-0.065067
C	-2.4741646559	-0.1984539669	 1.0776053877	-0.101663
C	-3.1474714614	 0.7695088459	 0.0745908477	-0.247421
C	-2.511091648	-0.1405576389	-1.0038981415	-0.10164
H	 0.8904407829	 1.7351851442	 0.0314643379	 0.289319
H	 0.5570534533	-0.3734444188	-0.910467548	 0.087926
H	 0.5882532316	-0.4218527483	 0.8631655645	 0.087934
H	-1.2546725289	-2.9730467143	-0.0630892415	 0.081018
H	-3.7386746751	-2.1546796638	-1.3464200317	 0.080697
H	-3.6908221414	-2.229712868	 1.3509516679	 0.080696
H	-2.2516952593	 0.07309696	 2.109063797	 0.060814
H	-4.2380526132	 0.8618807533	 0.0965064007	 0.082004
H	-2.6752034433	 1.7542940064	 0.0936025621	 0.115923
H	-2.3250244596	 0.1881236881	-2.0258945131	 0.060856
87.0558	162.5726	219.0901	286.6044	370.657	426.9611	538.3226	627.7219	712.0966	744.467	788.7912	793.1466	814.0175	859.8496	877.3776	912.4382	926.7509	942.6493	971.9367	989.2023	1012.3895	1038.3798	1044.3806	1072.7236	1072.9498	1080.2578	1107.0044	1146.0223	1151.2187	1198.7005	1222.7741	1228.988	1252.7821	1255.4827	1269.5289	1303.4731	1343.5489	1357.0755	1464.8332	1484.5412	1512.6859	2947.7018	2971.503	3048.3656	3118.1727	3118.6961	3124.4364	3186.607	3192.2646	3206.5402	3831.7872
OCC12C3C4C3C1CC24	OC[C@@]12[C@@H]3[C@H]4[C@@H]3[C@@H]1C[C@@H]24	
InChI=1S/C8H10O/c9-2-8-3-1-4(8)6-5(3)7(6)8/h3-7,9H,1-2H2	InChI=1S/C8H10O/c9-2-8-3-1-4(8)6-5(3)7(6)8/h3-7,9H,1-2H2/t3-,4+,5-,6+,7-,8+
