16
gdb 45700	3.12437	1.70687	1.13005	2.3763	71.88	-0.2251	0.0122	0.2372	1026.1054	0.128012	-434.098296	-434.091101	-434.090157	-434.130366	26.768	
N	-0.1425749683	 1.288919986	-0.0961563575	-0.545503
C	-0.0293278164	 0.024887649	-0.0690206211	 0.317307
C	 1.1757399418	-0.9484516156	-0.0741133849	-0.268492
N	 0.6436011276	-2.3134595671	 0.110472175	-0.382178
C	-0.6124555043	-2.134658327	 0.1432577244	 0.509292
O	-1.6130056081	-3.0028526797	 0.3443109171	-0.261431
C	-2.8642022636	-2.2857056279	 0.2029612441	-0.105
C	-2.5152848706	-0.771261741	 0.258373795	-0.198924
N	-1.1024168241	-0.8477404722	-0.0172128433	-0.110652
H	 0.7753320208	 1.7300544782	-0.1316644463	 0.222145
H	 1.7247406487	-0.8703803037	-1.0204926673	 0.136563
H	 1.8778847856	-0.6936320255	 0.7278612916	 0.135651
H	-3.3084372636	-2.5611470653	-0.7583619655	 0.135262
H	-3.5252740924	-2.6047858397	 1.0097413219	 0.138877
H	-3.0564409546	-0.1945486371	-0.495493812	 0.142569
H	-2.7133649683	-0.3288685615	 1.2420946987	 0.134515
104.3059	125.237	159.1344	270.5377	291.9041	534.8797	554.5893	629.0124	655.5961	725.4615	742.277	779.7154	836.0267	869.	944.2697	969.1791	991.6716	1009.469	1068.4684	1132.8435	1141.2013	1188.4652	1211.4371	1229.5697	1246.7494	1282.0662	1293.1315	1373.6753	1414.8572	1453.2653	1469.8376	1521.2452	1532.547	1749.3147	1770.7964	3033.3924	3034.82	3061.047	3068.1867	3096.9884	3130.5461	3494.0917
N=C1CN=C2OCCN12	[NH][C]1CN=C2OCCN12	
InChI=1S/C5H7N3O/c6-4-3-7-5-8(4)1-2-9-5/h6H,1-3H2	InChI=1S/C5H7N3O/c6-4-3-7-5-8(4)1-2-9-5/h6H,1-3H2
