17
gdb 72929	2.60997	2.06628	1.56411	1.1743	65.89	-0.2453	0.0564	0.3016	881.3886	0.137503	-458.907117	-458.900452	-458.899508	-458.937781	27.759	
O	 0.1545308376	 1.3451700778	-0.0438680321	-0.486666
C	 0.0703361031	-0.0457319588	-0.0129271919	 0.415169
C	 0.257662676	-0.7410624043	-1.3678185195	-0.145595
O	-0.9549592963	-1.5148798581	-1.179469813	-0.299948
C	-1.2933587071	-0.7908001201	 0.0266032597	 0.041799
C	-1.103046093	-1.5333599352	 1.3711002239	 0.053747
C	 0.2908505384	-2.1735727058	 1.241914211	-0.246415
C	 0.659460924	-0.6767934789	 1.269149142	-0.02383
O	-0.491373056	-0.4527684321	 2.1682129092	-0.319746
H	-0.1477830452	 1.6596348675	 0.8178431183	 0.286585
H	 0.1656984297	-0.0449879619	-2.2084736404	 0.119611
H	 1.1408025026	-1.3754827733	-1.5023858272	 0.104857
H	-2.2238878437	-0.2248870267	-0.061132897	 0.086277
H	-1.9528667025	-2.0114525253	 1.8561308622	 0.086687
H	 0.5916012962	-2.6696119229	 2.1646653419	 0.115968
H	 0.5128769729	-2.778506866	 0.3633056592	 0.123046
H	 1.6044432733	-0.283935656	 1.6444383537	 0.088455
183.4423	276.5119	280.3632	362.617	418.0474	458.7789	501.0687	558.891	622.3589	692.3892	796.1931	834.4127	865.4228	885.3001	897.0952	941.1165	959.973	990.8555	1011.4421	1026.0812	1035.252	1049.1507	1083.8252	1145.917	1170.7267	1179.8142	1186.8469	1226.9613	1241.9779	1278.7921	1295.1694	1297.6624	1337.7811	1359.6458	1404.9347	1488.0059	1513.8314	3030.6757	3084.0268	3087.1908	3094.7079	3126.2248	3135.0576	3162.5567	3777.6534
OC12COC1C1CC2O1	O[C@]12CO[C@H]1[C@H]1C[C@@H]2O1	
InChI=1S/C6H8O3/c7-6-2-8-5(6)3-1-4(6)9-3/h3-5,7H,1-2H2	InChI=1S/C6H8O3/c7-6-2-8-5(6)3-1-4(6)9-3/h3-5,7H,1-2H2/t3-,4+,5+,6+/m1/s1
