19
gdb 84729	2.35081	1.60003	1.25361	1.4781	87.91	-0.2182	-0.0388	0.1794	1095.5452	0.160316	-385.911009	-385.902551	-385.901607	-385.943748	32.816	
C	 0.0335352667	 1.5012726705	 0.0094002335	-0.486578
C	-0.0023555267	-0.0012814372	 0.0069945258	 0.256571
C	 0.0776146161	-0.7094811584	-1.1455203722	-0.132324
C	-0.0545305638	-2.1294361702	-1.324124411	-0.108986
C	-0.7223643622	-3.0010651344	-0.5178535195	-0.1274
C	-1.4316509448	-2.6629566533	 0.6858856874	-0.059871
C	-1.2106317832	-1.5930616509	 1.4792772791	-0.111774
C	-0.0182621242	-0.6808171649	 1.361303468	-0.024106
O	 1.2174013827	-1.3405596612	 1.6478158944	-0.431777
H	 0.8946864082	 1.8698752925	 0.5816386159	 0.137642
H	 0.085956324	 1.912386164	-1.0019558254	 0.122364
H	-0.8608780451	 1.9133526892	 0.4939202757	 0.132035
H	 0.2621408069	-0.1463102589	-2.0590996225	 0.085911
H	 0.3316386293	-2.5226119958	-2.2618596196	 0.092639
H	-0.82176347	-4.0261400598	-0.8659793993	 0.092057
H	-2.2333897821	-3.3428982264	 0.9675632297	 0.094565
H	-1.886877137	-1.4130703993	 2.3105972321	 0.096098
H	-0.0888295094	 0.0888210034	 2.1353280329	 0.085003
H	 1.3113970547	-2.0505040591	 1.0022660351	 0.287931
83.8855	167.5813	190.9187	246.3696	290.8705	325.7158	351.5643	395.4926	427.9201	493.657	574.9515	626.668	709.8805	736.6818	807.2213	869.8457	878.4716	921.3106	945.9055	952.4586	983.9671	1002.9849	1034.0232	1046.0275	1061.5781	1117.2379	1173.552	1232.6566	1249.9182	1296.9748	1353.2295	1385.1408	1405.866	1415.5359	1444.5938	1477.1608	1477.8857	1490.3145	1567.727	1669.2479	1677.6504	3015.6157	3063.3045	3065.9312	3113.3343	3131.4521	3137.52	3148.7372	3164.4758	3171.2575	3798.4353
CC1=CC=CC=CC1O	CC1=CC=CC=C[C@H]1O	
InChI=1S/C8H10O/c1-7-5-3-2-4-6-8(7)9/h2-6,8-9H,1H3	InChI=1S/C8H10O/c1-7-5-3-2-4-6-8(7)9/h2-6,8-9H,1H3/t8-/m1/s1
