21
gdb 63202	2.66663	1.57449	1.51509	1.1694	82.82	-0.2376	0.013	0.2506	1022.5873	0.183619	-387.088031	-387.079919	-387.078975	-387.119836	33.521	
C	-0.1392963437	 1.5655613631	 0.0003308308	-0.435395
C	 0.0226512383	 0.0394396867	-0.0061906457	 0.365651
O	-1.2794886378	-0.5685070002	 0.070547889	-0.476422
C	 0.7552268991	-0.4378935691	-1.2496877491	-0.121059
C	 1.8449099459	-1.1957462508	-1.1267390889	-0.073989
C	 2.3229449261	-1.5397019879	 0.2666681211	-0.060132
C	 1.0820641833	-1.9801391354	 1.1057616909	-0.226176
C	 0.7739364199	-0.4624427973	 1.2442080398	-0.023417
C	 2.3061646768	-0.2269568129	 1.1117117683	-0.233619
H	 0.8265886259	 2.0780259325	 0.0227555568	 0.120423
H	-0.6689077247	 1.8991559435	-0.9001553263	 0.10039
H	-0.7247108123	 1.8730930734	 0.8722217841	 0.120343
H	-1.7605209216	-0.3370602208	-0.7312591163	 0.271688
H	 0.3540422316	-0.1450191336	-2.2179636951	 0.076097
H	 2.3900299899	-1.5627991212	-1.9913627831	 0.088701
H	 3.2189012078	-2.1621345456	 0.2721503569	 0.056541
H	 0.3334478417	-2.6058216576	 0.6191744861	 0.109427
H	 1.3749835777	-2.4140744223	 2.0656375756	 0.089444
H	 0.2646939497	-0.11507542	 2.1463793533	 0.062854
H	 2.8059006581	-0.354393711	 2.0760685186	 0.095014
H	 2.6635949283	 0.6863565165	 0.6301792935	 0.093637
158.1576	212.0718	214.968	245.5406	342.7296	371.0186	379.538	421.4475	451.038	505.0505	602.8142	640.2913	718.5502	754.9271	818.8026	852.7743	903.8023	909.7659	924.4624	939.7245	953.8188	978.8878	1001.8355	1043.4362	1077.9098	1089.2426	1098.0682	1124.6864	1128.7977	1154.4087	1184.044	1214.6933	1245.8885	1263.0413	1265.4597	1321.0911	1350.2033	1375.7744	1395.9809	1409.9929	1476.6387	1489.5534	1491.2156	1506.6653	1696.4791	3027.5098	3052.3488	3060.9165	3079.1684	3094.3212	3094.7441	3110.1696	3119.8344	3135.39	3139.7668	3174.3778	3805.4286
CC1(O)C=CC2CC1C2	C[C@@]1(O)C=C[C@@H]2C[C@H]1C2	
InChI=1S/C8H12O/c1-8(9)3-2-6-4-7(8)5-6/h2-3,6-7,9H,4-5H2,1H3	InChI=1S/C8H12O/c1-8(9)3-2-6-4-7(8)5-6/h2-3,6-7,9H,4-5H2,1H3/t6-,7+,8-/m1/s1
