14
gdb 127622	3.55921	1.71385	1.16546	0.8757	69.63	-0.2336	-0.0205	0.2131	973.4107	0.104221	-432.881741	-432.874832	-432.873888	-432.913945	25.141	
C	-0.0045064995	 1.4211230003	-0.0229545032	-0.336158
N	-0.0148249145	-0.0239158396	 0.0344986588	-0.097583
N	 0.0541511941	-0.7622278414	-1.1067980451	-0.259885
C	 0.0948489316	-2.0550307216	-0.7548975647	-0.150734
C	 0.0589441867	-2.1330755415	 0.6431110802	 0.22675
C	-0.0054143841	-0.8435797446	 1.11004116	 0.386245
N	-0.0540769368	-0.811211767	 2.4876576992	-0.360272
C	-0.017484439	-2.0773557807	 2.782275978	 0.052935
O	 0.0505983098	-2.9599390049	 1.736093972	-0.205828
H	 1.0144334167	 1.8069947967	-0.1316116117	 0.145666
H	-0.6013306529	 1.7434010704	-0.8772894197	 0.157106
H	-0.4385901327	 1.8116502207	 0.899265998	 0.15626
H	 0.1406394283	-2.8181040049	-1.5147575561	 0.129224
H	-0.0339534076	-2.519275282	 3.7666091244	 0.156275
41.824	157.4121	236.4269	261.0221	368.898	536.9669	618.8281	632.8586	641.9184	703.0966	766.7081	831.8378	843.2868	847.7338	937.7082	1009.5647	1080.6165	1125.9775	1151.7103	1203.7893	1253.4146	1286.2391	1333.5259	1386.6547	1448.7061	1482.1158	1490.8961	1512.3799	1517.4141	1565.8828	1607.1784	3045.596	3120.3992	3156.5963	3267.2673	3275.4217
CN1N=CC2=C1N=CO2	Cn1ncc2c1nco2	
InChI=1S/C5H5N3O/c1-8-5-4(2-7-8)9-3-6-5/h2-3H,1H3	InChI=1S/C5H5N3O/c1-8-5-4(2-7-8)9-3-6-5/h2-3H,1H3
