20
gdb 51476	2.96975	1.25458	1.20027	3.5631	78.74	-0.2425	0.0286	0.2712	1141.9626	0.173326	-403.174883	-403.166549	-403.165605	-403.208579	31.472	
O	 0.2395284182	 0.9472328353	-1.4845516641	-0.318882
C	 0.1958932338	 1.6646653906	-0.5097304658	 0.150968
N	 1.2349161421	 1.9002661843	 0.340385975	-0.280501
C	 2.4912991904	 1.2157189979	 0.2413704283	 0.027026
C	 3.5090545277	 1.537681105	-0.825817677	-0.035657
C	 3.3713159888	 2.8268359205	-1.6222957828	-0.217973
C	 3.2408162848	 3.9663468516	-0.5796536451	-0.210745
C	 3.8360895233	 3.4100580096	 0.7400116747	-0.223796
C	 3.7875670005	 1.8913060139	 0.6219113552	-0.099278
H	-0.7130135515	 2.224963009	-0.2070098185	 0.069545
H	 1.0439482482	 2.4390423987	 1.1714839728	 0.247956
H	 2.4302237131	 0.1589799639	 0.4933720204	 0.104105
H	 3.9858842174	 0.6902317243	-1.3050136129	 0.088069
H	 4.2755795754	 2.9577417569	-2.2271954086	 0.099391
H	 2.5228433782	 2.7992156733	-2.3124184191	 0.121868
H	 3.7533988726	 4.8770974228	-0.9014808205	 0.096915
H	 2.1902118742	 4.2269062182	-0.4393505208	 0.099585
H	 4.8847438532	 3.7088033366	 0.8490399734	 0.106455
H	 3.3124142439	 3.7957019847	 1.6232145602	 0.089079
H	 4.4791308557	 1.3144956127	 1.2267163351	 0.085869
38.0395	119.7986	171.2182	202.3253	220.2041	294.2871	435.5017	500.4916	548.972	662.2915	669.005	766.2473	768.0378	806.5571	861.8303	881.9813	890.597	932.872	984.0541	1015.5612	1032.432	1036.0371	1055.4085	1090.2156	1109.6869	1119.4903	1173.4604	1186.3522	1220.1625	1256.9518	1269.835	1315.3453	1321.9489	1328.3298	1361.5704	1374.5133	1430.4244	1438.9303	1489.3445	1492.0882	1502.9378	1514.4742	1810.5214	2918.0316	3027.7294	3040.7166	3059.6833	3067.5746	3084.6088	3113.7515	3117.9784	3161.6107	3176.7947	3612.7096
O=CNC1C2CCCC12	O=CN[C@H]1[C@H]2CCC[C@@H]12	
InChI=1S/C7H11NO/c9-4-8-7-5-2-1-3-6(5)7/h4-7H,1-3H2,(H,8,9)	InChI=1S/C7H11NO/c9-4-8-7-5-2-1-3-6(5)7/h4-7H,1-3H2,(H,8,9)/t5-,6+,7-
