15
gdb 28801	3.24064	1.67471	1.12354	4.2174	66.5	-0.1845	0.0561	0.2407	1009.0876	0.115348	-453.967191	-453.959862	-453.958918	-453.999106	27.237	
O	 0.3113196138	 1.36035394	 0.2713283075	-0.439324
C	 0.1731263928	 0.0275473849	 0.0627092816	 0.303506
C	 0.0316302843	-0.7839253509	-1.0293787759	-0.230772
N	-0.0636912573	-2.1332148458	-0.6412730398	-0.386514
C	 0.0292543756	-2.0741932527	 0.6444155969	 0.482196
O	-0.0829068232	-3.0063850743	 1.6212110489	-0.269637
C	 0.2474870629	-2.3362173506	 2.8556289751	-0.101264
C	 0.0846158659	-0.8080206958	 2.5942020618	-0.202596
N	 0.2040991524	-0.8194312125	 1.1540697194	-0.099947
H	 0.3032325644	 1.8025359208	-0.5834026731	 0.310601
H	 0.0116073965	-0.5004386479	-2.070024031	 0.100711
H	-0.4168876742	-2.7111814757	 3.6350407258	 0.134117
H	 1.2847165771	-2.5735307684	 3.117344067	 0.128442
H	-0.891783568	-0.4264210087	 2.9160076673	 0.132543
H	 0.868510497	-0.2241140723	 3.0820630486	 0.137936
134.6028	143.8322	203.9314	218.3874	273.167	376.7153	570.0014	626.7083	627.7053	654.8023	712.5588	740.0346	773.2914	794.4077	881.9059	943.1749	1030.6538	1061.9285	1134.1822	1149.4665	1166.6329	1217.1235	1249.5914	1257.9439	1297.5142	1315.7786	1378.5582	1463.4698	1500.415	1521.6704	1536.728	1616.983	1658.4598	3032.7044	3044.8198	3099.9357	3129.7774	3251.0197	3841.2599
OC1=CN=C2OCCN12	Oc1cnc2OCCn12	
InChI=1S/C5H6N2O2/c8-4-3-6-5-7(4)1-2-9-5/h3,8H,1-2H2	InChI=1S/C5H6N2O2/c8-4-3-6-5-7(4)1-2-9-5/h3,8H,1-2H2
