18
gdb 38915	3.20101	1.74662	1.27031	1.9115	77.43	-0.2247	0.015	0.2396	984.8019	0.15081	-401.93209	-401.925301	-401.924357	-401.963061	27.778	
C	 0.0299286137	 1.4270340367	 0.0655025474	-0.345204
C	 1.3681754379	 0.7465151041	-0.0424450615	-0.106903
C	 1.7428059202	 0.1045384681	 1.3024828061	-0.25969
C	 0.4326192226	-0.7477317188	 1.2492827155	-0.087763
C	 0.6504393841	-2.2229456482	 0.9346624384	-0.097403
O	-0.427026051	-2.7535979232	 0.1371791839	-0.228215
C	-0.8121367607	-1.986801237	-0.9137974613	 0.096088
N	-0.593076178	-0.7514934379	-1.1164508016	-0.339862
C	 0.0562188264	-0.0649050803	-0.0667147316	 0.414643
H	-0.2816008816	 1.8996420392	 0.9954593728	 0.102018
H	-0.2986278584	 1.934088953	-0.8356990134	 0.12464
H	 2.0503794103	 0.9580065683	-0.8562474468	 0.094521
H	 2.6470286969	-0.5090806336	 1.2642893959	 0.103852
H	 1.8310279269	 0.7956341103	 2.1469348953	 0.102118
H	-0.2750610208	-0.6255083943	 2.0757058347	 0.073561
H	 1.5809489866	-2.3572057575	 0.3683561404	 0.11119
H	 0.6919402151	-2.852287922	 1.8260259498	 0.119509
H	-1.3836560903	-2.5780881669	-1.6258263741	 0.122898
147.9283	187.0503	304.662	374.9198	408.119	456.5366	521.2345	540.9592	642.2573	735.4255	802.4658	847.5469	861.5636	877.381	933.3421	939.0003	950.4788	961.822	996.7873	1027.4749	1045.0412	1054.69	1091.1707	1134.3954	1149.183	1185.3758	1229.2018	1242.0445	1265.6114	1278.6105	1298.6223	1348.5867	1370.4201	1402.4626	1420.1137	1483.358	1498.7096	1504.1023	1691.3686	3023.9627	3044.3255	3051.7634	3095.8255	3098.6363	3109.8703	3165.69	3191.2603	3206.4633
C1C2CC3COC=NC123	C1[C@H]2C[C@@H]3COC=N[C@]123	
InChI=1S/C7H9NO/c1-5-2-7(5)6(1)3-9-4-8-7/h4-6H,1-3H2	InChI=1S/C7H9NO/c1-5-2-7(5)6(1)3-9-4-8-7/h4-6H,1-3H2/t5-,6-,7-/m1/s1
