21
gdb 117781	2.46897	1.00089	0.88197	3.445	79.47	-0.2431	0.0239	0.2671	1449.8597	0.180432	-420.409148	-420.398224	-420.39728	-420.445178	39.168	
C	-0.1140289583	 1.5939297247	-0.0731034116	-0.386575
C	 0.0228830119	 0.0762659424	 0.0076237412	-0.12887
N	-1.302247277	-0.5458414463	 0.0737581234	-0.320312
C	-1.3536469824	-2.00972375	 0.0834179276	 0.080301
C	-0.6151327925	-2.7011648483	 1.2510135925	-0.41395
C	-2.8607944942	-2.4060710912	 0.0984474945	-0.088243
O	-3.0731845974	-3.7949200333	 0.0148476705	-0.414567
C	-0.8062305894	-2.5112655009	-1.195436711	 0.295104
N	-0.4199180849	-2.9576664486	-2.1894387725	-0.35343
H	 0.8697822913	 2.0650720241	-0.1539489941	 0.120762
H	-0.7142054251	 1.8811312286	-0.9405916053	 0.13266
H	-0.600466198	 1.9954934402	 0.8236667583	 0.11195
H	 0.5203202713	-0.2985601883	-0.8940403504	 0.13043
H	 0.6699076282	-0.1896866466	 0.8601879535	 0.087826
H	-1.7933684717	-0.2097127571	 0.8976445521	 0.218313
H	-0.9795285141	-2.2857474943	 2.1966593184	 0.114735
H	-0.821861641	-3.7733925888	 1.2422518112	 0.149168
H	 0.4645345977	-2.548716292	 1.195813965	 0.133422
H	-3.2811712981	-2.0866086915	 1.0589396249	 0.111165
H	-3.3668038773	-1.8492534855	-0.7001356683	 0.119765
H	-2.8343809992	-4.0802029373	-0.8747967599	 0.300347
73.9893	87.1049	112.4308	133.5297	174.1747	203.0931	242.1569	256.2479	292.9657	337.4901	373.3818	389.3864	410.2082	463.5863	585.2829	658.7989	701.5021	742.3827	823.5057	888.5887	909.3958	953.3019	989.198	1069.7453	1092.1263	1123.588	1135.7184	1154.376	1198.1455	1210.8232	1273.8225	1312.3924	1373.7243	1387.403	1401.6138	1414.2693	1418.814	1479.3312	1483.7485	1493.6441	1497.9108	1500.2046	1510.9808	1524.7975	2350.1419	2960.7561	3022.4006	3034.1506	3044.0164	3060.7812	3077.2474	3102.4674	3121.1712	3125.0742	3142.9322	3503.0764	3797.261
CCNC(C)(CO)C#N	CCN[C@@](C)(CO)C#N	
InChI=1S/C6H12N2O/c1-3-8-6(2,4-7)5-9/h8-9H,3,5H2,1-2H3	InChI=1S/C6H12N2O/c1-3-8-6(2,4-7)5-9/h8-9H,3,5H2,1-2H3/t6-/m1/s1
