13
gdb 21497	5.22536	1.55086	1.19831	1.7138	60.74	-0.2465	-0.0095	0.237	917.6438	0.098477	-394.836608	-394.829719	-394.828774	-394.8681	25.245	
N	-0.0153389406	 1.3590757817	-0.0396313224	-0.543141
C	 0.0466041656	-0.0123770492	-0.075269378	 0.307074
O	 1.1045950712	-0.6113226785	-0.1658466801	-0.368647
C	-1.2536736133	-0.7134447883	-0.0313382274	 0.124686
C	-1.3815959296	-2.0901261072	 0.0400936616	-0.080793
N	-2.7026433766	-2.3487108708	 0.0578552738	-0.184333
N	-3.4700113585	-1.2375510355	-0.002744083	-0.219954
C	-2.5919043981	-0.2445976972	-0.0569986331	-0.111306
H	 0.8652583389	 1.8365196346	 0.0717283682	 0.259532
H	-0.8363435921	 1.8273935771	 0.304792099	 0.256849
H	-0.6273473554	-2.8587649048	 0.0773279062	 0.166785
H	-3.1543987671	-3.2467062644	 0.1061662096	 0.281553
H	-2.9531267843	 0.7715335926	-0.1284268946	 0.111695
64.508	187.1354	196.7055	330.779	401.8142	498.0306	527.2557	565.3126	643.0466	671.4124	697.6916	777.6076	850.0985	891.2445	951.4202	994.7874	1047.9276	1090.6647	1166.7105	1208.1968	1275.5769	1360.8716	1399.1306	1435.3211	1495.4535	1595.1973	1623.7524	1775.7083	3236.0651	3280.9905	3592.9233	3671.1604	3721.7548
NC(=O)C1=CNN=C1	NC(=O)c1c[nH]nc1	
InChI=1S/C4H5N3O/c5-4(8)3-1-6-7-2-3/h1-2H,(H2,5,8)(H,6,7)	InChI=1S/C4H5N3O/c5-4(8)3-1-6-7-2-3/h1-2H,(H2,5,8)(H,6,7)
