18
gdb 52962	5.72391	0.76807	0.72923	2.725	84.06	-0.2319	0.0367	0.2686	1582.1791	0.146434	-401.879639	-401.870286	-401.869342	-401.915703	33.563	
C	-0.0187268419	 1.4771303381	 0.0727608718	-0.508803
C	-0.0191747459	 0.0234560409	 0.0147880109	 0.231271
C	-0.0263722577	-1.1810894931	-0.0183740799	-0.105535
C	-0.0038624406	-2.6040524272	-0.1051692392	 0.137689
C	 0.7414031073	-3.424640096	-1.1772698394	-0.342314
C	-0.434734107	-4.4622673633	-1.1439619143	 0.101632
O	-0.153542946	-5.7724101288	-0.6981281164	-0.432909
C	-1.1285184935	-3.6248497696	-0.070989362	-0.09773
N	-0.2617667915	-3.4307771302	 1.0779578191	-0.34759
H	 0.9977332287	 1.8792027791	-0.0045762176	 0.148245
H	-0.6099601555	 1.9111771119	-0.7414756354	 0.147037
H	-0.4440631571	 1.8332369683	 1.0175443434	 0.152939
H	 0.8257684273	-2.9130456645	-2.1382714681	 0.113566
H	 1.7249105933	-3.798139862	-0.8737804889	 0.097508
H	-0.9910712864	-4.4687116728	-2.0901061091	 0.078885
H	 0.377389553	-6.2136669211	-1.3688815946	 0.287385
H	-2.1952577987	-3.4808778271	 0.0530520482	 0.101198
H	 0.4090793122	-4.1921392626	 1.1734908615	 0.237525
12.8737	78.8509	88.4117	163.6686	263.518	293.4898	311.0069	359.9979	422.101	442.0585	529.3478	547.7685	620.7145	734.8356	798.3255	865.9651	887.8769	957.1415	979.9709	1016.2457	1047.8525	1052.8904	1053.8139	1089.0879	1110.1644	1163.2862	1173.111	1178.5762	1231.8149	1269.4956	1290.7711	1319.0513	1408.5863	1412.9218	1444.3721	1476.4552	1477.8399	1480.7618	2369.5848	3019.5183	3025.2547	3047.984	3084.1976	3088.1899	3117.7185	3188.1129	3463.8733	3817.6783
CC#CC12CC(O)C1N2	CC#C[C@]12C[C@@H](O)[C@H]1N2	
InChI=1S/C7H9NO/c1-2-3-7-4-5(9)6(7)8-7/h5-6,8-9H,4H2,1H3	InChI=1S/C7H9NO/c1-2-3-7-4-5(9)6(7)8-7/h5-6,8-9H,4H2,1H3/t5-,6-,7+/m1/s1
