14
gdb 49847	2.23157	1.64253	1.13781	3.8301	64.5	-0.261	-0.0528	0.2082	1043.1477	0.098862	-473.851635	-473.843299	-473.842355	-473.885382	29.059	
O	-0.1631601107	 0.1752933374	-0.0666497526	-0.255384
C	-0.0659560474	 1.3690631055	 0.0533466815	 0.168626
C	 1.2715791734	 2.0852242975	-0.0554141131	-0.068002
N	 2.377814669	 1.2347690401	-0.4935755206	-0.313184
C	 2.6335951415	 1.9084027385	-1.6604586738	 0.435453
O	 3.369483098	 1.7299367687	-2.5853634359	-0.331592
C	 1.5534638286	 2.9994011183	-1.2885760385	-0.290989
C	 0.4780939683	 3.163167811	-2.3232051169	 0.150003
O	-0.6307599563	 2.6978695801	-2.2327664486	-0.232826
H	-0.9200023688	 2.0116859539	 0.3404370739	 0.100869
H	 1.4568343489	 2.5939451864	 0.9007459601	 0.115528
H	 2.5221381104	 0.2565692983	-0.2838000651	 0.271834
H	 2.0151215764	 3.9650158535	-1.063851822	 0.13236
H	 0.7921226687	 3.741054961	-3.2165483784	 0.117304
64.6835	104.4068	115.7776	198.2176	241.7714	269.2897	371.0132	421.244	469.9604	653.6183	661.9086	704.6452	771.4414	816.0633	831.5726	946.4454	998.6203	1032.8088	1070.1268	1085.8953	1136.8081	1182.6641	1236.9287	1327.2319	1345.2473	1371.6013	1411.3082	1415.373	1810.7045	1823.5341	1912.639	2928.9136	2951.3097	3018.006	3087.2285	3606.2258
O=CC1NC(=O)C1C=O	O=C[C@H]1NC(=O)[C@H]1C=O	
InChI=1S/C5H5NO3/c7-1-3-4(2-8)6-5(3)9/h1-4H,(H,6,9)	InChI=1S/C5H5NO3/c7-1-3-4(2-8)6-5(3)9/h1-4H,(H,6,9)/t3-,4+/m0/s1
