15
gdb 55522	3.55044	1.00496	0.79278	5.8022	65.76	-0.257	-0.0537	0.2033	1346.9676	0.113635	-487.350082	-487.341041	-487.340097	-487.384379	32.957	
N	 0.7826429795	 0.1304902009	-0.6061776674	-0.547831
C	-0.1258514104	 0.2207500468	 0.3915458977	 0.459323
O	-0.2152664962	 1.1245926165	 1.1963532932	-0.391497
N	-1.0520834133	-0.8511010412	 0.4517917364	-0.361608
C	-1.1181642536	-2.0123556052	-0.2600881672	 0.311008
N	-0.3145101269	-2.318792503	-1.2121162856	-0.557107
C	-2.2783463095	-2.8794615576	 0.2494887723	 0.369924
N	-2.7088656559	-3.8339842428	-0.6191327914	-0.534341
O	-2.7455173221	-2.7110720238	 1.3582237897	-0.350353
H	 1.4881221184	 0.8450029705	-0.6402245745	 0.263626
H	 0.8276289291	-0.7046645195	-1.1790155508	 0.287458
H	-1.6986629787	-0.7860341419	 1.2276057072	 0.281056
H	-0.4891344042	-3.2540226386	-1.5664528086	 0.224356
H	-2.5168612025	-3.7547170503	-1.6035328623	 0.269446
H	-3.5249947037	-4.3588908108	-0.3453823487	 0.276539
66.7888	84.9042	118.3837	173.5051	305.9642	345.4173	355.3014	384.9749	427.7629	454.9125	538.5023	585.4218	607.0148	639.6566	668.8969	697.9038	779.6103	810.0267	840.2098	893.1429	946.4925	1096.4775	1145.5078	1148.9267	1280.9512	1365.8592	1375.1738	1532.989	1605.9239	1617.6931	1699.9438	1798.7247	1831.5809	3488.0697	3539.7247	3594.4274	3594.7827	3717.5642	3720.9523
NC(=O)NC(=N)C(N)=O	NC(=O)NC(=N)C(=O)N	
InChI=1S/C3H6N4O2/c4-1(2(5)8)7-3(6)9/h(H2,5,8)(H4,4,6,7,9)	InChI=1S/C3H6N4O2/c4-1(2(5)8)7-3(6)9/h(H2,5,8)(H4,4,6,7,9)
