25
gdb 86334	1.90896	1.52331	0.94817	0.0648	92.79	-0.2584	0.0826	0.3409	1361.2207	0.229007	-352.340425	-352.330596	-352.329652	-352.374938	38.022	
C	-1.0286963696	 0.5496481337	-1.3461083456	-0.408715
C	 0.1532331124	-0.3292786062	-0.964454446	 0.040139
C	 1.5592774478	-0.0049438085	-1.5359729419	-0.24647
C	 2.1780080174	-0.4577600951	-0.1865596459	 0.040138
C	 3.4002005077	 0.2686123074	 0.3554346042	-0.408715
C	 0.768599015	-0.2687726918	 0.4784993129	-0.040036
C	 0.5656409974	 1.0303010306	 1.2213391406	 0.050017
C	-0.5983469866	 1.1861453392	 2.1702381252	-0.279092
C	 0.8071316782	 1.0969505682	 2.710233167	-0.279093
H	-0.8306512472	 1.6066166601	-1.1422425662	 0.110554
H	-1.2498267804	 0.4549171802	-2.4154642053	 0.108132
H	-1.9328865968	 0.2701905307	-0.7943359828	 0.112547
H	-0.0898894488	-1.3743595424	-1.1893117813	 0.066475
H	 1.8764609096	-0.5206656033	-2.4467468528	 0.08765
H	 1.6869599019	 1.0731666821	-1.690250157	 0.089839
H	 2.3919689159	-1.53184502	-0.2358110701	 0.066475
H	 3.2347698813	 1.3486477894	 0.4196342589	 0.110553
H	 3.6673224764	-0.0851591602	 1.3572334447	 0.112548
H	 4.2661604367	 0.1048850052	-0.2962563351	 0.108132
H	 0.46328808	-1.089910903	 1.1375684617	 0.04928
H	 0.8339748593	 1.9287393155	 0.6713383313	 0.077603
H	-1.1078494295	 2.1425165986	 2.2135602393	 0.107596
H	-1.2508369596	 0.3306930237	 2.3130348586	 0.108424
H	 1.0982319217	 0.1816189257	 3.2155659278	 0.108424
H	 1.2589517496	 1.9923169801	 3.1228993678	 0.107596
78.2986	91.3809	151.6407	195.1679	224.9659	229.9222	280.8935	313.3147	341.5605	374.3734	461.7864	548.4256	610.0154	758.4684	761.6378	819.4748	833.4763	886.3217	891.5926	900.8593	931.9475	941.5084	967.1249	993.4594	1036.2308	1051.9977	1062.6226	1072.2494	1103.0471	1140.5085	1146.0001	1156.0427	1181.3712	1198.0979	1213.3763	1230.413	1246.3611	1262.5534	1276.0861	1293.608	1322.8146	1359.1472	1393.1633	1411.4817	1415.0673	1432.5195	1470.6543	1491.4636	1493.2319	1497.3202	1499.1079	1500.1036	1506.6037	3018.7877	3026.7103	3027.3725	3030.6371	3036.6421	3040.5762	3088.9978	3089.1457	3090.5633	3103.457	3104.2748	3126.2881	3130.2486	3135.5205	3203.4649	3218.8761
CC1CC(C)C1C1CC1	C[C@H]1C[C@@H](C)[C@H]1C1CC1	
InChI=1S/C9H16/c1-6-5-7(2)9(6)8-3-4-8/h6-9H,3-5H2,1-2H3	InChI=1S/C9H16/c1-6-5-7(2)9(6)8-3-4-8/h6-9H,3-5H2,1-2H3/t6-,7+,9-
