17
gdb 60919	3.56062	1.09259	0.91912	1.8024	70.58	-0.2219	-0.0388	0.1831	1261.9528	0.136579	-455.162955	-455.154492	-455.153548	-455.196921	30.733	
O	-0.6671248539	 0.9488547254	 0.1912616719	-0.438218
C	 0.0365866976	-0.2414085923	-0.0460721968	-0.048226
C	 1.0573635834	-0.0407275237	-1.1617463914	 0.142215
O	 1.1330411823	 1.0204536147	-1.7318745472	-0.265893
C	 0.7586277675	-0.7239165421	 1.1951710374	 0.344953
N	 1.706261118	-1.5850980005	 1.1693754464	-0.326631
C	 2.0865929433	-1.7960943637	 2.5806053375	-0.160804
C	 1.4018470923	-0.6473385626	 3.3756064483	-0.183354
N	 0.3584660817	-0.2478593173	 2.4238648565	-0.332272
H	-0.3140847505	 1.5822175841	-0.4569626961	 0.298703
H	-0.6525958313	-1.0390999653	-0.3724558835	 0.127422
H	 1.7058276489	-0.9009877654	-1.3929286807	 0.141013
H	 1.7201892706	-2.7774332204	 2.9094854545	 0.112269
H	 3.1739598082	-1.8003436979	 2.6931549209	 0.112625
H	 0.9739067698	-0.9766762696	 4.3257009187	 0.114797
H	 2.0976070383	 0.1792578773	 3.5770071545	 0.105538
H	-0.0548896464	 0.6723238093	 2.4511154791	 0.255865
45.5958	93.2948	176.0085	196.7838	217.4063	318.0479	353.1607	444.9917	514.8889	569.8287	592.3563	719.0424	741.7993	782.9816	862.74	872.0114	922.951	994.9051	1004.9164	1026.1192	1047.7656	1110.4332	1161.2816	1200.6469	1234.1191	1240.9797	1258.7471	1309.0693	1315.1308	1349.8468	1377.7514	1428.0681	1475.0407	1496.9014	1528.2972	1692.4722	1810.9042	2965.9204	3002.375	3020.3179	3021.9161	3082.7015	3092.6229	3622.659	3655.3122
OC(C=O)C1=NCCN1	O[C@@H](C=O)[C]1[N]CCN1	
InChI=1S/C5H8N2O2/c8-3-4(9)5-6-1-2-7-5/h3-4,9H,1-2H2,(H,6,7)	InChI=1S/C5H8N2O2/c8-3-4(9)5-6-1-2-7-5/h3-4,9H,1-2H2,(H,6,7)/t4-/m0/s1
