20
gdb 120824	2.33702	1.01713	0.77298	2.963	79.12	-0.2495	0.0204	0.2699	1526.8933	0.168532	-440.250762	-440.240738	-440.239794	-440.287064	35.182	
C	-0.4242769691	 1.4551912101	-0.0583401883	-0.386184
C	-0.4336755613	-0.030342911	-0.36962178	-0.040299
O	-1.3663108066	-0.6589615371	 0.5093987449	-0.24337
C	-1.4625126687	-2.0251727344	 0.3251374601	 0.107655
C	-2.7894090171	-2.6379468849	 0.6703696924	-0.359057
C	-2.3464390461	-2.5607240726	-0.7756741018	 0.055037
O	-2.9225300591	-1.6037956438	-1.6244839843	-0.17968
C	-4.200103807	-1.8280304465	-2.0073326879	 0.129916
N	-4.7386323465	-1.0718600976	-2.8607392426	-0.437821
H	 0.2871525509	 1.9732522445	-0.7082544708	 0.115792
H	-1.4170769346	 1.8840124696	-0.2193892951	 0.134755
H	-0.1366741565	 1.6306639721	 0.9823065764	 0.123486
H	-0.7276826015	-0.2118859138	-1.4111847672	 0.118134
H	 0.5673003397	-0.466477782	-0.2193594528	 0.083479
H	-0.5529334591	-2.5895176112	 0.5395976702	 0.088554
H	-2.8265909982	-3.6046004172	 1.159278607	 0.121272
H	-3.5498096549	-1.9279235794	 0.97606883	 0.141589
H	-2.0495860332	-3.4762526637	-1.2826236772	 0.104578
H	-4.6580158877	-2.6879997161	-1.5020126843	 0.092357
H	-5.6984702535	-1.367269875	-3.0271159489	 0.229807
47.7591	76.8967	94.8936	104.6057	169.0013	172.5986	244.3653	282.2155	371.1788	413.093	477.4536	583.3737	674.1092	784.7272	810.579	823.8651	826.0021	863.7991	944.3714	1016.7923	1029.4404	1049.4657	1062.4491	1083.574	1095.211	1128.9762	1146.4599	1170.1689	1186.9145	1201.1912	1257.0864	1291.9759	1299.2233	1363.0448	1388.8478	1404.6788	1415.0294	1437.1685	1478.6055	1482.9423	1500.5052	1525.4487	1745.9836	2974.0258	3039.6951	3044.7315	3046.2411	3081.5314	3119.7903	3124.7731	3126.6518	3141.0554	3235.1601	3517.4039
CCOC1CC1OC=N	CCO[C@H]1C[C@H]1O[CH][NH]	
InChI=1S/C6H11NO2/c1-2-8-5-3-6(5)9-4-7/h4-7H,2-3H2,1H3	InChI=1S/C6H11NO2/c1-2-8-5-3-6(5)9-4-7/h4-7H,2-3H2,1H3/t5-,6+/m0/s1
