20
gdb 100374	2.10647	1.1894	1.04802	3.6646	83.54	-0.2597	0.0213	0.281	1302.9622	0.166755	-403.112598	-403.101895	-403.100951	-403.148361	38.69	
C	 0.0809586264	 1.5615446378	 0.0600785905	-0.396003
C	 0.0258146648	 0.0356500762	-0.0247328847	-0.199164
C	-1.4037301135	-0.5572560123	 0.0259226761	 0.147882
C	-1.3771721222	-2.0967822857	-0.0178147347	-0.420617
O	-2.1238926583	-0.0881402857	 1.1995995907	-0.227428
C	-1.664214527	-0.4113144067	 2.4235170727	 0.134331
N	-2.275065595	 0.0089628157	 3.446838132	-0.447157
C	-2.1930350802	-0.063384848	-1.1081048107	 0.351195
C	-2.8094884556	 0.3066493193	-2.0697294987	-0.460463
H	 1.1178655739	 1.9063540386	 0.0122340319	 0.113446
H	-0.4689901389	 2.0190127849	-0.7667671654	 0.135535
H	-0.3561592695	 1.9245125366	 0.9938918909	 0.140985
H	 0.4835435603	-0.3098415813	-0.9582237173	 0.114251
H	 0.6121380002	-0.410975175	 0.7869389738	 0.096815
H	-0.7544650359	-2.5066018552	 0.7818793743	 0.117157
H	-2.3912267654	-2.489528598	 0.08320254	 0.144956
H	-0.9669263454	-2.431743555	-0.9734934944	 0.136092
H	-0.7645461902	-1.0362930359	 2.428421682	 0.089473
H	-1.8059920947	-0.3227251255	 4.2873669087	 0.226034
H	-3.3659276338	 0.6429645151	-2.9098377475	 0.20268
61.8148	88.012	128.0446	133.729	181.4098	217.5499	240.504	259.287	264.2259	359.6603	425.3117	433.676	481.7252	591.5461	598.0764	634.4776	675.4891	737.1792	797.5825	818.5584	904.3542	915.4617	1001.7264	1039.2549	1043.7465	1064.3451	1102.8227	1142.8076	1175.6229	1236.9105	1287.4439	1318.5941	1362.6371	1400.7214	1415.4229	1423.7694	1477.0473	1488.7599	1493.614	1496.4186	1507.7147	1734.7179	2244.1957	3034.1428	3047.7072	3049.1682	3059.4849	3074.1209	3118.569	3126.1723	3128.4759	3139.7709	3500.3397	3513.0484
CCC(C)(OC=N)C#C	CC[C@@](C)(O[CH][NH])C#C	
InChI=1S/C7H11NO/c1-4-7(3,5-2)9-6-8/h1,6,8H,5H2,2-3H3	InChI=1S/C7H11NO/c1-4-7(3,5-2)9-6-8/h1,6,8H,5H2,2-3H3/t7-/m0/s1
