16
gdb 35423	2.66765	1.66128	1.36457	4.2148	72.34	-0.2644	-0.0099	0.2545	971.5765	0.12621	-400.749992	-400.742818	-400.741874	-400.782083	27.341	
N	 0.0483729002	-1.0242109284	 0.6653555281	-0.331311
C	 0.0435231576	 0.0908410374	 0.3609087209	 0.295482
C	 0.0573605123	 1.4981612141	-0.0532845696	-0.017378
O	-0.4422411911	 2.3907824067	 0.9560885389	-0.293649
C	 0.8480678942	 3.0766912598	 1.0476610909	 0.08699
C	 1.6556990727	 2.7048537452	 2.25679211	-0.079596
C	 2.6296183038	 1.8467809539	 1.9505601719	-0.048897
C	 2.675275317	 1.4875787217	 0.48157888	-0.290892
C	 1.4449900786	 2.2115084586	-0.0928736367	-0.107469
H	-0.5200174411	 1.5869033153	-0.9813579205	 0.126218
H	 0.7087111892	 4.151604789	 0.8977706964	 0.090165
H	 1.4404437924	 3.0934919045	 3.2448118012	 0.109427
H	 3.3356304166	 1.4303331037	 2.6609358569	 0.110646
H	 3.6016814216	 1.83785628	 0.0101232874	 0.115306
H	 2.6384857912	 0.4031348298	 0.3241169637	 0.13888
H	 1.627515885	 2.7056971288	-1.0457050997	 0.096077
60.8442	144.5259	229.898	272.3325	366.7769	477.8496	537.6639	575.7434	651.7816	738.3525	765.365	810.2282	866.4186	890.0391	936.4836	950.0625	968.0464	984.3785	1015.3233	1028.2352	1042.3883	1090.215	1130.5838	1167.3638	1226.044	1241.6482	1281.8606	1309.2751	1316.9114	1338.383	1362.4493	1382.3618	1484.1035	1675.7894	2352.4729	3030.5054	3035.8571	3062.6108	3063.6742	3126.1655	3190.8547	3218.1097
N#CC1OC2C=CCC12	N#C[C@H]1O[C@H]2C=CC[C@@H]12	
InChI=1S/C7H7NO/c8-4-7-5-2-1-3-6(5)9-7/h1,3,5-7H,2H2	InChI=1S/C7H7NO/c8-4-7-5-2-1-3-6(5)9-7/h1,3,5-7H,2H2/t5-,6+,7-/m1/s1
