18
gdb 17043	4.66763	1.33094	1.24364	3.2022	72.52	-0.2382	0.0131	0.2513	1038.1784	0.154089	-347.772128	-347.764585	-347.763641	-347.804196	28.668	
C	-0.027063603	 1.5530632425	 0.0474262626	-0.374892
C	 0.0231451744	 0.0279507238	 0.2008220249	-0.234481
C	-1.3581584571	-0.6072135645	 0.072357479	 0.055057
C	-2.0580986545	-0.7608238318	-1.336859033	-0.185143
C	-1.1021233766	-1.9752381389	-1.6004334624	-0.243486
C	-1.5207070751	-2.166737444	-0.1008880363	-0.199677
C	-2.923607525	-1.8038907673	-0.6129394151	 0.453283
O	-4.0603194558	-2.1458866358	-0.5087573322	-0.327379
H	 0.961235251	 1.9966669501	 0.2010538892	 0.116343
H	-0.3712255419	 1.8402402762	-0.9516171232	 0.120189
H	-0.7111463011	 2.0028279316	 0.7752953636	 0.119098
H	 0.7330714173	-0.3867822941	-0.5204454874	 0.103066
H	 0.4180046783	-0.2248103762	 1.1931786132	 0.105165
H	-2.0154847726	-0.1810939279	 0.8386351736	 0.084558
H	-2.3541887265	 0.023021003	-2.0307748568	 0.090834
H	-1.4431524136	-2.7299642094	-2.3114414758	 0.114709
H	-0.0564765127	-1.724234373	-1.7689027184	 0.112837
H	-1.2125686658	-2.9512748943	 0.5873159045	 0.089919
74.7418	135.8828	174.3755	240.3858	363.7163	376.2969	479.9447	508.9536	697.174	705.4886	738.3205	786.0009	798.3412	868.5684	894.6488	953.4921	965.1845	1023.8787	1035.1012	1040.9982	1073.2559	1092.1247	1122.6064	1138.2495	1142.1499	1197.4808	1198.8802	1232.6146	1237.7841	1293.1739	1346.8613	1411.6408	1431.732	1480.7018	1500.0372	1504.5693	1529.3619	1918.1363	3028.8485	3033.6429	3040.9556	3075.4527	3087.0394	3105.1137	3107.6247	3141.4523	3145.0491	3159.0151
CCC1C2CC1C2=O	CC[C@H]1[C@H]2C[C@@H]1C2=O	
InChI=1S/C7H10O/c1-2-4-5-3-6(4)7(5)8/h4-6H,2-3H2,1H3	InChI=1S/C7H10O/c1-2-4-5-3-6(4)7(5)8/h4-6H,2-3H2,1H3/t4-,5+,6-
