17
gdb 9168	3.82973	1.02369	0.82012	4.0128	74.63	-0.2366	0.0379	0.2745	1384.6757	0.140063	-363.878277	-363.868307	-363.867363	-363.915144	32.85	
C	 1.0256655901	 1.253093694	-0.4005697424	-0.334382
N	 0.8921597264	-0.0616894967	-0.9923515305	-0.312145
C	-0.2305897634	-0.8098108034	-0.862027042	 0.433113
O	-1.2235970996	-0.4645589311	-0.2480984995	-0.380012
C	-0.1981095756	-2.1872205234	-1.5587461649	-0.487441
C	 1.0202406197	-2.5390954302	-2.2751735364	 0.041253
C	 2.0352894278	-2.8154969034	-2.8637105345	 0.093788
C	 3.2505607875	-3.1745702534	-3.5820949557	-0.499789
H	 1.8547341959	 1.2858345536	 0.3152861457	 0.125071
H	 1.1949736086	 2.019276375	-1.1655351383	 0.125068
H	 0.0939770857	 1.4717767356	 0.1228540863	 0.169986
H	 1.6524113042	-0.4541296178	-1.5257927308	 0.251318
H	-0.4166195508	-2.9247202005	-0.7776863624	 0.159795
H	-1.0635174457	-2.204680926	-2.2314067682	 0.159785
H	 3.1658793456	-4.1753224241	-4.0196219949	 0.155016
H	 3.4551750973	-2.473707964	-4.3987984047	 0.149839
H	 4.1222514065	-3.1774065841	-2.9185947168	 0.149739
28.5467	44.0567	84.953	87.203	154.1323	204.3131	238.9682	310.8792	384.7224	396.8181	465.4803	516.7755	633.3606	657.5625	790.3221	875.94	946.4631	1051.8873	1055.7056	1092.8644	1153.961	1165.8671	1177.6202	1218.7007	1255.1463	1309.9513	1415.469	1438.2983	1446.7572	1478.2164	1479.0292	1495.8642	1500.351	1573.2775	1786.469	2365.2178	3026.4989	3028.6712	3042.0832	3073.7473	3077.7907	3089.6355	3090.7033	3150.5464	3619.8393
CNC(=O)CC#CC	CNC(=O)CC#CC	
InChI=1S/C6H9NO/c1-3-4-5-6(8)7-2/h5H2,1-2H3,(H,7,8)	InChI=1S/C6H9NO/c1-3-4-5-6(8)7-2/h5H2,1-2H3,(H,7,8)
