18
gdb 85468	3.08569	1.20178	0.95895	3.4871	78.11	-0.2415	0.028	0.2695	1224.3994	0.147519	-401.968582	-401.959792	-401.958848	-402.001998	33.398	
C	 0.5471221299	 1.5310420195	-0.3804066977	-0.38958
C	 0.0792614321	 0.1416076747	 0.0594702588	 0.013079
N	 0.2087884241	-0.8588312504	-0.9911861106	-0.303481
C	 1.3205422065	-1.6590004373	-0.9148464369	 0.397988
O	 1.6831430921	-2.4566800578	-1.7494346765	-0.376426
C	 2.0033223718	-1.3304830435	 0.4155235182	-0.34347
C	 0.9401060494	-0.5196386646	 1.1921653974	-0.192739
C	 1.4695606072	 0.4007416481	 2.1843359063	 0.323553
C	 1.9183655552	 1.1501767729	 3.010321462	-0.450737
H	 1.5986983674	 1.5187196692	-0.6832293456	 0.126722
H	-0.0465458549	 1.8763363896	-1.2329773884	 0.113734
H	 0.4324792306	 2.2518142702	 0.4330125617	 0.135547
H	-0.9635933131	 0.2044156206	 0.3892720685	 0.095494
H	-0.3031896594	-0.8018415233	-1.8583975031	 0.250059
H	 2.321272716	-2.2378417243	 0.9301112328	 0.139228
H	 2.8981367315	-0.7338529615	 0.2115534457	 0.140642
H	 0.284132632	-1.2369797773	 1.6998412957	 0.120853
H	 2.3148798215	 1.8098348551	 3.7421482814	 0.199534
94.0647	104.9355	142.3236	216.1973	242.3545	331.7484	412.2152	441.1981	483.5775	487.9898	543.2557	590.7847	629.1754	645.6606	655.8267	697.7079	771.8432	858.8957	940.2216	982.9441	991.8354	1061.8537	1085.6617	1096.744	1137.546	1169.7178	1245.2591	1263.5663	1295.6839	1331.0279	1351.135	1393.5032	1412.0744	1430.5896	1472.0743	1491.7553	1493.69	1834.7776	2237.5512	3027.7007	3040.5605	3043.8898	3069.9918	3109.8039	3127.7503	3132.9851	3502.8107	3629.0109
CC1NC(=O)CC1C#C	C[C@H]1NC(=O)C[C@H]1C#C	
InChI=1S/C7H9NO/c1-3-6-4-7(9)8-5(6)2/h1,5-6H,4H2,2H3,(H,8,9)	InChI=1S/C7H9NO/c1-3-6-4-7(9)8-5(6)2/h1,5-6H,4H2,2H3,(H,8,9)/t5-,6-/m1/s1
