22
gdb 80470	2.08078	1.61036	1.48148	1.4838	80.99	-0.2119	0.0617	0.2736	1081.9474	0.194973	-404.327603	-404.318537	-404.317592	-404.360687	35.478	
C	-0.1070752726	 1.5712455565	 0.1318685649	-0.450817
C	-0.0001717775	 0.0718443975	-0.0267926004	 0.022373
C	 0.6219162038	-0.685358645	-1.1497287548	-0.066521
C	 1.5778050364	-0.059020421	-2.161613277	 0.005371
C	 0.9291432794	 0.8394416386	-3.2196600378	-0.394049
C	 2.7002714549	 0.604261841	-1.3150677122	 0.058355
O	 2.597947958	 2.025495598	-1.3894516734	-0.407019
C	 2.5045318332	 0.0203206615	 0.114356417	-0.190476
N	 1.2311299152	-0.7202799614	 0.1989286856	-0.127354
H	 0.7016069053	 2.1196804771	-0.34946352	 0.156075
H	-1.0580593078	 1.9145036857	-0.2906794534	 0.115269
H	-0.1159173319	 1.8320769386	 1.1973726902	 0.112059
H	-0.8483307189	-0.440719096	 0.4286996408	 0.084966
H	 0.1351872286	-1.6046504126	-1.4717221164	 0.080067
H	 2.0445793424	-0.9024038583	-2.6861961952	 0.081007
H	 0.4407078231	 1.7053273003	-2.7701350543	 0.133901
H	 1.6729006503	 1.2094108955	-3.9313256295	 0.116057
H	 0.1770887664	 0.2743466202	-3.7796861137	 0.108255
H	 3.6836685948	 0.3128365251	-1.7087217262	 0.073675
H	 3.3211371196	 2.3993918908	-0.8770760395	 0.284934
H	 3.3034220635	-0.6942547163	 0.3416913252	 0.104043
H	 2.5525994636	 0.814153074	 0.8689317302	 0.099831
102.8308	161.553	211.5016	230.0941	246.521	275.5334	285.635	301.5167	399.4071	451.9879	514.6119	559.1025	662.6361	702.8985	726.295	771.6306	812.4851	882.7079	920.6316	956.6809	1001.6118	1014.3793	1029.7305	1062.3697	1077.0157	1111.2443	1145.1399	1149.3457	1185.3665	1189.4146	1223.0088	1249.5401	1297.9861	1320.572	1339.4904	1344.7131	1359.7264	1386.7916	1409.3738	1425.4363	1431.3945	1446.4601	1483.7193	1492.4418	1499.1865	1510.2606	1520.8333	2991.7024	3020.2372	3026.9544	3032.6197	3045.2114	3070.114	3079.6887	3088.1521	3106.696	3112.5325	3140.3925	3159.7949	3826.2236
CC1C2C(C)C(O)CN12	C[C@H]1[C@H]2[C@@H](C)[C@@H](O)CN12	
InChI=1S/C7H13NO/c1-4-6(9)3-8-5(2)7(4)8/h4-7,9H,3H2,1-2H3	InChI=1S/C7H13NO/c1-4-6(9)3-8-5(2)7(4)8/h4-7,9H,3H2,1-2H3/t4-,5-,6-,7+,8?/m0/s1
