16
gdb 28706	5.71399	0.86961	0.77501	3.3889	77.2	-0.2118	0.0024	0.2142	1442.0141	0.123634	-437.913456	-437.904952	-437.904008	-437.947492	30.355	
C	-0.2635583223	 1.6619189921	-0.2163376846	-0.489996
C	-0.0375560654	 0.1957412135	-0.1539603079	 0.352806
C	-0.8290566008	-0.8719111109	 0.1259473213	-0.243563
C	-0.0155134622	-2.0504362201	-0.0074012222	-0.316829
C	 1.214271744	-1.5891342151	-0.3501030643	 0.397107
O	 2.3938953669	-2.1791507203	-0.6359980546	-0.197268
C	 2.8150716414	-3.1749469348	 0.2008557756	 0.112751
N	 3.7772291261	-3.9015777981	-0.1523756744	-0.420384
O	 1.234599872	-0.2424859599	-0.4426246051	-0.192168
H	-0.0630808566	 2.0587057861	-1.2181327275	 0.142137
H	-1.3027823484	 1.8830590435	 0.0369208745	 0.136894
H	 0.38283089	 2.2019541878	 0.4849001915	 0.139789
H	-1.8755375238	-0.8340754161	 0.3858933123	 0.111207
H	-0.3113035864	-3.0806969748	 0.1027173963	 0.118598
H	 2.2339173138	-3.2125289016	 1.128888337	 0.109638
H	 3.9958737316	-4.5719849413	 0.581754352	 0.239282
47.0123	111.4112	132.2583	158.8762	225.1507	283.3668	370.2326	449.6087	506.0892	631.0347	657.0665	687.4407	780.9983	793.4357	819.5156	831.4678	971.4848	978.3344	1008.3404	1042.7756	1049.9896	1066.0882	1078.6214	1233.9636	1240.5385	1257.8061	1295.6409	1399.9569	1400.3316	1418.4446	1471.3575	1492.5476	1613.6162	1658.8369	1750.9965	3030.2652	3065.1375	3080.4389	3129.5415	3254.1426	3271.3527	3523.3282
CC1=CC=C(OC=N)O1	Cc1ccc(O[CH][NH])o1	
InChI=1S/C6H7NO2/c1-5-2-3-6(9-5)8-4-7/h2-4,7H,1H3	InChI=1S/C6H7NO2/c1-5-2-3-6(9-5)8-4-7/h2-4,7H,1H3
