19
gdb 53090	4.6865	0.78898	0.69475	1.3768	92.43	-0.2185	-0.0093	0.2092	1645.2434	0.159263	-385.880735	-385.871493	-385.870549	-385.91661	33.023	
C	-0.1184743455	 1.4744699207	 0.0283985809	-0.505297
C	-0.0122483056	 0.024184324	-0.0045095949	 0.184316
C	 0.0980576757	-1.1781242208	-0.0345511668	-0.096256
C	 0.1400301376	-2.5976568445	-0.0594054276	 0.129506
C	 1.2732267772	-3.304956912	-0.1862942711	-0.155748
C	 1.2817333144	-4.807351151	-0.1475325269	-0.250927
C	-0.0409805075	-5.326886649	 0.4185917494	-0.084053
O	-1.1394733826	-4.685964071	-0.2068895843	-0.243716
C	-1.1978710383	-3.3068859858	 0.0842099292	-0.166084
H	 0.4845078977	 1.9009828426	 0.8381701209	 0.149984
H	 0.2281983138	 1.9202029359	-0.9110109473	 0.150839
H	-1.1550134113	 1.793668148	 0.1830810438	 0.149767
H	 2.2184264194	-2.7857804263	-0.3125337827	 0.089968
H	 1.4453474556	-5.2130266934	-1.1559872728	 0.11928
H	 2.1178452986	-5.1672623674	 0.4660221562	 0.105198
H	-0.1644394097	-6.3976492988	 0.2350775988	 0.106447
H	-0.0714743723	-5.1613225652	 1.5083387794	 0.09066
H	-1.5892736158	-3.1357915942	 1.1031321265	 0.101896
H	-1.9209824914	-2.8738630918	-0.6145382406	 0.124219
15.6925	83.9904	88.4883	170.7289	252.9205	292.9073	320.9839	377.8337	394.3097	491.8547	528.7368	541.1705	587.0579	791.1452	875.4232	878.9274	924.7628	950.9419	992.0864	1034.0558	1049.4011	1052.9149	1062.8183	1091.7092	1141.9485	1220.8812	1246.6401	1272.2994	1314.6889	1336.3204	1364.6068	1384.123	1413.3145	1418.9849	1467.4988	1475.8752	1476.7877	1485.9989	1501.7126	1698.2571	2346.4385	2945.6903	2969.5562	3007.5869	3023.4056	3043.5882	3071.0463	3081.5288	3086.8061	3089.0569	3172.7683
CC#CC1=CCCOC1	CC#CC1=CCCOC1	
InChI=1S/C8H10O/c1-2-4-8-5-3-6-9-7-8/h5H,3,6-7H2,1H3	InChI=1S/C8H10O/c1-2-4-8-5-3-6-9-7-8/h5H,3,6-7H2,1H3
