14
gdb 35453	2.57524	1.40998	1.10393	2.8874	73.4	-0.2669	-0.0072	0.2598	1087.133	0.099615	-399.47648	-399.468628	-399.467684	-399.509059	29.317	
C	-0.0315403621	-1.2273638153	-0.050405418	-0.425921
C	 0.0039481825	-0.0284688269	 0.0177116973	 0.339853
C	 0.0502908613	 1.4181447768	 0.0869501792	-0.122172
O	-0.1331002214	 1.9650167492	 1.4309605872	-0.278017
C	 1.078174086	 2.7007683482	 1.3350940238	 0.065646
C	 2.2562668988	 1.8046271327	 1.1928639826	-0.341725
C	 1.4190585585	 2.1256435343	-0.0394865145	 0.120846
C	 1.924720244	 2.7265936636	-1.2227185626	 0.204558
N	 2.3259091679	 3.2149152646	-2.1928002275	-0.346126
H	-0.0661959272	-2.2876516265	-0.1127253487	 0.214628
H	-0.6865544778	 1.8707308215	-0.584672946	 0.135539
H	 1.0897249359	 3.7215524893	 1.6963362606	 0.137639
H	 3.2247542293	 2.2930678808	 1.2003536883	 0.148235
H	 2.2245598342	 0.7995882277	 1.6014716181	 0.147018
94.2057	129.9884	167.8537	214.2782	315.2796	433.2093	460.6806	493.5268	553.2	560.4555	645.8219	652.8648	687.4834	746.6629	836.2225	893.3417	940.3881	977.2803	1008.1269	1022.6417	1049.8881	1095.666	1104.8953	1203.3125	1228.4393	1280.7081	1356.7645	1387.0181	1473.2983	2241.0546	2347.4772	3058.6857	3132.6088	3202.251	3231.7881	3498.6261
C#CC1OC2CC12C#N	C#C[C@H]1O[C@H]2C[C@@]12C#N	
InChI=1S/C7H5NO/c1-2-5-7(4-8)3-6(7)9-5/h1,5-6H,3H2	InChI=1S/C7H5NO/c1-2-5-7(4-8)3-6(7)9-5/h1,5-6H,3H2/t5-,6+,7-/m1/s1
