16
gdb 132494	3.06334	1.32629	0.93175	2.8111	76.41	-0.2085	-0.0179	0.1906	1179.4291	0.125116	-442.103366	-442.095457	-442.094513	-442.135521	30.658	
C	-0.0588422895	 1.531153347	-0.0145648395	-0.516657
C	-0.0115420948	 0.0274090154	-0.0240066335	 0.257515
C	 0.0063249236	-0.7034173703	-1.2027757446	-0.29512
C	 0.0263286051	-2.0913452352	-1.1421375612	 0.235154
F	 0.040957851	-2.812162058	-2.2719239713	-0.08413
C	 0.0308908709	-2.7223538923	 0.087221172	-0.121981
N	 0.0259781078	-2.0386783718	 1.2345057653	-0.3292
C	 0.0016281532	-0.7058713341	 1.1866820729	 0.293933
N	-0.0720019219	-0.0493212839	 2.4096379783	-0.565815
H	 0.8476352069	 1.9659153682	 0.4289964128	 0.126667
H	-0.1484185588	 1.930619705	-1.0275152892	 0.129828
H	-0.9087806359	 1.895865829	 0.5742005741	 0.142817
H	-0.0026052347	-0.208305287	-2.1682550952	 0.110157
H	 0.0449509143	-3.8071311759	 0.1464867872	 0.116487
H	 0.1529556194	-0.6569527916	 3.1848057542	 0.253034
H	 0.3846963734	 0.8484750955	 2.4635969478	 0.247309
138.0849	178.3426	208.988	282.9365	336.5136	370.075	400.1801	463.6949	480.1605	490.3879	567.212	576.7579	632.345	725.0457	786.8999	808.3989	919.1609	937.3206	996.4293	1016.7653	1062.7201	1080.2032	1164.2771	1261.3313	1301.5926	1330.2665	1348.9895	1411.6474	1458.0428	1479.4904	1481.2996	1519.3113	1621.1162	1632.0836	1661.8525	3010.1002	3064.0695	3117.7258	3169.3053	3188.5342	3565.3253	3674.8002
CC1=CC(F)=CN=C1N	Cc1cc(F)cnc1N	
InChI=1S/C6H7FN2/c1-4-2-5(7)3-9-6(4)8/h2-3H,1H3,(H2,8,9)	InChI=1S/C6H7FN2/c1-4-2-5(7)3-9-6(4)8/h2-3H,1H3,(H2,8,9)
