17
gdb 111939	3.16137	1.29668	0.99627	4.4249	78.89	-0.2239	-0.0789	0.145	1188.7529	0.136798	-418.051658	-418.043174	-418.04223	-418.085409	31.015	
C	 0.0386684013	 1.5763226803	 0.0452913543	-0.379996
C	-0.0166437509	 0.0490177214	-0.0395932311	-0.15474
N	 0.6643831673	-0.4870591115	-1.2083510612	-0.069475
C	 0.0914094368	-0.8180886151	-2.4176623614	 0.001065
C	 0.9794718257	-1.2427523425	-3.3564159617	-0.313216
C	 2.2956916742	-1.1983823237	-2.7415773126	 0.34258
O	 3.4039713949	-1.4776013137	-3.1491859358	-0.341894
C	 2.0393639152	-0.6783872694	-1.3079477322	 0.268036
N	 2.8727361077	-0.4545996681	-0.38025352	-0.522409
H	 1.0758503909	 1.9159935894	 0.0953848004	 0.152227
H	-0.4393305474	 2.0389620278	-0.8238372376	 0.119871
H	-0.4800756949	 1.9207099136	 0.9452249243	 0.123118
H	 0.4580780559	-0.3921161351	 0.8414662997	 0.145144
H	-1.0532065172	-0.3024877045	-0.0701856176	 0.113536
H	-0.9830275583	-0.7236412423	-2.5173911783	 0.144145
H	 0.7507548025	-1.5626878301	-4.3597155624	 0.123954
H	 3.8046107661	-0.6927388068	-0.7345245669	 0.248055
54.474	82.7222	158.5893	212.9104	295.348	315.5467	340.9371	376.7733	540.1396	564.5196	582.7343	719.53	727.5121	773.0236	810.4611	824.5086	898.2734	926.1229	963.6193	985.9376	1046.7737	1102.0264	1117.5664	1156.2753	1241.2815	1261.3841	1346.9096	1385.7696	1393.7585	1412.661	1442.9187	1479.5283	1492.4195	1505.5639	1603.9133	1742.5874	1798.1008	3043.3868	3051.1455	3097.1327	3115.9425	3135.4025	3216.4693	3271.882	3432.9885
CCN1C=CC(=O)C1=N	CCN1C=CC(=O)[C]1[NH]	
InChI=1S/C6H8N2O/c1-2-8-4-3-5(9)6(8)7/h3-4,7H,2H2,1H3	InChI=1S/C6H8N2O/c1-2-8-4-3-5(9)6(8)7/h3-4,7H,2H2,1H3
