20
gdb 106192	3.18953	1.47317	1.43806	1.5736	80.96	-0.2193	0.0793	0.2985	1035.2995	0.172641	-365.966405	-365.958946	-365.958002	-365.998338	30.14	
C	-0.203345972	 1.4873552655	 0.031704543	-0.37818
C	 0.165377145	-0.0003259722	-0.046119404	-0.309496
C	 0.769698805	-0.5024250799	 1.2272481135	 0.405331
C	 0.0673151223	-0.9453175345	 2.4859596217	-0.124307
C	 0.7085022424	-0.2808152039	 3.686796801	-0.244107
C	 2.1174944318	-0.1852394219	 3.1459776091	-0.048932
C	 2.4207079142	-1.3212984877	 2.2385804941	-0.045513
C	 1.0626445249	-1.8706950322	 1.7852569175	-0.196423
N	 2.1281916873	 0.0336888256	 1.6650754023	-0.196734
H	 0.6767561509	 2.0842278625	 0.2885139085	 0.137322
H	-0.5924518415	 1.8472692801	-0.9254021404	 0.108676
H	-0.966511445	 1.6656300082	 0.7965761641	 0.111707
H	-0.721915817	-0.6023016116	-0.2782671494	 0.09622
H	 0.8759432047	-0.1601679665	-0.8665836229	 0.107039
H	-0.9873038418	-1.1888729415	 2.446615119	 0.088255
H	 0.2773338347	 0.7034580034	 3.8994569322	 0.107921
H	 0.6595983293	-0.888830202	 4.5969448303	 0.105316
H	 2.9062885907	 0.3279202805	 3.6849614995	 0.093669
H	 3.3881778648	-1.794209149	 2.1168323688	 0.092515
H	 0.8338084094	-2.857172693	 1.4070307223	 0.089722
85.0283	133.6286	206.5228	308.8892	357.9674	403.4254	539.876	607.7873	715.3694	742.081	753.2187	781.5658	796.3265	846.2381	850.1099	886.9291	914.9378	927.4782	962.4913	971.7216	988.0863	999.9391	1029.5052	1048.2043	1063.1587	1072.9499	1113.087	1150.4373	1175.5929	1198.5197	1214.8338	1237.5513	1286.397	1294.7463	1322.2837	1354.8004	1372.1752	1404.8808	1457.185	1476.0623	1488.6157	1498.3835	1510.7604	3023.9678	3036.9869	3041.8447	3058.3071	3084.3762	3105.5492	3116.1169	3172.3492	3183.2706	3195.5763	3212.5814
CCC12C3CC4C(C13)N24	CC[C@@]12[C@@H]3C[C@H]4[C@@H]([C@H]13)N24	
InChI=1S/C8H11N/c1-2-8-4-3-5-7(6(4)8)9(5)8/h4-7H,2-3H2,1H3	InChI=1S/C8H11N/c1-2-8-4-3-5-7(6(4)8)9(5)8/h4-7H,2-3H2,1H3/t4-,5+,6-,7+,8-,9?/m1/s1
