18
gdb 6101	4.57689	1.17016	1.07701	2.3375	65.21	-0.261	0.0048	0.2657	1163.7816	0.151276	-422.120103	-422.110653	-422.109709	-422.155047	33.04	
C	 0.0873949859	 1.3982594387	 0.0867551305	-0.393697
C	-0.1269323035	-0.1061375056	-0.1080883873	 0.140194
O	 0.1719753236	-0.8276712733	 1.0748121491	-0.441297
C	-1.5478859257	-0.3747853767	-0.6035117926	-0.112681
O	-1.7919967476	-1.7763683586	-0.8308506204	-0.23448
C	-2.2358845683	-2.4967216922	 0.2158640231	 0.447393
C	-2.4799766986	-3.9290431449	-0.183912204	-0.475547
O	-2.4110887068	-2.0460993737	 1.3255072158	-0.376624
H	 1.0962524249	 1.5745580636	 0.4671358961	 0.131513
H	-0.0302626517	 1.9492469816	-0.8529416148	 0.109137
H	-0.6243883371	 1.8007747938	 0.8160213444	 0.116799
H	 0.5756123258	-0.4715428191	-0.8696980026	 0.087316
H	-0.6513616862	-0.9708731353	 1.5601328299	 0.294346
H	-2.2822933876	 0.0027532539	 0.114844117	 0.127688
H	-1.7100420455	 0.1043359966	-1.5719414789	 0.119081
H	-1.5248191141	-4.402226976	-0.4314829413	 0.159889
H	-2.9483786794	-4.4625291567	 0.6420195722	 0.150777
H	-3.1089045383	-3.9757274663	-1.0762653161	 0.150192
45.9646	67.4375	94.1848	149.5287	228.9383	255.8056	298.6586	332.3834	412.6359	423.5554	481.4684	533.5056	611.9836	662.3491	838.5438	864.6376	932.9118	936.6466	1004.2126	1065.0881	1070.0149	1098.8225	1126.2247	1173.3919	1262.3002	1284.8699	1338.6805	1373.1101	1392.6068	1404.4993	1419.8967	1444.5779	1467.8355	1475.3908	1477.162	1494.9287	1497.4089	1796.9133	3016.6866	3031.8747	3058.6556	3059.2731	3099.0887	3120.1743	3125.4502	3125.5868	3171.6451	3755.0949
CC(O)COC(C)=O	C[C@@H](O)COC(=O)C	
InChI=1S/C5H10O3/c1-4(6)3-8-5(2)7/h4,6H,3H2,1-2H3	InChI=1S/C5H10O3/c1-4(6)3-8-5(2)7/h4,6H,3H2,1-2H3/t4-/m1/s1
