19
gdb 80870	2.29127	1.73471	1.39416	2.945	70.19	-0.2476	0.0618	0.3094	1006.3852	0.159836	-460.144983	-460.136753	-460.135809	-460.177046	33.25	
O	 0.0919862852	 1.4001484699	 0.0915603532	-0.462089
C	 0.0948039956	-0.0078373861	 0.0883242456	 0.108684
C	 0.1207411209	-0.6479965739	 1.5005431049	-0.055779
C	-1.3947258771	-0.2895028531	 1.6025273866	-0.288651
C	-1.3512648457	-0.6099674598	 0.0878017805	 0.390251
O	-2.3195827185	-0.1154741173	-0.7813484542	-0.508173
C	-1.0761703233	-2.1133639007	 0.0736819093	 0.047221
O	-0.7130320224	-2.4715374318	-1.2546582726	-0.452948
C	 0.0734644172	-2.149047573	 1.1362209175	-0.265793
H	-0.5936349264	 1.673631616	-0.5310563273	 0.285749
H	 0.80535735	-0.4031427721	-0.6480706796	 0.0686
H	 0.8374106054	-0.3264621569	 2.2538422508	 0.073179
H	-2.0351737592	-0.9070888943	 2.2386490152	 0.086315
H	-1.5579198796	 0.7693853504	 1.7912518031	 0.120741
H	-2.2339562842	-0.6218076593	-1.6002059262	 0.289022
H	-1.9598823608	-2.6842497239	 0.3888371459	 0.071542
H	-0.6485966777	-3.4291402115	-1.3113240517	 0.289493
H	 1.004031579	-2.5057391162	 0.6840194048	 0.103344
H	-0.1649131184	-2.7828964664	 1.9946514343	 0.099294
155.1793	196.273	225.5285	262.6311	283.9342	364.1072	399.8769	422.9373	446.5525	474.0743	517.0516	595.0789	628.4557	688.5025	821.6151	844.0682	869.1244	923.851	953.2495	978.5758	999.0758	1030.7695	1055.4013	1077.8341	1104.1856	1139.1275	1144.6856	1192.9529	1209.3966	1232.3908	1245.2777	1264.7904	1278.5825	1305.3539	1340.5288	1355.0211	1384.8487	1412.06	1431.6623	1480.6846	1503.5843	3007.7127	3027.4037	3052.0587	3065.6144	3102.2403	3135.6402	3163.9	3764.1918	3768.4353	3833.8582
OC1C2CC1(O)C(O)C2	O[C@H]1[C@H]2C[C@]1(O)[C@@H](O)C2	
InChI=1S/C6H10O3/c7-4-1-3-2-6(4,9)5(3)8/h3-5,7-9H,1-2H2	InChI=1S/C6H10O3/c7-4-1-3-2-6(4,9)5(3)8/h3-5,7-9H,1-2H2/t3-,4+,5+,6+/m1/s1
