21
gdb 121441	2.4328	0.85533	0.67137	0.5865	86.98	-0.2209	-0.0669	0.154	1736.5063	0.179997	-420.419829	-420.408637	-420.407693	-420.457833	38.166	
C	 0.0562183723	 1.5296646806	-0.0823143164	-0.379061
C	-0.0112778885	 0.0213280493	 0.1661572845	-0.153395
C	-1.3962496037	-0.5709054104	-0.1383241211	-0.156858
N	-1.3810594084	-2.0171839874	-0.0450068743	-0.293009
C	-1.8486898709	-2.6593209216	 0.963742365	 0.258529
N	-1.850503055	-4.0198308768	 0.9972619744	-0.305141
C	-1.2457822323	-4.8161349092	-0.0434574009	-0.308219
C	-2.4242808846	-2.0687061416	 2.2293436847	 0.115323
O	-2.7743200894	-2.7533581972	 3.1626738683	-0.26804
H	 1.0512484314	 1.9241274861	 0.1445677886	 0.115234
H	-0.1658909435	 1.7695457187	-1.1279985042	 0.117054
H	-0.6649368025	 2.0710391158	 0.5404941221	 0.112528
H	 0.7295633296	-0.5015660544	-0.4491634554	 0.110455
H	 0.2457528924	-0.2009372203	 1.210096891	 0.089483
H	-2.1495549311	-0.0729543541	 0.4908172649	 0.084823
H	-1.6588329032	-0.3183217401	-1.1744460898	 0.103362
H	-2.1182318101	-4.4344574282	 1.874931234	 0.25961
H	-1.426192788	-5.8722992945	 0.166401166	 0.120924
H	-1.6801215402	-4.5636852505	-1.0160573048	 0.141688
H	-0.16385377	-4.643859537	-0.1168187591	 0.128418
H	-2.4867121144	-0.9684783072	 2.2754639625	 0.106293
28.806	72.7405	85.5283	88.3192	141.888	180.5243	194.4151	224.6994	270.8995	299.9414	359.5631	439.4501	447.6776	551.4249	579.5838	682.3203	753.6351	821.3953	891.3851	897.7504	1015.3258	1034.3099	1059.6664	1115.4658	1132.1124	1158.4666	1172.3635	1211.1449	1258.2908	1303.1405	1320.1861	1330.2016	1380.3532	1408.0515	1411.0128	1454.79	1472.3273	1488.8922	1498.2955	1504.1922	1511.8088	1524.8865	1551.0585	1698.9101	1793.3097	2969.9757	3001.8827	3016.5257	3017.6786	3028.7367	3031.0233	3066.9558	3076.4576	3097.2165	3104.3104	3130.765	3647.6211
CCCN=C(NC)C=O	CCCN=C(NC)C=O	
InChI=1S/C6H12N2O/c1-3-4-8-6(5-9)7-2/h5H,3-4H2,1-2H3,(H,7,8)	InChI=1S/C6H12N2O/c1-3-4-8-6(5-9)7-2/h5H,3-4H2,1-2H3,(H,7,8)
