23
gdb 89151	2.28664	1.39889	1.16122	1.1971	85.28	-0.2398	0.078	0.3177	1223.8563	0.204587	-388.27335	-388.26374	-388.262795	-388.307202	37.39	
C	 0.0989791913	 1.6368348647	-0.0322122382	-0.41525
C	 0.0600242872	 0.1170200784	 0.0216134363	 0.051941
C	 0.9713101035	-0.7079809485	-0.9419749146	-0.327636
C	 1.3098575959	-1.6832973606	 0.2336096246	 0.408412
O	 0.7715697544	-2.9742208695	 0.1315630538	-0.491324
C	 2.6912739072	-1.5063037566	 0.9139466502	-0.013095
C	 3.9721453584	-1.3859062309	 0.1017663361	-0.422457
C	 2.1151850792	-0.2578844449	 1.654058533	-0.269445
C	 0.6691908573	-0.6557304595	 1.2196657584	-0.075332
H	 1.1178439352	 2.0245813521	 0.0723480307	 0.112963
H	-0.2931434774	 2.0035166748	-0.9876691032	 0.112722
H	-0.508203026	 2.0776598278	 0.7665471982	 0.113504
H	-0.9754317814	-0.2187824473	-0.1025855004	 0.078168
H	 0.4603394495	-1.1818469525	-1.7839970307	 0.094173
H	 1.8299187219	-0.1490119302	-1.3252651693	 0.093177
H	 1.1443173185	-3.3952955416	-0.651018424	 0.273788
H	 2.7836169334	-2.3302616387	 1.6310474635	 0.076967
H	 3.9184449061	-0.5670014558	-0.6239092524	 0.113251
H	 4.8320538297	-1.1897476141	 0.7517646128	 0.116471
H	 4.1842949626	-2.3085835487	-0.4513367701	 0.107416
H	 2.290374543	-0.2267259162	 2.7312181723	 0.100815
H	 2.4579690016	 0.6907552423	 1.230831121	 0.095395
H	 0.0057947988	-0.9663089446	 2.0277125919	 0.065378
72.0395	177.7477	196.071	205.524	215.9661	242.5332	259.2875	310.8239	357.7977	401.6232	474.6702	521.7052	557.0545	618.3511	733.8739	771.1831	847.0484	867.1973	885.888	917.4012	938.6383	953.854	970.961	1024.1684	1043.0466	1098.7263	1109.6633	1131.788	1141.8127	1158.9499	1184.5858	1196.1858	1227.0117	1243.381	1264.8569	1277.3911	1298.5719	1322.1086	1351.9735	1369.9244	1382.0592	1407.5335	1411.9902	1468.3916	1486.2182	1493.4593	1496.2643	1498.5079	1501.9619	3023.7356	3024.9994	3037.9217	3038.6052	3052.5549	3059.9872	3085.6938	3088.7279	3093.8173	3094.6205	3097.871	3107.9535	3115.2645	3793.7123
CC1CC2(O)C(C)CC12	C[C@H]1C[C@@]2(O)[C@@H](C)C[C@@H]12	
InChI=1S/C8H14O/c1-5-4-8(9)6(2)3-7(5)8/h5-7,9H,3-4H2,1-2H3	InChI=1S/C8H14O/c1-5-4-8(9)6(2)3-7(5)8/h5-7,9H,3-4H2,1-2H3/t5-,6-,7-,8+/m0/s1
