17
gdb 48951	3.57047	1.43411	1.38791	4.5643	72.97	-0.2475	-0.0183	0.2291	980.7711	0.137793	-421.836795	-421.83009	-421.829145	-421.867954	27.055	
O	-0.0780089541	 0.0520177362	 0.2472872657	-0.26484
C	 0.0700654545	 1.2068053925	-0.0643684783	 0.048987
C	 1.3375683342	 1.9446191832	-0.0366502263	 0.389274
O	 2.5069329765	 1.2919955203	 0.381808946	-0.284092
C	 3.444728465	 2.3751875605	 0.2440776045	 0.049297
C	 3.2197836562	 2.8341055246	-1.2147952745	-0.228314
C	 1.7120414056	 3.0091158114	-1.0786495346	-0.1535
C	 1.4364830151	 3.4288755763	 0.3459511064	-0.153497
C	 2.7792502262	 3.5050726786	 1.0626224445	-0.228313
H	-0.7816907412	 1.8358862422	-0.4145490994	 0.068387
H	 4.4383929173	 2.0428989637	 0.5341844687	 0.091569
H	 3.7434059187	 3.7641089863	-1.452789626	 0.109163
H	 3.4944068606	 2.0613253645	-1.9366974603	 0.119
H	 1.0548484257	 3.2528734033	-1.9021871359	 0.104358
H	 0.5643592807	 4.0000298651	 0.6335551403	 0.104358
H	 2.7087994756	 3.2578316446	 2.1245359205	 0.119003
H	 3.2804272634	 4.4692845768	 0.9407869886	 0.10916
102.6992	189.1241	276.1197	400.5957	452.3812	452.6552	576.6458	638.3258	691.3573	782.7348	801.1917	819.4067	884.8459	893.3078	914.3216	940.0111	955.3842	989.756	993.9124	1006.4734	1023.	1047.7105	1090.2984	1120.941	1143.5879	1168.3312	1217.5799	1232.1483	1268.2761	1313.924	1319.1884	1348.2702	1383.7097	1446.0317	1475.4136	1492.3599	1819.8261	2856.1361	3063.1892	3068.1358	3118.321	3121.5594	3160.638	3207.9409	3216.3489
O=CC12OC3CC1C2C3	O=C[C@@]12O[C@H]3C[C@@H]1[C@@H]2C3	
InChI=1S/C7H8O2/c8-3-7-5-1-4(9-7)2-6(5)7/h3-6H,1-2H2	InChI=1S/C7H8O2/c8-3-7-5-1-4(9-7)2-6(5)7/h3-6H,1-2H2/t4-,5+,6-,7+
