18
gdb 91892	2.41673	1.66214	1.10173	3.1614	72.82	-0.2243	-0.0302	0.1941	1105.8315	0.147982	-439.073081	-439.065057	-439.064113	-439.105718	30.419	
C	 0.0669315351	 1.4782937538	 0.0234153484	-0.316204
N	 0.0300921175	 0.0261082571	 0.0166730993	-0.088451
C	 0.5635976503	-0.5215898479	-1.2253169784	-0.167786
C	 0.6576637856	-2.0352222909	-1.2154855555	 0.031184
O	 1.7704690715	-2.5910663106	-0.5251187624	-0.243369
C	 0.4615585127	-2.7992947656	 0.0353799911	-0.068908
C	 0.2168757347	-2.0241043303	 1.2965614587	 0.420546
O	-0.2815761146	-2.5296938648	 2.2730733176	-0.311864
C	 0.6292703167	-0.558224183	 1.216985926	-0.272263
H	 1.0937390945	 1.8898008212	-0.0033733539	 0.098435
H	-0.4725176548	 1.8628361015	-0.8484515622	 0.122102
H	-0.4280336537	 1.8562088146	 0.9227828579	 0.126794
H	-0.0947196326	-0.2096581772	-2.0446395069	 0.112573
H	 1.5743195577	-0.1302380184	-1.4571305515	 0.098209
H	 0.4258036368	-2.5366974669	-2.154282115	 0.110552
H	 0.0947321555	-3.823138272	 0.0227820651	 0.111718
H	 1.7332201688	-0.4788822509	 1.2380029563	 0.110226
H	 0.2318803682	-0.0550989798	 2.1009507553	 0.126507
94.3618	122.3389	224.353	247.3572	306.8081	353.9557	372.8406	420.6943	475.8789	505.7338	606.5106	698.2589	801.0044	822.7668	873.5863	920.4487	960.3364	1007.8877	1020.5233	1066.7015	1083.4643	1134.5228	1152.6365	1159.146	1214.6766	1260.8248	1266.7255	1285.1911	1308.8048	1355.1705	1366.6423	1410.7847	1439.2799	1457.351	1477.758	1484.6076	1501.8175	1507.2773	1826.5478	2908.1991	2923.0923	2933.5736	3049.0133	3061.1382	3105.5634	3108.9513	3121.1311	3150.4132
CN1CC2OC2C(=O)C1	CN1C[C@H]2O[C@H]2C(=O)C1	
InChI=1S/C6H9NO2/c1-7-2-4(8)6-5(3-7)9-6/h5-6H,2-3H2,1H3	InChI=1S/C6H9NO2/c1-7-2-4(8)6-5(3-7)9-6/h5-6H,2-3H2,1H3/t5-,6+/m1/s1
