13
gdb 42297	2.69513	1.4915	0.972	5.7582	66.84	-0.2908	-0.0859	0.2049	1112.3815	0.088889	-452.793086	-452.784992	-452.784048	-452.826628	27.841	
O	 0.0038979715	-0.0572495432	 0.0034598524	-0.309649
C	-0.0181132543	 1.1515827781	 0.0071608424	 0.331922
C	 1.2164543818	 1.948800384	 0.001045911	 0.256186
N	 2.2307275572	 2.5010658223	-0.00434718	-0.314097
N	-1.1771371026	 1.8840632036	 0.0179945912	-0.167256
C	-2.5707502157	 1.4011650586	 0.0267463368	-0.171828
C	-3.027490176	 2.8880402811	 0.0347174462	-0.37917
C	-1.5367417762	 3.2615888301	 0.0251416108	 0.441654
O	-0.8738824009	 4.2499989788	 0.0233623343	-0.302181
H	-2.8254159216	 0.8284657083	-0.8667011562	 0.149475
H	-2.8122838915	 0.8229040328	 0.9202583635	 0.149479
H	-3.5690952831	 3.2222519309	-0.8514769441	 0.157739
H	-3.5562051985	 3.2166489545	 0.9307359718	 0.157725
70.7011	104.6251	118.0922	196.2099	222.0039	330.3909	369.1372	482.6838	532.7399	581.2948	694.5665	763.9309	768.7174	803.5189	925.7535	1012.6107	1050.9495	1062.2034	1154.3319	1156.2463	1192.7596	1230.7191	1325.4079	1379.6626	1457.0221	1517.1066	1771.2002	1913.9329	2357.5608	3083.6268	3096.4157	3136.4841	3155.1737
O=C(C#N)N1CCC1=O	O=C(C#N)N1CCC1=O	
InChI=1S/C5H4N2O2/c6-3-5(9)7-2-1-4(7)8/h1-2H2	InChI=1S/C5H4N2O2/c6-3-5(9)7-2-1-4(7)8/h1-2H2
