19
gdb 89975	3.32673	1.19838	1.05024	2.3996	76.12	-0.2429	-0.0274	0.2155	1195.3821	0.158288	-423.017934	-423.009034	-423.00809	-423.051863	32.866	
O	 1.1067565846	 0.3857428784	 0.6630723865	-0.439012
C	 0.1581855281	-0.3753733906	-0.0207377132	 0.075747
C	-1.3781418406	-0.0540084943	 0.0687976928	-0.37486
C	-1.5196454368	-0.3240666872	-1.4559139882	 0.244089
C	-2.0770496335	-1.6713959319	-2.0128252483	-0.277716
C	-2.5724938548	-0.899082409	-3.264091681	-0.20413
C	-2.4118041295	 0.426570849	-2.4708154938	-0.288096
C	-0.0041908394	-0.1293774232	-1.5228237641	 0.293378
O	 0.7388076795	 0.3744304217	-2.3224285473	-0.322082
H	 1.4865289298	 1.0046209703	 0.0268008462	 0.294935
H	 0.317627716	-1.4402376939	 0.1945289369	 0.109582
H	-1.9660088482	-0.6852723449	 0.7373943347	 0.109608
H	-1.5395381941	 0.9995444255	 0.3128949486	 0.117781
H	-1.3706650567	-2.4923261604	-2.1608437641	 0.107104
H	-2.9047629819	-2.0281100452	-1.3922006577	 0.10821
H	-1.8584941469	-0.9628215556	-4.0885453503	 0.12046
H	-3.567468541	-1.144920734	-3.640092086	 0.101913
H	-3.3492124651	 0.7559275662	-2.013328874	 0.106501
H	-1.9452036995	 1.2703765391	-2.9845033279	 0.116587
73.8228	99.9488	137.1741	157.689	244.8428	263.1857	290.1372	371.6962	459.4211	532.3491	652.6624	733.6144	743.3234	773.006	799.7396	880.6731	885.0919	936.8016	940.6996	953.9913	976.941	1038.2881	1077.5088	1121.9395	1141.5517	1173.6253	1178.7003	1207.2799	1225.9018	1244.4125	1252.9758	1277.7403	1285.0165	1298.4618	1342.6579	1408.679	1469.0727	1475.8117	1482.3504	1501.2833	1857.2347	3023.9287	3049.7648	3057.5784	3065.3941	3070.6295	3100.0108	3111.3675	3129.2114	3129.7394	3775.5945
OC1CC2(CCC2)C1=O	O[C@H]1CC2(CCC2)C1=O	
InChI=1S/C7H10O2/c8-5-4-7(6(5)9)2-1-3-7/h5,8H,1-4H2	InChI=1S/C7H10O2/c8-5-4-7(6(5)9)2-1-3-7/h5,8H,1-4H2/t5-/m0/s1
