20
gdb 71154	2.61164	1.81969	1.46451	1.6011	82.28	-0.2294	0.0815	0.3109	993.9548	0.171433	-365.945181	-365.937449	-365.936505	-365.976826	31.519	
C	-0.0075172785	 1.571117959	 0.0901162534	-0.504784
C	 0.0364126434	 0.0729673707	 0.0430769995	 0.235893
C	-1.2413965798	-0.7907310095	-0.1061626153	-0.280454
C	-0.480528613	-1.7958570122	 0.7377486887	-0.045457
C	 0.9646825768	-1.7435235081	 0.3541995662	-0.148887
N	 0.4117627326	-0.7473377758	 1.3391489509	-0.189913
C	 1.1139191793	-0.7068445513	-0.7188686394	 0.412678
C	 1.3998706247	-0.8166321992	-2.1840165623	-0.347269
C	 2.4054699002	-0.1698707382	-1.2464071761	-0.345297
H	 0.9658586933	 1.9836256165	 0.3726156082	 0.130608
H	-0.2846733316	 1.9812531441	-0.8884725785	 0.119715
H	-0.7466995641	 1.9131603784	 0.8209959953	 0.127267
H	-2.0775382696	-0.3621527377	 0.4537623697	 0.103634
H	-1.5662283709	-1.0642445648	-1.1155012475	 0.095735
H	-0.8838954442	-2.597817723	 1.3465187781	 0.092634
H	 1.6806321115	-2.4981401626	 0.661809912	 0.091162
H	 1.6344697578	-1.7936443073	-2.5942224615	 0.113235
H	 0.8555446073	-0.1687492768	-2.8645963134	 0.110786
H	 2.5349787074	 0.9059897535	-1.3075242934	 0.113603
H	 3.3177891675	-0.712775096	-1.0203557147	 0.115108
159.0482	180.9239	220.1369	227.1826	303.8392	346.9172	438.7366	520.0922	588.3038	629.3547	753.635	764.1724	776.5806	804.5833	823.7768	871.3752	900.782	931.29	957.1189	993.3234	994.076	1015.3323	1029.4685	1040.3294	1052.3848	1078.2425	1101.1368	1115.5915	1139.673	1184.5246	1192.0583	1229.2156	1252.5904	1280.8823	1342.5896	1356.3314	1412.9563	1423.1324	1460.8895	1480.9868	1491.0316	1494.7994	1512.8156	3028.9978	3041.2084	3096.147	3099.3692	3110.2044	3120.5425	3124.8233	3167.2972	3178.9804	3197.9841	3212.5862
CC12CC3C(N13)C21CC1	C[C@]12C[C@H]3[C@H](N13)C12CC1	
InChI=1S/C8H11N/c1-7-4-5-6(9(5)7)8(7)2-3-8/h5-6H,2-4H2,1H3	InChI=1S/C8H11N/c1-7-4-5-6(9(5)7)8(7)2-3-8/h5-6H,2-4H2,1H3/t5-,6-,7+,9?/m0/s1
