19
gdb 50754	2.676	1.28637	1.04395	3.3318	78.67	-0.2332	-0.03	0.2032	1195.7371	0.159911	-423.032133	-423.023668	-423.022724	-423.065896	31.377	
O	 0.5552553822	-0.3349107508	-0.340319249	-0.248164
C	 0.2334696831	 0.8243125834	-0.3693227822	 0.161053
C	 1.2109339365	 1.9962099263	-0.2595577183	-0.125227
C	 1.0696344647	 2.9340796671	-1.4708902518	-0.112069
O	-0.2055932877	 3.5230158921	-1.6146325863	-0.241384
C	-0.4215993896	 4.6678367675	-0.8099089524	-0.071949
C	-0.8450759673	 4.3527145459	 0.6240825953	-0.256291
C	 0.137448633	 3.5775098583	 1.4663014798	-0.049328
C	 0.9999669923	 2.6247302522	 1.1006276401	-0.096038
H	-0.8289452647	 1.133225307	-0.4627124111	 0.092952
H	 2.2152859419	 1.560204909	-0.2988018969	 0.09711
H	 1.8472561148	 3.7114639572	-1.4100605361	 0.099098
H	 1.2417928408	 2.3577153154	-2.3868969355	 0.116094
H	 0.4833564912	 5.2958570625	-0.8025983855	 0.092781
H	-1.219290664	 5.234306848	-1.3022179557	 0.108085
H	-1.0615314415	 5.3075764559	 1.1198184904	 0.107186
H	-1.8025255698	 3.8124398338	 0.597149696	 0.126564
H	 0.1104560813	 3.8210936167	 2.5268947823	 0.096135
H	 1.5881248729	 2.1615374925	 1.8895900068	 0.103391
61.3848	77.344	157.444	218.7887	269.6174	313.7268	398.3166	420.4444	477.9334	504.6408	605.7392	737.6903	763.0196	783.4367	860.4041	886.9539	957.3088	968.6903	997.9682	1012.2706	1054.4066	1076.2136	1097.699	1127.2919	1159.7984	1232.9997	1252.6381	1265.747	1309.164	1335.0743	1347.3402	1385.2258	1390.049	1412.7387	1431.4332	1433.9938	1463.4746	1485.1999	1499.1916	1715.1578	1825.6799	2913.9407	2978.5236	2983.8256	3008.5616	3049.733	3055.746	3064.7375	3071.0129	3133.9107	3159.3346
O=CC1COCCC=C1	O=C[C@H]1COCCC=C1	
InChI=1S/C7H10O2/c8-5-7-3-1-2-4-9-6-7/h1,3,5,7H,2,4,6H2	InChI=1S/C7H10O2/c8-5-7-3-1-2-4-9-6-7/h1,3,5,7H,2,4,6H2/t7-/m0/s1
