21
gdb 58817	3.21476	1.26234	1.09478	1.9847	81.13	-0.2257	0.0656	0.2913	1196.8845	0.180953	-387.016484	-387.007744	-387.0068	-387.049704	34.41	
C	-0.1910601309	 1.5665082702	-0.1193765934	-0.383705
C	-0.0116010028	 0.0410813608	-0.0292445997	-0.081539
C	-1.3539026641	-0.6585901968	 0.2191143143	-0.399671
C	 0.7151425991	-0.475993022	-1.2492142955	 0.344937
C	 0.1098699862	-0.8653701282	-2.5716469779	-0.337086
C	 0.906188276	-1.8881666856	-1.794932317	-0.182558
C	 2.4368908477	-1.6137701022	-1.9105877954	 0.022514
O	 2.6623346503	-0.4881806619	-2.7737107059	-0.242016
C	 2.2647206454	-0.2554001017	-1.4153263919	-0.042882
H	 0.7658246806	 2.0746602522	-0.2770627863	 0.114025
H	-0.847790842	 1.8292395775	-0.9558586675	 0.119219
H	-0.6350234679	 1.9648471356	 0.7989082281	 0.108374
H	 0.6313697627	-0.1674344076	 0.8399080708	 0.071422
H	-2.0729195739	-0.4374494939	-0.5769210008	 0.118581
H	-1.2371653116	-1.745217085	 0.2794786906	 0.114401
H	-1.7933270066	-0.3157333226	 1.1610974222	 0.113373
H	-0.9620817101	-1.0322653775	-2.5578025059	 0.110393
H	 0.5013739058	-0.464034983	-3.4979178581	 0.133071
H	 0.4851903499	-2.818227045	-1.4359163471	 0.091267
H	 3.2439133402	-2.3272554325	-1.7973970153	 0.106275
H	 2.8967214761	 0.3811269392	-0.8064550581	 0.101606
62.5967	148.4086	191.5645	235.8615	259.799	296.9265	348.1879	414.6272	439.0438	468.5627	570.422	652.4101	751.4767	799.9576	805.5398	818.2947	880.209	895.0274	920.8086	932.119	953.8799	964.9315	976.1037	990.1851	1024.3326	1060.1828	1099.4011	1113.9801	1132.4645	1150.8051	1196.2333	1216.7614	1251.0697	1260.853	1346.9202	1348.3782	1380.3107	1395.7497	1399.0522	1419.6038	1470.2618	1487.3547	1492.9744	1504.0192	1511.824	2980.4247	3028.4736	3033.779	3097.527	3099.4778	3102.9665	3105.0866	3141.6993	3176.5315	3192.0008	3201.1571	3230.7368
CC(C)C12CC1C1OC21	CC(C)[C@]12C[C@H]1[C@H]1O[C@@H]21	
InChI=1S/C8H12O/c1-4(2)8-3-5(8)6-7(8)9-6/h4-7H,3H2,1-2H3	InChI=1S/C8H12O/c1-4(2)8-3-5(8)6-7(8)9-6/h4-7H,3H2,1-2H3/t5-,6+,7+,8+/m0/s1
