24
gdb 118184	4.003	0.62021	0.60039	3.2864	86.78	-0.2432	0.0351	0.2782	1981.0624	0.21492	-405.602238	-405.590351	-405.589406	-405.641235	41.509	
C	-0.1338845945	 1.5944409286	 0.0721303316	-0.378392
C	 0.09422934	 0.0883329579	-0.086675827	-0.175869
C	 0.7240187809	-0.5504947762	 1.1572957334	-0.173648
C	 0.8875881939	-2.0792805174	 1.0907636563	 0.052329
C	 1.8483737579	-2.5259488233	-0.0207541583	-0.399573
C	 1.3434887761	-2.6261120255	 2.4527350841	-0.322848
C	 1.213607938	-4.1454265415	 2.5621382558	 0.407927
N	 2.0862258335	-4.7361586121	 3.4315907767	-0.522454
O	 0.3869963273	-4.7873847229	 1.9419749427	-0.362644
H	 0.8095796426	 2.120524448	 0.2569534208	 0.111567
H	-0.5851217927	 2.0276945174	-0.8260355793	 0.11039
H	-0.7999436338	 1.8084482735	 0.9156827237	 0.112149
H	-0.8620158378	-0.4075154032	-0.3000635006	 0.097072
H	 0.7306519352	-0.0885120119	-0.961392588	 0.099211
H	 1.7037930717	-0.0861752953	 1.3456423447	 0.084107
H	 0.1015741336	-0.3009481972	 2.0282144796	 0.084828
H	-0.0926663249	-2.5280650247	 0.8895442023	 0.099059
H	 2.8483232384	-2.0990648881	 0.1296095744	 0.100905
H	 1.9395651465	-3.6153291245	-0.038862434	 0.131206
H	 1.4985692861	-2.2120578801	-1.0079373974	 0.115824
H	 2.3740748853	-2.3151990193	 2.6691735925	 0.093462
H	 0.7195046672	-2.2002734487	 3.2505361387	 0.120945
H	 2.7367908138	-4.2064925329	 3.9839103608	 0.256081
H	 1.9876726257	-5.7222811304	 3.6095849864	 0.258364
23.5685	54.6689	67.5769	110.6772	115.5792	120.649	215.6206	232.6355	249.2915	298.0551	330.3076	368.1238	442.1108	499.5684	522.2867	620.4009	669.2795	743.5477	839.6357	843.2136	877.533	899.4386	923.3239	967.6653	1012.5132	1046.3397	1074.6951	1084.7383	1125.246	1151.8277	1182.7273	1231.4105	1262.9945	1278.9294	1306.2469	1331.6893	1347.7456	1378.6566	1395.6273	1403.8699	1409.483	1413.7898	1458.4459	1481.3885	1493.0646	1496.3589	1498.8734	1508.1651	1512.5344	1614.9279	1792.4752	2991.7568	3012.1012	3020.2976	3021.5686	3025.7985	3027.3267	3040.3771	3054.3897	3062.58	3094.1121	3098.6849	3100.2503	3118.0732	3601.871	3740.2253
CCCC(C)CC(N)=O	CCC[C@@H](C)CC(=O)N	
InChI=1S/C7H15NO/c1-3-4-6(2)5-7(8)9/h6H,3-5H2,1-2H3,(H2,8,9)	InChI=1S/C7H15NO/c1-3-4-6(2)5-7(8)9/h6H,3-5H2,1-2H3,(H2,8,9)/t6-/m1/s1
