14
gdb 26725	3.3327	1.22436	0.89888	3.5705	67.63	-0.2065	-0.0478	0.1587	1188.4571	0.100296	-473.848523	-473.840058	-473.839114	-473.881594	30.507	
N	 0.050393763	 1.4236923273	-0.1180214138	-0.61769
C	 0.0416115463	 0.0256783998	-0.011509738	-0.010161
C	-1.0426123244	-0.7931808794	 0.019924338	 0.321366
O	-2.3581041052	-0.518749683	 0.1050815963	-0.423984
O	-0.6589418142	-2.1145466762	 0.0379504241	-0.160557
C	 0.6856323005	-2.1311204027	 0.0196119875	-0.078364
C	 1.1893073233	-0.8574400798	-0.0107854386	 0.134049
C	 2.605303985	-0.5060356076	-0.0699973764	 0.067504
O	 3.5151000948	-1.3077753454	-0.055674169	-0.281659
H	 0.6812114588	 1.8653836203	 0.5399525481	 0.251092
H	-0.8784678085	 1.8066582321	 0.0123947542	 0.25127
H	-2.8128116614	-0.809775394	-0.6960435541	 0.311519
H	 1.1641709315	-3.0956532631	 0.0238211236	 0.169863
H	 2.8113831005	 0.5849263316	-0.140322412	 0.065753
111.8204	160.4117	181.8171	183.8163	255.8295	290.6253	313.8174	331.6733	401.8026	527.2436	613.4847	664.6546	674.142	767.1005	782.4154	785.1472	835.8279	970.0658	1040.2335	1144.2768	1188.2121	1215.2103	1247.5922	1305.6263	1329.1088	1431.278	1480.0158	1571.4118	1652.2584	1723.3849	1786.2815	2882.4015	3289.9065	3524.9359	3611.0942	3750.0807
NC1=C(O)OC=C1C=O	Nc1c(O)occ1C=O	
InChI=1S/C5H5NO3/c6-4-3(1-7)2-9-5(4)8/h1-2,8H,6H2	InChI=1S/C5H5NO3/c6-4-3(1-7)2-9-5(4)8/h1-2,8H,6H2
