13
gdb 21690	3.46982	2.36427	1.40699	1.6595	65.89	-0.2212	-0.0395	0.1817	808.9178	0.0973	-394.766931	-394.760305	-394.759361	-394.797476	25.61	
N	 0.0736492699	 1.318758792	-0.022645986	-0.544021
C	-0.003118549	-0.032080576	 0.0269908203	 0.405803
N	-1.1799994826	-0.5888688668	 0.0747972928	-0.210818
O	-1.2146175019	-1.9889318131	 0.1836420187	-0.227539
C	-0.0850772192	-2.6923374876	 0.2242369195	 0.110958
C	 1.1550685321	-2.1688877664	 0.1560608963	-0.258447
C	 1.3022550188	-0.7446642652	 0.0320108675	 0.264907
N	 2.3638134392	-0.0264340898	-0.0818134183	-0.557842
H	 0.9843070458	 1.6866279289	-0.2545631753	 0.28106
H	-0.7563883516	 1.848333605	-0.2265411012	 0.264844
H	-0.300488274	-3.751606756	 0.3164028354	 0.143627
H	 2.0215722489	-2.8177360971	 0.1886989183	 0.111146
H	 3.2028871835	-0.607881638	-0.0775636082	 0.216321
124.4168	268.7889	307.8921	355.7439	428.4453	464.3592	506.9469	526.1746	568.2454	602.4793	735.229	767.6186	822.4888	884.5001	889.8721	934.2972	951.2351	1054.4404	1125.0615	1164.1689	1278.1016	1329.2818	1414.6401	1489.3712	1586.5874	1622.6822	1643.8536	1689.4466	3193.6949	3214.3204	3463.344	3578.6639	3723.3302
NC1=NOC=CC1=N	NC1=NO[CH]C=C1[NH]	
InChI=1S/C4H5N3O/c5-3-1-2-8-7-4(3)6/h1-2,5H,(H2,6,7)	InChI=1S/C4H5N3O/c5-3-1-2-8-7-4(3)6/h1-2,5H,(H2,6,7)
