15
gdb 127609	4.89197	0.95027	0.8022	3.4693	72.48	-0.2425	-0.0162	0.2262	1363.358	0.113446	-450.122946	-450.114506	-450.113561	-450.157753	28.64	
C	 0.0314495047	 1.3788635015	 0.0838169114	-0.311622
N	 0.0281056291	-0.0679583743	 0.0424485415	 0.162233
N	-0.1161427241	-0.7462444139	-1.0850589885	-0.212906
C	-0.0753225473	-2.0251595046	-0.705859971	-0.153155
C	 0.1000410983	-2.0491544148	 0.6840689623	 0.404432
O	 0.2131244864	-3.1622294681	 1.4441471366	-0.217926
C	 0.0418603747	-3.0545873633	 2.7965898653	 0.111224
N	 0.2693745957	-4.0675838015	 3.5064333713	-0.426706
N	 0.1694501729	-0.8041986967	 1.1476004701	-0.344559
H	 0.9634195727	 1.738288179	 0.5266378619	 0.155723
H	-0.0561003939	 1.7307408828	-0.9428509404	 0.167725
H	-0.8115372872	 1.7425249504	 0.677270888	 0.152684
H	-0.1662693599	-2.8363122452	-1.4078804086	 0.139888
H	-0.2936412116	-2.0638602987	 3.1095082057	 0.134963
H	 0.0797247295	-3.8535372326	 4.4837247344	 0.238004
50.0653	55.2944	88.1959	151.6433	190.3621	346.8945	374.7075	451.5427	518.1472	665.6722	709.5423	723.0433	827.3027	842.4644	853.4343	1010.9294	1023.9122	1052.0783	1060.9313	1108.678	1150.7774	1197.1679	1267.1088	1359.6068	1371.4214	1406.5656	1429.5166	1450.5964	1471.6916	1476.8932	1512.6044	1567.5562	1749.1528	3057.1702	3115.4342	3124.0935	3178.0972	3288.5245	3518.0761
CN1N=CC(OC=N)=N1	Cn1ncc(O[CH][NH])n1	
InChI=1S/C4H6N4O/c1-8-6-2-4(7-8)9-3-5/h2-3,5H,1H3	InChI=1S/C4H6N4O/c1-8-6-2-4(7-8)9-3-5/h2-3,5H,1H3
