20
gdb 40002	3.4422	1.49892	1.39234	0.3201	78.47	-0.2111	0.0894	0.3005	1014.3267	0.173097	-403.09093	-403.08378	-403.082835	-403.122201	29.991	
C	 0.1197167394	 1.5294032775	-0.0202522894	-0.313628
C	 1.35992318	 0.6561302199	-0.0519998434	-0.3468
C	 0.0101432071	 0.0240106903	 0.0313239358	 0.44967
C	-0.4689163815	-0.6812296794	 1.3096640435	-0.250453
N	-1.7426041531	-1.4006167981	 1.1035541356	-0.127013
C	-2.5408291318	-0.6259298334	 0.0755930679	-0.210703
C	-1.6637409326	-1.2803600138	-1.0160976899	 0.105303
C	-1.497056096	-2.4171123768	 0.0103233969	-0.180998
O	-0.4216302794	-0.6005505295	-1.1650406852	-0.315336
H	-0.0904121925	 2.1010076945	 0.8786304498	 0.10858
H	-0.170332815	 2.0072696744	-0.9492163864	 0.118512
H	 1.8817799502	 0.5651692478	-0.9980721536	 0.12461
H	 1.9982583645	 0.6224315013	 0.8252205198	 0.113424
H	 0.2691369899	-1.4133338346	 1.6579131083	 0.108873
H	-0.5982365489	 0.0587158232	 2.1078072162	 0.10556
H	-3.5721266863	-0.9882759529	 0.0606651985	 0.10731
H	-2.5301871374	 0.4602373821	 0.1811704666	 0.118765
H	-2.0456746595	-1.4700358287	-2.0224848421	 0.075063
H	-0.5276142452	-2.9210945111	 0.0446011534	 0.10557
H	-2.3072348119	-3.1523674427	-0.0015463021	 0.103689
100.0162	251.2448	281.761	365.9154	396.2659	443.3184	469.9792	504.9487	545.7059	737.9233	766.867	803.5256	824.7242	849.8748	886.7398	904.2194	922.7505	929.9213	952.4723	977.7564	992.0914	1011.7329	1051.7799	1065.4318	1077.2745	1083.5242	1130.7955	1171.3171	1190.81	1235.4868	1241.5469	1253.8168	1257.3033	1283.3846	1303.5374	1324.5777	1369.6454	1380.493	1449.8484	1480.4272	1489.8145	1495.7552	1510.728	3025.5864	3047.2672	3063.2318	3067.0639	3079.6867	3112.2222	3123.3502	3129.1016	3129.3379	3211.2472	3225.5172
C1CC11CN2CC(C2)O1	C1CC21CN1C[C@H](C1)O2	
InChI=1S/C7H11NO/c1-2-7(1)5-8-3-6(4-8)9-7/h6H,1-5H2	InChI=1S/C7H11NO/c1-2-7(1)5-8-3-6(4-8)9-7/h6H,1-5H2
