15
gdb 125227	4.58271	1.03712	0.8502	1.8545	69.76	-0.259	-0.0386	0.2204	1295.5932	0.1124	-453.988055	-453.979437	-453.978492	-454.021942	30.583	
C	 0.0672243154	 1.4790942542	 0.0328502395	-0.491404
C	-0.0845739906	 0.0001653766	 0.0347729547	 0.448191
C	-1.134778972	-0.841807113	-0.1555933906	-0.427907
C	-0.5621086116	-2.1327735463	-0.0143114115	 0.307243
N	 0.7248739055	-2.0713445722	 0.2397895787	-0.213631
O	 1.0340388187	-0.7233653192	 0.2722496244	-0.212057
C	-1.2803787966	-3.4404363239	-0.1288941991	 0.342061
N	-0.4930634298	-4.5306969155	 0.051299089	-0.538138
O	-2.4735251809	-3.481018613	-0.3651980759	-0.359613
H	 0.7814304997	 1.7986127478	-0.732906037	 0.154282
H	-0.8947834261	 1.9531488864	-0.1686979327	 0.148263
H	 0.4371902093	 1.836283527	 0.999326931	 0.154275
H	-2.1637503156	-0.6069775401	-0.3647635318	 0.143193
H	 0.4898541072	-4.4305985722	 0.2434092321	 0.280084
H	-0.9093388526	-5.4440201667	-0.0128402709	 0.265157
64.1941	95.6555	143.5025	164.4543	235.0994	304.6922	328.2234	381.2627	515.8349	564.7128	628.2905	647.9481	669.5361	716.4553	803.8748	855.7256	950.4285	1011.9441	1018.4877	1025.9132	1066.6955	1095.8311	1121.3858	1258.0458	1337.9582	1413.5694	1473.349	1474.0527	1497.0481	1504.986	1611.3307	1638.754	1794.7734	3044.4568	3101.7136	3142.3501	3295.6493	3599.3026	3740.4965
CC1=CC(=NO1)C(N)=O	Cc1cc(no1)C(=O)N	
InChI=1S/C5H6N2O2/c1-3-2-4(5(6)8)7-9-3/h2H,1H3,(H2,6,8)	InChI=1S/C5H6N2O2/c1-3-2-4(5(6)8)7-9-3/h2H,1H3,(H2,6,8)
