19
gdb 97861	4.20022	0.72001	0.71247	1.8632	80.18	-0.2472	0.0401	0.2873	1703.6201	0.158754	-422.996523	-422.986869	-422.985925	-423.035518	32.834	
C	-0.4489970641	 1.2948729257	-0.0362919808	-0.365434
C	 0.4669970053	 0.0657845453	 0.1098244598	-0.318533
C	 1.1086072306	-0.318539797	-1.1426668291	 0.072547
C	 1.6260154174	-0.615589469	-2.1894584467	 0.099223
C	 2.2595647594	-0.9799464797	-3.4693913607	-0.037029
O	 3.6696954738	-0.9397092418	-3.3948274725	-0.229146
C	 4.0710394714	-2.2106007992	-2.8901317277	-0.104108
C	 2.8759023869	-3.1451342275	-3.2162733967	-0.104056
O	 1.9347860358	-2.2958962895	-3.8674946418	-0.229185
H	 0.1178704214	 2.1623275251	-0.3845433353	 0.131218
H	-1.24690187	 1.1008212638	-0.7579471663	 0.131213
H	-0.9061251553	 1.5441870717	 0.925738756	 0.116321
H	 1.2383729914	 0.2693166346	 0.8635380948	 0.132465
H	-0.1140247455	-0.7825821384	 0.4935156049	 0.132478
H	 1.9452838449	-0.2998943513	-4.2669968093	 0.117595
H	 4.9957211818	-2.4950067905	-3.3984160268	 0.118168
H	 4.257051556	-2.1620686222	-1.8102093032	 0.109054
H	 3.1319068163	-3.9520105686	-3.907434141	 0.118157
H	 2.4469771026	-3.5781875213	-2.3043158076	 0.109051
3.5707	35.0044	72.5211	110.5761	138.6351	223.7093	262.4664	343.833	467.5305	522.5213	555.7569	735.5097	745.6526	786.1503	822.5466	865.0162	933.7663	946.28	963.1675	990.0398	1055.976	1075.6876	1105.0187	1113.3728	1156.3264	1162.3962	1236.4313	1237.5848	1285.3249	1306.3194	1347.9598	1361.3797	1372.4615	1382.9543	1409.1422	1474.0553	1494.7597	1505.5392	1514.8553	1528.0929	2358.6133	3021.0496	3021.3727	3033.3372	3045.6051	3049.0676	3070.921	3085.167	3104.7164	3119.4458	3125.5837
CCC#CC1OCCO1	CCC#CC1OCCO1	
InChI=1S/C7H10O2/c1-2-3-4-7-8-5-6-9-7/h7H,2,5-6H2,1H3	InChI=1S/C7H10O2/c1-2-3-4-7-8-5-6-9-7/h7H,2,5-6H2,1H3
