16
gdb 69628	3.39233	1.22317	1.16477	5.4151	74.31	-0.2354	0.0155	0.2509	1091.5094	0.123796	-400.686616	-400.678899	-400.677955	-400.718558	30.486	
O	-0.082535299	 1.3870174976	 0.0492524978	-0.449856
C	-0.0045335795	 0.0120636101	 0.0159643456	 0.398409
C	-0.2669523148	-0.8096515992	-1.2162642297	-0.375336
C	-1.1545390637	-0.9598047428	 0.0026508493	-0.160437
C	-0.4992088374	-1.7695469392	 1.1655721523	 0.195949
C	 0.9252269658	-2.2212136769	 0.8961153486	-0.346993
C	 0.6773391201	-0.7758406283	 1.1773719456	-0.170637
C	-1.2468018604	-2.2463734088	 2.2769915906	 0.201868
N	-1.8700205702	-2.6322057521	 3.1742421937	-0.352127
H	 0.6896108891	 1.7493240016	-0.4008133586	 0.291089
H	-0.7477176223	-0.2314490209	-1.9999738744	 0.130124
H	 0.3844325674	-1.5928581651	-1.588359146	 0.118073
H	-2.2177223927	-0.7659628484	-0.0247287644	 0.120116
H	 1.3692186946	-2.7742753683	 1.7178547914	 0.143851
H	 1.2155950387	-2.5861933082	-0.0816360323	 0.130107
H	 1.0645073543	-0.268550521	 2.0510262506	 0.125799
110.4523	160.154	258.7436	289.573	350.6716	385.4306	451.2153	463.8787	502.5075	549.1175	596.1876	627.7543	763.7193	810.9043	839.4201	863.7804	921.5888	943.8682	981.2945	989.3739	1011.5299	1025.281	1065.2766	1094.8269	1100.8232	1170.2647	1182.6178	1222.7513	1286.3487	1299.1728	1358.7277	1413.048	1484.0232	1514.0411	2339.0049	3125.3902	3142.6691	3207.2629	3211.9114	3219.3803	3224.3105	3781.8387
OC12CC1C1(CC21)C#N	O[C@]12C[C@H]1[C@]1(C[C@@H]21)C#N	
InChI=1S/C7H7NO/c8-3-6-1-4(6)7(9)2-5(6)7/h4-5,9H,1-2H2	InChI=1S/C7H7NO/c8-3-6-1-4(6)7(9)2-5(6)7/h4-5,9H,1-2H2/t4-,5+,6-,7+/m1/s1
