18
gdb 54127	2.78069	1.29742	1.08253	0.8682	73.63	-0.2515	-0.0297	0.2218	1165.895	0.144735	-439.113373	-439.104005	-439.103061	-439.148198	34.154	
C	 0.2539144337	 1.3441090997	 0.3806133149	-0.484413
C	-0.0499831213	 0.1360427119	-0.4760104834	 0.338678
O	 0.6115290866	-0.1734792214	-1.4396237967	-0.303389
C	-1.2405517177	-0.7436702184	-0.0717322763	 0.296866
C	-2.048234707	-1.1999823231	-1.2701787986	-0.442146
C	-0.8677083364	-1.8284888895	 0.9816471161	-0.400562
C	-1.7870490811	-1.0443027182	 1.8897736481	 0.427948
N	-2.1663783944	-1.1625762466	 3.0774051588	-0.537898
O	-2.0921182449	-0.0884877389	 0.9392453633	-0.280985
H	 1.1469925003	 1.8402250164	 0.0001375934	 0.142561
H	-0.5978832537	 2.0315755051	 0.3737083937	 0.157517
H	 0.4014759387	 1.0537250435	 1.4265662456	 0.149291
H	-1.3854724169	-1.6883145027	-1.98753549	 0.154067
H	-2.8337040125	-1.8950988837	-0.9625268898	 0.125038
H	-2.5165349162	-0.3434198323	-1.7640278553	 0.134842
H	-1.2027522304	-2.8379275869	 0.7384923917	 0.146406
H	 0.1764464815	-1.8601331319	 1.2976961927	 0.145655
H	-2.8065605983	-0.4119079828	 3.3420522114	 0.230522
34.3579	77.5402	163.8227	202.5465	227.212	245.1451	308.4285	343.7194	417.0291	472.2526	497.1588	508.8755	601.8982	634.1932	768.0484	843.6322	870.6456	880.7376	942.44	956.814	983.6293	1016.2797	1030.3493	1081.1682	1117.5287	1161.2104	1196.6809	1236.3391	1289.3465	1301.6887	1384.4869	1403.1938	1452.9965	1463.7527	1469.4099	1482.1188	1493.5525	1808.994	1829.3864	3044.7264	3049.6862	3087.8865	3105.5487	3121.368	3142.403	3143.8969	3159.5185	3477.6821
CC(=O)C1(C)CC(=N)O1	CC(=O)[C@@]1(C)C[C]([NH])O1	
InChI=1S/C6H9NO2/c1-4(8)6(2)3-5(7)9-6/h7H,3H2,1-2H3	InChI=1S/C6H9NO2/c1-4(8)6(2)3-5(7)9-6/h7H,3H2,1-2H3/t6-/m1/s1
