19
gdb 35507	3.09921	1.41425	1.31112	1.0102	79.17	-0.2486	0.0496	0.2982	1048.3789	0.161703	-385.874837	-385.867357	-385.866413	-385.906771	30.255	
C	-0.1624788456	-1.252840002	-0.2441908634	-0.473493
C	-0.0936936046	-0.0596791314	-0.106416798	 0.315084
C	-0.0029021059	 1.3807128469	 0.0537525866	-0.154079
C	-0.574185599	 1.9498218	 1.4020194064	-0.246468
C	 0.6168829249	 2.8054256616	 1.8896632503	 0.082582
C	 1.7176940647	 1.8919566372	 2.4704195312	-0.217584
C	 2.2980430909	 1.264198262	 1.1668101531	-0.227716
C	 1.4449373771	 1.9716920777	 0.0938070104	 0.058849
O	 1.2042207107	 3.2616776987	 0.6598143885	-0.258547
H	-0.2273696115	-2.3050517629	-0.3706335801	 0.194616
H	-0.5225187348	 1.8599104712	-0.7820277963	 0.110626
H	-1.4577117514	 2.5640020347	 1.217576274	 0.109505
H	-0.8444334271	 1.1592820962	 2.1044353207	 0.112458
H	 0.3472252181	 3.6644224681	 2.5041604812	 0.078134
H	 2.4693206541	 2.4847001404	 2.9967121766	 0.104852
H	 1.3219349668	 1.1490465188	 3.1673106242	 0.102008
H	 3.3531508477	 1.5141063478	 1.0372068065	 0.105103
H	 2.1953609473	 0.1784664464	 1.1260535067	 0.12009
H	 1.9076627776	 2.0751444588	-0.8870992785	 0.083977
81.8573	152.8362	218.4431	325.8729	376.5679	487.695	516.731	545.4731	591.5524	627.1924	631.8892	751.2151	787.6576	813.8248	829.4186	855.9092	897.2699	942.3682	953.0464	989.1754	1008.2581	1024.4444	1048.024	1064.235	1088.6233	1125.2139	1180.0499	1210.1324	1234.5954	1269.6744	1279.2756	1293.8925	1304.8459	1327.953	1333.963	1344.0281	1364.7703	1482.6313	1492.3592	1507.6512	2231.4004	3051.8503	3065.1316	3075.379	3077.8438	3107.4728	3118.7853	3126.9341	3127.5906	3132.2964	3504.0205
C#CC1CC2CCC1O2	C#C[C@H]1C[C@H]2CC[C@@H]1O2	
InChI=1S/C8H10O/c1-2-6-5-7-3-4-8(6)9-7/h1,6-8H,3-5H2	InChI=1S/C8H10O/c1-2-6-5-7-3-4-8(6)9-7/h1,6-8H,3-5H2/t6-,7+,8-/m0/s1
