15
gdb 34514	5.16621	1.17981	1.07015	1.3792	80.41	-0.2246	-0.0405	0.1842	1091.8446	0.112113	-383.379864	-383.373064	-383.37212	-383.410945	27.648	
C	 0.0433125701	-1.2046214893	-0.0331840493	-0.402495
C	-0.0331362626	-0.0012426671	-0.0115923289	 0.192444
C	-0.0677600472	 1.4047052566	 0.0142814526	 0.169778
C	-1.1135852439	 2.2562916457	 0.0187029342	-0.225875
C	-0.49269495	 3.6292870135	 0.0511546323	-0.09128
C	 0.8092804745	 3.5807786763	-0.8286273994	 0.078996
O	 1.524737015	 4.4727489314	 0.0890536162	-0.320519
C	 0.7896765754	 3.5474404618	 0.956876478	 0.078996
C	 1.1489098867	 2.3257290688	 0.0448384654	-0.164031
H	 0.0957345039	-2.2648532733	-0.052353104	 0.191153
H	-2.1674340369	 2.0187070562	 0.0026974413	 0.120112
H	-1.0965568682	 4.5340755419	 0.0614184513	 0.085354
H	 0.9309281594	 3.7402392034	-1.902425662	 0.099535
H	 0.8876614266	 3.6666587282	 2.0382897082	 0.099535
H	 2.1588879272	 1.9226005559	 0.0484003841	 0.088294
126.361	147.4253	359.5562	440.0492	451.4871	497.0023	568.8231	581.2408	596.7212	636.5852	698.4214	710.0983	800.7778	857.9761	864.2672	881.3635	883.9658	942.0413	968.8516	992.9038	1016.2651	1113.2699	1139.7	1164.0633	1167.6911	1172.351	1196.8479	1246.301	1262.4172	1300.376	1326.5196	1631.7265	2218.8356	3094.7341	3099.0508	3153.6552	3159.8982	3239.9819	3502.5279
C#CC1=CC2C3OC2C13	C#CC1=C[C@@H]2[C@H]3O[C@@H]2[C@@H]13	
InChI=1S/C8H6O/c1-2-4-3-5-7-6(4)8(5)9-7/h1,3,5-8H	InChI=1S/C8H6O/c1-2-4-3-5-7-6(4)8(5)9-7/h1,3,5-8H/t5-,6+,7-,8+
