20
gdb 85961	3.02854	1.17549	0.98464	2.9236	75.66	-0.24	0.0367	0.2767	1268.2556	0.169272	-440.318593	-440.308644	-440.3077	-440.354897	37.033	
C	 0.1817096378	 1.646223568	-0.0030286069	-0.414899
C	 0.090669915	 0.1286399542	 0.0039777871	 0.070635
C	 1.1325054276	-0.6814072951	-0.8173541535	-0.286002
C	 1.2408484838	-1.6951128074	 0.3633382073	 0.297515
O	 2.5288064735	-2.1508939748	 0.7319308537	-0.502199
C	 0.5489258031	-0.6368097615	 1.276895541	-0.285966
C	 0.3434100084	-2.9163782048	 0.1392244231	 0.392456
N	 0.9455992193	-4.1142901131	 0.3315494425	-0.535732
O	-0.8246738708	-2.7904649159	-0.188260709	-0.384634
H	 1.188209495	 1.9856199326	 0.2705158204	 0.100737
H	-0.0479459922	 2.0535629574	-0.9939993828	 0.11688
H	-0.5230776259	 2.0899569684	 0.7090523262	 0.116887
H	-0.9125355791	-0.2035698917	-0.2684913393	 0.107042
H	 0.8289281387	-1.0744804386	-1.7891473026	 0.115188
H	 2.078033603	-0.1368884345	-0.9287066135	 0.081334
H	 3.0931005265	-1.3851433711	 0.8722057264	 0.279974
H	 1.3066920161	-0.0779721716	 1.8393889239	 0.081337
H	-0.217642671	-0.9945367693	 1.9664144615	 0.1152
H	 1.9127010006	-4.1583528916	 0.6016936546	 0.275575
H	 0.4050097307	-4.9520758097	 0.1987937097	 0.258673
7.8518	93.0475	201.9327	208.348	227.1685	253.4893	271.7736	303.9143	362.8541	408.9186	429.374	436.5363	547.4258	611.7209	628.7527	715.7168	765.5914	830.4013	834.0492	897.3541	937.4429	946.0489	1043.6762	1050.8364	1076.6353	1091.6558	1123.2009	1150.3133	1197.8089	1224.9792	1226.0416	1277.9597	1299.3253	1309.3304	1365.0293	1410.4323	1433.0053	1458.2953	1483.2484	1495.8389	1495.9867	1595.0368	1786.2024	3019.3639	3031.346	3037.7527	3077.9417	3091.7983	3102.7302	3116.9707	3122.6989	3605.9258	3748.4158	3832.1654
CC1CC(O)(C1)C(N)=O	C[C@H]1C[C@@](O)(C1)C(=O)N	
InChI=1S/C6H11NO2/c1-4-2-6(9,3-4)5(7)8/h4,9H,2-3H2,1H3,(H2,7,8)	InChI=1S/C6H11NO2/c1-4-2-6(9,3-4)5(7)8/h4,9H,2-3H2,1H3,(H2,7,8)/t4-,6+
