18
gdb 32088	2.96202	1.27264	0.94882	0.8048	82.77	-0.2223	-0.0233	0.1989	1255.9411	0.149961	-398.210557	-398.202092	-398.201148	-398.2442	31.845	
C	 0.150909051	 1.5068432778	 0.1830761026	-0.369192
C	-0.0888034156	 0.007818319	-0.0613458911	-0.269391
C	 0.6821558021	-0.5011821792	-1.2538660625	 0.324096
C	 1.7743019908	-1.3610618959	-1.1232050081	-0.205519
C	 2.4049501648	-1.7522017427	-2.2982622588	 0.015016
N	 2.0228949802	-1.341054169	-3.5039612771	-0.317293
C	 0.9693611975	-0.504381614	-3.516064404	 0.421453
N	 0.5845024789	-0.0257754252	-4.7359049009	-0.554049
N	 0.2754421442	-0.0726493114	-2.4520962371	-0.353905
H	 1.2033649151	 1.7056894527	 0.4095650463	 0.117748
H	-0.1186635315	 2.0817312481	-0.7065888272	 0.137668
H	-0.450855048	 1.8636900532	 1.0241022558	 0.112824
H	 0.1852953663	-0.5692698425	 0.8277833718	 0.0995
H	-1.1556921008	-0.1593196427	-0.2467817654	 0.117666
H	 2.1069697019	-1.7153415197	-0.1557789045	 0.093478
H	 3.2554764429	-2.4312422037	-2.2728264993	 0.109313
H	 0.9292053832	-0.516160234	-5.5437305863	 0.260914
H	-0.3266538929	 0.3967409891	-4.7907814742	 0.259672
37.9739	132.8235	188.6529	215.7326	291.597	333.2149	384.813	443.1517	468.6881	516.2992	547.3843	606.0276	711.0547	762.9322	791.8009	825.4126	842.4038	942.4582	993.7189	1003.628	1012.5279	1052.5815	1083.9387	1112.6495	1151.8939	1251.4662	1268.1109	1302.4817	1355.4983	1375.9241	1402.5828	1476.9969	1479.0907	1490.4465	1495.9856	1510.5845	1601.0766	1617.5911	1640.2199	3039.9171	3041.3346	3082.4556	3109.8875	3127.0533	3144.0558	3208.3176	3610.3942	3740.3008
CCC1=CC=NC(N)=N1	CCc1ccnc(N)n1	
InChI=1S/C6H9N3/c1-2-5-3-4-8-6(7)9-5/h3-4H,2H2,1H3,(H2,7,8,9)	InChI=1S/C6H9N3/c1-2-5-3-4-8-6(7)9-5/h3-4H,2H2,1H3,(H2,7,8,9)
