18
gdb 14354	4.22065	2.17507	1.89546	0.2096	76.92	-0.234	0.015	0.249	774.2691	0.15695	-310.599969	-310.594193	-310.593249	-310.629334	25.164	
C	-0.0687658688	 1.5500401877	 0.1062449006	-0.244237
C	 1.4516824993	 1.2842656045	 0.0536111364	-0.089265
C	 1.1920675139	 0.0911440695	 1.0560451952	-0.303172
C	 0.0890845363	-0.0106420173	-0.0405121845	 0.333191
C	-0.9178278346	-0.8713542904	-0.7348357079	-0.241104
C	-0.7511394562	-0.6955414117	-2.055581253	-0.04588
C	 0.411720455	 0.2484649645	-2.4120559485	-0.348702
C	 1.1948352225	 0.235777735	-1.0854176222	 0.043439
H	-0.4733747056	 1.9074768616	 1.0568942413	 0.086056
H	-0.5163199394	 2.0838569217	-0.7340291518	 0.091917
H	 2.2543238515	 2.0199968236	 0.1283828336	 0.067598
H	 1.9401622382	-0.7062154608	 1.0739997526	 0.093084
H	 0.8787522326	 0.3746596908	 2.0645971346	 0.089111
H	-1.709007	-1.4501066817	-0.2732172738	 0.095939
H	-1.3949565875	-1.1211984151	-2.8189999046	 0.092261
H	 1.0020248025	-0.1140908454	-3.2595743554	 0.101097
H	 0.0203443746	 1.2310060171	-2.704144645	 0.114074
H	 1.9471423058	-0.5605358536	-1.1124873274	 0.064595
252.293	308.6245	413.7808	486.9842	527.2791	583.427	653.3974	726.2182	744.3655	791.4506	831.224	874.548	893.7354	900.5466	947.1416	960.558	962.2852	981.4263	1022.2643	1046.7879	1076.8682	1107.5164	1112.2678	1131.2689	1145.7831	1163.7701	1175.3089	1202.9547	1213.3593	1238.2169	1257.5734	1289.3212	1362.3313	1406.7971	1476.8889	1500.2644	1539.4242	1620.6488	3029.602	3034.9092	3047.3228	3059.8372	3073.3812	3095.3292	3115.1341	3124.2534	3177.0178	3207.5265
C1C2CC11C=CCC21	C1[C@H]2C[C@]31C=CC[C@@H]23	
InChI=1S/C8H10/c1-2-7-6-4-8(7,3-1)5-6/h1,3,6-7H,2,4-5H2	InChI=1S/C8H10/c1-2-7-6-4-8(7,3-1)5-6/h1,3,6-7H,2,4-5H2/t6-,7-,8+/m0/s1
