17
gdb 41498	3.49976	1.77912	1.48569	2.3565	71.49	-0.2177	0.0009	0.2186	897.4437	0.139615	-417.936253	-417.930054	-417.929109	-417.966512	26.002	
C	 0.0721530511	 1.5279566009	-0.120707108	-0.147181
O	 1.5278487191	 1.3820839725	 0.0985051428	-0.270612
C	 1.2877359179	 0.1237237621	 0.6139699869	 0.383266
N	 1.7894330197	-0.4708476974	 1.6040945013	-0.28875
C	 0.7586174082	-1.3992913202	 2.1496353594	 0.000741
C	-0.4991259751	-0.5173537815	 2.4141166704	-0.180034
N	-0.9572757925	-0.762672318	 0.9867707834	-0.156959
C	-0.1594109281	-2.0693463183	 1.0980095626	-0.181888
C	-0.0971701002	-0.0095174403	 0.0604675251	-0.083508
H	-0.3647375749	 2.1422656953	 0.6707995169	 0.133726
H	-0.1415936079	 1.9408411146	-1.1074737292	 0.130344
H	 1.1896049612	-2.0086340018	 2.9438410628	 0.082587
H	-1.2267363745	-0.9772133378	 3.0870238766	 0.11618
H	-0.3280264897	 0.5236060551	 2.6986871162	 0.115746
H	 0.2845099428	-2.4246985494	 0.1647757267	 0.112545
H	-0.795841889	-2.8479394061	 1.5259117929	 0.115286
H	-0.1505314381	-0.4822677098	-0.9225462669	 0.11851
208.0096	245.7497	394.2113	416.3548	439.0605	504.6634	534.1318	668.4188	731.9643	792.6647	819.3288	845.4022	881.0785	885.9518	896.8927	940.3324	976.8363	1006.3205	1014.618	1065.6418	1105.5949	1118.8378	1136.435	1147.6903	1189.6305	1214.3905	1225.8693	1244.4555	1254.7836	1295.1682	1317.9371	1340.9306	1383.1995	1485.6806	1505.9949	1513.5898	1768.0837	3056.5366	3063.2382	3068.1342	3085.0868	3109.833	3119.4791	3124.5661	3141.1027
C1OC2=NC3CN(C3)C12	C1O[C]2[N][C@H]3CN(C3)[C@@H]12	
InChI=1S/C6H8N2O/c1-4-2-8(1)5-3-9-6(5)7-4/h4-5H,1-3H2	InChI=1S/C6H8N2O/c1-4-2-8(1)5-3-9-6(5)7-4/h4-5H,1-3H2/t5-/m0/s1
