14
gdb 19543	4.58469	1.7627	1.65546	4.8839	67.18	-0.2507	0.0103	0.261	798.736	0.10993	-341.530468	-341.524506	-341.523562	-341.560548	23.358	
N	-0.126848065	-1.1658563912	-0.0021942246	-0.363205
C	-0.0728561607	-0.0086842869	 0.0012599952	 0.119948
C	 0.0031094355	 1.3999964689	 0.0211475703	 0.288744
C	-0.7545362463	 2.4811193391	 0.7999087345	-0.134447
C	 0.5591519909	 3.1205628172	 1.245747434	-0.241901
C	 1.1876845681	 2.4525623944	-0.0123706188	-0.078448
N	 0.5356497494	 3.0846521997	-1.196614991	-0.299127
C	-0.7165211891	 2.4862293374	-0.7377479202	-0.074263
H	-1.672540916	 2.3461679666	 1.356093143	 0.115647
H	 0.6201938215	 4.213031917	 1.3089749042	 0.098706
H	 0.9264169303	 2.6702230067	 2.1706550082	 0.123631
H	 2.2497759486	 2.2330396215	-0.0872179586	 0.104592
H	 0.5445014593	 4.1057037039	-1.1534793113	 0.216458
H	-1.5996716367	 2.3978626456	-1.356691625	 0.123665
145.5799	172.744	422.5745	470.602	522.7145	557.9944	567.1052	735.5779	756.8838	817.1737	890.8879	906.4173	934.8839	958.865	968.9802	1008.5623	1023.8287	1072.8233	1087.5904	1105.7244	1131.3062	1174.966	1221.0982	1231.3359	1264.7602	1321.0144	1355.4772	1421.6719	1497.7943	2343.9183	3039.9469	3115.2799	3155.1945	3209.4472	3218.737	3424.0855
N#CC12C3CC1NC23	N#C[C@@]12[C@H]3C[C@@H]1N[C@@H]23	
InChI=1S/C6H6N2/c7-2-6-3-1-4(6)8-5(3)6/h3-5,8H,1H2	InChI=1S/C6H6N2/c7-2-6-3-1-4(6)8-5(3)6/h3-5,8H,1H2/t3-,4-,5+,6+/m0/s1
