21
gdb 70055	2.9667	1.56228	1.26189	0.4948	88.69	-0.2149	0.0201	0.235	1086.486	0.184023	-349.929345	-349.921599	-349.920654	-349.96099	32.032	
C	 0.0168509018	 1.5826880913	 0.1559299029	-0.487319
C	 0.0636384818	 0.0767840403	 0.0321754895	 0.334868
C	-0.851006908	-0.7530735359	 0.8965342218	-0.33011
C	 0.6476483321	-0.8129029668	 1.1501278103	-0.097813
C	 1.3067720958	-1.9795545914	 0.476171334	-0.239766
C	 1.288036224	-1.7969675358	-0.8455616425	 0.264498
C	 0.988828323	-2.5137539879	-2.1444279558	-0.309301
C	-0.1548490963	-1.4447588814	-2.313044714	-0.250082
C	 0.5882813332	-0.5294422699	-1.2639466713	-0.100397
H	 0.9732888569	 2.0341709291	-0.1326068019	 0.114873
H	-0.7587750189	 2.0092236613	-0.4917432434	 0.115678
H	-0.2029026145	 1.8964373496	 1.1813477872	 0.111855
H	-1.4569844807	-0.2037966567	 1.6109351377	 0.104783
H	-1.3314520411	-1.6383750022	 0.4919765786	 0.104693
H	 1.0344347753	-0.3881894819	 2.0715060226	 0.080075
H	 1.5653855799	-2.8913762037	 1.0035725338	 0.089959
H	 1.7646319187	-2.3832896635	-2.9064748518	 0.108916
H	 0.7093057688	-3.568594186	-2.0977191859	 0.107602
H	-0.2952459328	-1.0287496611	-3.3134088534	 0.099355
H	-1.1084767915	-1.8154182732	-1.9312388871	 0.110347
H	 1.2318362923	 0.1832020759	-1.7964019714	 0.067287
153.1293	199.082	214.6948	255.7342	314.3694	358.8933	455.2246	480.5795	568.6518	650.7006	675.5173	738.0498	772.3581	822.0221	829.7067	848.759	872.7442	914.7166	927.1573	957.6669	999.7162	1024.825	1035.4657	1052.9228	1070.0923	1072.4063	1083.4039	1115.5014	1126.0739	1175.578	1208.8283	1232.9357	1241.4632	1250.2194	1275.9434	1315.3274	1326.1926	1396.2387	1419.652	1470.842	1480.2141	1485.9038	1492.1371	1500.0675	1707.3686	3010.8237	3020.0065	3045.994	3064.5215	3077.0982	3095.3934	3104.5229	3117.7501	3129.3587	3151.3789	3187.7878	3202.9302
CC12CC1C=C1CCC21	C[C@]12C[C@H]1[CH][C]1CC[C@@H]21	
InChI=1S/C9H12/c1-9-5-7(9)4-6-2-3-8(6)9/h4,7-8H,2-3,5H2,1H3	InChI=1S/C9H12/c1-9-5-7(9)4-6-2-3-8(6)9/h4,7-8H,2-3,5H2,1H3/t7-,8-,9+/m1/s1
