18
gdb 74569	2.58046	1.6419	1.32789	1.4298	79.53	-0.2242	-0.0301	0.1941	1030.9338	0.14722	-401.940946	-401.932807	-401.931862	-401.973498	30.882	
C	-0.0332349339	 1.5164014694	 0.1459972072	-0.497823
C	-0.0411615199	 0.028053999	 0.0428426677	 0.341817
C	 0.0446431524	-0.7332378795	-1.0529349062	-0.189314
C	 0.0645659878	-2.1668088582	-0.6793481984	-0.078081
C	 1.2293363508	-2.6890245168	 0.1653343679	-0.106016
C	 2.5297518143	-1.9864605807	 0.2432634676	 0.150827
O	 2.7293780131	-0.8580244063	 0.6342166051	-0.282108
N	-0.0413389835	-2.258236419	 0.7761884773	-0.123777
C	-0.1142553914	-0.8597938252	 1.2684352006	-0.251093
H	 0.8667802885	 1.8564680617	 0.672252159	 0.148868
H	-0.0510779581	 1.9902693304	-0.8386248843	 0.126628
H	-0.8945141156	 1.8800730836	 0.7201801316	 0.125502
H	 0.107143852	-0.3820325395	-2.0751054694	 0.097439
H	-0.4645739271	-2.9054637371	-1.277239898	 0.103779
H	 1.3435159317	-3.7720276227	 0.1761003789	 0.10267
H	 3.3752701181	-2.6229780916	-0.1051370649	 0.077427
H	 0.6909712124	-0.6476345371	 1.9764357986	 0.140944
H	-1.0680334216	-0.7396046502	 1.7998470899	 0.112308
103.3945	149.0152	176.1112	222.4461	254.0435	311.4046	380.3018	416.3024	501.4406	599.4183	719.3069	738.3386	761.5906	812.7244	860.0578	895.4563	900.944	962.3211	978.0906	1001.0106	1016.38	1059.2686	1078.5233	1094.8175	1108.7736	1203.9291	1225.9272	1272.1174	1288.5865	1350.4992	1355.8415	1384.5791	1410.9671	1432.7118	1473.321	1479.8826	1487.272	1704.1397	1791.4238	2866.5337	3014.9582	3023.8384	3074.0944	3097.1956	3116.8629	3118.928	3133.838	3213.0575
CC1=CC2C(C=O)N2C1	CC1=C[C@H]2[C@@H](C=O)N2C1	
InChI=1S/C7H9NO/c1-5-2-6-7(4-9)8(6)3-5/h2,4,6-7H,3H2,1H3	InChI=1S/C7H9NO/c1-5-2-6-7(4-9)8(6)3-5/h2,4,6-7H,3H2,1H3/t6-,7+,8?/m0/s1
