21
gdb 39645	4.41783	0.94999	0.91631	2.0567	82.91	-0.2316	0.085	0.3166	1361.9952	0.183742	-387.003003	-386.995188	-386.994244	-387.035978	30.84	
C	-0.2269416323	 1.4446769406	-0.1567749138	-0.208095
C	 1.3243257785	 1.4582115286	-0.1126404119	-0.227969
C	 1.280611957	 0.0856043501	 0.6255738879	-0.004849
C	-0.1811794055	-0.0834385478	 0.110295056	-0.227994
C	 2.297860483	-0.9635314543	 0.239667454	 0.033029
C	 3.742989124	-1.0337506144	 0.8203880245	 0.028352
C	 3.2028610267	-1.5663590679	 2.1692181927	-0.232926
C	 2.5008979998	-2.3062956162	 1.0053902188	 0.028326
O	 3.8205481796	-2.4348504346	 0.342403497	-0.309606
H	-0.6608611607	 1.9903163641	 0.6861248819	 0.101936
H	-0.7116656097	 1.7853338534	-1.0744426015	 0.097645
H	 1.7570752212	 1.353315414	-1.1130593012	 0.100871
H	 1.8185522334	 2.2919225521	 0.3923823184	 0.095585
H	 1.2668431813	 0.2553062687	 1.7062800049	 0.067495
H	-0.9167634292	-0.5090506595	 0.7974281426	 0.095586
H	-0.2057837396	-0.6566703946	-0.8223965743	 0.100873
H	 2.3058571529	-1.1287111217	-0.842858981	 0.07537
H	 4.6015272299	-0.3902479812	 0.6234706144	 0.090483
H	 3.9107396065	-2.1754438746	 2.7322748326	 0.107595
H	 2.6179685833	-0.9025206599	 2.80852983	 0.097809
H	 1.8659281499	-3.1929304048	 1.0309295481	 0.090483
62.3198	114.5338	139.5628	244.1668	332.8389	409.7932	497.6382	580.9117	678.3932	728.6375	779.9837	815.8771	820.2083	873.5498	885.8178	899.4135	912.6687	936.3688	936.3913	954.6632	996.8726	1010.2227	1041.7178	1042.1603	1097.8221	1109.8937	1144.1422	1170.3467	1192.0999	1201.1509	1202.9495	1223.7175	1232.2344	1257.8606	1260.679	1264.9273	1276.0589	1283.9217	1287.2372	1326.0298	1423.1124	1479.0128	1486.6315	1492.8706	1510.7854	3046.5036	3049.454	3052.0832	3058.5785	3064.4733	3077.205	3097.501	3101.0121	3105.9962	3113.4259	3118.2246	3150.5578
C1CC(C1)C1C2CC1O2	C1CC(C1)[C@H]1[C@H]2C[C@@H]1O2	
InChI=1S/C8H12O/c1-2-5(3-1)8-6-4-7(8)9-6/h5-8H,1-4H2	InChI=1S/C8H12O/c1-2-5(3-1)8-6-4-7(8)9-6/h5-8H,1-4H2/t6-,7+,8+
