20
gdb 87643	2.66076	1.26268	1.08849	2.6262	81.45	-0.2459	0.0289	0.2748	1227.4273	0.169579	-403.143079	-403.133822	-403.132878	-403.176986	34.699	
C	-0.0740044945	 1.4874042591	-0.0951443006	-0.404892
C	 0.1138338341	-0.013734042	-0.0760349921	-0.078885
C	 1.5185932432	-0.6141542475	-0.0261692039	-0.36946
C	 0.6111004714	-0.7022919966	 1.1496946686	 0.44562
O	 0.8911737279	 0.0411462185	 2.3650470073	-0.278812
C	 0.3754708593	-0.9837749375	 3.1376566075	 0.434466
N	 0.2254804549	-1.0739586683	 4.3787528826	-0.550577
C	 0.0661915675	-1.8852292189	 1.9541786902	-0.229041
C	-1.3867149637	-2.3037283418	 1.7676622636	-0.405362
H	 0.6377956561	 1.9780113523	 0.5741536154	 0.133258
H	 0.0702994922	 1.8884231301	-1.1036381447	 0.119876
H	-1.0809430938	 1.7621030276	 0.2362523357	 0.122483
H	-0.6136204332	-0.5762157236	-0.6575180723	 0.092724
H	 1.7303828649	-1.5163618748	-0.5911589417	 0.117803
H	 2.3489848513	 0.0812020598	 0.0479366157	 0.126973
H	 0.5511379003	-0.2316556573	 4.8562189705	 0.226769
H	 0.7293444313	-2.7555840646	 1.9275536054	 0.109621
H	-2.0525553269	-1.4360999439	 1.7810495619	 0.127086
H	-1.5251180457	-2.8287113586	 0.8170348412	 0.118294
H	-1.6891780067	-2.9758119819	 2.5752561199	 0.142058
81.191	130.4191	166.3643	190.5666	197.7766	212.5812	266.9581	359.3666	422.1723	494.814	521.0023	552.5718	654.533	765.9862	795.2776	826.7963	867.5202	876.9339	883.4298	940.5545	978.6353	1017.1545	1042.6586	1074.9076	1096.2527	1102.002	1129.3803	1144.2699	1170.1113	1188.6036	1231.7568	1288.1329	1320.9525	1354.0312	1408.9634	1411.8657	1429.7412	1486.7838	1492.3577	1494.8439	1495.9779	1510.434	1827.9841	3036.3401	3040.87	3063.3604	3097.4595	3110.8869	3113.9271	3123.156	3124.4599	3134.3057	3212.7156	3474.5784
CC1CC11OC(=N)C1C	C[C@H]1C[C@]21O[C]([NH])[C@H]2C	
InChI=1S/C7H11NO/c1-4-3-7(4)5(2)6(8)9-7/h4-5,8H,3H2,1-2H3	InChI=1S/C7H11NO/c1-4-3-7(4)5(2)6(8)9-7/h4-5,8H,3H2,1-2H3/t4-,5+,7+/m0/s1
