21
gdb 83807	2.04203	1.81003	1.24058	1.5638	84.15	-0.2233	0.0166	0.2399	1114.1898	0.183693	-387.094404	-387.085812	-387.084868	-387.127282	33.871	
C	-0.1278679625	 1.5255859679	 0.1247655473	-0.478937
C	 0.0169269379	 0.0291939356	 0.0358383156	 0.293156
C	 0.0782500119	-0.6313916506	-1.1275599043	-0.163657
C	 0.1738920826	-2.1354815663	-1.2273561837	-0.244784
C	 0.9395999513	-2.7632695448	-0.0467479789	-0.243596
C	 0.5718542465	-2.1542229352	 1.3026490003	-0.09549
C	 1.4640304595	-1.0710371983	 1.8719377663	 0.113683
O	 2.6296533644	-0.681867365	 1.2115272958	-0.42084
C	 0.0968315835	-0.7080087287	 1.3281375741	-0.181268
H	 0.7062329682	 1.9707786055	 0.6811557243	 0.130539
H	-0.1688170624	 1.9874629184	-0.8655579293	 0.118749
H	-1.0427338232	 1.7988593578	 0.6660084651	 0.124355
H	 0.0096188336	-0.0728470508	-2.0590361583	 0.08091
H	-0.8433729855	-2.551890836	-1.2783501373	 0.110888
H	 0.6546842939	-2.4177231833	-2.1708723857	 0.09972
H	 0.7632082409	-3.8426599579	-0.0231288905	 0.097178
H	 2.0152760457	-2.6283363972	-0.2118966287	 0.112167
H	 0.1093766746	-2.8233553811	 2.0211829923	 0.081939
H	 1.6123224222	-1.0377152609	 2.9464414585	 0.099303
H	 2.3771131137	-0.3369594556	 0.3451457794	 0.281425
H	-0.6543715669	-0.4316329236	 2.0643918977	 0.084561
90.79	136.8679	192.0683	244.0492	270.5235	310.7198	350.0012	427.8831	444.1522	514.3369	590.4296	644.9423	656.6351	749.9536	775.5867	812.4851	851.6986	889.971	911.8097	979.4774	1008.6028	1023.9822	1055.673	1062.0795	1075.0643	1102.2121	1119.3573	1122.7172	1169.5756	1208.1898	1222.9386	1252.4949	1315.0665	1322.5973	1352.5977	1366.4681	1386.2014	1402.4825	1412.1503	1447.1396	1477.4657	1481.3675	1492.8438	1497.732	1718.4098	2995.3207	3017.4009	3032.0557	3055.6632	3066.2213	3079.6896	3109.4003	3126.0911	3144.2537	3149.8336	3165.1829	3751.1053
CC1=CCCC2C(O)C12	CC1=CCC[C@H]2[C@@H](O)[C@@H]12	
InChI=1S/C8H12O/c1-5-3-2-4-6-7(5)8(6)9/h3,6-9H,2,4H2,1H3	InChI=1S/C8H12O/c1-5-3-2-4-6-7(5)8(6)9/h3,6-9H,2,4H2,1H3/t6-,7+,8-/m1/s1
