18
gdb 42348	4.15976	0.96384	0.90382	4.0282	73.92	-0.2475	-0.01	0.2375	1326.7852	0.147687	-439.053002	-439.044363	-439.043419	-439.088146	30.344	
O	-0.3231622453	 0.2389501602	 0.9006328085	-0.342019
C	-0.231769875	 1.4190218582	 0.6378877457	 0.354833
C	 1.1011796738	 2.1237565651	 0.5147282359	-0.138908
C	 2.0778604154	 1.9250626837	 1.7053657707	-0.068808
O	 3.1030496484	 1.3962240303	 0.8453217527	-0.269743
C	 2.2016257349	 1.3724653265	-0.2760604912	-0.073698
N	-1.34448601	 2.2511909366	 0.5266332168	-0.083956
C	-1.7789491374	 2.9010860093	-0.6993380821	-0.235546
C	-2.5876164983	 1.8109681843	-0.0567474711	-0.217117
H	 0.9796760261	 3.1674440132	 0.2251253019	 0.087729
H	 2.3973765686	 2.8374643369	 2.2203727673	 0.106494
H	 1.7303114485	 1.1841691383	 2.4345216499	 0.121727
H	 1.9162184953	 0.3504934966	-0.5514433334	 0.119948
H	 2.6117739385	 1.8957633943	-1.147150622	 0.101444
H	-2.0876105226	 3.9386503621	-0.6069801091	 0.131425
H	-1.2517730237	 2.6574091343	-1.6188390818	 0.132609
H	-2.5885999766	 0.8297102173	-0.5231816869	 0.142146
H	-3.4879923505	 2.0665608529	 0.4938139981	 0.13144
23.0025	85.7524	101.2857	180.4338	192.0628	272.3571	297.437	400.8011	586.5628	712.8092	756.8923	812.645	821.0228	885.0558	895.3845	967.3303	974.2652	1012.6869	1047.2	1049.5626	1059.2528	1112.3965	1126.1732	1132.8273	1141.4728	1171.1568	1172.9267	1176.4644	1187.3917	1252.7365	1314.3855	1340.2488	1379.2213	1414.5555	1495.8638	1501.1877	1523.4305	1527.4309	1782.1007	3019.5341	3030.2555	3072.5537	3077.3838	3105.7551	3113.1678	3119.4698	3192.0009	3211.1394
O=C(C1COC1)N1CC1	O=C(C1COC1)N1CC1	
InChI=1S/C6H9NO2/c8-6(7-1-2-7)5-3-9-4-5/h5H,1-4H2	InChI=1S/C6H9NO2/c8-6(7-1-2-7)5-3-9-4-5/h5H,1-4H2
