12
gdb 132688	3.20209	1.42093	0.98419	0.6025	61.55	-0.2295	-0.0457	0.1839	1053.6271	0.078213	-513.97269	-513.965838	-513.964894	-514.004016	26.404	
O	 0.0918170669	 1.3685538246	 0.045338559	-0.407261
C	 0.0751495672	 0.0222755235	 0.0030950958	 0.354687
N	 0.0416535576	-0.6040176355	-1.1499715162	-0.316342
C	 0.0260115217	-1.948648099	-1.149300138	-0.173212
C	 0.0453909066	-2.6275627127	 0.0512165017	 0.291136
F	 0.03040718	-3.955318636	 0.0743356698	-0.066949
N	 0.0792285527	-2.0176909258	 1.2280584648	-0.38163
C	 0.094437382	-0.7011255282	 1.2225889876	 0.353918
O	 0.128659821	-0.028123581	 2.382733317	-0.398792
H	 0.0744635211	 1.669356139	-0.8739353014	 0.304333
H	-0.0016497749	-2.4665935436	-2.1002141052	 0.132013
H	 0.136997818	-0.6898296852	 3.0888565151	 0.3081
130.8693	245.628	304.5054	355.6172	407.6622	464.8227	501.2589	504.8635	551.918	562.0183	605.4274	677.4864	732.7856	797.6257	820.2679	886.2658	1036.8925	1139.5634	1197.3007	1280.3749	1309.4459	1372.4057	1402.6017	1490.8971	1530.0966	1617.76	1662.6013	3205.5653	3766.5554	3770.4483
OC1=NC=C(F)N=C1O	Oc1ncc(F)nc1O	
InChI=1S/C4H3FN2O2/c5-2-1-6-3(8)4(9)7-2/h1H,(H,6,8)(H,7,9)	InChI=1S/C4H3FN2O2/c5-2-1-6-3(8)4(9)7-2/h1H,(H,6,8)(H,7,9)
