15
gdb 18661	3.39461	2.36662	1.55564	3.1163	67.11	-0.211	-0.0003	0.2107	798.2603	0.121934	-362.70249	-362.696178	-362.695234	-362.732787	25.098	
O	 0.0098076605	-0.022305323	-0.1773904419	-0.373813
C	 0.0080907324	 1.1815523702	-0.0068249312	 0.418526
N	-1.176411508	 1.8841717466	 0.1409257384	-0.34519
C	-1.2962094968	 3.2739506288	 0.0667631257	-0.002006
C	-0.2358930424	 4.0819439382	-0.0254923587	-0.112432
C	 1.1367228504	 3.5341591637	 0.0213346033	-0.089643
C	 1.5923167141	 2.8193318377	 1.2698311027	-0.288326
C	 1.250918124	 2.0054641998	 0.0401204784	-0.147451
H	-2.0051664732	 1.3119371002	 0.0818791936	 0.254186
H	-2.3157540001	 3.6393803851	 0.0837698162	 0.118245
H	-0.3802331635	 5.15186765	-0.1067633	 0.099309
H	 1.8974881349	 4.0731749258	-0.5342191634	 0.097859
H	 2.6420460402	 2.868762848	 1.5348623456	 0.125652
H	 0.9085033681	 2.792353624	 2.1105641754	 0.130215
H	 2.0757980792	 1.5310042449	-0.4771335041	 0.11487
130.6924	226.7843	304.7855	431.2854	503.8951	542.1865	560.1386	608.7536	729.035	737.5568	764.2786	794.9627	829.3403	908.1896	933.5778	959.103	992.1602	1039.6896	1067.3083	1083.6873	1116.6323	1127.5224	1204.6015	1214.8851	1297.6703	1373.5189	1389.9852	1431.366	1464.6398	1481.4505	1718.1614	1791.8814	3139.7227	3156.8061	3191.1701	3198.5622	3218.1454	3231.8759	3626.7705
O=C1NC=CC2CC12	O=C1NC=C[C@H]2C[C@@H]12	
InChI=1S/C6H7NO/c8-6-5-3-4(5)1-2-7-6/h1-2,4-5H,3H2,(H,7,8)	InChI=1S/C6H7NO/c8-6-5-3-4(5)1-2-7-6/h1-2,4-5H,3H2,(H,7,8)/t4-,5+/m0/s1
