18
gdb 34425	3.09005	1.7327	1.29239	1.6804	82.5	-0.2286	0.0281	0.2567	994.4054	0.149071	-364.719014	-364.711858	-364.710914	-364.750239	29.463	
C	-0.0035181811	-1.1507364895	 0.0014090542	-0.376174
C	 0.0239070238	 0.0517010728	 0.0125569008	 0.168642
C	 0.041003187	 1.4918181691	 0.069491836	 0.247814
C	-0.9135104388	 2.166960402	 1.0601100387	-0.30521
C	-0.6447242147	 3.6489680436	 0.6996745197	-0.250388
C	 0.3892057102	 3.4402466961	-0.3938779292	 0.012364
C	 1.3763163938	 2.3012730493	-0.0364818627	-0.113671
C	 1.3675591081	 1.9605525378	-1.529558111	-0.187695
N	-0.1130661772	 2.2746132002	-1.2844359843	-0.189057
H	-0.0279310721	-2.2123150074	-0.0158669082	 0.187331
H	-1.9456786856	 1.8596880468	 0.8764380418	 0.121033
H	-0.6608070635	 1.9126924077	 2.0927580277	 0.110482
H	-1.5340428198	 4.158927404	 0.3202280138	 0.114721
H	-0.247389665	 4.2321731935	 1.5353757986	 0.104188
H	 0.7478933281	 4.3045432966	-0.9549881182	 0.075878
H	 2.2063342854	 2.3054186004	 0.679630355	 0.065525
H	 1.8457197673	 2.6638089298	-2.21647864	 0.098453
H	 1.5525381739	 0.9267196572	-1.8276933527	 0.115766
148.6886	152.7942	244.0295	356.781	429.5816	501.7908	505.3504	572.7869	631.7773	653.3332	682.8719	692.2793	738.8895	791.6729	832.6336	877.0454	916.9312	925.4659	965.5637	1005.0634	1030.7702	1054.3033	1071.5925	1112.0712	1126.2477	1149.2988	1189.1987	1197.9711	1215.4557	1243.1957	1250.2391	1274.153	1293.3042	1322.2748	1356.4721	1477.7449	1499.3847	1530.3736	2232.392	3032.8631	3058.2248	3062.8238	3069.6478	3099.299	3110.7134	3119.6805	3127.8423	3501.5708
C#CC12CCC3C1CN23	C#C[C@@]12CC[C@H]3[C@@H]1CN23	
InChI=1S/C8H9N/c1-2-8-4-3-7-6(8)5-9(7)8/h1,6-7H,3-5H2	InChI=1S/C8H9N/c1-2-8-4-3-7-6(8)5-9(7)8/h1,6-7H,3-5H2/t6-,7-,8+/m0/s1
