20
gdb 53950	2.47111	1.21334	1.18095	2.6238	74.98	-0.245	-0.0246	0.2204	1202.5142	0.167728	-440.272668	-440.262417	-440.261473	-440.308322	37.444	
C	-0.0523928751	 1.4667596551	-0.3077451508	-0.500476
C	 0.0055159956	-0.0011156566	 0.0714144028	 0.355334
O	 1.0386276819	-0.542941527	 0.3870948761	-0.307747
C	-1.3202392306	-0.8045564845	 0.0867930706	 0.190219
C	-1.6792755653	-1.0469665661	 1.5599431305	-0.389506
O	-2.4096133076	-0.0727390658	-0.4687230879	-0.462101
C	-1.1048109489	-2.1425369248	-0.629843078	 0.012712
C	-2.2543213705	-3.0097240897	-0.9656173285	-0.249496
N	-1.4897459292	-2.3343754546	-2.0366818164	-0.334461
H	 0.9026578119	 1.935295579	-0.0684483593	 0.149206
H	-0.2264617732	 1.5726252885	-1.3867719582	 0.137537
H	-0.8758709047	 1.9763438499	 0.1996078607	 0.153407
H	-1.7738360915	-0.098850623	 2.0978067779	 0.121758
H	-2.6340470799	-1.5747390317	 1.6186489986	 0.130334
H	-0.9031162746	-1.6476191747	 2.0383793416	 0.142546
H	-2.1412679486	 0.3007980192	-1.3141810757	 0.282067
H	-0.1542483201	-2.5990352768	-0.3723024337	 0.117149
H	-2.1503519843	-4.0902711464	-0.9347066061	 0.119778
H	-3.2490109553	-2.6325787583	-0.7453105058	 0.120816
H	-2.0457059702	-1.5406989817	-2.3495131085	 0.210926
29.0802	81.637	166.7031	173.1571	227.5088	237.7586	243.0409	278.8018	335.9933	351.3129	393.0378	473.6191	503.242	580.056	610.2413	689.2635	808.8889	859.2152	893.4578	938.1836	964.3868	979.3216	998.1837	1015.1691	1077.0442	1105.2258	1126.032	1160.771	1180.2283	1225.7194	1241.6342	1265.3704	1299.3876	1335.504	1376.8652	1393.3983	1403.5986	1459.7667	1473.2293	1483.3523	1492.5775	1501.4371	1808.8925	3028.1085	3048.1688	3101.518	3114.1518	3121.8661	3144.4488	3158.6686	3165.1285	3202.6954	3481.0476	3816.9909
CC(=O)C(C)(O)C1CN1	CC(=O)[C@@](C)(O)[C@H]1CN1	
InChI=1S/C6H11NO2/c1-4(8)6(2,9)5-3-7-5/h5,7,9H,3H2,1-2H3	InChI=1S/C6H11NO2/c1-4(8)6(2,9)5-3-7-5/h5,7,9H,3H2,1-2H3/t5-,6-/m1/s1
