14
gdb 133154	2.30097	1.85122	1.03234	1.9983	69.83	-0.2421	-0.0734	0.1687	1055.0053	0.099563	-477.957548	-477.949745	-477.948801	-477.990065	28.754	
C	-0.0034134342	 1.5100859496	-0.1050216633	-0.487673
C	-0.0125595212	 0.0183045637	-0.0168864918	 0.059242
C	-1.1072080815	-0.7333206269	 0.1864304309	 0.208823
F	-2.3201068255	-0.2035602873	 0.3323713968	-0.06051
C	-1.027154535	-2.1664257795	 0.2580921527	-0.06482
N	 0.0658355075	-2.8319025198	 0.1374452106	-0.054699
O	 1.2190675702	-2.0944887064	-0.0736091068	-0.289722
C	 1.2500785564	-0.7020690417	-0.1589829268	 0.364724
N	 2.3524881453	-0.1064159136	-0.3539775636	-0.519115
H	 0.6589901008	 1.9263984131	 0.6601091763	 0.16015
H	 0.4074088741	 1.8257788613	-1.0689180231	 0.160146
H	-1.0071558658	 1.9182422691	 0.0173102842	 0.135445
H	-1.9227612308	-2.7563320392	 0.4229766767	 0.155301
H	 3.1211770096	-0.7735152523	-0.4271191929	 0.232708
106.6329	141.735	162.6806	268.3788	275.4672	341.3149	476.2775	477.5575	523.0958	532.5168	655.6822	667.4442	728.7442	853.0129	854.6349	907.2495	910.131	951.5863	1020.8373	1059.6916	1166.1341	1192.8565	1245.8855	1356.8406	1378.5749	1416.418	1472.3399	1474.2044	1637.0585	1713.8685	1734.2561	3051.2177	3106.3056	3152.6077	3197.3341	3492.4947
CC1=C(F)C=NOC1=N	CC1=C(ON=C[C]1F)[NH]	
InChI=1S/C5H5FN2O/c1-3-4(6)2-8-9-5(3)7/h2,7H,1H3	InChI=1S/C5H5FN2O/c1-3-4(6)2-8-9-5(3)7/h2,7H,1H3
