18
gdb 45254	3.10815	1.60664	1.32266	3.8045	74.75	-0.2267	-0.0087	0.218	989.6713	0.149863	-401.942541	-401.935521	-401.934577	-401.974015	28.442	
O	 0.1349289571	 0.3154774696	-1.1487005005	-0.306861
C	 0.08876293	 1.2203594119	-0.3682815236	 0.433014
C	-1.0107767605	 1.8004719048	 0.5331403479	-0.357127
C	-0.1120504646	 3.0624624054	 0.7441002729	-0.025144
C	 0.3523365593	 3.4320468668	 2.1697617431	-0.235201
C	 1.6191978098	 2.626943751	 2.4070828638	-0.023419
N	 1.4287031087	 1.1766421582	 2.217271404	-0.339724
C	 2.0530658655	 1.9790950585	 1.1381989592	-0.046438
C	 1.0839257847	 2.33699275	 0.0220697813	-0.156936
H	-1.9792352273	 1.9508173646	 0.0481406461	 0.116346
H	-1.1432405951	 1.201355588	 1.4377238618	 0.145545
H	-0.4984192241	 3.9264266381	 0.2015754877	 0.080636
H	 0.5892978702	 4.5003797952	 2.2292084158	 0.101364
H	-0.415370573	 3.2235016429	 2.9225790247	 0.110745
H	 2.339014192	 2.963973322	 3.1471956264	 0.087943
H	 2.1513780114	 0.6644317595	 2.7159215111	 0.235227
H	 3.0977635832	 1.8067125101	 0.9039938124	 0.093579
H	 1.5872922726	 2.8390206534	-0.8077422641	 0.086455
86.3517	181.908	272.6657	364.8534	401.1679	431.0238	545.7651	605.1902	671.0974	704.4923	765.7814	795.6192	832.2869	856.1062	875.7734	904.2909	935.579	957.1846	995.2189	1034.5723	1044.805	1077.8009	1085.309	1104.9355	1123.1954	1165.1942	1187.7805	1203.6801	1228.03	1240.3521	1255.3534	1282.7971	1315.6555	1333.9072	1372.8181	1415.1338	1430.4713	1481.7774	1892.7811	3039.2545	3062.2096	3079.5988	3084.7281	3098.4025	3124.3159	3152.9971	3173.6696	3508.2531
O=C1CC2CC3NC3C12	O=C1C[C@H]2C[C@H]3N[C@H]3[C@@H]12	
InChI=1S/C7H9NO/c9-5-2-3-1-4-7(8-4)6(3)5/h3-4,6-8H,1-2H2	InChI=1S/C7H9NO/c9-5-2-3-1-4-7(8-4)6(3)5/h3-4,6-8H,1-2H2/t3-,4-,6-,7-/m1/s1
