18
gdb 25650	6.0274	0.73001	0.65659	2.2719	95.37	-0.1918	0.0235	0.2153	1723.4105	0.147381	-364.832433	-364.822856	-364.821911	-364.869164	33.36	
C	-0.0188140477	 1.4815587962	-0.0041211862	-0.507737
C	 0.0045269597	 0.0267807716	 0.0036727553	 0.175401
C	 0.0260018323	-1.1802415347	 0.0097022746	-0.094133
C	 0.0325242748	-2.5953555399	 0.0209158112	 0.15448
C	 1.1387596967	-3.4162719289	-0.135803478	-0.224542
N	 0.7273701701	-4.7192897863	-0.0829129269	 0.024549
C	 1.5993085413	-5.8745909826	-0.1149193971	-0.335324
C	-0.6333437731	-4.7536518875	 0.1156745568	-0.079943
C	-1.0951650099	-3.464044237	 0.1823907246	-0.303519
H	 0.5835336219	 1.8994419275	 0.8112528665	 0.142899
H	 0.3744495055	 1.8862205003	-0.9442353994	 0.142989
H	-1.0398507582	 1.8616746673	 0.1145858229	 0.145101
H	 2.1768941463	-3.1642177764	-0.2804540915	 0.118932
H	 1.9556603378	-6.1435801427	 0.8863076053	 0.14062
H	 1.0619343744	-6.7277297124	-0.5355915088	 0.141646
H	 2.463967431	-5.6655812481	-0.7492109944	 0.143068
H	-1.1507240262	-5.6970588003	 0.1905365343	 0.116228
H	-2.1195285466	-3.153454936	 0.3133059108	 0.099287
11.6809	80.7552	87.1314	95.7854	182.7594	277.1036	281.9129	364.78	446.3299	473.2181	540.1081	611.7733	657.8766	685.7818	692.2725	775.0283	818.4939	919.0275	1013.081	1042.4809	1052.0446	1052.9487	1085.5279	1108.3519	1148.5517	1217.6242	1256.3086	1371.3336	1403.8733	1405.9723	1416.1818	1455.7594	1476.8312	1479.804	1488.766	1512.8697	1546.429	1584.7016	2356.3799	3018.0443	3030.2293	3072.7318	3080.1401	3099.9284	3131.8837	3249.5696	3262.9163	3269.8125
CC#CC1=CN(C)C=C1	CC#Cc1cn(C)cc1	
InChI=1S/C8H9N/c1-3-4-8-5-6-9(2)7-8/h5-7H,1-2H3	InChI=1S/C8H9N/c1-3-4-8-5-6-9(2)7-8/h5-7H,1-2H3
