12
gdb 23625	3.88414	1.97094	1.30748	5.369	60.58	-0.2215	-0.0224	0.1991	832.6137	0.085898	-418.847108	-418.840846	-418.839902	-418.877634	23.588	
F	 0.0551235944	 0.0681659913	 0.0027949324	-0.066201
C	-0.0572188291	 1.389043991	 0.0114029695	 0.407041
N	-1.1950153629	 1.9407415682	 0.0298798476	-0.39453
C	-1.2602603343	 3.3592163146	 0.0385167671	 0.335345
N	-2.3648779718	 4.0023786696	 0.0570060294	-0.534947
C	 0.0208723347	 4.0712520268	 0.0249975763	-0.127229
C	 1.1770882534	 3.3940079976	 0.005632072	-0.005933
N	 1.1576297056	 2.0033979877	-0.0016860188	-0.378876
H	-3.138159837	 3.3344623487	 0.0638596257	 0.217309
H	 0.0042945678	 5.1522727377	 0.0311103734	 0.126128
H	 2.1579460173	 3.8497848992	-0.0051788123	 0.142384
H	 1.998624442	 1.4511645475	-0.0160653223	 0.279511
125.6155	208.7061	364.8264	374.8985	446.5175	516.9685	532.0709	555.2652	688.6475	747.0639	766.922	829.4111	907.2842	949.2111	965.7279	1007.2567	1063.211	1163.4977	1213.7211	1289.429	1339.9578	1425.5055	1513.629	1655.1371	1712.0256	1745.833	3224.5038	3243.3093	3465.3407	3663.5102
FC1=NC(=N)C=CN1	FC1=NC(=CCN1)[NH]	
InChI=1S/C4H4FN3/c5-4-7-2-1-3(6)8-4/h1-2H,(H2,6,7,8)	InChI=1S/C4H5FN3/c5-4-7-2-1-3(6)8-4/h1,6H,2H2,(H,7,8)
