16
gdb 74067	3.56728	1.18403	0.89889	7.1223	75.28	-0.2453	-0.0494	0.1959	1244.8224	0.123746	-437.959547	-437.951063	-437.950119	-437.992992	30.245	
C	-0.0126507304	 1.4614115789	 0.1012611284	-0.489995
C	-0.0002433559	-0.0248090068	-0.0258269315	 0.309957
C	-0.0307641647	-0.7759399108	-1.1319733855	-0.316057
C	-0.0036336121	-2.2186480088	-0.798277329	 0.449849
O	-0.0183001448	-3.1663393337	-1.5374323621	-0.33676
N	 0.0478491183	-2.2609957815	 0.6289355005	-0.157831
C	 0.0526215209	-0.9160344551	 1.189760329	-0.263515
C	 0.0897801194	-3.3877493674	 1.4340802206	 0.164165
O	 0.0895949072	-4.5309537961	 1.0652122111	-0.271893
H	 0.8796880977	 1.8180465978	 0.6299275139	 0.143321
H	-0.0482126105	 1.9441940553	-0.8774661934	 0.144623
H	-0.8786164529	 1.7985312215	 0.6839161603	 0.143512
H	-0.0703701273	-0.438440809	-2.1582263628	 0.129295
H	 0.9566892949	-0.7278665726	 1.7851751788	 0.138411
H	-0.811037553	-0.7476807776	 1.8477937688	 0.138382
H	 0.124773553	-3.097390674	 2.505824483	 0.074535
77.5484	134.2175	177.4758	197.4074	207.2533	254.1123	287.3217	441.7264	456.8452	499.5524	591.2212	736.4877	753.189	794.0391	881.7292	897.2764	978.4486	1012.5114	1031.8402	1080.8163	1137.6665	1167.3648	1205.1029	1217.4882	1264.7523	1332.82	1383.4607	1415.8415	1455.8139	1478.1318	1481.0034	1494.7251	1700.6131	1799.2199	1873.7036	2902.2853	3007.4167	3027.753	3036.3902	3076.7749	3129.5891	3239.1967
CC1=CC(=O)N(C1)C=O	CC1=CC(=O)N(C1)C=O	
InChI=1S/C6H7NO2/c1-5-2-6(9)7(3-5)4-8/h2,4H,3H2,1H3	InChI=1S/C6H7NO2/c1-5-2-6(9)7(3-5)4-8/h2,4H,3H2,1H3
