14
gdb 45040	2.56122	1.80431	1.15742	3.346	63.05	-0.2738	-0.0233	0.2504	990.7796	0.102853	-473.890276	-473.883327	-473.882383	-473.922003	26.432	
O	 0.0546084794	-0.0535673267	 0.0139709437	-0.357416
C	 0.0176734945	 1.1439129924	 0.0178833009	 0.479942
N	-1.1746829412	 1.8552377667	 0.1391277555	-0.423131
C	-1.3980246213	 3.2272826741	 0.0269453357	 0.437701
O	-2.5139051832	 3.6753382379	-0.0862419538	-0.344943
C	-0.1543048478	 4.0366068634	 0.0616201534	-0.188546
C	 0.7434882793	 3.9205511829	 1.2972440957	-0.326159
C	 1.147588479	 3.2819685459	 0.0148808075	 0.119237
O	 1.1464026519	 1.8777483004	-0.1088234788	-0.23925
H	-2.0015189515	 1.2726878077	 0.1482289831	 0.278641
H	-0.2391431555	 4.9986332275	-0.4268475125	 0.133439
H	 1.2648551838	 4.8156755054	 1.6147896763	 0.144188
H	 0.4026605374	 3.2764019773	 2.1002084279	 0.150286
H	 1.9744939354	 3.687585385	-0.5538597445	 0.136012
107.612	129.9634	218.8597	381.8677	396.9468	509.1515	514.3384	534.2426	667.0902	709.0973	757.5002	766.4735	789.6729	823.7171	871.0928	937.4339	1002.2156	1029.2229	1050.8112	1067.3363	1123.0149	1170.0535	1231.1466	1235.6858	1338.7863	1382.1941	1413.5097	1420.7469	1479.0225	1823.9717	1867.2373	3145.3049	3198.638	3206.2716	3238.8992	3608.2792
O=C1NC(=O)C2CC2O1	O=C1NC(=O)[C@H]2C[C@H]2O1	
InChI=1S/C5H5NO3/c7-4-2-1-3(2)9-5(8)6-4/h2-3H,1H2,(H,6,7,8)	InChI=1S/C5H5NO3/c7-4-2-1-3(2)9-5(8)6-4/h2-3H,1H2,(H,6,7,8)/t2-,3+/m0/s1
