20
gdb 15874	2.16374	2.08404	1.20758	2.9884	75.53	-0.241	-0.0207	0.2203	1059.1041	0.175821	-349.010252	-349.001415	-349.000471	-349.04376	32.527	
C	-1.0770513305	 0.6779053306	-1.3905016183	-0.419928
C	 0.0540199894	-0.2300180701	-0.926095973	 0.037772
C	 1.4936980119	-0.0114841978	-1.4596508828	-0.250886
C	 2.0367270598	-0.4217530527	-0.0661277107	 0.037771
C	 3.2778629313	 0.2567427353	 0.4982768428	-0.419931
C	 0.6135170508	-0.1302921229	 0.5431819228	-0.129601
C	 0.4786907993	 1.2341163496	 1.1582169598	 0.167559
O	 0.0230509059	 1.4450534934	 2.2554491343	-0.262166
H	-0.8230949073	 1.7376578219	-1.2873584188	 0.117461
H	-1.3036842534	 0.4966392245	-2.4468611521	 0.11871
H	-1.9932948132	 0.4970393868	-0.8181042388	 0.12567
H	-0.2337271139	-1.2742541888	-1.0881991454	 0.084616
H	 1.8134425893	-0.5949821666	-2.3269349166	 0.09792
H	 1.6864817014	 1.0472016049	-1.6681171739	 0.098819
H	 2.1783419876	-1.5075118067	-0.0419939664	 0.084615
H	 3.2041235468	 1.3481888837	 0.4593612487	 0.117462
H	 3.4481815098	-0.0292556236	 1.5418517098	 0.125665
H	 4.1656325255	-0.032267842	-0.0748342009	 0.118712
H	 0.2310459841	-0.8574291383	 1.2628535582	 0.080522
H	 0.8337265454	 2.0828119688	 0.5292373613	 0.069239
62.5649	92.4762	190.6869	221.1627	227.4783	287.8746	306.7923	356.6161	451.9541	457.9336	458.3003	610.3033	740.028	862.0018	873.5136	904.2542	952.0039	965.2071	972.672	1019.9502	1045.181	1107.8583	1144.5088	1152.7003	1168.4387	1185.5437	1243.6667	1258.7561	1270.6182	1277.4542	1336.2474	1356.4324	1393.85	1414.241	1416.6268	1440.6542	1493.056	1494.9145	1499.3708	1501.6772	1503.8339	1819.4875	2856.6335	3031.2906	3031.4862	3038.4545	3043.7236	3047.0587	3088.7599	3095.8519	3096.1024	3096.9224	3104.3961	3107.056
CC1CC(C)C1C=O	C[C@H]1C[C@@H](C)[C@H]1C=O	
InChI=1S/C7H12O/c1-5-3-6(2)7(5)4-8/h4-7H,3H2,1-2H3	InChI=1S/C7H12O/c1-5-3-6(2)7(5)4-8/h4-7H,3H2,1-2H3/t5-,6+,7-
