20
gdb 112856	2.94933	1.1594	0.94711	3.0814	73.97	-0.2369	0.0711	0.308	1268.7624	0.172336	-440.261313	-440.252595	-440.251651	-440.294852	33.433	
O	-0.0827904188	 1.4283196076	-0.06440771	-0.423088
C	 0.0010485629	 0.0095979382	-0.0611288561	-0.089134
C	-1.4136303827	-0.5439838883	 0.0380998015	 0.026797
C	-2.3227512508	-0.1653851111	-1.1549399878	-0.256671
C	-3.3396300954	-1.3269348986	-1.3272124075	 0.149055
O	-3.7469835692	-1.5373283235	-2.6664851742	-0.442947
C	-2.6393084139	-2.5278490196	-0.7106826742	-0.079419
N	-1.2725831576	-2.682355958	-1.2686316327	-0.353549
C	-1.4720149967	-2.0652360788	 0.0675253133	-0.066326
H	 0.7981220844	 1.7817328583	-0.2170898433	 0.286332
H	 0.4690170825	-0.3701430969	-0.9820560604	 0.099356
H	 0.6029148297	-0.3489455704	 0.790969124	 0.076528
H	-1.85630013	-0.1742208965	 0.9724783163	 0.081085
H	-2.8130223664	 0.7992963108	-1.0191982107	 0.110954
H	-1.7238877588	-0.0973516191	-2.0681255428	 0.106318
H	-4.2618420285	-1.1224453658	-0.7716076948	 0.086129
H	-2.9583802458	-1.834151508	-3.1374945965	 0.2838
H	-3.2046357752	-3.4166747326	-0.4507272267	 0.087634
H	-0.9725695613	-3.645873482	-1.1447576844	 0.232531
H	-1.1182626085	-2.6051286257	 0.940910677	 0.084617
86.3445	107.6042	147.6519	204.5838	260.9283	320.9287	379.7547	422.8497	434.7656	482.9447	561.0453	615.9826	668.6632	806.1785	841.3929	882.7579	895.8377	916.2364	934.9913	1003.2164	1018.1917	1060.9371	1069.5977	1082.4117	1093.0545	1111.4815	1127.0998	1167.4679	1199.6563	1240.2786	1256.7841	1257.7156	1278.7597	1308.8648	1332.5915	1336.6758	1352.5743	1377.8254	1427.9052	1439.2283	1456.0476	1484.9471	1523.5704	2956.4962	3000.9392	3028.1447	3049.4465	3066.9818	3126.6222	3151.9759	3169.8051	3505.6458	3780.1878	3832.1424
OCC1CC(O)C2NC12	OC[C@H]1C[C@@H](O)[C@H]2N[C@@H]12	
InChI=1S/C6H11NO2/c8-2-3-1-4(9)6-5(3)7-6/h3-9H,1-2H2	InChI=1S/C6H11NO2/c8-2-3-1-4(9)6-5(3)7-6/h3-9H,1-2H2/t3-,4-,5+,6-/m1/s1
