17
gdb 15178	8.53224	0.648	0.62922	2.4943	75.52	-0.2316	0.0366	0.2682	1738.5231	0.141553	-363.798803	-363.78971	-363.788766	-363.834496	31.055	
O	-0.0635644868	 1.3771533853	 0.094949983	-0.414519
C	-0.0495223547	-0.0323621176	 0.2394233833	-0.062456
C	-1.3487459974	-0.5564573453	-0.3835102679	-0.325502
C	-1.4700001016	-2.0055483625	-0.2999219388	 0.02294
C	-1.5434881309	-3.2065031309	-0.217006578	 0.108864
C	-1.6598037684	-4.6358358027	-0.1454430505	-0.158053
C	-1.5566519083	-5.3290059872	 1.1745538377	-0.226702
N	-2.8503886259	-5.2566112465	 0.4898980789	-0.306792
H	 0.7485715595	 1.7282147194	 0.4710416857	 0.289747
H	 0.8105825669	-0.4876285039	-0.2736642227	 0.099195
H	-0.0034988732	-0.3345511959	 1.2964323787	 0.09664
H	-2.1936321557	-0.0725670779	 0.1218805957	 0.138201
H	-1.3878928106	-0.2290492684	-1.4296512882	 0.139794
H	-1.3242583101	-5.176066255	-1.0272052157	 0.114852
H	-1.1150680259	-6.3206685357	 1.2182473005	 0.123764
H	-1.3862354975	-4.7091073321	 2.0497286534	 0.120901
H	-3.4155115595	-4.5199781428	 0.9059733251	 0.239127
20.3026	75.78	81.4684	144.028	198.5395	240.8047	317.7827	363.1379	430.0582	528.2963	548.2821	734.6412	791.8357	812.8591	882.7509	961.6049	991.7936	1002.0852	1080.7079	1086.0024	1087.682	1120.9243	1156.4376	1216.7897	1221.3815	1238.3633	1257.6257	1299.203	1303.325	1333.227	1397.9018	1454.1232	1475.4612	1503.7922	1527.8812	2360.6141	2983.2914	3014.1095	3030.2068	3067.5186	3112.8854	3136.2666	3203.271	3503.7465	3835.8845
OCCC#CC1CN1	OCCC#C[C@H]1CN1	
InChI=1S/C6H9NO/c8-4-2-1-3-6-5-7-6/h6-8H,2,4-5H2	InChI=1S/C6H9NO/c8-4-2-1-3-6-5-7-6/h6-8H,2,4-5H2/t6-/m0/s1
