15
gdb 19538	4.61659	1.76777	1.6695	1.8683	73.11	-0.2344	0.0226	0.257	818.5001	0.119557	-325.423843	-325.41746	-325.416516	-325.454118	25.547	
C	-0.0733457627	-1.1940512311	-0.0952395117	-0.350518
C	-0.0425620969	 0.006957052	-0.0178865749	-0.011673
C	 0.0378554228	 1.411667482	 0.0847901051	 0.346382
C	-0.7014466967	 2.4487840624	 0.8647163921	-0.085205
C	 0.5913692207	 3.1464527045	 1.2795133094	-0.245986
C	 1.2236724077	 2.4720535064	 0.0338464206	-0.133363
C	 0.4289506164	 3.1027191366	-1.1171798933	-0.152861
N	-0.8193816147	 2.4237562705	-0.6311209403	-0.181354
H	-0.1117958507	-2.2526214165	-0.1669818681	 0.181569
H	-1.626962118	 2.335437199	 1.4133549687	 0.113213
H	 0.6120801333	 4.2404341994	 1.3250396789	 0.099894
H	 0.9723252107	 2.7257203862	 2.2129922777	 0.115615
H	 2.2895032999	 2.2633311317	-0.0206012765	 0.086787
H	 0.3718229777	 4.1963247215	-1.1659668643	 0.099564
H	 0.6773660906	 2.6955455154	-2.0996972033	 0.117936
141.5256	165.115	401.2035	412.4017	488.6148	537.3733	563.6632	589.889	667.4679	717.4653	743.7737	832.6096	848.8732	912.6091	929.1316	970.9454	988.2927	996.7952	1043.0661	1074.2366	1104.5572	1126.4664	1157.8676	1193.0678	1228.7537	1249.4238	1283.5511	1308.5614	1393.3842	1491.8234	1513.026	2232.9578	3036.3993	3048.02	3111.3498	3113.8664	3147.2393	3211.6488	3502.4695
C#CC12C3CC1CN23	C#C[C@@]12[C@H]3C[C@@H]1CN23	
InChI=1S/C7H7N/c1-2-7-5-3-6(7)8(7)4-5/h1,5-6H,3-4H2	InChI=1S/C7H7N/c1-2-7-5-3-6(7)8(7)4-5/h1,5-6H,3-4H2/t5-,6-,7+,8?/m1/s1
