21
gdb 122125	3.07807	0.65651	0.56612	1.8562	75.84	-0.251	-0.0239	0.2271	1924.3788	0.17932	-461.359378	-461.348179	-461.347234	-461.397329	38.301	
O	 0.0740967905	 1.4162076737	-0.1901962197	-0.416752
C	 0.0160265202	 0.0188921431	 0.038884778	-0.057814
C	-1.3968837797	-0.5492809813	-0.1043874103	-0.208026
C	-1.4409584625	-2.0735093333	 0.0535309665	-0.220333
C	-2.8671162728	-2.6636291396	-0.0066106919	-0.102992
C	-2.8335415431	-4.190690276	-0.1521040648	-0.081857
O	-4.1218455309	-4.7750319529	-0.071607245	-0.414252
C	-3.6238122751	-2.2976366109	 1.2574269394	 0.182993
O	-4.4954195649	-1.4715733111	 1.331141185	-0.255022
H	-0.4728392148	 1.846867218	 0.4746982863	 0.282621
H	 0.6789789492	-0.4294878793	-0.7100860015	 0.110553
H	 0.4270361704	-0.2437579497	 1.0280102066	 0.085945
H	-2.0531241519	-0.0792539138	 0.6405686675	 0.106853
H	-1.7910158837	-0.2625620106	-1.0865167345	 0.112358
H	-0.8358207094	-2.5418344285	-0.7336184104	 0.107084
H	-0.973847739	-2.3652213159	 1.0052779918	 0.104162
H	-3.4091159969	-2.2218640226	-0.852719983	 0.086991
H	-2.3167059885	-4.4596056473	-1.0859928565	 0.098401
H	-2.2593777713	-4.6311091597	 0.6717233665	 0.116473
H	-4.6591048492	-4.4187619631	-0.7870058546	 0.28852
H	-3.2770383465	-2.8518910691	 2.1625052646	 0.074093
48.1861	54.4765	78.2598	104.2407	125.8821	152.4182	216.1475	268.923	297.0365	310.0487	320.9321	360.3676	464.4776	529.2067	550.8753	747.7509	829.6538	873.2432	956.6852	996.6792	1009.6578	1030.1525	1069.3946	1073.9079	1082.6523	1118.0666	1127.5617	1174.2398	1201.4615	1255.5812	1287.8105	1315.2958	1327.1035	1351.4381	1377.3811	1385.3154	1403.3664	1412.6347	1426.1687	1430.8188	1484.3916	1495.1885	1506.9011	1516.4597	1835.7583	2847.1578	2965.9116	2987.8852	3005.51	3020.6701	3032.0135	3041.7292	3056.3196	3065.4966	3078.7186	3812.5046	3814.0838
OCCCC(CO)C=O	OCCC[C@@H](CO)C=O	
InChI=1S/C6H12O3/c7-3-1-2-6(4-8)5-9/h4,6-7,9H,1-3,5H2	InChI=1S/C6H12O3/c7-3-1-2-6(4-8)5-9/h4,6-7,9H,1-3,5H2/t6-/m1/s1
