15
gdb 15785	4.64125	1.20413	1.05374	4.9492	61.38	-0.2868	0.032	0.3188	1079.1138	0.117814	-399.781122	-399.77295	-399.772006	-399.814523	28.706	
O	 1.0119499228	 1.5056895017	-0.4155587298	-0.417149
C	 0.0411002785	 0.5986463967	 0.0711636396	 0.112626
C	-0.073288083	-0.647718518	-0.8354698028	-0.39429
C	-0.2614040075	-0.2949336867	-2.2390858523	 0.276244
N	-0.4266461659	-0.0327863267	-3.3517442765	-0.300877
C	 0.3621723335	 0.2502815274	 1.5128232675	 0.048002
C	 0.1472579149	-1.0528696917	 2.151450209	-0.180841
O	 1.4493345392	-0.6667634286	 1.7012461628	-0.238745
H	 1.8800020034	 1.1025318453	-0.2902147128	 0.296443
H	-0.9065104591	 1.1477923289	 0.0426642898	 0.115635
H	 0.8355326104	-1.2509760457	-0.7294304229	 0.164202
H	-0.917017057	-1.2716366444	-0.5214597793	 0.151893
H	 0.4149269642	 1.1307352165	 2.1538358217	 0.116052
H	 0.0234487045	-1.0966934306	 3.232056632	 0.128866
H	-0.3108971389	-1.873461054	 1.604078434	 0.121936
58.2552	76.5235	135.7905	231.3587	250.4205	370.7732	396.8817	402.6593	465.5536	547.0709	613.3552	790.1619	860.0116	885.321	947.2678	963.0683	1002.9304	1077.6228	1099.3601	1120.6187	1170.1188	1173.2182	1199.6991	1274.0396	1297.0822	1318.4241	1380.1975	1415.3757	1436.3625	1471.5261	1532.8175	2368.9654	3045.592	3060.2983	3091.4202	3098.4999	3114.9521	3184.5468	3786.0598
OC(CC#N)C1CO1	O[C@@H](CC#N)[C@H]1CO1	
InChI=1S/C5H7NO2/c6-2-1-4(7)5-3-8-5/h4-5,7H,1,3H2	InChI=1S/C5H7NO2/c6-2-1-4(7)5-3-8-5/h4-5,7H,1,3H2/t4-,5+/m0/s1
