20
gdb 110339	2.91784	1.19891	1.02879	2.3531	80.4	-0.2253	-0.0199	0.2053	1264.8351	0.169401	-403.122573	-403.113325	-403.112381	-403.156911	34.158	
C	-0.3997031901	 1.3984800096	-0.1805218029	-0.374899
C	 0.2042705412	 0.0436176241	 0.1767204745	-0.129286
N	 0.7318853865	-0.5991349862	-1.0309986591	-0.079434
C	 1.0347003556	-1.9935505625	-1.1394113949	-0.043068
C	-0.1072743393	-1.3653050785	-1.9482463993	-0.186889
C	-1.0647984068	-2.2694184753	-1.1985266077	 0.40727
O	-2.2157134829	-2.5655415005	-1.3544817291	-0.319554
C	 0.0708607517	-2.8966292818	-0.3376112199	-0.147808
C	 0.2003750172	-4.3981186306	-0.5911114617	-0.409455
H	 0.3386888366	 2.0296823751	-0.6824103362	 0.127754
H	-1.2569757395	 1.2781860401	-0.8505518127	 0.128147
H	-0.7462136467	 1.9123088553	 0.7209252427	 0.116455
H	 1.05538249	 0.1767114477	 0.8544704496	 0.10901
H	-0.5411321509	-0.5622369121	 0.710576739	 0.103578
H	 2.0044705007	-2.2968555069	-1.5204784046	 0.1078
H	-0.171423724	-1.0571013988	-2.9862441702	 0.110312
H	 0.0338836281	-2.6935850512	 0.7367915305	 0.096152
H	 0.2749949691	-4.616243253	-1.661773384	 0.123608
H	 1.0915148591	-4.8016893776	-0.1002657873	 0.120838
H	-0.675620906	-4.924811567	-0.2030004667	 0.139469
54.6055	101.8956	152.4488	205.7516	208.8817	236.0824	262.2981	321.4011	422.0686	463.9371	571.7729	640.6777	708.9324	747.8781	806.2152	820.0596	875.6804	887.6538	931.2468	939.7603	1015.7495	1042.8101	1045.6779	1097.0324	1100.5212	1108.9458	1129.8219	1172.2081	1217.0896	1235.0878	1261.8738	1306.6376	1335.0986	1355.5155	1387.2084	1408.6834	1413.9154	1489.6028	1494.1665	1495.1264	1497.49	1512.2623	1873.8774	3001.535	3036.5337	3042.6492	3057.6683	3062.3216	3104.6815	3113.2977	3118.5514	3123.1799	3165.2337	3177.2467
CCN1C2C1C(=O)C2C	CCN1[C@@H]2[C@H]1C(=O)[C@H]2C	
InChI=1S/C7H11NO/c1-3-8-5-4(2)7(9)6(5)8/h4-6H,3H2,1-2H3	InChI=1S/C7H11NO/c1-3-8-5-4(2)7(9)6(5)8/h4-6H,3H2,1-2H3/t4-,5-,6-,8?/m0/s1
