16
gdb 19748	3.59712	2.30234	2.1905	3.2459	66.74	-0.2312	-0.0046	0.2266	715.6423	0.134229	-346.634534	-346.62893	-346.627986	-346.664011	23.406	
O	-0.0011053794	 0.0043849109	 0.0047647085	-0.346437
C	-0.0305686624	 1.2056676793	 0.0107004469	 0.449958
C	-1.2001702503	 2.1448054641	 0.0304641271	-0.176023
C	-0.6949990102	 3.3799159812	 0.7800235787	-0.055131
C	 0.7458919456	 3.0936166424	 1.2146286439	-0.231865
C	 1.1397930543	 2.2160609566	-0.0000771015	-0.160964
C	 0.7140925839	 3.1047423388	-1.1958175403	-0.231865
C	-0.714797404	 3.3868425658	-0.7207293331	-0.055131
H	-2.2292725757	 1.8172965136	 0.0425272155	 0.103214
H	-1.3775695016	 3.9785252133	 1.3682937918	 0.095674
H	 1.34961282	 4.0038619833	 1.2931208475	 0.102973
H	 0.8078956304	 2.5488007142	 2.162003246	 0.111239
H	 2.1346669349	 1.7795310338	-0.015216455	 0.084472
H	 1.315642911	 4.0157472979	-1.2818041027	 0.102973
H	 0.7510172018	 2.5687011775	-2.1494862076	 0.111239
H	-1.4125759581	 3.9907720873	-1.2852394156	 0.095674
159.4932	376.147	419.463	467.5518	577.1568	640.5084	711.6358	790.2353	811.8086	837.7385	845.317	872.5273	916.1582	931.8501	938.251	940.9745	994.2632	1035.2554	1069.9487	1071.6738	1074.1309	1128.3755	1152.2432	1167.209	1209.8216	1253.286	1280.8545	1284.7726	1306.8464	1324.6024	1383.4102	1493.6175	1510.4423	1867.6778	3042.8346	3046.2479	3089.9154	3091.7915	3162.3965	3200.7925	3208.7265	3231.7536
O=C1C2C3CC1CC23	O=C1[C@H]2[C@H]3C[C@@H]1C[C@@H]23	
InChI=1S/C7H8O/c8-7-3-1-4-5(2-3)6(4)7/h3-6H,1-2H2	InChI=1S/C7H8O/c8-7-3-1-4-5(2-3)6(4)7/h3-6H,1-2H2/t3-,4+,5-,6+
