14
gdb 133604	3.24103	1.26821	1.11804	3.8924	54.89	-0.2362	0.0142	0.2504	1044.8737	0.09943	-564.386613	-564.378982	-564.378037	-564.419667	27.669	
F	 0.0625668522	 0.1209214107	-0.1617417282	-0.080848
C	-0.0166344405	 1.4491466929	 0.0029109358	 0.275635
F	 1.2177814306	 1.9473697651	-0.0607175938	-0.064918
F	-0.71274185	 1.9404102173	-1.0426490583	-0.091364
C	-0.7136027297	 1.8136330729	 1.3062158743	-0.093275
C	-2.1703931097	 1.260214187	 1.3699300069	-0.214664
N	-2.1918897171	 0.7048785592	 2.7301020102	-0.298735
C	-0.8793763812	 0.634938329	 3.1493161714	 0.072242
N	 0.0044729351	 1.2425778024	 2.4550481558	-0.254685
H	-0.6958787162	 2.9079765445	 1.3661619252	 0.11396
H	-2.9229709653	 2.0409438907	 1.2438865657	 0.126783
H	-2.3409149815	 0.4853155012	 0.6135955551	 0.126729
H	-2.814452319	-0.0613245017	 2.9383698541	 0.249787
H	-0.6486838277	 0.1120292389	 4.073095096	 0.133353
72.7521	76.4479	185.8026	258.3653	345.5154	396.7822	468.9634	505.9728	538.087	572.3543	697.3352	743.4903	831.5273	891.4323	965.4685	978.7753	1002.5204	1033.6833	1062.9174	1137.3788	1159.7538	1207.9702	1225.4887	1285.0511	1292.3097	1304.9597	1349.0087	1400.115	1452.3284	1519.6751	1689.8547	3039.8384	3045.4586	3102.6396	3188.7906	3615.8562
FC(F)(F)C1CNC=N1	FC(F)(F)[C@H]1CN[CH][N]1	
InChI=1S/C4H5F3N2/c5-4(6,7)3-1-8-2-9-3/h2-3H,1H2,(H,8,9)	InChI=1S/C4H5F3N2/c5-4(6,7)3-1-8-2-9-3/h2-3H,1H2,(H,8,9)/t3-/m1/s1
