18
gdb 117470	5.9747	0.61995	0.6023	1.8461	70.76	-0.234	-0.0385	0.1955	1834.7175	0.144393	-476.244072	-476.23369	-476.232745	-476.282208	34.487	
C	 0.1772523322	 0.7219867813	-0.5099724155	-0.320821
N	-0.5216610412	 0.3425306038	 0.7168491572	-0.258917
C	-1.689118496	-0.4778363783	 0.4930913662	-0.288125
C	-1.3939130965	-1.9121729592	 0.0564801006	 0.434704
O	-0.3154327107	-2.4432232829	 0.1146782096	-0.348231
O	-2.5256178173	-2.5238980188	-0.3760466764	-0.24234
C	-2.4243683344	-3.8968773418	-0.7648918105	-0.174153
C	-3.2815587537	-4.7517599931	 0.151183893	 0.146206
O	-3.6674495672	-5.8507386188	-0.1412298968	-0.225716
H	 1.060744366	 1.3111854983	-0.2495298633	 0.124537
H	 0.5019222622	-0.1284665373	-1.1295330645	 0.113897
H	-0.4777432575	 1.3583740277	-1.1158685916	 0.121065
H	 0.1191401302	-0.160796389	 1.3218356567	 0.229869
H	-2.2845201953	-0.5479475663	 1.4136143202	 0.136898
H	-2.3418304939	-0.0120029185	-0.2529206321	 0.137621
H	-2.7665397226	-3.996983167	-1.7980747469	 0.14891
H	-1.3806519908	-4.2235358337	-0.6954826183	 0.173212
H	-3.5124727937	-4.2753636663	 1.1305840622	 0.091383
18.5986	47.1107	73.7188	77.7327	130.4115	174.4649	242.421	310.3324	330.4368	350.8112	435.4718	563.8662	577.6044	677.4344	736.4507	780.8472	897.6478	953.2497	996.1455	1044.179	1047.4241	1117.913	1147.0444	1156.1832	1187.5056	1210.677	1264.632	1309.0377	1340.0148	1372.0434	1410.3111	1444.6183	1454.1166	1462.9412	1489.219	1503.2316	1526.75	1824.381	1844.8848	2887.2347	2984.2812	3025.0342	3054.2318	3062.9797	3082.2446	3108.8562	3116.2197	3528.4002
CNCC(=O)OCC=O	CNCC(=O)OCC=O	
InChI=1S/C5H9NO3/c1-6-4-5(8)9-3-2-7/h2,6H,3-4H2,1H3	InChI=1S/C5H9NO3/c1-6-4-5(8)9-3-2-7/h2,6H,3-4H2,1H3
