20
gdb 119596	4.09357	1.00166	0.90537	0.6511	81.38	-0.2192	0.0145	0.2337	1360.8481	0.170946	-403.113507	-403.104836	-403.103892	-403.147321	32.436	
C	 0.0981801813	 1.4134306719	-0.0110473305	-0.220442
O	 0.205666403	 0.0125966544	 0.0689080783	-0.239097
C	 0.5202873471	-0.5849873978	-1.1729557403	-0.15713
C	 0.5409706379	-2.0790782818	-0.9791963542	 0.300358
C	 1.7907447301	-2.8136047967	-0.6301904376	-0.268705
N	 1.2438935348	-2.9064681394	-1.9903982562	-0.153788
C	 0.3925792145	-4.0957428963	-2.2295060172	-0.212896
C	-0.7998980839	-3.9427393939	-1.3094768495	-0.093278
C	-0.7193201831	-2.8005479106	-0.6284333435	-0.132691
H	 1.0431057242	 1.8782134457	-0.3346384318	 0.104271
H	-0.692294052	 1.7240133268	-0.7129155258	 0.10388
H	-0.1515276532	 1.7806781143	 0.9874234832	 0.126396
H	-0.2328408727	-0.3118102762	-1.9320824166	 0.087867
H	 1.4994752485	-0.2424585248	-1.543128555	 0.094838
H	 2.7370354578	-2.2818351196	-0.5656710494	 0.112065
H	 1.6954860558	-3.6715340987	 0.0317038083	 0.110291
H	 0.094811932	-4.1186589801	-3.2865336253	 0.113426
H	 0.9633945099	-5.0146157729	-2.0433049709	 0.113589
H	-1.5846706421	-4.6855959816	-1.2247879472	 0.099865
H	-1.4308975199	-2.414228953	 0.089383161	 0.111181
63.8968	93.5346	128.1675	223.3161	275.1138	280.5428	342.9248	378.8888	460.1689	508.0946	682.7863	748.5544	762.7588	777.2327	846.6723	918.6106	921.4821	959.1339	968.5478	980.7182	998.1597	1023.7488	1078.1119	1107.4759	1118.5026	1152.9727	1160.459	1183.8192	1215.3435	1223.9903	1230.085	1276.8082	1332.1369	1357.0209	1373.8719	1423.6905	1481.1938	1484.7039	1486.2067	1499.9968	1505.2908	1525.1429	1671.1229	2953.6555	2970.657	2997.3322	3010.189	3012.6331	3042.2505	3094.324	3113.0361	3183.4676	3196.8686	3231.0385
COCC12CN1CC=C2	COC[C@]12CN1CC=C2	
InChI=1S/C7H11NO/c1-9-6-7-3-2-4-8(7)5-7/h2-3H,4-6H2,1H3	InChI=1S/C7H11NO/c1-9-6-7-3-2-4-8(7)5-7/h2-3H,4-6H2,1H3/t7-,8?/m0/s1
