17
gdb 75632	2.05831	1.85494	1.19726	1.984	69.65	-0.2444	-0.0297	0.2147	1067.9597	0.132108	-458.94686	-458.937406	-458.936462	-458.981044	34.041	
C	 0.0571276315	 1.5363927975	 0.0361087232	-0.510584
C	-0.073454231	 0.0543865731	 0.1244658145	 0.308316
O	 0.9832298455	-0.8137340088	-0.2643220462	-0.304433
C	 0.5212191089	-0.929695897	 1.1034590752	 0.210584
C	 1.5018615082	-0.8132344722	 2.2197289908	-0.513901
C	-0.7791714008	-1.6957026028	 1.0344187621	 0.338097
O	-1.3650997721	-2.4084195178	 1.8023928691	-0.32073
C	-1.340028567	-0.8001908296	-0.1150660772	-0.032059
O	-2.5560682766	-0.2035676801	 0.2559275329	-0.438222
H	 0.9898350721	 1.8801447491	 0.4906374477	 0.134196
H	 0.0459662266	 1.8576994219	-1.0110374219	 0.143003
H	-0.789614623	 2.0060911572	 0.5437147089	 0.151211
H	 2.125893189	 0.0758433103	 2.095233947	 0.138314
H	 0.9774440173	-0.7514829887	 3.1776040014	 0.144746
H	 2.158517614	-1.6886558472	 2.2484838798	 0.147732
H	-1.3731794033	-1.2311621919	-1.1224283331	 0.101796
H	-3.0066470893	-0.8173904531	 0.8502870059	 0.301934
61.8728	148.4443	180.4725	186.4303	194.1558	201.5667	247.1153	282.3711	411.2372	419.5224	514.3177	524.9414	564.8212	677.483	713.5607	751.4321	828.2825	876.3955	954.5395	986.3876	1069.3345	1077.1062	1106.3446	1150.5564	1188.4432	1225.794	1297.7442	1334.2746	1359.7832	1404.3453	1412.1967	1461.7867	1472.2265	1483.4557	1487.0013	1497.4221	1864.9605	3040.1916	3041.7579	3043.5686	3108.8599	3110.7623	3125.619	3131.7753	3768.2039
CC12OC1(C)C(=O)C2O	C[C@@]12O[C@]1(C)C(=O)[C@H]2O	
InChI=1S/C6H8O3/c1-5-3(7)4(8)6(5,2)9-5/h3,7H,1-2H3	InChI=1S/C6H8O3/c1-5-3(7)4(8)6(5,2)9-5/h3,7H,1-2H3/t3-,5+,6-/m1/s1
