13
gdb 23915	3.37137	1.6607	1.46744	1.7678	46.87	-0.2586	0.0702	0.3287	844.9843	0.09149	-530.088964	-530.081637	-530.080693	-530.120898	27.085	
O	 0.262169986	 1.3855629399	 0.1541197049	-0.422358
C	 0.0746297076	 0.0124737932	 0.0642871866	 0.151957
C	-0.4405587032	-0.8289055081	 1.1957382494	-0.343117
C	-1.2843446387	-0.6484527378	-0.0577409643	-0.231392
C	-2.5439415461	 0.1531960298	 0.0203255794	 0.299012
F	-2.431200294	 1.1912443969	 0.8916486483	-0.109731
F	-2.8783943209	 0.6762351261	-1.1661453364	-0.068875
F	-3.5849690458	-0.5823168361	 0.4352343421	-0.073561
H	-0.4760487764	 1.7716777868	 0.6372459186	 0.293059
H	 0.8530063097	-0.4162539178	-0.5576855933	 0.121427
H	-0.0063952235	-1.80392322	 1.3849141652	 0.12736
H	-0.780163064	-0.3055229182	 2.083293737	 0.13404
H	-1.3844223205	-1.4832761649	-0.7429870076	 0.122179
69.3999	179.0818	222.0764	306.8432	353.0233	380.3782	445.6632	495.6231	529.1822	599.04	695.4188	767.7062	794.1051	835.8732	963.3417	1030.3645	1038.0604	1072.9599	1122.032	1133.0552	1164.4867	1200.7319	1238.8914	1260.05	1358.3469	1421.6891	1450.4241	1490.5445	3138.9511	3170.9449	3178.5978	3228.4872	3823.9354
OC1CC1C(F)(F)F	O[C@H]1C[C@H]1C(F)(F)F	
InChI=1S/C4H5F3O/c5-4(6,7)2-1-3(2)8/h2-3,8H,1H2	InChI=1S/C4H5F3O/c5-4(6,7)2-1-3(2)8/h2-3,8H,1H2/t2-,3+/m1/s1
