18
gdb 117012	4.84325	0.56403	0.51003	2.7473	82.72	-0.253	-0.0173	0.2357	2129.8364	0.144976	-439.05334	-439.04266	-439.041716	-439.09157	35.875	
C	 0.0630599958	 1.5123353147	-0.1652726373	-0.391411
C	 0.0146011389	 0.0024922774	-0.0271608636	-0.03624
O	 0.6746548305	-0.5531170168	-1.1777486825	-0.233306
C	 0.7335178767	-1.8953102802	-1.2391189935	 0.229196
N	 0.2354017245	-2.6404634369	-0.3333903138	-0.547641
C	 1.4104006273	-2.3457800846	-2.4231786238	-0.012065
C	 1.9677753043	-2.7853731804	-3.3964720766	 0.217885
C	 2.6486993231	-3.2817564376	-4.584238429	-0.225194
O	 2.6310226658	-4.7015146145	-4.5875181585	-0.406615
H	 1.096589576	 1.8677546743	-0.2044045914	 0.12853
H	-0.4469389317	 1.8372889899	-1.0765159673	 0.128579
H	-0.4306820591	 1.9789885697	 0.6922547815	 0.120613
H	 0.5220854413	-0.3463328827	 0.8782285841	 0.122076
H	-1.0119923989	-0.3762156316	 0.0126703284	 0.122226
H	 0.3824658702	-3.6208860707	-0.5618203729	 0.235379
H	 2.1482118379	-2.8681624612	-5.4751482274	 0.127048
H	 3.6789127413	-2.8893447956	-4.5884862307	 0.127
H	 3.086312876	-4.9935540431	-5.3838482557	 0.29394
14.938	64.1905	79.6686	93.1497	162.0106	181.2869	229.4969	258.3791	260.0954	382.7853	386.5892	418.8691	540.5503	619.8219	727.7538	807.4939	819.5405	851.0192	884.1189	1018.6219	1019.7725	1055.0739	1105.7739	1132.7223	1137.975	1181.9916	1244.2827	1253.1166	1289.2971	1359.9436	1406.7972	1433.4428	1458.5591	1485.5465	1496.4083	1496.4991	1519.7561	1679.0572	2360.078	2964.9234	2984.0227	3046.1757	3048.0623	3084.7578	3120.7168	3125.5206	3525.2871	3821.2086
CCOC(=N)C#CCO	CCO[C]([NH])C#CCO	
InChI=1S/C6H9NO2/c1-2-9-6(7)4-3-5-8/h7-8H,2,5H2,1H3	InChI=1S/C6H9NO2/c1-2-9-6(7)4-3-5-8/h7-8H,2,5H2,1H3
