15
gdb 109497	2.22593	1.71056	1.00657	2.0768	62.47	-0.2555	-0.0564	0.1991	1118.4071	0.110807	-494.931281	-494.922838	-494.921894	-494.965066	29.6	
C	 0.0004901855	 1.5108620568	-0.0862512702	-0.249931
O	 0.109336537	 0.1061205222	 0.1218037618	-0.22923
C	 0.5472943995	-0.6030565182	-0.983768699	-0.128827
C	 1.0136194181	-2.0170668035	-0.6383628932	 0.34703
O	 1.5515670404	-2.394647473	 0.361462578	-0.271129
C	 0.6315351899	-2.8765489556	-1.8436245248	-0.19171
O	-0.3178024843	-2.1092901873	-2.5972268009	-0.21552
C	-0.4977048304	-0.8594823393	-2.0815387252	 0.414302
O	-1.3475952596	-0.1202386939	-2.4776512821	-0.318508
H	 0.9733654896	 1.9388213542	-0.3708085792	 0.110636
H	-0.7394373244	 1.7455649745	-0.8569581146	 0.151445
H	-0.3105148309	 1.9380439798	 0.8685579867	 0.139376
H	 1.4055747013	-0.1128761529	-1.4871263345	 0.126776
H	 1.5080363144	-3.0955296204	-2.4644701107	 0.153484
H	 0.1756203639	-3.8200282634	-1.5315749719	 0.161804
62.7767	110.2581	166.4832	174.3535	200.9526	284.4026	326.9429	434.0631	500.2076	556.7116	604.3353	644.0883	711.5308	807.0754	919.1073	974.0772	1036.576	1069.3469	1106.4673	1152.2141	1177.2406	1180.4142	1213.7186	1227.4431	1252.6411	1346.68	1372.597	1478.6049	1483.3649	1484.5608	1514.1605	1868.3773	1906.2578	2908.7348	2996.5034	3046.7159	3090.8425	3106.087	3141.7868
COC1C(=O)COC1=O	CO[C@H]1C(=O)COC1=O	
InChI=1S/C5H6O4/c1-8-4-3(6)2-9-5(4)7/h4H,2H2,1H3	InChI=1S/C5H6O4/c1-8-4-3(6)2-9-5(4)7/h4H,2H2,1H3/t4-/m0/s1
