15
gdb 51915	3.5833	0.62647	0.55378	4.7572	71.54	-0.2545	-0.031	0.2234	1872.3826	0.109253	-453.942466	-453.932815	-453.931871	-453.979576	31.584	
O	 0.7469037606	 0.0798991345	-1.0025861353	-0.231492
C	 0.300317224	 1.1359750914	-0.6432980155	 0.156332
C	 1.1543297091	 2.2517724685	-0.0479591068	-0.241177
N	 0.4936873544	 3.5297032042	-0.1859424686	-0.211463
C	 1.132101733	 4.470099291	-0.7157617395	 0.138798
O	 0.546634018	 5.6883699905	-0.8484362588	-0.189444
C	 1.3160106658	 6.681552997	-1.504726901	-0.213512
C	 1.3813052994	 6.4801534575	-2.9606876413	 0.262101
N	 1.442489899	 6.3153946517	-4.1020311271	-0.281187
H	-0.782903249	 1.3778267661	-0.6994815907	 0.100624
H	 1.2509396743	 2.0181811999	 1.0235318356	 0.145421
H	 2.1626260992	 2.1968734356	-0.4859735929	 0.120052
H	 2.164026559	 4.4142262559	-1.0919362501	 0.101641
H	 0.824506681	 7.6339779841	-1.2935730003	 0.181479
H	 2.3372120824	 6.730827812	-1.1051231178	 0.161827
34.1114	42.2769	65.938	118.275	165.2473	227.0142	258.3105	354.8793	366.0793	415.8625	452.1558	568.5945	668.1088	743.4376	913.72	974.3591	1003.8138	1039.8644	1045.9934	1086.9514	1122.9093	1196.064	1236.9768	1303.0717	1327.7491	1389.6605	1402.856	1420.9595	1458.6838	1476.0905	1783.1057	1842.1323	2365.7686	2909.6025	2983.9176	3014.723	3026.6935	3034.9473	3115.801
O=CCN=COCC#N	O=CCN=COCC#N	
InChI=1S/C5H6N2O2/c6-1-4-9-5-7-2-3-8/h3,5H,2,4H2	InChI=1S/C5H6N2O2/c6-1-4-9-5-7-2-3-8/h3,5H,2,4H2
