18
gdb 113647	3.49832	0.90795	0.84876	1.2334	77.17	-0.2373	-0.0999	0.1374	1422.2365	0.144983	-439.070825	-439.061313	-439.060368	-439.106055	33.436	
C	-0.1760308008	 1.6534875321	-0.7125786418	-0.376523
C	-0.427739623	 0.1495903261	-0.6302912487	-0.134413
N	 0.8143262519	-0.5646987756	-0.9442295015	-0.076028
C	 1.7223194125	-0.870605831	 0.1270873365	-0.237681
C	 0.9831235827	-1.9865789997	-0.5663484597	-0.126315
C	-0.0483645285	-2.7248662196	 0.2020415538	 0.284121
O	-0.7076888637	-2.2897970735	 1.1262742721	-0.308811
C	-0.300908829	-4.1811871711	-0.2164787493	 0.095469
O	 0.2935103206	-4.7473786953	-1.0951892022	-0.218017
H	 0.5501835033	 1.9723016926	 0.0422598741	 0.119631
H	 0.2132226198	 1.9300220347	-1.6963088505	 0.128148
H	-1.1058931141	 2.2023919108	-0.5368787819	 0.118247
H	-0.8313508014	-0.1197326847	 0.3535621187	 0.128212
H	-1.1680402021	-0.1480294557	-1.3816634625	 0.106223
H	 2.782416535	-0.7525364492	-0.0819111186	 0.128871
H	 1.4110493405	-0.6559370291	 1.1487186734	 0.134515
H	 1.4919186316	-2.5834910724	-1.315231282	 0.125013
H	-1.0911909951	-4.6609170893	 0.3988103899	 0.109337
45.6086	89.3712	123.7102	159.7767	187.8579	220.7804	255.4889	282.3183	398.6778	437.3627	527.748	620.5211	656.9	727.8679	788.7132	817.2991	885.2391	938.1484	1007.2572	1029.6719	1043.1357	1094.0616	1117.5319	1122.3331	1142.6929	1169.5012	1206.8252	1310.6263	1324.0209	1364.0119	1385.6894	1408.5132	1411.512	1488.1025	1488.4606	1499.7489	1519.765	1768.3374	1823.6133	2925.4433	3027.1788	3040.5556	3068.0272	3092.0128	3110.7493	3122.3409	3177.355	3187.9217
CCN1CC1C(=O)C=O	CCN1C[C@H]1C(=O)C=O	
InChI=1S/C6H9NO2/c1-2-7-3-5(7)6(9)4-8/h4-5H,2-3H2,1H3	InChI=1S/C6H9NO2/c1-2-7-3-5(7)6(9)4-8/h4-5H,2-3H2,1H3/t5-,7?/m0/s1
