17
gdb 74737	2.37827	1.88073	1.38195	2.5746	72.74	-0.2257	-0.0245	0.2012	980.7855	0.13672	-421.846832	-421.83945	-421.838505	-421.878632	28.964	
C	-0.0107240809	 1.4888296467	 0.0832425175	-0.508585
C	-0.0652436899	 0.0031242784	-0.0140136954	 0.334154
C	-0.0425720719	-0.8178174355	-1.0686129228	-0.198459
C	 0.0277931133	-2.2392460482	-0.5097399129	 0.016243
C	 1.4656046551	-2.4609271497	 0.032706264	-0.337188
C	 1.4447207701	-1.446105842	 1.1959138814	 0.425598
O	 2.3409813098	-1.1139637559	 1.9214971341	-0.321075
C	-0.0244960693	-0.9392497594	 1.1961213058	-0.139937
O	-0.7048990688	-2.103095897	 0.7242091397	-0.245634
H	 0.8801430189	 1.8098463605	 0.6369474816	 0.147901
H	 0.0159133713	 1.9556101778	-0.904729422	 0.131737
H	-0.877822216	 1.8819618102	 0.6278117163	 0.136344
H	 0.0101342363	-0.5558986497	-2.1169742313	 0.108523
H	-0.390519768	-3.0432460965	-1.1133212339	 0.090402
H	 1.5901897472	-3.470650968	 0.435418872	 0.134589
H	 2.2716860508	-2.2591716191	-0.674483915	 0.128186
H	-0.409957768	-0.5873339825	 2.1508106609	 0.097201
108.348	160.849	183.8386	299.7355	396.4662	428.6959	472.1528	565.0458	587.6003	635.2475	650.5177	781.7664	819.7325	832.7052	867.1983	904.6345	938.8829	946.8319	974.4524	1014.2438	1056.8415	1063.6097	1098.1282	1127.0393	1176.0807	1197.6026	1226.72	1254.0429	1292.4849	1314.6195	1331.8597	1413.3138	1454.8161	1478.2848	1486.1652	1695.3411	1862.608	3023.6771	3067.221	3073.66	3116.1848	3127.9858	3131.6525	3150.4875	3223.7003
CC1=CC2CC(=O)C1O2	CC1=C[C@H]2CC(=O)[C@@H]1O2	
InChI=1S/C7H8O2/c1-4-2-5-3-6(8)7(4)9-5/h2,5,7H,3H2,1H3	InChI=1S/C7H8O2/c1-4-2-5-3-6(8)7(4)9-5/h2,5,7H,3H2,1H3/t5-,7+/m0/s1
