14
gdb 127287	5.42009	1.33854	1.08077	2.2904	70.72	-0.2314	-0.0174	0.214	1044.3843	0.104021	-432.88293	-432.876022	-432.875078	-432.916211	25.219	
C	 0.0286117003	 1.3817709027	 0.0836510253	-0.312821
N	 0.0199059325	-0.061916852	-0.0168434842	 0.043761
C	-0.1767976626	-0.8059521869	-1.1476174563	-0.178455
C	-0.0803761631	-2.1217227311	-0.7314513159	 0.170028
N	-0.1272435266	-3.4724000849	-1.0800874974	-0.343863
C	 0.0882791346	-4.064572628	 0.0464438811	 0.048397
O	 0.2834268831	-3.2675702488	 1.1628558861	-0.208262
C	 0.1706148415	-2.0184306748	 0.6378831991	 0.428247
N	 0.2407383125	-0.794391544	 1.1180631999	-0.39608
H	 1.0101234454	 1.7347271661	 0.4117957812	 0.153088
H	-0.1977422211	 1.8030007677	-0.8969807287	 0.141565
H	-0.7245822216	 1.7128961728	 0.8031100709	 0.154552
H	-0.3592695142	-0.3347732432	-2.0990788502	 0.146463
H	 0.1369732592	-5.1264792757	 0.2325073489	 0.15338
10.4523	153.6221	278.5204	309.5687	359.996	548.7973	583.6633	604.472	629.2938	758.3434	771.0187	790.0028	848.9924	857.0904	925.1992	987.7071	1049.3128	1079.1904	1150.8118	1165.7685	1190.3729	1310.97	1330.3065	1439.9791	1466.9089	1470.0856	1471.0147	1516.78	1528.7094	1563.2125	1644.7151	3050.672	3117.8518	3149.1193	3272.676	3274.6547
CN1C=C2N=COC2=N1	Cn1cc2ncoc2n1	
InChI=1S/C5H5N3O/c1-8-2-4-5(7-8)9-3-6-4/h2-3H,1H3	InChI=1S/C5H5N3O/c1-8-2-4-5(7-8)9-3-6-4/h2-3H,1H3
