21
gdb 62792	2.89292	1.28297	1.15102	2.1293	78.99	-0.2385	0.0706	0.3091	1178.5664	0.179784	-424.19674	-424.187217	-424.186272	-424.229884	37.748	
C	-0.0580609124	 1.5843476765	-0.0488214928	-0.463434
C	 0.0704164554	 0.0818192145	 0.0613701797	 0.394521
O	-1.0943443448	-0.5992933574	-0.3610981702	-0.475835
C	 1.323390418	-0.7150067861	-0.2011613627	-0.118797
C	 2.5753689719	-0.015080169	 0.3314539257	-0.325746
C	 1.9493140959	-0.0585595634	 1.7782210394	 0.383603
C	 2.6867348571	-1.0210241908	 2.7054366298	-0.441391
O	 1.7239119298	 1.1828669963	 2.4299434587	-0.471631
C	 0.676819921	-0.6784742341	 1.2043901629	-0.107089
H	 0.7900591623	 2.1061101357	 0.3923531428	 0.139822
H	-0.1499293728	 1.8831011359	-1.1015678791	 0.093535
H	-0.9614114119	 1.9103552416	 0.475685722	 0.12586
H	-1.2129184891	-0.4107693835	-1.2985805868	 0.278473
H	 1.3089536092	-1.5334878272	-0.9105643835	 0.082465
H	 3.4845892998	-0.6165021826	 0.2509505778	 0.097881
H	 2.7785988945	 0.9836230485	-0.0655788433	 0.09502
H	 3.6825222561	-0.6311524444	 2.95244347	 0.102559
H	 2.1256887616	-1.1518922242	 3.6361780485	 0.124685
H	 2.8185822672	-2.0008478775	 2.2378040989	 0.124178
H	 2.5549135514	 1.4670635569	 2.8261347801	 0.274287
H	 0.0873434099	-1.4399809257	 1.7021527422	 0.087034
143.0867	172.0919	212.466	242.6955	268.4109	278.9635	286.5302	300.1883	354.5082	406.7642	415.3662	452.3696	476.758	558.3303	629.9072	678.983	821.6565	838.7769	867.9247	920.8569	938.3132	954.2326	979.0109	997.9905	1015.7214	1024.1034	1094.9764	1106.014	1121.4245	1143.9561	1196.8476	1226.4247	1237.028	1245.8714	1278.7325	1306.5266	1384.5433	1403.492	1417.6761	1442.6821	1481.2829	1488.4522	1490.9185	1496.0533	1506.1838	3020.2672	3020.7439	3050.8193	3090.6642	3093.5184	3101.0553	3116.54	3158.9253	3175.731	3187.3224	3796.5316	3798.7971
CC1(O)C2CC(C)(O)C12	C[C@@]1(O)[C@H]2C[C@@](C)(O)[C@@H]12	
InChI=1S/C7H12O2/c1-6(8)3-4-5(6)7(4,2)9/h4-5,8-9H,3H2,1-2H3	InChI=1S/C7H12O2/c1-6(8)3-4-5(6)7(4,2)9/h4-5,8-9H,3H2,1-2H3/t4-,5-,6+,7+/m0/s1
