19
gdb 41662	3.34276	1.87332	1.86422	1.6472	75.81	-0.2301	0.0938	0.3239	849.5127	0.164727	-385.902878	-385.897143	-385.896199	-385.932581	25.583	
C	-0.0237422996	 1.5503105306	 0.044209712	-0.080318
O	 1.3481920352	 1.9808787681	 0.0066286366	-0.284367
C	 2.1395767086	 0.7935818827	-0.0802218967	 0.118444
C	 1.9870578033	 0.1347907674	-1.4537397377	-0.077902
C	 1.7290458082	-1.3429033494	-1.2477797906	-0.079505
C	 1.870923609	-1.630260732	 0.2418409829	-0.246408
C	 1.373690361	-0.2725029694	 0.7433543695	-0.069574
C	 0.0529549545	 0.017035244	-0.0259981257	-0.063625
C	 0.5600137206	-0.3962111408	-1.4139231732	-0.056702
H	-0.4877016274	 1.9034553478	 0.9754337857	 0.092027
H	-0.5745066423	 1.9835922406	-0.8000686927	 0.095437
H	 3.1552935765	 1.039465047	 0.2325638725	 0.072662
H	 2.4340853839	 0.5415248618	-2.3503918279	 0.085334
H	 1.9757001036	-2.0683522587	-2.0121686466	 0.083191
H	 1.2434955055	-2.4636505288	 0.5769000475	 0.097091
H	 2.904391348	-1.8361724627	 0.5417465765	 0.097637
H	 1.3514089656	-0.1020161637	 1.8189919728	 0.068516
H	-0.8419913023	-0.4991223614	 0.3266224952	 0.065169
H	-0.077393742	-0.4003599633	-2.28836237	 0.082891
248.82	358.5144	378.4898	458.7055	588.553	636.0408	702.1164	776.0395	810.842	814.2623	841.3014	887.108	915.2828	923.2846	941.9923	948.2987	959.1625	981.0284	992.746	1001.525	1012.3077	1050.6446	1069.0445	1072.1448	1077.7732	1094.3681	1146.8079	1182.8482	1223.5829	1230.8954	1257.2735	1271.2383	1280.5584	1288.7414	1304.4593	1333.9673	1342.0081	1381.3586	1398.5757	1499.1178	1526.6804	3003.3075	3037.1239	3042.1312	3077.884	3095.5098	3108.0095	3128.7137	3193.6783	3198.8348	3213.2565
C1OC2C3C4CC2C1C34	C1O[C@@H]2[C@H]3[C@H]4C[C@@H]2[C@@H]1[C@@H]34	
InChI=1S/C8H10O/c1-3-5-2-9-8(3)7-4(1)6(5)7/h3-8H,1-2H2	InChI=1S/C8H10O/c1-3-5-2-9-8(3)7-4(1)6(5)7/h3-8H,1-2H2/t3-,4+,5-,6+,7+,8+/m1/s1
