23
gdb 68587	2.01907	1.83771	1.54092	1.2547	84.66	-0.2507	0.0699	0.3205	1057.4082	0.205975	-388.292242	-388.283288	-388.282344	-388.324685	36.626	
C	-0.0436892628	 1.5116231532	 0.0201329758	-0.507411
C	-0.0088027639	 0.0021689738	-0.0032012747	 0.325549
C	 0.3550930628	-0.8131852606	-1.2885896439	-0.269737
C	-0.388840903	-1.9578784698	-0.5417189914	-0.089602
C	 0.5647478705	-2.216134833	 0.6400679855	-0.227733
C	 0.8499117781	-0.7309491766	 1.0490702656	-0.261136
C	-1.3355143365	-0.8394579072	 0.0147083297	 0.427051
C	-2.1284423708	-1.0469972096	 1.2983348861	-0.483971
O	-2.204366275	-0.3039112669	-0.9806081375	-0.494249
H	 0.9459769668	 1.9314292968	-0.1936807843	 0.109745
H	-0.7463741073	 1.8947442109	-0.7252751959	 0.131183
H	-0.3545281273	 1.8881455711	 1.0021207432	 0.108297
H	-0.1721420606	-0.462939322	-2.1726431473	 0.111546
H	 1.4182546694	-0.9625763312	-1.4999107014	 0.076963
H	-0.7946114875	-2.8256897337	-1.0659928908	 0.046184
H	 0.1108593065	-2.8026752795	 1.443539123	 0.09259
H	 1.4692318511	-2.7417196213	 0.3208933573	 0.096077
H	 1.9067405046	-0.4642224233	 0.9527545407	 0.093946
H	 0.5474402657	-0.5020571209	 2.0752573321	 0.091831
H	-1.5256262197	-1.4217459553	 2.1275272497	 0.120938
H	-2.5902798082	-0.1034680916	 1.605690042	 0.12552
H	-2.936244781	-1.7711682143	 1.1300654998	 0.102446
H	-2.922782262	-0.9315772087	-1.1104718532	 0.273973
182.3672	199.3838	210.3107	230.2345	263.3653	270.8065	317.3043	348.4232	418.5574	460.0184	467.7475	538.4246	605.1144	652.4795	686.5947	798.0801	841.7221	852.513	902.5788	917.7603	937.196	949.8521	972.8623	1000.8727	1003.2072	1065.8908	1071.0506	1113.244	1150.1991	1161.2678	1185.3408	1193.1148	1225.8795	1236.3424	1257.0229	1265.8896	1270.4077	1316.5742	1325.1448	1383.6568	1404.5367	1412.5263	1481.2744	1484.4428	1491.798	1494.3318	1498.4137	1508.3364	1523.9703	3022.8311	3024.4391	3047.2071	3056.0624	3059.3395	3080.5425	3082.5158	3088.7695	3091.2931	3100.2925	3109.8996	3129.4698	3163.4715	3807.9706
CC12CC(CC1)C2(C)O	C[C@@]12C[C@@H](CC1)[C@]2(C)O	
InChI=1S/C8H14O/c1-7-4-3-6(5-7)8(7,2)9/h6,9H,3-5H2,1-2H3	InChI=1S/C8H14O/c1-7-4-3-6(5-7)8(7,2)9/h6,9H,3-5H2,1-2H3/t6-,7+,8+/m1/s1
