18
gdb 119329	5.33219	1.02731	0.9944	1.2475	75.27	-0.2134	0.0613	0.2746	1244.4914	0.146449	-401.805068	-401.79701	-401.796066	-401.83851	29.83	
C	 0.6467507382	 1.3986649352	 0.2510800238	-0.218298
O	 0.9273320984	 0.0214690779	 0.3389515408	-0.239562
C	-0.1700140455	-0.7339073501	 0.8042253122	-0.223505
C	 0.2554573997	-2.1610380243	 0.8500007202	 0.400135
C	 1.0176053677	-3.0377850406	-0.1074874996	-0.158318
C	 0.1323877866	-4.2146084306	 0.3725371644	-0.051425
C	 0.599084232	-4.0304208841	 1.7707194577	-0.051437
C	 1.5017310097	-2.8466841444	 1.3430271689	-0.158259
N	-0.6442338695	-3.3142917293	 1.3022728321	-0.229587
H	 0.3791401671	 1.8237574876	 1.2311446037	 0.107085
H	 1.5502955323	 1.8925964122	-0.1141414863	 0.128437
H	-0.1789945925	 1.6028774319	-0.4484165184	 0.107089
H	-0.4846879177	-0.3994571744	 1.8084863178	 0.097429
H	-1.0423096567	-0.6192080754	 0.1368707109	 0.097414
H	 1.5251733521	-2.8020102417	-1.0310221063	 0.100908
H	-0.3297717222	-5.0567234734	-0.1288397155	 0.09549
H	 0.590275471	-4.6936407352	 2.6275693797	 0.095488
H	 2.4368534693	-2.4419949411	 1.700651074	 0.100915
65.4874	77.0298	114.3499	213.9465	276.1704	339.3081	368.358	656.8645	669.6513	760.705	771.8456	802.8368	844.2644	857.2165	864.5192	877.5431	902.8773	964.9245	981.5323	987.043	1013.0542	1058.1992	1073.4665	1094.6664	1160.5531	1162.0584	1162.7774	1184.8158	1211.114	1228.2699	1233.7067	1279.1695	1319.532	1402.8064	1472.5636	1481.2521	1483.8231	1503.7997	1525.412	2942.7956	2968.6661	2973.5499	3017.8145	3115.927	3172.8325	3187.1227	3224.0389	3233.4951
COCC12C3C4C(C13)N24	COC[C@@]12[C@@H]3[C@H]4[C@@H]([C@H]13)N24	
InChI=1S/C7H9NO/c1-9-2-7-3-4(7)6-5(3)8(6)7/h3-6H,2H2,1H3	InChI=1S/C7H9NO/c1-9-2-7-3-4(7)6-5(3)8(6)7/h3-6H,2H2,1H3/t3-,4+,5-,6+,7+,8?
