16
gdb 22185	2.23187	0.99941	0.75249	2.7654	70.18	-0.253	-0.0476	0.2054	1452.6032	0.119929	-474.99344	-474.983566	-474.982621	-475.030459	33.291	
O	-0.1469507393	 1.5652523674	-0.6334878882	-0.39907
N	 0.0729628405	 0.198993811	-0.4347217961	-0.143358
C	-0.9879426366	-0.4231044587	-0.0865713971	 0.319016
C	-0.851813933	-1.8998741489	 0.1809445367	-0.364253
C	 0.5867755672	-2.3596873225	 0.3554792482	 0.176432
O	 1.0623910592	-3.3021387911	-0.2191030584	-0.238687
C	-2.344173173	 0.2231227739	 0.0987154714	-0.362674
C	-2.4497653059	 0.7525013731	 1.5244050674	 0.151892
O	-3.1262766919	 0.2444897778	 2.3794803427	-0.228583
H	 0.7143555219	 1.8722480371	-0.9375171777	 0.315828
H	-1.3959306141	-2.1353077466	 1.108764307	 0.150041
H	-1.3178377428	-2.4882741174	-0.6175365034	 0.146539
H	 1.1704021229	-1.7693052744	 1.0924307157	 0.090573
H	-2.4405980713	 1.0583161628	-0.6009703044	 0.150553
H	-3.1414116629	-0.506015263	-0.0598381272	 0.131055
H	-1.8168199607	 1.6410172596	 1.7289658135	 0.104697
27.4979	67.1959	72.1971	77.6688	199.3106	211.6496	295.2311	310.8362	402.0448	419.2452	479.2444	501.8759	587.9381	640.4311	753.8134	839.4053	903.419	984.4323	997.8291	1032.404	1061.9636	1085.8878	1153.2537	1206.529	1234.9902	1279.808	1332.9546	1408.1392	1417.1025	1427.9971	1447.6004	1462.6011	1721.0093	1828.6011	1840.3187	2915.6357	2920.9869	3007.5869	3063.2214	3073.2614	3132.7613	3816.7157
ON=C(CC=O)CC=O	ON=C(CC=O)CC=O	
InChI=1S/C5H7NO3/c7-3-1-5(6-9)2-4-8/h3-4,9H,1-2H2	InChI=1S/C5H7NO3/c7-3-1-5(6-9)2-4-8/h3-4,9H,1-2H2
