19
gdb 76689	3.47322	0.88321	0.83773	2.6562	72.	-0.2355	0.0495	0.285	1429.0324	0.157745	-460.105832	-460.096578	-460.095633	-460.140811	34.036	
O	 0.1373752244	 1.4715591061	 1.0387734589	-0.424141
C	 0.1970328122	 0.2942242993	 0.2667624995	 0.000024
C	-0.6537201051	-0.8490777336	 0.7692627088	 0.084847
O	-1.3482967051	-0.6488205123	 1.9647224848	-0.431418
C	-1.0643220291	-0.0772162264	-0.4744453448	-0.079558
C	-2.2934909393	 0.8109747104	-0.4626184704	-0.251462
C	-3.5553369162	-0.004346098	-0.6205857027	 0.105058
C	-4.7039403952	 0.4684288511	-1.4007813732	-0.18135
O	-3.8192241825	-0.5200754123	-1.9317290887	-0.242435
H	 0.8863628532	 1.4618065646	 1.6448987694	 0.297833
H	 1.1587510409	 0.1090675469	-0.2067920729	 0.094422
H	-0.3072167266	-1.8729036069	 0.6669947575	 0.100121
H	-1.1276156142	 0.2476502139	 2.2542231409	 0.283771
H	-0.9032591	-0.5938068164	-1.4167003815	 0.10407
H	-2.3485124997	 1.3739712629	 0.4731099331	 0.109514
H	-2.2298864727	 1.5433367533	-1.2752446367	 0.103446
H	-3.738213341	-0.7211157487	 0.1805199308	 0.10681
H	-5.707306326	 0.1193125815	-1.1598788972	 0.111382
H	-4.6586200481	 1.4438964346	-1.8846437455	 0.109067
44.6457	75.2096	116.5062	183.6885	227.5222	263.1497	300.4076	386.2559	417.449	499.1139	552.7081	606.4341	657.08	758.8528	792.7313	798.4865	860.7606	898.7642	937.6606	966.2094	1041.1159	1057.4816	1089.4872	1102.807	1127.4524	1146.8729	1150.8605	1158.5411	1177.4017	1228.2384	1239.2808	1279.0424	1290.8513	1303.4515	1333.8164	1381.9168	1410.4143	1443.8185	1468.5492	1473.4579	1530.0513	3046.1365	3077.7577	3096.7213	3116.0481	3120.3472	3146.9812	3158.879	3162.9388	3733.9842	3803.9101
OC1C(O)C1CC1CO1	O[C@H]1[C@@H](O)[C@H]1C[C@H]1CO1	
InChI=1S/C6H10O3/c7-5-4(6(5)8)1-3-2-9-3/h3-8H,1-2H2	InChI=1S/C6H10O3/c7-5-4(6(5)8)1-3-2-9-3/h3-8H,1-2H2/t3-,4-,5+,6-/m0/s1
