16
gdb 49133	3.47393	1.14819	0.88234	2.4876	78.11	-0.2328	-0.09	0.1428	1239.5621	0.125451	-437.93851	-437.930644	-437.9297	-437.97114	29.415	
O	 0.0539325829	-0.043486432	-0.0638775634	-0.275618
C	 0.0470404389	 1.1652665365	-0.0912783855	 0.118633
C	 1.2912400096	 1.9753838831	-0.0184561723	 0.280149
C	 1.2294772439	 3.3367275753	 0.0214617395	-0.296894
C	 2.4499678676	 4.1402280395	 0.0203115713	 0.379098
O	 2.4569805069	 5.3557536908	 0.0798138953	-0.339496
C	 3.7438192317	 3.3310474108	-0.1471765248	-0.309517
C	 3.6501576761	 1.9410616969	 0.4881926953	-0.186015
N	 2.4487790523	 1.2674444283	 0.015950186	-0.349694
H	-0.8890744753	 1.7516237415	-0.1664551677	 0.105696
H	 0.272212428	 3.8437972076	-0.0005149437	 0.108625
H	 3.9235307483	 3.2323206875	-1.226368858	 0.133422
H	 4.5743875863	 3.9012165345	 0.2737541864	 0.130898
H	 4.5232085636	 1.3344755228	 0.2338170071	 0.123124
H	 3.6206124685	 2.0413870584	 1.5859601175	 0.115985
H	 2.3338584108	 0.2761007185	 0.176013617	 0.261604
98.7458	133.6755	202.6418	234.5278	260.3905	383.724	446.7479	475.0464	532.8111	580.2034	591.1561	660.0496	745.013	786.1242	835.9552	899.1844	935.5252	1019.5692	1020.0218	1063.8438	1132.5827	1155.7804	1188.8944	1241.5255	1257.8992	1342.9361	1364.0969	1393.0883	1407.2169	1454.731	1497.8536	1556.2099	1654.5224	1762.0094	1791.0827	2952.8491	2969.234	3029.4714	3089.5026	3118.4576	3206.3404	3595.5339
O=CC1=CC(=O)CCN1	O=CC1=CC(=O)CCN1	
InChI=1S/C6H7NO2/c8-4-5-3-6(9)1-2-7-5/h3-4,7H,1-2H2	InChI=1S/C6H7NO2/c8-4-5-3-6(9)1-2-7-5/h3-4,7H,1-2H2
