19
gdb 95148	2.73539	1.76723	1.48867	2.2419	73.78	-0.2501	-0.0022	0.2479	966.2548	0.161694	-423.030835	-423.023622	-423.022678	-423.062057	29.55	
C	-0.0663283719	 1.559008706	-0.0256935423	-0.418728
C	 0.0166897107	 0.0332763691	 0.0277359244	 0.009195
C	 0.6973200587	-0.5331180217	-1.2440518467	-0.081259
O	 1.0848005627	-1.9070599524	-1.1373253617	-0.267334
C	 1.6297310615	-2.2328318954	 0.130382454	 0.135012
O	 0.6852000076	-1.9501350224	 1.1412881314	-0.239526
C	 0.7763115487	-0.5225839982	 1.2570455212	 0.017538
C	 2.2766124756	-0.2763317785	 1.1428798243	-0.099766
C	 2.7946586928	-1.3121532094	 0.4897772656	-0.099841
H	 0.9286453482	 2.0148023534	-0.0758364578	 0.118238
H	-0.6264203915	 1.8907749711	-0.9064128228	 0.121382
H	-0.574633694	 1.9577481943	 0.8584854424	 0.118134
H	-0.9944225911	-0.3838086411	 0.0967833969	 0.090864
H	 0.0152234899	-0.4832550433	-2.0975952329	 0.10937
H	 1.5753182165	 0.0833413746	-1.4827658126	 0.093881
H	 1.8308128434	-3.3044537625	 0.1069133238	 0.090129
H	 0.3248157213	-0.2125300031	 2.2032847501	 0.080482
H	 2.7797545759	 0.621954334	 1.4748255452	 0.110836
H	 3.8118243751	-1.4569041244	 0.1523906975	 0.111391
153.7438	214.3292	263.6015	290.2012	358.7465	430.2851	460.512	499.9221	595.5461	645.2942	742.7282	787.9302	838.114	854.6786	900.3747	915.7593	935.6482	947.09	952.7884	963.8082	999.2005	1015.7605	1070.3878	1113.4404	1134.638	1141.7375	1167.6276	1254.8875	1282.0148	1307.0167	1310.693	1333.046	1350.0194	1369.9208	1377.1678	1406.3953	1419.4764	1495.1283	1500.673	1503.8878	1660.607	3005.8398	3029.6426	3043.1429	3077.585	3084.5011	3098.1288	3099.5726	3117.2475	3214.592	3240.3666
CC1COC2OC1C=C2	C[C@H]1CO[C@@H]2O[C@H]1C=C2	
InChI=1S/C7H10O2/c1-5-4-8-7-3-2-6(5)9-7/h2-3,5-7H,4H2,1H3	InChI=1S/C7H10O2/c1-5-4-8-7-3-2-6(5)9-7/h2-3,5-7H,4H2,1H3/t5-,6-,7+/m0/s1
