23
gdb 64767	2.60629	1.18836	1.05049	0.6577	90.16	-0.2583	0.0511	0.3093	1290.6401	0.205494	-351.146289	-351.136602	-351.135658	-351.18059	37.408	
C	-0.3149738949	 1.7242795488	 0.2122053111	-0.446496
C	 0.1040258659	 0.2613118874	 0.0436413002	 0.292618
C	-1.1628821752	-0.633351364	-0.1137120326	-0.385941
C	-1.9638036536	-0.3433983097	-1.2972078769	 0.313831
C	-2.615538276	-0.0980280661	-2.2778785778	-0.454042
C	 1.0815498959	 0.0483603255	-1.1344178914	-0.224564
C	 1.8084858975	-1.2820703856	-0.8389232676	-0.212294
C	 1.7427715213	-1.4659444619	 0.7063606888	-0.211298
C	 0.9373528642	-0.2575147758	 1.2395314221	-0.229291
H	 0.5641510841	 2.3683903139	 0.3185269288	 0.107568
H	-0.8914361321	 2.0734699239	-0.6497316622	 0.127509
H	-0.9375642777	 1.8582305701	 1.1046059073	 0.106848
H	-0.8714665512	-1.6905169596	-0.1345790269	 0.127035
H	-1.7866902906	-0.5114033974	 0.7816364864	 0.124564
H	-3.1985268633	 0.1131346484	-3.1397134407	 0.192348
H	 0.5737354944	 0.0549267458	-2.102766638	 0.107385
H	 1.8009300713	 0.8758991686	-1.1422284707	 0.089622
H	 1.3112691134	-2.1147682766	-1.3460000577	 0.102088
H	 2.8368878363	-1.2686770325	-1.20966175	 0.096645
H	 1.2506163951	-2.4092629135	 0.9623945786	 0.098815
H	 2.7375306529	-1.5092413418	 1.158062526	 0.097563
H	 1.620584643	 0.5384013813	 1.5578614905	 0.091267
H	 0.3176085193	-0.5069051291	 2.1076713026	 0.088218
71.0367	97.487	146.1899	175.641	226.7806	277.5376	321.6509	357.3806	371.284	380.0718	507.6527	582.0902	612.8174	633.3672	649.8905	731.9117	801.1804	815.9858	887.3847	894.9368	905.441	929.9817	958.7785	977.5949	1000.6249	1047.7746	1063.7165	1077.9741	1132.5941	1174.5979	1210.7588	1230.7154	1261.9606	1267.5593	1291.9907	1312.6428	1332.9745	1338.0258	1345.6936	1369.2342	1411.1912	1466.9419	1484.6197	1493.0631	1494.3062	1500.7932	1503.211	1522.7504	2232.3022	3019.2082	3025.0158	3029.4676	3036.0853	3046.0138	3053.8087	3058.844	3068.52	3080.6989	3090.0298	3093.6236	3103.9368	3108.0732	3505.9297
CC1(CC#C)CCCC1	CC1(CC#C)CCCC1	
InChI=1S/C9H14/c1-3-6-9(2)7-4-5-8-9/h1H,4-8H2,2H3	InChI=1S/C9H14/c1-3-6-9(2)7-4-5-8-9/h1H,4-8H2,2H3
