19
gdb 121598	4.5237	0.70903	0.62036	2.0335	76.01	-0.2477	-0.0522	0.1955	1793.7433	0.156659	-456.359079	-456.348559	-456.347614	-456.395702	36.675	
C	 0.0034891544	 1.4755767528	-0.0304046744	-0.384948
C	 0.0068397763	-0.0431487863	-0.0442148925	-0.024594
O	 0.6690577772	-0.4773970271	-1.2169007375	-0.231397
C	 0.7265963489	-1.8678491172	-1.3262102421	-0.160935
C	 1.4457659957	-2.2444948513	-2.6062456416	 0.350243
O	 1.8856076455	-1.4368617947	-3.3904986944	-0.304109
C	 1.6063940934	-3.7362104409	-2.8731827181	 0.265992
N	 2.1609569027	-3.9811902079	-4.0938319572	-0.535503
N	 1.2016294024	-4.5532427149	-1.9735598652	-0.514287
H	 1.0269258654	 1.8607452687	-0.0365749057	 0.129596
H	-0.5132874123	 1.864811105	-0.9120025437	 0.129879
H	-0.5041991828	 1.8472795378	 0.8646395577	 0.11364
H	 0.5179021613	-0.4395958841	 0.8495111502	 0.087475
H	-1.0244285267	-0.4347181328	-0.023529636	 0.087436
H	 1.2533667256	-2.3401407821	-0.4807306775	 0.130733
H	-0.2734990629	-2.3334274378	-1.3432795097	 0.126785
H	 2.5457937796	-3.18145914	-4.5744903265	 0.272548
H	 2.5244590643	-4.8927715851	-4.3119432582	 0.254181
H	 1.3577241619	-5.5267384422	-2.2430415276	 0.207264
52.1213	63.0178	92.6368	105.4461	139.0111	239.2926	244.1357	295.1504	319.4606	363.9998	405.2422	452.8713	541.9066	548.1768	617.6097	688.353	822.5402	822.5627	871.4154	919.3591	1017.4348	1032.3214	1074.8588	1111.6403	1145.2	1158.9022	1188.2147	1191.6826	1235.9209	1297.1283	1374.4433	1403.4358	1427.9404	1445.1282	1471.9995	1483.0799	1499.7658	1530.9852	1600.0307	1721.0428	1811.4838	2954.0804	2973.8355	2979.7483	2994.4434	3046.2955	3120.6245	3124.1452	3447.6104	3580.4526	3717.1679
CCOCC(=O)C(N)=N	CCOCC(=O)C(=N)N	
InChI=1S/C5H10N2O2/c1-2-9-3-4(8)5(6)7/h2-3H2,1H3,(H3,6,7)	InChI=1S/C5H10N2O2/c1-2-9-3-4(8)5(6)7/h2-3H2,1H3,(H3,6,7)
