17
gdb 116427	2.74869	1.43053	1.03439	4.1374	64.47	-0.2636	-0.0083	0.2552	1127.6826	0.137138	-496.126996	-496.118879	-496.117935	-496.160432	29.826	
O	-0.1805885599	 1.5284182194	-0.3285524395	-0.424806
C	-0.0053892201	 0.1502866954	-0.1430359284	-0.050875
C	-1.346645831	-0.6061129778	 0.0633816448	-0.181389
C	-1.1780530364	-2.1296324325	 0.0163550704	-0.124454
O	-0.8770303688	-2.6322375306	 1.3138761085	-0.213428
C	-1.9334131423	-2.3945241338	 2.1677931854	 0.017276
O	-2.1940074866	-0.9915220331	 2.3656371045	-0.221808
C	-1.961779688	-0.1145729889	 1.3708373728	 0.422556
O	-2.1912586953	 1.0565051767	 1.5620528634	-0.345361
H	-0.7962169179	 1.8272635712	 0.3580302298	 0.300461
H	 0.4662357217	-0.2399526153	-1.0523385998	 0.108146
H	 0.6679458563	-0.0800624491	 0.6997488866	 0.101393
H	-2.0160758083	-0.2749590816	-0.7379416635	 0.125797
H	-2.0909297402	-2.6141461149	-0.361605911	 0.108268
H	-0.3464096246	-2.4180439527	-0.631281596	 0.127919
H	-2.8646797593	-2.8537948162	 1.8002430248	 0.108438
H	-1.6756649792	-2.7866756661	 3.1523719174	 0.141866
48.2541	126.6152	152.7091	236.281	275.5343	379.4289	411.597	447.054	500.5015	532.6046	596.5345	705.798	752.1293	803.4673	885.972	943.696	1017.8739	1034.2802	1062.3395	1098.1277	1115.3552	1130.2284	1176.1263	1217.8748	1262.7485	1275.6185	1292.1197	1318.4983	1337.9986	1382.4302	1406.2659	1460.772	1470.9843	1501.2372	1517.4689	1524.2228	1802.3606	2965.7475	2982.9237	2993.5724	3052.9584	3065.8208	3099.3138	3128.9911	3704.2695
OCC1COCOC1=O	OC[C@H]1COCOC1=O	
InChI=1S/C5H8O4/c6-1-4-2-8-3-9-5(4)7/h4,6H,1-3H2	InChI=1S/C5H8O4/c6-1-4-2-8-3-9-5(4)7/h4,6H,1-3H2/t4-/m0/s1
