16
gdb 30952	2.49941	1.31768	0.91206	3.8425	68.17	-0.1975	0.044	0.2416	1249.1789	0.123208	-475.083124	-475.073955	-475.073011	-475.117531	32.474	
C	-0.2701002284	 1.5808816644	-0.0427948623	-0.369586
C	 0.0799727915	 0.0841290331	 0.0422128938	-0.308809
C	 0.8004174561	-0.4388388761	-1.1516145431	 0.186802
C	 2.0529710819	-0.882328002	-1.3162421848	 0.309305
O	 3.0812819006	-0.9553811799	-0.4577495726	-0.4225
O	 2.2885852611	-1.2605015305	-2.6170218286	-0.246015
C	 1.1125642547	-1.0529590382	-3.3458679543	 0.483064
O	 0.9935900979	-1.3110600432	-4.5116276982	-0.399317
N	 0.2284863425	-0.5285305368	-2.4459958386	-0.428389
H	 0.63503969	 2.186558611	-0.1426518086	 0.130979
H	-0.9102914478	 1.7952133384	-0.9049241382	 0.114739
H	-0.8040383209	 1.9033795831	 0.8559611134	 0.120596
H	 0.7145674086	-0.0987572079	 0.9146917716	 0.131267
H	-0.8402634928	-0.4949995773	 0.2027533659	 0.11085
H	 3.6598246486	-1.6777383358	-0.7320215422	 0.314213
H	-0.7207200334	-0.3158863922	-2.6965279834	 0.272803
63.3575	114.6474	146.4481	166.7419	186.8985	262.27	277.3967	333.409	382.4818	460.992	586.8306	615.3256	652.6677	672.6834	755.3452	785.5509	832.2145	929.9496	966.0956	1037.0612	1071.5625	1093.1756	1212.8122	1248.0259	1268.9554	1336.9635	1354.8408	1370.7424	1410.1054	1442.3023	1476.7435	1496.1173	1504.9947	1808.855	1908.7975	3009.2761	3038.3248	3082.5739	3108.6468	3119.5892	3695.8627	3794.3248
CCC1=C(O)OC(=O)N1	CCc1c(O)oc(=O)[nH]1	
InChI=1S/C5H7NO3/c1-2-3-4(7)9-5(8)6-3/h7H,2H2,1H3,(H,6,8)	InChI=1S/C5H7NO3/c1-2-3-4(7)9-5(8)6-3/h7H,2H2,1H3,(H,6,8)
