14
gdb 27669	3.29278	1.21548	0.88777	1.1392	74.37	-0.1729	0.0295	0.2024	1208.8954	0.099552	-436.686786	-436.678019	-436.677075	-436.719745	32.909	
O	 0.0529352995	 1.3494037309	 0.2333867911	-0.439253
C	 0.0614604539	 0.0124807127	 0.0003419577	 0.401648
C	 0.0595936405	-0.7588368437	-1.1223421427	-0.446125
C	 0.072372951	-2.1425471963	-0.6780535431	 0.072332
C	 0.0760227782	-3.3336061449	-1.4287736698	 0.180462
C	 0.0795856404	-4.3816597336	-2.0292030237	-0.456577
C	 0.0809628471	-2.1074610279	 0.7006236389	 0.292613
O	 0.0938078899	-3.0876265727	 1.6255846829	-0.431741
N	 0.0745675854	-0.8055142958	 1.1138784192	-0.350807
H	 0.0508009569	 1.8034199552	-0.6146923681	 0.309077
H	 0.050328086	-0.4204482453	-2.1455650345	 0.099502
H	 0.0825255373	-5.2926666418	-2.5734562319	 0.179736
H	 0.0964718494	-3.9269361021	 1.1470574252	 0.312029
H	 0.0784120845	-0.4914287246	 2.0690037288	 0.277104
119.307	133.3803	199.9006	227.7843	309.5684	321.0478	365.3452	397.0206	412.7399	421.2221	488.4579	514.3294	595.4338	648.6648	665.698	672.4794	683.4413	728.4814	803.7271	1028.4317	1133.9311	1160.7835	1181.4349	1208.221	1297.9721	1362.9996	1493.8953	1556.3234	1621.0712	1651.6998	2212.1429	3261.8754	3503.0236	3685.1771	3783.2409	3848.1748
OC1=CC(C#C)=C(O)N1	Oc1cc(C#C)c(O)[nH]1	
InChI=1S/C6H5NO2/c1-2-4-3-5(8)7-6(4)9/h1,3,7-9H	InChI=1S/C6H5NO2/c1-2-4-3-5(8)7-6(4)9/h1,3,7-9H
