19
gdb 109211	4.13316	1.01514	0.90526	1.1636	76.86	-0.237	0.0077	0.2447	1326.1685	0.158193	-423.017419	-423.008621	-423.007676	-423.0508	33.335	
C	 0.1138590167	 1.4686048286	-0.1070710487	-0.483521
C	-0.0609912722	-0.0084981087	 0.1136478376	 0.419831
C	-1.3843866885	-0.7016777071	-0.2261780976	-0.32744
C	-1.4038385436	-1.9010316477	 0.6970564858	-0.186529
C	-0.337367499	-1.9442295973	 1.5031849101	 0.295341
C	-0.0092454953	-2.9807788783	 2.5358423953	-0.172174
O	-0.9150482496	-4.0673360836	 2.5668134116	-0.4063
C	 0.5702621969	-0.7938762938	 1.1907847882	-0.152245
O	 1.0829408368	-0.8306159029	-0.1639835349	-0.298337
H	 1.0989906487	 1.793554471	 0.2365451199	 0.1299
H	 0.0284188144	 1.7133771558	-1.1717942062	 0.127872
H	-0.6525201782	 2.0374188904	 0.4298037982	 0.122137
H	-2.2385535141	-0.0350867386	-0.047214263	 0.109597
H	-1.4219035347	-0.9869489219	-1.2847682752	 0.121241
H	-2.1938463381	-2.642533581	 0.6797253091	 0.099373
H	 1.0299054039	-3.3238711816	 2.3913975432	 0.104576
H	-0.0425847358	-2.5363053118	 3.5397993216	 0.123499
H	-0.8716250552	-4.4996664124	 1.7072394357	 0.285246
H	 1.2518383169	-0.373653119	 1.9265981096	 0.087935
76.2541	155.9316	173.7605	194.6878	242.7311	303.0164	345.5131	359.8484	408.9407	436.7246	589.0698	607.6079	676.7217	752.4376	820.8947	843.9356	883.9537	926.5741	954.9528	991.4332	995.7948	1010.788	1043.6663	1080.2393	1095.0334	1174.3098	1192.4849	1210.8313	1223.8413	1252.9079	1312.3431	1325.3315	1391.4009	1407.1297	1422.0092	1441.3134	1464.8228	1485.0155	1490.3414	1495.5534	1702.6966	2956.6582	3020.8656	3030.9137	3034.4699	3056.8934	3095.8826	3123.3595	3143.2415	3203.7365	3809.8262
CC12CC=C(CO)C1O2	C[C@]12CC=C(CO)[C@H]1O2	
InChI=1S/C7H10O2/c1-7-3-2-5(4-8)6(7)9-7/h2,6,8H,3-4H2,1H3	InChI=1S/C7H10O2/c1-7-3-2-5(4-8)6(7)9-7/h2,6,8H,3-4H2,1H3/t6-,7+/m1/s1
