20
gdb 78234	2.04704	1.695	1.06166	2.598	81.7	-0.2259	0.0094	0.2353	1197.9212	0.170704	-403.128945	-403.120154	-403.11921	-403.161965	34.012	
C	-0.2115086516	 1.2809821105	 0.0442987816	-0.31606
N	 0.0433906394	-0.1522924158	-0.0622113188	-0.120331
C	 0.7847367812	-0.5597290413	-1.2649621826	-0.063741
C	 1.4724093363	-0.5521597732	 0.0479001305	-0.12795
C	 1.6527102801	-1.9872446655	 0.4563580194	 0.335283
C	 2.2947412115	-2.373531364	 1.7503029374	-0.499782
C	 1.1220619216	-2.7838808495	-0.476898592	-0.2226
C	 0.4905756333	-2.0207722151	-1.6337768207	 0.080744
O	-0.899612161	-2.2757417941	-1.7667639863	-0.438017
H	 0.6040189448	 1.9064557764	-0.3544258467	 0.101199
H	-1.1264501564	 1.5240910511	-0.5053730319	 0.128066
H	-0.3631974656	 1.5439248288	 1.0959944266	 0.12425
H	 0.9740599977	 0.1845905134	-2.0317766782	 0.086494
H	 2.1894221096	 0.2145500171	 0.3280263785	 0.085563
H	 1.7428866416	-1.9553494831	 2.6016542445	 0.132868
H	 2.3367383686	-3.459189018	 1.8697436724	 0.127743
H	 3.318398662	-1.9841178321	 1.8191954175	 0.125113
H	 1.0469210386	-3.8640087443	-0.4111906094	 0.095237
H	 0.9326179606	-2.2893539865	-2.6000859025	 0.084006
H	-1.2949937723	-1.8698142647	-0.9822109392	 0.281913
132.8281	156.6628	179.4546	203.5077	232.0804	263.8018	306.765	396.5295	456.9429	502.0088	544.0953	571.1991	597.0982	744.0119	821.5934	838.0166	856.7734	886.1138	922.8451	962.4344	1004.8191	1046.7114	1060.0443	1064.6615	1079.7658	1134.7374	1145.1831	1162.9853	1193.962	1237.9239	1267.9121	1282.7011	1311.0478	1357.8608	1396.2134	1413.281	1440.7808	1455.6533	1479.3546	1488.0251	1494.9317	1496.9546	1708.2319	2968.7975	3018.5816	3045.1031	3065.2971	3067.8695	3103.6538	3114.6858	3149.7769	3164.9229	3192.5867	3740.8274
CN1C2C1C(C)=CC2O	CN1[C@H]2[C@@H]1C(=C[C@H]2O)C	
InChI=1S/C7H11NO/c1-4-3-5(9)7-6(4)8(7)2/h3,5-7,9H,1-2H3	InChI=1S/C7H11NO/c1-4-3-5(9)7-6(4)8(7)2/h3,5-7,9H,1-2H3/t5-,6+,7-,8?/m1/s1
