23
gdb 116499	2.84935	1.09478	0.86927	2.257	81.89	-0.2522	0.0797	0.3318	1414.9463	0.207088	-425.428122	-425.418728	-425.417784	-425.462859	35.098	
C	 0.0996128691	 1.576320264	 0.008635115	-0.394264
C	-0.0099023071	 0.047612188	 0.0383942535	-0.180249
C	-1.4480086876	-0.5104544821	-0.0011895748	 0.023047
C	-1.4232302292	-2.0388801736	-0.1996588363	-0.248904
C	-2.7142898375	-2.6555606233	-0.7574214516	-0.075334
O	-3.9348435877	-2.099308439	-0.28229946	-0.235327
C	-3.9940924021	-1.7112692156	 1.0605803727	 0.015413
O	-3.6004472011	-0.3829247939	 1.2666500046	-0.233168
C	-2.2045320104	-0.1441147864	 1.290005063	-0.0781
H	 1.1473814208	 1.8865451054	-0.0537067538	 0.11443
H	-0.4217550384	 1.9915204319	-0.8609116508	 0.118906
H	-0.3232380873	 2.0442436191	 0.9024710395	 0.122149
H	 0.5346581291	-0.3585181389	-0.8226239407	 0.096035
H	 0.5051113541	-0.3428664479	 0.9275777913	 0.094691
H	-1.9792036752	-0.0462191018	-0.8431191029	 0.086666
H	-0.6207196957	-2.312858655	-0.8958080522	 0.097245
H	-1.1573280027	-2.5116075379	 0.7546571631	 0.099643
H	-2.752537675	-2.5103833458	-1.8423639627	 0.110795
H	-2.7024793651	-3.7417514621	-0.5762109517	 0.091614
H	-5.0494177322	-1.7514561889	 1.3427393067	 0.112586
H	-3.412658596	-2.3952356612	 1.7039757148	 0.072559
H	-1.742000051	-0.6866114299	 2.1341793512	 0.082428
H	-2.1125635918	 0.9246859248	 1.4972197322	 0.10714
53.6884	78.0114	151.2659	184.048	224.4826	243.7653	320.2559	364.497	408.641	423.4412	460.8633	558.3512	619.9049	762.8105	816.4331	851.2248	913.9898	919.9789	954.0996	979.6006	1003.4593	1036.8442	1057.5455	1082.3644	1126.6148	1133.3712	1148.9417	1167.5417	1211.9142	1255.5369	1268.5291	1279.8912	1297.7915	1330.5972	1347.3273	1357.7866	1378.3199	1394.442	1412.5821	1415.5846	1425.4582	1445.1626	1480.5611	1492.457	1493.3596	1500.5391	1506.3549	1509.6016	1517.151	2942.7397	2949.4038	2981.3671	3008.9661	3017.116	3028.0485	3036.1138	3044.2056	3051.6339	3070.8774	3093.6643	3097.2714	3100.7641	3111.7965
CCC1CCOCOC1	CC[C@H]1CCOCOC1	
InChI=1S/C7H14O2/c1-2-7-3-4-8-6-9-5-7/h7H,2-6H2,1H3	InChI=1S/C7H14O2/c1-2-7-3-4-8-6-9-5-7/h7H,2-6H2,1H3/t7-/m0/s1
