16
gdb 12035	3.80408	1.75211	1.52253	4.2687	68.24	-0.2551	0.0277	0.2828	870.5603	0.130954	-342.750298	-342.742965	-342.742021	-342.781579	27.796	
C	-0.0740406169	 1.5724007366	 0.022875144	-0.451686
C	 0.0370499605	 0.0430419884	 0.024261387	 0.122788
C	 1.1393720448	-0.6467021275	-0.8585112348	-0.204456
N	 1.7193214218	-1.3845805102	 0.3141341743	-0.116772
C	 2.186966435	-0.3430000337	 1.2432682912	-0.25359
C	 0.7439236441	-0.6443505844	 1.2109496493	-0.045342
C	-1.2772184642	-0.5488738343	-0.2186268616	 0.252565
N	-2.3243653172	-1.0005439544	-0.4088892804	-0.33896
H	 0.9001517424	 2.0296936922	 0.2093639888	 0.125373
H	-0.4419902598	 1.9294368554	-0.9434260497	 0.141208
H	-0.7690342333	 1.9117860147	 0.7962687947	 0.142373
H	 0.7392412204	-1.345081763	-1.5931503206	 0.142367
H	 1.8415503179	 0.0386356371	-1.3444340672	 0.113685
H	 2.7511322498	-0.7445949901	 2.0792106722	 0.134435
H	 2.5750051945	 0.5909265075	 0.8434905523	 0.117271
H	 0.2228378303	-1.1380260543	 2.0240671006	 0.118742
142.9477	170.9248	209.0609	232.5929	293.1156	406.7939	476.5132	522.3545	572.1313	627.322	747.6737	783.4246	845.1385	871.5033	917.5485	970.6992	993.4604	1026.6899	1059.1553	1109.4985	1117.1617	1154.9866	1175.9095	1199.9533	1233.3344	1249.8609	1288.5439	1363.1142	1415.2425	1486.9366	1489.4087	1494.0611	1510.4836	2352.8562	3046.3211	3052.4243	3109.7172	3119.3189	3129.3874	3138.0597	3173.9713	3202.5154
CC1(CN2CC12)C#N	C[C@]1(CN2C[C@@H]12)C#N	
InChI=1S/C6H8N2/c1-6(3-7)4-8-2-5(6)8/h5H,2,4H2,1H3	InChI=1S/C6H8N2/c1-6(3-7)4-8-2-5(6)8/h5H,2,4H2,1H3/t5-,6+,8?/m0/s1
