15
gdb 46081	3.05043	1.4238	1.20935	5.5734	60.68	-0.285	0.0413	0.3263	1027.9102	0.113266	-494.921242	-494.91373	-494.912786	-494.954445	26.777	
O	 0.2262292648	 0.0620683277	-0.1237228113	-0.36898
C	 0.1009048007	 1.2416267297	-0.0813000991	 0.511153
O	-1.0280888142	 1.9191521547	-0.3944256738	-0.23501
C	-0.8548226478	 3.3137672286	-0.1521686467	-0.114993
C	 0.6650972004	 3.4569691648	 0.1045675947	 0.042221
O	 1.0778729184	 2.1076641195	 0.3140669072	-0.250765
C	 1.4027036602	 4.0732246362	-1.0654586522	 0.053796
C	 2.6100770816	 3.4746722292	-1.6424664656	-0.170941
O	 1.3340316759	 3.3439929238	-2.28506415	-0.228046
H	-1.1872858733	 3.8669213015	-1.0328819762	 0.144068
H	-1.4567466404	 3.6049023064	 0.7137573899	 0.129017
H	 0.8772188063	 4.0263500863	 1.0145113938	 0.112504
H	 1.2487826878	 5.1502291034	-1.1627208451	 0.10347
H	 3.3243501327	 4.1132500475	-2.1585055758	 0.124706
H	 3.004183227	 2.5577841808	-1.2141765498	 0.147798
50.5154	90.989	149.5339	225.4879	262.1082	434.9625	530.4863	594.6886	729.8429	750.2676	770.5869	818.7449	871.4038	900.0011	931.302	1002.0001	1018.9045	1053.8232	1101.4992	1108.2812	1134.3186	1150.6556	1169.8342	1174.2105	1231.4829	1287.4	1322.274	1376.9592	1410.9235	1436.1562	1519.3547	1526.217	1935.1454	3055.8676	3069.2541	3091.5194	3106.309	3118.3856	3206.1417
O=C1OCC(O1)C1CO1	O=C1OC[C@@H](O1)[C@H]1CO1	
InChI=1S/C5H6O4/c6-5-8-2-4(9-5)3-1-7-3/h3-4H,1-2H2	InChI=1S/C5H6O4/c6-5-8-2-4(9-5)3-1-7-3/h3-4H,1-2H2/t3-,4-/m1/s1
