16
gdb 40543	4.91714	1.10564	1.03326	2.5628	69.89	-0.2428	-0.003	0.2397	1161.242	0.124978	-437.850653	-437.843409	-437.842465	-437.883364	27.34	
C	-0.1860425835	 1.4478053936	-0.056880076	-0.165336
O	 1.1318142876	 0.9677299476	 0.1716926594	-0.212936
C	 0.0779180226	 0.0090222678	 0.1242199854	-0.031877
C	-0.2598154992	-0.6669431247	 1.3996910849	 0.405694
N	-0.2235776839	-0.170457575	 2.5726419256	-0.311394
C	-0.688374463	-1.2056785786	 3.4628373419	-0.018518
C	-2.1135507883	-1.6777695562	 3.2426022498	-0.318321
C	-0.9846827266	-2.4016665799	 2.5713258937	 0.055365
O	-0.6498743964	-1.9699500783	 1.2608821414	-0.250649
H	-0.6290734305	 1.9967548698	 0.7711198747	 0.138062
H	-0.3851404883	 1.8288327427	-1.0576487039	 0.121211
H	 0.0812531399	-0.6494107799	-0.741736368	 0.114273
H	-0.2386324365	-1.2482699885	 4.4469885089	 0.106977
H	-2.5863522559	-2.2014097717	 4.0662028282	 0.12454
H	-2.7737296766	-1.0580457093	 2.6448841712	 0.126412
H	-0.7504893413	-3.4430924395	 2.7471272228	 0.116496
34.9641	143.0695	185.5418	321.2181	368.7254	402.1687	517.5355	673.2598	718.9549	746.5598	767.5184	815.7722	870.7146	889.2418	925.7542	945.0769	980.6196	1013.6427	1039.6552	1053.2492	1082.6154	1097.2843	1124.0297	1134.0868	1160.6898	1169.9402	1185.3094	1224.4486	1280.8339	1320.8994	1363.2242	1450.9761	1460.6942	1516.1813	1703.7617	3088.6017	3131.9444	3142.8119	3187.862	3189.3171	3203.9499	3226.4673
C1OC1C1=NC2CC2O1	C1O[C@H]1C1=N[C@H]2C[C@H]2O1	
InChI=1S/C6H7NO2/c1-3-4(1)9-6(7-3)5-2-8-5/h3-5H,1-2H2	InChI=1S/C6H7NO2/c1-3-4(1)9-6(7-3)5-2-8-5/h3-5H,1-2H2/t3-,4+,5+/m0/s1
