23
gdb 62511	1.84844	1.29709	1.12147	3.549	88.63	-0.2374	-0.0145	0.2229	1305.9949	0.202244	-388.302849	-388.292009	-388.291065	-388.337906	40.381	
C	 1.5910607003	 0.9696965492	-1.0370012063	-0.456127
C	 0.8820901075	-0.2701635785	-0.5086841094	 0.257784
C	-0.2111884756	-0.7180330382	-1.4681940923	-0.447906
C	 1.6960753773	-1.3956330553	 0.1609020503	-0.187475
C	 3.1642845824	-1.3515864811	 0.3103383994	 0.151254
O	 3.8753496847	-2.3268007119	 0.2260821795	-0.27857
C	 0.7380223403	-0.503429809	 0.9755819952	 0.257787
C	 1.298323376	 0.4957073972	 1.9789757985	-0.456128
C	-0.5022464749	-1.1892875748	 1.5304141157	-0.447909
H	 2.3961033083	 1.3313552382	-0.3977805489	 0.119616
H	 2.0214556409	 0.7672510221	-2.023922235	 0.124643
H	 0.871826822	 1.7885554272	-1.155628672	 0.11968
H	 0.2051122985	-0.8579701942	-2.4718751501	 0.122791
H	-0.6805190761	-1.6583035649	-1.1759873287	 0.120758
H	-0.9973688046	 0.0430254301	-1.5412271006	 0.118436
H	 1.3438234686	-2.4050819382	-0.0319355011	 0.094042
H	 3.6089052506	-0.3526972147	 0.5105075795	 0.061396
H	 2.1979533326	 1.0107161804	 1.6429319999	 0.119615
H	 0.5457240994	 1.2605451013	 2.2037366443	 0.11968
H	 1.5416943287	-0.0097533737	 2.9199950025	 0.124644
H	-0.2778497929	-1.6397769903	 2.5035378764	 0.12279
H	-1.3103076729	-0.4636104079	 1.6822454366	 0.118437
H	-0.8803552112	-1.9820702829	 0.8836570263	 0.12076
84.4135	152.1812	161.623	180.2518	194.2125	207.1076	213.5547	259.8717	304.1436	313.8135	377.0293	389.8572	440.4785	459.4074	503.4645	505.6891	657.3014	663.247	894.4013	930.684	957.6924	973.9934	980.0933	999.3033	1041.1039	1045.1057	1063.9927	1124.2337	1139.666	1149.2812	1201.6606	1210.2596	1289.3238	1305.4361	1404.2567	1406.3108	1416.1403	1419.2126	1441.7863	1453.8617	1474.7395	1483.3792	1490.9809	1496.279	1498.0902	1503.8903	1516.3793	1529.513	1798.8089	2887.6451	3027.3881	3030.2274	3032.5236	3037.3145	3083.6668	3085.0219	3087.8558	3089.2237	3125.2928	3135.6627	3140.0365	3151.413	3153.9176
CC1(C)C(C=O)C1(C)C	CC1(C)C(C=O)C1(C)C	
InChI=1S/C8H14O/c1-7(2)6(5-9)8(7,3)4/h5-6H,1-4H3	InChI=1S/C8H14O/c1-7(2)6(5-9)8(7,3)4/h5-6H,1-4H3
