14
gdb 56084	5.81045	0.54341	0.52313	4.9299	78.01	-0.2689	-0.0481	0.2208	1968.5384	0.100788	-432.889365	-432.880007	-432.879062	-432.925153	32.302	
N	-0.0007147324	 1.3205366125	-0.0198676796	-0.565163
C	-0.0330709381	-0.0515397124	-0.1944376811	 0.473184
O	 0.7915917076	-0.6614221137	-0.8478601586	-0.383396
N	-1.0763275756	-0.6731553729	 0.4689075329	-0.337179
C	-1.1386287761	-2.1214232744	 0.4931449972	-0.318398
C	-2.4773066369	-2.6271244541	 0.2070849627	 0.1062
C	-3.5898247507	-3.0468447905	-0.0047934809	 0.022219
C	-4.8484388575	-3.5171415301	-0.2473423622	 0.214091
N	-5.9208093093	-3.9148141596	-0.4505475872	-0.334321
H	 0.6295151986	 1.780248695	-0.6592169828	 0.268988
H	-0.8744801458	 1.8044127173	 0.1219730343	 0.254242
H	-1.5686258397	-0.1703870935	 1.1895137542	 0.252415
H	-0.4272597863	-2.465730006	-0.2661711791	 0.19671
H	-0.7997577377	-2.5332289276	 1.4550127403	 0.150409
28.8412	58.5092	129.4397	147.61	239.676	265.3312	339.4519	364.6301	409.6732	436.4318	535.4291	553.4907	574.503	589.5908	647.2857	745.3659	772.9496	912.1	1025.0808	1101.1904	1139.5378	1177.7327	1249.0812	1320.2941	1382.1054	1468.3026	1533.2098	1628.9194	1804.7036	2267.6495	2404.414	3001.2218	3076.4824	3578.6112	3638.943	3693.1626
NC(=O)NCC#CC#N	NC(=O)NCC#CC#N	
InChI=1S/C5H5N3O/c6-3-1-2-4-8-5(7)9/h4H2,(H3,7,8,9)	InChI=1S/C5H5N3O/c6-3-1-2-4-8-5(7)9/h4H2,(H3,7,8,9)
