16
gdb 27307	3.23133	1.41681	0.9914	4.3303	76.68	-0.222	-0.0105	0.2114	1148.837	0.125927	-434.118552	-434.110361	-434.109417	-434.151104	31.14	
C	-0.0222263626	 1.4939564807	 0.0142729234	-0.472418
C	-0.0156172214	-0.0038353747	 0.0098824118	 0.21494
C	-0.0532097865	-0.7192686461	-1.1166802059	-0.057408
O	-0.0506287848	-2.0954063095	-1.1362636636	-0.225292
C	-0.0035719795	-2.7071062826	 0.0769655498	 0.47915
N	-0.060661745	-4.0601734532	-0.0672376523	-0.564729
N	 0.0494167105	-2.1357307599	 1.2217698288	-0.395773
C	 0.0376773435	-0.7351221577	 1.2888579606	 0.267361
N	 0.0761702801	-0.08373511	 2.390524827	-0.535076
H	 0.8701637391	 1.8764948375	 0.5188700417	 0.146867
H	-0.0620141333	 1.8995156735	-1.0007951039	 0.107189
H	-0.8782458409	 1.8682388215	 0.583834394	 0.147544
H	-0.0913990077	-0.3206939281	-2.1218534347	 0.132046
H	 0.2021716884	-4.4436383241	-0.9600845056	 0.268845
H	 0.1819077148	-4.5908082092	 0.7529581078	 0.276298
H	 0.1106145352	-0.7507788683	 3.1643038112	 0.210456
94.6499	166.9817	180.2052	282.6982	318.7272	344.2384	388.8203	406.9376	465.4706	488.1547	543.0299	569.8342	728.9896	744.3337	773.7026	791.85	873.3646	908.973	916.352	1016.3334	1055.6402	1068.9933	1171.1976	1203.4849	1230.9362	1328.743	1404.2765	1416.5735	1433.0584	1463.5489	1484.7558	1605.6295	1663.45	1712.6465	1742.6612	3040.6047	3105.0325	3118.0635	3226.209	3458.2244	3606.8292	3731.4691
CC1=COC(N)=NC1=N	CC1=CO[C@H](N)N=C1[NH]	
InChI=1S/C5H7N3O/c1-3-2-9-5(7)8-4(3)6/h2H,1H3,(H3,6,7,8)	InChI=1S/C5H8N3O/c1-3-2-9-5(7)8-4(3)6/h2,5-6H,7H2,1H3/t5-/m1/s1
