17
gdb 35503	3.21175	1.4052	1.18035	4.724	77.35	-0.2455	0.0047	0.2503	1061.5587	0.138672	-380.870778	-380.863482	-380.862538	-380.902768	28.382	
N	-0.815689758	-0.7246651247	-1.2534154144	-0.330125
C	-0.4959320189	 0.230986656	-0.6874333463	 0.304891
C	-0.08408734	 1.4577835935	-0.0016246517	-0.134947
N	-0.0043484586	 1.3651542975	 1.4714763147	-0.308071
C	 1.2889780743	 2.0982406685	 1.5036436646	 0.005296
C	 2.4209703557	 1.3206774358	 2.198009107	-0.254192
C	 2.9654622788	 0.4589748033	 1.0811853812	-0.048599
C	 2.4360432105	 0.7435507101	-0.1093550576	-0.071204
C	 1.4318753582	 1.8585416187	-0.0316341604	-0.097281
H	-0.7111499069	 2.2796915274	-0.3734102668	 0.109584
H	-0.7767250327	 1.7946600309	 1.9672329737	 0.227577
H	 1.2088668109	 3.1429782585	 1.8204043117	 0.070921
H	 3.1927232421	 1.9837894548	 2.611261033	 0.103861
H	 2.0261192508	 0.7262344598	 3.0301479015	 0.119275
H	 3.7140496904	-0.3064705373	 1.254338473	 0.101748
H	 2.6845003364	 0.2493487073	-1.0411881982	 0.110552
H	 1.6517608971	 2.70237963	-0.688927265	 0.090714
83.5278	131.8262	229.6047	285.737	380.6973	432.6642	512.3755	561.4834	644.9379	705.4816	751.0434	771.4757	804.3463	863.0551	874.4219	948.6336	972.8624	976.757	989.6184	1020.4209	1048.7447	1055.1699	1090.6935	1133.9515	1154.1585	1191.4031	1240.2094	1244.8686	1289.4778	1309.8355	1337.6092	1365.3906	1391.0058	1402.0441	1468.1094	1677.3817	2355.243	3006.7086	3017.7155	3051.9164	3063.9892	3087.189	3188.7454	3214.1344	3543.422
N#CC1NC2CC=CC12	N#C[C@H]1N[C@H]2CC=C[C@@H]12	
InChI=1S/C7H8N2/c8-4-7-5-2-1-3-6(5)9-7/h1-2,5-7,9H,3H2	InChI=1S/C7H8N2/c8-4-7-5-2-1-3-6(5)9-7/h1-2,5-7,9H,3H2/t5-,6+,7-/m1/s1
