16
gdb 110813	2.35219	1.65045	1.22652	4.8959	69.02	-0.2538	-0.0027	0.2511	1044.0188	0.123165	-437.825585	-437.817269	-437.816325	-437.859003	29.877	
C	 0.2483048033	 0.9875065051	 0.3086229569	-0.239541
O	-0.4290075082	 0.0309253202	-0.4931073974	-0.228963
C	 0.3918066536	-0.6138986217	-1.3944401685	 0.112964
C	 1.4283104658	-1.6136515347	-0.9769632974	 0.030811
O	 1.0470023969	-2.2648835462	 0.2388441372	-0.279691
C	-0.1176342631	-2.8307460043	-0.4110994388	-0.012133
C	-1.3751132184	-2.6204960814	 0.3114547399	 0.303175
N	-2.3784673322	-2.5382307764	 0.8778749832	-0.326379
C	 0.1606232489	-2.06410094	-1.708073403	-0.214946
H	 1.0389791178	 0.5148646858	 0.9040732689	 0.128862
H	 0.6877719267	 1.7866926609	-0.3054619013	 0.107349
H	-0.498580138	 1.4201625805	 0.9764001798	 0.141677
H	 0.6850585407	-0.0293546625	-2.2708015436	 0.101444
H	 2.4789095984	-1.6211232729	-1.241927588	 0.117678
H	 0.028246453	-3.9089488427	-0.5433420128	 0.136672
H	-0.0133006253	-2.4559671295	-2.7002202551	 0.121021
77.0308	104.2265	142.5273	181.5612	244.6613	264.1628	348.703	471.4934	537.942	579.0016	674.073	735.977	806.7894	832.2989	930.1799	944.3127	984.9646	1009.7586	1032.9258	1055.2315	1073.1185	1091.5639	1123.1193	1174.6659	1199.8077	1246.9133	1253.257	1270.1334	1328.7846	1358.1683	1425.1487	1487.6355	1488.6607	1501.618	2361.483	2997.1347	3046.413	3063.5344	3073.5098	3135.9751	3188.7104	3215.8295
COC1C2OC(C#N)C12	CO[C@H]1[C@H]2O[C@@H](C#N)[C@@H]12	
InChI=1S/C6H7NO2/c1-8-5-4-3(2-7)9-6(4)5/h3-6H,1H3	InChI=1S/C6H7NO2/c1-8-5-4-3(2-7)9-6(4)5/h3-6H,1H3/t3-,4-,5+,6-/m0/s1
