21
gdb 74938	3.03216	1.65102	1.33005	0.2494	87.16	-0.2182	0.0281	0.2463	1046.721	0.185157	-349.948633	-349.941291	-349.940347	-349.980001	30.525	
C	-0.0197587864	 1.5084759415	 0.0475527174	-0.495748
C	-0.0529151692	 0.013781579	-0.0109308072	 0.329017
C	-0.0654973219	-0.7585939629	-1.1033040133	-0.182622
C	-0.0103898242	-2.2263080891	-0.7748819064	-0.062338
C	 1.434644571	-2.7971933151	-0.5064646106	-0.235496
C	 1.2060185792	-2.6865832842	 1.0253398445	-0.012769
C	 1.4556095181	-1.2894948366	 1.6567822338	-0.238869
C	 0.0055807237	-0.8317401683	 1.2422245445	-0.114982
C	-0.2831308675	-2.2860670535	 0.7625899694	-0.040155
H	 0.8854871457	 1.8655328184	 0.5562331736	 0.124916
H	-0.0445827449	 1.9553195407	-0.9501894955	 0.120869
H	-0.8699150464	 1.901674302	 0.6199644778	 0.122253
H	-0.046022079	-0.3833728661	-2.1220934318	 0.080166
H	-0.6217323476	-2.8536605325	-1.4284017118	 0.062766
H	 1.5301664484	-3.8392190686	-0.8260523659	 0.094218
H	 2.2669377067	-2.226454726	-0.9287160274	 0.089846
H	 1.5028428018	-3.5485316617	 1.6246056574	 0.059712
H	 1.5744105954	-1.3501191534	 2.7425080623	 0.095059
H	 2.2836920865	-0.7007566972	 1.2499952454	 0.090026
H	-0.5898183764	-0.4327091827	 2.0685137157	 0.058826
H	-1.1519488731	-2.8238083836	 1.1415661682	 0.055305
141.7662	191.1989	219.4219	302.3604	328.5443	412.1497	541.2663	570.8404	643.1858	683.0444	754.0625	790.9604	819.4648	844.5534	875.9697	892.1255	913.8723	935.3454	945.3608	966.5848	982.3967	1023.1836	1041.6837	1055.7323	1081.3282	1103.5026	1134.5498	1151.7497	1172.8142	1211.7928	1217.7209	1243.1996	1253.7231	1260.9997	1278.0898	1293.9003	1320.2656	1324.2491	1350.7076	1412.5545	1473.1672	1479.1834	1482.7487	1489.6821	1705.9217	3013.0514	3041.9295	3043.0807	3057.123	3058.0559	3067.4191	3084.9749	3095.8361	3100.472	3107.6735	3112.7562	3175.1293
CC1=CC2CC3CC1C23	CC1=C[C@H]2C[C@H]3C[C@@H]1[C@@H]23	
InChI=1S/C9H12/c1-5-2-6-3-7-4-8(5)9(6)7/h2,6-9H,3-4H2,1H3	InChI=1S/C9H12/c1-5-2-6-3-7-4-8(5)9(6)7/h2,6-9H,3-4H2,1H3/t6-,7-,8-,9-/m0/s1
