17
gdb 65912	2.43434	1.35932	1.19273	1.5328	68.72	-0.2565	-0.1042	0.1523	1107.0924	0.133023	-458.954713	-458.945427	-458.944483	-458.989807	32.177	
C	-0.4746431453	 1.4659216443	 0.2388938975	-0.481411
C	-0.0850618222	-0.0074841928	 0.0679128709	 0.179488
C	 1.0657850608	-0.2706122611	-0.9470368106	-0.111832
O	 1.9424579742	-0.7095701188	 0.1038586651	-0.268921
C	 0.9159523653	-0.5608387154	 1.1069094253	-0.119733
C	-1.3166029323	-0.8591183911	-0.1380863969	 0.238131
O	-1.7575960017	-1.6470715373	 0.6666410778	-0.282314
C	-2.0669045162	-0.720060555	-1.4742015005	 0.088693
O	-1.7093479088	-0.0068663442	-2.3747547144	-0.221363
H	 0.4261132387	 2.0669895545	 0.3949069751	 0.136445
H	-0.988615596	 1.8435197514	-0.6483132564	 0.148243
H	-1.1270855496	 1.6014481551	 1.1079513901	 0.131551
H	 0.8824660153	-1.0578661329	-1.6882923388	 0.107306
H	 1.4360048601	 0.6227028447	-1.4632541007	 0.112758
H	 1.2079960048	 0.1425123106	 1.8955746188	 0.103098
H	 0.6284714461	-1.5164536124	 1.5576805774	 0.122231
H	-2.9718132232	-1.3618487896	-1.5216148797	 0.117633
45.7881	67.5865	120.1799	155.9897	205.1171	228.5262	280.9023	326.3306	367.3716	478.849	562.1701	612.2977	652.8616	834.9998	862.0606	925.9058	960.9943	983.5507	1001.9308	1024.2887	1041.1673	1128.7628	1154.5743	1158.9211	1173.8817	1219.5009	1306.6693	1312.2017	1363.5114	1372.721	1407.3904	1491.7393	1500.4889	1514.891	1537.333	1794.8601	1819.9216	2927.0543	3016.622	3029.4499	3038.6797	3064.926	3080.2787	3107.5831	3129.4482
CC1(COC1)C(=O)C=O	CC1(COC1)C(=O)C=O	
InChI=1S/C6H8O3/c1-6(3-9-4-6)5(8)2-7/h2H,3-4H2,1H3	InChI=1S/C6H8O3/c1-6(3-9-4-6)5(8)2-7/h2H,3-4H2,1H3
