17
gdb 92319	2.40184	1.87735	1.23583	1.9128	67.04	-0.2553	-0.046	0.2093	997.926	0.135855	-458.964421	-458.956614	-458.95567	-458.997063	29.761	
O	 0.5635841072	 0.9674548621	-0.7345098257	-0.439234
C	 0.1329996889	-0.1490469722	-0.0131580919	 0.159962
C	 0.0438299719	-0.0887532574	 1.5454518186	-0.306429
C	-1.31099696	-0.8565386081	 1.4669318513	 0.12227
O	-2.4448166338	-0.2836208952	 2.1151704939	-0.264299
C	-2.9475324382	 0.7792193724	 1.3312132317	-0.180094
C	-2.2804566426	 0.684107959	-0.0444060046	 0.359308
O	-2.3846608663	 1.4896887053	-0.9381726111	-0.321143
C	-1.3787169616	-0.54045671	-0.0395139668	-0.230381
H	-0.2070736511	 1.4887837921	-0.9929877434	 0.301403
H	 0.742308964	-1.002846126	-0.3280773649	 0.09311
H	 0.8537707589	-0.5508863247	 2.1120372332	 0.111499
H	-0.0949128266	 0.937689003	 1.897129322	 0.116285
H	-1.2598895347	-1.9042254352	 1.763129345	 0.09523
H	-4.0374086986	 0.6946430261	 1.2401952815	 0.140064
H	-2.7250779548	 1.7640182871	 1.7680228641	 0.133722
H	-1.7136742325	-1.2774999683	-0.7724480328	 0.108726
67.6385	134.2036	160.2682	268.3338	353.986	403.679	432.4129	475.9612	539.0423	634.0053	654.3849	707.6303	757.3359	807.6164	895.8207	915.7732	955.2785	975.803	996.6946	1065.2624	1066.2867	1094.1051	1147.4422	1168.6679	1179.9298	1205.3286	1229.3332	1231.4889	1257.8256	1298.361	1321.4781	1358.9772	1375.8086	1439.0637	1473.3412	1483.7157	1823.7284	3003.4932	3047.9237	3052.9262	3068.1346	3093.536	3112.582	3132.9634	3765.7756
OC1CC2OCC(=O)C12	O[C@H]1C[C@H]2OCC(=O)[C@@H]12	
InChI=1S/C6H8O3/c7-3-1-5-6(3)4(8)2-9-5/h3,5-7H,1-2H2	InChI=1S/C6H8O3/c7-3-1-5-6(3)4(8)2-9-5/h3,5-7H,1-2H2/t3-,5+,6+/m0/s1
