20
gdb 58341	2.16609	1.35846	1.02625	2.7697	78.53	-0.2423	0.0069	0.2492	1250.5723	0.170977	-436.51439	-436.504323	-436.503379	-436.54922	37.208	
C	 1.0739589064	-1.0465492921	 0.2238285407	-0.390246
C	 0.0426479309	 0.0443779842	-0.0941341582	 0.026417
C	 0.3866108089	 0.8269873624	-1.3703273841	-0.390397
N	-1.3406246887	-0.4947689414	-0.126234546	-0.126245
C	-1.7651241278	-1.3469004282	-1.1405569182	 0.094897
N	-0.9864828148	-1.7768539676	-2.0527572611	-0.485347
C	-2.3022334569	-0.1900374426	 0.8556059632	 0.466041
N	-1.8236059401	 0.422642292	 1.9991804831	-0.569179
O	-3.4870461389	-0.4197398815	 0.7076293297	-0.388715
H	 2.0658331444	-0.5973509961	 0.3356771855	 0.114734
H	 0.8284634922	-1.5644638664	 1.157361858	 0.101743
H	 1.1102037948	-1.7828707441	-0.5802357871	 0.160645
H	 0.0447336824	 0.7763715621	 0.714256143	 0.096751
H	 0.4544903707	 0.1664854306	-2.2332853868	 0.161029
H	-0.3701808695	 1.5919331868	-1.5676985998	 0.117117
H	 1.3482296691	 1.3302337715	-1.2274201486	 0.110133
H	-2.8221936134	-1.5885755298	-1.0311226815	 0.145158
H	-1.5051414191	-2.3892964024	-2.6792231273	 0.226795
H	-0.906146417	 0.1859108836	 2.3413964786	 0.262833
H	-2.5356170533	 0.4796461788	 2.7116662669	 0.265833
65.9975	84.6235	167.6427	218.3492	224.681	241.344	254.085	265.5294	338.7558	428.9392	444.2519	468.7857	475.4194	524.5203	570.3489	671.6769	749.7012	782.5478	829.1978	891.2353	935.5407	953.8428	1075.4041	1083.5475	1100.3412	1112.9379	1151.6782	1199.0436	1217.5911	1351.2697	1360.4691	1387.2431	1392.7436	1404.9767	1417.0364	1444.7283	1478.7654	1495.2903	1503.5536	1521.9762	1620.3022	1712.8253	1794.6343	3037.5306	3046.7794	3099.6807	3101.0874	3109.8451	3138.042	3149.8748	3169.2864	3501.9815	3584.6333	3698.0394
CC(C)N(C=N)C(N)=O	CC(C)N(C=N)C(=O)N	
InChI=1S/C5H11N3O/c1-4(2)8(3-6)5(7)9/h3-4,6H,1-2H3,(H2,7,9)	InChI=1S/C5H11N3O/c1-4(2)8(3-6)5(7)9/h3-4,6H,1-2H3,(H2,7,9)
