18
gdb 90860	3.78055	1.50288	1.26315	3.5133	76.	-0.2296	-0.0268	0.2028	1020.2923	0.148155	-401.86887	-401.861709	-401.860765	-401.900038	29.308	
C	-0.0830497003	 1.5539103766	 0.0992395388	-0.399549
C	 0.0663361033	 0.0423573011	 0.0173394736	 0.052353
C	 0.7216356828	-0.4550416659	-1.3294867536	-0.233753
C	 0.850528788	-1.9947107892	-1.311519545	-0.061009
C	 1.7795745087	-2.933232012	-0.4591834273	 0.076707
O	 2.3978267895	-2.3111871731	 0.708981095	-0.269115
C	 1.1543318128	-1.6876991163	 0.8921422514	 0.303951
N	 1.0281112548	-0.4450868739	 1.0296929509	-0.221947
C	 0.3972535022	-2.6474621993	-0.0263311167	-0.249402
H	 0.8949137247	 2.0387816894	 0.0294046547	 0.127743
H	-0.7186987354	 1.9270548702	-0.7104349482	 0.108135
H	-0.534804364	 1.8429402859	 1.0523994044	 0.123273
H	-0.922711684	-0.4326741835	 0.103682699	 0.080437
H	 0.1038876134	-0.160742117	-2.1863902688	 0.099465
H	 1.6902772804	 0.0426477769	-1.4379647117	 0.124469
H	 0.5348005512	-2.4966623518	-2.224605832	 0.099786
H	 2.264032754	-3.8195555268	-0.8477031824	 0.122248
H	-0.4706213221	-3.2608917311	 0.1692221979	 0.116209
161.7757	203.1178	233.7652	296.8683	396.6561	462.843	484.4503	532.4921	555.2373	694.3214	736.5854	779.1619	799.0559	837.0295	845.7617	898.8121	918.2194	938.483	951.5194	1017.6745	1044.1489	1052.5568	1075.2643	1087.5963	1107.0167	1149.9045	1152.2567	1215.4556	1231.3489	1295.5896	1306.575	1308.9055	1366.6267	1373.8909	1410.4835	1477.5409	1486.8412	1498.2801	1721.3718	2983.1906	3035.149	3040.9198	3087.2594	3111.6119	3119.3875	3128.871	3203.8942	3216.552
CC1CC2C3OC(=N1)C23	C[C@H]1C[C@H]2[C@H]3O[C]([N]1)[C@@H]23	
InChI=1S/C7H9NO/c1-3-2-4-5-6(4)9-7(5)8-3/h3-6H,2H2,1H3	InChI=1S/C7H9NO/c1-3-2-4-5-6(4)9-7(5)8-3/h3-6H,2H2,1H3/t3-,4+,5-,6+/m0/s1
