15
gdb 23562	2.48327	1.57013	1.0831	1.8692	70.76	-0.2419	-0.0125	0.2294	1083.3737	0.111478	-453.810749	-453.803002	-453.802058	-453.843079	29.39	
O	-0.1253341704	 1.3398577881	 0.102045737	-0.389175
N	 0.020742159	-0.0439320585	-0.0662188192	-0.258325
C	-1.1003108271	-0.6288229067	-0.0901631024	 0.393527
C	-2.5490751078	-0.2692909719	 0.0862349482	-0.173041
N	-3.2683649926	-0.9022604773	-1.0671886617	-0.337334
C	-2.9041394255	-1.729217198	 0.101637677	-0.174608
C	-1.436829244	-2.1049648868	-0.1120561989	 0.422651
C	-0.8126771238	-3.2558676188	-0.7572235808	-0.253102
O	-0.7597670492	-3.0657715476	 0.6688581484	-0.275579
H	 0.7896649932	 1.6408980043	 0.1218299544	 0.311199
H	-2.9704928151	 0.5649485792	 0.6278431475	 0.120785
H	-4.2517310636	-0.6481069843	-0.9590454381	 0.239275
H	-3.6311389945	-2.2578060903	 0.7032727886	 0.118734
H	-1.4333121438	-4.0835098184	-1.096255618	 0.122197
H	 0.1355092251	-3.126113013	-1.2747408021	 0.132795
123.9549	145.2442	168.7631	275.0022	288.0613	336.6359	424.765	480.9239	560.1925	610.9902	665.0517	771.7625	824.3584	832.2155	849.4702	899.9296	910.4563	970.8804	979.3374	1006.1577	1073.1371	1095.4978	1112.956	1121.3009	1145.6454	1166.9513	1277.7992	1303.0746	1335.8331	1402.7845	1455.5824	1533.843	1791.8107	3091.5918	3185.3145	3213.6654	3231.781	3454.9606	3815.6301
ON=C1C2NC2C11CO1	ON=C1[C@H]2N[C@H]2[C@]21CO2	
InChI=1S/C5H6N2O2/c8-7-4-2-3(6-2)5(4)1-9-5/h2-3,6,8H,1H2	InChI=1S/C5H6N2O2/c8-7-4-2-3(6-2)5(4)1-9-5/h2-3,6,8H,1H2/t2-,3+,5-/m0/s1
