17
gdb 19913	4.21228	1.75455	1.56495	1.5006	67.85	-0.2226	0.0605	0.2831	871.0993	0.142033	-363.747524	-363.74035	-363.739406	-363.779005	27.381	
C	 0.2464070453	 1.2719166865	-0.1731903901	-0.245546
O	-0.4251256335	 0.124524867	 0.3162855289	-0.239704
C	 0.3664454466	-0.6161733677	 1.1924794487	 0.132569
C	 0.1158472548	-2.0227372879	 1.6068808162	-0.1643
C	-0.097833814	-3.023847191	 0.4578801342	-0.028726
C	-0.0783374327	-2.4620438008	-0.9080926531	-0.253078
N	 1.208464314	-2.6806580463	-0.1949190748	-0.151209
C	 1.4250394234	-1.6421816926	 0.8811388348	-0.068435
H	 1.1408204364	 1.0021202964	-0.7515588324	 0.119799
H	-0.4554969166	 1.8037544085	-0.818843392	 0.130624
H	 0.5504538833	 1.9375654303	 0.6487418956	 0.110532
H	 0.6953322215	-0.0192275824	 2.0506067723	 0.093068
H	-0.0466089252	-2.2974498301	 2.6415572625	 0.096198
H	-0.3449868707	-4.0599804471	 0.6658548999	 0.098887
H	-0.1920590789	-3.1756719282	-1.7201657802	 0.116113
H	-0.4426455335	-1.4645983846	-1.0998687929	 0.152442
H	 2.4385331401	-1.5588682397	 1.2564665724	 0.100763
81.6857	163.721	189.2211	279.7251	337.4023	417.6788	560.0716	637.713	687.2442	723.4315	748.3824	772.7067	880.8479	903.8538	953.2077	982.1367	1010.1576	1027.2849	1056.4011	1076.5104	1089.022	1109.0778	1128.1732	1151.3739	1182.0204	1200.5076	1231.0694	1256.7652	1281.1478	1344.0155	1361.928	1436.4304	1480.0291	1486.6818	1496.8076	1511.0191	2986.3387	3039.8158	3043.574	3124.7681	3128.9358	3158.2387	3172.2887	3190.425	3265.3447
COC1C2C3CN3C12	CO[C@H]1[C@H]2[C@H]3CN3[C@@H]12	
InChI=1S/C6H9NO/c1-8-6-4-3-2-7(3)5(4)6/h3-6H,2H2,1H3	InChI=1S/C6H9NO/c1-8-6-4-3-2-7(3)5(4)6/h3-6H,2H2,1H3/t3-,4+,5-,6+,7?/m1/s1
