18
gdb 36738	5.53132	0.72376	0.67441	5.2974	73.24	-0.2689	0.0392	0.3081	1619.4424	0.148067	-439.103699	-439.09479	-439.093845	-439.139107	30.946	
N	-0.2535454839	-1.1083038195	-0.1141410448	-0.304757
C	-0.1680881303	 0.0440490965	-0.1157705988	 0.25841
C	-0.0433253281	 1.4990308966	-0.1170931272	-0.342139
C	 1.4213242682	 1.9639735001	-0.0205935906	-0.215734
C	 1.5139101177	 3.4812783786	-0.0350430878	 0.219605
O	 0.7750101363	 4.042472271	 1.0446819013	-0.278082
C	 1.5868585581	 5.0310514608	 1.6770850162	-0.087444
C	 2.7915569412	 5.16103778	 0.7358662842	-0.110012
O	 2.8509094651	 3.8772642895	 0.1299926497	-0.251911
H	-0.5091633355	 1.8855430864	-1.0316330883	 0.150873
H	-0.6117501652	 1.9070490082	 0.724618314	 0.172688
H	 1.8736431893	 1.6011955289	 0.9063691758	 0.131647
H	 2.0034215262	 1.5666689171	-0.8573461939	 0.131704
H	 1.1088751723	 3.8908119469	-0.980789836	 0.067688
H	 1.022007242	 5.9629796742	 1.7809425718	 0.113816
H	 1.8844712115	 4.6821439884	 2.6735572359	 0.112588
H	 2.6268316392	 5.9434551634	-0.0198843728	 0.105225
H	 3.7382490459	 5.3481983732	 1.2456908514	 0.125837
35.7052	74.7727	97.6995	109.6211	198.6404	247.3229	369.4843	396.5566	459.485	577.9008	671.6808	722.4033	774.3044	873.7813	893.4298	932.1557	953.1724	1013.6165	1042.255	1052.5883	1074.4303	1096.6384	1153.1542	1171.9648	1206.3793	1225.5084	1246.6844	1274.61	1305.3739	1339.1398	1369.1197	1382.2245	1399.6445	1435.7351	1469.5236	1485.662	1512.6689	1529.1736	2364.1958	2913.8704	2997.2822	3026.401	3043.6946	3066.0343	3078.3885	3090.3972	3119.0604	3120.2294
N#CCCC1OCCO1	N#CCCC1OCCO1	
InChI=1S/C6H9NO2/c7-3-1-2-6-8-4-5-9-6/h6H,1-2,4-5H2	InChI=1S/C6H9NO2/c7-3-1-2-6-8-4-5-9-6/h6H,1-2,4-5H2
