20
gdb 7770	3.25261	1.64299	1.16967	1.2592	76.72	-0.2404	0.0252	0.2656	1059.8362	0.178008	-349.026042	-349.01793	-349.016986	-349.058115	31.605	
C	-0.0248702304	 1.5552387393	-0.0106417188	-0.399118
C	 0.0194985823	 0.0192467802	 0.0033845575	-0.025651
C	 0.6668285365	-0.537152771	-1.2757820656	-0.192751
C	 0.9680911287	-2.0265921743	-1.1500594842	 0.115505
O	 1.4627230404	-2.4717638022	-2.4070272168	-0.442018
C	 1.9707564684	-2.27142073	-0.014943336	-0.276276
C	 1.6021163243	-1.5032093673	 1.228842544	-0.0797
C	 0.7268768654	-0.4983874422	 1.2343380698	-0.031156
H	 0.9868173125	 1.9749226456	-0.0308214884	 0.118042
H	-0.5609737861	 1.9231281487	-0.8916608801	 0.11276
H	-0.5314872577	 1.9450347596	 0.8785843654	 0.110008
H	-1.023824058	-0.333351935	 0.042897072	 0.081549
H	 0.0186562777	-0.3681628615	-2.1419499952	 0.099398
H	 1.6089349505	-0.0089552063	-1.4730706267	 0.099915
H	 0.0292089802	-2.5522961918	-0.9052305471	 0.063602
H	 1.6777744331	-3.4066839277	-2.3272615777	 0.277646
H	 2.0316820506	-3.3452377156	 0.2120710948	 0.089731
H	 2.9710631138	-1.9801817009	-0.3669520489	 0.114526
H	 2.0808253632	-1.8068991494	 2.1568642386	 0.084075
H	 0.4931194845	 0.0037758619	 2.1714836533	 0.079911
109.1662	159.4053	241.3567	263.3273	286.0491	314.379	385.713	434.6562	448.0429	480.6493	537.8125	689.3857	742.5045	840.3223	877.3096	926.9484	935.5768	987.621	994.4829	1004.5063	1049.3101	1078.2626	1106.9521	1116.7149	1140.0941	1165.3008	1221.7293	1247.9942	1276.147	1315.155	1323.834	1339.1768	1364.1081	1385.5818	1402.9332	1421.5401	1441.7012	1477.0031	1494.621	1498.8138	1501.4137	1720.156	2950.4357	2969.5513	2999.7655	3024.8302	3028.4862	3030.9301	3078.3964	3098.165	3100.8809	3134.289	3160.3611	3812.7882
CC1CC(O)CC=C1	C[C@H]1C[C@@H](O)CC=C1	
InChI=1S/C7H12O/c1-6-3-2-4-7(8)5-6/h2-3,6-8H,4-5H2,1H3	InChI=1S/C7H12O/c1-6-3-2-4-7(8)5-6/h2-3,6-8H,4-5H2,1H3/t6-,7+/m1/s1
