22
gdb 106976	3.9631	1.05371	0.93963	1.4775	87.99	-0.2187	0.0174	0.2361	1361.1848	0.194581	-367.215403	-367.206245	-367.2053	-367.249053	35.259	
C	 0.3422103776	 1.4548384018	 0.2712365569	-0.379335
C	-0.1579284834	 0.0532735459	-0.1005810718	-0.253113
C	 0.4741417843	-0.4747583521	-1.3681188867	 0.351963
C	 0.1437127825	 0.1854216513	-2.7145313504	-0.335484
C	 0.2955262545	-0.9373042325	-3.7168389472	-0.196572
C	 0.5707914231	-2.1108522586	-3.1336113294	 0.337968
C	 0.7536206037	-3.4432612074	-3.7895003818	-0.496841
C	 0.7190463256	-1.9225992852	-1.6538675577	-0.192586
N	 1.8263995748	-1.0347361556	-1.2147575467	-0.370134
H	 1.4295927995	 1.4499917201	 0.3950130376	 0.128993
H	 0.0934842311	 2.1893835495	-0.5024618818	 0.112166
H	-0.1053676723	 1.7978220892	 1.2089809082	 0.109105
H	 0.0690243109	-0.6418752527	 0.7145856848	 0.104011
H	-1.2492842747	 0.0631016813	-0.2193365839	 0.090729
H	-0.8805417477	 0.5840447086	-2.7099259209	 0.108695
H	 0.8005079831	 1.0383590564	-2.932125625	 0.109634
H	 0.210831136	-0.7808376216	-4.7871642572	 0.088263
H	 0.6149367462	-3.3809981438	-4.8721838022	 0.12362
H	 1.7528079959	-3.8518499492	-3.593300512	 0.129779
H	 0.0366990873	-4.1760951707	-3.3979904978	 0.12817
H	 0.4741052721	-2.7260501797	-0.9643448439	 0.081883
H	 2.40649992	-0.8058075649	-2.0205705411	 0.219085
75.7648	122.5263	177.905	209.365	225.943	279.2276	286.8474	367.9458	405.0468	408.7796	574.3256	615.4897	642.8416	751.7848	783.1069	811.5363	824.0502	892.9906	939.9527	950.2713	966.3877	976.3361	1027.3818	1050.3454	1059.1544	1068.385	1105.2169	1125.3267	1169.5096	1184.4329	1188.7274	1260.8759	1278.5113	1291.6381	1333.0579	1348.8287	1367.6185	1405.7023	1414.7298	1429.9465	1473.4583	1478.1154	1478.644	1489.5153	1500.4203	1508.6657	1703.1621	3008.2496	3018.822	3023.7703	3033.8876	3037.1824	3065.2134	3070.9269	3102.4935	3111.5591	3111.7305	3144.4628	3185.0558	3468.1308
CCC12CC=C(C)C1N2	CC[C@]12CC=C(C)[C@H]1N2	
InChI=1S/C8H13N/c1-3-8-5-4-6(2)7(8)9-8/h4,7,9H,3,5H2,1-2H3	InChI=1S/C8H13N/c1-3-8-5-4-6(2)7(8)9-8/h4,7,9H,3,5H2,1-2H3/t7-,8+/m1/s1
