20
gdb 82229	2.38046	2.05587	1.49465	2.0161	77.53	-0.2224	0.0679	0.2903	954.2325	0.173999	-403.104796	-403.097646	-403.096702	-403.135852	30.175	
O	-0.1065169518	 1.4683081058	-0.08139149	-0.437557
C	 0.0049161414	 0.0482165643	-0.0363911581	 0.109711
C	-1.3988445469	-0.5524572277	 0.0479486733	-0.022265
C	-2.487964498	-0.1466846512	-0.8836731013	-0.249616
N	-1.8385303422	-1.4461781467	-1.040326401	-0.096964
C	-0.8273109152	-1.6203936354	-2.0930754516	 0.026766
C	-0.073991602	-0.3263054307	-2.5320619062	-0.242958
C	 0.7686152355	-0.5135816337	-1.2481656201	-0.046973
C	 0.4894048528	-2.039727962	-1.3811842513	-0.231305
H	 0.7856773681	 1.8318144967	-0.1018497106	 0.278201
H	 0.5446332139	-0.2537041773	 0.8754211077	 0.064799
H	-1.6881472567	-0.8924569062	 1.0390750368	 0.088438
H	-3.5185731385	-0.1914784545	-0.5418879159	 0.111293
H	-2.2858073981	 0.6494694296	-1.5914361632	 0.126682
H	-1.2433077923	-2.2622261975	-2.8723191823	 0.071279
H	 0.5142991761	-0.5241068103	-3.4320432716	 0.095353
H	-0.6143067932	 0.6121487515	-2.6632903478	 0.106746
H	 1.8076312416	-0.168203454	-1.2435472771	 0.048463
H	 0.3858334435	-2.636540955	-0.4707577472	 0.100736
H	 1.1940433623	-2.5210521358	-2.0629751024	 0.09917
152.4846	224.1211	300.4383	346.6317	396.5259	424.3723	443.165	504.7473	570.5442	664.0443	709.3903	785.7667	815.9345	869.871	883.0677	898.8416	906.2523	943.125	981.7744	1003.6749	1026.4205	1054.303	1073.1529	1101.2899	1112.4274	1113.912	1136.4	1150.4319	1161.4362	1177.108	1239.7931	1246.3739	1262.1064	1273.2736	1310.0607	1336.5696	1342.807	1364.8945	1404.3775	1438.8698	1473.7527	1500.0102	1525.4517	2966.7282	3046.0808	3060.2806	3068.7789	3085.0945	3117.3315	3119.8769	3127.3125	3130.2084	3207.6081	3797.6123
OC1C2CN2C2CC1C2	O[C@H]1[C@H]2CN2[C@H]2C[C@@H]1C2	
InChI=1S/C7H11NO/c9-7-4-1-5(2-4)8-3-6(7)8/h4-7,9H,1-3H2	InChI=1S/C7H11NO/c9-7-4-1-5(2-4)8-3-6(7)8/h4-7,9H,1-3H2/t4-,5+,6-,7-,8?/m1/s1
