17
gdb 109007	4.27833	1.0101	0.96804	0.8582	69.54	-0.2423	-0.0014	0.2409	1238.2074	0.135899	-458.903594	-458.895706	-458.894762	-458.936201	30.542	
O	 0.1329146546	 1.3373382565	-0.0078354345	-0.40343
C	-0.0075225922	-0.0687597763	-0.0727142977	-0.198789
C	-1.4286558222	-0.5233110812	-0.0377768797	 0.323387
C	-2.5795599525	 0.165341838	-0.0469350208	-0.207166
C	-3.6119554309	-0.9500613608	-0.0233688295	-0.037952
O	-3.0455308148	-1.8959607066	 0.9591170608	-0.311762
C	-1.9400635859	-1.9617471523	-0.0090403532	-0.113888
C	-3.0466983324	-1.9172614559	-1.1343777039	 0.201909
O	-3.7493374891	-3.0943372184	-1.3408432211	-0.444348
H	-0.2553315512	 1.6265651356	 0.8249033614	 0.287529
H	 0.4655919481	-0.3741740037	-1.0156245487	 0.130128
H	 0.5622152989	-0.5719773689	 0.7278000994	 0.104245
H	-2.7548361961	 1.2282876558	-0.1139897899	 0.11754
H	-4.6724849351	-0.7415404838	 0.1092531502	 0.085768
H	-1.2608454289	-2.8022879812	 0.1332433671	 0.082913
H	-2.7850560907	-1.4927625078	-2.1054778194	 0.096148
H	-3.9627824395	-3.4324829891	-0.4595781605	 0.287768
75.6364	159.9558	178.1626	283.9531	314.4732	352.6423	405.7403	509.7235	556.5102	574.7752	661.8298	688.9412	777.5206	814.2742	845.1355	861.7892	916.7221	929.5199	944.2579	992.8938	1033.5698	1072.9983	1125.6354	1128.5179	1163.4005	1192.5699	1203.4215	1209.7778	1231.4769	1276.5511	1298.8384	1301.3586	1385.2821	1419.7109	1433.0302	1488.6864	1669.4258	2954.4913	3032.9594	3108.4325	3128.5909	3140.758	3249.9024	3749.6405	3809.3494
OCC1=CC2OC1C2O	OCC1=C[C@@H]2O[C@H]1[C@H]2O	
InChI=1S/C6H8O3/c7-2-3-1-4-5(8)6(3)9-4/h1,4-8H,2H2	InChI=1S/C6H8O3/c7-2-3-1-4-5(8)6(3)9-4/h1,4-8H,2H2/t4-,5-,6+/m0/s1
