15
gdb 15216	2.66221	1.65911	1.30664	4.2863	67.03	-0.2636	-0.0412	0.2224	969.6367	0.117621	-362.676022	-362.667874	-362.66693	-362.708877	28.714	
C	-0.0923311565	 1.5714811026	 0.0810472652	-0.421348
C	 0.0365693357	 0.0679585554	-0.0293398631	-0.029205
C	 0.6776970888	-0.6282889795	-1.2187656847	-0.132507
C	 1.268489057	 0.135312621	-2.3522131408	 0.158535
O	 1.1257396834	-0.1951324017	-3.5027591726	-0.256941
C	 1.358610486	-0.6404035217	 0.1611660377	-0.199554
C	 2.5586772549	 0.1204359968	 0.3807526554	 0.293391
N	 3.5195130013	 0.7354154622	 0.5736233582	-0.333801
H	 0.8179575575	 2.0931272335	-0.2213759268	 0.148534
H	-0.9174885026	 1.9330430063	-0.5399129209	 0.137704
H	-0.3013254944	 1.8525252884	 1.1176839575	 0.139246
H	-0.8078418309	-0.4801563209	 0.3784935072	 0.120164
H	 0.2388260205	-1.5699049796	-1.5300000486	 0.125713
H	 1.8572637521	 1.0348397764	-2.0786497882	 0.102287
H	 1.3510963774	-1.5961151195	 0.6741235746	 0.147784
84.1729	125.9505	149.9988	185.0709	232.865	313.5894	361.7781	433.3885	470.325	580.2357	631.3935	747.3059	808.4039	887.7546	934.2338	964.2247	1018.3231	1048.464	1094.7322	1128.2659	1147.4335	1178.0777	1237.5298	1333.9755	1362.2611	1406.757	1425.8368	1446.4584	1491.706	1504.3394	1817.3597	2352.434	2924.5474	3048.406	3111.3596	3130.7885	3155.0683	3171.1161	3183.8236
CC1C(C=O)C1C#N	C[C@H]1[C@@H](C=O)[C@H]1C#N	
InChI=1S/C6H7NO/c1-4-5(2-7)6(4)3-8/h3-6H,1H3	InChI=1S/C6H7NO/c1-4-5(2-7)6(4)3-8/h3-6H,1H3/t4-,5+,6-/m1/s1
