16
gdb 45535	4.43483	1.27829	1.05096	2.0307	74.22	-0.2507	-0.0395	0.2112	1094.1543	0.126807	-437.898147	-437.891206	-437.890262	-437.929678	26.865	
N	-0.0730182579	 1.268354735	 0.1228816102	-0.542628
C	-0.0347758854	 0.0138480587	-0.0208628222	 0.415219
O	 1.124880267	-0.7281673173	-0.2048212521	-0.262653
C	 0.7680148014	-2.0840166661	-0.4222858888	 0.02624
C	 1.2251207333	-3.1702278769	 0.5610532371	-0.107514
O	 0.2262327343	-4.1847755703	 0.391157545	-0.271636
C	-1.0513879228	-3.5770820736	 0.1115778297	-0.16248
C	-0.7116081512	-2.1520649556	-0.1741758262	 0.290065
C	-1.1739193771	-0.9231663149	 0.0438155336	-0.34391
H	 0.8665213895	 1.666124329	 0.0894724262	 0.226896
H	 1.0477295884	-2.3671251192	-1.4461273569	 0.111852
H	 2.1904643638	-3.6247958822	 0.3304099046	 0.121999
H	 1.2426151199	-2.7706349301	 1.5858333445	 0.109176
H	-1.5009079822	-4.1077630248	-0.7363387314	 0.129512
H	-1.7255895545	-3.6746801981	 0.9724429846	 0.126008
H	-2.1647832864	-0.5970865935	 0.3233132621	 0.133853
109.1413	182.0589	206.7567	317.5363	350.8173	486.6844	544.2882	624.1332	693.4714	702.6657	752.1739	858.3105	864.4113	881.8242	897.3276	908.95	1005.2909	1015.6252	1040.4696	1060.0014	1091.1698	1124.8607	1155.2071	1197.6002	1208.8596	1240.7407	1298.3145	1311.0878	1326.816	1362.9511	1391.8316	1502.4967	1516.4758	1727.2728	1762.5572	2999.8756	3017.9407	3019.9589	3051.2828	3114.8835	3252.1646	3485.4888
N=C1OC2COCC2=C1	[NH]C1=C[C]2[C@@H](O1)COC2	
InChI=1S/C6H7NO2/c7-6-1-4-2-8-3-5(4)9-6/h1,5,7H,2-3H2	InChI=1S/C6H7NO2/c7-6-1-4-2-8-3-5(4)9-6/h1,5,7H,2-3H2/t5-/m0/s1
