15
gdb 31365	2.97826	1.38589	0.95167	6.043	71.51	-0.2348	-0.0259	0.2089	1172.4368	0.113545	-454.00266	-453.994364	-453.99342	-454.036441	29.344	
C	-0.0280397409	 1.4241112227	 0.1312385691	-0.319175
N	-0.0143795805	-0.0150199703	-0.0552724443	-0.361668
C	 0.6186701862	-0.5994738003	-1.0925856397	 0.52051
N	 1.1673045351	 0.0640146646	-2.0468525646	-0.407495
C	 1.7718759375	-0.6209425826	-3.1096391827	 0.37708
O	 2.2878168601	-0.0371727483	-4.0396089664	-0.358403
C	 1.7408976466	-2.0951609746	-3.014401619	-0.253363
C	 1.1529670786	-2.6797689157	-1.970954863	 0.059908
O	 0.5646950907	-1.9639901886	-0.9683108513	-0.23337
H	 0.9162079441	 1.7963056162	 0.5464511304	 0.138646
H	-0.1885986264	 1.9085025864	-0.8327421423	 0.17397
H	-0.8438262094	 1.682626926	 0.8092989673	 0.130425
H	-0.3047629577	-0.6194023507	 0.6948396485	 0.261345
H	 2.2004898719	-2.6821495187	-3.7980950213	 0.127245
H	 1.066938284	-3.743618386	-1.7895953007	 0.144344
55.1771	98.0027	136.9547	192.0102	202.8141	387.1912	401.2039	451.2282	501.417	546.9305	613.4314	727.2396	754.7269	772.6021	850.9247	924.7962	962.6228	962.8018	1040.7287	1100.1613	1157.2144	1183.3242	1236.9558	1287.8955	1318.3593	1406.9014	1450.5201	1483.0865	1508.4316	1551.0238	1643.7818	1723.8351	1793.3138	3033.0237	3109.9244	3154.219	3215.7363	3238.0924	3661.7603
CNC1=NC(=O)C=CO1	CNc1nc(=O)cco1	
InChI=1S/C5H6N2O2/c1-6-5-7-4(8)2-3-9-5/h2-3H,1H3,(H,6,7,8)	InChI=1S/C5H6N2O2/c1-6-5-7-4(8)2-3-9-5/h2-3H,1H3,(H,6,7,8)
