19
gdb 85443	2.57746	1.50208	1.1294	4.0068	75.98	-0.2309	0.0638	0.2947	1126.0535	0.160687	-419.248234	-419.239899	-419.238954	-419.28085	32.819	
C	 0.1790878633	 1.6072572446	-0.1582666224	-0.393034
C	-0.0362785292	 0.1084736671	 0.0819166788	-0.038655
N	 0.5321491823	-0.7235588145	-0.9773315447	-0.348074
C	 1.7919846717	-1.2007758968	-0.6370260423	 0.422625
O	 2.5791069033	-1.7626282377	-1.364008966	-0.410256
N	 1.972079095	-0.8956299045	 0.7098305555	-0.40409
C	 0.7352692976	-0.440704244	 1.2929939539	 0.39548
C	 0.6786082464	 0.1640943791	 2.658983521	-0.33129
C	 0.0587680937	-1.2005806878	 2.4040289222	-0.32375
H	 1.2464740754	 1.8402185041	-0.2117584416	 0.137157
H	-0.2904118604	 1.9154169957	-1.0984964102	 0.113843
H	-0.266395425	 2.2009258273	 0.6457963593	 0.119149
H	-1.1069539825	-0.0960432249	 0.193413016	 0.089136
H	 0.381614187	-0.493643147	-1.9473448488	 0.248257
H	 2.6094137979	-1.4791723474	 1.2288935785	 0.248952
H	 1.5999004327	 0.2069585297	 3.2307074111	 0.119781
H	 0.0151381343	 1.0055460767	 2.8299157723	 0.120205
H	-1.0235447875	-1.2798959171	 2.3951049087	 0.118844
H	 0.5673375239	-2.0714630825	 2.8052097988	 0.115722
106.4324	133.6501	219.6537	256.1671	277.6163	313.9352	418.407	463.8371	487.5166	526.4119	544.0804	564.861	703.3979	757.6683	764.533	783.9806	889.6987	920.1157	954.666	966.3631	981.9151	999.5056	1043.3175	1055.7979	1079.0791	1108.5091	1138.943	1187.0887	1233.1931	1283.8275	1294.3851	1361.257	1390.786	1404.3156	1407.6518	1444.7206	1461.6366	1492.7672	1496.5127	1511.3963	1852.1449	3036.0981	3038.3131	3104.5729	3121.6607	3123.7528	3129.5099	3204.3262	3219.1133	3636.3982	3638.1314
CC1NC(=O)NC11CC1	C[C@H]1NC(=O)NC21CC2	
InChI=1S/C6H10N2O/c1-4-6(2-3-6)8-5(9)7-4/h4H,2-3H2,1H3,(H2,7,8,9)	InChI=1S/C6H10N2O/c1-4-6(2-3-6)8-5(9)7-4/h4H,2-3H2,1H3,(H2,7,8,9)/t4-/m1/s1
