21
gdb 95820	2.86718	1.15376	0.87831	1.8501	79.93	-0.2425	0.0098	0.2523	1330.8488	0.183147	-424.229298	-424.220368	-424.219424	-424.262521	35.208	
O	-0.1918602823	 1.5213723681	-0.1676193172	-0.443611
C	-0.0190187123	 0.1160847343	-0.0145523518	 0.091325
C	-1.4250749516	-0.4976719165	 0.0359135542	-0.17522
C	-1.4740453637	-1.9251039297	 0.6036759206	-0.223354
C	-0.7453268243	-3.0195264559	-0.1922655772	-0.175221
C	 0.7755440228	-2.8317275913	-0.2812720804	 0.091332
O	 1.3199448645	-4.0873810597	-0.6750947525	-0.443613
C	 1.1714137918	-1.7360423379	-1.2477030438	-0.105198
C	 0.8265094271	-0.4564477001	-1.1319236334	-0.105198
H	 0.6811043202	 1.9257486463	-0.1972630579	 0.279023
H	 0.4708997558	-0.095130594	 0.9542355167	 0.070078
H	-2.0346730737	 0.1557812702	 0.669642752	 0.10574
H	-1.8605883151	-0.4665940752	-0.9695141074	 0.101187
H	-1.0762388011	-1.9106014642	 1.6284610569	 0.095219
H	-2.5259224763	-2.2171578664	 0.6979351775	 0.10059
H	-0.9184501257	-3.9853804736	 0.2949489876	 0.10574
H	-1.1521634263	-3.0948409005	-1.2073192445	 0.101187
H	 1.1379680605	-2.5699478604	 0.7303123209	 0.070077
H	 2.2758948829	-3.9908812793	-0.7326579805	 0.279022
H	 1.7450021383	-2.0675743715	-2.1108395747	 0.090446
H	 1.1186780383	 0.2560915873	-1.9005891753	 0.090447
81.354	164.7093	255.8592	266.0834	293.8341	297.5123	319.4969	339.1707	395.8915	424.2014	432.2246	526.2573	595.3492	675.3168	695.4349	811.4928	863.3493	903.4019	911.7979	944.2789	982.3446	1040.5697	1053.7544	1080.8315	1084.4785	1103.8032	1112.7036	1159.0149	1219.231	1223.7423	1253.3011	1284.4698	1295.4265	1332.4188	1357.5271	1361.6002	1371.0523	1386.7558	1399.5246	1412.1803	1424.3573	1484.8712	1485.7947	1494.489	1718.1557	2918.1344	2919.3858	3009.3899	3034.7645	3036.0157	3063.4065	3079.831	3083.4718	3137.4239	3160.8251	3815.0157	3815.264
OC1CCCC(O)C=C1	O[C@H]1CCC[C@@H](O)C=C1	
InChI=1S/C7H12O2/c8-6-2-1-3-7(9)5-4-6/h4-9H,1-3H2	InChI=1S/C7H12O2/c8-6-2-1-3-7(9)5-4-6/h4-9H,1-3H2/t6-,7+
