25
gdb 101241	2.52965	0.95304	0.82786	1.3733	89.77	-0.2573	0.0776	0.3349	1555.7073	0.226277	-389.486148	-389.474869	-389.473924	-389.522223	41.921	
C	 1.1356638568	 1.1338008493	-0.0707085652	-0.389798
C	 0.83469939	-0.0877746713	 0.8100204613	 0.002258
C	 1.2033989528	 0.1795223349	 2.2714881629	-0.07436
O	 2.5924974329	 0.4715811873	 2.341796958	-0.424529
C	-0.6243457433	-0.4946920101	 0.7016154968	-0.019976
C	-1.1313000856	-1.3102706006	-0.4672179356	-0.346888
C	-1.15618381	-1.8989471427	 0.9259810458	 0.338006
C	-0.2166202599	-3.0486122578	 1.2412855763	-0.45742
C	-2.5066933877	-2.0197494002	 1.6094700901	-0.448556
H	 2.180210542	 1.4352003875	 0.033268439	 0.129279
H	 0.9346784008	 0.9146630888	-1.1236644692	 0.109602
H	 0.5070469182	 1.9851711778	 0.2181079291	 0.103198
H	 1.4702920476	-0.9142897141	 0.4696088915	 0.077329
H	 0.6005854014	 1.022297198	 2.650930667	 0.078738
H	 0.9539946955	-0.7026696855	 2.8808552953	 0.085974
H	 2.8093573344	 0.688451627	 3.2527534418	 0.285296
H	-1.3020531574	 0.2921647583	 1.0326968358	 0.070478
H	-2.0695262232	-1.0291923807	-0.9349792026	 0.102547
H	-0.3903999035	-1.6960912948	-1.1616848359	 0.104213
H	 0.7417395939	-2.9618558762	 0.723453406	 0.118753
H	-0.0116912221	-3.1136702081	 2.3167485745	 0.11149
H	-0.6668405118	-4.0013804087	 0.9376174653	 0.112309
H	-3.0159741664	-2.9455376808	 1.3152201591	 0.11165
H	-2.3993168983	-2.0353732769	 2.70101506	 0.110093
H	-3.1628946771	-1.1827186604	 1.3511634227	 0.110313
63.4664	98.9077	110.2374	180.1107	212.2623	227.2048	239.3343	240.5939	263.7808	302.9575	343.5905	361.237	375.5006	436.3268	490.992	527.5889	706.7667	800.9448	864.5004	898.8908	920.2435	928.0735	962.9244	970.4947	979.9804	1033.8128	1058.6253	1063.8324	1092.4165	1102.5746	1127.4434	1155.9953	1167.2514	1197.1008	1240.9824	1263.3156	1285.7294	1315.9981	1338.7321	1360.2176	1398.5449	1409.322	1423.1482	1431.8654	1455.1341	1481.8913	1491.8609	1492.5724	1494.1196	1500.7289	1504.7228	1514.4097	1520.6631	2956.2327	2995.4678	3015.8276	3022.2411	3029.0667	3038.5346	3072.8103	3076.2052	3094.3691	3096.0713	3103.2014	3111.9534	3118.157	3129.6878	3200.2884	3834.0789
CC(CO)C1CC1(C)C	C[C@@H](CO)[C@H]1CC1(C)C	
InChI=1S/C8H16O/c1-6(5-9)7-4-8(7,2)3/h6-7,9H,4-5H2,1-3H3	InChI=1S/C8H16O/c1-6(5-9)7-4-8(7,2)3/h6-7,9H,4-5H2,1-3H3/t6-,7+/m0/s1
