19
gdb 56896	3.3799	0.92992	0.77712	3.1173	77.11	-0.2261	0.0074	0.2335	1462.5055	0.158413	-419.18427	-419.174773	-419.173828	-419.219119	34.179	
C	 0.0712588789	 1.5200134595	 0.0770779119	-0.318909
N	-0.0281738017	 0.0792847691	 0.1252045068	-0.063923
C	-1.2959330801	-0.5317278853	 0.5647430283	-0.191507
C	-0.4729284209	-1.631666611	 1.2782334908	-0.003601
C	 0.7209016747	-0.649642552	 1.1649744948	-0.190014
C	-0.9425831343	-2.0661264462	 2.6632873812	-0.036043
O	-2.2107273686	-2.6952221213	 2.6377703132	-0.409023
C	 0.0732171226	-2.9286626884	 3.3078220688	 0.257956
N	 0.8669584991	-3.6234473307	 3.7797809409	-0.316793
H	 1.0917665067	 1.812640518	-0.1913268079	 0.125452
H	-0.6028557589	 1.9122118184	-0.6916250157	 0.124642
H	-0.1840675806	 2.0064339377	 1.0383430751	 0.089798
H	-1.8566748197	 0.0862233367	 1.2875216286	 0.089261
H	-1.9735018175	-0.8300274671	-0.2410706411	 0.109701
H	-0.3294314754	-2.5120696294	 0.645045982	 0.09361
H	 1.6906116593	-1.0476653145	 0.8520421359	 0.118009
H	 0.8598637156	-0.0686564949	 2.0940974281	 0.088317
H	-1.0751645871	-1.1806795224	 3.2952057704	 0.137756
H	-2.138116982	-3.5012062361	 2.113133168	 0.295311
57.2501	84.8773	124.0838	204.8272	227.5717	252.1164	304.9397	329.462	336.1119	379.5413	442.9588	500.6143	603.5846	679.5594	801.5608	898.0118	919.8842	971.2202	996.5588	1018.1598	1073.1568	1085.9249	1124.1301	1129.1197	1152.9782	1194.4962	1229.6301	1233.7377	1259.1225	1271.4144	1303.041	1306.449	1349.8917	1391.0801	1420.6495	1451.9014	1486.394	1498.3244	1502.8841	1529.0309	2353.5362	2921.6348	2944.3196	2958.0698	3053.783	3058.4249	3065.0266	3071.3203	3082.3101	3101.2143	3799.4221
CN1CC(C1)C(O)C#N	CN1CC(C1)[C@@H](O)C#N	
InChI=1S/C6H10N2O/c1-8-3-5(4-8)6(9)2-7/h5-6,9H,3-4H2,1H3	InChI=1S/C6H10N2O/c1-8-3-5(4-8)6(9)2-7/h5-6,9H,3-4H2,1H3/t6-/m0/s1
