18
gdb 66508	2.94684	2.03483	1.7341	1.1962	82.22	-0.1956	-0.0388	0.1568	869.4944	0.147611	-364.668457	-364.661455	-364.66051	-364.699235	29.106	
C	 0.0619134288	 1.4027733696	 0.163943818	-0.512148
C	-0.006739713	-0.0824880203	 0.0408211119	 0.373217
C	 0.5582851464	-1.0511258823	-0.9525242842	-0.169631
C	 1.3194463398	-1.0444618236	 0.3399388318	-0.172378
C	 0.5144625325	-2.1364889261	 0.9750568484	 0.056036
C	-0.1835564808	-2.0185935042	 2.1222035121	-0.141158
C	-1.5210736729	-1.3952883491	 1.6957164219	-0.206238
N	-1.2393990277	-0.8818937601	 0.2957061419	-0.151741
C	-0.4396269947	-2.0109539004	-0.2572923435	-0.055291
H	 1.0241410961	 1.7740923188	-0.2025150873	 0.125105
H	-0.7333260009	 1.8788168702	-0.4209407202	 0.134539
H	-0.0464743243	 1.7270899952	 1.2057732467	 0.123484
H	 0.8542412497	-0.9406915982	-1.9870973895	 0.094227
H	 2.2535882705	-0.5634445317	 0.6020797449	 0.094197
H	 0.2678556942	-1.7634498542	 3.0762816541	 0.095613
H	-2.3881608035	-2.0607161222	 1.6023090579	 0.118006
H	-1.7947073093	-0.5962079477	 2.3933201107	 0.114872
H	-0.9527982009	-2.8658893337	-0.6962016756	 0.079289
179.3202	195.482	249.5169	342.6533	383.6552	447.3077	527.0457	576.7481	661.9993	691.0538	752.0335	768.3866	833.2914	868.3276	876.5526	885.4234	891.6609	904.1673	939.822	979.0861	1007.3428	1016.3249	1061.8799	1072.8889	1084.7689	1141.8176	1160.2788	1187.7476	1213.199	1229.2312	1268.5077	1281.6725	1294.2419	1386.8896	1420.9509	1466.481	1474.7891	1496.1872	1577.2136	3021.9939	3026.6281	3077.6228	3081.1477	3103.5768	3123.1528	3165.9686	3192.3421	3205.5147
CC12C3C1C1=CCN2C31	C[C@@]12[C@H]3[C@@H]1[C]1[CH]CN2[C@@H]31	
InChI=1S/C8H9N/c1-8-5-4-2-3-9(8)7(4)6(5)8/h2,5-7H,3H2,1H3	InChI=1S/C8H9N/c1-8-5-4-2-3-9(8)7(4)6(5)8/h2,5-7H,3H2,1H3/t5-,6-,7+,8-/m0/s1
