19
gdb 110223	2.13304	1.38988	1.26909	2.4836	72.18	-0.2292	0.0646	0.2938	1141.9211	0.156297	-460.106744	-460.096974	-460.09603	-460.141066	35.666	
C	 0.0713280341	 1.0668276639	-0.4021110898	-0.233995
O	-0.1284725254	-0.0060706769	 0.4955901118	-0.236557
C	-1.3257868699	-0.6869559258	 0.2751738632	-0.034727
C	-1.5220330711	-1.7591461131	-0.7753255644	 0.275454
O	-2.594484968	-1.7647825494	-1.6479224376	-0.451751
C	-0.2287983588	-2.553183558	-0.9824652358	-0.286261
C	-0.208161105	-2.8978172787	 0.5437405274	-0.280818
C	-1.5027164951	-2.1013289237	 0.7314838094	 0.283691
O	-2.5414648546	-2.4953188052	 1.5534131967	-0.458585
H	 1.0317388264	 1.5244481891	-0.1533439141	 0.130066
H	 0.0992336964	 0.7246425138	-1.4472496696	 0.103868
H	-0.7191888241	 1.8271973434	-0.3076482522	 0.106295
H	-2.2280923419	-0.0848089739	 0.4151584802	 0.086963
H	-2.5126124993	-1.0134490668	-2.2451864811	 0.284631
H	-0.3966532858	-3.4344724391	-1.6046951252	 0.111195
H	 0.6303934736	-1.9950700653	-1.3649078965	 0.096788
H	-0.368736003	-3.9617424143	 0.7285693226	 0.110072
H	 0.6586915142	-2.5495903349	 1.1100402538	 0.106162
H	-2.4579188728	-2.0332153453	 2.3947432412	 0.287508
94.1463	139.4567	154.6194	177.3954	191.5922	218.6252	238.5692	258.1385	322.983	382.7394	449.5875	538.0499	573.1266	614.7751	733.1194	784.1329	807.6835	846.5635	947.2085	1004.1707	1016.0132	1037.5477	1101.3523	1141.0783	1165.0494	1180.8108	1198.6695	1216.2419	1222.3415	1237.4032	1244.8218	1288.4172	1296.2113	1338.3846	1344.8546	1459.758	1472.0671	1482.58	1486.0594	1506.4655	1532.5534	2978.1725	3027.1641	3058.6799	3069.8254	3074.6894	3112.7718	3116.8398	3131.3682	3795.7128	3795.8587
COC1C2(O)CCC12O	CO[C@H]1[C@@]2(O)CC[C@@]12O	
InChI=1S/C6H10O3/c1-9-4-5(7)2-3-6(4,5)8/h4,7-8H,2-3H2,1H3	InChI=1S/C6H10O3/c1-9-4-5(7)2-3-6(4,5)8/h4,7-8H,2-3H2,1H3/t4-,5-,6+
