17
gdb 30294	2.96983	1.60569	1.14076	5.0169	74.23	-0.2192	0.0255	0.2448	1050.759	0.139465	-418.04626	-418.038741	-418.037797	-418.078401	28.915	
O	-0.1899552243	 1.4941618254	-0.1971280886	-0.430763
C	 0.0926620411	 0.1088251445	-0.0028397525	 0.014574
C	-1.1992918157	-0.7725602826	 0.1620871381	-0.227569
C	-1.4217083766	-1.6047633901	-1.1513238119	-0.361344
C	-0.0869188341	-1.4376218198	-1.7952770581	 0.306973
C	 0.7427427002	-0.5459054981	-1.1830699015	 0.21605
N	 1.9401413264	-0.4259135029	-1.8504156925	-0.334015
C	 1.8242971349	-1.2549544302	-2.8635775659	-0.014058
N	 0.6053765351	-1.8996869931	-2.8849156116	-0.375944
H	-0.378401607	 1.6205949638	-1.1329747569	 0.274385
H	 0.695182232	 0.078001327	 0.9100443134	 0.091333
H	-1.0614757579	-1.4615593219	 1.0003106555	 0.109376
H	-2.0503463622	-0.1307992433	 0.3997458677	 0.111918
H	-1.6808802934	-2.6450004416	-0.9250507091	 0.11183
H	-2.2386299916	-1.2050201135	-1.7658503852	 0.113131
H	 2.5766174293	-1.4447409907	-3.6153688854	 0.128707
H	 0.3074246037	-2.5804707727	-3.5632617656	 0.265416
84.842	153.8379	212.7544	247.2647	328.3518	432.2642	470.0367	513.7526	616.9722	659.7024	699.6934	728.4156	771.5693	800.2228	826.9873	904.0669	956.3015	976.9123	1010.5703	1062.4026	1078.5474	1117.0933	1166.1832	1203.4278	1245.3534	1253.5605	1268.401	1300.3599	1323.7013	1373.7855	1376.9318	1434.3732	1453.2993	1477.1547	1501.8828	1522.8483	1622.2331	3020.2763	3051.0879	3059.6137	3071.8961	3118.8923	3245.9331	3664.4632	3809.953
OC1CCC2=C1N=CN2	O[C@H]1CCc2c1nc[nH]2	
InChI=1S/C6H8N2O/c9-5-2-1-4-6(5)8-3-7-4/h3,5,9H,1-2H2,(H,7,8)	InChI=1S/C6H8N2O/c9-5-2-1-4-6(5)8-3-7-4/h3,5,9H,1-2H2,(H,7,8)/t5-/m0/s1
