19
gdb 38727	2.61922	2.06401	1.60857	1.608	73.84	-0.2329	0.082	0.3149	902.7821	0.162298	-422.986712	-422.980013	-422.979069	-423.017368	28.23	
C	 0.0058897166	 1.5145250311	 0.0951993016	-0.405692
C	 1.3323064511	 0.80210766	-0.0356200537	 0.106862
O	 2.1445566197	 0.310112219	 1.0094772714	-0.278126
C	 1.6244852975	-1.0207449606	 1.2268109988	 0.085632
C	 0.1206319546	-0.762298387	 1.275246918	-0.273639
C	 0.0552512199	 0.007739277	-0.0548163445	 0.240205
C	 0.009389538	-0.9645225994	-1.2042169605	-0.160874
O	 1.2644182256	-1.6716398205	-1.2041907285	-0.270993
C	 1.869508032	-2.0008953255	 0.0508943129	-0.075371
H	-0.3420850393	 1.8851082526	 1.0541766721	 0.120879
H	-0.2650200789	 2.1392897987	-0.7518334845	 0.117495
H	 1.8696339272	 0.9496425864	-0.9671390477	 0.102904
H	 2.0947386919	-1.413476005	 2.1332478659	 0.079048
H	-0.492852301	-1.6670732417	 1.2644928423	 0.100961
H	-0.1537259793	-0.155989399	 2.1412414708	 0.102834
H	-0.8300337031	-1.6711169753	-1.1204352214	 0.091513
H	-0.0488538507	-0.4773307543	-2.1823985228	 0.109002
H	 2.9403981607	-2.0807362744	-0.1603583845	 0.116619
H	 1.5177474475	-2.9886523422	 0.3943041243	 0.090741
177.13	242.2013	334.9148	348.6143	400.5044	460.5363	487.8409	605.2582	643.898	764.032	780.2936	820.1042	840.6582	870.4651	915.5982	939.3087	946.7301	970.8641	987.3903	1016.7232	1032.7851	1049.9865	1075.2293	1084.2942	1106.5277	1141.8114	1171.4251	1215.7756	1255.4449	1276.3385	1287.18	1314.7033	1329.3713	1342.6699	1371.4471	1398.2328	1420.2812	1473.1392	1489.0689	1495.2533	1512.66	2962.907	2989.6829	3061.3942	3076.0288	3078.4016	3082.5504	3114.3142	3116.9706	3155.1592	3206.4955
C1C2OC3CC12COC3	C1[C@H]2O[C@H]3C[C@@]12COC3	
InChI=1S/C7H10O2/c1-5-3-8-4-7(1)2-6(7)9-5/h5-6H,1-4H2	InChI=1S/C7H10O2/c1-5-3-8-4-7(1)2-6(7)9-5/h5-6H,1-4H2/t5-,6+,7-/m0/s1
