19
gdb 74928	2.55498	1.9113	1.33984	1.7532	79.99	-0.2174	0.0083	0.2257	1008.935	0.158701	-385.855358	-385.847435	-385.84649	-385.887248	31.67	
C	 0.0595180026	 1.475209699	 0.0007314444	-0.502704
C	-0.0896626039	-0.012902399	-0.0300623863	 0.284594
C	-0.1621950037	-0.8059859586	-1.1135912072	-0.207668
C	-0.0330869257	-2.2301871975	-0.6597021385	 0.032674
O	 1.3790156969	-2.3647938551	-0.1685075158	-0.301853
C	 0.9153912889	-2.098962603	 1.1299248711	 0.062989
C	-0.5286642421	-2.2498502861	 0.8151030724	-0.192706
C	-0.0685600664	-0.8604089527	 1.200879487	 0.205645
C	-0.3744975217	-0.310770089	 2.5715616658	-0.504254
H	 1.0162608561	 1.7661766806	 0.452728058	 0.132862
H	 0.0212736216	 1.8978824349	-1.0064660237	 0.126252
H	-0.7265532643	 1.9501635929	 0.6003690099	 0.125557
H	-0.087521412	-0.4881931854	-2.1458839689	 0.094976
H	-0.2716923501	-3.0405708521	-1.3459449689	 0.080769
H	 1.5475155727	-2.3756958043	 1.9660836828	 0.106314
H	-1.3427834052	-2.8081261004	 1.2615294166	 0.094387
H	-0.2789443138	-1.0896972786	 3.3357367731	 0.117683
H	 0.3094525241	 0.500458795	 2.8434655971	 0.122787
H	-1.397324424	 0.0799133194	 2.6305223711	 0.121697
149.0653	174.7176	200.678	239.2573	268.0836	357.4718	415.0377	474.5829	561.5277	626.972	639.1819	710.203	734.6027	790.2508	817.3104	833.3505	866.0713	903.2058	926.7775	967.1871	1000.0875	1025.8966	1054.9314	1067.2029	1094.7288	1097.3143	1147.5546	1180.5489	1210.8877	1254.9601	1267.8098	1304.9121	1361.196	1379.0855	1410.6543	1420.7677	1477.5322	1482.5524	1491.4607	1502.7892	1666.0425	3019.6995	3023.0372	3066.946	3081.9468	3093.6286	3114.6786	3135.2415	3173.1507	3187.6309	3211.2929
CC1=CC2OC3C2C13C	CC1=C[C@H]2O[C@@H]3[C@H]2[C@]13C	
InChI=1S/C8H10O/c1-4-3-5-6-7(9-5)8(4,6)2/h3,5-7H,1-2H3	InChI=1S/C8H10O/c1-4-3-5-6-7(9-5)8(4,6)2/h3,5-7H,1-2H3/t5-,6+,7-,8+/m1/s1
