19
gdb 57817	5.90904	0.4524	0.43993	2.1941	83.26	-0.251	-0.0297	0.2213	2426.774	0.155269	-423.006416	-422.995397	-422.994453	-423.046004	37.072	
C	 0.0737628968	 1.4545396472	-0.2475398492	-0.384443
C	 0.0314257255	 0.0001411069	 0.2426920978	-0.019887
O	 0.6466344771	-0.1403163537	 1.5218115714	-0.412957
C	-1.3361378824	-0.5325732768	 0.2353190789	 0.148893
C	-2.470894018	-0.9368627554	 0.266025883	-0.022797
C	-3.8276172184	-1.4686016288	 0.2809134184	-0.365223
C	-3.9261440948	-2.8712879271	-0.3644691345	-0.260502
C	-5.3138424371	-3.4556678089	-0.2219002242	 0.156264
O	-5.9703380638	-3.9039502289	-1.1246664207	-0.230628
H	 1.1049916457	 1.8162085526	-0.2235035138	 0.126246
H	-0.3105607354	 1.5333959626	-1.2686387555	 0.125441
H	-0.5393630368	 2.0935026317	 0.3963982633	 0.116117
H	 0.6518436827	-0.6118540971	-0.4233978379	 0.118578
H	 0.0627223997	 0.2727715869	 2.1677302067	 0.281545
H	-4.1897193819	-1.5198557693	 1.3167706342	 0.135505
H	-4.5028039531	-0.7796974811	-0.2424904806	 0.143812
H	-3.654266326	-2.8437489859	-1.422015489	 0.135294
H	-3.2261392022	-3.5424718668	 0.1510149562	 0.136931
H	-5.7073022578	-3.447537208	 0.8231647756	 0.07181
7.8024	52.1543	58.6857	83.1855	129.876	171.3244	248.8969	268.9729	282.1821	331.1243	395.2332	440.3358	532.2502	546.2063	566.3681	732.0023	756.4054	846.2413	897.3744	983.4567	1018.9323	1065.4767	1077.165	1090.5765	1099.6413	1179.0582	1199.1058	1262.637	1282.2332	1304.6377	1338.6113	1362.8092	1398.8571	1416.9975	1430.0443	1461.1886	1479.1888	1487.4328	1491.0592	1839.9529	2361.0519	2843.7654	3014.6847	3031.1099	3036.2352	3040.1869	3048.857	3113.6674	3118.9178	3127.4915	3803.4192
CC(O)C#CCCC=O	C[C@@H](O)C#CCCC=O	
InChI=1S/C7H10O2/c1-7(9)5-3-2-4-6-8/h6-7,9H,2,4H2,1H3	InChI=1S/C7H10O2/c1-7(9)5-3-2-4-6-8/h6-7,9H,2,4H2,1H3/t7-/m1/s1
