25
gdb 59365	3.19553	0.96589	0.7992	0.1341	95.31	-0.2339	0.0272	0.2611	1562.3929	0.228664	-352.383226	-352.373126	-352.372182	-352.418152	38.734	
C	 0.0130535196	 1.5610377317	 0.0266905092	-0.38804
C	 0.0606589956	 0.0263257192	 0.0650941588	 0.032567
C	 0.8284134224	-0.4440946494	 1.3088305243	-0.394847
C	-1.3593546786	-0.5782644739	-0.0030299658	-0.000377
C	-2.1682699052	-0.1707543066	-1.2658539734	-0.240535
C	-3.0517105826	-1.3898340608	-1.6381731243	-0.018208
C	-3.2496003408	-1.5823476695	-3.145691752	-0.395611
C	-2.3291587943	-2.5243210687	-0.9458958557	-0.076576
C	-1.4245733515	-2.0921250795	-0.0702007868	-0.091196
H	 1.0219437657	 1.9853791587	 0.0615670241	 0.106839
H	-0.4735935488	 1.9335879068	-0.879296658	 0.114481
H	-0.540874419	 1.9541432673	 0.8882472799	 0.108954
H	 0.6062420748	-0.3212167539	-0.8245285288	 0.068546
H	 0.3030621558	-0.1515581619	 2.2262461742	 0.11022
H	 0.9575431401	-1.5298455437	 1.3299824803	 0.11269
H	 1.8260601246	 0.0063106519	 1.343382906	 0.108334
H	-1.8922773605	-0.2420880659	 0.903050563	 0.068626
H	-2.7501062193	 0.7439706753	-1.1256719728	 0.093632
H	-1.4658969666	 0.0153127497	-2.0890314031	 0.095503
H	-4.0482724302	-1.277161289	-1.1821831132	 0.075409
H	-2.2867081865	-1.7180105971	-3.6506656524	 0.11367
H	-3.8666274156	-2.4623674792	-3.3575096457	 0.109623
H	-3.7450568412	-0.7137316166	-3.5927303172	 0.111247
H	-2.5716715407	-3.5658073555	-1.1337779107	 0.085208
H	-0.8256265671	-2.7335802293	 0.5665984801	 0.089841
56.4717	86.5314	174.9945	214.5636	219.3579	235.7755	250.8963	312.0009	327.609	373.722	433.8324	438.6298	541.9557	587.5901	739.8045	768.1693	836.805	852.1821	889.2621	918.3914	929.2085	936.3893	963.2983	972.1571	1008.8146	1023.3842	1051.9536	1097.6015	1117.7184	1140.6084	1155.9816	1178.8535	1195.0635	1212.5911	1281.7932	1288.4965	1314.477	1324.7039	1341.5248	1353.7227	1373.0817	1389.6033	1400.6629	1409.7202	1421.3095	1486.5103	1487.8687	1493.3645	1497.454	1499.0449	1505.0924	1512.3727	1684.4014	2950.8536	2970.5758	2998.2515	3021.5203	3023.6158	3026.0926	3028.6551	3086.031	3090.165	3092.5239	3094.5344	3096.6645	3105.1297	3107.0489	3171.6537	3201.2068
CC(C)C1CC(C)C=C1	CC(C)[C@H]1C[C@@H](C)C=C1	
InChI=1S/C9H16/c1-7(2)9-5-4-8(3)6-9/h4-5,7-9H,6H2,1-3H3	InChI=1S/C9H16/c1-7(2)9-5-4-8(3)6-9/h4-5,7-9H,6H2,1-3H3/t8-,9+/m0/s1
