17
gdb 95199	2.18204	1.90045	1.39268	3.2372	68.25	-0.2351	-0.0254	0.2097	972.9756	0.136839	-458.956906	-458.949271	-458.948327	-458.988938	29.834	
O	 0.0136589846	 1.4396122477	 0.0505431566	-0.437729
C	 0.0124327895	 0.0193547856	-0.0249361525	 0.02821
C	 0.7449722294	-0.5755948753	 1.180804698	-0.138301
O	 0.1415145709	-0.0501892055	 2.3631832799	-0.271437
C	-1.1979652455	-0.4318363813	 2.5478314609	 0.083174
C	-2.2495879615	 0.5747076414	 2.2300318149	-0.313245
C	-2.0715811598	-0.6425104448	 1.3191885543	-0.154577
C	-1.4200010669	-0.5441387512	-0.021078801	 0.392004
O	-1.9367613783	-0.9816752784	-1.0236738697	-0.325528
H	 0.1517717787	 1.6646918114	 0.979499429	 0.29475
H	 0.4779591018	-0.2753287752	-0.970532897	 0.103284
H	 0.7126745938	-1.6736402901	 1.1665475043	 0.114796
H	 1.7888698612	-0.2501459261	 1.2044213673	 0.126434
H	-1.336819649	-1.1029574617	 3.3916169812	 0.111136
H	-3.1508434671	 0.5969771819	 2.8318768726	 0.131095
H	-1.9304581741	 1.5344110818	 1.8440947821	 0.139462
H	-2.8517409977	-1.3940906702	 1.3618177389	 0.116471
94.5523	175.011	221.7172	264.8272	365.38	423.0058	443.9736	464.4443	466.3672	576.1891	657.2172	769.5938	791.2881	812.0937	826.9777	897.4406	954.8091	959.9625	1002.4406	1051.444	1057.7215	1072.697	1102.2161	1122.3721	1169.6032	1221.1416	1242.0781	1251.4168	1268.7604	1337.7117	1362.2984	1366.9442	1397.4425	1423.0087	1476.3495	1494.7707	1805.9377	3016.917	3074.8811	3098.0051	3139.0206	3150.5156	3180.0794	3244.952	3769.9823
OC1COC2CC2C1=O	O[C@H]1CO[C@H]2C[C@H]2C1=O	
InChI=1S/C6H8O3/c7-4-2-9-5-1-3(5)6(4)8/h3-5,7H,1-2H2	InChI=1S/C6H8O3/c7-4-2-9-5-1-3(5)6(4)8/h3-5,7H,1-2H2/t3-,4+,5+/m1/s1
