20
gdb 94047	5.01582	0.81682	0.74281	5.6717	79.94	-0.2587	0.0374	0.2961	1536.6274	0.171316	-403.178796	-403.169552	-403.168608	-403.21388	33.419	
C	-0.5381824533	 1.4373178923	 0.0090008753	-0.413665
C	 0.1702309973	 0.0859407221	-0.0259444776	 0.012532
C	 1.2585416128	-0.0359726203	-1.1013317271	-0.071091
O	 2.1437933632	-1.0671030439	-0.667360455	-0.271481
C	 1.9471113314	-1.3372825914	 0.7187824408	 0.143546
C	 3.3074829869	-1.3320348982	 1.4368806943	-0.355728
C	 4.2020376451	-2.3905647706	 0.9733772382	 0.270523
N	 4.9053233696	-3.2371194089	 0.622213048	-0.306339
C	 0.9764951738	-0.2662966409	 1.2351136255	-0.262105
H	 0.175232387	 2.2506113546	 0.1846338301	 0.118535
H	-1.0513530908	 1.641111454	-0.9365623013	 0.122656
H	-1.2879907649	 1.4714289096	 0.8054737799	 0.121702
H	-0.5705477432	-0.7060678779	-0.1952568205	 0.086107
H	 0.8653476283	-0.3075828697	-2.0863573501	 0.111471
H	 1.8075192206	 0.9136627306	-1.2052253274	 0.090323
H	 1.5039446454	-2.3384539675	 0.8217803386	 0.092255
H	 3.7922173517	-0.3622106944	 1.2807485945	 0.151237
H	 3.1532296687	-1.4554322628	 2.5153346066	 0.148101
H	 1.5301249132	 0.6158560212	 1.5826757958	 0.100708
H	 0.3594913671	-0.6231125281	 2.0635361514	 0.110711
39.1664	68.3258	111.6735	169.9199	228.1809	264.2436	348.7829	392.3056	397.1889	426.0206	503.8359	579.6587	678.0897	828.3749	860.1207	883.6928	929.6006	950.2588	964.6225	975.3453	1013.0911	1072.456	1084.0958	1130.7515	1146.0599	1166.5017	1199.3079	1239.498	1269.8655	1272.8874	1317.5619	1335.2034	1357.7632	1371.0138	1397.1933	1409.7749	1417.761	1450.9405	1491.688	1497.1258	1501.8506	1529.3564	2365.7641	2975.9898	2995.2611	3019.4108	3029.1146	3033.6278	3043.5748	3070.1186	3089.0631	3097.3969	3103.4129	3105.0842
CC1COC(CC#N)C1	C[C@H]1CO[C@@H](CC#N)C1	
InChI=1S/C7H11NO/c1-6-4-7(2-3-8)9-5-6/h6-7H,2,4-5H2,1H3	InChI=1S/C7H11NO/c1-6-4-7(2-3-8)9-5-6/h6-7H,2,4-5H2,1H3/t6-,7+/m1/s1
