19
gdb 77098	2.8905	1.20709	0.98151	1.8445	82.7	-0.2325	0.023	0.2555	1260.1485	0.156691	-385.822876	-385.813773	-385.812829	-385.856922	34.559	
C	-0.27185976	 1.2826234711	-0.0686415438	-0.414496
C	-0.0368072064	-0.209710574	 0.0933100608	-0.145147
C	 1.2034633548	-0.8240199074	-0.6266752451	-0.046023
O	 1.7049245253	-1.3607238413	 0.6274591265	-0.319291
C	 0.6561464289	-0.7180348715	 1.3570831242	 0.474532
C	 0.9231163778	-0.019562813	 2.651010809	-0.340487
C	 0.1026650694	-1.3045795973	 2.6079886585	-0.334082
C	 0.9683357243	-1.8349556197	-1.6408939145	 0.311312
C	 0.7577198785	-2.6591053465	-2.4902757497	-0.436912
H	 0.635137656	 1.8531911348	 0.1549252499	 0.124318
H	-0.582438349	 1.51910869	-1.0916708097	 0.125044
H	-1.0622200454	 1.6307820846	 0.6049234293	 0.121496
H	-0.9440138662	-0.7750157457	-0.1346214077	 0.097002
H	 1.8890885464	-0.0571580467	-1.01230026	 0.101926
H	 1.9313098094	-0.0856503371	 3.0459067926	 0.125587
H	 0.4141683597	 0.916665868	 2.8578057954	 0.113655
H	-0.9675055505	-1.2452104027	 2.780843686	 0.114007
H	 0.5730743285	-2.2097553892	 2.9769726695	 0.126911
H	 0.5781006986	-3.3919158565	-3.2377664113	 0.200648
42.0308	137.0441	185.641	200.7215	218.8284	260.8827	334.6986	361.897	450.1467	506.111	527.4471	613.998	623.2612	670.8758	753.7942	756.8156	851.9208	878.863	886.4568	944.542	967.6031	981.1279	1044.6719	1053.0593	1068.0806	1088.264	1106.9165	1129.1884	1186.6935	1212.3133	1245.0498	1275.7708	1349.5044	1352.0024	1410.0033	1413.4477	1449.1806	1493.1	1497.4672	1503.9252	2235.7585	3006.8681	3032.8716	3074.2103	3099.6563	3109.3385	3125.3271	3128.0863	3208.5716	3222.6907	3502.8663
CC1C(OC11CC1)C#C	C[C@H]1[C@@H](OC21CC2)C#C	
InChI=1S/C8H10O/c1-3-7-6(2)8(9-7)4-5-8/h1,6-7H,4-5H2,2H3	InChI=1S/C8H10O/c1-3-7-6(2)8(9-7)4-5-8/h1,6-7H,4-5H2,2H3/t6-,7-/m0/s1
