18
gdb 54571	3.65085	1.37451	1.14349	3.8007	76.42	-0.2415	-0.024	0.2175	1094.9919	0.147563	-401.911445	-401.903532	-401.902588	-401.944307	30.094	
C	 0.0391062689	 1.3438705302	-0.4701391315	-0.494572
C	-0.0945907997	 0.0361122861	 0.2833751005	 0.290967
O	 0.7489251273	-0.3597063237	 1.0582602012	-0.305276
C	-1.3299813971	-0.761128312	 0.0285751986	 0.228659
C	-2.5713049312	-0.4348477686	-0.7869895635	-0.313783
C	-3.2484387889	-1.4963064561	 0.0968570106	-0.00945
C	-2.5900454333	-2.8450518513	-0.2625498114	-0.245368
C	-1.3645090007	-2.2275412003	 0.3808228517	-0.057044
N	-2.1601021906	-1.2763792991	 1.2031097048	-0.170014
H	 1.011691185	 1.7901825418	-0.260948915	 0.144362
H	-0.0757822901	 1.1833613756	-1.5482942747	 0.137597
H	-0.7545313023	 2.036340877	-0.1662305573	 0.14623
H	-2.9411540183	 0.5682073444	-0.5590579225	 0.114757
H	-2.5621948957	-0.5903223366	-1.8710391225	 0.100951
H	-4.2994437904	-1.4234508347	 0.3678076194	 0.090481
H	-2.9816133574	-3.6589765869	 0.352315978	 0.120567
H	-2.5599417222	-3.15032328	-1.3133748814	 0.101361
H	-0.4745202531	-2.6975899858	 0.7808454549	 0.119576
53.4497	142.0205	174.7331	185.7115	338.1649	406.8583	416.6691	482.0719	597.9018	609.5977	733.3727	746.0199	796.2641	842.6997	874.3361	929.1054	943.0347	969.2261	998.0476	1004.4687	1032.9548	1042.9088	1068.3563	1124.3351	1132.083	1150.2045	1195.7931	1223.3288	1243.2047	1273.9958	1305.9531	1318.7323	1373.3048	1391.6787	1460.7212	1473.0513	1488.8833	1503.6153	1792.7704	3033.8342	3041.1569	3049.1077	3093.1212	3103.4217	3111.4714	3143.2423	3154.4436	3203.1441
CC(=O)C12CC3CC1N23	CC(=O)[C@@]12C[C@H]3C[C@@H]1N23	
InChI=1S/C7H9NO/c1-4(9)7-3-5-2-6(7)8(5)7/h5-6H,2-3H2,1H3	InChI=1S/C7H9NO/c1-4(9)7-3-5-2-6(7)8(5)7/h5-6H,2-3H2,1H3/t5-,6+,7+,8?/m1/s1
