18
gdb 80603	2.90851	1.46214	1.23922	1.694	71.75	-0.2452	-0.0124	0.2328	1050.3602	0.148976	-439.070492	-439.062616	-439.061672	-439.102693	30.862	
C	-0.0945064664	 1.5332594368	-0.0006503417	-0.411293
C	 0.0527491476	 0.0135133498	-0.0016882354	-0.018623
C	 0.9819331125	-0.5393549987	-1.1039882777	-0.147436
N	 2.3463946665	-0.3590533122	-0.4540907522	-0.343674
C	 1.87176543	-1.4270109297	 0.5222830806	-0.174239
C	 0.8063160213	-0.5891891486	 1.2568701945	 0.15058
O	 1.3924140484	 0.3683413472	 2.1040831011	-0.430358
C	 1.1301651469	-2.0181024449	-0.6934592682	 0.428146
O	 1.0040858773	-3.0910119383	-1.2035834401	-0.32632
H	 0.8779507948	 2.030168548	-0.0497675153	 0.122355
H	-0.6818360669	 1.8576346512	-0.865545282	 0.113142
H	-0.6003168411	 1.8763290242	 0.9053302278	 0.132439
H	-0.9366487675	-0.4471273241	-0.0927121982	 0.089382
H	 0.8512474581	-0.2009274196	-2.130779478	 0.092828
H	 3.0605842841	-0.7562527651	-1.0637925972	 0.240305
H	 2.6109332448	-1.9600680742	 1.117028191	 0.097489
H	 0.1493614601	-1.196005829	 1.8829823256	 0.095974
H	 2.0849949795	 0.7950704572	 1.5818086654	 0.289303
121.2	143.3513	213.9642	259.5705	294.7735	310.7657	488.1073	500.3449	517.2218	538.5962	682.3711	722.3158	744.8186	786.868	820.0634	870.7778	894.3594	945.8102	1014.6217	1030.5009	1060.4319	1061.6529	1077.9368	1098.4099	1125.5455	1151.6009	1177.3254	1214.3893	1241.4013	1263.8921	1308.0896	1312.0156	1326.0651	1375.0109	1409.412	1445.8929	1490.6249	1503.1241	1892.7808	3044.3008	3050.3364	3098.5663	3112.2686	3125.7282	3138.401	3150.758	3476.5299	3760.0182
CC1C2NC(C1O)C2=O	C[C@H]1[C@H]2N[C@@H]([C@H]1O)C2=O	
InChI=1S/C6H9NO2/c1-2-3-6(9)4(7-3)5(2)8/h2-5,7-8H,1H3	InChI=1S/C6H9NO2/c1-2-3-6(9)4(7-3)5(2)8/h2-5,7-8H,1H3/t2-,3+,4-,5-/m0/s1
