20
gdb 65347	3.17379	0.99717	0.96784	1.305	88.06	-0.2319	0.0555	0.2874	1345.305	0.168556	-365.934244	-365.924745	-365.923801	-365.968523	35.922	
C	-0.0484691951	 1.5428973669	-0.0130391356	-0.460729
C	-0.0168668253	 0.0218362834	 0.0038626357	 0.108439
C	 1.3251671223	-0.6832042893	-0.1849524188	-0.339284
C	 0.6686842706	-0.7046141605	 1.1623385268	 0.016024
N	 1.2524523043	 0.0849663463	 2.2073343874	-0.06362
C	 0.6257904714	-0.0110609494	 3.5232647039	-0.223823
C	 1.9436291763	-0.6533164379	 3.2632552544	-0.221827
C	-1.1779546778	-0.6227635988	-0.550879922	 0.274987
C	-2.1575859939	-1.1477594965	-1.0126399699	-0.456829
H	 0.8262075856	 1.9455976732	 0.5001041829	 0.135325
H	-0.0634185965	 1.9130062887	-1.0427434327	 0.121494
H	-0.9446872946	 1.9161647454	 0.4920279393	 0.122769
H	 1.3463656754	-1.5959227413	-0.768116237	 0.121807
H	 2.1903212218	-0.0386375223	-0.2943497692	 0.122601
H	 0.1980692489	-1.6433393975	 1.4651552234	 0.084308
H	 0.5645222369	 0.916529958	 4.0848146125	 0.119544
H	-0.2372427101	-0.6660747637	 3.6276710596	 0.117184
H	 1.9641171068	-1.7392375756	 3.1929011023	 0.114137
H	 2.8611612262	-0.2021013914	 3.6296270534	 0.119086
H	-3.0201067032	-1.611880608	-1.4218543564	 0.188408
68.6045	109.189	133.078	188.5399	201.7908	256.3113	310.0909	343.6002	415.9221	470.3643	539.4053	558.1913	583.7708	639.6377	690.7383	744.7866	825.1126	858.1859	891.0437	915.3558	941.6616	978.9632	1020.9348	1051.0846	1068.043	1099.0608	1109.4863	1118.8432	1121.7231	1125.2825	1175.6182	1207.3675	1276.5922	1292.4766	1324.9777	1404.2065	1413.635	1473.8672	1489.0442	1491.0167	1500.8083	1518.6224	2230.9881	3042.8821	3064.2018	3098.2259	3102.4776	3105.1028	3139.0139	3142.0759	3181.0167	3195.4256	3234.7478	3504.1224
CC1(CC1N1CC1)C#C	C[C@]1(C[C@H]1N1CC1)C#C	
InChI=1S/C8H11N/c1-3-8(2)6-7(8)9-4-5-9/h1,7H,4-6H2,2H3	InChI=1S/C8H11N/c1-3-8(2)6-7(8)9-4-5-9/h1,7H,4-6H2,2H3/t7-,8-/m1/s1
