20
gdb 66356	2.25954	1.45097	1.35435	3.7189	78.62	-0.2125	0.0327	0.2452	1101.287	0.173395	-399.33791	-399.329244	-399.3283	-399.370714	33.744	
C	-0.0015840103	 1.5361881939	 0.0350258244	-0.429002
C	-0.0184527759	 0.0011246894	 0.0100055633	 0.080416
C	 0.6703284028	-0.550301938	-1.2769720513	-0.180281
N	 0.855102539	-1.9932847163	-1.2806231333	-0.285727
C	 1.5128772746	-2.4689768781	-0.0601184977	-0.161104
C	 0.8344708781	-1.9638599248	 1.221939338	-0.177279
N	 0.6295378361	-0.5079807373	 1.2323402172	-0.302608
C	-1.4216999067	-0.4684390178	 0.0096244578	 0.301419
N	-2.5109691733	-0.8515003145	-0.0438613668	-0.35121
H	 1.0337515021	 1.8910417756	-0.0079826835	 0.119637
H	-0.5394536131	 1.946879923	-0.8228746768	 0.13831
H	-0.4601913822	 1.9068838208	 0.954148492	 0.147308
H	 0.107459266	-0.2553459512	-2.1686238749	 0.116245
H	 1.6586266959	-0.0727501534	-1.3346036756	 0.100489
H	-0.0444911987	-2.4528576232	-1.390636383	 0.231308
H	 1.5408543553	-3.5637602941	-0.0796881678	 0.10618
H	 2.5552319729	-2.1189177253	-0.0837708722	 0.097549
H	-0.1482371169	-2.4401604465	 1.3307819743	 0.126036
H	 1.4200140368	-2.2286680888	 2.1089392053	 0.104584
H	 1.5259661374	-0.0368537235	 1.3223003008	 0.217729
111.7036	150.2499	200.6532	229.0433	273.0097	301.6924	332.0873	416.604	421.7734	462.548	554.1985	598.6131	622.909	691.7871	752.2854	790.74	847.6579	875.8848	911.935	941.6742	998.9015	1011.9057	1073.4093	1104.4222	1138.9194	1155.4006	1180.1409	1221.4611	1232.0594	1307.8289	1346.7301	1359.4188	1384.9269	1389.5353	1406.9052	1464.0917	1468.4819	1477.3473	1481.7082	1493.0506	1493.9698	1505.5882	2351.0967	3002.9777	3010.4211	3028.96	3042.486	3071.2646	3077.5692	3079.5789	3116.6469	3139.4354	3498.9596	3508.9543
CC1(CNCCN1)C#N	C[C@]1(CNCCN1)C#N	
InChI=1S/C6H11N3/c1-6(4-7)5-8-2-3-9-6/h8-9H,2-3,5H2,1H3	InChI=1S/C6H11N3/c1-6(4-7)5-8-2-3-9-6/h8-9H,2-3,5H2,1H3/t6-/m1/s1
