23
gdb 60278	3.76618	0.77856	0.75031	2.859	81.92	-0.2369	0.0663	0.3032	1635.3749	0.205515	-425.434345	-425.424266	-425.423322	-425.470475	36.66	
C	 0.0216901341	 1.5775601579	 0.1387386594	-0.40254
C	 0.0169768229	 0.0544051971	 0.0090181235	 0.133711
O	 0.7774544653	-0.5540819749	 1.0524576529	-0.427396
C	-1.4075057349	-0.5184681897	-0.0570926658	-0.233608
C	-1.4593406682	-2.0397949624	-0.1995675559	 0.018184
C	-2.8734795633	-2.6447317702	-0.1947171286	-0.25018
C	-2.6347392976	-4.0031645606	-0.8556642718	-0.066423
O	-1.590725519	-3.8034993604	-1.8062840375	-0.26525
C	-0.9074906491	-2.5817066592	-1.531386737	-0.068039
H	 1.047435267	 1.9505108081	 0.2018397624	 0.12488
H	-0.4699004929	 2.0513511932	-0.7170716069	 0.117111
H	-0.5135158682	 1.8906457425	 1.044403916	 0.105456
H	 0.5542064847	-0.2227969554	-0.9065197143	 0.095924
H	 0.3853355757	-0.2868461314	 1.891628505	 0.275478
H	-1.9447425233	-0.2180330134	 0.8548902746	 0.0826
H	-1.9415711704	-0.0504693804	-0.8954088623	 0.095116
H	-0.8808899169	-2.4802787659	 0.6201685206	 0.087378
H	-3.3052975514	-2.7273756287	 0.806394802	 0.097812
H	-3.549183772	-2.0343533544	-0.8064433461	 0.099853
H	-2.3255426194	-4.7524663148	-0.1099023349	 0.088835
H	-3.513582206	-4.3938449559	-1.38004613	 0.100539
H	-1.0944909224	-1.8696338508	-2.3517301011	 0.083155
H	 0.1707292853	-2.7746767802	-1.4942571141	 0.107402
41.9585	68.5701	90.3855	118.1532	194.7273	241.6984	287.2469	305.1472	323.4261	424.0548	464.9198	481.6031	606.4796	674.5872	835.23	851.7128	865.4817	906.0284	923.796	941.2003	968.9973	975.4318	1023.2062	1068.4766	1081.1177	1094.9485	1130.5394	1150.2692	1167.6042	1187.8936	1209.5241	1234.216	1265.6181	1282.8489	1321.7121	1326.1222	1351.3009	1357.9435	1384.5088	1392.5411	1403.7288	1412.9024	1420.964	1474.313	1489.5068	1492.6685	1495.9074	1523.1963	1534.912	2967.7158	2978.0402	2995.2879	3022.9015	3030.2447	3031.8365	3040.1657	3049.2198	3059.5927	3061.9193	3094.2228	3098.439	3118.992	3792.736
CC(O)CC1CCOC1	C[C@@H](O)C[C@H]1CCOC1	
InChI=1S/C7H14O2/c1-6(8)4-7-2-3-9-5-7/h6-8H,2-5H2,1H3	InChI=1S/C7H14O2/c1-6(8)4-7-2-3-9-5-7/h6-8H,2-5H2,1H3/t6-,7-/m1/s1
