18
gdb 55898	3.74076	0.76774	0.68305	1.8492	74.45	-0.2505	-0.03	0.2205	1621.9709	0.144461	-439.087661	-439.077855	-439.076911	-439.12416	33.918	
C	-0.0043182346	 1.4747580057	 0.0688367917	-0.476467
C	 0.0783036286	-0.0330240412	-0.0631641204	 0.389819
O	 1.1340145419	-0.6191103771	-0.1265766378	-0.291221
C	-1.2583837312	-0.7754724463	-0.1250699804	-0.330821
C	-1.089798909	-2.2679617995	 0.0379409023	 0.010792
N	-1.3365627378	-2.8286542766	 1.357998464	-0.332882
C	-2.230436707	-3.2252413875	 0.2481334065	-0.144802
C	-3.6402369635	-2.75940816	 0.360021676	 0.176861
O	-4.5621899885	-3.2663493241	-0.228280113	-0.258187
H	 0.9859686582	 1.9151275643	-0.0518507225	 0.146519
H	-0.697062725	 1.8961087739	-0.6675929473	 0.13814
H	-0.3977115905	 1.733795425	 1.0590405554	 0.148834
H	-1.933624601	-0.3706954275	 0.6355092919	 0.130341
H	-1.7136495336	-0.5377971688	-1.0975372498	 0.136803
H	-0.2559815303	-2.67165108	-0.5304128217	 0.119313
H	-0.6863241982	-3.5798174835	 1.5705524961	 0.248578
H	-2.1253674116	-4.2096575613	-0.2015741081	 0.107604
H	-3.7822086967	-1.8954817155	 1.0459655671	 0.080776
35.7061	57.1874	80.748	126.9033	139.9649	223.4328	283.7266	353.6839	401.635	457.5933	475.5942	516.105	586.2645	793.4888	818.468	844.8389	891.0325	922.3756	957.9919	983.5452	1026.3538	1049.7525	1061.8298	1132.0129	1168.9205	1192.2209	1225.5124	1243.4663	1263.2187	1333.0192	1365.5502	1384.5078	1421.5034	1436.4564	1462.3407	1475.9265	1477.202	1814.2235	1823.4654	2893.9045	3018.5171	3036.7827	3084.3179	3097.9718	3144.3131	3153.847	3154.5847	3518.9524
CC(=O)CC1NC1C=O	CC(=O)C[C@H]1N[C@H]1C=O	
InChI=1S/C6H9NO2/c1-4(9)2-5-6(3-8)7-5/h3,5-7H,2H2,1H3	InChI=1S/C6H9NO2/c1-4(9)2-5-6(3-8)7-5/h3,5-7H,2H2,1H3/t5-,6+/m1/s1
