16
gdb 29463	3.24786	1.59802	1.07979	1.4296	77.55	-0.1881	-0.0014	0.1867	1065.2829	0.126613	-400.770384	-400.763131	-400.762187	-400.80176	28.896	
N	 0.0091342825	 1.4321097802	 0.1535315219	-0.607248
C	 0.0420160124	 0.0351841148	 0.035816713	 0.024931
C	-1.0163442904	-0.83581242	 0.0070909353	-0.104095
O	-0.586061812	-2.1539446676	-0.0209831703	-0.205852
C	 0.7524180108	-2.0819364254	-0.0213076542	 0.318025
C	 1.2104535562	-0.7997196838	 0.0165836168	 0.226501
C	 2.6739907134	-0.8544527765	 0.0226117286	-0.217578
C	 3.0600781346	-2.1470886019	-0.012566989	-0.090062
C	 1.8557308559	-3.0847056053	-0.0440986849	-0.417505
H	 0.7292306726	 1.8844648524	-0.3951818619	 0.245336
H	-0.8901435309	 1.8267471326	-0.0908126904	 0.242509
H	-2.0840208569	-0.6961895859	 0.0143159477	 0.118402
H	 3.3382957874	-0.000259735	 0.0558491744	 0.09618
H	 4.0782817872	-2.5117238032	-0.015592165	 0.097723
H	 1.8464574168	-3.7628352728	 0.8192599647	 0.137221
H	 1.8543864603	-3.7182018026	-0.9408336368	 0.135514
156.194	213.6975	225.4017	265.1215	348.7948	451.9223	504.6572	593.0223	610.6636	635.0163	650.2574	664.3062	726.6534	760.1569	783.5605	864.2611	922.7157	926.7629	938.8138	1018.3706	1085.4505	1114.8454	1120.5076	1150.4149	1224.5908	1228.5501	1279.477	1354.9136	1400.866	1439.0085	1506.3125	1557.4724	1584.1209	1640.3658	1665.3559	3028.5735	3057.0156	3207.5315	3233.6334	3279.9758	3534.0629	3623.3156
NC1=COC2=C1C=CC2	Nc1coc2c1C=CC2	
InChI=1S/C7H7NO/c8-6-4-9-7-3-1-2-5(6)7/h1-2,4H,3,8H2	InChI=1S/C7H7NO/c8-6-4-9-7-3-1-2-5(6)7/h1-2,4H,3,8H2
