21
gdb 92825	2.45486	1.6592	1.2479	1.2139	84.65	-0.2238	0.0206	0.2445	1091.1717	0.182739	-387.074939	-387.066347	-387.065403	-387.107449	34.3	
C	-0.1199959402	 1.5896427377	-0.114588655	-0.447644
C	-0.041190333	 0.0641828703	-0.0363575042	 0.282093
C	 1.149754716	-0.5323531846	-0.8790716281	-0.285923
C	 1.9925424725	-0.6529962815	 0.4479201054	-0.329936
C	 0.6689974062	-0.5190770249	 1.1625104092	 0.29166
C	-0.1438153201	-1.0868080758	 2.0490062637	-0.246896
C	-1.5850412468	-0.8461446349	 1.6105794896	-0.289229
C	-1.4246564769	-0.6192929268	 0.0682629257	 0.058738
O	-2.4459645607	 0.1498613199	-0.5377280812	-0.438714
H	 0.8740620854	 2.0372592825	-0.0137962887	 0.103208
H	-0.5429820249	 1.9010177873	-1.0742626154	 0.126184
H	-0.7570796289	 1.997619656	 0.6751465777	 0.119934
H	 0.9118173285	-1.5145183147	-1.2952479263	 0.103158
H	 1.5633198404	 0.1060707273	-1.6642371014	 0.097081
H	 2.5679469568	-1.5666860006	 0.6145966174	 0.10896
H	 2.6568753505	 0.2071316412	 0.5791421417	 0.113546
H	 0.1308511111	-1.7156586384	 2.8883262591	 0.089331
H	-2.2395447315	-1.6966955857	 1.8351275348	 0.090814
H	-2.0400331192	 0.0391899219	 2.0759047043	 0.107748
H	-1.3566440538	-1.6119826963	-0.4058193891	 0.062398
H	-3.2785590814	-0.3204584699	-0.4334510291	 0.28349
110.0683	220.6049	230.6854	252.7305	260.3096	265.5897	293.9058	349.4241	473.1809	514.7283	537.6394	628.6776	685.7806	735.8584	779.4794	822.8374	870.6043	887.3891	911.1451	936.7055	966.195	989.2023	1020.4984	1053.6202	1090.3362	1110.7158	1127.7575	1167.274	1179.1363	1200.2499	1222.1292	1227.4346	1254.7158	1276.8786	1287.5253	1311.0376	1346.9837	1404.2436	1423.3887	1470.6209	1484.1775	1486.6237	1492.9003	1494.2042	1730.3736	2963.0216	3010.2397	3037.2876	3049.4725	3055.5774	3056.5313	3100.7112	3105.7579	3114.2825	3119.9474	3190.6939	3823.9703
CC12CCC1=CCC2O	C[C@@]12CC[C]1[CH]C[C@H]2O	
InChI=1S/C8H12O/c1-8-5-4-6(8)2-3-7(8)9/h2,7,9H,3-5H2,1H3	InChI=1S/C8H12O/c1-8-5-4-6(8)2-3-7(8)9/h2,7,9H,3-5H2,1H3/t7-,8-/m1/s1
