19
gdb 65116	3.4093	1.23374	1.03854	1.8464	77.06	-0.2402	0.0223	0.2625	1208.8499	0.160372	-419.199666	-419.19102	-419.190075	-419.233784	31.638	
C	-0.0975741591	 1.488025466	 0.0608680019	-0.471232
C	-0.0323030855	-0.0215358993	-0.046110882	 0.197532
C	 0.7134559155	-0.6620304223	-1.1551700747	-0.262504
N	 1.2586313871	-0.7085812879	 0.2130499566	-0.339637
C	-1.1966692096	-0.7572376512	 0.5244182054	 0.424298
N	-1.7535683597	-1.7866551786	 0.0336965171	-0.319901
C	-2.8121453642	-2.1802134573	 0.9739598115	-0.188767
C	-2.7752791635	-1.0966676838	 2.0834066885	-0.112672
O	-1.6720018848	-0.2478460233	 1.6969657872	-0.263978
H	 0.7863648752	 1.9384724258	-0.4012164038	 0.111941
H	-0.9822804268	 1.882485686	-0.4501239968	 0.130079
H	-0.1475332625	 1.8044746507	 1.1063257779	 0.14161
H	 0.3685619443	-1.6157587627	-1.5385869738	 0.145119
H	 1.180627871	-0.0036518961	-1.8831300488	 0.107657
H	 1.9861023669	-0.0041077131	 0.321577931	 0.228091
H	-3.7770452197	-2.2217928317	 0.4581812379	 0.115452
H	-2.6087807119	-3.1839027156	 1.362812287	 0.119481
H	-3.6808244637	-0.4841377793	 2.1268282714	 0.116311
H	-2.5683080392	-1.4936018763	 3.0807024867	 0.12112
42.181	94.2753	141.2205	196.3837	219.5865	315.5752	342.2153	361.8061	477.1255	550.5614	730.4076	755.8731	809.3302	830.9639	855.2421	917.6499	938.093	968.763	977.4278	994.1476	1009.9053	1034.4979	1056.487	1118.7528	1122.6486	1148.8457	1191.7055	1214.7328	1246.3199	1271.5233	1312.374	1349.3754	1368.9765	1413.1617	1420.8844	1480.9146	1500.07	1503.3494	1511.1326	1526.4896	1740.0263	3036.1282	3039.9702	3053.4376	3068.7298	3102.4868	3102.9219	3116.0094	3118.2027	3216.6439	3479.7202
CC1(CN1)C1=NCCO1	C[C@]1(CN1)C1=NCCO1	
InChI=1S/C6H10N2O/c1-6(4-8-6)5-7-2-3-9-5/h8H,2-4H2,1H3	InChI=1S/C6H10N2O/c1-6(4-8-6)5-7-2-3-9-5/h8H,2-4H2,1H3/t6-/m0/s1
