22
gdb 106669	2.87775	1.23325	1.02863	1.0283	82.8	-0.2146	0.0559	0.2705	1266.5637	0.193245	-404.31205	-404.302169	-404.301225	-404.346278	37.326	
C	-0.1865297857	 1.5616694899	 0.1396856725	-0.408967
C	-0.087243022	 0.045617181	 0.0488739912	 0.000334
C	 0.7524642211	-0.5836213278	-1.1247166209	-0.30806
C	 1.6213440647	-1.2856295331	-0.0740590265	 0.29101
C	 2.2973356833	-2.6207398254	-0.2267745502	-0.220189
O	 2.9750076237	-3.0367178446	 0.9562423761	-0.408916
N	 2.2179139469	-0.1957974624	 0.7410349269	-0.422915
C	 0.8385285298	-0.6870311672	 1.0439248089	 0.287042
C	 0.4740098566	-1.2008047641	 2.4034575837	-0.517658
H	 0.8124656307	 2.0048430546	 0.1649460987	 0.136408
H	-0.7262799276	 1.9733771417	-0.7202710219	 0.107045
H	-0.7217929506	 1.8709732472	 1.0447413206	 0.106678
H	-1.0847811039	-0.4065453505	 0.0721313004	 0.065821
H	 0.1681348794	-1.2700133547	-1.7433726624	 0.095156
H	 1.2884507959	 0.1212386343	-1.7666406474	 0.099556
H	 1.5473177346	-3.3908435659	-0.4446990534	 0.116626
H	 2.985021273	-2.5944758177	-1.0861110847	 0.101401
H	 3.8718547221	-2.6925296069	 0.9210673784	 0.292191
H	 2.8172191903	-0.66021921	 1.4257403655	 0.21128
H	 0.398555722	-0.3832866288	 3.1309572203	 0.121684
H	-0.4952836456	-1.7113229884	 2.3794296691	 0.117782
H	 1.2217261011	-1.914755271	 2.760440715	 0.136692
82.7957	139.9973	162.2955	194.9118	219.2541	230.1212	250.6849	302.7311	316.4668	351.2858	434.8326	489.0408	560.3425	642.5467	673.7892	717.9735	797.49	850.3054	892.7288	918.5944	981.221	1011.9378	1016.7437	1067.4243	1083.4858	1098.5027	1115.7572	1125.1062	1157.5766	1185.0727	1220.932	1236.8835	1241.5392	1303.3576	1338.1983	1372.0129	1389.1902	1401.2394	1408.1035	1415.8075	1458.3037	1489.5177	1490.7465	1494.8842	1495.8171	1505.9808	1510.2921	2985.1948	3022.4927	3028.5823	3042.8782	3049.691	3054.2442	3080.0484	3087.7733	3108.6852	3112.6389	3121.1689	3449.5175	3837.8513
CC1CC2(CO)NC12C	C[C@H]1C[C@@]2(CO)N[C@@]12C	
InChI=1S/C7H13NO/c1-5-3-7(4-9)6(5,2)8-7/h5,8-9H,3-4H2,1-2H3	InChI=1S/C7H13NO/c1-5-3-7(4-9)6(5,2)8-7/h5,8-9H,3-4H2,1-2H3/t5-,6-,7-/m0/s1
