22
gdb 12351	2.75448	1.94699	1.45625	0.2201	82.42	-0.2346	0.0336	0.2682	988.245	0.201678	-313.097988	-313.089685	-313.088741	-313.13001	32.731	
C	-0.0258569194	 1.5604550385	-0.0413717615	-0.415062
C	 0.0596521225	 0.0315656664	-0.0057654269	 0.040582
C	 0.6736233674	-0.5347622133	-1.2987892692	-0.24631
C	 0.9398241723	-2.0139696075	-1.2107144629	-0.055862
C	 0.9191606682	-2.692042188	-0.0638057951	-0.041797
C	 0.6429925455	-2.0545447809	 1.2748097561	-0.269671
C	 0.7905468249	-0.5189353318	 1.2430813201	 0.024646
C	 2.2692423554	-0.1074713498	 1.3305311138	-0.397035
H	 0.9622342399	 2.0208821941	-0.1467543274	 0.115219
H	-0.6337836838	 1.8970772652	-0.8882777486	 0.108764
H	-0.482416778	 1.9544706032	 0.8732813834	 0.10764
H	-0.968780491	-0.3533511704	 0.0524502106	 0.070089
H	 0.0030881144	-0.3275294446	-2.1436170462	 0.097809
H	 1.6072580525	-0.0028367723	-1.5397206329	 0.102357
H	 1.1589196693	-2.5325707484	-2.1415376305	 0.078944
H	 1.103738863	-3.7640731368	-0.0690852129	 0.079609
H	-0.3712641815	-2.3268083099	 1.6030797258	 0.10116
H	 1.3156955699	-2.4790309747	 2.0317178783	 0.094407
H	 0.2824896857	-0.1115959505	 2.1273805021	 0.061397
H	 2.8569848982	-0.535193872	 0.5123079282	 0.123382
H	 2.3942226118	 0.9789661279	 1.3055934286	 0.110914
H	 2.7069428029	-0.4648092545	 2.268564067	 0.108819
136.4102	145.7438	215.9059	240.0058	271.2275	314.0196	359.616	398.7043	448.1327	522.8634	561.9663	674.5264	726.2523	807.383	880.8037	889.7166	908.9931	935.9493	967.6479	1005.4237	1008.4685	1028.9177	1036.0882	1100.5802	1110.8566	1125.0178	1148.0557	1204.4503	1238.2477	1251.8716	1305.8146	1326.2351	1344.4113	1365.9199	1384.865	1398.0145	1409.4723	1414.1399	1418.4269	1474.4488	1476.7185	1494.4651	1498.7957	1504.9	1511.3943	1724.7631	2985.0206	2991.9343	2997.3965	3013.3572	3026.7215	3029.1672	3030.5461	3037.7221	3091.9668	3096.059	3100.8032	3111.3085	3136.7234	3160.994
CC1CC=CCC1C	C[C@H]1CC=CC[C@H]1C	
InChI=1S/C8H14/c1-7-5-3-4-6-8(7)2/h3-4,7-8H,5-6H2,1-2H3	InChI=1S/C8H14/c1-7-5-3-4-6-8(7)2/h3-4,7-8H,5-6H2,1-2H3/t7-,8+
