18
gdb 120249	3.03422	1.02338	0.85372	4.0373	72.41	-0.2383	-0.0234	0.2149	1354.319	0.146961	-439.04272	-439.033888	-439.032944	-439.07701	32.233	
O	 0.1037532908	 1.4263329011	 0.1022908827	-0.419043
C	 0.0254136554	 0.0196021797	-0.068540328	-0.066348
C	-1.3827022598	-0.5216036206	 0.2017262614	-0.231223
C	-1.4625883203	-2.0376697306	 0.0527739158	-0.123706
C	-2.8320474002	-2.7432624987	 0.0942591067	-0.072769
N	-3.593751411	-2.2210995655	-1.0437461018	-0.326924
C	-2.6349727035	-3.3662703227	-1.258737896	-0.186678
C	-1.2783170325	-2.7015543999	-1.3522649024	 0.445809
O	-0.360507377	-2.7675084101	-2.1166862695	-0.313074
H	-0.4281572337	 1.833957396	-0.5884975696	 0.2815
H	 0.362624707	-0.2887090634	-1.0685180022	 0.115588
H	 0.7341238724	-0.4043220214	 0.6522858252	 0.10706
H	-1.6830977366	-0.2290208025	 1.2153203627	 0.104733
H	-2.0962680172	-0.0603805618	-0.4906751792	 0.112076
H	-0.7547447772	-2.5381983286	 0.7275079748	 0.104205
H	-3.3158962828	-3.1810559495	 0.9576222657	 0.109779
H	-4.5231652362	-2.6417118895	-1.0239019807	 0.241811
H	-2.9812379176	-4.3046131619	-1.6722803355	 0.117204
76.4224	88.7142	102.9338	171.5045	231.1816	290.5035	306.6986	394.0876	471.1786	544.5738	618.04	735.3699	752.0849	798.8199	828.7488	852.991	893.0123	942.3913	981.6292	1028.4721	1039.9067	1071.2893	1080.7898	1100.2714	1101.9773	1119.421	1156.8929	1185.5452	1274.5974	1287.4427	1314.8493	1315.7333	1350.6948	1365.8558	1403.5743	1424.535	1493.2631	1517.2083	1890.7107	3007.3625	3028.2515	3032.1517	3056.6817	3084.4435	3199.2805	3210.6491	3468.8151	3816.9295
OCCC1C2NC2C1=O	OCC[C@H]1[C@H]2N[C@H]2C1=O	
InChI=1S/C6H9NO2/c8-2-1-3-4-5(7-4)6(3)9/h3-5,7-8H,1-2H2	InChI=1S/C6H9NO2/c8-2-1-3-4-5(7-4)6(3)9/h3-5,7-8H,1-2H2/t3-,4+,5+/m0/s1
