21
gdb 112878	3.09183	1.04748	0.82716	2.1362	78.94	-0.2351	-0.0177	0.2174	1420.1942	0.181678	-424.265079	-424.255564	-424.25462	-424.299707	35.587	
C	 0.1671858976	 1.5964396751	 0.1319753858	-0.391072
C	 0.0244047653	 0.0733177057	 0.050873969	-0.185355
C	 0.5384890832	-0.5364265357	-1.2620400985	-0.084132
C	 0.6947506689	-2.0665675599	-1.2682260626	-0.245717
C	 0.6681142279	-2.4617181366	-2.7506208025	 0.110178
O	 0.3782155569	-3.8432405751	-2.8627295066	-0.430901
C	-0.3963937241	-1.5280312035	-3.3505463672	-0.351124
C	-0.3434702851	-0.2595948194	-2.4928582793	 0.396649
O	-0.9117288756	 0.7736422678	-2.7425587482	-0.317585
H	 1.2193238722	 1.8948873063	 0.0567722237	 0.106873
H	-0.3800051988	 2.0802362775	-0.6790836558	 0.151015
H	-0.2162971572	 1.9721753801	 1.085739707	 0.107928
H	 0.5718837684	-0.3930089203	 0.8795260014	 0.097088
H	-1.0275902089	-0.2098869792	 0.1835745412	 0.100742
H	 1.5142357644	-0.0816951723	-1.4998508	 0.099722
H	 1.5960450824	-2.4134927336	-0.757684043	 0.107482
H	-0.1666008456	-2.5379234066	-0.777930479	 0.113367
H	 1.6484708881	-2.2374171285	-3.2015038391	 0.071785
H	 0.4171751573	-4.0860110081	-3.7930697725	 0.284215
H	-0.2879493063	-1.2990765748	-4.4138396721	 0.119825
H	-1.384490561	-1.986250419	-3.2078716116	 0.139016
55.6076	100.5607	124.9532	190.8342	250.6875	285.3458	296.584	314.8958	377.4622	454.4653	490.6304	506.763	588.3343	612.564	716.5026	791.9165	870.4804	902.1843	912.9434	954.9051	1017.1349	1028.3335	1044.5011	1087.1954	1107.4644	1139.2519	1153.4236	1176.0857	1198.7011	1234.1976	1261.3513	1283.934	1288.2559	1320.5374	1351.6597	1368.0249	1373.0414	1410.3333	1428.0714	1449.6269	1486.6826	1496.3737	1501.1075	1515.9189	1834.9918	2966.7012	2979.4311	3020.1919	3032.5827	3034.1993	3039.7514	3054.3306	3096.6291	3102.6042	3104.9814	3140.4282	3820.6654
CCC1CC(O)CC1=O	CC[C@H]1C[C@@H](O)CC1=O	
InChI=1S/C7H12O2/c1-2-5-3-6(8)4-7(5)9/h5-6,8H,2-4H2,1H3	InChI=1S/C7H12O2/c1-2-5-3-6(8)4-7(5)9/h5-6,8H,2-4H2,1H3/t5-,6+/m0/s1
