17
gdb 19232	2.99904	2.07326	1.56069	1.7393	73.22	-0.2339	0.0293	0.2632	871.9133	0.141498	-326.644736	-326.637019	-326.636075	-326.676426	29.536	
C	-0.1475507416	 1.597678174	-0.1316124183	-0.415332
C	 0.0496124287	 0.0913465432	-0.0503931197	-0.001146
C	 0.7504120311	-0.6426731774	-1.1918735659	-0.031785
C	 2.1905789702	-0.3334573876	-1.2650067282	-0.242689
N	 1.7484428313	-1.3273997574	-0.2686382759	-0.134375
C	 1.1551317841	-0.5300632038	 0.8843438102	-0.183834
C	 2.0621438316	 0.3561922574	 1.585974503	 0.378929
C	 2.8088165002	 1.1045538476	 2.1604429935	-0.478965
H	 0.7900413889	 2.1214507065	-0.3345707446	 0.126356
H	-0.8565114289	 1.8470458014	-0.9285623338	 0.116413
H	-0.5474415488	 1.9896505672	 0.8091866013	 0.122714
H	-0.9043802933	-0.3917286683	 0.1783283633	 0.087886
H	 0.2408793168	-1.1988018572	-1.9726572179	 0.094198
H	 2.7543555628	-0.7865091653	-2.0745282351	 0.122625
H	 2.5793822944	 0.6205441751	-0.9203191065	 0.125954
H	 0.7226723956	-1.2435764514	 1.5902151994	 0.11203
H	 3.4721385968	 1.7524675761	 2.6783352251	 0.201022
130.5178	134.3605	184.5299	218.2946	296.5195	379.968	466.9639	536.1582	591.1273	622.8502	653.5363	705.5632	753.8061	774.6417	814.9775	905.8341	945.6553	989.4464	1019.9101	1053.8632	1084.7245	1103.2307	1114.9719	1144.4306	1157.453	1212.7382	1237.0568	1279.1563	1347.157	1368.8942	1375.0406	1413.322	1487.6346	1493.2741	1504.4238	2226.9291	3036.3475	3060.9592	3076.7351	3100.7591	3117.8852	3121.3422	3158.5184	3206.482	3502.3973
CC1C2CN2C1C#C	C[C@H]1[C@H]2CN2[C@H]1C#C	
InChI=1S/C7H9N/c1-3-6-5(2)7-4-8(6)7/h1,5-7H,4H2,2H3	InChI=1S/C7H9N/c1-3-6-5(2)7-4-8(6)7/h1,5-7H,4H2,2H3/t5-,6+,7-,8?/m1/s1
