15
gdb 126874	3.95045	1.08291	0.97015	2.3042	75.59	-0.2434	-0.0843	0.1591	1228.4715	0.112257	-446.210836	-446.202836	-446.201892	-446.24448	28.851	
C	 0.3289876284	 1.5415364556	 0.1040664422	-0.36469
C	 0.0595508117	 0.0490691447	-0.1142927036	-0.150253
N	 0.8107809394	-0.4272300794	-1.2672937955	-0.245348
C	 1.6928761289	-1.3198756126	-1.1324413889	 0.430016
N	 2.0087962071	-2.0167960124	 0.0682132575	-0.190417
N	 3.2078296997	-2.3461091696	 0.2291721398	-0.029103
N	 4.062358067	-2.0270987781	-0.8003236566	-0.17482
N	 3.595429319	-2.1013760637	-2.1068553053	-0.026774
N	 2.4043592281	-1.7709205298	-2.2824349856	-0.162569
H	 1.3739448924	 1.712366028	 0.3805506788	 0.120626
H	 0.1209508053	 2.1079617899	-0.8074717562	 0.134316
H	-0.3048091336	 1.9241346292	 0.9093674702	 0.119004
H	 0.2670660269	-0.5169995946	 0.8007144611	 0.124214
H	-1.0003761186	-0.0875203432	-0.3621737359	 0.121993
H	 4.9585957482	-2.4882368341	-0.699695492	 0.293804
36.2795	104.7139	170.9972	198.9802	278.9075	414.2549	437.0216	447.3354	571.307	615.2584	683.1088	691.5226	760.7324	805.0976	832.1096	870.4632	924.7316	974.1069	1054.7364	1106.2342	1129.8505	1140.8753	1193.8824	1297.0102	1367.9573	1376.2632	1404.7421	1488.5838	1493.2471	1511.0556	1570.778	1615.6572	1744.4491	3024.4373	3043.0946	3067.5705	3115.6649	3126.9151	3585.1338
CCN=C1N=NNN=N1	CCN=c1nn[nH]nn1	
InChI=1S/C3H6N6/c1-2-4-3-5-7-9-8-6-3/h2H2,1H3,(H,4,5,6,9)	InChI=1S/C3H6N6/c1-2-4-3-5-7-9-8-6-3/h2H2,1H3,(H,4,5,6,9)
