18
gdb 106936	4.02759	1.14498	1.02046	4.4607	72.58	-0.2384	0.0274	0.2659	1189.2128	0.148076	-439.103193	-439.094752	-439.093808	-439.136382	31.552	
C	-0.3126352291	 1.3027063497	-0.0993898108	-0.257776
O	 0.2405871963	 0.0103953919	 0.0918835246	-0.285696
C	 0.8030419676	-0.5335903754	-1.0503765809	 0.44328
C	-0.0680999952	-1.1093392036	-2.1271503521	-0.342717
C	 0.7958293895	-2.0227199894	-1.2611497614	-0.25392
C	 2.1366735118	-2.3890058543	-1.8427172508	 0.435475
O	 2.5717433428	-3.4947872482	-2.0734515253	-0.384377
N	 2.7948665127	-1.2006058948	-2.0760122754	-0.329391
C	 2.186024187	-0.0253992202	-1.4785245825	-0.24163
H	 0.4553470582	 2.0433446841	-0.363596948	 0.11316
H	-1.0808246255	 1.2989662336	-0.88461994	 0.11464
H	-0.7687380337	 1.5940880265	 0.8488967616	 0.134177
H	-1.1308531101	-1.1444150518	-1.9142721976	 0.127111
H	 0.193223073	-0.9754114495	-3.1721428334	 0.125111
H	 0.3192997911	-2.7138423847	-0.5799959558	 0.121089
H	 3.7443631012	-1.214540885	-2.4122406918	 0.251764
H	 2.1326844387	 0.8069239603	-2.1908540495	 0.111247
H	 2.7296598937	 0.3166925708	-0.5869046008	 0.118453
85.3607	115.405	161.443	182.0688	271.1207	340.009	367.7198	423.3401	468.3219	506.6778	613.117	665.233	721.1791	772.545	826.2183	913.1529	929.0429	981.1372	996.0136	1027.9579	1064.9048	1078.4175	1090.4803	1107.6147	1180.7541	1206.288	1211.5064	1231.8971	1242.1723	1302.6572	1337.4245	1379.2338	1441.0066	1471.6952	1488.0641	1493.179	1505.6251	1527.4555	1833.109	2993.8794	3005.6161	3044.2648	3049.5097	3126.7499	3127.8731	3218.3004	3225.7001	3645.4047
COC12CC1C(=O)NC2	CO[C@]12C[C@H]1C(=O)NC2	
InChI=1S/C6H9NO2/c1-9-6-2-4(6)5(8)7-3-6/h4H,2-3H2,1H3,(H,7,8)	InChI=1S/C6H9NO2/c1-9-6-2-4(6)5(8)7-3-6/h4H,2-3H2,1H3,(H,7,8)/t4-,6-/m0/s1
