17
gdb 98505	2.369	1.34978	0.92629	3.0782	76.35	-0.2622	-0.0303	0.2319	1242.1557	0.132995	-421.796765	-421.787505	-421.78656	-421.830998	34.32	
O	 0.0893101478	 1.3851071067	-0.1419806148	-0.420888
C	-0.0052467447	 0.0089437789	-0.3523983059	-0.161297
C	-1.32689147	-0.5354812404	 0.1601629261	 0.296407
O	-2.125778491	 0.2248939162	 0.673946649	-0.348593
C	-1.613187828	-1.9998784641	 0.0206060143	 0.075445
C	-2.4853371579	-2.5982103405	 1.1411519049	-0.27668
C	-3.0995870307	-2.3515810166	-0.1832591775	-0.276643
C	-0.6211326014	-2.8349821022	-0.5950716536	 0.191447
C	 0.2086899122	-3.5369158859	-1.1107278772	-0.406139
H	-0.7419694966	 1.6335865073	 0.2929949628	 0.293835
H	 0.0801614811	-0.2471206781	-1.4210037113	 0.127423
H	 0.8086795719	-0.5380850918	 0.1509385399	 0.127318
H	-2.2458903174	-3.6142076288	 1.4292905616	 0.140262
H	-2.7230706973	-1.9121989003	 1.9453463559	 0.150013
H	-3.7575545943	-1.4968636022	-0.2851984989	 0.149995
H	-3.2967376206	-3.1921964331	-0.8367937256	 0.140279
H	 0.943535467	-4.153414335	-1.5666126997	 0.197817
55.3981	123.1464	129.8711	209.5361	222.5619	266.5026	325.2583	379.7293	414.1092	511.5522	518.5774	539.1875	581.2549	596.8855	673.1408	773.3653	795.8695	809.4468	877.1243	972.2493	973.2458	1026.8181	1060.2615	1090.3674	1105.5785	1150.3594	1209.9459	1243.4963	1278.251	1296.0831	1327.258	1451.0336	1452.3267	1480.2832	1482.6384	1768.3702	2235.259	2982.1279	2997.5609	3151.0193	3151.7454	3243.6376	3257.5896	3501.1387	3687.0593
OCC(=O)C1(CC1)C#C	OCC(=O)C1(CC1)C#C	
InChI=1S/C7H8O2/c1-2-7(3-4-7)6(9)5-8/h1,8H,3-5H2	InChI=1S/C7H8O2/c1-2-7(3-4-7)6(9)5-8/h1,8H,3-5H2
