20
gdb 91889	2.36507	1.62453	1.07032	3.4141	80.	-0.2169	-0.0088	0.2081	1159.1488	0.172075	-403.150804	-403.142541	-403.141597	-403.183626	32.	
C	-0.0817997588	 1.454158307	 0.0234574777	-0.315359
N	-0.0036148251	 0.0038612051	-0.0020930811	-0.067611
C	 0.5894594642	-0.4813291393	-1.2435973906	-0.161773
C	 0.6676528164	-2.0057993507	-1.3075135773	-0.054728
C	 1.8782105054	-2.7125121391	-0.7868210395	-0.292157
C	 0.5675576963	-2.7921956486	-0.0109644531	-0.110828
C	 0.4434880429	-2.0396971679	 1.265379	 0.407912
O	 0.1446507178	-2.5744333213	 2.3095549433	-0.329554
C	 0.6777238986	-0.5322692298	 1.1720692031	-0.272264
H	 0.9096049327	 1.9461629222	-0.0134432531	 0.092396
H	-0.6638315113	 1.8067181787	-0.8342681703	 0.119941
H	-0.5878134846	 1.7811885008	 0.9366841859	 0.124226
H	-0.0285434737	-0.1180041843	-2.0712973417	 0.108283
H	 1.6011245888	-0.0520999959	-1.395103431	 0.079264
H	 0.1730901077	-2.4568184497	-2.1607292069	 0.101252
H	 2.2088177079	-3.6243259913	-1.2705152903	 0.125518
H	 2.6802046679	-2.111179769	-0.3707103019	 0.122918
H	 0.0584134209	-3.7490566357	-0.0088478499	 0.106971
H	 1.76827171	-0.3162156801	 1.1692025516	 0.089019
H	 0.2619102759	-0.0867143113	 2.0784903851	 0.126574
84.6706	131.3034	190.6954	251.5078	310.476	355.1932	368.4816	422.3954	461.4331	479.2565	587.0484	679.8296	762.4186	812.6671	859.4523	903.1275	922.6623	928.2766	980.6746	1012.5557	1057.928	1061.2198	1078.8995	1125.0198	1138.214	1153.5949	1159.5291	1213.6548	1220.7157	1261.2779	1277.1988	1315.4225	1360.6315	1365.9909	1393.9202	1407.3737	1456.0721	1478.3806	1485.5063	1486.9519	1504.5326	1511.4123	1806.9039	2867.7207	2887.6064	2922.5109	3058.1455	3061.1027	3102.6385	3107.261	3132.372	3165.3441	3182.2233	3221.0115
CN1CC2CC2C(=O)C1	CN1C[C@H]2C[C@H]2C(=O)C1	
InChI=1S/C7H11NO/c1-8-3-5-2-6(5)7(9)4-8/h5-6H,2-4H2,1H3	InChI=1S/C7H11NO/c1-8-3-5-2-6(5)7(9)4-8/h5-6H,2-4H2,1H3/t5-,6-/m1/s1
