23
gdb 114696	3.54755	1.05826	0.99376	1.7708	85.14	-0.2503	0.0885	0.3388	1348.6332	0.205678	-388.305078	-388.295782	-388.294837	-388.338803	35.943	
C	 0.3822878218	 1.20284723	-0.5452206893	-0.388299
C	-0.1133446764	-0.2076323892	-0.2126624078	-0.173535
C	-1.5747637577	-0.2596550859	 0.2697328875	 0.023631
C	-2.6071749293	 0.0498516248	-0.8573122172	-0.259935
C	-3.1083892692	-1.3034992149	-1.3120939765	-0.004028
O	-2.0549607854	-2.2411343364	-1.5935361329	-0.297624
C	-2.7468754683	-2.3353111946	-0.330609996	 0.424572
C	-3.5128316732	-3.6074731961	-0.0921224885	-0.484635
C	-1.9764996453	-1.668238317	 0.7978568457	-0.304843
H	 1.4307021765	 1.1856649099	-0.8592940145	 0.111665
H	-0.1927936843	 1.6611812285	-1.3567070987	 0.114815
H	 0.3069995135	 1.8652002965	 0.325204474	 0.108574
H	-0.0037113483	-0.8656751103	-1.0805875759	 0.119682
H	 0.5242116588	-0.6259074849	 0.5771500288	 0.086371
H	-1.6820336713	 0.4753896428	 1.075390806	 0.06557
H	-3.4548439049	 0.6322677767	-0.4759010973	 0.097287
H	-2.1688731049	 0.6242712591	-1.6794647033	 0.107761
H	-3.982864153	-1.386156816	-1.954774105	 0.083667
H	-4.031182724	-3.9216517594	-1.0015341366	 0.128215
H	-2.8377400408	-4.4159295854	 0.2099418667	 0.125975
H	-4.2515269635	-3.4742322829	 0.7055822953	 0.119068
H	-1.1048078851	-2.257769429	 1.1029898783	 0.101522
H	-2.6341371258	-1.5900063661	 1.6725098173	 0.094525
87.9392	122.3047	164.6226	198.6097	238.1732	266.6159	293.4164	365.083	382.6498	414.0215	459.6702	596.9361	685.9213	737.3614	784.791	803.7645	848.5894	893.8551	902.6539	925.9533	952.5351	982.1364	1013.3407	1033.2761	1040.1636	1067.3242	1089.4612	1129.9569	1161.0202	1200.7578	1224.1497	1248.1714	1259.3023	1291.9557	1308.9343	1330.0661	1338.0014	1361.1384	1387.1674	1411.8575	1412.948	1458.9312	1475.5894	1483.2988	1490.4788	1494.9646	1500.8861	1503.5069	1508.613	3019.9827	3022.0891	3027.4951	3029.9322	3033.7097	3043.3754	3070.7776	3076.9598	3080.2963	3094.0647	3099.3513	3100.1951	3120.5495	3130.7541
CCC1CC2OC2(C)C1	CC[C@H]1C[C@H]2O[C@@]2(C)C1	
InChI=1S/C8H14O/c1-3-6-4-7-8(2,5-6)9-7/h6-7H,3-5H2,1-2H3	InChI=1S/C8H14O/c1-3-6-4-7-8(2,5-6)9-7/h6-7H,3-5H2,1-2H3/t6-,7+,8-/m0/s1
