19
gdb 57344	1.78636	1.54854	1.03851	3.9239	78.15	-0.2449	-0.0251	0.2199	1226.827	0.153592	-423.001826	-422.991078	-422.990134	-423.037406	39.029	
C	 0.0586003059	 1.5751772075	 0.2100972564	-0.431679
C	-0.0027688882	 0.0457287384	 0.099240284	 0.332619
C	 0.6013375502	-0.6139732781	 1.3438980916	-0.420433
O	-1.3539297382	-0.3845108305	-0.0866075513	-0.459177
C	 0.7069012639	-0.4984431922	-1.1801791748	-0.238669
C	-0.0589989161	-0.1155526059	-2.4588929757	 0.168247
O	-0.4680227027	-0.9188572596	-3.2494272908	-0.23986
C	 2.0845127122	-0.0436318917	-1.3117244801	 0.308649
C	 3.2094979615	 0.3536844798	-1.4637515537	-0.461449
H	 1.0916312094	 1.9291522842	 0.2477956037	 0.137582
H	-0.446237727	 2.0557580102	-0.631518561	 0.126701
H	-0.4430302595	 1.8976456906	 1.1297110082	 0.108517
H	 0.0957004851	-0.253603333	 2.2470258183	 0.10709
H	 0.480974122	-1.6995783197	 1.2931776918	 0.12773
H	 1.6658189051	-0.3813685492	 1.4377235307	 0.13365
H	-1.8739359396	-0.0685703626	 0.6598236742	 0.281836
H	 0.6748876322	-1.5926935737	-1.1367814344	 0.1281
H	-0.175441781	 0.9765433239	-2.6202828528	 0.086787
H	 4.2095897447	 0.6883694514	-1.5904525043	 0.203759
57.8292	80.0737	140.2411	176.7242	214.3802	217.85	251.5857	268.8327	318.5903	340.1318	382.11	418.6368	465.9884	476.8625	506.7305	568.1999	640.668	647.6168	781.1753	910.2008	925.0934	945.2487	981.4105	1005.7125	1051.4118	1064.9428	1136.4387	1178.9784	1217.7434	1271.0581	1315.3174	1356.9012	1397.5443	1415.061	1422.6834	1480.9197	1483.9181	1500.0662	1508.5522	1842.8142	2229.4194	2909.3305	3032.882	3039.6764	3055.9789	3102.3707	3108.3594	3124.8569	3134.7229	3501.3379	3814.1257
CC(C)(O)C(C=O)C#C	CC(C)(O)[C@@H](C=O)C#C	
InChI=1S/C7H10O2/c1-4-6(5-8)7(2,3)9/h1,5-6,9H,2-3H3	InChI=1S/C7H10O2/c1-4-6(5-8)7(2,3)9/h1,5-6,9H,2-3H3/t6-/m1/s1
