18
gdb 31075	2.29589	1.46101	0.90805	0.5158	77.8	-0.1958	0.0133	0.2091	1292.7211	0.14597	-439.128789	-439.119062	-439.118118	-439.16425	33.434	
C	 0.0973291707	 1.4505405237	 0.0285028662	-0.235974
O	 0.0480381531	 0.0277764736	 0.0269427527	-0.276468
C	 0.6091822655	-0.5841980237	-1.0333018698	 0.277816
C	 0.6743511217	-1.9269907392	-1.2377452106	 0.199963
C	 0.220991105	-3.1212898953	-0.4890567539	-0.503835
O	 1.3312849381	-2.0929210184	-2.443867501	-0.20763
C	 1.6141218581	-0.8469037246	-2.8789136599	 0.380107
C	 2.3301697482	-0.70340403	-4.1728030569	-0.488102
N	 1.2072077943	 0.0935009585	-2.0782632145	-0.389384
H	 1.1302507832	 1.8136091683	 0.0185125772	 0.130733
H	-0.4260263368	 1.8684744238	-0.837668217	 0.13077
H	-0.3981496029	 1.7629466514	 0.9491900882	 0.125886
H	-0.4937597608	-3.7224591849	-1.0639425772	 0.13339
H	 1.0555677336	-3.7769101037	-0.2126309772	 0.13339
H	-0.2720327217	-2.7934172481	 0.4291842365	 0.147708
H	 1.7578144017	-1.1485874818	-4.9936283261	 0.144157
H	 2.4808088399	 0.3564600682	-4.3792267286	 0.153317
H	 3.3044471491	-1.2028778676	-4.143744498	 0.144157
46.8721	83.9118	133.1592	154.0827	183.1088	185.7451	241.1497	246.0148	363.2332	363.7825	552.2071	612.895	631.7639	664.6589	729.0141	822.431	947.109	1020.1064	1047.8659	1061.1122	1064.7889	1068.8518	1179.5235	1183.2491	1197.1956	1234.7234	1338.3233	1385.3199	1411.036	1427.6895	1474.5195	1475.0274	1481.0192	1481.9629	1486.466	1495.8259	1504.3318	1614.3121	1707.1152	3021.0356	3031.0567	3040.6667	3067.048	3093.012	3096.9064	3127.2003	3139.4672	3155.6025
COC1=C(C)OC(C)=N1	COc1c(C)oc(C)n1	
InChI=1S/C6H9NO2/c1-4-6(8-3)7-5(2)9-4/h1-3H3	InChI=1S/C6H9NO2/c1-4-6(8-3)7-5(2)9-4/h1-3H3
