19
gdb 59840	4.91954	0.53918	0.50994	1.6272	86.69	-0.245	0.0413	0.2864	2157.089	0.155135	-385.826731	-385.815794	-385.81485	-385.865266	38.362	
C	-0.1024753198	 1.557000307	-0.1425609345	-0.402514
C	-0.0989131012	 0.0280400748	-0.1697528015	 0.14936
O	 1.0530708677	-0.5029230574	 0.4663783599	-0.420775
C	-1.4013001643	-0.5472133361	 0.433956016	-0.377621
C	-1.4815422371	-2.0007855363	 0.3737984986	 0.049619
C	-1.5455596811	-3.1999733191	 0.308174108	 0.132337
C	-1.6104919588	-4.660773368	 0.2357074661	-0.49296
C	-2.7358351039	-5.1627045671	-0.5562499363	 0.318884
C	-3.6543478499	-5.5868348191	-1.202674502	-0.448335
H	 0.8335192918	 1.9404913342	-0.5563779883	 0.127353
H	-0.934721779	 1.9664188633	-0.7243194259	 0.117482
H	-0.1986702834	 1.9277672789	 0.8859237495	 0.106591
H	-0.022391464	-0.3176243101	-1.2065883076	 0.102224
H	 1.0360310097	-0.2261222533	 1.3895606426	 0.27632
H	-1.4810335175	-0.2088466942	 1.4779593133	 0.113757
H	-2.2594948023	-0.10696506	-0.090524908	 0.129808
H	-0.6723688064	-5.0481700841	-0.1855808472	 0.162201
H	-1.6704374149	-5.0782443038	 1.2505516985	 0.15791
H	-4.4678449256	-5.9568986095	-1.7757945212	 0.198359
8.2174	51.6526	86.4427	100.4926	236.2926	239.6234	261.4345	276.957	315.1825	323.0675	379.6592	394.2131	456.3191	501.9177	570.865	619.6873	645.8245	797.0124	836.6715	895.1698	933.7596	935.0208	953.972	1061.5988	1090.3735	1148.2874	1163.3006	1200.1707	1230.686	1306.9387	1332.6196	1337.0655	1371.5366	1403.5395	1424.336	1452.8892	1463.533	1491.4701	1495.8832	2246.566	2379.4082	2997.0285	3006.6842	3024.1933	3030.3708	3039.9676	3058.264	3095.7034	3122.4261	3507.4245	3794.7725
CC(O)CC#CCC#C	C[C@@H](O)CC#CCC#C	
InChI=1S/C8H10O/c1-3-4-5-6-7-8(2)9/h1,8-9H,4,7H2,2H3	InChI=1S/C8H10O/c1-3-4-5-6-7-8(2)9/h1,8-9H,4,7H2,2H3/t8-/m1/s1
