20
gdb 81457	2.26721	1.93724	1.64324	1.3519	76.88	-0.2349	0.0676	0.3025	957.4498	0.173947	-403.107334	-403.100013	-403.099069	-403.138656	30.168	
C	-0.4462905816	 1.5954041172	-0.0622877086	-0.4355
C	-0.0104491626	 0.1404825848	 0.023047363	 0.041104
C	 1.0395651511	-0.5238979271	-0.8998207801	 0.060513
C	 2.3402719595	 0.2829259542	-1.0771023993	-0.231208
C	 2.961490836	 0.6045718406	 0.280047994	-0.012757
N	 2.3111300258	 1.6323278856	 1.1179006619	-0.336361
C	 2.169552437	 0.2056108589	 1.4709174114	-0.03581
C	 0.876674259	-0.5184349152	 1.1177564071	 0.045658
O	 1.2545084362	-1.5341631673	 0.1299845838	-0.300579
H	 0.3910264084	 2.2885866864	-0.0827295062	 0.14936
H	-1.0614501937	 1.7387150845	-0.9586681364	 0.102858
H	-1.0696564813	 1.8547829663	 0.8009480242	 0.111007
H	-0.9003142228	-0.495472681	-0.0331523287	 0.086647
H	 0.7027572208	-0.9632141321	-1.8434693768	 0.070315
H	 3.0456404333	-0.3353880971	-1.6427680503	 0.106874
H	 2.1601707828	 1.1913110525	-1.663996359	 0.107339
H	 4.0441937798	 0.5380632291	 0.3375013074	 0.086683
H	 3.0030935078	 2.0638277008	 1.7253012857	 0.230279
H	 2.6914500186	-0.1591325852	 2.3515315704	 0.084914
H	 0.3828186459	-0.9586540161	 1.9880395165	 0.068665
154.5187	183.0047	255.3474	286.0731	361.9063	413.9719	453.645	550.8093	617.8948	620.2828	747.3274	754.8392	835.4089	858.1486	873.332	891.7867	899.7469	924.7597	961.0392	990.9453	1013.0287	1034.3774	1096.1547	1114.1836	1118.4079	1150.7056	1160.2877	1188.9815	1196.4763	1237.1328	1252.1652	1267.5545	1320.4026	1327.6268	1346.5406	1379.9197	1387.6144	1411.2548	1416.4061	1454.0241	1467.3129	1488.3263	1513.1514	3029.9931	3035.7275	3045.5971	3065.8302	3074.6808	3079.3672	3082.9912	3137.9315	3148.2961	3178.454	3498.29
CC1C2CC3NC3C1O2	C[C@H]1[C@H]2C[C@H]3N[C@H]3[C@@H]1O2	
InChI=1S/C7H11NO/c1-3-5-2-4-6(8-4)7(3)9-5/h3-8H,2H2,1H3	InChI=1S/C7H11NO/c1-3-5-2-4-6(8-4)7(3)9-5/h3-8H,2H2,1H3/t3-,4+,5+,6+,7+/m0/s1
