23
gdb 118901	3.60969	0.90424	0.87761	1.3414	86.65	-0.2455	0.0206	0.2661	1480.3566	0.205114	-388.311819	-388.302122	-388.301178	-388.346356	37.203	
C	 0.0175910527	 1.5765893451	-0.0880392408	-0.383189
C	 0.0161828511	 0.0511781721	 0.0414311741	-0.169893
C	-1.3974583654	-0.5421188121	 0.0177392074	-0.204011
C	-1.4445126429	-2.0687090301	 0.0752447276	 0.377941
O	-0.7256549961	-2.5313877651	-1.0733056294	-0.476133
C	-0.8281534802	-2.7003726705	 1.3600150442	-0.294123
C	-1.6451069618	-3.9564960509	 1.5521321384	-0.082438
C	-2.7682285825	-3.9289163447	 0.8328123317	-0.077623
C	-2.888920767	-2.6495350506	 0.0399173367	-0.300401
H	 1.0360032093	 1.9774461288	-0.0694804863	 0.108863
H	-0.4472491822	 1.8944861848	-1.0281517003	 0.113398
H	-0.5397762048	 2.0481422927	 0.7296869421	 0.108567
H	 0.597605162	-0.3956938974	-0.7709445173	 0.117847
H	 0.5190167253	-0.23463775	 0.9742358085	 0.090574
H	-1.9831904388	-0.1446036609	 0.8563547301	 0.086773
H	-1.9074122691	-0.2227169024	-0.9005869101	 0.097421
H	-0.7343204474	-3.4948928413	-1.0450699086	 0.277363
H	 0.2430280156	-2.8822456906	 1.2242244104	 0.108394
H	-0.9303961874	-2.0349159089	 2.2288741851	 0.105502
H	-1.3496707136	-4.7545695664	 2.2244822059	 0.092065
H	-3.5295765793	-4.7012643972	 0.8279990148	 0.092217
H	-3.6115533894	-1.9670180406	 0.508990561	 0.103472
H	-3.2114732582	-2.7920387738	-0.9970694851	 0.107414
74.53	95.7119	115.1446	161.2718	243.4145	304.3394	326.0781	362.5066	371.8516	395.1578	413.8311	478.0689	671.3492	702.528	747.7875	782.6783	793.3108	865.1721	895.8456	921.9615	926.839	952.4004	974.8524	978.8016	1026.4625	1045.952	1058.1715	1091.012	1129.8714	1131.9176	1144.2855	1189.1581	1228.7492	1281.2514	1281.652	1296.1877	1317.5919	1339.0999	1365.2104	1387.3548	1410.3221	1415.1622	1469.8508	1472.5273	1480.275	1494.7522	1498.9595	1511.5671	1675.7882	3008.0247	3009.3783	3017.8194	3025.6136	3028.6753	3053.1548	3068.0695	3070.2394	3076.4731	3098.6645	3100.2509	3179.7921	3204.9949	3795.0088
CCCC1(O)CC=CC1	CCC[C@@]1(O)CC=CC1	
InChI=1S/C8H14O/c1-2-5-8(9)6-3-4-7-8/h3-4,9H,2,5-7H2,1H3	InChI=1S/C8H14O/c1-2-5-8(9)6-3-4-7-8/h3-4,9H,2,5-7H2,1H3
