16
gdb 89939	3.23457	1.37305	1.13028	3.2317	69.89	-0.2725	-0.0122	0.2603	1080.763	0.123658	-437.853417	-437.845452	-437.844507	-437.886003	29.566	
C	 0.3267013157	 1.5775661754	-0.0220400882	-0.415285
C	 0.0285456961	 0.1038736067	 0.1056296114	 0.123378
O	 0.7739288255	-0.7245095315	-0.8520606068	-0.341665
C	 1.2533870142	-1.5920121083	 0.1827480062	 0.274077
C	 2.6027816877	-1.1361098182	 0.7744849479	-0.121552
O	 1.9282323936	-0.2401729269	 1.6923003658	-0.281354
C	 0.6308799968	-0.6905960187	 1.2827979044	-0.008676
C	 1.0004655327	-2.9993722216	-0.0490063812	 0.228214
N	 0.8083258639	-4.1273460344	-0.2120175419	-0.332069
H	 1.3728812469	 1.781047936	 0.215432799	 0.140558
H	 0.1178441571	 1.9124176915	-1.0421743679	 0.137512
H	-0.3069986838	 2.1512349358	 0.6622498668	 0.12795
H	-1.0437761195	-0.1033474039	-0.0074694429	 0.09737
H	 3.1543177078	-1.9153597457	 1.3118710678	 0.12885
H	 3.2522546203	-0.6165511134	 0.0643107658	 0.131785
H	-0.002823945	-1.0043907026	 2.1126826138	 0.110907
98.7782	147.6865	185.5387	211.6485	241.0228	346.7611	402.7214	454.2462	542.7977	560.7117	631.5287	680.9007	814.1123	869.2418	905.4584	949.757	964.4805	1013.2372	1038.0247	1072.5744	1100.2392	1117.3917	1149.3266	1159.8324	1187.0832	1249.6521	1303.569	1314.8591	1360.5097	1379.074	1408.8477	1483.2301	1492.3193	1500.237	2357.3272	3022.4282	3038.5213	3046.546	3106.3951	3115.159	3115.9102	3140.0838
CC1OC2(COC12)C#N	C[C@H]1O[C@]2(CO[C@@H]12)C#N	
InChI=1S/C6H7NO2/c1-4-5-6(2-7,9-4)3-8-5/h4-5H,3H2,1H3	InChI=1S/C6H7NO2/c1-4-5-6(2-7,9-4)3-8-5/h4-5H,3H2,1H3/t4-,5+,6+/m1/s1
