18
gdb 108055	3.7677	1.39169	1.26125	1.7038	70.63	-0.2162	0.0486	0.2649	1029.3909	0.148592	-439.002717	-438.995325	-438.994381	-439.034725	29.197	
O	-0.0537624031	 1.4542660259	-0.2118919991	-0.417814
C	 0.0727547264	 0.0527646761	-0.0408382269	-0.168808
C	-1.2849122437	-0.5742572883	 0.1360862217	 0.420172
C	-2.1262819452	-0.4176352941	 1.4172502285	-0.211616
N	-2.7504209559	-1.7795666816	 1.2250752874	-0.162837
C	-3.7900471931	-1.7031899415	 0.1334769799	-0.185435
C	-2.7062197604	-1.6492725182	-0.9550609904	 0.09636
O	-2.1183901274	-0.3274034515	-1.03860234	-0.357651
C	-1.7019248656	-2.0663248788	 0.1430554899	-0.13107
H	-0.661464565	 1.5831736087	-0.9500037659	 0.297665
H	 0.585303615	-0.4160965405	-0.8955735911	 0.092217
H	 0.6867480266	-0.1064320649	 0.8518421983	 0.111516
H	-1.5134815441	-0.4258765821	 2.3248048675	 0.110936
H	-2.8265964182	 0.4205329231	 1.455375816	 0.113634
H	-4.3567929588	-2.6402567763	 0.111520002	 0.111823
H	-4.4799773205	-0.8569320639	 0.1964308006	 0.11224
H	-2.8586314222	-2.0992240808	-1.9384513247	 0.084169
H	-1.071627505	-2.9515549213	 0.1998384862	 0.0845
72.1386	144.383	266.8677	311.2584	390.5607	400.0361	429.3427	469.2092	668.3319	687.3259	772.6733	809.3879	837.6425	867.7495	895.9455	911.7577	926.1782	965.8935	990.5442	1004.5219	1039.6131	1068.0951	1093.2768	1124.4236	1158.029	1184.2623	1193.8284	1200.8939	1238.0752	1241.6567	1252.1237	1303.1765	1320.2266	1345.1992	1379.8523	1433.9473	1474.301	1487.3055	1495.9585	2982.2336	3039.4452	3044.4267	3076.623	3085.3237	3102.2133	3109.627	3135.0763	3793.4509
OCC12CN3CC(O1)C23	OC[C@@]12CN3C[C@@H](O1)[C@@H]23	
InChI=1S/C6H9NO2/c8-3-6-2-7-1-4(9-6)5(6)7/h4-5,8H,1-3H2	InChI=1S/C6H9NO2/c8-3-6-2-7-1-4(9-6)5(6)7/h4-5,8H,1-3H2/t4-,5+,6-/m1/s1
