13
gdb 133457	3.48585	1.20976	1.06395	2.4656	57.21	-0.229	0.0122	0.2412	1072.4427	0.087544	-547.153444	-547.146072	-547.145127	-547.186527	27.185	
F	 0.0162665725	 0.0525168565	-0.0106379061	-0.074344
C	-0.0266885042	 1.3993507571	 0.0396299865	 0.212039
F	 1.2603812102	 1.8093499905	 0.0752169236	-0.090505
F	-0.5700619709	 1.815796812	-1.1085036314	-0.064354
C	-0.778091306	 1.91387484	 1.2102969616	 0.153918
C	-2.0934416093	 2.2997251485	 1.3339054488	-0.232612
C	-2.2989250645	 2.6476596485	 2.6940903786	-0.141634
C	-1.1029789254	 2.4625268469	 3.3532153689	-0.083599
N	-0.1862320401	 2.0112278421	 2.4451539345	-0.304132
H	-2.8166619103	 2.3256455942	 0.5344584952	 0.116032
H	-3.2170017249	 2.9993173833	 3.1379032174	 0.106015
H	-0.8292863837	 2.6220292777	 4.3836558187	 0.128844
H	 0.7862290368	 1.8294967526	 2.6258915537	 0.274331
32.2982	136.1518	177.2421	375.4335	379.3102	411.8171	503.0239	549.9236	583.1635	630.1369	700.665	739.7242	741.0205	819.5648	872.9067	896.5075	946.7038	1055.4922	1088.5798	1129.6639	1151.4313	1164.7791	1206.7561	1285.1329	1345.6912	1452.9638	1471.2528	1490.731	1617.0042	3251.458	3265.6285	3276.1964	3679.0841
FC(F)(F)C1=CC=CN1	FC(F)(F)c1ccc[nH]1	
InChI=1S/C5H4F3N/c6-5(7,8)4-2-1-3-9-4/h1-3,9H	InChI=1S/C5H4F3N/c6-5(7,8)4-2-1-3-9-4/h1-3,9H
