20
gdb 114463	3.18936	1.33306	1.18348	0.533	77.63	-0.2282	0.0519	0.2801	1135.9095	0.171568	-403.065578	-403.057577	-403.056633	-403.098362	31.264	
C	-0.637264129	 1.1189882219	-0.1292535607	-0.387147
C	 0.7150467639	 0.4684413201	 0.1873952175	-0.217272
C	 1.2690877884	-0.2721403301	-1.0178341564	 0.144488
O	 2.6371672027	-0.7798508707	-0.8863584545	-0.326569
C	 2.2764262772	-2.0120251169	-1.5613143842	 0.094732
C	 1.9928411255	-3.2133632085	-0.6453378345	-0.040995
C	 1.4498151123	-2.7706969758	 0.6423450075	-0.2455
N	 0.5202204205	-2.8052270927	-0.5135044693	-0.168183
C	 0.7932345563	-1.6618526138	-1.4835191511	-0.048008
H	-0.5538966369	 1.8307678857	-0.9576821423	 0.11774
H	-1.3834117498	 0.3673717826	-0.4076846536	 0.128455
H	-1.0211219022	 1.661331152	 0.7391766913	 0.120065
H	 1.4455598287	 1.2362033397	 0.4709024575	 0.111661
H	 0.6058196704	-0.1981517098	 1.0458100592	 0.110676
H	 1.2368867021	 0.4096883634	-1.8840566719	 0.075337
H	 2.843712509	-2.1847453275	-2.4777068388	 0.082592
H	 2.2769853533	-4.2380988125	-0.8631856819	 0.095286
H	 1.1977370318	-3.5395785191	 1.3665380941	 0.12241
H	 1.8033853738	-1.8391647981	 1.0631943548	 0.139244
H	 0.096809012	-1.72436939	-2.3179023528	 0.090986
60.8893	154.3243	171.8592	240.8355	276.1604	362.5044	419.576	507.3037	595.1929	645.6397	707.9273	722.2798	789.1226	840.1272	877.2432	901.2701	930.3747	938.8649	966.9266	983.6072	996.4892	1026.6153	1057.7219	1083.8988	1113.3476	1116.314	1135.6972	1172.2127	1200.928	1227.8661	1241.3572	1275.7397	1296.2071	1314.6427	1325.017	1347.6145	1359.8214	1408.669	1421.6478	1486.7396	1494.229	1500.8908	1507.424	2959.1521	3035.1342	3040.3895	3090.8918	3091.8685	3111.1871	3114.4573	3126.4315	3137.2641	3161.6372	3237.974
CCC1OC2C3CN3C12	CC[C@H]1O[C@H]2[C@H]3CN3[C@@H]12	
InChI=1S/C7H11NO/c1-2-5-6-7(9-5)4-3-8(4)6/h4-7H,2-3H2,1H3	InChI=1S/C7H11NO/c1-2-5-6-7(9-5)4-3-8(4)6/h4-7H,2-3H2,1H3/t4-,5-,6+,7+,8?/m1/s1
