16
gdb 46228	2.70283	1.37529	1.1125	6.1154	75.48	-0.2559	-0.0421	0.2137	1113.3094	0.12356	-400.758484	-400.750218	-400.749274	-400.791962	30.226	
O	 0.0139712944	 0.0715462122	-0.3209068942	-0.292951
C	-0.0346366274	 1.2365896023	-0.0571713503	 0.359935
C	-1.1366417638	 2.2044048697	 0.4161664552	-0.338794
C	-0.0560014079	 3.3325994414	 0.5055493032	-0.331694
C	 0.9999279013	 2.3409149446	-0.0146966983	 0.224322
C	 2.4491760289	 2.1693686866	 0.3322425672	-0.335034
C	 2.0782133536	 2.596151557	-1.0671023475	-0.232877
C	 2.2431880467	 1.7020167131	-2.1803403337	 0.309209
N	 2.3920382229	 1.0100333287	-3.0948285892	-0.330869
H	-1.917426554	 2.3663774504	-0.3319880487	 0.144285
H	-1.6116048194	 1.9147098243	 1.3568242751	 0.140199
H	-0.2397604088	 4.1900941526	-0.1443812857	 0.121172
H	 0.1322461194	 3.6900873087	 1.5201158124	 0.121828
H	 2.9169736231	 2.9138593674	 0.9669465691	 0.138674
H	 2.7964858539	 1.1505316332	 0.4653248241	 0.16085
H	 2.235725617	 3.6414511778	-1.3153807687	 0.141747
62.3709	95.0726	134.7907	222.5924	246.6356	313.1195	447.1586	486.745	532.1205	549.1938	655.8493	711.1932	749.6495	782.7625	857.902	875.6852	926.5423	951.1635	1033.4074	1050.439	1060.5192	1087.2191	1113.6805	1124.4162	1174.8421	1213.6105	1237.167	1246.8046	1321.7658	1398.6682	1438.2492	1472.1505	1489.751	1890.6071	2358.2201	3068.4354	3075.8881	3116.4878	3132.3086	3137.2352	3160.6615	3233.3702
O=C1CCC11CC1C#N	O=C1CC[C@]21C[C@H]2C#N	
InChI=1S/C7H7NO/c8-4-5-3-7(5)2-1-6(7)9/h5H,1-3H2	InChI=1S/C7H7NO/c8-4-5-3-7(5)2-1-6(7)9/h5H,1-3H2/t5-,7-/m0/s1
