15
gdb 48695	2.73881	1.33418	1.04344	4.1976	73.73	-0.2525	-0.032	0.2204	1137.0432	0.109817	-420.548366	-420.54023	-420.539286	-420.5814	30.244	
O	-0.0660653497	-0.0110163013	 0.0288038033	-0.257837
C	 0.0216400659	 1.1838620931	-0.092444943	 0.06821
C	 1.2784105408	 1.9459115167	-0.0820818048	 0.384229
C	 1.3906509016	 3.385746173	 0.3729941046	-0.350542
C	 1.7792754902	 3.0385239035	-1.0292513031	-0.165812
C	 3.0895904024	 2.233871015	-1.0146595333	-0.109811
O	 2.5429393948	 1.3006631143	-0.0264149121	-0.299992
C	 3.4275375727	 1.5816372144	-2.265588306	 0.346225
C	 3.712281438	 1.0635224499	-3.3111695001	-0.416494
H	-0.8731102622	 1.8369178889	-0.220714147	 0.072165
H	 0.4549225011	 3.9276414416	 0.4690227368	 0.135074
H	 2.1428153504	 3.613497424	 1.1222887639	 0.136311
H	 1.3093654198	 3.4460105359	-1.9131842088	 0.130715
H	 3.9587481644	 2.7629772912	-0.606036028	 0.118642
H	 3.9658972597	 0.5933299097	-4.2295255324	 0.208916
68.5809	138.2629	172.8622	200.6311	269.7898	372.2161	413.9166	477.4263	491.4725	551.0299	639.6406	678.0501	749.8518	783.2628	856.4827	865.1551	921.794	954.7231	970.2742	996.7547	1040.6018	1055.3699	1070.9616	1084.2962	1199.7436	1255.1194	1279.8588	1353.3121	1364.2365	1435.3145	1471.1651	1819.9931	2243.1243	2858.7005	3037.8348	3123.1799	3215.04	3222.7854	3501.2094
O=CC12CC1C(O2)C#C	O=C[C@]12C[C@H]1[C@@H](O2)C#C	
InChI=1S/C7H6O2/c1-2-6-5-3-7(5,4-8)9-6/h1,4-6H,3H2	InChI=1S/C7H6O2/c1-2-6-5-3-7(5,4-8)9-6/h1,4-6H,3H2/t5-,6-,7+/m0/s1
