20
gdb 66941	2.50528	1.91659	1.38038	1.6248	82.5	-0.2278	0.0856	0.3134	1011.8162	0.171597	-365.944617	-365.936856	-365.935911	-365.976348	31.43	
C	 0.0607366266	 1.4944315715	 0.1077547188	-0.514123
C	-0.0383483259	 0.0100916789	-0.0549163254	 0.250232
C	-0.9814429324	-0.847476613	 0.7389123992	-0.087856
C	-1.0604789025	-2.2285300143	 0.112142801	-0.244579
C	 0.4318206268	-1.9927450114	-0.1969680905	-0.11251
N	 0.5044831891	-0.9530265899	 0.974769047	-0.197716
C	 0.4674741226	-0.8418050514	-1.1916993643	 0.391143
C	 0.2127861608	-0.8092478847	-2.6664137783	-0.348474
C	 1.5942926275	-0.5011405864	-2.1135157714	-0.34557
H	 1.0711455818	 1.8491636452	-0.1205351222	 0.127713
H	-0.6432670031	 2.0124732808	-0.5535951457	 0.121231
H	-0.1696782265	 1.7821252635	 1.1379269898	 0.132106
H	-1.6356449286	-0.4219537165	 1.4930209009	 0.089693
H	-1.1960096562	-2.9954916111	 0.8792837035	 0.108363
H	-1.7421396305	-2.4083259501	-0.7256447703	 0.096787
H	 1.1524964774	-2.8080029828	-0.2389706557	 0.080152
H	 0.0698347072	-1.7522744048	-3.1850185425	 0.112055
H	-0.3665222162	 0.013275301	-3.0737640757	 0.112113
H	 1.9396619931	 0.5270438787	-2.1540198467	 0.114769
H	 2.3785887088	-1.236961633	-2.2606759014	 0.114471
159.1727	178.7166	217.95	220.8382	276.1681	339.6845	463.1816	503.305	594.9943	621.8363	744.9772	767.3886	793.054	808.0795	821.4884	909.5296	931.0933	940.6578	962.5244	971.3332	998.8876	1003.8978	1025.8962	1051.6686	1065.7126	1075.4538	1087.1352	1132.9045	1170.9114	1183.9781	1199.5986	1230.9225	1265.4985	1279.7528	1299.3792	1391.0507	1413.9802	1441.9197	1461.5031	1483.1491	1490.9828	1495.6916	1513.2865	3029.9362	3043.303	3093.669	3103.5514	3108.9948	3121.4003	3125.0109	3129.7988	3166.4606	3198.3389	3212.8981
CC12C3CC(N13)C21CC1	C[C@]12[C@H]3C[C@H](N13)C12CC1	
InChI=1S/C8H11N/c1-7-5-4-6(9(5)7)8(7)2-3-8/h5-6H,2-4H2,1H3	InChI=1S/C8H11N/c1-7-5-4-6(9(5)7)8(7)2-3-8/h5-6H,2-4H2,1H3/t5-,6+,7-,9?/m1/s1
