19
gdb 41522	2.94752	1.56232	1.10019	1.9415	82.35	-0.2335	0.0097	0.2432	1108.9204	0.161032	-385.87297	-385.865476	-385.864532	-385.904715	29.913	
C	 0.0251669017	 1.5285918287	 0.1742202573	-0.162209
O	 1.4442696124	 1.4959747666	-0.1291416162	-0.30876
C	 1.3555971025	 0.1228214016	-0.5967972296	 0.026358
C	 2.3347300064	-0.8402024047	 0.0047778397	-0.086859
C	 2.0752323026	-2.1469215788	 0.0080613514	-0.06033
C	 0.817270003	-2.7368247809	-0.5990997569	-0.267622
C	-0.4859420802	-2.4265089512	 0.16977146	-0.235535
C	-0.8298232017	-0.9657526546	 0.321436815	-0.194925
C	-0.0585346728	 0.039258478	-0.0601792782	 0.26145
H	-0.177280854	 1.8858682217	 1.1913761186	 0.117112
H	-0.524168154	 2.1575264616	-0.5413749205	 0.105764
H	 1.4199071042	 0.1077367229	-1.6986239479	 0.092915
H	 3.2420231887	-0.4238325405	 0.4327326197	 0.104362
H	 2.789448459	-2.8359624289	 0.4511614049	 0.091748
H	 0.7020817401	-2.3756331283	-1.6302941005	 0.113204
H	 0.9191296591	-3.8240721016	-0.6701686486	 0.099139
H	-1.3166674585	-2.9460693089	-0.3276650225	 0.106197
H	-0.4294289335	-2.8691469334	 1.1753357245	 0.112633
H	-1.7657597148	-0.7477538093	 0.8346163998	 0.085359
123.4105	176.9572	268.6173	278.6254	316.2485	341.0145	437.1709	513.8517	570.9628	668.83	704.039	756.1834	799.5457	846.1094	902.5172	922.9833	959.6808	977.9085	983.3048	1001.0758	1031.1329	1047.0972	1082.9515	1093.9658	1125.449	1141.7115	1176.9414	1219.0805	1251.3475	1270.5286	1308.3085	1331.5875	1349.5462	1374.2285	1376.6153	1406.4954	1472.6367	1490.4065	1510.9618	1708.4395	1803.2538	2940.5172	2993.4663	2998.1756	3010.0175	3029.4901	3046.3766	3075.3361	3131.9501	3155.3079	3182.481
C1OC2C=CCCC=C12	C1O[C@H]2C=CCCC=C12	
InChI=1S/C8H10O/c1-2-4-7-6-9-8(7)5-3-1/h3-5,8H,1-2,6H2	InChI=1S/C8H10O/c1-2-4-7-6-9-8(7)5-3-1/h3-5,8H,1-2,6H2/t8-/m0/s1
