18
gdb 92438	2.62928	1.59079	1.49699	2.1566	70.36	-0.2251	-0.0221	0.203	968.7879	0.150923	-439.098089	-439.090848	-439.089904	-439.129732	29.128	
O	 0.1092700338	 1.3888692674	-0.1024360511	-0.440254
C	 0.0571339476	-0.011516659	-0.0297845356	 0.160855
C	 0.6717803249	-0.610806776	 1.2953221987	-0.263175
C	-0.5176047121	-1.3335694093	 1.9762383716	-0.134635
C	-1.5546816114	-0.2733427874	 2.3960158131	-0.182309
N	-2.0480992704	 0.2860387425	 1.0868956971	-0.329447
C	-1.4049280286	-0.530775908	 0.0276648989	-0.166765
C	-1.2208780153	-1.8831777393	 0.724391123	 0.435587
O	-1.5248388317	-2.9975176581	 0.4044382769	-0.326967
H	-0.6730469965	 1.6866587237	 0.392399398	 0.284688
H	 0.5756164331	-0.4049355724	-0.9085227912	 0.093631
H	 1.483168779	-1.3102782429	 1.0752039702	 0.111028
H	 1.075590446	 0.1978952922	 1.9105179223	 0.114765
H	-0.2668772202	-2.0620888187	 2.7445542106	 0.089227
H	-2.3710245088	-0.7249934619	 2.9699901525	 0.112817
H	-1.1114961726	 0.5229274875	 3.0037649091	 0.113693
H	-3.0563937303	 0.2171595489	 1.0246184295	 0.237607
H	-1.9559660161	-0.5117983891	-0.9098620935	 0.089654
107.0062	144.6215	281.1916	307.3787	402.2676	436.271	514.9155	569.0761	587.1827	646.2457	727.2962	759.9757	783.7147	832.8235	854.7606	876.6261	922.0445	951.3447	994.7135	1013.2384	1048.2271	1060.689	1096.3394	1134.2258	1157.5819	1167.5659	1188.8279	1222.3441	1258.585	1286.9716	1295.1931	1320.5931	1339.2488	1371.3764	1412.2279	1455.5062	1481.9037	1522.852	1881.769	3030.5778	3055.2251	3070.2458	3072.0226	3109.0441	3141.2709	3151.2188	3552.9735	3650.2182
OC1CC2CNC1C2=O	O[C@H]1C[C@H]2CN[C@@H]1C2=O	
InChI=1S/C6H9NO2/c8-4-1-3-2-7-5(4)6(3)9/h3-5,7-8H,1-2H2	InChI=1S/C6H9NO2/c8-4-1-3-2-7-5(4)6(3)9/h3-5,7-8H,1-2H2/t3-,4-,5-/m0/s1
