13
gdb 44132	2.67968	1.71373	1.37066	4.6013	63.24	-0.2638	0.0213	0.2851	928.6557	0.08869	-456.549537	-456.542457	-456.541512	-456.581387	26.699	
O	 0.0015332363	 0.0154114306	-0.0061697338	-0.352962
C	-0.0146399972	 1.1990847644	 0.0185889205	 0.49442
O	-1.1449208163	 1.9711629679	 0.0488145716	-0.233132
C	-0.7893048924	 3.3280300195	 0.0544174716	 0.045433
C	 0.7010528887	 3.3488125825	 0.0343090073	 0.045421
O	 1.0940806241	 2.0023867016	 0.0186107834	-0.233131
C	-0.0679246128	 3.8525668706	-1.1881926788	-0.319237
C	-0.0745289436	 3.133027143	-2.4229782733	 0.326428
C	-0.0799767024	 2.5106390852	-3.4509066723	-0.398319
H	-1.4451644373	 3.9502369539	 0.6482877568	 0.139747
H	 1.3550921321	 3.989290599	 0.61049976	 0.139743
H	-0.0840174986	 4.9374151397	-1.2595851067	 0.135239
H	-0.0858697506	 1.9588768121	-4.3585685962	 0.21035
87.8618	139.8511	187.677	330.4776	370.6237	511.2716	604.7603	627.8329	645.3789	680.0623	716.1164	762.3069	770.5768	787.4902	793.5378	896.3404	955.8004	1030.2492	1046.7226	1065.3411	1107.2861	1112.063	1140.0339	1196.1397	1348.0403	1351.444	1407.831	1947.395	2245.301	3143.7087	3205.456	3213.6532	3501.6693
O=C1OC2C(O1)C2C#C	O=C1O[C@H]2[C@@H](O1)[C@H]2C#C	
InChI=1S/C6H4O3/c1-2-3-4-5(3)9-6(7)8-4/h1,3-5H	InChI=1S/C6H4O3/c1-2-3-4-5(3)9-6(7)8-4/h1,3-5H/t3-,4+,5-
