16
gdb 71049	3.14524	2.17395	1.66765	2.0115	72.92	-0.2115	-0.0415	0.17	816.7558	0.125236	-400.622798	-400.616511	-400.615566	-400.652873	26.854	
O	-0.0579419589	 1.2530613354	 0.2702227714	-0.471439
C	 0.0542889904	-0.103991685	-0.0183778227	 0.417188
C	 1.2844515415	-0.9413911089	 0.55706876	-0.335543
C	 0.9004015055	-1.8565873213	-0.6107393815	-0.001291
C	-0.0574034087	-2.7646037169	-0.3199581223	-0.093286
C	-1.35534721	-2.1676254263	-0.6956240025	-0.073847
C	-1.3805735357	-0.7420960334	-0.1596354073	-0.100698
N	-1.2005376793	-1.0197360813	-1.6213866557	-0.139357
C	 0.2617258254	-0.718405604	-1.4241643706	-0.09423
H	 0.7978530856	 1.6678621994	 0.1150895454	 0.285412
H	 2.1956633766	-0.3370840922	 0.4449997491	 0.093119
H	 1.2373992298	-1.3629559826	 1.5626698994	 0.113433
H	 0.0065213541	-3.4693242761	 0.5032481464	 0.107934
H	-2.2948738595	-2.7063116429	-0.7699958867	 0.10193
H	-2.2781288317	-0.2695392454	 0.2223649823	 0.110633
H	 0.7909988248	-0.2484415485	-2.2515745746	 0.080043
240.6126	289.7279	331.6343	384.8349	451.2299	518.0633	574.9288	678.1017	708.0489	722.8035	743.8683	786.7129	831.1513	856.5311	879.0272	912.0644	951.5958	967.8642	1008.9319	1017.2766	1040.0507	1067.9187	1086.6443	1103.8474	1106.586	1154.4498	1175.0895	1218.5628	1243.19	1267.9555	1310.9134	1326.6876	1367.9901	1493.2163	1578.1599	3005.4818	3115.1542	3124.0461	3161.9969	3178.6531	3187.1612	3803.5008
OC12CC3=CC4C1N4C23	O[C@@]12C[C]3[CH][C@H]4[C@@H]1N4[C@@H]23	
InChI=1S/C7H7NO/c9-7-2-3-1-4-6(7)8(4)5(3)7/h1,4-6,9H,2H2	InChI=1S/C7H7NO/c9-7-2-3-1-4-6(7)8(4)5(3)7/h1,4-6,9H,2H2/t4-,5+,6-,7+,8?/m0/s1
