20
gdb 113676	3.66722	0.84329	0.77449	2.1172	78.98	-0.2407	-0.038	0.2027	1543.5003	0.168761	-440.268929	-440.25906	-440.258115	-440.304388	35.552	
C	-0.3359258811	 1.5943098857	 0.5570658813	-0.37515
C	-0.1175401537	 0.0845237023	 0.6169380102	-0.132634
N	-1.2700422556	-0.5943711818	 0.0128151944	-0.077694
C	-1.2462827499	-0.872949706	-1.3997257958	-0.237748
C	-1.1767492051	-2.0051241208	-0.4115178026	-0.114609
C	 0.0844623753	-2.791215127	-0.3192039364	 0.355855
O	 1.1880568903	-2.3608660638	-0.6046260332	-0.349598
C	-0.0401142174	-4.2255110388	 0.1759790467	-0.135609
O	 1.1951000577	-4.8701272303	 0.1864478778	-0.420639
H	 0.4899556586	 2.1159637917	 1.0497647156	 0.117434
H	-0.3828208098	 1.9433262789	-0.4797044641	 0.119288
H	-1.2706952002	 1.8731870276	 1.0513197283	 0.126308
H	 0.8298981569	-0.1869914171	 0.1360432662	 0.127975
H	-0.0614929078	-0.244339206	 1.661003003	 0.104479
H	-2.1731440597	-0.7130758582	-1.944539296	 0.124695
H	-0.3283336058	-0.6741503552	-1.950950332	 0.135764
H	-2.0780323736	-2.5766249009	-0.1998110613	 0.099218
H	-0.4942537803	-4.1974234611	 1.1821341975	 0.120431
H	-0.7648261375	-4.7513358914	-0.4691661179	 0.118133
H	 1.8302753687	-4.197042688	-0.1085268617	 0.294102
47.6081	82.4769	120.2791	151.2769	203.0083	234.7513	263.9798	313.9264	369.2175	389.9316	435.8354	481.784	586.9038	705.5966	729.6785	814.8369	836.8368	889.6676	940.4301	998.6251	1020.831	1046.5103	1064.9442	1102.5742	1121.6541	1126.4955	1141.2489	1160.6411	1204.6807	1242.0518	1307.0465	1310.6482	1330.008	1385.3076	1403.7677	1411.1565	1453.7903	1488.9217	1489.8877	1490.7039	1499.9324	1518.0826	1769.154	2960.8184	2976.563	3028.3383	3040.1799	3068.3939	3093.506	3110.1901	3121.3159	3129.4424	3186.8838	3675.2395
CCN1CC1C(=O)CO	CCN1C[C@H]1C(=O)CO	
InChI=1S/C6H11NO2/c1-2-7-3-5(7)6(9)4-8/h5,8H,2-4H2,1H3	InChI=1S/C6H11NO2/c1-2-7-3-5(7)6(9)4-8/h5,8H,2-4H2,1H3/t5-,7?/m0/s1
