17
gdb 68347	2.89774	1.56436	1.20095	3.0834	75.81	-0.2501	-0.0695	0.1806	1040.1362	0.135055	-421.799554	-421.791716	-421.790772	-421.831863	30.091	
C	 0.1054406812	 1.5584915163	 0.1333920783	-0.498667
C	 0.0301217431	 0.0649341457	 0.0156036726	 0.279666
C	 0.5602878017	-0.7692358813	-1.1993480177	-0.256091
C	 0.6359462952	-1.7974145451	-0.0331029325	 0.020538
O	 0.9869705131	-0.690491817	 0.8503923185	-0.310023
C	-0.850682662	-1.984111551	 0.2996919921	-0.177304
C	-1.2779324982	-0.7101908582	 0.3347436928	 0.259947
C	-2.6263387859	-0.2103647192	 0.5590018998	 0.040137
O	-2.9633177222	 0.9512822363	 0.4627419484	-0.281613
H	 1.1012801227	 1.9116225556	-0.1473457701	 0.12078
H	-0.6443832257	 2.0266852243	-0.5079252155	 0.14562
H	-0.0999231904	 1.8686206266	 1.161722106	 0.140985
H	-0.1092370792	-0.9642873676	-2.0397767709	 0.10363
H	 1.5494817495	-0.4408736336	-1.5267991481	 0.113836
H	 1.3164824375	-2.6460850708	-0.0018681609	 0.089965
H	-1.3962233853	-2.9073659989	 0.4395304796	 0.131759
H	-3.362350575	-0.9999799622	 0.8290441777	 0.076834
92.3725	167.6405	188.2018	238.1483	298.5634	320.9929	475.2398	488.5139	554.8625	621.5575	653.1898	725.6265	765.8976	818.9573	829.0807	861.2555	899.0663	916.9612	963.5267	1031.3817	1033.3523	1056.4344	1108.242	1163.0698	1175.4216	1224.9566	1238.7621	1253.3637	1304.09	1341.5379	1415.871	1421.353	1469.5173	1486.2293	1490.1614	1641.9272	1771.442	2882.0742	3051.5939	3064.4284	3123.1651	3136.7881	3139.3401	3145.4253	3232.5736
CC12CC(O1)C=C2C=O	C[C@@]12C[C@@H](O1)C=C2C=O	
InChI=1S/C7H8O2/c1-7-3-6(9-7)2-5(7)4-8/h2,4,6H,3H2,1H3	InChI=1S/C7H8O2/c1-7-3-6(9-7)2-5(7)4-8/h2,4,6H,3H2,1H3/t6-,7-/m0/s1
