16
gdb 10556	2.99341	1.41149	1.07404	0.9878	67.	-0.2619	0.0223	0.2842	1096.4615	0.12751	-383.673051	-383.664249	-383.663305	-383.706768	31.427	
O	-0.1642477963	 1.4652286151	-0.0728617712	-0.421498
C	-0.0759534469	 0.0615778428	-0.2654302626	-0.07459
C	-1.3600690309	-0.5490787812	 0.2879287283	-0.265583
C	-1.3971098919	-2.0587982582	 0.1439728396	 0.198487
C	-2.6572155549	-2.7393631518	-0.2219269623	-0.212884
O	-1.641259978	-2.5368511802	-1.1968773088	-0.26331
C	-0.4018954256	-2.800614464	 0.8864152045	 0.314018
C	 0.429388899	-3.3903859279	 1.5237559174	-0.44429
H	 0.6320080499	 1.8670920427	-0.4317816076	 0.287458
H	 0.0181743175	-0.1962538274	-1.3309171259	 0.103757
H	 0.7929255112	-0.3634933539	 0.2590319334	 0.099956
H	-1.4578028163	-0.2790939287	 1.3452625787	 0.118622
H	-2.2146315225	-0.1218732815	-0.2453746945	 0.116109
H	-2.8134840426	-3.7713019231	 0.0864773661	 0.123819
H	-3.5586474316	-2.1401649474	-0.3453835857	 0.118736
H	 1.1626367799	-3.9208429452	 2.0798097705	 0.201192
74.6905	86.1396	138.5644	189.4685	233.9134	251.7831	340.6661	386.9983	416.8631	553.1043	574.9067	624.0384	662.9565	725.0597	787.2185	847.9248	920.2541	954.2576	1031.7511	1069.5398	1084.7211	1134.8936	1168.8478	1211.8255	1242.2799	1263.4084	1309.4363	1331.0633	1384.0945	1461.8431	1474.0992	1520.7711	1529.573	2237.0626	2983.8681	3016.8841	3049.2463	3084.0067	3100.7525	3177.6498	3501.1158	3832.6618
OCCC1(CO1)C#C	OCC[C@]1(CO1)C#C	
InChI=1S/C6H8O2/c1-2-6(3-4-7)5-8-6/h1,7H,3-5H2	InChI=1S/C6H8O2/c1-2-6(3-4-7)5-8-6/h1,7H,3-5H2/t6-/m0/s1
