17
gdb 115044	1.88152	1.79457	0.98236	4.4244	71.73	-0.2414	-0.0175	0.2239	1166.3727	0.136712	-455.174418	-455.165748	-455.164804	-455.208463	30.747	
O	 0.0272349482	 1.4283081691	-0.002892605	-0.418161
C	 0.0539459396	 0.012006246	 0.0065807599	-0.080672
C	-1.3852030324	-0.4926039781	 0.0149952632	-0.008854
C	-1.4712661907	-2.050498964	 0.0096984792	-0.195989
N	-2.0388166189	-2.4574689007	 1.3056618011	-0.258093
C	-2.3531211242	-1.3923281599	 1.9252549683	 0.084832
N	-2.0805253217	-0.1852984736	 1.276870536	-0.081405
C	-2.4557128821	 1.0551743607	 1.7490111321	 0.142934
O	-3.0222922922	 1.2266980501	 2.8050628186	-0.320312
H	 0.9153077997	 1.7581273174	 0.1615822892	 0.297047
H	 0.5556844721	-0.3874182549	-0.8891861716	 0.099629
H	 0.5774583732	-0.3815450553	 0.8909665547	 0.106104
H	-1.9171242908	-0.0399341859	-0.8272483288	 0.109546
H	-2.1076133845	-2.4265721645	-0.7980380457	 0.126254
H	-0.4840614863	-2.5075181969	-0.1229123169	 0.118954
H	-2.8141484639	-1.3497487279	 2.9039062827	 0.16653
H	-2.1760714351	 1.8646514885	 1.057695973	 0.111656
56.5717	108.8209	145.3307	206.9896	244.8121	253.3377	266.9225	375.305	423.4185	516.4054	571.9256	748.5069	818.5392	866.5252	897.4748	964.2786	972.4408	1022.0191	1027.3318	1047.5577	1094.3202	1103.624	1198.5436	1213.9199	1262.4665	1267.1583	1279.3673	1297.6349	1326.5616	1368.0599	1402.7167	1439.5605	1455.7031	1495.4708	1511.7489	1700.386	1790.9116	2974.0536	3013.9985	3027.1153	3039.7276	3062.2182	3077.5182	3236.1645	3836.3665
OCC1CN=CN1C=O	OC[C@H]1CN=CN1C=O	
InChI=1S/C5H8N2O2/c8-2-5-1-6-3-7(5)4-9/h3-5,8H,1-2H2	InChI=1S/C5H8N2O2/c8-2-5-1-6-3-7(5)4-9/h3-5,8H,1-2H2/t5-/m1/s1
