15
gdb 127792	2.87418	1.55137	1.01697	3.479	69.23	-0.2666	-0.0425	0.2242	1092.5827	0.11391	-450.162145	-450.153766	-450.152822	-450.195739	29.861	
C	-0.018009356	 1.4448400648	 0.0361968094	-0.315281
N	-0.0053023036	-0.0096556591	 0.0908843672	-0.025806
N	-0.0973622391	-0.7099111573	-1.0470357208	-0.130422
N	-0.0728001234	-1.9840899752	-0.7474337572	-0.190059
C	 0.0398769749	-2.1058427084	 0.5944931959	-0.167616
C	 0.088274212	-0.8456740349	 1.1624213759	 0.272011
C	 0.1941201756	-0.356537881	 2.5547906598	 0.32474
N	 0.4232444737	-1.326735797	 3.4885354322	-0.533732
O	 0.0606855563	 0.8200185213	 2.847820969	-0.376397
H	 0.8935971054	 1.8471483659	 0.4796270102	 0.158877
H	-0.0846888663	 1.7129890077	-1.0177335852	 0.157593
H	-0.870098014	 1.834366477	 0.5930773345	 0.165899
H	 0.0608573185	-3.0746742743	 1.0689564573	 0.123915
H	 0.7453187337	-2.2432230723	 3.2299676439	 0.267252
H	 0.5925452323	-1.0149907471	 4.4313972379	 0.269025
46.6807	125.6634	185.1176	201.2896	238.5407	281.6025	336.4825	420.4105	504.6262	528.7816	653.5215	680.0109	714.5853	728.3087	788.1345	853.8385	982.6115	1045.4842	1087.7323	1152.3995	1155.4034	1171.6595	1262.8669	1298.3328	1322.4925	1385.7018	1439.605	1475.289	1481.4668	1493.5776	1562.8687	1621.3242	1772.6678	3077.152	3155.585	3177.6156	3256.2144	3601.5325	3733.4273
CN1N=NC=C1C(N)=O	Cn1nncc1C(=O)N	
InChI=1S/C4H6N4O/c1-8-3(4(5)9)2-6-7-8/h2H,1H3,(H2,5,9)	InChI=1S/C4H6N4O/c1-8-3(4(5)9)2-6-7-8/h2H,1H3,(H2,5,9)
