14
gdb 34138	2.99237	1.72622	1.39441	4.52	70.21	-0.2582	-0.0396	0.2187	913.6775	0.101492	-399.476319	-399.469824	-399.46888	-399.507179	25.933	
N	-0.0551762459	-1.1129680309	 0.1134324963	-0.336655
C	-0.0482388166	 0.042360194	 0.080693168	 0.170965
C	-0.0086939505	 1.4823531054	-0.0091862069	 0.371819
O	-0.6633782952	 2.2844997263	 1.0219150184	-0.339997
C	-0.089259319	 3.2657735259	 0.0864899456	 0.044198
C	 1.2419371008	 2.4471095378	-0.0466796817	-0.131755
C	 1.693544933	 2.5494719314	-1.4885301666	-0.105864
C	 0.5603718941	 2.5363503807	-2.1978184801	-0.105863
C	-0.5373963304	 2.4264783619	-1.1604197692	-0.131762
H	-0.2371107291	 4.3239349385	 0.3030942721	 0.11331
H	 1.9407674323	 2.4208031417	 0.7863010883	 0.102188
H	 2.7162707892	 2.6106154476	-1.8314216004	 0.123615
H	 0.420951097	 2.5840379797	-3.2681308357	 0.123615
H	-1.5914108598	 2.3798480201	-1.4246010282	 0.102186
131.366	163.368	351.8933	437.8585	501.4329	512.4215	533.1209	579.901	680.0953	737.2266	763.4244	785.728	831.3076	919.8103	930.4732	937.2248	941.8578	952.1751	987.5924	1007.2908	1104.695	1130.1974	1159.9191	1182.1508	1212.973	1244.5852	1249.7821	1329.6863	1337.4966	1631.1448	2354.6589	3126.0484	3158.1614	3160.6827	3228.8997	3253.3128
N#CC12OC3C1C=CC23	N#C[C@@]12O[C@H]3[C@@H]1C=C[C@@H]23	
InChI=1S/C7H5NO/c8-3-7-4-1-2-5(7)6(4)9-7/h1-2,4-6H	InChI=1S/C7H5NO/c8-3-7-4-1-2-5(7)6(4)9-7/h1-2,4-6H/t4-,5+,6-,7+
