21
gdb 115975	3.27996	1.0892	0.8548	1.4359	82.33	-0.2358	0.0262	0.262	1400.2566	0.181871	-424.236219	-424.226877	-424.225933	-424.270289	34.67	
C	 0.0052828956	 1.3583984452	 0.0597436553	-0.241082
O	-0.0173205215	-0.0580556677	 0.1064365152	-0.238128
C	-1.2894430145	-0.6058257695	 0.0748241752	 0.220607
C	-1.1695031572	-2.119803373	-0.0486661386	-0.321013
C	-2.4975116816	-2.7904133083	 0.2234057798	 0.30598
C	-2.6362916807	-4.2231234934	-0.2078998387	-0.476461
C	-3.477337883	-2.1084600076	 0.8179799357	-0.161877
C	-3.3127868934	-0.6865002686	 1.2794464303	-0.122431
O	-1.9627297125	-0.2606093643	 1.27496404	-0.263519
H	 1.0553500569	 1.6567856497	 0.0325164454	 0.125795
H	-0.4966473642	 1.7335696146	-0.8451692467	 0.10266
H	-0.4772362898	 1.7976930606	 0.9391141002	 0.130074
H	-1.8666838396	-0.1956358278	-0.7802251583	 0.046729
H	-0.8089887619	-2.3751156928	-1.0527953524	 0.105218
H	-0.4021751431	-2.4642894278	 0.6565527802	 0.1244
H	-1.8736053269	-4.8527533241	 0.2685880011	 0.125963
H	-3.6190217171	-4.6292942953	 0.0461085174	 0.119798
H	-2.4905106625	-4.3267603672	-1.2908790099	 0.122814
H	-4.446929306	-2.5673897417	 0.9964540933	 0.08211
H	-3.9337495074	-0.011657477	 0.660187785	 0.094396
H	-3.6622083294	-0.5728237337	 2.3124059104	 0.117968
85.8204	128.2287	164.5543	175.3725	195.3855	255.0601	279.7725	318.582	408.4869	429.5403	465.2328	530.3899	567.6271	709.2343	806.9435	862.3904	882.3963	944.5734	1008.5745	1017.7982	1037.5978	1059.4962	1072.9983	1096.8122	1136.9483	1160.3272	1180.9202	1193.4057	1207.7858	1247.8524	1271.6408	1307.0957	1362.9489	1380.9746	1406.9192	1414.698	1420.1582	1467.0771	1478.9062	1482.1818	1483.2449	1491.4551	1493.3032	1513.3707	1746.1283	2881.798	2925.2917	2991.3587	3014.5482	3026.2332	3050.0751	3060.128	3062.6574	3074.7034	3111.4115	3127.9203	3155.8555
COC1CC(C)=CCO1	CO[C@H]1CC(=CCO1)C	
InChI=1S/C7H12O2/c1-6-3-4-9-7(5-6)8-2/h3,7H,4-5H2,1-2H3	InChI=1S/C7H12O2/c1-6-3-4-9-7(5-6)8-2/h3,7H,4-5H2,1-2H3/t7-/m1/s1
