13
gdb 10581	2.71583	1.89415	1.33446	4.2437	65.41	-0.2636	-0.0137	0.2499	904.8852	0.095717	-357.645868	-357.638057	-357.637113	-357.677969	28.075	
N	 0.165649278	 1.4091035756	 0.0165795335	-0.491918
C	 0.0473590404	 0.0055853821	 0.0687218858	 0.019517
C	-0.4836502147	-0.6821481626	 1.2610302704	-0.314793
C	-1.3679382543	-0.7489330715	-0.001057145	-0.014037
C	-2.5180887192	 0.1054929745	-0.0420554297	 0.240789
N	-3.396539875	 0.8585133532	-0.062237855	-0.333281
C	-1.4332008317	-1.9844499266	-0.7254721544	 0.236874
N	-1.4313137115	-2.9818774034	-1.3121480736	-0.328408
H	 0.1307610147	 1.7641234983	-0.9325194808	 0.258602
H	-0.5360984643	 1.890750173	 0.5671805585	 0.257887
H	 0.8003708967	-0.5212680885	-0.5080547335	 0.148109
H	-0.0363464657	-1.6186364574	 1.5720328426	 0.164033
H	-0.8786277735	-0.0769349367	 2.070164581	 0.156626
126.776	132.2269	162.531	199.2067	297.2403	350.5733	429.6482	482.0969	520.3089	592.2651	609.1362	617.902	713.2022	783.866	901.0955	947.386	959.1152	1087.6866	1117.9504	1148.5116	1245.4841	1291.8646	1311.6963	1440.9929	1489.5382	1666.1377	2347.4532	2351.5187	3145.7423	3177.9385	3239.0819	3521.8293	3606.7702
NC1CC1(C#N)C#N	N[C@H]1CC1(C#N)C#N	
InChI=1S/C5H5N3/c6-2-5(3-7)1-4(5)8/h4H,1,8H2	InChI=1S/C5H5N3/c6-2-5(3-7)1-4(5)8/h4H,1,8H2/t4-/m0/s1
