18
gdb 40099	3.27997	1.50572	1.28172	0.5245	70.75	-0.244	0.061	0.305	1011.686	0.149614	-439.040073	-439.032832	-439.031888	-439.071991	28.436	
C	-0.4962290137	 1.3016125468	 0.0224156467	-0.29943
N	 0.9454543426	 0.9901282546	-0.0193333106	-0.377208
C	-0.022950422	-0.0994456737	 0.0383991981	 0.327264
C	-0.0867311769	-1.1580704367	 1.1482412318	-0.332142
C	-0.4854201597	-2.2150586377	 0.0746536319	 0.079121
O	-1.8591523206	-2.554517778	-0.0038165611	-0.256223
C	-2.4909660704	-1.5499496889	-0.7698977769	 0.012668
O	-1.546257819	-1.0875802813	-1.7140038028	-0.247598
C	-0.2978484513	-1.1519664917	-1.0543787349	-0.010529
H	-0.8339445312	 1.7676804281	 0.9444457925	 0.121464
H	-0.9862453619	 1.6574795269	-0.8802527999	 0.124212
H	 1.2967222486	 1.096191283	-0.9692406753	 0.231765
H	 0.8830125573	-1.3564173942	 1.6123125555	 0.117282
H	-0.8335374795	-1.0007508663	 1.9301737305	 0.112404
H	 0.0963195623	-3.1367729597	 0.0502523851	 0.093225
H	-3.3428549578	-1.9840185817	-1.2996453592	 0.123086
H	-2.8249922682	-0.7207817829	-0.1233687912	 0.091536
H	 0.4849613914	-1.2942844166	-1.8029616901	 0.089103
70.2635	185.3259	259.8875	278.0351	325.4904	399.7721	490.4329	554.5447	722.5085	736.4263	789.1546	827.1594	858.8261	893.3633	925.6845	937.1596	961.5412	978.9917	1005.7004	1024.2778	1048.7822	1098.2318	1109.8883	1134.2618	1146.5508	1182.3343	1192.2254	1219.8299	1244.8361	1256.9057	1265.5548	1296.257	1334.3672	1346.716	1408.0935	1427.2264	1466.7987	1511.128	1543.4925	2958.8384	3062.8258	3087.9014	3096.5139	3105.2173	3109.161	3121.027	3192.6619	3480.8208
C1NC11CC2OCOC12	C1N[C@]21C[C@H]1OCO[C@@H]21	
InChI=1S/C6H9NO2/c1-4-5(9-3-8-4)6(1)2-7-6/h4-5,7H,1-3H2	InChI=1S/C6H9NO2/c1-4-5(9-3-8-4)6(1)2-7-6/h4-5,7H,1-3H2/t4-,5-,6+/m1/s1
