16
gdb 90535	4.61668	1.08761	1.00305	3.8366	69.56	-0.274	-0.0076	0.2664	1176.9179	0.123837	-437.851702	-437.843787	-437.842843	-437.884485	29.142	
C	 0.4613520827	 1.541710341	-0.1060593881	-0.4095
C	 0.071713827	 0.087660481	 0.0119408548	 0.129271
O	 0.9009069079	-0.8133724885	-0.799447924	-0.312495
C	 1.1727983238	-1.6577646475	 0.3171102062	 0.062001
C	 2.4609988914	-1.2261177852	 1.07040007	-0.0552
O	 1.7007263103	-0.2896957831	 1.8737167188	-0.288229
C	 0.4486411264	-0.7042465201	 1.2819439953	 0.040282
C	 3.0966354115	-2.2594524296	 1.8888293839	 0.287156
N	 3.5797910435	-3.1028611055	 2.513786777	-0.310982
H	 1.4719254074	 1.7047580023	 0.2741674577	 0.139005
H	 0.4176983	 1.8555795287	-1.1530018452	 0.135495
H	-0.2325115792	 2.1655370225	 0.4670519264	 0.127145
H	-0.9826546556	-0.0666622945	-0.2541069515	 0.090874
H	 0.9886064779	-2.7175947163	 0.1419069023	 0.1166
H	 3.2025698826	-0.7324580453	 0.4344271741	 0.141848
H	-0.3096557978	-0.9434115199	 2.0270643123	 0.106728
76.9755	134.663	175.3458	205.9551	267.8951	357.7434	390.3654	472.9091	525.7463	591.5976	717.4408	802.8248	864.8436	869.3346	912.8142	947.7396	963.0967	1009.7019	1024.2592	1050.7672	1083.0354	1099.4396	1150.3688	1191.3579	1198.9654	1249.1382	1285.6201	1309.4333	1325.5575	1359.322	1378.6971	1408.131	1483.3288	1491.6374	2356.6019	3017.6363	3045.745	3069.8375	3114.3237	3114.5996	3125.5155	3137.989
CC1OC2C(OC12)C#N	C[C@H]1O[C@H]2[C@@H](O[C@@H]12)C#N	
InChI=1S/C6H7NO2/c1-3-5-6(8-3)4(2-7)9-5/h3-6H,1H3	InChI=1S/C6H7NO2/c1-3-5-6(8-3)4(2-7)9-5/h3-6H,1H3/t3-,4+,5+,6+/m1/s1
