18
gdb 19073	3.59231	2.41732	2.05934	1.3829	69.89	-0.2294	0.0838	0.3133	745.3018	0.157008	-347.770031	-347.764145	-347.7632	-347.799522	25.402	
C	-0.0039955032	 1.5338506417	-0.1569810274	-0.334295
C	 1.2891820073	 0.7754113932	 0.0464149765	 0.113728
O	 2.001295637	 0.8471106361	 1.2579731678	-0.274581
C	 1.4759067447	 0.038053824	 2.3071667162	 0.136341
C	-0.0165435147	 0.3626667823	 2.5791383162	-0.25199
C	-0.3201035742	-0.608958419	 1.4022490374	-0.042591
C	 0.9928959266	-1.354674086	 1.8077960451	-0.237714
C	-0.0182239781	 0.0330072033	 0.0518890394	-0.050133
H	-0.3520801936	 2.1860819274	 0.6342454116	 0.119978
H	-0.2064362066	 1.9008612064	-1.157845558	 0.108129
H	 1.9660542336	 0.6907382118	-0.7980251062	 0.094245
H	 2.2026942165	 0.1005661193	 3.1181750829	 0.074032
H	-0.3458649584	-0.0658688383	 3.5294236734	 0.099884
H	-0.3342795613	 1.4050365677	 2.527351929	 0.0998
H	-1.2709236842	-1.1454716192	 1.4083492606	 0.063376
H	 1.5707367342	-1.8437155528	 1.0198774669	 0.097192
H	 0.8483946895	-2.0380615426	 2.6483440916	 0.097888
H	-0.2497278652	-0.5910500553	-0.8069451631	 0.086709
252.857	282.4739	431.5884	452.2108	473.9786	514.0082	632.3267	728.742	798.3141	812.2601	818.2564	862.3886	880.2206	919.2669	938.6214	968.9471	973.5447	1011.1435	1028.8404	1049.0577	1083.6263	1106.8506	1108.9154	1132.611	1146.0302	1165.8533	1187.9971	1231.9803	1239.6481	1263.8429	1271.4186	1329.122	1356.1529	1376.9524	1408.9696	1464.8019	1486.6706	1507.513	3059.7629	3066.638	3084.6409	3104.1226	3121.5818	3125.0762	3137.0231	3140.193	3153.7456	3227.6496
C1C2OC3CC(C3)C12	C1[C@H]2O[C@H]3C[C@H](C3)[C@@H]12	
InChI=1S/C7H10O/c1-4-2-5(1)8-7-3-6(4)7/h4-7H,1-3H2	InChI=1S/C7H10O/c1-4-2-5(1)8-7-3-6(4)7/h4-7H,1-3H2/t4-,5+,6-,7-/m1/s1
