15
gdb 25198	2.64022	1.73469	1.0932	2.9527	81.86	-0.2313	-0.0615	0.1698	1047.1519	0.115873	-412.997707	-412.990282	-412.989337	-413.030421	27.892	
N	-0.0878641405	 1.2717032036	-0.5065651973	-0.45988
C	-0.0295740183	 0.0815886528	-0.0660032656	 0.337111
N	 1.1892722453	-0.5257485562	 0.3071431916	-0.361748
C	 1.5205596049	-1.6827358652	 0.9668840746	 0.114651
N	 0.8131723223	-2.526979294	 1.6178256371	-0.282546
C	-0.5551413574	-2.4456644669	 1.7589302129	-0.006756
C	-1.4728918179	-1.7154097478	 1.0901451077	-0.154052
C	-1.2995812642	-0.7327024305	 0.0214689817	 0.233214
N	-2.2070773363	-0.4349970731	-0.8301985884	-0.44966
H	 0.8264903502	 1.7295985968	-0.5023932416	 0.210124
H	 1.9923649436	 0.0098897794	 0.0059033272	 0.254234
H	 2.5956313212	-1.8614534079	 0.9256598162	 0.126309
H	-0.9331072071	-3.1430078617	 2.5035940775	 0.113891
H	-2.5136373335	-1.907235809	 1.3412592489	 0.104304
H	-3.035116982	-1.0149132104	-0.6675624625	 0.220803
44.527	94.3362	287.6467	338.858	366.2046	420.5959	435.9801	529.7697	596.1599	625.8605	668.1283	758.9228	807.8502	832.0356	872.7958	898.4742	943.2516	956.6653	978.3529	1005.9926	1014.5336	1139.7189	1215.3945	1289.2788	1313.6569	1404.1347	1444.6372	1479.0897	1503.0107	1628.4916	1662.606	1700.2927	1721.2709	3124.8129	3142.3773	3162.3996	3428.7782	3442.8435	3582.4995
N=C1NC=NC=CC1=N	[NH][C]1NC=NC=C[C]1[NH]	
InChI=1S/C5H6N4/c6-4-1-2-8-3-9-5(4)7/h1-3H,(H3,6,7,8,9)	InChI=1S/C5H6N4/c6-4-1-2-8-3-9-5(4)7/h1-3H,(H3,6,7,8,9)
