19
gdb 111599	4.25	1.30267	1.25587	1.736	75.15	-0.2341	0.0806	0.3147	1072.4269	0.160464	-422.968076	-422.960704	-422.95976	-423.000254	28.951	
C	 0.2599267893	 1.2633322907	 0.2376142018	-0.24113
O	-0.3008213422	 0.0492368797	-0.2122915919	-0.24897
C	 0.4553653914	-0.5810747897	-1.1960782746	 0.191843
C	 1.7915641014	-1.303100468	-0.8356871503	 0.005935
O	 1.4077502288	-2.1223088324	 0.2701717209	-0.260241
C	 0.4745774202	-2.9552663408	-0.4366055123	 0.087518
C	 1.3960394456	-3.691826998	-1.4346656036	-0.239613
C	 1.5115305943	-2.289007699	-2.0496643642	-0.077214
C	 0.0285233356	-1.9807978209	-1.6098064046	-0.141395
H	 1.2341251481	 1.1094304188	 0.7230923078	 0.113854
H	 0.3919568697	 1.9805405003	-0.5881949143	 0.100355
H	-0.4322707776	 1.6899998634	 0.967011042	 0.128048
H	 0.5932071235	 0.0596120728	-2.0827044845	 0.062669
H	 2.7406439726	-0.802138067	-0.6542001286	 0.077052
H	-0.2127181908	-3.4463177583	 0.2486720007	 0.084357
H	 2.2801757333	-4.183545179	-1.0215755999	 0.102063
H	 0.8476943934	-4.3641808198	-2.0999212888	 0.101483
H	 1.9245975506	-2.0628594444	-3.0300262908	 0.076088
H	-0.855723187	-2.2175470884	-2.1969159446	 0.077296
63.4883	156.5619	179.3443	268.5502	356.0971	478.3768	486.0832	620.166	695.996	762.8399	774.5393	816.2645	833.0959	872.4568	919.56	934.4225	964.6272	987.9523	996.2884	1028.1922	1050.2202	1059.9361	1075.3736	1094.1744	1152.6432	1164.1962	1169.7186	1180.3742	1191.3817	1227.1359	1238.3132	1247.6567	1257.4907	1280.6274	1285.1465	1349.0364	1396.3467	1482.3404	1483.2584	1489.5241	1505.9565	2971.0006	2979.4798	3031.0234	3059.157	3117.9528	3121.5771	3136.3728	3142.7858	3146.2953	3153.9996
COC1C2OC3CC2C13	CO[C@H]1[C@H]2O[C@@H]3C[C@H]2[C@H]13	
InChI=1S/C7H10O2/c1-8-7-5-3-2-4(5)9-6(3)7/h3-7H,2H2,1H3	InChI=1S/C7H10O2/c1-8-7-5-3-2-4(5)9-6(3)7/h3-7H,2H2,1H3/t3-,4+,5-,6-,7+/m0/s1
