22
gdb 116680	3.54986	0.81691	0.76865	2.732	87.5	-0.2407	0.0237	0.2645	1615.6842	0.192172	-404.335444	-404.325213	-404.324269	-404.371673	36.921	
C	 0.1151996296	 1.3748046913	 0.1637598121	-0.249254
O	-0.388456336	 0.1900059455	-0.4378571433	-0.193494
C	 0.5323946462	-0.5899534699	-1.0454976238	 0.111836
N	 0.197301508	-1.6878419491	-1.5564995805	-0.274019
C	 1.1861703279	-2.4973932163	-2.2381382251	 0.342106
C	 0.9237251354	-2.4015271059	-3.7449962475	-0.412052
C	 2.7153627152	-2.3819975151	-1.8976900401	-0.261263
C	 2.7885723283	-3.9319240338	-1.8816857593	-0.222532
C	 1.2433123679	-3.9762369581	-1.7502513577	-0.235977
H	 0.8075586117	 1.1481426759	 0.9841857845	 0.124968
H	 0.6227805199	 2.0158128095	-0.5680148743	 0.124546
H	-0.7479591398	 1.9079644228	 0.5642184487	 0.145071
H	 1.5487333212	-0.1705273309	-1.0414814273	 0.076411
H	 1.099384708	-1.3807065084	-4.1012367476	 0.107807
H	 1.5776038082	-3.0770692824	-4.3058768902	 0.109194
H	-0.1160680346	-2.6631865012	-3.961326493	 0.12697
H	 3.3524558656	-1.8445546673	-2.6056900845	 0.090011
H	 2.8778467937	-1.9710733586	-0.8970027432	 0.093288
H	 3.1415900881	-4.3417471802	-2.8314165671	 0.103029
H	 3.3668336845	-4.3894614861	-1.0764508088	 0.097047
H	 0.923042408	-4.0462752092	-0.7078691457	 0.102826
H	 0.6943407831	-4.7152876925	-2.3397550662	 0.093482
29.2612	73.4859	125.9618	148.7023	167.8629	235.243	262.1512	280.5367	330.6065	362.1816	431.0115	492.0602	510.9345	681.4642	743.0537	798.9722	869.1972	907.0302	922.6788	941.6306	972.5138	989.4097	994.3212	1034.5388	1069.2416	1156.7524	1163.8767	1176.7434	1191.1344	1203.7824	1216.8473	1252.146	1266.1742	1275.1048	1281.3699	1308.7841	1403.1131	1407.8647	1470.2886	1482.3618	1483.7703	1486.9257	1493.9974	1498.5444	1501.22	1507.1556	1769.1321	3003.7319	3017.7481	3030.5491	3048.5705	3058.4914	3067.1	3070.9876	3096.1398	3099.473	3108.5824	3114.3006	3124.6858	3142.3903
COC=NC1(C)CCC1	COC=NC1(C)CCC1	
InChI=1S/C7H13NO/c1-7(4-3-5-7)8-6-9-2/h6H,3-5H2,1-2H3	InChI=1S/C7H13NO/c1-7(4-3-5-7)8-6-9-2/h6H,3-5H2,1-2H3
