20
gdb 35689	2.41915	1.42887	1.08541	4.0797	83.16	-0.2871	0.0269	0.314	1180.2301	0.172161	-366.012437	-366.004048	-366.003103	-366.04568	32.099	
N	-0.5467228413	-0.6563641769	-1.0268586037	-0.341033
C	-0.3663798826	 0.3445654114	-0.4752681608	 0.275273
C	-0.0954734192	 1.5919703895	 0.2154931003	-0.2162
C	 0.1133874386	 1.5721849919	 1.7612815922	-0.231719
C	 1.2370479626	 2.6231655659	 1.575008283	-0.288085
C	 1.328617824	 2.2250844431	 0.076470175	 0.364748
C	 2.5488799245	 1.3572089826	-0.3352495986	-0.280432
C	 3.1415327478	 2.6046988819	-1.0462870033	-0.210253
C	 1.7287283947	 3.249749885	-1.0071096588	-0.295764
H	-0.8595203594	 2.3265814457	-0.0602221274	 0.119299
H	-0.7488117404	 1.8400224201	 2.3738131761	 0.114773
H	 0.5004232227	 0.6069914105	 2.0937796829	 0.127753
H	 0.8624239893	 3.6441568813	 1.6995367434	 0.105895
H	 2.1407979574	 2.5052393761	 2.1771359398	 0.108533
H	 3.1306168392	 0.9008752313	 0.4701353359	 0.099974
H	 2.2660944692	 0.5762077443	-1.0469139846	 0.126778
H	 3.8541557327	 3.1403596322	-0.4137282214	 0.106443
H	 3.5955942723	 2.4507677048	-2.026962687	 0.105666
H	 1.1798530916	 3.0833130538	-1.9396218395	 0.110391
H	 1.6521243564	 4.3078644455	-0.7409456734	 0.097961
90.9865	99.3235	146.1118	184.3845	273.7057	360.5682	367.9458	447.141	537.05	576.0592	667.9121	709.8287	768.8509	806.0449	867.5931	882.8234	902.2366	936.3586	952.1467	954.0701	963.1987	1034.8397	1056.6012	1099.7529	1139.6605	1161.262	1184.9458	1200.146	1229.9733	1244.0168	1254.913	1258.9436	1269.2585	1281.1646	1293.9511	1302.4202	1345.2228	1472.101	1480.7286	1487.599	1499.5955	1506.3456	2347.2526	3045.864	3051.2178	3055.1834	3057.2222	3066.4443	3079.1085	3095.5549	3104.463	3107.7964	3124.4422	3137.5289
N#CC1CCC11CCC1	N#C[C@H]1CCC21CCC2	
InChI=1S/C8H11N/c9-6-7-2-5-8(7)3-1-4-8/h7H,1-5H2	InChI=1S/C8H11N/c9-6-7-2-5-8(7)3-1-4-8/h7H,1-5H2/t7-/m1/s1
