22
gdb 62616	2.24192	1.8159	1.57067	1.635	84.53	-0.2359	0.0782	0.314	1028.4351	0.193732	-367.171372	-367.162639	-367.161695	-367.203726	35.177	
C	-0.0286107978	 1.5812373925	 0.0181255017	-0.469921
C	 0.04521861	 0.0544586339	 0.024057923	 0.287507
C	-1.3210812664	-0.548692172	-0.3233721861	-0.446846
C	 1.1487296016	-0.6409963175	-0.7658965616	-0.071453
C	 2.3891430044	-0.7154026404	 0.0609052562	-0.054372
C	 2.119658421	-0.0815562979	 1.4097220404	-0.297758
C	 0.705224481	-0.6824619871	 1.2418325172	 0.307808
C	-0.0794633398	-1.1356781911	 2.4404468625	-0.504091
N	 1.3049995837	-1.7431904296	 0.2417540126	-0.19759
H	 0.9481294688	 2.0494015972	 0.1587599128	 0.117267
H	-0.4298402019	 1.9393476437	-0.9367544286	 0.114802
H	-0.6972512946	 1.9447766822	 0.8074415573	 0.113432
H	-1.6358799345	-0.2268016019	-1.3223392473	 0.10929
H	-1.2889223375	-1.6412921992	-0.3160862533	 0.134627
H	-2.0903832952	-0.2196874608	 0.3838919505	 0.110795
H	 1.1542941762	-0.8613138037	-1.829227604	 0.083612
H	 3.3468917928	-0.9883252168	-0.368792906	 0.091988
H	 2.6647441664	-0.6098433504	 2.1976369234	 0.10527
H	 2.2353919911	 0.997212219	 1.5495734833	 0.093882
H	-0.3815862373	-0.2740781753	 3.0477990076	 0.119284
H	-0.9815390045	-1.6830126437	 2.1540234551	 0.127219
H	 0.5289960726	-1.7935757012	 3.0690324434	 0.125247
169.3542	174.5064	185.3132	255.1797	273.1924	286.6874	317.612	356.5489	391.5956	471.9068	539.9164	617.5888	633.9413	752.2862	774.0323	805.652	825.0945	873.832	908.0344	946.6092	968.3461	992.0177	1009.3784	1021.0891	1028.0775	1051.0869	1104.9432	1109.8909	1137.6523	1188.3745	1207.1489	1219.6829	1238.0583	1258.8838	1325.9878	1351.2169	1371.9246	1400.3445	1410.6912	1422.1409	1479.4714	1482.3826	1486.1908	1493.8505	1504.3556	1506.7968	1518.7682	3026.7388	3030.3409	3033.1328	3047.1176	3084.4786	3090.6974	3094.1581	3097.4695	3114.7555	3118.2054	3120.8616	3156.8016	3176.108
CC1(C)C2C3CC1(C)N23	CC1(C)[C@H]2[C@H]3C[C@]1(C)N23	
InChI=1S/C8H13N/c1-7(2)6-5-4-8(7,3)9(5)6/h5-6H,4H2,1-3H3	InChI=1S/C8H13N/c1-7(2)6-5-4-8(7,3)9(5)6/h5-6H,4H2,1-3H3/t5-,6-,8+,9?/m1/s1
