18
gdb 41885	3.06364	1.58544	1.1439	1.2944	72.24	-0.2487	0.0118	0.2605	1053.5653	0.149718	-439.06604	-439.058549	-439.057604	-439.098395	28.539	
C	 0.1396111404	 1.5748746644	 0.2098990753	-0.095742
O	 1.4849202256	 1.518211584	-0.3093384081	-0.296196
C	 1.360342193	 0.1078210788	-0.603707127	 0.131754
C	 2.4128136202	-0.7756859177	 0.0313687215	-0.250508
C	 1.9851421661	-2.2503271216	-0.044248207	-0.158483
N	 0.9320384758	-2.682109557	 0.86276315	-0.240827
C	 0.0773567748	-1.9337214881	 1.4030268505	 0.114573
O	-0.1712902185	-0.5900443081	 1.2931912788	-0.240896
C	-0.0441579726	 0.0607633458	 0.0349794706	 0.057813
H	 0.1015922124	 1.9133899786	 1.2504985892	 0.120466
H	-0.5158957954	 2.1994725033	-0.4084861414	 0.106279
H	 1.3297410555	-0.0577098336	-1.6905693682	 0.077621
H	 3.3712256528	-0.6386157441	-0.4822872503	 0.107509
H	 2.5596308007	-0.4816267988	 1.075428214	 0.119624
H	 1.6837415749	-2.5044895816	-1.0713193082	 0.113054
H	 2.8509757423	-2.8876216452	 0.1669430554	 0.119199
H	-0.6039453639	-2.3538908022	 2.1437281969	 0.121015
H	-0.8584210543	-0.2651412069	-0.619128202	 0.093746
71.4447	129.7455	214.1351	292.3274	321.6489	382.1913	441.3204	482.7487	600.8459	764.7861	768.8541	822.0531	849.136	884.312	919.3492	971.3353	982.567	1002.9538	1032.3975	1043.9597	1080.2322	1103.0884	1137.0627	1158.919	1187.8141	1207.5546	1261.0264	1269.6151	1300.4252	1339.3817	1358.281	1374.1852	1388.7907	1403.897	1429.238	1484.5187	1490.893	1512.0441	1759.9531	2994.5324	3003.5678	3026.9592	3040.82	3056.7897	3060.6403	3084.1917	3093.789	3132.3052
C1OC2CCN=COC12	C1O[C@H]2CCN=CO[C@@H]12	
InChI=1S/C6H9NO2/c1-2-7-4-9-6-3-8-5(1)6/h4-6H,1-3H2	InChI=1S/C6H9NO2/c1-2-7-4-9-6-3-8-5(1)6/h4-6H,1-3H2/t5-,6-/m0/s1
