20
gdb 109544	2.148	1.43844	0.93683	4.092	77.3	-0.2351	0.0404	0.2756	1275.79	0.1695	-440.307034	-440.29679	-440.295846	-440.342439	36.002	
C	-0.1625651031	 1.6022750232	 0.1691166333	-0.409673
C	 0.0170792288	 0.0996911425	-0.0125477394	-0.183761
C	 0.8008409881	-0.4710854907	-1.2453797115	 0.037136
C	 1.3963729149	 0.5037486766	-2.2453759998	-0.091394
O	 2.1860240399	-0.2585915064	-3.1495847954	-0.422948
N	 1.7568908863	-1.0400727301	-0.2886381369	-0.074952
C	 2.8796994737	-1.9295485939	-0.4543626122	-0.340357
C	 1.1209417928	-0.5792473256	 0.8357892688	 0.410682
O	 1.367842133	-0.6909597601	 2.0102903151	-0.386358
H	 0.7813967712	 2.14513594	 0.0646242414	 0.123361
H	-0.8769802894	 2.0135852633	-0.5512930242	 0.118009
H	-0.5451164002	 1.8034913177	 1.1739786818	 0.139974
H	-0.9412538954	-0.4121909162	 0.1184457452	 0.101968
H	 0.2507019466	-1.2426164507	-1.8001775171	 0.085203
H	 0.5819504661	 1.0300748169	-2.7685658007	 0.09335
H	 2.0048645883	 1.2541234386	-1.7209922503	 0.092988
H	 2.6117221611	 0.3455422951	-3.7650045789	 0.291255
H	 3.6343074445	-1.493187897	-1.1142700983	 0.137147
H	 3.3116178682	-2.10272847	 0.5342842151	 0.152842
H	 2.5680680145	-2.8923201132	-0.8791276759	 0.125529
74.6504	115.9431	123.6906	134.1918	168.9479	203.747	226.0525	249.9669	264.8885	332.0574	399.8723	468.7036	562.7833	648.1067	743.5314	757.5424	842.6466	890.696	1007.2813	1009.9294	1061.2794	1076.7752	1087.2297	1124.6922	1152.4358	1157.2483	1193.0781	1233.2467	1253.024	1274.2731	1292.922	1354.9198	1373.3651	1408.3488	1420.5113	1451.2893	1461.6135	1480.4451	1496.2399	1499.0489	1514.4165	1521.0078	1871.6914	2974.041	3010.3756	3020.8226	3029.4618	3039.6161	3066.7643	3089.4714	3107.521	3115.3764	3134.3853	3829.758
CC1C(CO)N(C)C1=O	C[C@H]1[C@@H](CO)N(C)C1=O	
InChI=1S/C6H11NO2/c1-4-5(3-8)7(2)6(4)9/h4-5,8H,3H2,1-2H3	InChI=1S/C6H11NO2/c1-4-5(3-8)7(2)6(4)9/h4-5,8H,3H2,1-2H3/t4-,5+/m0/s1
