20
gdb 89801	3.15359	1.35305	1.11899	2.9732	78.62	-0.2354	0.0714	0.3068	1149.6089	0.172084	-403.117191	-403.109202	-403.108258	-403.149477	31.839	
C	 0.0914763172	 1.5858879219	 0.0179378075	-0.402819
C	 0.0292530513	 0.0585407346	 0.0270139634	 0.031402
C	 0.700811659	-0.6094718172	-1.2023933151	-0.33597
C	 1.1821989035	-1.9693796643	-0.7022876316	 0.514379
C	 0.7609142698	-3.2526174001	-1.2781558189	-0.263823
O	 2.0733679573	-2.73143441	-1.5135479977	-0.287767
C	 1.4482411067	-1.8107376363	 0.7664006943	-0.150057
N	 2.2114795166	-0.573783641	 1.0688167591	-0.33914
C	 0.7422710277	-0.5856945619	 1.214540219	-0.042014
H	 1.1332760481	 1.9207617524	 0.0352881032	 0.133579
H	-0.3856302111	 1.9975516409	-0.8775157721	 0.112344
H	-0.4171153242	 2.0102951193	 0.8905425193	 0.10669
H	-1.0210869498	-0.2600366978	 0.0718745226	 0.072
H	 0.0303641972	-0.6888237711	-2.0612960183	 0.09856
H	 1.5750254916	-0.0284141394	-1.5099791812	 0.130658
H	 0.7179586137	-4.1466070872	-0.6555396734	 0.107955
H	 0.0968063842	-3.2614075728	-2.1421400512	 0.110551
H	 1.578017597	-2.684587649	 1.3958489626	 0.087363
H	 2.6416154825	-0.6742873028	 1.9848665985	 0.232694
H	 0.3113231917	-0.5064977582	 2.2081804001	 0.083414
98.3922	170.9238	236.5489	242.0259	297.142	359.4772	386.8513	435.4232	521.5637	565.8462	615.8531	779.7474	804.798	852.046	860.2895	885.822	907.4935	922.1315	924.5762	948.4575	973.4754	1048.1722	1053.1027	1113.6262	1118.1134	1129.2668	1136.9105	1160.2608	1164.3263	1215.0718	1243.6591	1270.1681	1293.8583	1339.0763	1340.5315	1362.0748	1400.1956	1411.139	1452.7411	1482.2189	1496.4527	1502.3337	1534.4504	3012.9462	3030.7853	3064.061	3071.3043	3095.2387	3108.5045	3112.6048	3152.6773	3155.9197	3171.6688	3503.8464
CC1CC2(CO2)C2NC12	C[C@H]1C[C@]2(CO2)[C@H]2N[C@@H]12	
InChI=1S/C7H11NO/c1-4-2-7(3-9-7)6-5(4)8-6/h4-6,8H,2-3H2,1H3	InChI=1S/C7H11NO/c1-4-2-7(3-9-7)6-5(4)8-6/h4-6,8H,2-3H2,1H3/t4-,5-,6-,7-/m0/s1
