21
gdb 122173	3.38109	0.79353	0.72479	1.6874	76.84	-0.2385	0.0767	0.3152	1651.1936	0.179306	-461.331476	-461.320934	-461.31999	-461.367652	38.186	
C	-0.1381150511	 1.4748705438	-0.258031366	-0.385965
C	-0.0598842842	-0.0029220649	 0.0852184038	-0.024706
O	-1.3355741419	-0.5813170501	-0.1101625518	-0.26673
C	-1.3835121651	-1.9662548912	 0.1953806521	-0.12471
C	-2.8335012324	-2.3679340335	 0.1242673961	 0.393379
O	-3.6504224973	-1.6352728626	 0.9908554039	-0.47676
C	-3.4226997952	-2.8210392557	-1.2036589007	-0.383032
C	-3.2174725482	-3.7944983863	-0.0582389559	 0.044434
O	-2.184999192	-4.7374341386	-0.1128624005	-0.423711
H	 0.8370386554	 1.9505731992	-0.1177521722	 0.116984
H	-0.4452508831	 1.6120978298	-1.2986981333	 0.127448
H	-0.8653323672	 1.9810391383	 0.3835960706	 0.123857
H	 0.6846388547	-0.5090949992	-0.5515837652	 0.088456
H	 0.2634955179	-0.143206845	 1.130244498	 0.089853
H	-0.7723938583	-2.5530600682	-0.502762697	 0.099662
H	-1.0003790955	-2.1416012203	 1.2135540975	 0.096855
H	-3.4353498098	-0.7088128669	 0.8226135135	 0.286663
H	-4.4381521911	-2.5165214449	-1.4295809023	 0.115981
H	-2.7498776361	-2.8959975172	-2.051551417	 0.112359
H	-4.1097673494	-4.107141032	 0.4836825595	 0.100579
H	-2.4268143801	-5.4008702547	-0.7675257431	 0.289105
47.8758	74.3373	102.4523	147.3382	191.9002	236.4515	248.7219	284.8583	314.8464	394.2533	420.5288	431.9454	456.2069	474.6484	586.6304	747.0261	820.1371	842.9517	902.0731	924.3314	936.306	991.7173	1015.15	1038.2586	1047.5807	1100.0139	1134.6502	1160.9071	1164.9506	1189.4483	1225.9311	1271.2874	1281.3989	1297.5586	1320.1941	1358.1124	1397.8842	1408.3058	1424.3533	1450.3566	1483.6627	1499.1055	1506.9109	1518.5139	1533.4246	2958.8152	2979.5608	2985.3184	3040.2719	3044.3531	3109.1906	3118.4263	3120.8984	3132.9584	3230.3821	3774.959	3805.7
CCOCC1(O)CC1O	CCOC[C@@]1(O)C[C@H]1O	
InChI=1S/C6H12O3/c1-2-9-4-6(8)3-5(6)7/h5,7-8H,2-4H2,1H3	InChI=1S/C6H12O3/c1-2-9-4-6(8)3-5(6)7/h5,7-8H,2-4H2,1H3/t5-,6+/m1/s1
