18
gdb 12889	2.54283	2.45407	1.75018	1.2605	67.36	-0.2402	0.0892	0.3294	850.1102	0.153127	-384.92464	-384.916695	-384.915751	-384.956677	29.518	
C	-0.0082563669	 1.5526897576	-0.0960887382	-0.406344
C	 0.1180386761	 0.0488048553	-0.06605624	-0.099436
C	 1.4612299122	-0.6588869459	-0.163088522	-0.004431
O	 2.6037734877	 0.1329802729	 0.0810259858	-0.254405
C	 2.7379493295	 0.1555554273	 1.4907359898	 0.01503
O	 1.4326375649	 0.0874929205	 2.0302073043	-0.289302
C	 0.687735954	-0.7129709075	 1.1210723913	 0.374853
C	 0.0383888629	-1.9206412328	 1.7347976271	-0.46723
H	-0.0105142674	 1.9208551017	-1.1271828364	 0.117495
H	-0.9413544859	 1.8725844501	 0.3789562606	 0.116721
H	 0.8188167363	 2.0286899413	 0.4317508179	 0.134502
H	-0.6820180184	-0.4875022357	-0.5742676775	 0.083733
H	 1.6238118991	-1.5065212197	-0.821728022	 0.09834
H	 3.3415189514	-0.7043920088	 1.8312171268	 0.088491
H	 3.2063454695	 1.0963392005	 1.7935516477	 0.11851
H	-0.7074560083	-1.6231485476	 2.479458267	 0.13109
H	-0.4676679283	-2.5159943314	 0.9691810868	 0.119259
H	 0.7804872116	-2.5546712579	 2.231227821	 0.123125
109.2477	175.7336	193.3454	205.3166	211.5704	276.0342	343.8416	495.735	569.814	643.9338	721.0404	753.201	796.5491	874.4182	920.2597	949.3939	1010.0254	1022.5648	1030.5222	1081.8538	1121.7386	1129.5401	1138.8149	1150.9289	1182.0172	1226.049	1235.0299	1269.1921	1335.4784	1412.7861	1413.9429	1420.8679	1453.0597	1479.9381	1488.9123	1496.0229	1502.4	1536.7615	2945.2778	3033.2026	3041.3427	3090.7248	3097.5156	3098.9057	3111.7134	3119.961	3144.7359	3153.8711
CC1C2OCOC12C	C[C@H]1[C@H]2OCO[C@@]12C	
InChI=1S/C6H10O2/c1-4-5-6(4,2)8-3-7-5/h4-5H,3H2,1-2H3	InChI=1S/C6H10O2/c1-4-5-6(4,2)8-3-7-5/h4-5H,3H2,1-2H3/t4-,5+,6-/m0/s1
