25
gdb 120632	4.20585	0.68533	0.65045	0.9898	90.86	-0.2422	0.0868	0.3291	1886.1559	0.225996	-389.478603	-389.467275	-389.466331	-389.515435	41.066	
C	 0.1996634791	 1.459910375	 0.2411234909	-0.382734
C	-0.0065203663	-0.0562593908	 0.2006902647	-0.15123
C	-1.4203455683	-0.4599244692	-0.2411833425	-0.210487
C	-1.6113148476	-1.9615829854	-0.280775563	-0.047299
C	-2.0134344047	-2.7515730728	 0.9544284313	-0.352812
C	-2.9458465177	-2.6501697175	-0.2337498093	 0.414175
C	-4.2468262271	-1.8828095182	-0.1375788769	-0.457386
O	-2.9977389658	-3.7732962	-1.0798086789	-0.281132
C	-3.754010812	-4.8581708228	-0.5820493994	-0.244488
H	 1.2164697309	 1.7172076873	 0.5539966933	 0.11063
H	 0.0308825232	 1.9094495665	-0.7439343135	 0.1133
H	-0.4944865926	 1.93630889	 0.9428524221	 0.11169
H	 0.7258669087	-0.5087589279	-0.4806769301	 0.09517
H	 0.1958223495	-0.4855451602	 1.1901050684	 0.098462
H	-2.1485950968	-0.0016742521	 0.4396821926	 0.08965
H	-1.6229252568	-0.0349842406	-1.2342884223	 0.096494
H	-0.9058439192	-2.4811339422	-0.9250660272	 0.091194
H	-1.5227177837	-3.701680771	 1.1342049448	 0.111096
H	-2.2685055821	-2.1966276723	 1.8526870379	 0.103922
H	-4.1358685822	-0.9834403404	 0.4720267836	 0.118914
H	-4.5873512809	-1.5833767709	-1.1344758655	 0.123208
H	-5.0345150281	-2.4897756305	 0.3210848773	 0.115941
H	-3.6042953502	-5.6913231522	-1.2734103145	 0.123841
H	-3.4200120808	-5.1622537018	 0.4205243068	 0.104151
H	-4.8294855984	-4.6358318402	-0.5351873204	 0.105727
62.6551	74.017	88.3011	121.7842	180.0515	184.0731	216.4707	247.4278	277.5796	305.9797	329.0322	375.1395	423.5893	461.1085	589.5464	691.2457	744.5971	846.8458	854.2405	883.0405	901.9822	933.4035	945.0699	968.2103	1042.8471	1051.5652	1066.4768	1097.1749	1125.2554	1132.3188	1137.1457	1181.6792	1191.8555	1219.9601	1243.469	1271.5175	1302.9207	1324.6119	1329.9469	1383.1349	1410.1052	1413.2252	1421.1889	1471.2933	1476.6868	1480.675	1484.1974	1492.8696	1495.2876	1500.249	1509.2761	1509.8089	1513.4358	2988.5577	3006.4387	3019.4507	3027.8672	3034.4468	3036.7424	3041.2474	3058.6998	3094.0786	3096.0847	3100.521	3111.1269	3122.056	3126.3543	3138.6527	3212.7337
CCCC1CC1(C)OC	CCC[C@H]1C[C@]1(C)OC	
InChI=1S/C8H16O/c1-4-5-7-6-8(7,2)9-3/h7H,4-6H2,1-3H3	InChI=1S/C8H16O/c1-4-5-7-6-8(7,2)9-3/h7H,4-6H2,1-3H3/t7-,8-/m0/s1
