22
gdb 112185	2.4695	1.21038	1.01683	2.5899	83.64	-0.2205	-0.0186	0.2019	1311.3094	0.190998	-404.352663	-404.342289	-404.341345	-404.387725	38.132	
C	 0.128874242	 1.6084852748	 0.0514062155	-0.380112
C	-0.1541937356	 0.1082040462	-0.0259750371	-0.129174
N	 0.5076591913	-0.4950588175	-1.1671026674	-0.107274
C	-0.018939854	-0.230107788	-2.5195974534	-0.301815
C	 0.2717694371	-1.6991448562	-2.8498656898	 0.372475
O	 0.2999263346	-2.3601240013	-3.8444672346	-0.301428
C	 0.5323415221	-1.98364284	-1.3552380923	 0.179007
C	 1.8791101333	-2.6173700804	-1.0194123835	-0.41726
C	-0.6353648133	-2.7664035431	-0.7344710225	-0.435732
H	 1.2050158258	 1.7935509467	 0.112204559	 0.125272
H	-0.2536658533	 2.1286182061	-0.833230574	 0.11975
H	-0.3547348361	 2.0473720896	 0.9295453896	 0.113306
H	 0.2231832917	-0.3801131553	 0.8801800846	 0.103462
H	-1.2494279472	-0.0533683173	-0.0410111055	 0.076804
H	-1.101013007	-0.0115194781	-2.5647686897	 0.110248
H	 0.5132922937	 0.5290570919	-3.1027658372	 0.128424
H	 2.6959717529	-2.0454251697	-1.4658249526	 0.123006
H	 2.032158628	-2.6418244696	 0.0653213298	 0.115566
H	 1.9225942145	-3.6452029813	-1.3931843504	 0.127605
H	-0.6277333063	-3.7949307413	-1.1065288951	 0.13484
H	-0.5450570759	-2.7999094849	 0.3561473653	 0.122144
H	-1.6061304186	-2.3269945111	-0.9828285687	 0.120885
84.8777	87.5355	161.2103	172.5068	180.8663	227.9918	232.0189	274.2123	300.3715	319.9059	398.1936	427.489	539.5266	571.2572	624.3703	705.7916	746.2164	811.0456	921.0101	948.74	955.9615	976.8871	982.7134	1015.7429	1062.0282	1102.8683	1123.4461	1168.9677	1186.7167	1190.0623	1242.5182	1277.9753	1288.4598	1326.4526	1388.0501	1395.0126	1409.6126	1412.8429	1475.3697	1476.2568	1480.3975	1489.0414	1493.9189	1498.8922	1504.2604	1512.4967	1911.765	2913.7447	2949.8355	3033.037	3037.2517	3037.645	3048.7996	3060.3157	3101.7383	3105.127	3107.1318	3115.6191	3119.1562	3125.2862
CCN1CC(=O)C1(C)C	CCN1CC(=O)C1(C)C	
InChI=1S/C7H13NO/c1-4-8-5-6(9)7(8,2)3/h4-5H2,1-3H3	InChI=1S/C7H13NO/c1-4-8-5-6(9)7(8,2)3/h4-5H2,1-3H3
