14
gdb 13246	7.81128	0.7945	0.75956	2.7387	70.05	-0.2656	-0.0664	0.1992	1413.394	0.105774	-382.488379	-382.480223	-382.479278	-382.523618	26.579	
O	-0.1753906861	-0.0074901632	-0.3587869465	-0.226004
C	-0.0069674866	 1.0514274804	 0.2010063507	 0.021578
C	 1.1921103479	 1.8437182706	 0.103597756	 0.000749
C	 2.1864921254	 2.52864248	 0.0445146281	 0.139205
C	 3.3740926664	 3.3422454581	-0.0522528864	-0.225867
C	 4.0696359011	 3.4972112215	-1.436355091	-0.074202
O	 4.0663308499	 4.9305670192	-1.3157537956	-0.262662
C	 3.2256669491	 4.8885126665	-0.1504442999	-0.07408
H	-0.791600918	 1.4952539728	 0.8470962079	 0.100585
H	 4.0848078286	 3.0527573142	 0.7270853258	 0.128659
H	 5.0813090059	 3.0874130993	-1.517141628	 0.119443
H	 3.460751938	 3.147515993	-2.2785453484	 0.119686
H	 2.2022995821	 5.2219604759	-0.361654236	 0.114929
H	 3.6371831963	 5.4676547517	 0.6823941133	 0.117979
15.8798	70.1053	84.1702	146.3742	205.8309	284.5193	449.4248	499.5055	588.2764	704.1971	854.1516	888.0924	921.2653	999.4123	1020.5651	1021.4742	1043.8782	1104.945	1158.6201	1168.2104	1187.3985	1223.3812	1304.6765	1340.5802	1377.442	1422.5698	1510.5052	1535.475	1767.3753	2324.2421	2918.7167	3021.1937	3031.6153	3064.8332	3081.2632	3089.2599
O=CC#CC1COC1	O=CC#CC1COC1	
InChI=1S/C6H6O2/c7-3-1-2-6-4-8-5-6/h3,6H,4-5H2	InChI=1S/C6H6O2/c7-3-1-2-6-4-8-5-6/h3,6H,4-5H2
