13
gdb 8755	4.30947	1.44251	1.0882	0.6224	63.48	-0.2783	-0.0814	0.1969	993.3765	0.09493	-394.811607	-394.80337	-394.802426	-394.845391	27.674	
C	-0.021986337	 1.4498240098	-0.0407537366	-0.363381
N	-0.0057020434	-0.0141271598	-0.0038281914	-0.145567
C	-0.009633039	-0.6578507451	 1.2376321672	 0.172292
O	-0.0249956271	-0.0641168728	 2.2873477445	-0.308997
C	 0.0133750897	-0.7641263427	-1.1763631152	 0.330816
N	 0.0332794938	-2.0397273549	-1.1880822093	-0.497821
C	 0.0093503531	 0.018971302	-2.4023020239	 0.228512
N	 0.0073968709	 0.5762726013	-3.4154813118	-0.317603
H	 0.8686594375	 1.8378458586	-0.5413765923	 0.155203
H	-0.9126146029	 1.8177534785	-0.5563595278	 0.155297
H	-0.034482955	 1.7862708385	 0.9946993721	 0.18193
H	 0.0027116153	-1.749800931	 1.1373333685	 0.152805
H	 0.0441150743	-2.4014957426	-2.138305084	 0.256514
27.5655	124.4226	155.4358	166.3308	292.0669	296.4622	327.3371	358.9542	484.0083	519.6572	676.2811	727.6854	823.2678	837.5592	963.6694	1052.548	1080.3149	1155.9854	1223.7783	1287.6837	1396.8813	1427.6669	1455.0315	1504.738	1506.5731	1677.1775	1806.241	2346.9797	3055.3802	3080.3445	3122.7684	3173.9474	3534.8264
CN(C=O)C(=N)C#N	CN(C=O)C(=N)C#N	
InChI=1S/C4H5N3O/c1-7(3-8)4(6)2-5/h3,6H,1H3	InChI=1S/C4H5N3O/c1-7(3-8)4(6)2-5/h3,6H,1H3
