23
gdb 111003	2.52608	1.36421	1.09995	1.5614	85.42	-0.2297	0.0882	0.3179	1241.71	0.206133	-388.281844	-388.272913	-388.271969	-388.315144	35.257	
C	-0.0638448762	 1.6361245041	 0.0507649447	-0.377374
C	 0.0103372565	 0.1083360765	 0.1686885491	-0.227846
C	-1.3602929506	-0.5531035835	 0.064855224	 0.012746
C	-2.0174619665	-0.6914246646	-1.3546405413	-0.083426
C	-1.1640821408	-1.9833094318	-1.5419315974	-0.284186
C	-1.4588366127	-2.1105964157	-0.0232547779	 0.435145
C	-0.7825579454	-3.0709477646	 0.9129516668	-0.498597
O	-2.8912182465	-2.3175378711	-0.0089329676	-0.317717
C	-3.3535483658	-1.3244215133	-0.9524750585	-0.085242
H	 0.9260386465	 2.0901969877	 0.1588267853	 0.111695
H	-0.466087026	 1.9417155822	-0.9209517644	 0.116806
H	-0.7124575693	 2.0607747369	 0.8248002253	 0.11588
H	 0.6982950704	-0.277513958	-0.5915771699	 0.096695
H	 0.4532737842	-0.1552233804	 1.1383808589	 0.098689
H	-2.0226965009	-0.1333203459	 0.8322238058	 0.064569
H	-2.0369830576	 0.1179204232	-2.0841837433	 0.066698
H	-1.5614101135	-2.7727163945	-2.1854086277	 0.094437
H	-0.1190036228	-1.7886737578	-1.7796888405	 0.100952
H	 0.2989242259	-2.9071693312	 0.9208298838	 0.117394
H	-1.161598241	-2.9437446688	 1.9320013431	 0.126155
H	-0.9743800945	-4.1041491531	 0.6069413259	 0.126855
H	-4.0389102857	-0.6241160769	-0.4597310356	 0.095133
H	-3.8781936477	-1.8100073992	-1.7844897886	 0.094537
82.8277	141.9218	197.2832	217.4044	252.7326	271.6055	322.8765	371.1555	422.3298	501.1141	521.2387	631.4236	658.8811	754.5754	825.1707	856.816	877.6125	884.9428	917.5218	945.8392	953.7475	977.5148	1002.1831	1021.7362	1063.988	1068.9827	1107.7348	1125.4789	1140.5695	1166.9966	1190.6311	1195.0434	1225.6615	1254.7991	1263.0403	1298.2766	1326.3062	1342.2263	1362.982	1404.3236	1413.5773	1418.2021	1479.8765	1481.9645	1492.9447	1497.7244	1500.6893	1509.6102	1529.1965	3015.4461	3019.5724	3025.6561	3032.5777	3038.5427	3054.5675	3061.6639	3071.7195	3100.9182	3103.6596	3108.0351	3114.6824	3118.7428	3144.6781
CCC1C2CC1(C)OC2	CC[C@H]1[C@H]2C[C@]1(C)OC2	
InChI=1S/C8H14O/c1-3-7-6-4-8(7,2)9-5-6/h6-7H,3-5H2,1-2H3	InChI=1S/C8H14O/c1-3-7-6-4-8(7,2)9-5-6/h6-7H,3-5H2,1-2H3/t6-,7-,8-/m0/s1
