17
gdb 127457	3.44062	1.11073	0.88855	3.3848	71.43	-0.2285	0.0263	0.2548	1302.0311	0.137776	-451.352876	-451.343734	-451.342789	-451.387672	32.204	
C	-0.0954446984	 1.4225585657	 0.0353672	-0.329859
N	-0.0392346975	-0.0209499975	 0.0108907327	-0.020619
N	 0.0000292245	-0.7235697081	-1.1683820848	-0.319166
C	 0.039764349	-1.9783607425	-0.7593673349	 0.333247
C	 0.1185722524	-3.143311123	-1.7014378192	-0.250088
N	 1.3144055781	-3.9827192028	-1.5477681809	-0.500317
N	 0.0354522836	-2.1402947435	 0.6049344738	-0.420527
C	-0.0148672957	-0.8978848487	 1.0294224538	 0.446347
O	-0.0432503154	-0.4788300623	 2.3010918677	-0.425424
H	 0.781405294	 1.8434213232	-0.4638715864	 0.150536
H	-0.996628005	 1.7745200819	-0.4737912115	 0.151411
H	-0.1140077369	 1.7498371244	 1.0754397234	 0.158613
H	-0.7586977799	-3.7839191698	-1.5541489727	 0.11938
H	 0.0756679155	-2.7625654176	-2.725546527	 0.125013
H	 2.1409730689	-3.4074142581	-1.6898984546	 0.2251
H	 1.3644158056	-4.2953246527	-0.5812366103	 0.235921
H	-0.0264388929	-1.2706039785	 2.853220181	 0.320432
46.5907	73.9945	123.7111	181.0088	225.8361	275.1792	306.1664	342.3996	400.6746	431.6905	525.9385	631.7124	679.3573	719.8894	774.1856	844.7592	897.5613	932.3617	1035.9954	1041.2034	1106.695	1155.9951	1164.438	1175.5141	1279.7094	1311.4242	1363.1772	1385.2291	1405.5932	1452.337	1474.8596	1479.6081	1503.2694	1525.4615	1594.0742	1630.0721	1667.8194	3042.6231	3052.0714	3101.9552	3116.9982	3157.7269	3478.2779	3554.1575	3807.2708
CN1N=C(CN)N=C1O	Cn1nc(CN)nc1O	
InChI=1S/C4H8N4O/c1-8-4(9)6-3(2-5)7-8/h2,5H2,1H3,(H,6,7,9)	InChI=1S/C4H8N4O/c1-8-4(9)6-3(2-5)7-8/h2,5H2,1H3,(H,6,7,9)
