16
gdb 8026	3.3457	1.96015	1.53169	3.3263	64.6	-0.2383	-0.0204	0.2179	849.8023	0.12941	-383.729868	-383.722493	-383.721548	-383.761628	28.154	
O	 0.0497869708	 1.4335981594	-0.2763963857	-0.476784
C	 0.0167452292	 0.0614456764	-0.0188752957	 0.41168
C	 0.4806838387	-0.9168393655	-1.1292710699	-0.288837
C	-0.8443923486	-1.7190025215	-0.9687959228	-0.228997
C	-1.37655447	-0.6661820354	 0.0636829626	-0.200326
C	-1.0386690904	-1.0735307159	 1.4958341919	 0.422863
O	-1.6191901645	-1.6851444241	 2.3455103879	-0.301946
C	 0.3436900244	-0.3885731611	 1.4410335761	-0.423321
H	 0.9680202532	 1.7260857651	-0.2570683881	 0.281106
H	 0.5415463579	-0.4085749405	-2.0944360897	 0.111948
H	 1.4149532413	-1.4565637859	-0.951901074	 0.097483
H	-1.4480066384	-1.7661308811	-1.8759997428	 0.120883
H	-0.7439927767	-2.7319536824	-0.5726491788	 0.118946
H	-2.3365516472	-0.1941946571	-0.1428851386	 0.098595
H	 1.2163159479	-1.0245532238	 1.6163658799	 0.119819
H	 0.3793245623	 0.4691331635	 2.1212046577	 0.136887
59.075	178.4585	236.4292	301.6766	346.985	386.968	448.0515	532.762	579.864	619.1614	727.4839	756.9799	847.0168	888.3609	900.5018	938.3684	954.9055	997.5856	1021.7287	1081.6468	1117.3053	1126.8449	1173.453	1205.7572	1213.2821	1232.955	1257.3137	1265.3739	1305.8548	1363.4526	1425.0095	1475.8406	1495.8313	1887.7705	3049.154	3057.5651	3075.101	3108.3777	3110.2206	3124.1964	3134.0208	3795.553
OC12CCC1C(=O)C2	O[C@]12CC[C@H]1C(=O)C2	
InChI=1S/C6H8O2/c7-5-3-6(8)2-1-4(5)6/h4,8H,1-3H2	InChI=1S/C6H8O2/c7-5-3-6(8)2-1-4(5)6/h4,8H,1-3H2/t4-,6-/m0/s1
