20
gdb 122851	3.84854	0.76129	0.68365	2.3559	73.57	-0.2606	0.0303	0.2909	1674.2593	0.169633	-477.409593	-477.399293	-477.398349	-477.445909	36.08	
C	 0.5684940012	 1.1167085667	 0.0901437787	-0.22577
O	 0.0631247274	-0.1722701059	-0.2656084004	-0.23367
C	 0.6701505458	-0.7816968081	-1.3012683042	 0.374115
N	 1.643419774	-0.264689606	-1.9225316014	-0.532567
C	-0.0212351796	-2.11474503	-1.5650796451	-0.169017
O	 0.614222751	-2.8786252157	-2.5578243668	-0.254224
C	 1.7733259745	-3.5803214775	-2.1185853223	-0.084199
C	 2.507989328	-4.0206374251	-3.3763725166	-0.069986
O	 2.8189896518	-2.9132378273	-4.2030210058	-0.411607
H	 1.6211602027	 1.0526394806	 0.3785429498	 0.138821
H	 0.4830183651	 1.8109913918	-0.7501255576	 0.138859
H	-0.0407910346	 1.4523303099	 0.9302381956	 0.126208
H	 1.9603180346	-0.8821947713	-2.6687431471	 0.229316
H	-0.109445489	-2.6646300619	-0.6169914714	 0.118021
H	-1.0395025572	-1.9128579225	-1.9150798068	 0.13693
H	 2.4173555174	-2.9223280764	-1.5205144795	 0.11392
H	 1.4879315489	-4.4477796812	-1.5031023236	 0.096256
H	 3.4551520311	-4.49590378	-3.1033194288	 0.1157
H	 1.8994284786	-4.7621134848	-3.9158034433	 0.09963
H	 1.9729802584	-2.5156369352	-4.4389867232	 0.293263
46.2835	69.1393	102.3392	150.968	172.9321	185.3246	242.0162	269.9	325.2817	354.7668	437.4028	461.4415	558.5126	576.7995	680.4389	846.6044	896.455	904.0726	918.574	992.4709	1017.9055	1070.3824	1076.1608	1117.6755	1132.7023	1172.9019	1180.4446	1217.7297	1231.2467	1263.9197	1294.5552	1327.9518	1393.5481	1406.7281	1419.1277	1435.0219	1474.7691	1476.5469	1480.9839	1496.0536	1500.0066	1512.012	1739.2218	2985.6424	2995.7171	3008.9139	3046.9784	3047.5451	3074.4972	3090.1662	3120.0481	3150.9499	3505.072	3805.4391
COC(=N)COCCO	CO[C]([NH])COCCO	
InChI=1S/C5H11NO3/c1-8-5(6)4-9-3-2-7/h6-7H,2-4H2,1H3	InChI=1S/C5H11NO3/c1-8-5(6)4-9-3-2-7/h6-7H,2-4H2,1H3
