20
gdb 57416	3.30262	1.11078	1.03042	2.6776	76.66	-0.2633	0.0261	0.2894	1253.4001	0.168849	-440.297144	-440.287627	-440.286682	-440.331158	36.228	
C	-0.125677047	 1.4912039549	-0.1152016294	-0.427936
C	 0.0150499383	-0.0356629123	-0.0257379519	 0.320676
C	 0.5516700108	-0.4662804554	 1.3396436434	-0.405352
O	-1.2607430502	-0.6574224835	-0.1660539105	-0.466571
C	 0.9467103888	-0.5369181039	-1.1339358039	 0.117941
C	 0.9852576584	-2.0492701854	-1.4392370554	-0.378482
C	 0.4270871376	-1.6393094687	-2.7827303587	 0.431136
N	 0.1249317107	-2.2352237936	-3.8420065873	-0.537351
O	 0.3561847695	-0.2920614002	-2.4631423492	-0.286691
H	 0.8316815496	 1.9921484706	 0.0617096853	 0.114428
H	-0.481910235	 1.7876835313	-1.1066562242	 0.128131
H	-0.8435835695	 1.8392503437	 0.632089748	 0.125556
H	-0.1233684821	-0.1184998917	 2.1259459013	 0.131217
H	 0.6163320454	-1.5555985737	 1.4072136045	 0.127131
H	 1.5439394366	-0.0436317615	 1.5229692715	 0.115782
H	-1.6056514713	-0.4019548981	-1.0300253723	 0.287433
H	 1.9263512589	-0.0528946086	-1.0767218418	 0.089983
H	 1.9676541147	-2.5212726214	-1.466628461	 0.133848
H	 0.2921909747	-2.6442396214	-0.8436551867	 0.152079
H	-0.2216272389	-1.5848637312	-4.5493005419	 0.227044
80.3066	91.8651	189.4071	207.1177	245.2248	279.2641	310.2647	342.12	385.1062	410.1669	444.8094	495.8856	529.285	561.0982	711.7692	761.8759	858.3394	867.7483	932.0777	935.5546	958.4546	967.6792	993.82	1007.434	1020.1775	1049.7095	1119.0504	1143.8554	1210.2542	1221.0043	1241.3762	1262.3341	1322.8559	1351.2866	1387.9372	1400.0089	1417.7403	1451.9022	1477.7789	1487.5812	1499.3863	1509.2984	1828.2567	3036.8813	3046.6443	3067.354	3096.2461	3108.0333	3120.0381	3122.2672	3125.5741	3155.6844	3476.2314	3792.7564
CC(C)(O)C1CC(=N)O1	CC(C)(O)[C@H]1C[C]([NH])O1	
InChI=1S/C6H11NO2/c1-6(2,8)4-3-5(7)9-4/h4,7-8H,3H2,1-2H3	InChI=1S/C6H11NO2/c1-6(2,8)4-3-5(7)9-4/h4,7-8H,3H2,1-2H3/t4-/m1/s1
