18
gdb 62389	2.52114	1.83098	1.35511	4.7123	75.25	-0.2562	0.0227	0.279	987.534	0.148887	-401.93914	-401.931399	-401.930454	-401.971053	30.389	
C	-0.1542880384	 1.5427449035	 0.0261171939	-0.471905
C	-0.008318994	 0.0153653119	 0.0124999988	 0.151436
C	-1.3104825274	-0.580565049	 0.3018157345	 0.251184
N	-2.3574634237	-1.0202445459	 0.5197935262	-0.352606
C	 0.806107269	-0.6146204432	-1.1946862794	-0.100141
C	 2.1007382452	-0.2192717093	-0.4163775222	-0.259044
C	 1.2111374936	-0.6197070016	 0.7823311956	 0.080748
O	 1.0230512235	-2.0218460298	 0.5957149189	-0.269526
C	 0.7405377478	-2.1013806488	-0.828517384	-0.099324
H	 0.7852696948	 2.0540682725	-0.1847239706	 0.128773
H	-0.8868286411	 1.8577528046	-0.7227057991	 0.142635
H	-0.5133451865	 1.8800540243	 1.0027676808	 0.142876
H	 0.6106294299	-0.3257868324	-2.226156498	 0.088722
H	 2.9842408254	-0.8397901463	-0.5756544156	 0.113687
H	 2.3610561022	 0.8346113842	-0.4751590901	 0.113797
H	 1.4287486214	-0.4026475063	 1.8264859701	 0.096184
H	-0.2409002447	-2.5581694849	-0.9839866742	 0.133791
H	 1.5075528334	-2.6993945134	-1.3319318056	 0.108715
144.7394	156.8611	174.1098	264.6348	310.6881	372.5211	450.8463	490.7149	529.083	578.5298	626.1166	721.4935	811.5632	848.8242	883.4311	911.7181	925.1334	950.2957	976.119	988.109	1026.1346	1075.0607	1093.7892	1118.7929	1144.188	1165.3767	1199.2427	1216.2452	1232.3561	1259.8351	1262.9129	1294.4065	1367.208	1418.1634	1488.8155	1491.0102	1512.5266	1527.5078	2348.6885	3042.8452	3051.5956	3093.4072	3095.9627	3114.2553	3135.7693	3141.7989	3146.1326	3174.1563
CC1(C#N)C2CC1OC2	C[C@@]1(C#N)[C@H]2C[C@@H]1OC2	
InChI=1S/C7H9NO/c1-7(4-8)5-2-6(7)9-3-5/h5-6H,2-3H2,1H3	InChI=1S/C7H9NO/c1-7(4-8)5-2-6(7)9-3-5/h5-6H,2-3H2,1H3/t5-,6-,7+/m0/s1
