20
gdb 85818	1.9999	1.4852	1.35554	3.5119	78.58	-0.2699	0.0251	0.295	1125.9646	0.169743	-403.162714	-403.153029	-403.152085	-403.196659	36.243	
C	-0.454987618	 1.4200735157	-0.0242556186	-0.425599
C	-0.1040032283	-0.0660680199	-0.023808884	-0.028983
C	 1.1127896755	-0.4578596801	-0.9112413353	-0.275991
C	 2.0297627375	-0.5578839336	 0.3592139712	 0.095128
C	 2.9464733744	-1.7762260966	 0.4915483734	-0.461802
C	 2.7712784724	 0.6756512671	 0.593178513	 0.262098
N	 3.3233483588	 1.6676401602	 0.8200371376	-0.359517
C	 0.7014376115	-0.5557424681	 1.2216195137	 0.117788
O	 0.6571784888	 0.1422049819	 2.426847035	-0.420805
H	 0.4286806263	 2.0564064352	 0.0905502617	 0.136423
H	-0.9347308083	 1.6979263181	-0.9680267578	 0.121993
H	-1.1489843236	 1.653683456	 0.7890916707	 0.129508
H	-1.008676988	-0.6508510585	-0.2115654387	 0.078475
H	 1.0062290067	-1.4377305711	-1.3823290553	 0.110766
H	 1.4198207221	 0.2661257013	-1.6680549422	 0.1215
H	 3.758676807	-1.7449793844	-0.2408375812	 0.136692
H	 3.3892798359	-1.824329002	 1.490696369	 0.144494
H	 2.3695057321	-2.6906073096	 0.32477234	 0.123075
H	 0.4505935214	-1.5921712641	 1.4650959284	 0.096882
H	 0.9919644755	 1.0361446423	 2.2845820292	 0.297873
92.4911	130.2139	178.8821	208.5071	215.4213	239.9615	252.545	296.234	357.692	367.3513	418.4622	511.0572	572.1316	631.0272	649.5784	755.1089	808.1346	820.7355	892.3108	920.4676	947.9748	1014.2687	1050.1331	1084.1927	1125.3399	1140.8711	1178.0664	1198.1834	1212.5542	1248.9797	1275.5	1301.8801	1321.68	1371.5309	1409.856	1415.6244	1441.4002	1483.54	1489.6146	1495.9196	1500.0342	1506.6568	2336.4909	3036.3948	3039.1888	3057.9983	3068.5341	3077.2304	3105.6139	3109.7234	3114.0061	3117.7327	3128.6711	3784.7548
CC1CC(C)(C#N)C1O	C[C@H]1C[C@@](C)(C#N)[C@H]1O	
InChI=1S/C7H11NO/c1-5-3-7(2,4-8)6(5)9/h5-6,9H,3H2,1-2H3	InChI=1S/C7H11NO/c1-5-3-7(2,4-8)6(5)9/h5-6,9H,3H2,1-2H3/t5-,6-,7-/m0/s1
