17
gdb 6287	4.19538	1.11495	0.92352	5.6182	65.32	-0.2799	0.0255	0.3054	1218.8948	0.140667	-401.010349	-401.001421	-401.000477	-401.043956	32.342	
C	 0.0096700717	 1.5396360799	 0.0195510697	-0.41382
C	-0.0152772162	 0.0153782811	 0.0623600743	 0.115473
O	 0.6858830185	-0.4757382424	 1.2206530755	-0.430698
C	-1.4389368391	-0.5533422042	-0.0113407835	-0.224734
C	-1.4585303946	-2.0969260041	-0.0514832108	-0.0142
O	-0.9632742203	-2.6861109264	 1.1293445733	-0.432633
C	-2.8368786365	-2.5767162917	-0.2592397671	 0.286839
N	-3.9215819063	-2.9216516242	-0.4543969342	-0.318102
H	 1.0372920521	 1.9033530795	 0.1014057468	 0.135372
H	-0.4186821553	 1.9135232899	-0.9150039684	 0.131835
H	-0.5750009974	 1.9627267823	 0.8458089466	 0.118923
H	 0.5661823866	-0.3789789148	-0.780243162	 0.104659
H	 0.3392358954	-0.0135238178	 1.9935347303	 0.290861
H	-2.023573152	-0.217083305	 0.8538557368	 0.117375
H	-1.9329739178	-0.1666140217	-0.9094925259	 0.124807
H	-0.8767512242	-2.4242856737	-0.9318277146	 0.111026
H	-0.1675183646	-2.1777290467	 1.3567641834	 0.297017
64.7017	127.442	137.2185	236.6991	250.3837	289.2707	321.104	332.4004	383.1982	461.9381	501.6038	568.4378	592.4228	645.5775	838.5191	873.0648	930.959	938.0892	991.3679	1066.9829	1077.0836	1129.6668	1151.8971	1206.7716	1285.4029	1312.7089	1334.9966	1357.2338	1387.6767	1407.9202	1419.5624	1462.7759	1487.6156	1492.4171	1496.027	2366.5882	2944.6703	3029.0806	3032.7747	3043.9754	3086.8777	3103.5112	3125.3296	3661.9533	3789.5838
CC(O)CC(O)C#N	C[C@@H](O)C[C@@H](O)C#N	
InChI=1S/C5H9NO2/c1-4(7)2-5(8)3-6/h4-5,7-8H,2H2,1H3	InChI=1S/C5H9NO2/c1-4(7)2-5(8)3-6/h4-5,7-8H,2H2,1H3/t4-,5-/m1/s1
