16
gdb 5070	3.28231	1.98808	1.25728	1.6174	68.17	-0.1824	0.0394	0.2218	939.2789	0.130847	-379.94572	-379.937202	-379.936258	-379.978614	30.963	
C	-0.1519553949	 1.5775167668	 0.098836771	-0.523692
C	-0.0251829745	 0.0897090275	 0.0369198753	 0.196331
C	 0.0152542284	-0.6893807754	-1.0801844548	 0.215915
N	-0.0168962333	-0.3387807615	-2.4338217775	-0.596928
O	 0.0889195642	-2.010309675	-0.7505437922	-0.177261
C	 0.1016983977	-2.0773379722	 0.621971137	-0.10819
C	 0.0412756225	-0.8243142162	 1.15108285	 0.129227
N	-0.0583763268	-0.4385381001	 2.4971875972	-0.606062
H	 0.770210763	 2.0640619046	 0.4445164046	 0.113122
H	-0.3824833156	 1.975497825	-0.8927424227	 0.139301
H	-0.9505280226	 1.8787285959	 0.7868055687	 0.129897
H	 0.9114706198	-0.2304319845	-2.8318321766	 0.245803
H	-0.5076834374	-1.0392255743	-2.9793534998	 0.244956
H	 0.119248301	-3.0654142978	 1.0496877632	 0.11469
H	 0.2062393058	-1.1762911328	 3.1373689107	 0.240201
H	 0.488756843	 0.388223	 2.7035743159	 0.242691
61.478	156.7627	181.5735	212.7493	229.9063	281.2707	302.6496	370.2239	509.5548	577.2313	612.8405	644.2578	680.3259	712.094	752.163	785.0265	804.1458	941.0716	1067.8114	1079.2505	1108.8742	1158.6637	1181.2672	1226.2005	1294.0839	1329.7227	1411.8766	1462.8992	1487.3958	1499.7779	1615.3974	1646.8422	1658.4191	1714.1995	3011.2843	3062.2096	3117.2865	3276.7459	3490.6728	3528.7806	3571.626	3618.6189
CC1=C(N)OC=C1N	Cc1c(N)occ1N	
InChI=1S/C5H8N2O/c1-3-4(6)2-8-5(3)7/h2H,6-7H2,1H3	InChI=1S/C5H8N2O/c1-3-4(6)2-8-5(3)7/h2H,6-7H2,1H3
