17
gdb 69107	2.62716	1.59348	1.23253	1.467	74.97	-0.2488	0.0284	0.2771	1035.888	0.13455	-421.778496	-421.769999	-421.769055	-421.811357	32.479	
O	-0.0003180754	 1.3619185039	-0.1132629173	-0.469533
C	 0.0054471085	-0.0180945116	-0.0092647032	 0.348322
C	-0.3251984759	-0.8910734738	-1.1811648922	-0.366333
C	-1.2768580016	-0.8552546178	 0.0172632279	 0.079524
C	-1.0217501113	-1.9258603096	 1.0754071597	-0.149055
O	 0.3910274173	-1.9524659598	 1.2512603078	-0.257327
C	 0.8901347655	-0.6332838798	 1.0626102212	-0.132649
C	-2.533151106	-0.1884237458	-0.0695204925	 0.162608
C	-3.5547463067	 0.4492792683	-0.1127012241	-0.403629
H	-0.9031812412	 1.6744478419	 0.0342933144	 0.291161
H	-0.6666625798	-0.3829052673	-2.0747766485	 0.129938
H	 0.2393860964	-1.8048526392	-1.3368646129	 0.130089
H	-1.5436423734	-1.6553476437	 2.0059415282	 0.103226
H	-1.3318038878	-2.9312792096	 0.7758233956	 0.118086
H	 1.9438125929	-0.7193983084	 0.7809233471	 0.1185
H	 0.8144594546	-0.0230459296	 1.9763266253	 0.100354
H	-4.478128446	 0.970666612	-0.1715655466	 0.196719
101.2902	113.9797	176.2858	235.125	259.5155	351.0617	388.8251	424.9052	493.7061	528.6337	581.055	596.586	625.0131	665.0733	714.8553	745.9156	879.6554	930.0216	939.3063	958.3907	1044.2176	1063.0672	1079.6468	1101.3428	1143.6684	1208.5846	1226.3606	1242.8784	1266.9371	1335.1069	1340.7671	1401.8537	1410.5638	1468.0988	1507.9135	1521.0066	2224.8434	2986.7558	2992.7342	3082.56	3085.1075	3134.9307	3237.5235	3500.0084	3744.8624
OC12CC1(COC2)C#C	O[C@]12C[C@]1(COC2)C#C	
InChI=1S/C7H8O2/c1-2-6-3-7(6,8)5-9-4-6/h1,8H,3-5H2	InChI=1S/C7H8O2/c1-2-6-3-7(6,8)5-9-4-6/h1,8H,3-5H2/t6-,7-/m0/s1
