18
gdb 65051	2.30615	1.50258	1.24083	2.2427	77.67	-0.2476	0.0251	0.2727	1099.9514	0.145122	-401.863514	-401.854428	-401.853484	-401.897167	34.404	
C	 0.055556489	 0.7539149917	-1.3224129127	-0.478694
C	 0.0059875712	-0.0247787765	-0.0245288569	 0.209193
C	 1.2446582884	-0.6409641621	 0.5154411471	-0.269786
N	 0.6460976937	 0.5365254372	 1.1727789607	-0.348756
C	-1.3200599376	-0.7084647548	 0.2312643151	 0.188983
C	-1.9332314525	-0.6893680288	 1.5741423973	-0.216252
O	-2.4062918306	 0.1836208795	 0.5503479631	-0.281861
C	-1.6461956144	-1.7787101016	-0.6847131174	 0.308163
C	-1.8846013735	-2.6677896503	-1.4579552656	-0.427655
H	 1.0484080478	 1.1866964426	-1.4802840248	 0.109982
H	-0.1748523444	 0.1072218874	-2.1745016223	 0.139544
H	-0.6806929792	 1.5640297033	-1.305656081	 0.141776
H	 1.1910420844	-1.559108261	 1.0936641171	 0.120887
H	 2.1619846854	-0.5159961676	-0.0540400653	 0.114572
H	 1.1569341687	 1.3796269747	 0.9229147112	 0.232274
H	-2.6121290153	-1.494597113	 1.8493585795	 0.116026
H	-1.3790312797	-0.2103876615	 2.3763511997	 0.143609
H	-2.1080099312	-3.4535547791	-2.1368183648	 0.197997
59.408	132.0964	178.5781	219.471	239.0669	271.4712	320.4151	371.0432	421.505	491.7353	531.4917	587.6229	597.4656	623.5964	660.3195	806.1219	854.4923	871.7918	898.2064	935.2432	958.8548	981.994	1006.1195	1057.1045	1118.3554	1138.5326	1151.4514	1171.0144	1193.653	1263.4713	1315.4273	1363.7825	1399.6761	1411.3857	1481.3151	1501.5036	1505.5869	1515.5432	2236.8321	3035.2732	3096.4968	3107.6546	3109.1947	3110.6308	3194.6176	3203.5588	3500.5026	3500.6165
CC1(CN1)C1(CO1)C#C	C[C@]1(CN1)[C@]1(CO1)C#C	
InChI=1S/C7H9NO/c1-3-7(5-9-7)6(2)4-8-6/h1,8H,4-5H2,2H3	InChI=1S/C7H9NO/c1-3-7(5-9-7)6(2)4-8-6/h1,8H,4-5H2,2H3/t6-,7+/m0/s1
