18
gdb 40328	4.33848	1.28929	1.26563	1.8176	78.32	-0.2081	0.0683	0.2764	1057.2774	0.147938	-364.670614	-364.663522	-364.662577	-364.702484	28.483	
C	-0.1244196529	 0.6301387209	-0.762104726	-0.268597
C	 0.460471394	 1.583758768	 0.2475284661	-0.273448
C	 0.6435179039	 0.0934812255	 0.4229283087	-0.145498
C	-0.0580517371	-0.616227496	 1.5068790668	 0.403307
C	-1.4979615317	-0.4929077183	 2.0861262357	-0.183593
C	-1.0091610876	-1.1571305966	 3.3812072128	-0.10863
C	-1.4991151645	-1.9917067729	 2.2278835058	-0.006828
N	-0.0986888609	-2.1247475948	 1.6345551076	-0.229628
C	 0.407334241	-1.2610369932	 2.767618389	-0.124223
H	-1.2006886707	 0.4948388687	-0.7682198208	 0.116475
H	 0.3381359712	 0.560974942	-1.7400181241	 0.115928
H	 1.3256431256	 2.1736238474	-0.0333677719	 0.11476
H	-0.2232461983	 2.0912007463	 0.9200426707	 0.114332
H	 1.6333657271	-0.304898132	 0.2190286249	 0.09276
H	-2.3061430954	 0.2108259348	 1.944893649	 0.095549
H	-1.3823876376	-1.0413273344	 4.3885300094	 0.096178
H	-2.2829520378	-2.7332465382	 2.1373834344	 0.098467
H	 1.3966591216	-1.3891684171	 3.1919136519	 0.09269
67.3914	152.7992	156.6992	372.6371	402.5157	569.1688	670.7429	733.8861	762.826	780.9925	783.0207	813.6596	823.4427	857.3917	866.5725	895.4832	916.5597	932.1133	943.8521	991.8672	996.6727	1001.0206	1027.0434	1034.0447	1061.8552	1068.8083	1077.4668	1125.3618	1154.7836	1189.7135	1197.0647	1216.8724	1241.4753	1271.0219	1335.7464	1344.3911	1468.1741	1470.5449	1508.2739	3132.5367	3137.2742	3149.8006	3174.3473	3186.686	3210.3695	3211.5652	3223.9491	3226.9565
C1CC1C12C3C4C3N1C24	C1CC1[C@@]12[C@@H]3[C@H]4[C@@H]3N1[C@@H]24	
InChI=1S/C8H9N/c1-2-3(1)8-5-4-6(5)9(8)7(4)8/h3-7H,1-2H2	InChI=1S/C8H9N/c1-2-3(1)8-5-4-6(5)9(8)7(4)8/h3-7H,1-2H2/t4-,5+,6-,7+,8-,9?/m0/s1
