19
gdb 78425	5.1527	1.29581	1.26919	1.1261	79.7	-0.2187	0.079	0.2977	1057.1977	0.161581	-381.95961	-381.952888	-381.951944	-381.990297	28.249	
C	-0.0744743349	 1.442099937	-0.0223374319	-0.317138
N	 0.0358865709	-0.011309107	 0.0346661145	-0.103114
C	 1.3982919054	-0.5289646943	-0.1881576301	-0.044743
C	 0.8147000771	-0.5196505641	 1.1786922579	-0.044739
C	 0.6346401404	-2.007302063	 1.4064753983	-0.006502
C	 0.1450034124	-2.6860331668	 0.0994800359	-0.063131
C	 1.0405335554	-3.867440909	 0.4898755367	-0.191192
N	 1.93514835	-2.6855575921	 0.8637954471	-0.170318
C	 1.4309410312	-2.0200096043	-0.4585823123	-0.006499
H	 0.8158622291	 1.9739492268	 0.3540953672	 0.099999
H	-0.2414392453	 1.747763836	-1.0599554335	 0.125352
H	-0.9377476451	 1.7588669441	 0.5712772437	 0.125352
H	 2.1879772545	 0.1432854696	-0.5040095182	 0.093456
H	 1.1360673358	 0.160070709	 1.9597099445	 0.093455
H	 0.306015617	-2.3707300653	 2.3811134274	 0.071755
H	-0.8601028094	-2.6763083019	-0.329728456	 0.072782
H	 0.7442924169	-4.4802054235	 1.3463928826	 0.096734
H	 1.4512300565	-4.4914766458	-0.3093550441	 0.096734
H	 1.905768172	-2.3962602755	-1.3657581899	 0.071755
186.0712	221.6719	266.004	372.1961	387.9292	468.0167	495.1461	709.4245	731.4875	775.9476	785.0214	816.9748	824.9393	871.9345	885.3209	915.0742	927.7368	981.2535	988.8234	1026.9	1051.3952	1055.9003	1108.1935	1111.8623	1124.9089	1128.3062	1138.8785	1161.7001	1186.7325	1222.9075	1224.1441	1240.7241	1266.2915	1284.4145	1325.5403	1347.4431	1393.484	1455.4464	1493.935	1498.8487	1530.554	2960.6992	3044.5996	3067.7457	3072.3594	3103.9385	3105.2772	3109.0641	3112.4009	3175.332	3184.9913
CN1C2C1C1C3CN1C23	CN1[C@H]2[C@@H]1[C@H]1[C@@H]3CN1[C@H]23	
InChI=1S/C7H10N2/c1-8-6-4-3-2-9(4)5(3)7(6)8/h3-7H,2H2,1H3	InChI=1S/C7H10N2/c1-8-6-4-3-2-9(4)5(3)7(6)8/h3-7H,2H2,1H3/t3-,4+,5-,6-,7+,8?
