18
gdb 123863	3.45145	1.60229	1.14478	3.7635	76.51	-0.2468	0.0175	0.2643	1049.3515	0.153254	-398.184662	-398.177816	-398.176872	-398.21599	26.95	
C	-0.0181823898	 1.5054473245	-0.0351657898	-0.21865
C	 1.4038696345	 2.0852800412	 0.0133311675	-0.210975
C	 2.0923438863	 1.7325307318	 1.3439780976	-0.32048
C	 1.8816852054	 0.2917268388	 1.6861810681	 0.384122
N	 2.5377644309	-0.4520214058	 2.5649755694	-0.345354
C	 1.91070597	-1.6545958514	 2.4638573922	 0.018856
N	 0.9185072604	-1.7080202767	 1.5889188719	-0.265655
N	 0.9094556752	-0.4424325249	 1.1003060307	 0.004111
C	 0.0053012581	-0.0245542954	 0.0408672099	-0.140232
H	-0.6045724964	 1.9035965019	 0.8021123918	 0.11489
H	-0.5300092053	 1.8033523696	-0.955054399	 0.11191
H	 1.9889352941	 1.6821656513	-0.8229631483	 0.111012
H	 1.3766889659	 3.1713061814	-0.1144330221	 0.107803
H	 3.1653844966	 1.9408779487	 1.310308494	 0.134957
H	 1.6839398308	 2.3536684364	 2.1521984231	 0.129251
H	 2.1908571647	-2.5163118883	 3.0517020641	 0.120958
H	-0.9838648442	-0.4378328893	 0.2527302951	 0.136004
H	 0.3474738126	-0.4553363938	-0.9082535062	 0.127473
107.5681	184.7189	281.4333	313.1619	383.0047	454.2633	504.7681	668.6767	677.1466	708.5548	721.6668	833.1596	866.1392	907.5419	933.4317	954.429	976.0373	994.8987	1071.515	1114.0031	1148.8073	1178.3776	1192.8906	1217.3033	1265.7396	1276.6908	1299.2979	1307.3389	1344.3066	1368.3133	1378.889	1382.2843	1441.5048	1473.476	1490.2698	1492.6853	1504.6389	1534.4122	1563.6623	3023.8186	3029.9451	3032.8995	3039.9598	3086.8757	3089.7135	3092.8646	3101.6356	3255.9716
C1CCC2=NC=NN2C1	C1CCc2ncnn2C1	
InChI=1S/C6H9N3/c1-2-4-9-6(3-1)7-5-8-9/h5H,1-4H2	InChI=1S/C6H9N3/c1-2-4-9-6(3-1)7-5-8-9/h5H,1-4H2
