16
gdb 33178	3.0288	1.25809	0.94635	4.6681	66.49	-0.2095	0.0284	0.2378	1193.8239	0.124661	-475.066217	-475.057843	-475.056899	-475.100151	30.186	
O	-0.2054910505	 1.5320352339	 0.3122255247	-0.416338
C	 0.0743266551	 0.1712772614	 0.0142693589	-0.075765
C	-1.2551244023	-0.5549324348	-0.1382676074	-0.168353
N	-2.0076987716	-0.1323814645	-1.3025390352	-0.126217
C	-2.5971790816	 1.1114960215	-1.5413990972	-0.121174
C	-3.2150386716	 1.0201139031	-2.7238130328	-0.043736
O	-3.039854117	-0.2452444584	-3.2470560495	-0.215909
C	-2.2826364318	-0.9784699388	-2.3583105133	 0.487839
O	-1.9548610427	-2.1261106436	-2.5180771948	-0.418654
H	 0.6127431028	 2.0334816565	 0.2554689703	 0.294933
H	 0.6545007259	 0.071389328	-0.9140719988	 0.109784
H	 0.6437187229	-0.3071020077	 0.8261047837	 0.099257
H	-1.08368101	-1.6271221248	-0.260478547	 0.152831
H	-1.8536892488	-0.3966048858	 0.7664492498	 0.126911
H	-2.4868686226	 1.9288744917	-0.8521973424	 0.163601
H	-3.7870786662	 1.7143485823	-3.3126109087	 0.150991
43.8145	109.3632	131.6791	242.6509	251.6178	264.5311	344.6775	462.1945	550.2683	595.2116	651.6086	686.9923	768.5798	786.0083	798.6032	885.1797	909.5561	956.6102	1038.0051	1064.9556	1094.6366	1112.3155	1137.5302	1192.5483	1258.1907	1277.6889	1288.38	1378.321	1402.5375	1435.3726	1456.2482	1475.4202	1513.1951	1654.0837	1868.8849	2983.969	3023.6596	3047.5045	3120.9901	3297.3793	3320.8096	3838.2412
OCCN1C=COC1=O	OCCn1ccoc1=O	
InChI=1S/C5H7NO3/c7-3-1-6-2-4-9-5(6)8/h2,4,7H,1,3H2	InChI=1S/C5H7NO3/c7-3-1-6-2-4-9-5(6)8/h2,4,7H,1,3H2
