25
gdb 41896	1.95214	1.85585	1.592	0.0655	89.79	-0.2824	0.0655	0.3478	1074.7019	0.235094	-352.390339	-352.382412	-352.381468	-352.422868	32.912	
C	-0.0217771778	 1.533747784	 0.098460275	-0.202343
C	 1.3973543362	 2.1515866449	-0.0234436578	-0.202342
C	 2.5090892522	 1.1049364164	-0.2333499501	 0.025041
C	 2.4068256698	 0.0144111951	 0.8532811839	-0.210174
C	 0.9811375392	-0.6064087727	 0.9753605129	-0.210182
C	-0.0364671894	-0.0032412849	-0.0151658726	 0.025037
C	 0.1662659794	-0.5080273965	-1.4662220104	-0.198392
C	 1.6272495243	-0.6959005675	-1.8956757797	-0.186167
C	 2.53261822	 0.5219324562	-1.6689533617	-0.198388
H	-0.4531514579	 1.8070236612	 1.0686864603	 0.088153
H	-0.6934953446	 1.9566978728	-0.656656492	 0.088752
H	 1.4320747486	 2.8817804642	-0.8394727859	 0.088753
H	 1.6270963555	 2.7130715088	 0.889821313	 0.088155
H	 3.4642055838	 1.6257696316	-0.0923759104	 0.058435
H	 3.1490352034	-0.767914027	 0.6596358645	 0.091256
H	 2.6886184527	 0.4625838617	 1.8129039575	 0.088999
H	 1.0246528239	-1.6929298702	 0.8412620823	 0.091258
H	 0.6034094761	-0.4457201358	 1.9915488027	 0.088994
H	-1.0360746595	-0.3334198936	 0.2933023108	 0.058434
H	-0.3449537984	-1.472359415	-1.578688388	 0.087249
H	-0.33925312	 0.1821709569	-2.1548275128	 0.085539
H	 2.0464756081	-1.5522718394	-1.3530231772	 0.095641
H	 1.6590257779	-0.9774586471	-2.9551412555	 0.085511
H	 2.2713607222	 1.3183490518	-2.3785749596	 0.085539
H	 3.5610639442	 0.2276907638	-1.9131933992	 0.087243
41.2383	226.1457	253.021	286.5344	332.0617	387.1476	387.607	453.7327	521.5322	632.9894	720.9784	760.9512	785.6146	802.9168	841.3252	850.4956	862.2799	917.0258	939.7118	942.5178	952.6967	1011.0259	1034.613	1046.4296	1068.773	1091.6775	1129.392	1152.414	1171.4281	1199.4905	1222.5955	1241.7569	1249.0495	1268.4902	1294.9097	1315.7173	1335.3926	1341.4798	1353.6426	1362.4564	1370.2653	1383.0291	1393.3708	1397.6515	1399.1718	1403.903	1480.845	1484.5833	1487.3913	1495.2561	1496.2587	1502.6592	1518.6842	3005.0413	3005.8136	3013.5124	3016.8745	3019.8788	3020.4978	3030.646	3033.8355	3041.9936	3044.7675	3049.4897	3049.5347	3049.6922	3060.806	3073.2924	3076.18
C1CC2CCC1CCC2	C1C[C@H]2CC[C@@H]1CCC2	
InChI=1S/C9H16/c1-2-8-4-6-9(3-1)7-5-8/h8-9H,1-7H2	InChI=1S/C9H16/c1-2-8-4-6-9(3-1)7-5-8/h8-9H,1-7H2/t8-,9+
