18
gdb 96988	3.85252	1.2175	1.07912	2.2285	80.19	-0.2427	0.0072	0.2499	1171.6151	0.148794	-401.957537	-401.949599	-401.948655	-401.990427	29.692	
C	 0.0225004038	 1.4496405043	 0.3367816383	-0.338686
N	-0.0562257669	 0.0024350345	 0.4827693231	-0.333556
C	-1.0387807861	-0.6059609425	 0.0102278039	 0.47027
O	-2.1567327515	-0.1347404397	-0.6702925602	-0.284496
C	-2.7629790303	-1.468371788	-0.6925988802	 0.113183
C	-2.8900283311	-2.0465346019	-2.1058682981	-0.279518
C	-1.6010320502	-2.8183707898	-2.2813776575	-0.060056
C	-0.8541628857	-2.8433299037	-1.1768195029	-0.074777
C	-1.4785203289	-2.0602299359	-0.0499821924	-0.235446
H	 0.8824851035	 1.7009149411	-0.2945157502	 0.127069
H	-0.874664798	 1.9052624999	-0.0984237634	 0.12502
H	 0.2060293062	 1.8979506248	 1.3190237443	 0.124889
H	-3.6835896606	-1.4659731242	-0.1069561375	 0.092604
H	-3.7720064452	-2.6924903679	-2.2037589771	 0.111954
H	-3.0073523107	-1.2376416334	-2.8369888568	 0.128448
H	-1.3333700672	-3.2905187894	-3.2201602659	 0.101309
H	 0.1102667799	-3.3259662755	-1.0763957314	 0.109822
H	-1.5332365607	-2.5801169726	 0.908187754	 0.101966
89.5065	96.7645	157.176	196.5735	271.1152	365.3928	421.0639	491.3414	661.17	684.7106	750.4529	770.6554	805.2902	850.1138	875.8923	943.9043	964.7078	974.4966	1003.7167	1013.8919	1026.9138	1066.8541	1113.0895	1128.8693	1132.6562	1178.0205	1181.0635	1209.5067	1263.016	1277.9318	1327.337	1337.1077	1379.6816	1439.3494	1466.1081	1493.6082	1498.6574	1675.3483	1845.5835	3016.4833	3025.4841	3063.1799	3080.924	3087.9605	3095.4388	3105.492	3190.7633	3218.4793
CN=C1OC2CC=CC12	CN=C1O[C@H]2CC=C[C@@H]12	
InChI=1S/C7H9NO/c1-8-7-5-3-2-4-6(5)9-7/h2-3,5-6H,4H2,1H3	InChI=1S/C7H9NO/c1-8-7-5-3-2-4-6(5)9-7/h2-3,5-6H,4H2,1H3/t5-,6+/m1/s1
