16
gdb 117914	1.93738	1.3956	0.87238	2.767	67.72	-0.2778	-0.0994	0.1784	1294.4164	0.120908	-475.019139	-475.009129	-475.008184	-475.055487	33.638	
C	 0.9355664352	 1.1798044975	-0.1468436548	-0.233249
O	 0.9503178237	-0.2250428712	-0.288046067	-0.228149
C	-0.1251821291	-0.7244433304	-1.0354856325	-0.091761
C	 0.0624161435	-2.2464090479	-1.1872888182	 0.012352
O	-1.1084278695	-2.815501408	-1.6930211988	-0.428566
C	 1.2302621039	-2.5775792209	-2.1055925185	 0.264362
O	 1.0586550733	-3.1756469072	-3.1439374033	-0.293965
C	 2.5807281519	-2.1774622315	-1.6989240143	 0.282484
N	 3.6686523998	-1.9169952019	-1.4071394121	-0.303132
H	 0.9872834919	 1.6845160523	-1.1230368697	 0.114538
H	 0.0290631132	 1.5215184136	 0.374707491	 0.11374
H	 1.8125858471	 1.453022807	 0.4427903576	 0.142635
H	-1.0902097597	-0.5641325752	-0.5310144447	 0.119161
H	-0.1886223408	-0.2530086881	-2.0304028335	 0.102494
H	 0.3028760226	-2.6464530754	-0.1889450202	 0.123933
H	-0.871504287	-3.2389660927	-2.5326053208	 0.303122
31.7727	67.7189	100.9229	147.523	182.1081	215.1173	231.7806	309.2896	341.3027	371.0246	411.718	449.0765	530.0611	605.8323	735.1393	801.2823	993.3942	1023.6313	1073.6214	1097.0258	1162.2512	1172.9299	1181.8931	1224.4614	1233.7871	1289.8973	1319.3358	1401.33	1433.9422	1480.9966	1486.843	1501.8917	1528.1106	1768.4075	2342.7462	2966.4828	2984.2285	2988.6261	3014.3774	3034.3968	3130.9768	3705.1547
COCC(O)C(=O)C#N	COC[C@@H](O)C(=O)C#N	
InChI=1S/C5H7NO3/c1-9-3-5(8)4(7)2-6/h5,8H,3H2,1H3	InChI=1S/C5H7NO3/c1-9-3-5(8)4(7)2-6/h5,8H,3H2,1H3/t5-/m1/s1
