20
gdb 101955	2.18611	1.2514	0.87946	3.6506	75.01	-0.2432	0.0626	0.3058	1340.9191	0.170107	-440.214486	-440.204889	-440.203945	-440.250151	34.38	
O	 0.1509603296	 1.5165534668	-0.0287425859	-0.420969
C	 0.1745370433	 0.0975987461	-0.0692534919	-0.117408
C	-1.274241958	-0.3883695557	 0.0204839679	-0.037586
C	-1.4746579184	-1.8753427988	-0.2514964037	 0.009164
C	-0.7679192961	-2.630485148	-1.3133062135	-0.26203
N	-0.4849976511	-2.9100743941	 0.1087922656	-0.32186
C	-1.8623270609	-0.0433748339	 1.3777113274	 0.101021
C	-2.564863172	 1.2158470079	 1.6288307881	-0.171913
O	-3.2890181293	-0.0066812992	 1.4535766708	-0.248758
H	 1.0584806121	 1.8338235186	-0.0474982662	 0.289827
H	 0.6391692703	-0.2588976613	-1.0003332915	 0.093874
H	 0.7629831595	-0.3066765783	 0.7712571339	 0.089455
H	-1.8491700522	 0.1671988364	-0.7316707887	 0.099252
H	-2.4933213146	-2.1857143385	-0.0279719617	 0.114572
H	-1.2855151867	-3.4266733377	-1.8412846538	 0.120784
H	-0.0111784976	-2.1241816368	-1.9059096473	 0.110324
H	 0.3995979586	-2.4798919112	 0.3666009271	 0.226911
H	-1.3883157396	-0.5464303226	 2.2238825265	 0.092673
H	-2.5900262647	 1.6325219347	 2.6345431704	 0.111618
H	-2.6593844122	 1.9390519354	 0.8215894066	 0.121046
39.3522	67.2797	102.3409	169.8849	192.19	233.8903	281.7718	309.1854	359.9961	428.8296	509.3964	577.5089	777.8116	819.5163	839.2715	872.3297	923.7688	938.4796	967.8581	978.6577	1008.8187	1056.8962	1084.8881	1102.2784	1139.0898	1145.6985	1158.7739	1165.0007	1182.0997	1201.1018	1249.9798	1253.6331	1264.0888	1295.3513	1303.808	1313.0004	1334.6669	1416.916	1446.845	1464.5906	1514.7046	1522.5911	1533.4898	2960.6741	3003.3434	3033.5352	3083.247	3092.0755	3110.6802	3130.036	3179.8459	3191.6811	3503.4598	3832.1992
OCC(C1CN1)C1CO1	OC[C@@H]([C@H]1CN1)[C@H]1CO1	
InChI=1S/C6H11NO2/c8-2-4(5-1-7-5)6-3-9-6/h4-8H,1-3H2	InChI=1S/C6H11NO2/c8-2-4(5-1-7-5)6-3-9-6/h4-8H,1-3H2/t4-,5+,6+/m0/s1
