15
gdb 23103	2.07838	1.74875	1.10222	3.8575	68.05	-0.2717	-0.0261	0.2457	1077.4516	0.112539	-453.910735	-453.902513	-453.901569	-453.943991	29.802	
O	-0.1477334871	 1.3271927782	-0.104134651	-0.385811
N	 0.048935706	-0.0554454166	-0.0172188427	-0.1943
C	-1.0592105746	-0.6674882779	 0.04802678	 0.369655
C	-1.2145789262	-2.1659504445	 0.1285709257	-0.315756
C	-2.7098726695	-2.2985044116	 0.461016341	-0.097861
O	-3.3292520538	-1.1605252726	-0.152928709	-0.243849
C	-2.4619180255	-0.0575729448	 0.0234841799	-0.115607
C	-2.7573022003	 0.6680960028	 1.2789285852	 0.298883
N	-3.0130614642	 1.2059229732	 2.2688155974	-0.328558
H	 0.7520051625	 1.6719062213	-0.1132667822	 0.317843
H	-0.9919932718	-2.6213822667	-0.842279747	 0.141198
H	-0.5567092865	-2.6150774669	 0.8750928789	 0.142609
H	-3.1825294557	-3.1877851897	 0.0422390784	 0.129332
H	-2.8777277998	-2.2823460787	 1.5467346598	 0.124008
H	-2.5875362934	 0.6336220845	-0.8153072944	 0.158213
65.2488	131.5108	152.2096	226.9829	276.3889	295.4115	378.5527	438.6028	494.9805	560.0432	603.8029	656.529	689.9337	855.4839	875.6198	941.7278	952.6525	974.6607	1001.0273	1069.6244	1095.0167	1196.0657	1213.1983	1240.8392	1260.1703	1304.124	1331.9669	1380.8563	1411.4451	1470.4425	1517.6466	1768.1266	2356.2271	3016.7569	3054.5153	3077.2388	3117.6748	3128.3551	3817.3546
ON=C1CCOC1C#N	ON=C1CCO[C@H]1C#N	
InChI=1S/C5H6N2O2/c6-3-5-4(7-8)1-2-9-5/h5,8H,1-2H2	InChI=1S/C5H6N2O2/c6-3-5-4(7-8)1-2-9-5/h5,8H,1-2H2/t5-/m0/s1
