17
gdb 52309	5.34894	0.79234	0.71652	3.1281	71.07	-0.2505	0.0065	0.257	1500.7645	0.137802	-455.182633	-455.174196	-455.173252	-455.217442	29.493	
O	-0.0261724136	 0.1119400265	 0.6478437492	-0.326812
C	-0.0010001894	 1.2062110377	 0.1233090978	 0.154554
N	 1.0685484984	 1.7456265212	-0.5170720191	-0.272333
C	 2.3563017526	 1.0893465353	-0.5983658762	-0.161642
C	 3.4732543661	 2.0240812717	-0.123333682	 0.005969
C	 4.8993775808	 1.4469933076	-0.3152507591	-0.127051
O	 5.5680296012	 2.4250177825	-1.1527348221	-0.216166
C	 4.6344110564	 3.3617558196	-1.4249939243	 0.129075
N	 3.4718261541	 3.2652531083	-0.9299140037	-0.288378
H	-0.8722532375	 1.890383183	 0.1114142136	 0.075682
H	 1.0117318021	 2.685215347	-0.8797286887	 0.263326
H	 2.3002575281	 0.1923472	 0.0234286461	 0.147247
H	 2.5679805464	 0.7760944604	-1.6304262404	 0.109603
H	 3.2801793934	 2.2903592828	 0.9218417888	 0.103236
H	 5.4645655499	 1.3508723219	 0.6138220289	 0.130471
H	 4.9084326178	 0.4872815107	-0.8421821416	 0.124845
H	 4.9777726533	 4.1584732638	-2.0757907272	 0.148373
36.6651	77.0022	83.5736	179.2564	237.718	307.2878	377.7098	412.0132	587.1691	595.9538	715.4988	774.4819	858.9093	888.3358	923.302	959.4831	970.6126	996.4851	1033.6667	1062.8069	1085.9361	1133.3407	1145.0155	1217.6445	1222.5338	1259.7117	1309.4031	1324.7206	1331.4422	1384.0737	1400.9029	1428.9174	1495.5355	1517.8924	1528.2812	1705.7052	1802.5883	2940.4414	3006.5404	3045.4745	3053.7825	3111.5903	3113.7432	3216.5135	3628.2363
O=CNCC1COC=N1	O=CNC[C@H]1COC=N1	
InChI=1S/C5H8N2O2/c8-3-6-1-5-2-9-4-7-5/h3-5H,1-2H2,(H,6,8)	InChI=1S/C5H8N2O2/c8-3-6-1-5-2-9-4-7-5/h3-5H,1-2H2,(H,6,8)/t5-/m0/s1
