19
gdb 19907	4.43069	1.4999	1.35156	1.7418	74.69	-0.2037	0.0729	0.2766	994.6278	0.165826	-327.830471	-327.822966	-327.822022	-327.862887	29.339	
C	-0.2847811752	 1.5892566191	-0.1463424536	-0.40162
C	 0.1703460143	 0.1688521954	 0.213226107	-0.1625
C	 0.8608308821	-0.5110583793	-0.9730044869	-0.003095
C	 2.1018367617	-1.3723761727	-1.0258755915	-0.093166
C	 2.165765184	-2.5110730159	 0.0304370241	-0.055605
N	 0.9826372722	-2.4241974773	 0.9264036662	-0.332598
C	 0.8678423658	-3.0418895801	-0.4209413806	-0.055597
C	 0.7504531069	-1.9250203037	-1.4957971817	-0.093179
H	 0.5640045716	 2.217754799	-0.4404030018	 0.109423
H	-0.9938737917	 1.5813760961	-0.9824320304	 0.109417
H	-0.7780339122	 2.073947268	 0.70228574	 0.105992
H	 0.846730591	 0.2011831441	 1.0704052526	 0.10701
H	-0.6872806359	-0.4254572554	 0.5366353021	 0.106979
H	 0.8893177475	 0.1548688973	-1.8381590576	 0.083836
H	 2.9605926191	-1.1113360284	-1.6323377207	 0.083776
H	 3.066092895	-3.0262370322	 0.3385449088	 0.090737
H	 1.064215946	-3.1914833284	 1.5941434494	 0.225678
H	 0.5311167571	-4.062975793	-0.5430619207	 0.090737
H	 0.4375725106	-2.1430743828	-2.5096798647	 0.083774
29.6458	190.0679	198.979	270.4821	319.9906	406.608	490.2759	660.5049	705.6163	707.4942	726.7506	783.6552	825.3575	845.5672	874.5192	903.1123	912.334	934.0331	989.3034	994.3642	1025.3662	1038.8975	1074.1309	1089.357	1120.2473	1121.9388	1145.5869	1204.8863	1252.7013	1261.8559	1290.7828	1318.2325	1327.8802	1349.0348	1380.5814	1407.6076	1444.666	1476.168	1499.6812	1505.1866	3022.6516	3070.3142	3078.3035	3083.1434	3099.4979	3113.5312	3174.8267	3185.2562	3192.3174	3205.5677	3460.4219
CCC1C2C3NC3C12	CC[C@H]1[C@H]2[C@H]3N[C@H]3[C@@H]12	
InChI=1S/C7H11N/c1-2-3-4-5(3)7-6(4)8-7/h3-8H,2H2,1H3	InChI=1S/C7H11N/c1-2-3-4-5(3)7-6(4)8-7/h3-8H,2H2,1H3/t3-,4+,5-,6+,7-
