20
gdb 40602	3.64464	1.24416	1.11437	1.6574	82.2	-0.2179	0.0639	0.2818	1159.7529	0.1719	-365.893942	-365.88627	-365.885326	-365.926573	30.808	
C	 1.2809208907	 1.0326598147	 0.1979830874	-0.295529
C	 1.4598293291	-0.1653238724	-0.6955816468	-0.246174
C	 0.1169218227	 0.1034911453	-0.0523912654	-0.036918
C	-0.391632187	-0.7558929193	 1.0808679713	-0.016833
C	-1.7630663839	-1.342781018	 1.2825520703	-0.12646
C	-2.2939662368	-2.1660895893	 0.0926203608	-0.036059
C	-1.3886316508	-2.31854888	-1.0688263248	-0.252385
N	-1.1334984093	-3.1205915717	 0.1448165425	-0.14232
C	-0.5543178664	-2.2580389831	 1.2480294931	-0.0359
H	 1.7434697577	 1.0030758587	 1.1798812882	 0.111003
H	 1.2602872676	 2.0183679951	-0.2536259795	 0.112329
H	 1.5661474136	-0.0056229052	-1.7634319192	 0.111339
H	 2.0309280605	-1.0035476444	-0.3106944804	 0.120092
H	-0.6543563135	 0.4958287497	-0.7081154107	 0.097462
H	-0.0406778689	-0.3854732625	 2.0456414315	 0.09592
H	-2.3995930294	-1.0777304886	 2.1172442875	 0.09125
H	-3.3101494429	-2.5478150785	 0.0822093785	 0.097638
H	-1.7605326626	-2.9402990596	-1.8798085117	 0.116428
H	-0.6929182852	-1.5525127471	-1.3747321355	 0.137344
H	-0.0566304652	-2.7930172338	 2.047698883	 0.097774
48.1696	140.4983	178.2682	305.1822	333.3936	401.4867	528.8936	638.3643	678.2741	714.8202	737.113	747.972	792.513	832.2053	862.2374	889.8127	896.3095	925.0011	945.4604	971.7208	1013.378	1020.2299	1056.0492	1059.8213	1070.9769	1081.4013	1092.2168	1110.2857	1120.091	1144.9228	1149.7537	1201.547	1212.1681	1229.1168	1248.4879	1278.812	1334.1442	1345.3518	1368.7736	1446.0142	1467.8526	1499.5708	1504.8061	3089.395	3124.7768	3127.7093	3130.896	3146.1782	3155.7765	3178.625	3191.3547	3204.8431	3221.2775	3260.9285
C1CC1C1C2C3CN3C12	C1CC1[C@H]1[C@H]2[C@H]3CN3[C@@H]12	
InChI=1S/C8H11N/c1-2-4(1)6-7-5-3-9(5)8(6)7/h4-8H,1-3H2	InChI=1S/C8H11N/c1-2-4(1)6-7-5-3-9(5)8(6)7/h4-8H,1-3H2/t5-,6+,7-,8+,9?/m1/s1
