18
gdb 9474	2.87438	1.65968	1.5056	1.7183	73.86	-0.2437	0.0505	0.2941	953.6573	0.151875	-347.761754	-347.753144	-347.7522	-347.794182	32.958	
C	 0.2833664295	 1.3823558628	-0.052186426	-0.456251
C	-0.0170182798	-0.1241497253	-0.0530166719	 0.100822
C	 0.9366540791	-0.9264826808	-1.0076359258	-0.2549
C	 1.8693274072	-1.2298219561	 0.1937553428	-0.278219
C	 0.6983438276	-0.8773964701	 1.1428855659	 0.134593
O	 0.9352538656	-0.2092924279	 2.349031289	-0.422322
C	-1.439524991	-0.3728721771	-0.1969905512	 0.252312
C	-2.6164519702	-0.597620203	-0.3085396386	-0.449062
H	 1.3614274888	 1.5731138545	-0.0023288833	 0.103421
H	-0.0923982488	 1.8459268785	-0.9682884621	 0.131579
H	-0.1962317717	 1.871219792	 0.8003076583	 0.136012
H	 0.4510705581	-1.823248104	-1.3960082909	 0.116899
H	 1.3577235618	-0.3618766892	-1.8421368874	 0.10557
H	 2.2954799426	-2.2315305677	 0.2746787405	 0.107644
H	 2.6840461409	-0.5026078839	 0.2756156027	 0.096774
H	 0.1199069434	-1.7671158445	 1.4026674289	 0.103557
H	 1.5179232075	 0.5371221072	 2.1747461564	 0.281894
H	-3.6551944805	-0.7945554655	-0.4058533173	 0.189677
112.7313	145.3144	187.3332	233.6964	255.5236	308.8036	337.6704	375.6383	485.0867	528.4008	546.8995	594.4318	616.2256	623.835	706.4748	794.3216	882.4853	909.6812	937.1445	960.808	976.6888	1069.1276	1122.4004	1144.2561	1169.123	1214.3381	1224.0715	1242.0973	1257.2463	1307.0617	1326.3161	1404.1054	1438.5297	1477.7021	1494.0815	1497.2605	1499.5198	2227.301	3032.6372	3050.6565	3073.242	3087.5968	3102.5344	3113.4724	3121.6517	3133.1747	3502.5647	3814.2218
CC1(CCC1O)C#C	C[C@]1(CC[C@H]1O)C#C	
InChI=1S/C7H10O/c1-3-7(2)5-4-6(7)8/h1,6,8H,4-5H2,2H3	InChI=1S/C7H10O/c1-3-7(2)5-4-6(7)8/h1,6,8H,4-5H2,2H3/t6-,7-/m1/s1
