19
gdb 40078	3.32298	1.43778	1.37583	0.7492	74.34	-0.2371	0.0778	0.3149	1022.4727	0.160409	-422.997735	-422.990368	-422.989424	-423.029597	29.52	
C	-0.248642335	 1.3206191754	-0.2311173506	-0.313956
C	 1.1869103604	 0.8770190395	 0.0057961403	-0.345627
C	 0.08254562	-0.1204442082	 0.0575637735	 0.446595
C	-0.3939568637	-0.8470336193	 1.3067705524	-0.311342
C	-1.4183107955	-1.8262718968	 0.7401383716	 0.092116
O	-2.6940520378	-1.2187419366	 0.4350582668	-0.297057
C	-2.4828830057	-1.3575958886	-0.9881278452	-0.101663
C	-1.0628167796	-1.9237668056	-0.7666315753	 0.0527
O	 0.0205715529	-1.0512103715	-1.0103701186	-0.299375
H	-0.7486047819	 1.9029925349	 0.5355376982	 0.115478
H	-0.5228505683	 1.5705023288	-1.2496384624	 0.118477
H	 1.8432848292	 0.8358593224	-0.8561778603	 0.125811
H	 1.6736701086	 1.154676553	 0.9347035436	 0.115102
H	 0.4293469639	-1.4032409539	 1.7706327909	 0.106153
H	-0.8345870064	-0.1819423047	 2.0523162975	 0.119215
H	-1.5347879309	-2.7446612236	 1.3233331505	 0.076531
H	-3.1950047709	-2.0615800008	-1.4370082654	 0.09953
H	-2.5279436331	-0.3996565742	-1.5168704707	 0.111041
H	-0.8356075462	-2.8884949802	-1.221180167	 0.09027
96.7528	123.5259	257.8915	323.085	363.531	385.3282	472.2273	552.5728	647.4273	762.8562	772.361	801.9157	845.764	866.3251	892.8352	902.7124	921.4709	949.326	988.1301	1016.4885	1023.5465	1043.2741	1050.1463	1073.5051	1081.3117	1122.648	1160.2477	1179.9756	1188.0704	1220.9337	1244.3661	1268.4635	1293.672	1335.7198	1350.2596	1379.52	1381.0114	1451.9663	1468.2997	1500.7904	1509.6456	3018.1692	3038.5192	3064.9296	3076.9323	3111.2544	3116.8538	3132.3083	3135.3254	3216.6382	3230.6792
C1CC11CC2OCC2O1	C1CC21C[C@H]1OC[C@H]1O2	
InChI=1S/C7H10O2/c1-2-7(1)3-5-6(9-7)4-8-5/h5-6H,1-4H2	InChI=1S/C7H10O2/c1-2-7(1)3-5-6(9-7)4-8-5/h5-6H,1-4H2/t5-,6-/m1/s1
