21
gdb 70569	2.49496	1.72643	1.40799	1.424	81.38	-0.2338	0.0883	0.3221	1037.1913	0.184225	-387.06901	-387.061242	-387.060297	-387.100592	32.231	
C	 0.01189197	 1.4752733494	-0.0527966036	-0.473041
C	-0.0309016406	-0.0379088133	 0.0398693212	 0.320016
C	-0.3084786208	-0.6560943443	 1.3960566433	-0.358842
C	 1.0709534659	-0.7360039549	 0.7984528438	 0.05402
O	 1.4863705561	-1.9853671941	 0.3240813352	-0.257013
C	 1.7618940511	-1.9879679098	-1.0746917754	-0.096963
C	 0.5182168547	-1.678574956	-1.8868109514	-0.031867
C	-0.8033011575	-2.1805030919	-1.3667190195	-0.317592
C	-0.4578107904	-0.7137595121	-1.2451701585	-0.080801
H	 0.6252770833	 1.8023782021	-0.9005918825	 0.116404
H	-0.9940601681	 1.8899868007	-0.1890508418	 0.117701
H	 0.431904914	 1.9196711332	 0.8549131577	 0.1129
H	-0.4630154275	 0.0132490383	 2.2360503807	 0.105776
H	-0.8745880003	-1.5791622342	 1.4415997848	 0.118899
H	 1.8743255415	-0.1405263847	 1.2332354921	 0.080274
H	 2.5600345197	-1.2649146358	-1.3097457967	 0.088087
H	 2.1407906763	-2.99110974	-1.29599364	 0.109095
H	 0.6726653094	-1.6274288263	-2.9604125141	 0.080995
H	-1.5715403049	-2.449140026	-2.0834166301	 0.106751
H	-0.7821013579	-2.7981167847	-0.4765879011	 0.126378
H	-1.0019206335	-0.0561552757	-1.9164277842	 0.078823
159.7383	216.1029	236.9197	288.9914	320.1916	344.9956	439.4466	473.8273	484.8568	524.2413	638.4177	735.0278	794.3873	804.5827	832.1216	860.7961	878.7148	948.6958	954.5271	984.838	1024.336	1046.3686	1049.3365	1068.0232	1080.7499	1106.4418	1116.3085	1121.2465	1126.9459	1133.9451	1181.2996	1205.3211	1239.8266	1291.932	1327.8572	1372.3187	1373.9781	1416.1677	1417.5816	1419.5432	1482.0755	1490.4551	1492.1971	1502.0745	1503.7868	2972.7441	3020.1621	3069.8982	3080.3523	3091.3469	3098.87	3132.852	3139.0444	3142.8219	3155.2299	3222.5055	3227.8819
CC12CC1OCC1CC21	C[C@]12C[C@H]1OC[C@H]1C[C@@H]21	
InChI=1S/C8H12O/c1-8-3-7(8)9-4-5-2-6(5)8/h5-7H,2-4H2,1H3	InChI=1S/C8H12O/c1-8-3-7(8)9-4-5-2-6(5)8/h5-7H,2-4H2,1H3/t5-,6-,7-,8-/m1/s1
