16
gdb 68734	2.47186	1.65781	1.35018	2.1261	76.75	-0.2205	0.0379	0.2584	996.9153	0.123372	-400.645596	-400.637742	-400.636798	-400.677625	31.211	
O	-0.00613516	 1.3600091659	 0.0874179078	-0.446426
C	 0.0315759499	-0.0060675889	 0.0158987733	 0.390258
C	-0.2838310413	-0.8388855163	 1.2081610571	-0.375914
C	-1.1794761391	-1.0275840136	-0.0173580255	 0.09004
C	-2.570336415	-0.7446927076	-0.0114121396	 0.23961
C	-3.7509964721	-0.5079519312	-0.0149613563	-0.429566
C	-0.4240927732	-1.7824943276	-1.0879829695	-0.140172
N	-0.2079983242	-0.8566441229	-2.228052904	-0.339143
C	 0.7104654833	-0.8182646424	-1.056239566	-0.161695
H	-0.2793844986	 1.6852705396	-0.7798925974	 0.301624
H	 0.3747774562	-1.6425733649	 1.5273730401	 0.112866
H	-0.7585877727	-0.2922719552	 2.0162008245	 0.140234
H	-4.7914927485	-0.2983060685	-0.0208228895	 0.184898
H	-0.3749513247	-2.8564500789	-1.2223284412	 0.102459
H	 0.264128533	-1.3863117922	-2.9631185006	 0.228418
H	 1.770669687	-1.0130279153	-1.167535033	 0.102509
112.1341	135.5027	216.3385	294.7761	363.3438	434.0768	442.3073	513.6156	544.6211	554.6586	606.9073	634.7473	647.4081	692.519	757.6344	810.4634	844.3351	852.734	932.0883	963.3954	978.2556	1035.8497	1088.824	1107.0848	1120.7293	1127.5664	1173.6296	1254.3818	1265.1156	1328.2371	1362.2137	1377.5523	1418.2219	1495.9832	2229.57	3115.1224	3179.707	3192.0912	3214.9984	3453.5333	3504.0432	3777.5896
OC12CC1(C#C)C1NC21	O[C@@]12C[C@]1(C#C)[C@H]1N[C@@H]21	
InChI=1S/C7H7NO/c1-2-6-3-7(6,9)5-4(6)8-5/h1,4-5,8-9H,3H2	InChI=1S/C7H7NO/c1-2-6-3-7(6,9)5-4(6)8-5/h1,4-5,8-9H,3H2/t4-,5+,6+,7+/m0/s1
