21
gdb 82992	3.42834	1.53054	1.42877	1.2986	80.52	-0.255	0.0775	0.3325	1003.3306	0.186888	-387.093759	-387.086792	-387.085848	-387.124616	29.826	
O	 0.0136833195	 1.4716074963	-0.0833665434	-0.442644
C	 0.0103790831	 0.0684787353	 0.040898493	 0.142258
C	 0.1378074759	-0.6065653912	 1.4440361317	-0.100524
C	-0.9239067899	 0.178209262	 2.2344251941	-0.213814
C	-2.1361007534	-0.0781968666	 1.282640302	-0.001509
C	-2.8767901917	-1.3303196115	 1.7856415031	-0.211415
C	-1.774800312	-2.4282328435	 1.7130221063	-0.240807
C	-0.7022478109	-1.7816737223	 0.8230841451	 0.002305
C	-1.3641111518	-0.6058305511	 0.0348594225	-0.061641
H	 0.9255585258	 1.7773879436	-0.0494215	 0.281091
H	 0.6845844956	-0.396740982	-0.6905667783	 0.061773
H	 1.1075332554	-0.778325901	 1.9152965164	 0.047974
H	-1.0943126672	-0.2087731756	 3.2433572959	 0.083523
H	-0.6618537632	 1.2355005592	 2.3046164585	 0.09974
H	-2.7722609387	 0.7912169965	 1.1148155385	 0.062703
H	-3.286597768	-1.1970480943	 2.7917563949	 0.090481
H	-3.7127778534	-1.578424614	 1.1214575318	 0.090621
H	-1.3807276987	-2.6863086707	 2.7015135858	 0.098227
H	-2.1514730074	-3.3555854124	 1.2712385581	 0.094794
H	-0.1009628172	-2.4717440126	 0.2293503156	 0.060477
H	-1.9380104419	-0.7559660441	-0.880390722	 0.056389
202.2092	241.4263	255.4915	278.8923	399.1423	438.7896	527.2547	626.3576	695.2162	715.2075	779.6264	800.6701	820.92	840.1405	877.5833	894.0425	919.756	953.4754	967.794	996.206	1009.7562	1015.7423	1033.4143	1081.0159	1084.0992	1131.5591	1137.6373	1153.1303	1170.9286	1203.2155	1206.7936	1231.6932	1252.923	1272.4261	1279.4073	1289.1883	1307.819	1314.689	1338.2209	1346.062	1361.7848	1441.4653	1488.4757	1491.3845	1510.2343	3012.9785	3032.8829	3046.3783	3056.881	3072.4352	3088.8328	3091.869	3099.7971	3103.6198	3110.97	3117.0631	3817.5768
OC1C2CC3CCC2C13	O[C@H]1[C@H]2C[C@@H]3CC[C@H]2[C@H]13	
InChI=1S/C8H12O/c9-8-6-3-4-1-2-5(6)7(4)8/h4-9H,1-3H2	InChI=1S/C8H12O/c9-8-6-3-4-1-2-5(6)7(4)8/h4-9H,1-3H2/t4-,5+,6-,7+,8-/m0/s1
