15
gdb 52213	3.72321	0.81254	0.77423	4.3191	67.73	-0.2839	-0.0085	0.2754	1439.6608	0.111913	-453.942007	-453.933245	-453.932301	-453.977092	29.997	
O	 0.3532534962	 0.3517134807	-0.8811531267	-0.267782
C	 0.3604939164	 1.5075857787	-0.5888331317	 0.175336
O	 0.8262285696	 1.9457714197	 0.6054234047	-0.183512
C	 0.8860332729	 3.3594298302	 0.8063565846	-0.113264
C	 2.2628457942	 3.8643357159	 0.4523446837	-0.01326
N	 2.4992545547	 4.1044125724	-0.9694311026	-0.308719
C	 2.4922224096	 5.2569267053	-0.0478524183	-0.194847
C	 1.409205273	 6.2013737555	-0.1965842919	 0.328408
N	 0.5456602208	 6.9644287776	-0.2867301556	-0.324331
H	-0.0099025896	 2.3270225008	-1.2315122402	 0.098366
H	 0.1287603637	 3.8724098648	 0.2035082541	 0.141111
H	 0.666767529	 3.5310908476	 1.863141956	 0.138618
H	 3.0711680141	 3.4383100254	 1.0428586071	 0.122057
H	 3.4537910206	 3.8791832773	-1.236228643	 0.257547
H	 3.4399713548	 5.7193359982	 0.2138763597	 0.144271
43.9848	61.828	110.8896	151.2837	213.7073	272.4723	354.8389	368.3936	454.6412	571.7324	597.8879	687.6695	805.7924	847.7296	895.7149	945.8339	1010.8561	1013.3281	1035.0267	1054.525	1112.7266	1148.8109	1202.8403	1235.6658	1248.065	1316.6503	1372.2405	1409.893	1428.7362	1467.0172	1492.7323	1871.0558	2362.3142	2977.9488	3053.0632	3112.1534	3141.0553	3154.3705	3518.8676
O=COCC1NC1C#N	O=COC[C@H]1N[C@H]1C#N	
InChI=1S/C5H6N2O2/c6-1-4-5(7-4)2-9-3-8/h3-5,7H,2H2	InChI=1S/C5H6N2O2/c6-1-4-5(7-4)2-9-3-8/h3-5,7H,2H2/t4-,5+/m0/s1
