19
gdb 61620	3.44543	0.85816	0.74366	3.9287	77.33	-0.241	0.0125	0.2536	1526.8382	0.157573	-419.180009	-419.170189	-419.169245	-419.215341	35.263	
C	 0.1999196327	 1.4984595556	-0.4675926218	-0.41361
C	 0.0026337828	 0.0662211207	-0.0206686059	 0.019261
C	 1.1470232649	-0.8827034317	 0.0800106485	-0.239083
N	 0.4512976342	-0.4377965249	 1.2833182201	-0.081944
C	 1.1506742886	 0.4355187694	 2.2036154264	-0.15828
C	 1.8257873393	-0.4226317909	 3.2902206665	-0.016317
O	 2.8531574878	-1.2542795811	 2.7856291913	-0.403308
C	 2.3264468532	 0.4389669229	 4.3814916616	 0.251004
N	 2.7432743593	 1.1312979203	 5.2075888177	-0.315358
H	 1.2063859902	 1.8689350409	-0.2584329498	 0.120853
H	 0.0408062882	 1.5716181549	-1.5484162934	 0.128893
H	-0.5186933145	 2.1689036903	 0.0166376203	 0.127484
H	-0.9654291259	-0.346988862	-0.3006266078	 0.096707
H	 1.0392178299	-1.9338955351	-0.1714503384	 0.121506
H	 2.1394584488	-0.4746496065	-0.1094826639	 0.099912
H	 1.9233920492	 1.0725580928	 1.7392505182	 0.090357
H	 0.4256431167	 1.1019327553	 2.6849343454	 0.12697
H	 1.0725776496	-1.1038033272	 3.6983702333	 0.151569
H	 3.5797158849	-0.6924750936	 2.4915574619	 0.293386
51.5671	86.2407	104.6691	185.9762	206.9291	239.2249	271.3944	312.3625	336.7333	406.3729	445.4128	490.9281	574.7784	592.7674	758.5806	802.2873	897.0697	899.22	943.8058	956.5873	1037.6688	1041.087	1093.8147	1108.3667	1119.1339	1150.321	1163.2265	1190.1491	1239.7822	1273.8198	1327.9892	1343.1253	1382.6936	1406.3482	1422.614	1424.6336	1480.2442	1493.9933	1502.0938	1513.9466	2354.3397	2951.8392	3037.7037	3062.0756	3081.2668	3090.8699	3096.817	3106.5655	3127.8115	3180.9086	3798.3357
CC1CN1CC(O)C#N	C[C@H]1CN1C[C@@H](O)C#N	
InChI=1S/C6H10N2O/c1-5-3-8(5)4-6(9)2-7/h5-6,9H,3-4H2,1H3	InChI=1S/C6H10N2O/c1-5-3-8(5)4-6(9)2-7/h5-6,9H,3-4H2,1H3/t5-,6-,8?/m0/s1
