12
gdb 42521	3.88466	1.05822	0.89595	1.9737	65.96	-0.2975	-0.0832	0.2143	1195.0782	0.077063	-431.664102	-431.656098	-431.655154	-431.697586	27.718	
O	-0.0032035137	 0.0345739791	-0.1801638087	-0.225317
C	 0.0544145194	 1.20951937	-0.0856835315	 0.409924
C	-0.9849946792	 2.3759081959	 0.0172528851	-0.226496
N	 0.147440774	 3.2615997065	 0.3914906561	-0.307111
C	 1.1912345132	 2.2720815691	 0.0265366245	-0.2483
C	 2.2358399305	 2.0553943444	 1.018776419	 0.317864
N	 3.0623290737	 1.8661323615	 1.8032407749	-0.299084
C	-1.6429719285	 2.6755771855	-1.2500051422	 0.278023
N	-2.1292832026	 2.9414867496	-2.2647945252	-0.299301
H	-1.7292291723	 2.2522080654	 0.811036185	 0.172014
H	 0.1948330225	 4.1405573105	-0.1101944258	 0.260648
H	 1.6507599327	 2.4190411725	-0.9620173412	 0.167135
53.6554	115.5367	138.2955	186.318	258.7699	375.9769	428.8218	466.1355	488.5358	567.5822	654.642	724.0511	760.1236	806.9677	949.126	1001.2878	1005.855	1058.9664	1089.9219	1179.8411	1197.5482	1293.9755	1328.2978	1384.6806	1956.961	2350.1498	2364.1452	3009.838	3064.1369	3566.4522
O=C1C(NC1C#N)C#N	O=C1[C@@H](N[C@H]1C#N)C#N	
InChI=1S/C5H3N3O/c6-1-3-5(9)4(2-7)8-3/h3-4,8H	InChI=1S/C5H3N3O/c6-1-3-5(9)4(2-7)8-3/h3-4,8H/t3-,4-/m0/s1
