17
gdb 36994	2.98857	2.66321	2.42126	1.8759	80.19	-0.183	-0.068	0.115	712.5044	0.137517	-347.369088	-347.36365	-347.362706	-347.398368	24.578	
C	 0.1105131029	 1.4749698851	-0.1672220192	-0.048011
C	 1.4335359696	 1.7788533384	 0.0593879883	-0.087503
C	 1.4779963639	 1.1863333962	 1.5572238921	-0.102864
C	 0.4985520716	-0.1218588381	 1.4185884321	-0.046099
C	 0.0049137315	-0.0210581725	-0.11340007	-0.092678
C	 1.3868730117	-0.6262576211	-0.5068063968	-0.074399
C	 1.7169364004	-0.9879652126	 0.9791638726	-0.048317
C	 2.6548492295	 0.2673491418	 1.0940312601	-0.020649
C	 2.3411947976	 0.6192631873	-0.3902336329	-0.063966
H	-0.6786324543	 2.0364319594	 0.3395665545	 0.111335
H	 1.4523328758	 1.7686461325	 2.4771717313	 0.076973
H	-0.1859756373	-0.3794988598	 2.2290178894	 0.066156
H	-0.9141069711	-0.5462707786	-0.3720635762	 0.07418
H	 1.4669564137	-1.3197273016	-1.3410796675	 0.064567
H	 1.9478154166	-1.9892241588	 1.3411362614	 0.060534
H	 3.6515915939	 0.3162991016	 1.5310311671	 0.065973
H	 3.124053634	 0.7808696207	-1.1291653962	 0.064768
186.2842	519.4201	580.762	621.7356	647.8069	668.1143	703.3546	751.5719	780.1749	816.9151	823.0547	846.4006	871.0884	871.982	888.333	911.8352	916.4287	938.7826	965.1886	982.0636	1010.5137	1038.8199	1087.9433	1095.1816	1115.0407	1146.5775	1158.7252	1178.2031	1184.9643	1190.6318	1221.819	1229.2547	1244.0519	1259.3062	1276.34	1297.486	1445.8237	3088.1074	3092.624	3105.8571	3112.0644	3116.3008	3117.6254	3122.6136	3135.603
C1=C2C3C4C1C1C4C3C21	[CH]1[C]2[C@H]3[C@H]4[C@@H]1[C@@H]1[C@H]4[C@H]3[C@H]21	
InChI=1S/C9H8/c1-2-4-6-3(1)7-5(2)8(4)9(6)7/h1-2,4-9H	InChI=1S/C9H8/c1-2-4-6-3(1)7-5(2)8(4)9(6)7/h1-2,4-9H/t2-,4-,5+,6+,7-,8+,9-
