20
gdb 102870	2.12074	0.9632	0.69009	2.605	86.67	-0.2512	0.0205	0.2717	1676.4743	0.166771	-403.111061	-403.100161	-403.099216	-403.148035	38.002	
C	-0.7428030278	 1.2706659051	 0.5589524623	-0.395647
C	-0.260242936	-0.1333541977	 0.1910594392	-0.183851
C	 0.6296815788	-0.1476715209	-1.0585721064	-0.084911
O	 1.789973949	 0.6439535722	-0.7521952725	-0.20703
C	 2.5627628285	 1.0081159231	-1.8007128818	 0.137046
N	 3.5978728525	 1.6956605613	-1.6170788081	-0.207963
C	 4.3699075682	 2.0619282741	-2.7857634275	-0.314924
C	 1.0020593361	-1.5068894783	-1.4563148817	 0.341492
C	 1.3024205015	-2.6246025494	-1.7792765246	-0.447546
H	 0.1030505581	 1.9354383897	 0.7484200492	 0.146559
H	-1.3445863389	 1.7072096749	-0.246128299	 0.113066
H	-1.363627046	 1.2392433352	 1.4587412526	 0.117301
H	 0.3115428301	-0.5740765584	 1.0142502515	 0.125523
H	-1.1088422566	-0.7983268332	-0.0006182068	 0.1133
H	 0.0865602144	 0.3301194622	-1.888315166	 0.107717
H	 2.2017481078	 0.6572240444	-2.7792666338	 0.083143
H	 3.9548218162	 1.6849622756	-3.7350562124	 0.095851
H	 4.4419300589	 3.1536286432	-2.8515858286	 0.127221
H	 5.3928910984	 1.6821790924	-2.6837415139	 0.128766
H	 1.5721746768	-3.6112187257	-2.0662001519	 0.204886
45.3494	67.0195	100.5363	127.574	156.0313	196.9682	216.3049	238.0729	289.8633	314.5733	375.0822	437.0624	502.3014	550.4809	625.3125	637.1132	678.503	789.2897	880.236	966.9567	974.0431	993.9981	1056.6333	1062.2969	1119.0366	1141.1876	1152.0702	1155.6169	1238.5884	1286.1303	1315.5962	1355.61	1383.9966	1408.7521	1415.8319	1450.0879	1477.2381	1480.9844	1495.4787	1504.7485	1508.727	1780.1307	2236.4339	2966.7679	2985.4898	3005.1959	3038.7096	3051.59	3058.2863	3077.6551	3089.6587	3108.3084	3132.6941	3501.8344
CCC(OC=NC)C#C	CC[C@@H](OC=NC)C#C	
InChI=1S/C7H11NO/c1-4-7(5-2)9-6-8-3/h1,6-7H,5H2,2-3H3	InChI=1S/C7H11NO/c1-4-7(5-2)9-6-8-3/h1,6-7H,5H2,2-3H3/t7-/m0/s1
