16
gdb 18290	3.3691	2.14821	1.82876	2.0792	65.44	-0.2239	0.0079	0.2318	782.8118	0.131849	-383.714753	-383.708068	-383.707124	-383.74539	26.392	
O	 0.0910293764	 1.4037747087	 0.0908240042	-0.420408
C	 0.0008370086	 0.0273734931	-0.0206664288	 0.109137
C	-0.4982437386	-0.7545880461	 1.1668262193	 0.009365
O	-0.879865251	 0.0727912623	 2.236482265	-0.275062
C	-2.2857233863	 0.131432768	 2.4911651409	-0.122267
C	-3.0912772548	 0.4099138286	 1.2479742468	-0.092083
C	-2.6377943165	 0.0416834061	 0.0510347398	-0.050112
C	-1.3559918702	-0.6883401827	-0.0784837824	-0.169377
H	-0.1939298914	 1.6116996908	 0.9926060056	 0.290942
H	 0.7970454112	-0.3941628697	-0.6269827268	 0.102351
H	-0.0278576955	-1.6852849897	 1.4761506547	 0.093249
H	-2.6191692687	-0.8034618322	 2.9705713688	 0.111828
H	-2.4108805396	 0.9323765469	 3.226569837	 0.119612
H	-4.0422956061	 0.9187858038	 1.370225016	 0.097591
H	-3.1961694985	 0.2607258089	-0.8542737311	 0.099001
H	-1.3766484589	-1.5774523567	-0.703337099	 0.096233
137.1635	162.4588	288.3283	364.2079	428.8646	506.7126	539.0085	579.6339	632.1563	730.0635	768.7173	788.9937	852.2084	908.1083	935.8387	973.9764	995.3037	1041.8346	1051.353	1058.5919	1109.7333	1115.9618	1156.829	1202.2456	1229.4603	1267.4401	1326.7587	1341.8818	1366.7074	1403.9361	1415.8867	1448.3189	1492.2455	1710.8994	2974.3476	3074.2737	3120.7878	3138.0784	3156.9016	3164.444	3187.2601	3726.9662
OC1C2OCC=CC12	O[C@H]1[C@H]2OCC=C[C@@H]12	
InChI=1S/C6H8O2/c7-5-4-2-1-3-8-6(4)5/h1-2,4-7H,3H2	InChI=1S/C6H8O2/c7-5-4-2-1-3-8-6(4)5/h1-2,4-7H,3H2/t4-,5+,6-/m0/s1
