17
gdb 105143	2.46152	1.19569	0.9616	1.29	83.33	-0.2451	0.0169	0.262	1257.4277	0.13266	-384.603021	-384.593408	-384.592464	-384.63738	35.795	
O	 0.0956422422	 1.382922685	-0.394902195	-0.416093
C	 0.0196853611	 0.0698699162	 0.1225144757	-0.124339
C	-1.3933753162	-0.4999767999	 0.0367930482	 0.089808
C	-1.8433478616	-1.1262065837	-1.263330926	-0.30332
C	-1.5845577349	-2.0267734348	-0.0737723228	-0.256634
C	-0.455811791	-2.9092978336	-0.0407899672	 0.326354
C	 0.4806408062	-3.6637600263	-0.0057525014	-0.435642
C	-2.3581844143	 0.2275695526	 0.8163360253	 0.252063
C	-3.1250805821	 0.8802598261	 1.4760104261	-0.439884
H	-0.5202852157	 1.9264028135	 0.1100895127	 0.288063
H	 0.6971367789	-0.5428782862	-0.4765238784	 0.119979
H	 0.3626020464	 0.0242628847	 1.1668079103	 0.101363
H	-2.8733829795	-0.9880089056	-1.5685830827	 0.131571
H	-1.1180834235	-1.1428226461	-2.0684875321	 0.138114
H	-2.4686151486	-2.4004853469	 0.4332540433	 0.129204
H	 1.3078405332	-4.3288234361	 0.024379113	 0.199717
H	-3.8160149005	 1.4378953011	 2.058773211	 0.199675
82.4572	105.2628	119.7745	148.775	232.709	257.7818	326.3562	366.6092	414.5352	467.3092	520.4163	548.1116	591.6468	595.9818	630.4439	656.643	663.835	707.1176	804.9183	888.5765	932.5836	960.5975	988.6038	1070.6277	1077.7894	1084.7296	1129.4606	1185.2085	1277.3169	1298.6925	1380.8404	1394.4468	1425.4141	1477.2133	1505.3165	2226.7686	2236.2138	2997.0884	3107.3736	3146.925	3158.6402	3241.9715	3500.5146	3503.6253	3793.9073
OCC1(CC1C#C)C#C	OC[C@]1(C[C@H]1C#C)C#C	
InChI=1S/C8H8O/c1-3-7-5-8(7,4-2)6-9/h1-2,7,9H,5-6H2	InChI=1S/C8H8O/c1-3-7-5-8(7,4-2)6-9/h1-2,7,9H,5-6H2/t7-,8-/m1/s1
