20
gdb 126738	4.50839	0.91083	0.80199	1.2663	85.	-0.1852	0.0357	0.2208	1496.4188	0.172194	-399.350746	-399.341308	-399.340364	-399.385815	34.143	
C	 0.0508115691	 1.4780354327	 0.0855729476	-0.369947
C	-0.111160606	-0.0253139996	-0.1449742485	-0.137188
N	 0.7068706031	-0.5156278229	-1.2367582978	 0.060977
C	 1.804391544	-1.2989615186	-1.1779812415	-0.018904
C	 2.2669308855	-1.4634475283	-2.4685459226	-0.326792
C	 1.3587371902	-0.7141794874	-3.2577931399	 0.418322
N	 1.3884214599	-0.4999961518	-4.6279385428	-0.367004
C	 2.0109991846	-1.4998503295	-5.4759030562	-0.32202
N	 0.4104402822	-0.1462179794	-2.5105652369	-0.378009
H	 1.0817014021	 1.7225569205	 0.3585658106	 0.122306
H	-0.2037650524	 2.0252994558	-0.824785258	 0.148679
H	-0.6101749944	 1.8103521873	 0.8920723808	 0.113989
H	 0.1716817934	-0.5910445305	 0.747657658	 0.11334
H	-1.156268937	-0.2617247596	-0.371580458	 0.124389
H	 2.1707462307	-1.6817559253	-0.237700989	 0.122248
H	 3.1218525189	-2.0359090688	-2.7860564354	 0.096207
H	 0.4988283012	-0.1632681569	-4.9681290482	 0.238002
H	 3.0827906312	-1.5612450644	-5.2593665025	 0.130275
H	 1.5853534532	-2.5100324396	-5.3630193426	 0.109016
H	 1.9071064103	-1.1941221138	-6.5198737271	 0.122112
46.7204	71.7057	110.7435	173.5312	195.7299	234.0461	298.1088	355.6486	403.9273	478.7863	567.5393	627.2366	692.5162	719.4729	733.0593	747.2334	795.8969	811.321	959.0788	999.7283	1019.1445	1060.8185	1098.2028	1101.2276	1123.4316	1156.0258	1185.1686	1253.421	1278.5875	1350.8875	1372.4977	1392.5172	1406.6002	1452.0023	1465.4732	1479.5915	1488.1179	1488.3428	1494.3909	1508.5468	1519.0964	1543.6349	1611.2897	2973.1789	3044.0939	3047.1127	3065.0256	3093.1302	3115.1042	3116.0065	3137.6454	3249.3923	3278.5703	3594.139
CCN1C=CC(NC)=N1	CCn1ccc(NC)n1	
InChI=1S/C6H11N3/c1-3-9-5-4-6(7-2)8-9/h4-5H,3H2,1-2H3,(H,7,8)	InChI=1S/C6H11N3/c1-3-9-5-4-6(7-2)8-9/h4-5H,3H2,1-2H3,(H,7,8)
