17
gdb 102351	1.8063	1.4347	1.19019	3.2082	76.19	-0.2541	0.0375	0.2916	1169.6612	0.130466	-421.727052	-421.716116	-421.715172	-421.762798	38.456	
O	-0.0221820756	 1.4127636836	 0.0097913675	-0.40524
C	-0.0064608878	 0.0042491013	 0.0021208677	-0.093582
C	-1.4725194395	-0.5068947594	 0.0133835687	-0.193985
C	-1.4235304881	-2.05873722	 0.00456783	-0.093587
O	-2.743867358	-2.5494788256	 0.014436487	-0.405241
C	-2.1491243251	-0.0406642551	 1.2314547928	 0.404938
C	-2.6717135803	 0.3195959852	 2.2502043665	-0.487702
C	-2.1722306633	-0.0276559356	-1.1864485142	 0.40494
C	-2.7141580699	 0.3434939246	-2.1910876918	-0.4877
H	 0.8873491484	 1.7241462272	 0.0028218369	 0.292349
H	 0.4861277162	-0.3929822973	-0.898249951	 0.095545
H	 0.5031853057	-0.40252751	 0.8886297482	 0.095544
H	-0.8769522126	-2.3774258411	-0.8958757008	 0.095543
H	-0.8600128179	-2.3870374379	 0.8910042215	 0.095547
H	-2.7081392027	-3.5101826106	 0.0093437966	 0.292349
H	-3.1496789667	 0.6490702363	 3.1392163385	 0.195141
H	-3.2089962026	 0.6824597643	-3.0672062741	 0.195141
96.9483	113.7138	117.2527	141.9261	146.564	163.9484	197.8543	204.8568	246.4135	366.3325	402.0424	468.1287	471.0774	559.7509	628.8129	629.5712	645.8313	647.8102	672.5087	681.2392	900.3539	1017.0249	1029.327	1086.7193	1111.1034	1129.7927	1195.8093	1232.9657	1258.4742	1287.1935	1328.7544	1442.9834	1465.8294	1508.6105	1517.9812	2240.999	2246.5988	2970.3894	2981.2939	3009.0522	3023.127	3503.1588	3503.871	3836.9726	3836.9898
OCC(CO)(C#C)C#C	OCC(CO)(C#C)C#C	
InChI=1S/C7H8O2/c1-3-7(4-2,5-8)6-9/h1-2,8-9H,5-6H2	InChI=1S/C7H8O2/c1-3-7(4-2,5-8)6-9/h1-2,8-9H,5-6H2
