16
gdb 17099	4.89014	1.51341	1.45346	3.2777	64.7	-0.2435	-0.0221	0.2214	888.829	0.13157	-383.725496	-383.718903	-383.717958	-383.756607	25.181	
O	 0.0003174684	-0.031918089	-0.0449259807	-0.256961
C	 0.0390460326	 1.1674745249	 0.069149372	 0.144674
C	 1.3019458343	 1.9900108702	 0.0542563688	-0.068631
C	 1.2882943258	 3.117718556	-1.0390102963	-0.253901
C	 1.4096512035	 4.3261373897	-0.0880156208	 0.084927
C	 2.5292991062	 3.9193552309	 0.8932800967	-0.229516
C	 1.4010635156	 2.9430983167	 1.2851283179	 0.053015
O	 0.4353621178	 3.9841817235	 0.9504447741	-0.293708
H	-0.8879157769	 1.7688028384	 0.1999899926	 0.090624
H	 2.1579556395	 1.3165872286	-0.0258466999	 0.092661
H	 2.1145733155	 3.0262867938	-1.7474213717	 0.113801
H	 0.3499328009	 3.149691002	-1.5986754075	 0.118973
H	 1.2956073288	 5.3303725124	-0.4942091383	 0.088613
H	 3.4714433597	 3.5262424414	 0.5033405561	 0.101672
H	 2.6911962535	 4.6740938975	 1.6630191567	 0.1193
H	 1.2811634649	 2.5211834528	 2.2825332104	 0.094455
82.5422	142.7238	276.4686	388.5858	408.968	465.4766	570.9167	725.261	818.336	836.907	858.9009	874.8576	891.2876	939.8018	954.7415	970.1822	1017.3897	1041.9699	1059.3851	1103.4111	1119.3215	1176.1573	1197.3213	1224.4507	1244.2951	1256.7428	1281.6848	1285.855	1319.6918	1340.1037	1420.0141	1479.6314	1493.5988	1826.1167	2892.1945	3068.0778	3070.9944	3094.0239	3120.4218	3129.8528	3134.0018	3149.8562
O=CC1CC2CC1O2	O=C[C@H]1C[C@@H]2C[C@H]1O2	
InChI=1S/C6H8O2/c7-3-4-1-5-2-6(4)8-5/h3-6H,1-2H2	InChI=1S/C6H8O2/c7-3-4-1-5-2-6(4)8-5/h3-6H,1-2H2/t4-,5-,6-/m1/s1
