17
gdb 61087	4.58187	0.65507	0.60647	2.9568	77.35	-0.2478	-0.0353	0.2125	1766.239	0.133468	-455.181141	-455.171408	-455.170464	-455.217034	33.491	
C	-0.0045235973	 1.2235061884	 0.0059011562	-0.414614
C	-0.0199645657	-0.2746986599	 0.3083269672	-0.02982
C	-1.4281713677	-0.7747881636	 0.6495496855	 0.163154
O	-2.3363747861	-0.0668297468	 0.9948583508	-0.241687
N	 0.5282886079	-1.2010880864	-0.6707510025	-0.277898
C	 1.1339664622	-0.7635541312	-1.6923537915	 0.124306
N	 1.6465490198	-1.6536928614	-2.6276148645	-0.309119
C	 2.3221392235	-1.2676354273	-3.7635455323	 0.160884
O	 2.5461448246	-0.1226309702	-4.0749744484	-0.293304
H	 1.0154815885	 1.6129799949	-0.051441095	 0.123035
H	-0.5174664894	 1.4422912242	-0.9360202133	 0.132103
H	-0.5366158835	 1.7516326469	 0.7992218173	 0.143212
H	 0.5444338826	-0.4520550016	 1.2419729785	 0.120655
H	-1.5345024153	-1.8775105839	 0.5637526222	 0.091466
H	 1.3241789984	 0.2765784604	-1.9564382599	 0.146609
H	 1.5030329025	-2.6364940556	-2.4413077992	 0.2655
H	 2.639895345	-2.1399131668	-4.3644613912	 0.09552
35.5611	85.0453	108.7106	158.3381	179.9178	244.047	252.0997	294.711	341.4103	386.6892	446.6052	538.7494	637.7455	656.0277	779.8412	826.7532	913.7562	948.4786	1015.8842	1031.5176	1084.939	1104.7783	1130.7747	1150.5798	1244.5272	1296.1699	1314.6527	1359.2886	1392.4321	1410.0043	1437.6148	1490.8699	1492.7867	1506.1068	1750.6287	1819.3952	1838.3867	2909.0741	2949.6856	2965.0074	3047.4446	3116.5691	3139.5407	3143.169	3609.3526
CC(C=O)N=CNC=O	C[C@@H](C=O)N=CNC=O	
InChI=1S/C5H8N2O2/c1-5(2-8)7-3-6-4-9/h2-5H,1H3,(H,6,7,9)	InChI=1S/C5H8N2O2/c1-5(2-8)7-3-6-4-9/h2-5H,1H3,(H,6,7,9)/t5-/m0/s1
