16
gdb 45180	2.87203	1.90463	1.65191	4.0855	66.78	-0.2312	-0.023	0.2082	858.6121	0.126805	-437.849676	-437.843422	-437.842478	-437.880219	25.875	
O	 0.0298446218	 0.0034637027	-0.0359511671	-0.321541
C	-0.0006423587	 1.2043164828	 0.0193225056	 0.4464
C	-1.2707038176	 2.0636362497	 0.0588867294	-0.294449
C	-0.8870296201	 3.3676658231	 0.7606304916	-0.082255
N	-0.1144120094	 2.9625208346	 1.9962299465	-0.325488
C	 1.1250648321	 3.1564418046	 1.2043476016	-0.061529
C	 0.4296905864	 3.9660626179	 0.1057088944	 0.11342
O	 0.948214819	 3.1544130025	-0.9549834798	-0.300476
C	 1.2315578213	 2.1091259946	 0.0299661802	-0.028948
H	-1.6168182591	 2.2420855306	-0.9651191892	 0.135835
H	-2.0498707711	 1.5273848018	 0.6047825276	 0.132625
H	-1.7283218618	 4.0404878151	 0.9321071759	 0.082508
H	-0.1689052603	 3.69873209	 2.695782769	 0.225034
H	 2.046091486	 3.410389935	 1.728644793	 0.091087
H	 0.4870745377	 5.0397873927	-0.0820127661	 0.088033
H	 2.1685541237	 1.5851472424	-0.1582189225	 0.099745
114.0519	321.1089	370.9005	413.2907	452.9092	524.3753	596.2758	646.3763	734.0476	757.223	790.6227	818.794	832.322	890.2732	907.0965	955.9958	981.6433	1001.2163	1027.0884	1048.9956	1070.8548	1089.4301	1130.7812	1178.6368	1199.2149	1230.7866	1240.1968	1265.8951	1280.2244	1311.2643	1337.1396	1356.6962	1377.9499	1437.0773	1851.2304	3057.5039	3093.9817	3104.496	3115.432	3121.8889	3127.4469	3498.3198
O=C1CC2NC3C2OC13	O=C1C[C@H]2N[C@@H]3[C@H]2O[C@H]13	
InChI=1S/C6H7NO2/c8-3-1-2-5-4(7-2)6(3)9-5/h2,4-7H,1H2	InChI=1S/C6H7NO2/c8-3-1-2-5-4(7-2)6(3)9-5/h2,4-7H,1H2/t2-,4-,5+,6-/m1/s1
