18
gdb 11230	4.71289	1.21743	1.02531	3.3608	76.01	-0.2359	-0.0217	0.2141	1150.9304	0.153297	-347.836972	-347.828778	-347.827834	-347.870172	29.635	
C	-0.0555295775	 1.5553999091	 0.0806404099	-0.489777
C	 0.0056612921	 0.0614250349	 0.0389997054	 0.32885
C	-0.2361857732	-0.7259182557	-1.0118099195	-0.191056
C	-0.0282127239	-2.1982181507	-0.7130908901	-0.089654
C	 0.1197778464	-2.2084412146	 0.8370379955	-0.246693
C	 0.4346339093	-0.7490564413	 1.243136728	-0.294566
C	-1.2065274461	-3.0363982327	-1.1701558192	 0.157089
O	-1.1660510705	-3.9053252697	-2.0013691776	-0.251543
H	 0.9188918051	 1.9823487669	 0.3504553558	 0.129019
H	-0.357321775	 1.9767460493	-0.8816966401	 0.127102
H	-0.7656365926	 1.8987812604	 0.8434775381	 0.128758
H	-0.5135390687	-0.3742955237	-2.0000456779	 0.097493
H	 0.8601700694	-2.5894297683	-1.224243107	 0.093117
H	-0.8323058821	-2.5141856315	 1.2867754818	 0.107309
H	 0.8743577707	-2.9238879934	 1.1702854303	 0.112419
H	 1.5055820941	-0.5968874684	 1.4390231475	 0.109449
H	-0.0862838457	-0.448564259	 2.1600988272	 0.105117
H	-2.1634723819	-2.7679925616	-0.6599147582	 0.067565
61.6206	85.667	158.2082	187.911	285.1482	355.2275	365.2491	426.1225	466.6914	588.7617	687.8174	830.8137	854.0239	889.9354	909.6389	937.8602	983.0237	1001.1622	1029.2488	1047.1023	1086.5966	1114.0689	1172.4811	1190.1192	1243.2983	1264.7208	1282.4337	1295.327	1333.5295	1364.4407	1413.3765	1420.26	1478.5395	1482.3948	1487.1889	1499.4401	1715.1983	1833.0163	2839.4264	3008.7328	3019.3465	3031.2788	3035.0406	3053.2209	3065.2445	3107.7706	3114.4724	3187.2207
CC1=CC(CC1)C=O	CC1=C[C@@H](CC1)C=O	
InChI=1S/C7H10O/c1-6-2-3-7(4-6)5-8/h4-5,7H,2-3H2,1H3	InChI=1S/C7H10O/c1-6-2-3-7(4-6)5-8/h4-5,7H,2-3H2,1H3/t7-/m1/s1
