21
gdb 97663	2.86702	0.79771	0.68931	1.568	90.18	-0.2255	0.0402	0.2657	1746.1956	0.179635	-387.056616	-387.045889	-387.044945	-387.093422	38.705	
C	-0.002395534	 1.6327830033	-0.0326798004	-0.364664
C	 0.0068534599	 0.093634253	 0.0159968461	-0.31657
C	-1.3327055336	-0.4852997714	 0.02105103	 0.033685
C	-2.4457973773	-0.9502265896	 0.0284183149	 0.058769
C	-3.7929820716	-1.4598056241	 0.0481042029	 0.215345
O	-4.6917680741	-0.7446741934	 0.8618868901	-0.449249
C	-4.3663924657	-2.110509799	-1.2052035492	-0.346467
C	-4.065417578	-2.9458310902	 0.0166762597	-0.024602
C	-2.9516840959	-3.9653522391	 0.0200039341	-0.412067
H	 1.0208156495	 2.0200168397	-0.0348671554	 0.115019
H	-0.5089690866	 1.9904593278	-0.933238107	 0.126546
H	-0.5244784666	 2.0453901712	 0.834919852	 0.128736
H	 0.5646865697	-0.2950589633	-0.8458608847	 0.128905
H	 0.5562929778	-0.2403113143	 0.9057683556	 0.129437
H	-4.7193464982	 0.1608896116	 0.5325978236	 0.281464
H	-5.4032140136	-1.8823379246	-1.4257599821	 0.115245
H	-3.7147358177	-2.2074755928	-2.067071931	 0.115617
H	-4.9372322872	-3.2067332649	 0.6102194449	 0.10255
H	-2.0856615108	-3.6048316204	-0.5420397265	 0.124351
H	-2.6183327731	-4.1833469205	 1.040101113	 0.122246
H	-3.2848512227	-4.9046312591	-0.4346167404	 0.115703
25.7723	71.7764	110.4509	150.1503	196.625	210.4522	243.5498	281.9257	324.8691	342.6249	370.4753	444.1595	491.5821	550.2752	578.0779	622.006	787.6681	795.8624	839.9415	888.8781	926.0904	938.0297	999.9121	1039.7198	1058.5461	1084.0125	1104.6604	1106.3286	1131.6658	1189.424	1218.0162	1285.9292	1300.2472	1348.1713	1364.1128	1402.7034	1409.3106	1421.4104	1475.8072	1476.6222	1493.3092	1495.0569	1502.1017	1505.8589	2353.5553	3017.7787	3033.5899	3044.2205	3044.7861	3095.1973	3111.5523	3117.6633	3123.0755	3131.2266	3153.4142	3226.2217	3794.3954
CCC#CC1(O)CC1C	CCC#C[C@@]1(O)C[C@H]1C	
InChI=1S/C8H12O/c1-3-4-5-8(9)6-7(8)2/h7,9H,3,6H2,1-2H3	InChI=1S/C8H12O/c1-3-4-5-8(9)6-7(8)2/h7,9H,3,6H2,1-2H3/t7-,8-/m1/s1
