18
gdb 125575	3.04552	1.36661	0.95436	1.8382	86.26	-0.2038	-0.042	0.1618	1228.4715	0.148686	-398.162523	-398.153904	-398.15296	-398.195569	32.583	
C	 0.015344363	 1.5366289522	-0.0623671649	-0.473486
C	-0.0206442157	 0.0421898839	-0.0275295973	 0.310752
C	-1.1569356732	-0.6931338247	-0.0588830101	-0.258391
C	-1.1245213647	-2.132441274	-0.0225321182	 0.338041
C	-2.3946812053	-2.9344607982	-0.0580710982	-0.474802
N	-0.0012948958	-2.7848226998	 0.0419820693	-0.255365
N	 1.1273584465	-2.0456470075	 0.0729548761	-0.310254
C	 1.2631046003	-0.6582862447	 0.0450859066	 0.309277
N	 2.3782639711	-0.0173093001	 0.0777991383	-0.557304
H	 0.6025905859	 1.8819318239	-0.9195709253	 0.151052
H	-0.9908111027	 1.9589619177	-0.1151688793	 0.112175
H	 0.5290790014	 1.9243208634	 0.8234177168	 0.151104
H	-2.1227475266	-0.1986410762	-0.1127154402	 0.099527
H	-2.9668343049	-2.7276947581	-0.9701012008	 0.131328
H	-2.164317051	-4.0002797729	-0.0226842481	 0.142219
H	-3.0426396564	-2.6856588399	 0.7905563164	 0.131341
H	 1.967921798	-2.6021139145	 0.1228712737	 0.258709
H	 3.1775908001	-0.6514233505	 0.1278455953	 0.194079
102.5865	142.2238	161.6616	199.406	272.2931	324.9616	332.3573	404.8655	463.5414	515.0657	552.5604	556.7846	652.4335	722.5214	760.6645	793.9243	796.9508	921.7916	957.0227	982.7072	1036.8954	1062.1737	1068.8904	1112.223	1167.6148	1242.0781	1267.4014	1347.3079	1407.4952	1412.8785	1428.153	1461.4979	1461.8823	1480.5038	1481.2171	1484.9075	1605.2115	1666.6082	1703.9375	3029.1888	3040.6524	3079.2876	3097.3696	3128.2219	3142.2234	3167.9348	3452.9947	3612.3328
CC1=CC(C)=NNC1=N	CC1=C(NN=C(C1)C)[NH]	
InChI=1S/C6H9N3/c1-4-3-5(2)8-9-6(4)7/h3H,1-2H3,(H2,7,9)	InChI=1S/C6H10N3/c1-4-3-5(2)8-9-6(4)7/h7,9H,3H2,1-2H3
