15
gdb 43807	2.44526	1.72556	1.19044	4.0802	66.3	-0.2737	-0.0173	0.2564	1025.4933	0.111228	-457.737694	-457.730095	-457.729151	-457.769908	28.578	
O	-0.0917101099	 0.1170557449	 0.4055549782	-0.327651
C	 0.0008888196	 1.2527315491	 0.077946583	 0.435651
O	-0.985472708	 2.0907965599	-0.4076765699	-0.298027
C	-0.0534403048	 3.1909750282	-0.5888186075	 0.399559
C	-0.0659099478	 4.0547503514	-1.7960892758	-0.32493
C	-0.4548385164	 4.6117189321	-0.4303173806	-0.338113
C	 1.0509876678	 2.3551801547	 0.0042639785	 0.125022
C	 2.1757285672	 2.6476954587	 0.8931323151	-0.252804
O	 2.3660876257	 2.2273558871	-0.4656895113	-0.248998
H	 0.8930381616	 4.3309930243	-2.2215180519	 0.139109
H	-0.8618346983	 3.8942197261	-2.5144562947	 0.141996
H	-1.5065315099	 4.8096529573	-0.2556558733	 0.142158
H	 0.2263094004	 5.2882161447	 0.0754418565	 0.127285
H	 2.4298610743	 3.6852680511	 1.1015883085	 0.132347
H	 2.4587481987	 1.9199813904	 1.6506730952	 0.147394
107.5485	169.7634	187.6874	227.3776	263.3347	341.8547	515.8345	526.0117	565.3314	643.6949	730.7704	760.2603	819.9868	856.5242	887.593	925.7144	961.4239	978.9684	1027.1263	1040.5481	1055.9787	1078.0486	1123.3502	1141.9389	1165.9369	1184.5043	1243.7144	1371.9448	1449.3124	1459.7255	1503.2522	1541.7251	1953.7093	3094.6334	3134.3595	3138.7683	3191.1795	3220.0018	3234.1726
O=C1OC2(CC2)C11CO1	O=C1OC2(CC2)[C@]21CO2	
InChI=1S/C6H6O3/c7-4-6(3-8-6)5(9-4)1-2-5/h1-3H2	InChI=1S/C6H6O3/c7-4-6(3-8-6)5(9-4)1-2-5/h1-3H2/t6-/m1/s1
