19
gdb 76860	2.39811	1.83992	1.59146	2.7718	73.2	-0.2452	0.0634	0.3086	952.0754	0.159664	-422.961206	-422.95355	-422.952606	-422.992892	30.98	
C	-0.2761813865	 1.5757963228	-0.0379189588	-0.420115
C	 0.0115832638	 0.0814525879	 0.0077935248	-0.025006
C	 1.1195967375	-0.5249872594	-0.9465967455	 0.110944
O	 1.9003607149	 0.3418552638	-1.7181215715	-0.432243
C	 1.782777902	-1.2318996557	 0.2894575018	-0.104394
C	 2.8959605738	-0.4540533114	 1.0263087873	 0.015229
O	 2.6257119937	 0.9529897755	 0.8884563249	-0.258066
C	 1.9081164796	 0.216691398	 1.8951251659	 0.010824
C	 0.7356644412	-0.5502258586	 1.2335894603	-0.081224
H	 0.6204849471	 2.1717467601	 0.1426235495	 0.129763
H	-0.6781191437	 1.8589520081	-1.0159703867	 0.12291
H	-1.0189620648	 1.8478948654	 0.7201206145	 0.108587
H	-0.9233428349	-0.4649247158	-0.1594934697	 0.073797
H	 0.6945411882	-1.2482923408	-1.6478260671	 0.084928
H	 2.3009989809	 0.9663646908	-1.0996924876	 0.296988
H	 1.9123692958	-2.3135073478	 0.2611793164	 0.073261
H	 3.9314186989	-0.7278250293	 1.1933406489	 0.111226
H	 1.9900479045	 0.6003417672	 2.9058927638	 0.108763
H	 0.1488623082	-1.1398580709	 1.9384369389	 0.073828
151.6532	180.8493	210.0158	259.1827	261.0168	383.5494	495.6	533.1985	587.7851	651.5402	680.4349	755.4416	771.561	806.368	828.5453	850.8428	883.3878	922.0804	940.1642	964.1886	1002.6453	1024.3813	1061.61	1082.2207	1104.3153	1145.5715	1169.8542	1196.8593	1205.7702	1228.4727	1231.4706	1253.9805	1295.3443	1296.5043	1326.7301	1359.1592	1379.6644	1410.1679	1457.9585	1492.6844	1508.5887	3033.4841	3039.9147	3070.1311	3097.9472	3107.4512	3119.9563	3132.2123	3175.0672	3190.3519	3766.6764
CC1C(O)C2C3OC3C12	C[C@H]1[C@@H](O)[C@H]2[C@H]3O[C@H]3[C@@H]12	
InChI=1S/C7H10O2/c1-2-3-4(5(2)8)7-6(3)9-7/h2-8H,1H3	InChI=1S/C7H10O2/c1-2-3-4(5(2)8)7-6(3)9-7/h2-8H,1H3/t2-,3+,4+,5-,6+,7-/m1/s1
