16
gdb 23611	3.39653	1.11121	0.97579	1.2826	68.97	-0.2512	-0.0046	0.2465	1213.5773	0.122588	-474.921861	-474.913475	-474.912531	-474.955497	30.269	
O	-0.2557769094	 1.3372226625	-0.2094065517	-0.387381
N	 0.0087423631	-0.005874818	 0.1003554233	-0.226959
C	-1.0378513429	-0.7038911581	 0.0177231536	 0.372697
C	-2.503339559	-0.5365803124	-0.2864944319	-0.162271
O	-2.7142642161	-1.9350175285	 0.0417830553	-0.292182
C	-1.3019746045	-2.1767491118	 0.2561500456	-0.004805
C	-0.7109185637	-3.1311272531	-0.7554366336	 0.057209
C	-1.5646656867	-4.0612204531	-1.5030221615	-0.167872
O	-1.0413412321	-2.8774539735	-2.1157732132	-0.233826
H	 0.6112550795	 1.7460254935	-0.1123429525	 0.31204
H	-3.0587541251	 0.1389969541	 0.3741442428	 0.129894
H	-2.7408206148	-0.3146682527	-1.3333201787	 0.141552
H	-1.0961136927	-2.5349180827	 1.2742287085	 0.103712
H	 0.3333397642	-3.3895304206	-0.5737000836	 0.105823
H	-1.1469324762	-4.9989916954	-1.8653783962	 0.11672
H	-2.6360050037	-4.0459908102	-1.3216821362	 0.135647
71.4423	108.0032	126.8766	206.3781	253.2692	290.4359	363.3586	384.1384	478.0898	607.2064	626.9675	753.077	791.9862	881.4816	898.657	938.8801	973.6926	985.5818	1007.385	1035.9904	1088.4521	1101.622	1134.8696	1161.8183	1170.0747	1178.3377	1250.5022	1281.7038	1315.7808	1343.4686	1413.638	1420.4869	1490.1311	1516.7063	1818.7629	3016.3788	3030.3456	3077.2778	3096.1701	3107.5513	3197.1465	3815.6173
ON=C1COC1C1CO1	ON=C1CO[C@H]1[C@H]1CO1	
InChI=1S/C5H7NO3/c7-6-3-1-9-5(3)4-2-8-4/h4-5,7H,1-2H2	InChI=1S/C5H7NO3/c7-6-3-1-9-5(3)4-2-8-4/h4-5,7H,1-2H2/t4-,5-/m1/s1
