21
gdb 117500	2.25241	0.78847	0.61068	0.6633	94.2	-0.2453	0.0419	0.2873	1899.2419	0.178627	-349.903605	-349.892105	-349.891161	-349.942403	39.719	
C	 0.0166137759	 1.5673341556	-0.1098155119	-0.386049
C	 0.0122401881	 0.0397039219	-0.0067207167	-0.174074
C	-1.4025042658	-0.5436236055	 0.0052927275	-0.1605
C	-1.4338899804	-2.0960235619	 0.1101986299	-0.36055
C	-0.8300652636	-2.5676366817	 1.3628971661	 0.355617
C	-0.3281374252	-2.9363142523	 2.3904270008	-0.477312
C	-2.7995536075	-2.6093188728	-0.046210084	 0.052096
C	-3.9280943366	-3.0030059699	-0.1851102394	 0.111088
C	-5.2898639157	-3.4918377544	-0.3471577833	-0.499487
H	 1.0376456261	 1.9609913859	-0.1205547956	 0.113268
H	-0.4810853678	 1.906867364	-1.0250714554	 0.113704
H	-0.5066154419	 2.0223434156	 0.738416309	 0.116711
H	 0.5726202029	-0.3869430461	-0.8496410695	 0.093231
H	 0.5392889089	-0.2729532975	 0.9017110845	 0.114488
H	-1.9781813457	-0.1303341586	 0.8408472398	 0.112123
H	-1.9328484286	-0.2676480068	-0.9131008529	 0.104618
H	-0.8246974408	-2.4882789049	-0.7187133302	 0.128699
H	 0.1096260059	-3.2738697495	 3.2969953649	 0.196489
H	-5.3811669212	-4.1316214244	-1.2318372627	 0.147655
H	-5.604491809	-4.0805996114	 0.5215172457	 0.150705
H	-5.9994077982	-2.6649044952	-0.4614108871	 0.147481
16.5525	70.7359	79.4206	83.7392	110.5953	184.1226	227.9285	246.9699	259.6015	309.0195	356.4717	378.5514	463.7966	537.5132	569.8016	627.2117	638.072	746.0643	797.5074	843.0711	905.0308	938.1596	1024.364	1053.1861	1053.8084	1063.2749	1110.0379	1122.6305	1178.2099	1244.3936	1275.3027	1318.4	1331.0876	1342.1723	1391.2224	1413.2131	1414.673	1478.4242	1478.6306	1482.9302	1494.2588	1499.9556	1510.9505	2237.201	2376.4289	2984.022	3017.0083	3026.8861	3028.9667	3039.2163	3060.4338	3084.4445	3087.4185	3088.5009	3099.5247	3102.5929	3504.5443
CCCC(C#C)C#CC	CCC[C@@H](C#C)C#CC	
InChI=1S/C9H12/c1-4-7-9(6-3)8-5-2/h3,9H,4,7H2,1-2H3	InChI=1S/C9H12/c1-4-7-9(6-3)8-5-2/h3,9H,4,7H2,1-2H3/t9-/m1/s1
