14
gdb 28033	6.06966	0.89046	0.78025	4.0532	67.33	-0.2185	0.0354	0.254	1340.3322	0.102445	-432.927481	-432.919517	-432.918572	-432.960719	29.036	
O	 0.8891056164	 1.0993172951	 0.7295376217	-0.421081
C	 0.3854943865	-0.0303860549	 0.210842169	 0.451188
N	 0.7163341109	-0.5926662068	-0.9210442739	-0.418742
C	-0.0850482382	-1.7226056144	-0.9926857896	 0.276305
C	 0.0203266896	-2.6348499663	-2.1812062135	-0.450053
C	-0.8903717158	-3.7752984579	-2.1001307142	 0.2746
N	-1.614687611	-4.6719072317	-2.022844821	-0.318309
C	-0.8889405035	-1.8210349263	 0.1035649876	-0.169479
N	-0.5737902733	-0.7118199173	 0.8825950289	-0.309044
H	 1.5478815079	 1.4197805343	 0.1006446364	 0.317869
H	-0.1903791673	-2.0809535011	-3.1046382711	 0.166686
H	 1.0464323746	-3.010235729	-2.2818802614	 0.166703
H	-1.6289464017	-2.5434705652	 0.4009950729	 0.155887
H	-0.9716863053	-0.4549579586	 1.7696702483	 0.277471
41.0928	112.5674	205.4807	281.3133	321.6096	384.5336	404.9792	441.7855	489.0383	490.8901	646.2372	707.6446	710.2671	741.9039	762.8238	947.1489	959.3106	1007.9597	1039.6568	1100.4875	1188.868	1212.5318	1249.6224	1273.0609	1356.1563	1384.6754	1461.2767	1562.5466	1619.6851	1630.8929	2367.4909	3031.4081	3058.719	3290.5093	3677.2951	3806.8908
OC1=NC(CC#N)=CN1	Oc1nc(CC#N)c[nH]1	
InChI=1S/C5H5N3O/c6-2-1-4-3-7-5(9)8-4/h3H,1H2,(H2,7,8,9)	InChI=1S/C5H5N3O/c6-2-1-4-3-7-5(9)8-4/h3H,1H2,(H2,7,8,9)
