23
gdb 52611	2.41941	0.97416	0.84601	1.7708	90.79	-0.2471	0.0451	0.2922	1544.8606	0.201175	-388.277792	-388.265823	-388.264878	-388.315663	42.865	
C	 0.0349732435	 1.4851813366	-0.0373141752	-0.501629
C	-0.0004933096	 0.0295396531	-0.0086427898	 0.054085
C	-0.0431052529	-1.1748079075	 0.0090670498	 0.065788
C	-0.0465050061	-2.6473644236	 0.0012028266	 0.15974
C	-1.484519964	-3.1763216676	-0.095375185	-0.404973
O	 0.5979767917	-3.1129077991	-1.1966897283	-0.454053
C	 0.7313796256	-3.1837757511	 1.2486426847	 0.035106
C	 0.1411297848	-2.7087178878	 2.5827567987	-0.403777
C	 0.8822509508	-4.7105596651	 1.2193995972	-0.409669
H	 0.8992804308	 1.8766322033	 0.5103693276	 0.147521
H	 0.0949772092	 1.8599848718	-1.0650584052	 0.150495
H	-0.8661428372	 1.9115340611	 0.4171910104	 0.150759
H	-1.9597851104	-2.7677798192	-0.9893836783	 0.129546
H	-1.4788641974	-4.2658510347	-0.1755814154	 0.124342
H	-2.0721891323	-2.8836669152	 0.7770434857	 0.121573
H	 1.4280118216	-2.6309300869	-1.2801740817	 0.276667
H	 1.7362881851	-2.7464729484	 1.1580158088	 0.064378
H	 0.0270448701	-1.6218939362	 2.6078223194	 0.123567
H	-0.8397020664	-3.1597029894	 2.7686885784	 0.114407
H	 0.7949088049	-3.001226187	 3.4107387448	 0.110229
H	 1.2358964338	-5.0501072776	 0.2437230116	 0.127339
H	 1.5992247032	-5.0327999826	 1.9813589208	 0.105396
H	-0.0669778088	-5.213045807	 1.4341946143	 0.113162
22.9552	68.5322	88.1038	122.9102	201.431	242.0825	246.8016	255.6941	269.8475	290.4325	308.8073	320.907	352.8199	400.1275	417.7961	472.5886	542.1662	589.498	655.3505	825.0363	905.5265	926.5411	933.8842	966.8252	995.2821	1051.6807	1054.5448	1071.0605	1120.6813	1147.599	1158.4456	1198.6713	1230.6357	1322.0013	1347.1669	1384.0963	1394.1804	1414.2094	1415.5062	1416.7376	1477.7547	1478.8796	1482.0066	1485.0707	1492.3702	1503.0032	1505.8774	1516.2207	2359.7068	2995.0614	3026.8581	3033.7041	3038.623	3058.9844	3087.7994	3088.281	3093.7318	3099.7929	3117.9508	3130.0156	3136.3308	3141.3468	3807.021
CC#CC(C)(O)C(C)C	CC#C[C@@](C)(O)C(C)C	
InChI=1S/C8H14O/c1-5-6-8(4,9)7(2)3/h7,9H,1-4H3	InChI=1S/C8H14O/c1-5-6-8(4,9)7(2)3/h7,9H,1-4H3/t8-/m1/s1
