16
gdb 44426	3.60886	1.51886	1.48659	4.5511	70.1	-0.2388	0.0014	0.2402	925.1697	0.125617	-437.798201	-437.791592	-437.790647	-437.828979	27.044	
O	-0.2125983829	 0.1034196039	-0.4915055456	-0.317873
C	-0.11009426	 1.2450369974	-0.1796017038	 0.370223
N	-1.0586615622	 2.3005687162	-0.0599938137	-0.36439
C	-0.1730677198	 3.048547844	 0.8518462249	 0.03294
C	 0.8470215838	 4.2573542405	 0.7654726764	-0.131797
C	 1.921864516	 3.1369812266	 1.2014164818	-0.327654
C	 1.0027243029	 2.3032548655	 0.2544751774	 0.204667
O	 1.2710085282	 2.946440696	-1.0188595146	-0.287457
C	 1.122418629	 4.347657333	-0.7241636121	-0.077033
H	-2.0470452733	 2.1325561033	 0.0745023577	 0.251465
H	-0.3439858584	 2.7912266865	 1.8999735051	 0.0991
H	 0.7099076692	 5.1740991923	 1.3377598603	 0.085679
H	 2.954227752	 3.2898991368	 0.8837846222	 0.122289
H	 1.8570132894	 2.8770602514	 2.2572397562	 0.120333
H	 0.2858779952	 4.7689553564	-1.2937572464	 0.111718
H	 2.0405790209	 4.8895843202	-0.9771707058	 0.107791
138.9993	233.376	306.2133	392.7282	438.0172	483.4735	509.2842	627.2425	678.2279	707.4202	777.6287	790.8252	831.3209	860.0437	915.759	929.0415	961.2919	978.5517	1011.3604	1038.0668	1056.4853	1090.0141	1113.1182	1130.285	1167.5113	1179.9534	1188.3622	1216.0041	1262.2933	1312.0716	1352.17	1408.2258	1479.6293	1524.359	1915.0439	3028.1219	3066.6502	3069.4367	3089.5188	3129.7675	3165.4392	3585.9881
O=C1NC2C3CC12OC3	O=C1N[C@@H]2[C@H]3C[C@@]12OC3	
InChI=1S/C6H7NO2/c8-5-6-1-3(2-9-6)4(6)7-5/h3-4H,1-2H2,(H,7,8)	InChI=1S/C6H7NO2/c8-5-6-1-3(2-9-6)4(6)7-5/h3-4H,1-2H2,(H,7,8)/t3-,4+,6-/m0/s1
