15
gdb 125605	3.39627	1.27573	0.93368	3.1354	77.79	-0.2188	-0.0297	0.1891	1184.8876	0.114066	-413.03024	-413.021535	-413.020591	-413.063576	31.443	
C	-0.0400546123	 1.4805826168	-0.060218843	-0.510245
C	-0.0158288447	-0.0101180639	 0.0325529109	 0.319662
N	-0.0154596147	-0.7818767392	-1.0563920485	-0.257058
N	-0.0006098148	-2.0369982755	-0.6170422671	-0.299073
C	 0.0158871087	-2.1155052184	 0.7564590056	 0.246387
C	 0.0478121478	-3.3241822438	 1.474593635	 0.202119
N	 0.0808402378	-4.3088870996	 2.0879054305	-0.354571
C	 0.0029096648	-0.7996709356	 1.2119151717	 0.049416
N	-0.0615606233	-0.3483840934	 2.5210000453	-0.617825
H	 0.854045632	 1.9315832072	 0.3883576736	 0.125678
H	-0.0809477142	 1.7845480392	-1.1077716758	 0.151064
H	-0.9109369747	 1.8990857394	 0.4571343609	 0.138396
H	-0.0027628763	-2.8012427867	-1.2707055165	 0.286593
H	 0.2164497587	-1.0279256859	 3.2157381041	 0.263308
H	 0.3926837252	 0.5402500992	 2.6774289533	 0.25615
108.8977	112.6454	128.6926	239.2513	249.6239	279.7784	319.7912	406.7962	409.6106	515.925	527.179	589.3241	632.4398	682.1562	721.6594	749.2988	772.5397	990.3582	1001.6126	1065.9801	1217.2394	1227.1114	1263.6624	1282.0714	1412.433	1427.6297	1481.5268	1484.9038	1499.8698	1546.207	1615.5721	1662.0526	2325.9841	3023.8769	3073.8161	3136.583	3554.7822	3651.092	3679.2593
CC1=NNC(C#N)=C1N	Cc1n[nH]c(C#N)c1N	
InChI=1S/C5H6N4/c1-3-5(7)4(2-6)9-8-3/h7H2,1H3,(H,8,9)	InChI=1S/C5H6N4/c1-3-5(7)4(2-6)9-8-3/h7H2,1H3,(H,8,9)
