16
gdb 42755	2.90268	1.27719	1.11686	5.3307	73.23	-0.2544	-0.0019	0.2525	1116.0183	0.124537	-400.731548	-400.723665	-400.722721	-400.764768	29.149	
O	-0.1048083241	-0.0178402389	 0.1379856243	-0.316747
C	-0.0775302293	 1.1694221563	 0.0644829007	 0.441065
C	-1.003200761	 2.3924918845	 0.0112507668	-0.173398
C	-0.0054385065	 3.0072693874	 1.0538872278	-0.28546
C	 0.9427069666	 2.3272230544	 0.0045640657	 0.19219
C	 2.4561219151	 2.2858709124	 0.0180948047	-0.475299
C	 3.0070727843	 1.7474264713	-1.2255888383	 0.269721
N	 3.4270404334	 1.3366023824	-2.2201455721	-0.304607
C	-0.0158760719	 2.920273522	-1.0859452804	-0.26283
H	-2.0879407429	 2.449863265	 0.0164281391	 0.106176
H	 0.0311675239	 4.0994940561	 1.0470003078	 0.114192
H	-0.01554104	 2.6039736579	 2.0682711627	 0.120446
H	 2.8659816627	 3.2912939461	 0.1706088228	 0.159408
H	 2.8031795632	 1.6689997529	 0.8553505043	 0.167245
H	-0.028456375	 2.4335085103	-2.0619509479	 0.134462
H	 0.0185867815	 4.00924938	-1.1698966477	 0.113435
47.0218	105.3148	190.7673	202.4499	312.8811	381.8725	445.8846	508.7512	520.0291	692.0832	708.7166	767.6832	796.2288	820.8075	889.3036	931.5844	954.6166	975.3546	1000.4705	1017.9147	1039.4012	1079.5936	1126.7691	1140.6493	1181.9411	1197.3503	1226.8227	1266.1833	1315.6155	1350.8913	1456.5191	1495.5741	1532.8252	1924.3503	2366.986	3038.7694	3062.4545	3068.3443	3076.8998	3135.8728	3145.5837	3166.3948
O=C1C2CC1(CC#N)C2	O=C1[C@H]2C[C@]1(CC#N)C2	
InChI=1S/C7H7NO/c8-2-1-7-3-5(4-7)6(7)9/h5H,1,3-4H2	InChI=1S/C7H7NO/c8-2-1-7-3-5(4-7)6(7)9/h5H,1,3-4H2/t5-,7+
