16
gdb 22765	1.82713	1.62945	1.04463	1.3606	74.77	-0.2557	-0.0102	0.2454	1178.5418	0.120798	-437.781682	-437.772419	-437.771475	-437.816036	33.558	
C	-0.6969590382	 1.3344201931	 0.0295116289	-0.39616
C	-0.0596448726	-0.0420127083	-0.0271086227	 0.064885
O	 1.1534780551	-0.0739548507	-0.837948195	-0.30454
C	 1.9879450208	-0.5119234398	 0.2722857276	-0.147092
C	 3.0637888241	 0.408068926	 0.597966543	 0.354468
C	 3.9535949204	 1.1722882543	 0.8578799068	-0.448338
C	 0.7504391578	-0.4996055012	 1.1611874767	 0.336213
N	 0.4439140272	-0.7596643609	 2.3555545077	-0.222099
O	 1.5597896071	-1.1692935656	 3.0958898804	-0.384254
H	 0.0183181352	 2.0762333094	 0.3934406912	 0.133912
H	-1.0333490059	 1.6301164546	-0.9686724982	 0.131893
H	-1.5628253123	 1.318100472	 0.6987742769	 0.131119
H	-0.7793621379	-0.7908914763	-0.384353862	 0.102437
H	 2.386832226	-1.5202984305	 0.0958143521	 0.129479
H	 4.7407468454	 1.8463684782	 1.0906507115	 0.20505
H	 1.1847433578	-1.3189456243	 3.9708145351	 0.313029
56.2722	105.51	142.3529	203.9868	215.1213	238.3187	311.3301	357.6387	434.2214	462.7516	514.7854	557.1503	593.2716	626.9565	675.5613	729.2035	859.6426	884.262	935.1345	991.3181	1000.7347	1062.5559	1089.8308	1114.3635	1173.8533	1222.8973	1290.4534	1322.1912	1372.3181	1400.1469	1419.8659	1483.0827	1491.1321	1812.0631	2238.1053	3011.4127	3016.8063	3042.8437	3118.0527	3129.9747	3502.6466	3813.911
CC1OC(C#C)C1=NO	C[C@H]1O[C@@H](C#C)C1=NO	
InChI=1S/C6H7NO2/c1-3-5-6(7-8)4(2)9-5/h1,4-5,8H,2H3	InChI=1S/C6H7NO2/c1-3-5-6(7-8)4(2)9-5/h1,4-5,8H,2H3/t4-,5+/m1/s1
