23
gdb 59367	2.90508	1.12365	0.91692	1.3159	88.41	-0.2292	0.0165	0.2457	1396.4666	0.204316	-388.31069	-388.300764	-388.29982	-388.345663	37.366	
C	-0.1183879371	 1.4923599046	 0.1778634286	-0.390003
C	-0.0128979975	-0.0341453607	 0.0705103882	 0.032746
C	 0.5027904114	-0.4563011397	-1.3114555982	-0.399139
C	 0.8836212541	-0.591345689	 1.1953561308	 0.088909
O	 0.3988575063	-0.1590650002	 2.4723837815	-0.292414
C	 0.2253790327	-1.2648145703	 3.3645928917	 0.093654
C	-1.1882882651	-1.2510240545	 3.946334744	-0.388546
C	 0.554954434	-2.4710572804	 2.5262687513	-0.106516
C	 0.9270658561	-2.0936843132	 1.3095963136	-0.104582
H	 0.8596322709	 1.9628226359	 0.0175408495	 0.106624
H	-0.8055133591	 1.8893920987	-0.5764808008	 0.103634
H	-0.4763540092	 1.7870723719	 1.1663640664	 0.132531
H	-1.012427156	-0.4638202238	 0.2204904254	 0.071156
H	 1.5303703637	-0.1078193074	-1.4719803385	 0.113093
H	 0.4922810184	-1.5423833299	-1.4443933868	 0.111057
H	-0.1169690031	-0.0215832176	-2.1019922973	 0.11441
H	 1.9005171141	-0.1828435356	 1.045799576	 0.072073
H	 0.945451142	-1.1639639099	 4.1955213692	 0.077917
H	-1.9295461818	-1.3754230526	 3.1516303237	 0.118724
H	-1.3137617286	-2.0593194376	 4.6747717343	 0.109318
H	-1.3763573849	-0.3004655819	 4.4535028374	 0.124914
H	 0.4930367221	-3.4840588398	 2.9043807669	 0.102828
H	 1.2357704468	-2.740984187	 0.499256353	 0.107611
52.8755	71.0589	175.4677	211.2513	224.4001	237.4799	244.7753	323.6956	327.0153	393.8079	443.6566	447.1199	549.7354	701.002	767.3472	799.9939	846.4185	858.5213	888.4727	925.1505	929.881	956.457	966.854	1013.5232	1024.6673	1085.0486	1104.6294	1131.8427	1136.1737	1139.3335	1161.447	1192.1013	1289.8506	1312.1627	1335.6949	1354.4458	1355.6107	1376.5895	1385.7102	1395.9762	1399.2319	1418.4314	1485.5459	1488.5189	1491.2403	1494.6583	1503.5933	1513.3471	1691.6095	2923.913	2943.6577	3016.9533	3025.3219	3030.691	3036.1514	3088.0829	3094.9933	3104.4339	3109.5928	3120.7552	3131.0414	3204.5338	3230.9809
CC(C)C1OC(C)C=C1	CC(C)[C@H]1O[C@@H](C)C=C1	
InChI=1S/C8H14O/c1-6(2)8-5-4-7(3)9-8/h4-8H,1-3H3	InChI=1S/C8H14O/c1-6(2)8-5-4-7(3)9-8/h4-8H,1-3H3/t7-,8-/m0/s1
