19
gdb 85266	2.55619	1.55285	1.18911	2.014	76.02	-0.2149	-0.0306	0.1843	1094.5533	0.160177	-419.192284	-419.1839	-419.182956	-419.225346	31.806	
C	-0.3287033062	 1.2055106038	 0.8917184581	-0.331261
N	 0.0250138718	 0.1402621556	-0.0441081077	-0.072631
C	-1.1241314108	-0.7027861283	-0.3983917438	-0.294496
C	-1.0910510091	-1.9057897115	 0.5513987393	 0.339654
O	-1.9347685888	-2.7549827784	 0.7120483442	-0.336855
C	 0.2537493287	-1.8710900464	 1.2202083877	 0.252968
C	 0.3177157039	-2.2163949858	 2.6731631204	-0.271137
N	 0.8483609398	-3.1323946878	 1.6677763634	-0.356299
C	 1.0417174359	-0.7858627405	 0.5015156831	-0.282878
H	 0.5615156278	 1.8016902648	 1.1123622133	 0.125504
H	-1.0645634013	 1.8671504602	 0.4251362027	 0.125746
H	-0.7491178425	 0.8523079818	 1.8509054143	 0.099634
H	-2.0719324297	-0.1630252139	-0.3410930539	 0.133591
H	-1.0250019495	-1.0827040165	-1.4261316789	 0.13442
H	 1.0626389836	-1.7215719787	 3.2908167987	 0.125942
H	-0.6161914237	-2.4704200272	 3.1681519114	 0.13211
H	 0.164177513	-3.8731632232	 1.503930687	 0.245597
H	 1.6158265551	-1.2293970672	-0.3221808341	 0.116836
H	 1.7415994322	-0.249318301	 1.1449687948	 0.113556
86.4887	93.7575	220.5419	242.6141	257.2532	304.3113	371.4827	389.0019	484.7194	549.2179	570.6007	648.2024	715.3563	827.2711	843.2416	896.8255	950.8243	966.6821	1000.9916	1028.6062	1035.1049	1070.1441	1088.5102	1109.9039	1153.1801	1158.0266	1175.5446	1259.4353	1282.8014	1291.3344	1312.3831	1327.3696	1343.7233	1401.7545	1450.5104	1464.8755	1492.8469	1496.1917	1500.5888	1505.2305	1829.0221	2941.0641	3002.687	3024.3403	3067.5445	3104.521	3105.0997	3109.9985	3113.2322	3198.1788	3446.3754
CN1CC(=O)C2(CN2)C1	CN1CC(=O)[C@]2(CN2)C1	
InChI=1S/C6H10N2O/c1-8-2-5(9)6(4-8)3-7-6/h7H,2-4H2,1H3	InChI=1S/C6H10N2O/c1-8-2-5(9)6(4-8)3-7-6/h7H,2-4H2,1H3/t6-/m0/s1
