21
gdb 58519	2.61989	1.31346	1.26806	1.0784	77.6	-0.2344	0.0714	0.3059	1147.4136	0.18031	-424.18561	-424.176234	-424.17529	-424.219177	36.419	
C	 0.1342293497	 1.3572662938	-0.326972707	-0.423906
C	 0.0492981794	-0.0872344096	 0.1627002236	 0.087937
O	 0.5905717067	-0.2521375207	 1.4716442292	-0.43641
C	-1.3757935145	-0.6662060523	 0.0984034469	 0.419303
C	-2.3441772703	-0.0159318288	 1.0777013574	-0.459758
O	-1.9209524574	-0.5785990444	-1.2647424018	-0.341175
C	-2.1961566292	-1.9825502928	-1.2581672092	 0.103417
C	-0.9358133667	-2.7804998097	-1.1906863764	-0.316756
C	-1.5263401281	-2.1958391094	 0.0767249783	-0.16586
H	 1.1777087394	 1.6835531551	-0.3484749062	 0.121255
H	-0.286707594	 1.442129182	-1.3319632171	 0.143807
H	-0.4198894201	 2.0391659321	 0.3292697241	 0.106226
H	 0.6840596924	-0.7052284521	-0.4797892726	 0.086199
H	 0.2614908368	 0.4676436407	 2.0199152464	 0.280429
H	-2.4561565564	 1.0522473528	 0.8715899246	 0.123957
H	-3.3293137465	-0.4812873345	 0.9924927087	 0.1255
H	-1.9937866016	-0.1461772448	 2.1065690154	 0.115773
H	-3.139614025	-2.3153627653	-1.6749447241	 0.100507
H	-1.0595902025	-3.8560295185	-1.2762642656	 0.114641
H	-0.024033359	-2.3910396888	-1.6329950657	 0.117923
H	-1.818279303	-2.7999925248	 0.9248915313	 0.096988
71.7506	180.0344	193.5114	221.3069	241.9807	273.2481	289.3496	321.8586	344.1644	443.1178	468.5124	488.2316	524.7631	672.0989	762.2524	799.1969	858.2776	885.7834	908.0984	938.9489	971.4936	976.3742	1011.0356	1032.9081	1048.5682	1056.0982	1077.214	1086.628	1106.1018	1128.1235	1171.1433	1214.9661	1266.1142	1286.507	1298.5431	1353.641	1376.1404	1399.2994	1402.2498	1414.9176	1475.8589	1484.1446	1493.9208	1497.6472	1499.911	3031.1316	3043.2789	3061.5993	3102.6317	3115.5404	3120.4798	3122.7725	3131.1992	3177.5801	3201.3473	3210.6152	3812.7007
CC(O)C1(C)OC2CC12	C[C@@H](O)[C@@]1(C)O[C@H]2C[C@@H]12	
InChI=1S/C7H12O2/c1-4(8)7(2)5-3-6(5)9-7/h4-6,8H,3H2,1-2H3	InChI=1S/C7H12O2/c1-4(8)7(2)5-3-6(5)9-7/h4-6,8H,3H2,1-2H3/t4-,5-,6+,7-/m1/s1
