14
gdb 42596	3.34096	2.03446	1.82329	2.778	62.34	-0.2387	-0.035	0.2038	771.7977	0.103629	-436.640422	-436.63494	-436.633996	-436.670203	22.947	
O	 0.0358891624	 0.0113171126	-0.069131154	-0.316836
C	-0.0136263213	 1.2020703232	 0.0072174971	 0.502585
C	-1.1795441785	 2.1936154597	 0.036195365	-0.177722
C	-0.5941414253	 3.3430112264	 0.9318325338	 0.063699
O	 0.7150501011	 2.9040126341	 1.3061024082	-0.25543
C	 1.0904106326	 2.2852029907	 0.0585239453	-0.096621
C	 0.5781099033	 3.2501038296	-1.0237448628	-0.059866
C	-0.40746669	 4.1383333504	-0.3736562232	-0.050085
N	-0.9230124005	 3.0181848555	-1.2169130944	-0.158913
H	-2.1954033376	 1.8298174592	 0.1451350072	 0.106003
H	-1.137321924	 3.7383477703	 1.7852855505	 0.104506
H	 2.1318395685	 1.9808761909	 0.053885588	 0.107476
H	 1.1329237055	 3.5150216105	-1.9121541801	 0.120501
H	-0.5788259662	 5.183580757	-0.5988943607	 0.110704
152.0627	383.3915	515.1664	561.0823	572.2399	669.147	706.3103	762.7925	791.7456	820.084	848.5158	853.1128	881.4305	902.595	932.2592	945.3917	964.8573	1005.9303	1027.315	1057.0595	1122.4975	1148.5843	1175.7673	1198.7846	1208.3078	1228.2015	1243.4406	1289.8823	1309.3009	1345.4313	1897.7602	3167.7735	3187.146	3189.5097	3194.2765	3228.9011
O=C1C2C3OC1C1C3N21	O=C1[C@H]2[C@H]3O[C@@H]1[C@@H]1[C@H]3N21	
InChI=1S/C6H5NO2/c8-4-3-5-1-2(7(1)3)6(4)9-5/h1-3,5-6H	InChI=1S/C6H5NO2/c8-4-3-5-1-2(7(1)3)6(4)9-5/h1-3,5-6H/t1-,2+,3+,5+,6-,7?/m1/s1
