17
gdb 33442	2.48708	1.57328	1.13152	1.1882	85.63	-0.2358	0.0279	0.2637	1104.3776	0.133896	-347.452525	-347.444062	-347.443117	-347.485138	33.146	
C	 0.0757967913	-1.1818337583	 0.033354959	-0.451468
C	 0.0477358135	 0.020398592	 0.0326418092	 0.248883
C	 0.0272974703	 1.4618714595	 0.0399755801	 0.00857
C	-1.0657358403	 2.067007057	-0.6822652227	 0.218741
C	-1.9725030004	 2.5808717851	-1.2812835565	-0.405669
C	 0.4862007398	 2.2640101561	 1.2692642306	-0.083154
C	 1.5845684278	 1.5096657107	 2.0245452772	-0.250148
C	 2.4553466762	 1.5285783529	 0.7225061199	-0.250155
C	 1.3277313345	 2.2823455621	 0.0110214705	-0.083131
H	 0.0869338523	-2.2435496633	 0.0256768563	 0.193721
H	-2.7768804178	 3.025211899	-1.8129159001	 0.191417
H	-0.1796475603	 3.0183298604	 1.6691965672	 0.104937
H	 2.0219489743	 2.1103620212	 2.8243750944	 0.10918
H	 1.308200005	 0.5297253442	 2.4206002832	 0.117075
H	 3.3534713542	 2.13925799	 0.833436029	 0.109174
H	 2.7288829464	 0.560585661	 0.2962503588	 0.117087
H	 1.4328266234	 3.0534695205	-0.7417205063	 0.104939
129.4079	143.1209	160.8366	173.7792	300.9447	348.4917	444.2453	481.2864	563.4213	567.5182	581.9055	592.1087	601.4419	656.6712	658.8944	734.3466	781.3387	863.1424	864.6943	929.9527	960.1227	977.4729	1014.8278	1028.8893	1093.5512	1098.2759	1170.1395	1222.1001	1239.9757	1249.2033	1278.2873	1289.2727	1354.9995	1472.4863	1493.1681	2233.8082	2239.2204	3066.7601	3072.4995	3114.0341	3130.5237	3189.0385	3200.6393	3502.461	3504.1861
C#CC1(C#C)C2CCC12	C#CC1(C#C)[C@H]2CC[C@@H]12	
InChI=1S/C9H8/c1-3-9(4-2)7-5-6-8(7)9/h1-2,7-8H,5-6H2	InChI=1S/C9H8/c1-3-9(4-2)7-5-6-8(7)9/h1-2,7-8H,5-6H2/t7-,8+
