23
gdb 97551	3.02958	0.71611	0.68423	0.9508	92.52	-0.2392	0.0527	0.2919	1853.6465	0.201375	-388.26185	-388.249962	-388.249017	-388.301006	41.703	
C	 0.0046702535	 1.5600053171	 0.0448280192	-0.362747
C	 0.0429419044	 0.0224106151	-0.0239676972	-0.317686
C	 0.7027224452	-0.4807295835	-1.2247772371	 0.084994
C	 1.2626977787	-0.8649324854	-2.219074122	 0.068656
C	 1.9042357243	-1.366590186	-3.4425065195	 0.170121
C	 1.9203582855	-2.9091002584	-3.4105043788	-0.413563
C	 1.1261897784	-0.8529332318	-4.6720176339	-0.412297
O	 3.2367067284	-0.8264325718	-3.4069318479	-0.273084
C	 4.1058888573	-1.1711310484	-4.4626797194	-0.238854
H	 1.0167720083	 1.9731712788	 0.0366924284	 0.131647
H	-0.5344436372	 1.9737639227	-0.8116925128	 0.126384
H	-0.4961535847	 1.8890238821	 0.9603654095	 0.112108
H	 0.5536153282	-0.3715082084	 0.864203607	 0.128999
H	-0.9806094923	-0.3720814691	 0.0192552673	 0.126443
H	 0.902915502	-3.2896081595	-3.2907240776	 0.124955
H	 2.3277938597	-3.3212758675	-4.3383227622	 0.111733
H	 2.5236621907	-3.2593824384	-2.5695088562	 0.129594
H	 1.1710624817	 0.237992856	-4.7128584211	 0.129076
H	 1.5355511412	-1.2617100449	-5.6004606688	 0.111448
H	 0.0783827495	-1.1560087964	-4.6037118689	 0.124358
H	 4.312840896	-2.24924965	-4.5121743839	 0.105309
H	 3.7392137152	-0.8429024907	-5.4454121577	 0.104579
H	 5.0467063561	-0.6527232817	-4.2599053765	 0.127829
12.4154	47.0616	78.7389	96.0138	183.0999	187.728	216.0613	258.1478	269.8297	299.2095	327.911	357.0685	381.7564	408.201	489.8765	546.5521	572.6736	660.4387	785.4471	797.4874	910.0697	915.2402	956.9166	1011.3483	1064.8804	1094.0101	1104.5822	1112.3351	1171.6676	1177.3889	1179.6198	1213.452	1286.415	1299.0684	1350.5935	1385.5329	1404.6979	1408.541	1471.7097	1474.4843	1475.6766	1478.7772	1494.6245	1498.1791	1498.732	1504.733	1505.7351	1514.1074	2368.3922	2991.7097	3018.6699	3037.497	3044.0635	3045.6304	3047.7141	3049.0972	3107.1748	3115.886	3117.1808	3121.9794	3124.7223	3131.2813	3133.5924
CCC#CC(C)(C)OC	CCC#CC(C)(C)OC	
InChI=1S/C8H14O/c1-5-6-7-8(2,3)9-4/h5H2,1-4H3	InChI=1S/C8H14O/c1-5-6-7-8(2,3)9-4/h5H2,1-4H3
