13
gdb 17762	3.12426	2.7657	1.90478	0.8787	56.5	-0.2088	0.0552	0.264	698.8949	0.094251	-398.450588	-398.444263	-398.443319	-398.480592	25.175	
O	-0.1632962627	 1.3569985539	-0.0406417025	-0.441628
C	-0.0047497613	 0.0046896169	-0.0327084885	 0.314451
C	 0.9154097	-0.9848515211	-0.8182631518	-0.133107
C	-0.1670803587	-2.0079660794	-0.8283231141	-0.133108
N	 0.8296644035	-1.9893847984	 0.2998452793	-0.164639
C	-0.0752491358	-1.0396360763	 1.0774242962	-0.208412
C	-1.1109053379	-1.0407684577	-0.0430188804	 0.314449
O	-2.4519929816	-0.8061080442	-0.061985215	-0.441628
H	 0.5495895215	 1.7573174516	 0.4712428159	 0.295936
H	 1.8017118205	-0.8707326057	-1.4334959568	 0.098437
H	-0.3248775727	-2.8806770748	-1.4532563431	 0.098437
H	-0.1404146733	-0.9813366422	 2.1570777792	 0.104879
H	-2.8968567515	-1.4999986527	 0.4391129916	 0.295935
191.0733	280.3443	305.5827	355.3924	411.3745	417.3102	603.7998	663.3769	712.5415	754.4062	769.2468	785.3956	863.0903	884.2261	903.3574	960.2444	973.5223	991.0306	1011.3224	1084.7126	1172.1084	1194.5994	1209.5629	1272.4541	1294.6727	1302.6959	1404.7826	1524.6935	3158.9473	3172.8416	3188.9481	3776.8678	3776.9128
OC12C3C4N3C1C24O	O[C@@]12[C@@H]3[C@H]4N3[C@@H]1[C@@]24O	
InChI=1S/C5H5NO2/c7-4-1-2-5(4,8)3(4)6(1)2/h1-3,7-8H	InChI=1S/C5H5NO2/c7-4-1-2-5(4,8)3(4)6(1)2/h1-3,7-8H/t1-,2+,3-,4-,5+,6?
