18
gdb 105502	1.94657	1.82389	1.17267	2.0942	67.86	-0.2387	0.0146	0.2533	1089.4156	0.147761	-476.233765	-476.224805	-476.223861	-476.267849	33.247	
N	 0.176654478	 1.2080330783	-0.6536895975	-0.530578
C	 0.2297263846	 0.0066491901	-0.0297894132	 0.369424
O	 1.231422976	-0.4371144598	 0.5017164987	-0.370769
C	-1.1090651798	-0.7680827317	-0.0111537961	 0.309609
C	-1.9115114524	-0.6844508962	-1.312580543	-0.14502
O	-2.474368467	 0.6137747343	-1.4602615193	-0.415775
C	-1.0228853952	-2.1482232462	 0.6645156325	-0.342975
C	-1.9663121494	-1.5474842753	 1.723339718	-0.070064
O	-1.9577765535	-0.2524913492	 1.0649194999	-0.341862
H	 1.0030422803	 1.7831490485	-0.6549176025	 0.257599
H	-0.6806196437	 1.5242855779	-1.0848480753	 0.271255
H	-1.2786842301	-0.8682256959	-2.1862403261	 0.125658
H	-2.7038881581	-1.4465569491	-1.2954912258	 0.09897
H	-2.9246805782	 0.7835349177	-0.6199386232	 0.299683
H	-1.4216624232	-2.9802383251	 0.0818881352	 0.106586
H	-0.0186275875	-2.3740398849	 1.0178269967	 0.150427
H	-2.9768294407	-1.9694648465	 1.7623132787	 0.106578
H	-1.5651515201	-1.4784513471	 2.7392175724	 0.121254
53.0964	85.8114	158.1794	219.2881	259.3953	280.8863	348.6128	387.7355	398.5555	454.0399	573.8946	611.9343	673.5484	696.8818	784.389	797.9265	837.6469	879.4089	955.823	989.3285	1002.4225	1047.982	1065.7383	1123.7352	1156.6936	1175.8967	1196.215	1220.1002	1258.3912	1271.2538	1345.7117	1352.2851	1401.7886	1433.548	1482.4215	1498.0359	1528.216	1615.3271	1791.6689	2999.0858	3033.6967	3082.1653	3089.0802	3090.3211	3165.0316	3542.6232	3702.3098	3741.3191
NC(=O)C1(CO)CCO1	NC(=O)[C@@]1(CO)CCO1	
InChI=1S/C5H9NO3/c6-4(8)5(3-7)1-2-9-5/h7H,1-3H2,(H2,6,8)	InChI=1S/C5H9NO3/c6-4(8)5(3-7)1-2-9-5/h7H,1-3H2,(H2,6,8)/t5-/m0/s1
