16
gdb 99073	4.4037	0.75662	0.73817	4.1532	66.82	-0.2892	-0.0065	0.2827	1537.7619	0.12183	-475.058801	-475.048829	-475.047885	-475.095136	33.555	
C	-0.0399992477	 1.36574433	-0.2750618122	-0.245178
O	-0.1545749185	-0.0664527286	-0.2977988623	-0.228135
C	-1.2807051161	-0.5595664407	 0.2393708423	 0.454186
O	-2.162938006	 0.1123218981	 0.7097355195	-0.357241
C	-1.2907532666	-2.0784073404	 0.2040383213	-0.342368
C	-2.6946164928	-2.5802433614	-0.1727764455	-0.009806
O	-3.0535166293	-2.2340876667	-1.4956302185	-0.40805
C	-2.8044909174	-4.0354090688	 0.0510027507	 0.257631
N	-2.8686248137	-5.1798848261	 0.1964144207	-0.312601
H	 0.9130669465	 1.5927209754	-0.7517264525	 0.13919
H	-0.865698552	 1.8225132755	-0.82530026	 0.149759
H	-0.0534105102	 1.734504764	 0.7533115516	 0.146034
H	-0.5381144699	-2.4573323921	-0.491559386	 0.134207
H	-1.0274232526	-2.4388444349	 1.2051653064	 0.157569
H	-3.418062397	-2.0689989994	 0.4699439176	 0.167847
H	-2.4963483965	-2.7330264939	-2.1045996332	 0.296956
35.9447	64.3486	107.9732	119.4127	172.7431	198.402	254.7779	292.8321	338.2794	387.493	410.3406	545.582	589.8823	635.6877	719.0771	873.7785	900.63	951.9061	1013.9558	1061.8854	1101.4652	1164.4985	1178.6465	1209.7008	1241.1559	1291.1922	1311.8099	1379.4541	1424.3185	1459.3702	1474.4438	1481.6811	1495.7933	1822.8436	2357.1125	3055.187	3056.962	3082.4283	3115.9094	3134.655	3166.3643	3797.4153
COC(=O)CC(O)C#N	COC(=O)C[C@@H](O)C#N	
InChI=1S/C5H7NO3/c1-9-5(8)2-4(7)3-6/h4,7H,2H2,1H3	InChI=1S/C5H7NO3/c1-9-5(8)2-4(7)3-6/h4,7H,2H2,1H3/t4-/m1/s1
