14
gdb 129426	2.73544	1.60705	1.01348	0.9326	68.26	-0.2205	-0.0429	0.1775	1077.3805	0.101893	-470.03445	-470.026228	-470.025284	-470.067357	30.164	
N	-0.1258424656	 1.317922573	-0.0037529439	-0.543246
C	 0.0254195884	-0.0319990192	 0.0215746148	 0.336091
O	 1.1169374968	-0.5948939646	 0.0161270448	-0.395272
C	-1.2060513717	-0.8201501405	 0.0457930589	 0.281166
C	-1.3480527725	-2.1844298759	 0.0587601664	 0.112555
N	-0.3595670804	-3.1333714724	 0.1615976265	-0.610468
C	-2.7654000818	-2.3544118037	 0.0256981035	-0.019815
N	-3.4015583161	-1.2080056989	-0.0020672979	-0.128991
O	-2.4335322099	-0.2289060748	 0.0187110483	-0.243065
H	 0.6987214692	 1.8931275378	-0.0323681533	 0.267586
H	-1.0361125058	 1.7449332674	-0.00529407	 0.277485
H	 0.5630850256	-2.7471843308	-0.0025612171	 0.278021
H	-0.5352337013	-4.012320892	-0.3004532113	 0.253132
H	-3.3335904249	-3.2740199656	 0.0222599402	 0.13482
93.3468	135.3774	176.9849	178.3814	315.088	329.5404	375.8575	438.6197	504.3085	545.0561	630.1482	638.9636	678.2151	695.9607	729.4466	790.1094	889.0037	948.6048	975.2885	1069.7025	1082.6009	1195.9287	1232.2416	1243.66	1386.4309	1470.1928	1525.6963	1608.6109	1614.0971	1687.8455	1750.3942	3243.0913	3531.0961	3608.4472	3660.419	3746.9139
NC(=O)C1=C(N)C=NO1	NC(=O)c1c(N)cno1	
InChI=1S/C4H5N3O2/c5-2-1-7-9-3(2)4(6)8/h1H,5H2,(H2,6,8)	InChI=1S/C4H5N3O2/c5-2-1-7-9-3(2)4(6)8/h1H,5H2,(H2,6,8)
