13
gdb 11698	4.05171	1.70549	1.37221	3.4319	60.91	-0.2577	-0.0478	0.2099	861.0392	0.094411	-398.596024	-398.588956	-398.588012	-398.627588	25.663	
O	 0.0315484451	-0.0204355296	-0.0426055354	-0.273505
C	 0.0422916804	 1.1873808876	-0.0905384178	 0.069764
C	 1.2632863372	 1.9858752403	 0.0106891923	 0.299472
C	 1.3818199452	 3.4390734986	 0.3804032533	-0.318678
C	 1.7996728913	 3.0237211781	-1.0079247936	-0.268884
C	 3.0749545574	 2.1629246488	-0.980488441	 0.440974
O	 4.0674329994	 2.1123442057	-1.6446367163	-0.332501
N	 2.6021141329	 1.3865104485	 0.0819264707	-0.399068
H	-0.887495701	 1.7845038999	-0.2102775901	 0.082836
H	 0.4592846465	 4.0122623376	 0.4210388871	 0.139398
H	 2.1279703506	 3.6977432917	 1.1243360351	 0.147398
H	 1.3176574302	 3.3947070702	-1.9012894769	 0.140386
H	 2.7715230047	 0.4008140925	 0.2209569626	 0.272407
77.9883	168.1822	205.4329	282.3372	342.0629	422.5209	471.169	542.751	658.2691	713.2616	758.2513	837.9617	896.055	935.1563	961.9204	984.6275	1037.802	1078.1904	1091.2913	1137.887	1215.6838	1247.9712	1272.632	1389.1945	1438.8182	1475.703	1796.1104	1909.3175	2900.6836	3121.2701	3216.1411	3229.3601	3625.8036
O=CC12CC1C(=O)N2	O=C[C@]12C[C@H]1C(=O)N2	
InChI=1S/C5H5NO2/c7-2-5-1-3(5)4(8)6-5/h2-3H,1H2,(H,6,8)	InChI=1S/C5H5NO2/c7-2-5-1-3(5)4(8)6-5/h2-3H,1H2,(H,6,8)/t3-,5+/m0/s1
