16
gdb 47872	2.33966	1.83284	1.20154	4.6288	67.07	-0.2553	-0.0616	0.1937	1019.033	0.12505	-475.029483	-475.021532	-475.020588	-475.062709	29.023	
N	 0.06519691	 1.1220087539	 0.4212944866	-0.456507
C	-0.0416638916	 0.0020190943	-0.1505818375	 0.295189
O	 0.8680426856	-0.4701759333	-1.0650050552	-0.263622
C	 1.3956184953	-1.7953020192	-0.9041834437	 0.002145
O	 0.5223992745	-2.6937437636	-0.3191500382	-0.221401
C	-0.6540790902	-2.9913072654	-1.0711032022	-0.081935
C	-1.5991856821	-1.7735492174	-1.1651889356	-0.336052
C	-1.3264766115	-0.8171367063	-0.0073703657	 0.351498
O	-2.0630619381	-0.6764268423	 0.9314563702	-0.274472
H	 0.9610026631	 1.5535479846	 0.1793634837	 0.232363
H	 1.6928516975	-2.0968407766	-1.9180044444	 0.111225
H	 2.2680091907	-1.7504260066	-0.2439664888	 0.128627
H	-0.3816365864	-3.3660165427	-2.0672751613	 0.109981
H	-1.1360119629	-3.7989195339	-0.5170601282	 0.138158
H	-1.438772786	-1.2376498169	-2.1060815973	 0.13141
H	-2.6420737478	-2.0907597785	-1.1112986823	 0.133396
55.5792	91.9576	158.0333	258.2509	340.0896	366.759	392.8312	437.5148	522.5198	584.4852	689.4059	716.0129	813.4849	832.8464	906.5253	927.8233	950.3578	1011.2409	1036.4789	1055.7329	1142.9783	1170.0022	1181.7653	1239.7754	1262.304	1309.6816	1317.0139	1337.7044	1402.2975	1455.616	1475.019	1499.5758	1518.1827	1729.4511	1835.0999	3011.2724	3015.1968	3059.3899	3081.3868	3111.0089	3132.3306	3455.8203
N=C1OCOCCC1=O	[NH][C]1OCOCCC1=O	
InChI=1S/C5H7NO3/c6-5-4(7)1-2-8-3-9-5/h6H,1-3H2	InChI=1S/C5H7NO3/c6-5-4(7)1-2-8-3-9-5/h6H,1-3H2
