18
gdb 76983	2.92104	1.44374	1.21082	1.5011	72.35	-0.2504	-0.0541	0.1963	1073.4728	0.146179	-439.046201	-439.037467	-439.036523	-439.079435	32.646	
C	-0.0382863469	 1.4873225802	-0.0120400086	-0.502234
C	-0.0571915637	-0.0087556925	-0.1024627553	 0.333929
C	-1.0017359259	-0.8645885451	 0.633998444	-0.306255
N	 0.4247108376	-0.9150757625	 1.0446695725	-0.19465
C	 1.1334345653	-1.7848521246	 0.0085918194	-0.102597
C	 0.6414968793	-3.2055298736	-0.0013869709	 0.162567
O	-0.2719656365	-3.6023320229	-0.6946754991	-0.264889
C	 0.7195049673	-0.8231933878	-1.1487438488	 0.055876
O	 0.0765090381	-1.3109374931	-2.2885653394	-0.435616
H	 0.9760958973	 1.8804215892	-0.1384763561	 0.12417
H	-0.668351651	 1.9218350874	-0.7966637675	 0.135649
H	-0.4176912614	 1.827523402	 0.9556992445	 0.130421
H	-1.6157213244	-0.3795252922	 1.386618648	 0.127235
H	-1.465772485	-1.7298027111	 0.170017625	 0.133849
H	 2.203585544	-1.770491017	 0.2309336516	 0.097708
H	 1.139060451	-3.8951488574	 0.7122950453	 0.10923
H	 1.5892099686	-0.2549494712	-1.4940238737	 0.097145
H	-0.4262869337	-2.0939834577	-2.023992871	 0.298461
94.8362	126.6378	166.3077	202.169	241.079	264.2553	298.6273	408.0293	470.7238	512.9847	543.8831	622.8299	688.2877	756.4492	773.9555	830.6252	854.8934	927.8464	983.3043	997.0134	1039.6995	1075.1805	1083.8048	1116.1725	1138.9616	1169.423	1228.5732	1249.5389	1281.3686	1330.4101	1368.671	1392.1312	1421.4463	1422.346	1468.2202	1482.6609	1491.3514	1507.9781	1784.3944	2915.1452	3030.3552	3057.3052	3078.2018	3093.972	3112.2857	3123.2344	3207.0365	3730.6243
CC12CN1C(C=O)C2O	C[C@]12CN1[C@@H](C=O)[C@H]2O	
InChI=1S/C6H9NO2/c1-6-3-7(6)4(2-8)5(6)9/h2,4-5,9H,3H2,1H3	InChI=1S/C6H9NO2/c1-6-3-7(6)4(2-8)5(6)9/h2,4-5,9H,3H2,1H3/t4-,5+,6+,7?/m0/s1
