20
gdb 102761	3.32905	0.83604	0.73944	3.8028	76.64	-0.2433	-0.0323	0.211	1563.2714	0.169344	-440.253354	-440.243685	-440.24274	-440.288888	34.583	
O	-0.142034683	 1.4004008989	-0.3242255567	-0.427577
C	-0.0711588284	 0.0205081394	-0.0464005532	-0.074629
C	-1.4569762261	-0.643208706	 0.0125282305	-0.110248
C	-1.3790853192	-2.1736829292	 0.1548003402	-0.174843
N	-2.6952781504	-2.7785251843	-0.0077131419	-0.065607
C	-3.0650860938	-3.1739274919	-1.3642945405	-0.222578
C	-2.7208569414	-4.1977575649	-0.3391993525	-0.220425
C	-2.3149826873	-0.0484619073	 1.1142451395	 0.162809
O	-2.0731606953	 0.9974351981	 1.6755300598	-0.271298
H	-0.6413119703	 1.7837976179	 0.4096396113	 0.2943
H	 0.5150790196	-0.4359041684	-0.851724143	 0.104465
H	 0.4631874128	-0.1784245173	 0.8976122758	 0.09086
H	-1.9818886618	-0.4212726689	-0.9299560713	 0.117053
H	-0.6467684839	-2.5635404273	-0.5754413806	 0.091226
H	-1.0050390383	-2.4413604007	 1.1512722795	 0.114042
H	-4.0992024559	-2.9979529879	-1.6448376481	 0.123815
H	-2.3402835875	-3.0054318048	-2.1596362123	 0.115107
H	-1.7667089867	-4.7101445697	-0.4526627545	 0.114072
H	-3.4986152243	-4.7828645072	 0.142483597	 0.123859
H	-3.2065745287	-0.6466645983	 1.3885855812	 0.115597
60.4354	70.168	110.3772	131.7473	162.0981	233.5267	313.0167	337.6637	349.7196	413.5575	480.2858	592.2005	657.7824	769.7999	823.4688	843.7865	900.5856	917.3333	931.0634	1021.8256	1030.7595	1076.985	1091.131	1113.9515	1118.5876	1122.2741	1129.4995	1172.7274	1191.1107	1220.5028	1245.186	1280.2421	1322.4078	1355.1857	1386.0672	1392.5851	1418.5738	1453.7111	1488.7852	1497.6455	1505.9396	1523.7722	1798.0434	2935.3834	2945.2013	2967.2505	3000.8758	3042.5242	3062.8106	3094.8165	3099.77	3181.1014	3194.9909	3752.4102
OCC(CN1CC1)C=O	OC[C@@H](CN1CC1)C=O	
InChI=1S/C6H11NO2/c8-4-6(5-9)3-7-1-2-7/h4,6,9H,1-3,5H2	InChI=1S/C6H11NO2/c8-4-6(5-9)3-7-1-2-7/h4,6,9H,1-3,5H2/t6-/m0/s1
