20
gdb 7356	4.31582	0.96534	0.9375	3.4249	72.97	-0.2402	-0.0094	0.2308	1368.3204	0.17342	-386.149151	-386.138963	-386.138019	-386.185521	34.936	
C	-0.0847816932	 1.4122419806	-0.0905883713	-0.225312
O	 0.1105746715	 0.0274203257	 0.0772017806	-0.209443
C	 0.5655538955	-0.6011638794	-1.0790256013	-0.163871
C	 0.7437980782	-2.097336284	-0.85554121	 0.372813
O	 0.46476539	-2.6379303152	 0.1855461758	-0.303879
C	 1.3191516901	-2.8701268706	-2.0465651904	-0.075908
C	 2.7607954037	-3.2943773807	-1.708424308	-0.381008
C	 0.4355253786	-4.0862857541	-2.3592102096	-0.382277
H	 0.8491656726	 1.9277507195	-0.365751334	 0.104449
H	-0.8369105118	 1.628845663	-0.8659076506	 0.104838
H	-0.4381330855	 1.8066198706	 0.8646713659	 0.134772
H	-0.1356226913	-0.4699776582	-1.9264404368	 0.106463
H	 1.5318889432	-0.1865759059	-1.4259728841	 0.105003
H	 1.3453249643	-2.204953457	-2.9195730881	 0.07278
H	 3.1999004971	-3.8530392302	-2.5406138439	 0.116386
H	 3.4023994206	-2.4302646635	-1.506663007	 0.11506
H	 2.7647018378	-3.9332100257	-0.8205623121	 0.140565
H	-0.5704938877	-3.7838748618	-2.6671031778	 0.114605
H	 0.8723324908	-4.6823598383	-3.1662213927	 0.111572
H	 0.3403887056	-4.714802225	-1.4699221446	 0.142392
16.9944	88.6929	109.0264	143.9004	212.2038	230.2164	247.2438	251.9872	285.9721	300.7083	374.3181	441.4867	584.8191	660.1045	829.3485	889.5331	929.9901	969.114	987.2737	990.688	1080.3829	1115.037	1124.3766	1175.1771	1183.6527	1199.2132	1241.9375	1259.2087	1338.6354	1364.6545	1390.7189	1404.066	1414.7982	1464.2758	1485.5332	1486.9756	1490.5043	1490.7699	1501.5674	1512.5219	1515.492	1829.1906	2920.2597	2937.2929	2969.8854	3013.8104	3021.0528	3034.746	3039.4491	3102.3773	3105.768	3118.4235	3120.5823	3126.4434
COCC(=O)C(C)C	COCC(=O)C(C)C	
InChI=1S/C6H12O2/c1-5(2)6(7)4-8-3/h5H,4H2,1-3H3	InChI=1S/C6H12O2/c1-5(2)6(7)4-8-3/h5H,4H2,1-3H3
