20
gdb 89328	1.94019	1.74013	1.10331	1.5006	88.01	-0.2167	0.0318	0.2485	1186.8142	0.169157	-365.951472	-365.942108	-365.941164	-365.984992	36.07	
C	-0.076122826	 1.5780671007	 0.0753766421	-0.41257
C	 0.0310493927	 0.0650053471	-0.0334595394	-0.03411
C	 1.1351992785	-0.5544810669	-0.966012167	-0.28512
C	 1.7155917323	-1.2995311192	 0.2448420983	 0.264206
C	 2.3437408551	-2.6572546109	 0.2608446328	-0.502892
N	 2.1018474796	-0.243765554	 1.2004575266	-0.409333
C	 0.6723345272	-0.6944116076	 1.1492339614	 0.170678
C	 0.0261186998	-1.2346501257	 2.2918196776	 0.173038
C	-0.5433870771	-1.6907106944	 3.2505319323	-0.414986
H	 0.8886220968	 2.0089684679	 0.3551077099	 0.137469
H	-0.3875835806	 2.0159011249	-0.8791984296	 0.110266
H	-0.8143277333	 1.8658876706	 0.8317135141	 0.117111
H	-0.9416456921	-0.3785481027	-0.2636465167	 0.079399
H	 0.7197395569	-1.2210627281	-1.7251392249	 0.100411
H	 1.8211257294	 0.1551917046	-1.4358037371	 0.105646
H	 3.3637626438	-2.6241121386	-0.1401211188	 0.129972
H	 2.3910877373	-3.0526660428	 1.2810673899	 0.127188
H	 1.7683677437	-3.3625132999	-0.3476299492	 0.127801
H	 2.5174874354	-0.7026592777	 2.0118614242	 0.229655
H	-1.0435022095	-2.0922262776	 4.0966476935	 0.18617
106.4086	138.0601	162.8861	201.2058	221.617	239.6238	328.9121	353.0754	406.2085	481.7488	538.6324	549.3077	569.4773	588.525	658.7726	666.2743	728.7914	824.6491	840.1719	896.1371	926.3399	974.9904	1026.9887	1060.6585	1102.5262	1108.0073	1129.8423	1138.2461	1185.2414	1231.6375	1238.5851	1302.8215	1345.6593	1359.7196	1400.626	1409.0931	1440.9683	1482.0922	1484.2679	1491.291	1497.2715	1504.5631	2225.0597	3025.2131	3033.1576	3060.1973	3068.6809	3088.5372	3094.9689	3102.4299	3118.5933	3124.6399	3466.1033	3502.0508
CC1CC2(C)NC12C#C	C[C@H]1C[C@@]2(C)N[C@@]12C#C	
InChI=1S/C8H11N/c1-4-8-6(2)5-7(8,3)9-8/h1,6,9H,5H2,2-3H3	InChI=1S/C8H11N/c1-4-8-6(2)5-7(8,3)9-8/h1,6,9H,5H2,2-3H3/t6-,7+,8-/m0/s1
