12
gdb 130587	3.58032	1.6516	1.13023	2.2291	67.51	-0.2511	-0.109	0.1421	955.9628	0.079464	-435.484636	-435.47848	-435.477536	-435.515289	23.624	
O	-0.0671839773	-0.0456954904	 0.0054227895	-0.286554
C	-0.006663751	 1.1570658771	 0.0099616514	 0.260344
C	-1.2114817299	 2.1113103617	 0.0310142528	-0.159556
C	-0.7959632132	 3.3888805034	 0.0310197097	-0.21907
C	 0.6774828566	 3.3396066522	 0.0102774733	 0.40945
C	 1.1693352196	 2.0676556386	-0.0022938289	 0.032376
C	 2.567764963	 2.2693085181	-0.0207903965	-0.117996
N	 2.8784542068	 3.5492923316	-0.0194119291	-0.14102
O	 1.6310318309	 4.2471988548	 0.0010425334	-0.223384
H	-2.2285593968	 1.7450187994	 0.0434878822	 0.141929
H	-1.3947069278	 4.2885916647	 0.0433925509	 0.147756
H	 3.3752526091	 1.5510977989	-0.0352255387	 0.155723
157.3761	205.011	306.9242	366.3643	516.2874	606.3631	625.8166	649.3055	680.0452	733.8836	744.7029	804.8447	840.8532	926.6676	952.5238	964.6814	1024.25	1073.0983	1142.4854	1190.4428	1298.8871	1407.2298	1413.4764	1493.1829	1573.5214	1620.0612	1826.9067	3232.165	3249.8774	3253.4033
O=C1C=CC2=C1C=NO2	O=C1C=Cc2c1cno2	
InChI=1S/C6H3NO2/c8-5-1-2-6-4(5)3-7-9-6/h1-3H	InChI=1S/C6H3NO2/c8-5-1-2-6-4(5)3-7-9-6/h1-3H
