20
gdb 52695	3.71722	0.67023	0.61884	3.4892	85.19	-0.2367	0.0297	0.2664	1855.2051	0.167853	-403.171042	-403.159545	-403.158601	-403.210509	38.988	
C	 0.058240995	 1.4722122542	 0.0280827417	-0.498799
C	 0.0165276883	 0.0166037399	-0.0018209867	 0.103195
C	-0.016170584	-1.1875594504	-0.0117409277	 0.028056
C	-0.0687768703	-2.6490874942	-0.0463150605	-0.150559
C	-1.5227045031	-3.1603358212	-0.0045024107	-0.393011
C	 0.6907896289	-3.1866255228	-1.2770737686	-0.310762
C	 0.9481023455	-4.6909654895	-1.1930069266	 0.413646
N	 1.1954250738	-5.2950850193	-2.3920419611	-0.527302
O	 0.9502238887	-5.3071821785	-0.1438797097	-0.359258
H	 0.6334551468	 1.8378845832	 0.8861195226	 0.14633
H	 0.5233503498	 1.878182032	-0.8773589404	 0.143093
H	-0.9485366961	 1.8988055659	 0.1003122333	 0.145743
H	 0.4484952725	-3.0492853236	 0.8338830062	 0.127081
H	-1.5347369963	-4.2524204779	 0.0279043919	 0.135437
H	-2.0362217838	-2.7818891705	 0.8829238175	 0.122695
H	-2.0788245314	-2.8215050058	-0.8848980382	 0.112024
H	 0.1498129791	-2.9387563391	-2.1979063952	 0.109502
H	 1.6667444371	-2.6910807527	-1.3471704343	 0.134764
H	 1.2645569192	-4.7759780552	-3.2494633288	 0.258057
H	 1.4700760806	-6.2638644043	-2.3887811047	 0.260069
13.68	36.4458	63.3147	82.9349	151.2101	163.8402	197.8396	250.4055	282.5622	307.4406	346.7075	398.3273	501.7874	514.5998	544.6905	598.7006	654.3709	753.517	853.3884	884.8376	925.7743	1029.1095	1053.2348	1054.167	1075.0985	1096.9642	1124.192	1174.5966	1234.3671	1259.9572	1330.1004	1347.0626	1395.3349	1405.9733	1415.4467	1459.8353	1479.4039	1479.8893	1495.9031	1503.3391	1616.9481	1791.4029	2369.3311	3023.8266	3031.6319	3037.8264	3044.1443	3073.4881	3082.7675	3083.7303	3113.6563	3130.8895	3600.8809	3738.0572	13.6656	36.4457	63.3142	82.9347	151.2099	163.8416	197.8395	250.4053	282.5622	307.4407	346.7076	398.3274	501.7874	514.5998	544.6906	598.7006	654.3708	753.5169	853.3884	884.8376	925.7743	1029.1095	1053.2349	1054.1671	1075.0985	1096.9641	1124.1921	1174.5968	1234.3672	1259.9575	1330.1005	1347.0629	1395.335	1405.9734	1415.4469	1459.8357	1479.4042	1479.8896	1495.9032	1503.3392	1616.9475	1791.4028	2369.3312	3023.8266	3031.6318	3037.8264	3044.1443	3073.4881	3082.7675	3083.7303	3113.6563	3130.8895	3600.881	3738.0573
CC#CC(C)CC(N)=O	CC#C[C@@H](C)CC(=O)N	
InChI=1S/C7H11NO/c1-3-4-6(2)5-7(8)9/h6H,5H2,1-2H3,(H2,8,9)	InChI=1S/C7H11NO/c1-3-4-6(2)5-7(8)9/h6H,5H2,1-2H3,(H2,8,9)/t6-/m1/s1
