19
gdb 107331	2.69582	1.5477	1.19657	1.977	74.97	-0.2485	-0.0117	0.2368	1092.1081	0.158863	-423.015461	-423.006915	-423.005971	-423.048563	32.84	
C	 0.2591598263	 1.5076941958	-0.1281440595	-0.381832
C	-0.0981030187	 0.028488331	 0.0776083931	-0.295786
C	 0.5232567893	-0.5482254282	 1.322160501	 0.389926
O	 1.9491197233	-0.7640407159	 1.2932108531	-0.31611
C	 1.0602938139	-1.9041178038	 1.4805293863	-0.077954
C	 0.9069224119	-2.291292213	 2.9176736261	-0.081689
C	 0.3719938757	-1.2809995138	 3.6050526987	-0.120453
C	 0.0942216143	-0.068849544	 2.7257604459	 0.036284
O	 0.8100639308	 1.0832714746	 3.1453922114	-0.434069
H	 1.3393694743	 1.6230480998	-0.2577745031	 0.129175
H	-0.2355283396	 1.9057683032	-1.018715773	 0.10947
H	-0.0365647056	 2.1129132999	 0.7329524462	 0.138076
H	-1.1871343935	-0.0902966266	 0.1460998365	 0.101557
H	 0.2316466241	-0.5584196008	-0.7868118859	 0.104116
H	 1.0861593846	-2.634373427	 0.6773969811	 0.100104
H	 1.2281676511	-3.2456155551	 3.3171599372	 0.10868
H	 0.2134442888	-1.2459930491	 4.6768108754	 0.110587
H	-0.9639034369	 0.2171517599	 2.7416439863	 0.090831
H	 1.7395639559	 0.8799552233	 2.9726514131	 0.289087
74.9441	128.3202	188.2179	196.8477	276.2363	311.8356	345.8599	454.1861	493.5089	512.0273	584.8214	651.2388	706.0457	765.5427	783.0755	832.6772	882.8241	923.4224	937.763	965.0311	978.4642	1004.3233	1054.1999	1058.4037	1084.3718	1106.355	1143.7926	1210.9432	1254.8392	1274.4583	1293.239	1325.8692	1353.5827	1366.4286	1411.8991	1431.1415	1461.2978	1474.8194	1495.4568	1510.4094	1665.7725	3025.8192	3044.992	3047.5202	3068.0281	3115.0937	3124.2613	3163.3722	3193.3123	3217.9455	3758.0659
CCC12OC1C=CC2O	CC[C@]12O[C@H]1C=C[C@H]2O	
InChI=1S/C7H10O2/c1-2-7-5(8)3-4-6(7)9-7/h3-6,8H,2H2,1H3	InChI=1S/C7H10O2/c1-2-7-5(8)3-4-6(7)9-7/h3-6,8H,2H2,1H3/t5-,6+,7-/m1/s1
