23
gdb 120552	2.82299	0.81113	0.70655	2.5357	82.67	-0.246	0.0727	0.3187	1714.0059	0.204895	-425.416463	-425.40623	-425.405286	-425.452918	37.13	
C	 0.5841536133	 1.3370694322	 0.1940013781	-0.382439
C	 0.3218095646	-0.1624243308	 0.0343763013	-0.161981
C	 0.6990952581	-0.6944291777	-1.3528120598	-0.186656
C	 0.4820309757	-2.1907051561	-1.488471086	 0.162092
C	 1.0657791206	-2.9130832584	-2.7234961053	-0.347573
C	 1.8712287189	-3.7352586715	-1.6989392645	 0.14095
C	 3.3861345496	-3.6242942113	-1.7089885983	-0.065217
O	 3.9208310736	-4.0538603715	-0.473479776	-0.421447
O	 1.329131163	-2.9658688681	-0.5927718687	-0.328572
H	 1.6437339868	 1.5720157995	 0.0436796968	 0.114978
H	 0.0108018	 1.9212147802	-0.5347567359	 0.112162
H	 0.305207279	 1.6859751906	 1.1930545566	 0.11355
H	 0.8864918699	-0.723679903	 0.7875720287	 0.114001
H	-0.7386492063	-0.3737162325	 0.2254086307	 0.094124
H	 0.10442775	-0.1886307534	-2.1269085504	 0.094357
H	 1.752319172	-0.4678076856	-1.5649884412	 0.094195
H	-0.573137398	-2.4343751156	-1.2994761802	 0.074757
H	 0.3540493288	-3.4711600284	-3.3323943018	 0.111301
H	 1.6744243294	-2.2766741146	-3.371600062	 0.107234
H	 1.5753848392	-4.7885150194	-1.6105235949	 0.08187
H	 3.8119032019	-4.2652040614	-2.4898489172	 0.105762
H	 3.6725927193	-2.5830170902	-1.9334036169	 0.079662
H	 3.4284966306	-3.5733794829	 0.2040219367	 0.29289
34.012	87.8612	100.8262	108.5952	158.396	231.2794	245.2054	319.4251	374.4117	391.4785	467.0262	480.9699	502.0275	715.4308	748.6116	845.1758	855.4969	886.7181	907.7198	919.1213	971.608	1031.7234	1037.1126	1046.4506	1055.2305	1085.0511	1124.1887	1127.3152	1156.0577	1195.5262	1223.5283	1252.827	1259.003	1283.8622	1293.6809	1322.4002	1333.8844	1350.1021	1379.7466	1395.6005	1410.8016	1418.4812	1438.8756	1471.7071	1491.1998	1492.9567	1498.7667	1499.5638	1509.227	2963.1203	2998.7798	3007.212	3022.3607	3023.8773	3028.78	3046.8844	3065.3485	3067.9505	3068.1932	3096.7982	3102.3541	3131.2888	3779.4826
CCCC1CC(CO)O1	CCC[C@H]1C[C@@H](CO)O1	
InChI=1S/C7H14O2/c1-2-3-6-4-7(5-8)9-6/h6-8H,2-5H2,1H3	InChI=1S/C7H14O2/c1-2-3-6-4-7(5-8)9-6/h6-8H,2-5H2,1H3/t6-,7-/m0/s1
