25
gdb 95758	2.29171	1.28276	1.03732	1.4149	88.35	-0.256	0.0718	0.3278	1322.2771	0.229317	-389.526918	-389.517184	-389.516239	-389.560395	39.117	
C	 0.0305193272	 1.5873787738	 0.0148451293	-0.401021
C	 0.0253659998	 0.0562952092	-0.0431782744	 0.028891
C	 0.7577419637	-0.4674884895	-1.2900072524	-0.175238
C	 0.7919599026	-2.0005624511	-1.3360835013	-0.22085
C	 1.3997118322	-2.5786494267	-0.0499332974	-0.223104
C	 0.7018765824	-2.083376779	 1.23333379	 0.349894
C	-0.6876102368	-2.7127035641	 1.4110335075	-0.422424
O	 1.5067759666	-2.4126491215	 2.3734196863	-0.474183
C	 0.6419323608	-0.5470605391	 1.230131284	-0.190405
H	 1.0547891803	 1.9735270838	 0.0784211198	 0.112518
H	-0.4335397585	 2.0203677218	-0.8778162683	 0.107058
H	-0.5167338902	 1.9547085387	 0.8895794175	 0.109663
H	-1.0227106955	-0.270669594	-0.109534942	 0.06854
H	 0.2842863975	-0.0705912442	-2.1960373432	 0.085899
H	 1.7878424962	-0.0819632742	-1.2836026604	 0.090211
H	-0.2261221137	-2.3860123292	-1.4775691091	 0.094466
H	 1.3693081861	-2.3410518669	-2.2030705275	 0.091967
H	 1.3823917832	-3.6765284965	-0.0774901676	 0.074301
H	 2.453280056	-2.2812702941	 0.0215645238	 0.099418
H	-0.6103478866	-3.8064513582	 1.4449959012	 0.099279
H	-1.1323043813	-2.374421815	 2.3513569875	 0.120535
H	-1.371932033	-2.4599987438	 0.596300155	 0.117214
H	 1.5579888434	-3.373319797	 2.4270959998	 0.268943
H	 1.6715705278	-0.1819594972	 1.3389955915	 0.097553
H	 0.0972609497	-0.2084078862	 2.1191473604	 0.090875
135.4209	149.2867	224.9634	235.078	264.2448	271.9749	286.7204	325.2363	333.3114	415.3409	428.496	445.7123	470.2836	477.1246	559.1661	731.5506	803.4695	860.4685	870.2244	892.1192	925.6749	947.1025	971.4844	987.9853	993.2961	1024.9789	1060.184	1083.1793	1091.02	1138.5461	1157.4032	1192.6636	1213.4494	1234.5223	1287.0472	1305.9091	1311.7815	1335.2181	1360.7065	1374.8404	1379.772	1388.827	1396.2979	1406.5611	1413.3554	1477.5739	1479.9501	1485.8572	1494.7277	1497.5008	1500.8827	1503.4679	1508.1579	2993.8145	3005.5344	3010.5335	3020.929	3021.4085	3025.9	3029.2453	3052.7503	3054.2536	3064.6318	3068.8594	3091.1768	3095.2326	3096.0672	3119.8768	3798.1598
CC1CCCC(C)(O)C1	C[C@H]1CCC[C@@](C)(O)C1	
InChI=1S/C8H16O/c1-7-4-3-5-8(2,9)6-7/h7,9H,3-6H2,1-2H3	InChI=1S/C8H16O/c1-7-4-3-5-8(2,9)6-7/h7,9H,3-6H2,1-2H3/t7-,8+/m0/s1
