21
gdb 88845	3.57699	1.07314	0.90439	1.2489	85.47	-0.2293	0.0195	0.2488	1351.5716	0.182568	-387.080702	-387.071798	-387.070854	-387.115074	33.321	
C	 0.1197830807	 1.5474430799	-0.3513721358	-0.403184
C	 0.0007031757	 0.074991951	-0.0221382864	 0.004592
C	 1.1891308925	-0.8504254589	-0.1062857111	-0.30984
C	 0.5699492423	-0.535701335	 1.2383128516	 0.001771
C	 1.3340849331	 0.2790919874	 2.2590057014	 0.07483
O	 0.4248740695	 1.0142926808	 3.0927103335	-0.280287
C	 0.6753734811	 0.7449053551	 4.468060731	-0.115554
C	 1.7590374627	-0.2967436695	 4.4736149527	-0.101064
C	 2.1375943341	-0.552129074	 3.2277270699	-0.091159
H	 1.1059222926	 1.9462847408	-0.0976417499	 0.115019
H	-0.0326771097	 1.7157754324	-1.4232047352	 0.110763
H	-0.6247178318	 2.1364559794	 0.1941396296	 0.128278
H	-0.9454967168	-0.3621086766	-0.3314535235	 0.082853
H	 1.0641836746	-1.8460272188	-0.5175267986	 0.108122
H	 2.1524757299	-0.3993132223	-0.3283660508	 0.106083
H	-0.0266489916	-1.3228104203	 1.6921140557	 0.079234
H	 1.9879177597	 0.9939339296	 1.7320627743	 0.073678
H	 0.9851868923	 1.6674723384	 4.9867188435	 0.101072
H	-0.2499718254	 0.3993949023	 4.9547879599	 0.104239
H	 2.1518655843	-0.7395627782	 5.380222758	 0.104217
H	 2.90112556	-1.2473202638	 2.90337719	 0.106337
50.9303	81.3699	118.1262	187.2412	218.7941	280.1161	354.9077	390.3642	466.0499	530.2401	706.5459	766.0232	775.7799	812.6622	849.2823	860.8825	896.884	934.3617	945.2186	959.9892	969.6453	1033.0577	1047.2226	1052.1571	1068.0754	1104.5136	1110.6898	1122.6758	1150.6436	1170.7212	1196.0115	1199.0621	1243.1394	1290.8497	1322.7186	1352.6267	1380.9803	1395.4502	1418.8039	1433.1754	1490.9012	1494.5728	1502.7213	1521.9705	1692.0535	2956.0576	2964.9746	2988.5052	3034.0388	3093.6775	3107.8894	3121.9885	3132.1528	3143.295	3206.37	3206.9999	3231.908
CC1CC1C1OCC=C1	C[C@H]1C[C@H]1[C@H]1OCC=C1	
InChI=1S/C8H12O/c1-6-5-7(6)8-3-2-4-9-8/h2-3,6-8H,4-5H2,1H3	InChI=1S/C8H12O/c1-6-5-7(6)8-3-2-4-9-8/h2-3,6-8H,4-5H2,1H3/t6-,7+,8-/m0/s1
