15
gdb 37692	3.3712	2.27007	1.82446	1.0423	65.61	-0.2308	-0.0147	0.2161	759.5618	0.116577	-416.74825	-416.742967	-416.742023	-416.777588	23.029	
O	-0.0492707824	 1.4846282948	 0.0103123833	-0.289263
C	 1.4097858305	 1.3608987294	-0.0087957231	 0.026175
C	 1.6973927419	 0.7231398977	 1.3605874011	-0.041494
C	 0.6211354574	-0.2924880522	 1.3691188458	-0.041494
C	-0.010369099	 0.0207470351	 0.0024627899	 0.026175
C	 1.2291744999	 0.1218240327	-0.9465475393	 0.005433
N	 2.2124595302	-0.9204833309	-0.9848281195	-0.219118
C	 2.5571041949	-1.2758583167	 0.1864780538	 0.05745
N	 2.0487117891	-0.7270297805	 1.3872139432	-0.171718
H	 1.9385092107	 2.2660912226	-0.2999666042	 0.092024
H	 2.0342161229	 1.3005999871	 2.2119345391	 0.116488
H	 0.0323080888	-0.5885358031	 2.227803938	 0.116488
H	-0.9470585513	-0.4569180184	-0.2770921053	 0.092024
H	 0.9227520941	 0.4381799369	-1.9415727327	 0.105002
H	 3.2983030622	-2.0601021346	 0.32994638	 0.125826
331.0169	370.0975	495.3793	578.1236	581.8058	592.0228	730.6576	738.6724	799.1106	809.923	861.8608	871.5784	882.9136	904.5801	938.5337	964.2533	999.618	999.9605	1037.4368	1041.8699	1074.9901	1130.287	1130.5941	1201.9232	1223.8745	1252.3303	1273.7778	1287.1251	1294.2811	1342.8104	1370.1413	1386.1322	1684.4295	3136.8174	3148.0542	3150.9957	3152.9406	3195.2664	3205.2219
O1C2C3C4C1C2N=CN34	O1[C@H]2[C@H]3[C@H]4[C@@H]1[C@@H]2[N][CH]N34	
InChI=1S/C6H6N2O/c1-7-2-5-3-4(8(1)3)6(2)9-5/h1-6H	InChI=1S/C6H6N2O/c1-7-2-5-3-4(8(1)3)6(2)9-5/h1-6H/t2-,3-,4+,5-,6+,8?
