22
gdb 102178	2.20322	1.06582	0.77757	4.1686	86.6	-0.2892	0.0376	0.3269	1510.3806	0.193531	-367.225124	-367.215062	-367.214118	-367.260628	36.827	
C	-1.5671970395	-0.2979299419	-0.1826132789	-0.388678
C	-0.0556654534	-0.1298551391	-0.0052632599	-0.186702
C	 0.7891861183	-0.6310822868	-1.1915601469	 0.003008
C	 2.2844800783	-0.2636851382	-0.9950800409	-0.348351
C	 2.5264067745	 1.176085389	-0.9386860532	 0.262681
N	 2.7001647829	 2.3184385947	-0.9038863109	-0.317533
C	 0.6739279764	-2.1295860576	-1.4105114019	 0.027785
C	-0.3760474008	-2.710345392	-2.3241648458	-0.273621
C	 1.0749479306	-2.7434467813	-2.7309447233	-0.28432
H	-1.9205695944	 0.2243339839	-1.0787113487	 0.11603
H	-1.8515005478	-1.3494438911	-0.2751325361	 0.125223
H	-2.1033084864	 0.1197558054	 0.6749286715	 0.116662
H	 0.1700224495	 0.9298894892	 0.1609824723	 0.122021
H	 0.2686419774	-0.6564197367	 0.9034338151	 0.093803
H	 0.4450393439	-0.1236447255	-2.1033038429	 0.086987
H	 2.6601120173	-0.716030731	-0.0688783541	 0.14575
H	 2.8800521056	-0.6822000331	-1.8131859687	 0.150779
H	 0.9092012743	-2.7199993112	-0.5266037315	 0.083763
H	-0.8537051654	-3.6399159637	-2.0350448017	 0.11614
H	-1.0300195219	-2.0206286797	-2.8467633149	 0.11828
H	 1.3881617313	-2.0742805824	-3.5264345386	 0.114406
H	 1.5933194592	-3.6956319108	-2.7242862302	 0.115887
68.8606	82.9441	105.5207	133.3375	183.9684	234.9055	258.5554	313.3936	352.9548	397.9101	421.322	459.1149	578.354	745.127	788.6244	818.798	828.1525	868.7167	914.6394	936.4444	968.3799	981.9229	1021.7963	1039.9072	1059.1473	1080.7912	1104.9291	1125.2771	1139.4425	1189.7835	1200.3485	1227.7037	1234.3993	1283.1132	1305.0973	1337.5518	1356.0135	1384.9851	1411.832	1423.7156	1466.0433	1469.2862	1488.7993	1500.0588	1503.8103	1509.9981	2357.8197	3007.6899	3018.4031	3038.1221	3040.7651	3060.8323	3083.8942	3101.8412	3119.0663	3120.7933	3128.2406	3135.6964	3207.9627	3223.4229
CCC(CC#N)C1CC1	CC[C@@H](CC#N)C1CC1	
InChI=1S/C8H13N/c1-2-7(5-6-9)8-3-4-8/h7-8H,2-5H2,1H3	InChI=1S/C8H13N/c1-2-7(5-6-9)8-3-4-8/h7-8H,2-5H2,1H3/t7-/m0/s1
