19
gdb 37069	2.95763	1.73507	1.51757	1.5581	73.08	-0.2369	0.0801	0.317	950.5342	0.161651	-423.014549	-423.007534	-423.00659	-423.045607	28.915	
C	 0.2415650047	 1.3432823268	-0.6060611103	-0.225851
C	 1.3608564965	 2.0492622122	 0.2143375403	-0.294357
C	 2.0179487629	 0.9054611448	 0.9576245872	 0.366959
O	 2.5073392169	 1.0362454443	 2.27273972	-0.305984
C	 1.5855206351	 0.3009725168	 3.0707520446	-0.008941
O	 1.0956678128	-0.7737519592	 2.2756351285	-0.305984
C	 1.1012784825	-0.2698623994	 0.9595047071	 0.366959
C	-0.1692701608	 0.0873857904	 0.2174759978	-0.294357
C	 2.4295475399	-0.361846341	 0.2346544906	-0.392207
H	-0.6060874779	 2.0040760926	-0.8035927688	 0.107002
H	 0.6331108558	 1.0363438679	-1.5812626937	 0.111569
H	 2.0366629244	 2.6309404778	-0.4198771121	 0.104553
H	 0.9301145504	 2.7344785111	 0.9535204288	 0.109612
H	 2.1054920376	-0.1031729774	 3.9433367706	 0.121177
H	 0.7518699318	 0.9516670053	 3.3865629431	 0.088301
H	-0.9376147465	 0.3397394149	 0.9573513891	 0.109612
H	-0.5698179131	-0.7110006555	-0.4145309086	 0.104553
H	 2.4476162025	-0.377675064	-0.8508649633	 0.112267
H	 3.1913941125	-0.9552498309	 0.7245535293	 0.125118
168.3376	202.6232	228.4584	353.9467	365.3576	455.6058	522.8967	573.6161	586.0105	707.1913	763.5178	767.0923	847.1594	888.6543	895.5945	906.6157	917.7929	968.7453	982.7188	996.8403	1024.9677	1052.5351	1060.4724	1080.3783	1168.6286	1191.8118	1208.6983	1221.7715	1229.2634	1243.275	1261.376	1319.4471	1324.1862	1348.2199	1371.6235	1420.5612	1465.9955	1492.8041	1494.1652	1511.9775	1536.22	2951.7472	3041.7042	3043.2888	3052.5113	3085.1237	3085.362	3097.7757	3106.1756	3130.8849	3234.7872
C1CC23OCOC2(C1)C3	C1C[C@@]23OCO[C@]2(C1)C3	
InChI=1S/C7H10O2/c1-2-6-4-7(6,3-1)9-5-8-6/h1-5H2	InChI=1S/C7H10O2/c1-2-6-4-7(6,3-1)9-5-8-6/h1-5H2/t6-,7+
