21
gdb 93735	2.73601	1.26675	1.1102	2.0366	78.61	-0.2364	-0.0244	0.212	1211.1336	0.180591	-424.257673	-424.248031	-424.247087	-424.292728	35.593	
C	 0.3428725981	 1.4575025481	-0.3387558997	-0.387338
C	-0.0251362251	 0.0253307551	 0.0385012649	 0.138765
C	 0.2821746952	-1.0147890706	-1.0583587565	-0.255215
C	 1.659340513	-1.5581477769	-0.6506233303	-0.264574
C	 1.5961128034	-1.4864650893	 0.877277935	 0.296731
C	 2.9419074313	-1.289401212	 1.5758751516	-0.443983
O	 0.749198908	-0.3724417577	 1.1870883614	-0.318549
C	 0.9209583186	-2.7276674511	 1.4777030417	 0.132424
O	 0.8730597194	-3.8149112698	 0.9637522679	-0.254873
H	 1.3740083096	 1.5158409623	-0.7028671986	 0.114073
H	-0.32232115	 1.8311305758	-1.12439492	 0.112901
H	 0.2515343245	 2.1134940342	 0.5313169015	 0.12595
H	-1.0831383956	-0.008455284	 0.3268373757	 0.079361
H	-0.4575517881	-1.8206989191	-1.0396016412	 0.117356
H	 0.2707379192	-0.5752832444	-2.0584509112	 0.104712
H	 1.8349385068	-2.5799988026	-0.9906492507	 0.12817
H	 2.4673078774	-0.9196986706	-1.0207517967	 0.100323
H	 3.394095429	-0.3523242424	 1.2393730718	 0.127232
H	 2.8139791124	-1.2348225358	 2.6614632623	 0.127815
H	 3.6194958052	-2.1175253621	 1.3469322665	 0.130899
H	 0.4549097778	-2.5212011973	 2.4679379745	 0.087821
37.6542	69.3652	132.7685	221.3665	246.1652	270.7855	295.8069	309.3148	341.7163	385.8372	439.0851	558.8536	593.7231	706.4196	764.9293	804.1888	864.6347	897.1687	919.8426	947.803	976.2264	987.4238	1023.2681	1063.0608	1072.2942	1123.5732	1132.2109	1188.7411	1211.786	1236.037	1277.8219	1327.4206	1331.61	1352.265	1388.8726	1395.3019	1404.0878	1408.2098	1478.1489	1481.1081	1486.6502	1494.8706	1497.4638	1501.5956	1829.896	2882.4982	3021.1661	3033.9322	3038.3992	3059.2182	3062.0701	3105.2503	3108.7483	3112.8154	3117.9671	3121.432	3129.4278
CC1CCC(C)(O1)C=O	C[C@H]1CC[C@@](C)(O1)C=O	
InChI=1S/C7H12O2/c1-6-3-4-7(2,5-8)9-6/h5-6H,3-4H2,1-2H3	InChI=1S/C7H12O2/c1-6-3-4-7(2,5-8)9-6/h5-6H,3-4H2,1-2H3/t6-,7+/m0/s1
