23
gdb 59422	3.30188	0.97588	0.89434	1.9778	85.89	-0.2387	0.0669	0.3056	1430.6633	0.204808	-388.255681	-388.245984	-388.24504	-388.290398	36.461	
C	 1.0402246265	-0.5071163121	-0.9649021325	-0.405862
C	 0.0060973044	 0.0988989401	-0.0053754247	 0.018839
C	-0.1056096915	 1.6140461803	-0.2404049107	-0.382763
C	-1.3794701224	-0.5418177896	-0.0755278513	-0.063691
C	-1.9036501409	-1.2899712578	-1.2864114065	-0.358781
C	-1.6310205863	-2.0177319416	-0.0046377993	 0.280235
C	-0.6839452633	-3.1859933373	 0.2671805446	-0.142279
O	-1.695882524	-3.8511388803	 1.053479747	-0.279943
C	-2.6298829694	-2.7642067026	 0.8750807319	-0.134084
H	 2.024581518	-0.0638781063	-0.7841011791	 0.114435
H	 1.1439129218	-1.5897294831	-0.8484143578	 0.121987
H	 0.7779713241	-0.304917579	-2.0089605986	 0.118953
H	 0.3767024302	-0.0496953091	 1.0196187593	 0.077822
H	 0.8706280434	 2.1007954579	-0.1459605827	 0.108902
H	-0.4902192705	 1.8238849939	-1.2450539748	 0.116737
H	-0.7844196412	 2.0807327668	 0.4809633	 0.110266
H	-2.1323100183	 0.0487498729	 0.4456507282	 0.079964
H	-2.9376201987	-1.1394626906	-1.5821166771	 0.109258
H	-1.2277974412	-1.4666903512	-2.1168230834	 0.113966
H	-0.3817140157	-3.7806358	-0.6052768201	 0.100666
H	 0.2058034646	-2.9562569276	 0.8688269862	 0.099785
H	-2.8833215181	-2.2810083757	 1.829218748	 0.096341
H	-3.5552275015	-3.0934058478	 0.3833517733	 0.099245
52.8901	117.271	131.4505	173.7457	230.523	253.0493	289.4304	292.6784	346.3989	388.3897	453.5303	528.7145	609.7775	749.9577	858.9	874.4344	886.8533	896.6481	928.2105	945.4227	965.3323	979.0267	1016.7768	1031.3479	1042.4425	1072.6178	1091.9422	1131.9832	1145.4351	1153.3258	1161.8667	1172.6059	1212.5365	1226.0389	1310.4715	1321.268	1345.6698	1358.538	1385.1902	1399.7239	1418.7731	1440.8147	1487.5915	1493.697	1501.9629	1505.9308	1510.7665	1511.7305	1536.0164	2988.9332	2991.6355	3001.243	3026.5073	3033.9376	3036.1062	3037.5571	3094.5883	3097.7083	3102.1323	3107.6574	3111.9966	3123.6962	3207.0267
CC(C)C1CC11COC1	CC(C)[C@H]1CC21COC2	
InChI=1S/C8H14O/c1-6(2)7-3-8(7)4-9-5-8/h6-7H,3-5H2,1-2H3	InChI=1S/C8H14O/c1-6(2)7-3-8(7)4-9-5-8/h6-7H,3-5H2,1-2H3/t7-/m1/s1
