23
gdb 88843	3.49141	1.00244	0.85219	0.2189	91.99	-0.2326	0.0305	0.2631	1445.2522	0.206896	-351.159303	-351.150272	-351.149328	-351.193449	34.796	
C	 0.1506895439	 1.5469570569	-0.4341024019	-0.406116
C	 0.0252549135	 0.0731907364	-0.112460509	 0.00075
C	 1.2354352629	-0.83050902	-0.1072633446	-0.314221
C	 0.5087811515	-0.5378831737	 1.1861575144	 0.009356
C	 1.1615917534	 0.2634753994	 2.2965636106	-0.024026
C	 0.1487205833	 0.9282224975	 3.2731233027	-0.224035
C	 0.7858967539	 0.8305702531	 4.6823594151	-0.254789
C	 1.8052604278	-0.2722840907	 4.5147476876	-0.074827
C	 2.0116510554	-0.5723465925	 3.2344605633	-0.065583
H	 1.0889243046	 1.9694337031	-0.0634819019	 0.116117
H	 0.1279929658	 1.7092678987	-1.517626831	 0.114288
H	-0.6703907899	 2.1253588216	 0.0047720656	 0.115629
H	-0.8832142736	-0.3766643868	-0.5060533444	 0.079273
H	 1.1600661956	-1.8211925962	-0.5424984769	 0.105554
H	 2.2040073127	-0.3589812979	-0.249604696	 0.104921
H	-0.1098125408	-1.3493493587	 1.5653654675	 0.076255
H	 1.8019859052	 1.0322200854	 1.8392997945	 0.068532
H	-0.1009777091	 1.952769825	 2.9857748596	 0.094732
H	-0.7833485848	 0.3525815297	 3.254889419	 0.099464
H	 1.2781125827	 1.7694202323	 4.9746717757	 0.102509
H	 0.0478780221	 0.6188116252	 5.4646330198	 0.099522
H	 2.3255330368	-0.7206038473	 5.354549721	 0.087798
H	 2.720213607	-1.3054649907	 2.8638256492	 0.088896
63.6176	88.3641	130.4812	202.4892	213.1272	282.8369	347.8363	384.7963	456.0667	515.5053	613.8191	745.8783	770.4166	776.3094	838.2192	849.4107	859.7538	893.5489	919.677	935.5141	964.6271	977.468	1008.2921	1023.2515	1046.2308	1069.3628	1081.7237	1114.4343	1124.1085	1151.8106	1154.6114	1193.1523	1199.6511	1225.609	1247.8906	1282.4887	1289.6122	1318.0823	1324.5558	1377.8287	1392.3293	1417.8791	1430.0893	1483.447	1492.7812	1493.5807	1500.2761	1506.6351	1685.7421	2987.7598	3003.853	3027.7556	3039.989	3054.9743	3083.8354	3096.9925	3101.962	3116.3863	3120.635	3134.1729	3176.5021	3202.522	3204.4031
CC1CC1C1CCC=C1	C[C@H]1C[C@H]1[C@H]1CCC=C1	
InChI=1S/C9H14/c1-7-6-9(7)8-4-2-3-5-8/h2,4,7-9H,3,5-6H2,1H3	InChI=1S/C9H14/c1-7-6-9(7)8-4-2-3-5-8/h2,4,7-9H,3,5-6H2,1H3/t7-,8+,9+/m0/s1
