17
gdb 99500	2.67329	1.07593	0.869	2.8888	70.31	-0.2505	-0.0184	0.2321	1372.4566	0.134206	-455.169962	-455.159735	-455.158791	-455.206234	34.247	
C	-0.1233328819	 1.5018998194	 0.1753341095	-0.328497
N	 0.4155430116	 0.1638992493	-0.0364648353	-0.27418
C	 0.8668195784	-0.5204609089	 1.1526431391	-0.216286
C	-0.1309367738	-0.5812739934	 2.2549093528	 0.266894
N	-0.9447597294	-0.5915945811	 3.0760461079	-0.324676
C	 1.2434494793	-1.9658281329	 0.7816769091	 0.465475
O	 0.7800669976	-2.5550477324	-0.157285652	-0.349614
O	 2.1242737879	-2.4598449708	 1.65392862	-0.226666
C	 2.4970387202	-3.8341811921	 1.4473977965	-0.246934
H	 0.662478964	 2.1541936398	 0.5725267939	 0.127557
H	-0.4363359947	 1.9079457633	-0.7895112542	 0.132569
H	-0.9789111925	 1.5411328661	 0.8673899175	 0.128518
H	-0.2318586055	-0.4372038611	-0.5348673188	 0.246171
H	 1.7581378874	-0.0255293963	 1.5559929533	 0.150153
H	 1.6162370869	-4.4777322879	 1.5021310432	 0.153158
H	 2.9700209037	-3.9560170008	 0.4704573772	 0.150523
H	 3.1974837207	-4.0707895602	 2.2470970803	 0.145835
42.8329	100.6367	101.6536	118.028	151.8128	181.2514	213.762	256.7769	300.6745	360.6019	402.0135	443.4337	604.5545	679.2	752.2683	789.6304	908.4633	941.495	989.8209	1035.1874	1148.1474	1160.1299	1178.6171	1200.0496	1215.698	1241.0784	1322.5764	1335.5441	1461.9107	1474.382	1482.5115	1487.7795	1494.4459	1496.2422	1520.3661	1838.4882	2341.792	2986.6537	3049.0731	3059.7494	3066.6532	3118.8769	3139.0905	3172.3547	3543.3252
CNC(C#N)C(=O)OC	CN[C@@H](C#N)C(=O)OC	
InChI=1S/C5H8N2O2/c1-7-4(3-6)5(8)9-2/h4,7H,1-2H3	InChI=1S/C5H8N2O2/c1-7-4(3-6)5(8)9-2/h4,7H,1-2H3/t4-/m0/s1
