15
gdb 64555	2.90176	1.52754	1.14401	1.4687	66.72	-0.2515	-0.0557	0.1958	1026.5576	0.111162	-457.730299	-457.72267	-457.721726	-457.762453	29.248	
O	 0.0143459718	 1.4092089351	 0.0050455222	-0.49054
C	 0.0124401866	 0.0250364458	-0.0035594473	 0.395259
C	 1.000864561	-0.4962986382	-1.0153723553	 0.084535
O	 1.666344835	 0.2567498081	-1.6864391854	-0.276613
C	-0.0054264901	-0.6976728155	 1.4087008688	-0.247761
C	-1.4823534663	-0.1616717228	 1.5211983824	-0.248023
C	-1.4045102594	-0.6865233416	 0.0380029148	-0.247682
C	-0.6723220836	-1.870270819	 0.6805302054	 0.436645
O	-0.6892018822	-3.0623161512	 0.6880526769	-0.326124
H	 0.6725400146	 1.6675435266	-0.6606957414	 0.299959
H	 1.0841470578	-1.5958964113	-1.1103541324	 0.126632
H	 0.7765846173	-0.6856039489	 2.1636641946	 0.108292
H	-2.1507485856	-0.6928293858	 2.1991507439	 0.123509
H	-1.5614789818	 0.9186774458	 1.6107541621	 0.15362
H	-2.1753101051	-0.6621851773	-0.7281120494	 0.108292
95.0092	142.6232	237.4035	276.5852	372.7467	373.3158	453.4041	456.0376	521.0866	536.9534	696.1336	712.8309	755.1071	814.9935	837.002	880.2394	966.6145	1001.0595	1020.8074	1029.942	1075.465	1100.7408	1126.9632	1136.4799	1161.0259	1197.3776	1219.3254	1287.321	1387.2588	1443.007	1513.5658	1804.6629	1918.3106	2962.202	3097.327	3158.0595	3160.6989	3186.8554	3677.8628
OC1(C=O)C2CC1C2=O	O[C@@]1(C=O)[C@H]2C[C@@H]1C2=O	
InChI=1S/C6H6O3/c7-2-6(9)3-1-4(6)5(3)8/h2-4,9H,1H2	InChI=1S/C6H6O3/c7-2-6(9)3-1-4(6)5(3)8/h2-4,9H,1H2/t3-,4+,6-
