23
gdb 112913	2.90505	1.09532	0.87186	1.4554	82.12	-0.2432	0.0717	0.315	1419.096	0.205733	-425.434214	-425.424399	-425.423455	-425.4694	37.03	
C	 0.2737561522	 1.1734940493	 0.1905546842	-0.253446
O	 0.0445541841	-0.2258506942	 0.1979545739	-0.259631
C	-1.3218035906	-0.5912909685	 0.0273152372	 0.087222
C	-1.4025992516	-1.9483750811	-0.6956649057	-0.238888
C	-2.4422699665	-2.7855122963	 0.0770478962	 0.034456
C	-2.3363794703	-4.2901531181	-0.1599671089	-0.402163
C	-2.2066452459	-2.3381354199	 1.5273189422	-0.237459
C	-2.0217544362	-0.8137347412	 1.4218921999	 0.116006
O	-1.3064296189	-0.2287574864	 2.4877954909	-0.438709
H	 1.350226852	 1.3209793495	 0.3112991571	 0.125279
H	-0.0397566894	 1.6200481804	-0.7645281349	 0.110114
H	-0.2536603416	 1.6786079697	 1.009040101	 0.127184
H	-1.8323746781	 0.199442529	-0.5364627123	 0.065276
H	-1.6290573616	-1.8515909216	-1.7610553309	 0.094134
H	-0.4166314905	-2.4212400321	-0.6136217692	 0.110253
H	-3.4480078864	-2.456914059	-0.2237417629	 0.070438
H	-1.347655097	-4.6618770841	 0.133490623	 0.113582
H	-3.0850918447	-4.8384280871	 0.4214347401	 0.11279
H	-2.4862745275	-4.5401308102	-1.2159213783	 0.111194
H	-3.0090106844	-2.6204512394	 2.214642927	 0.095487
H	-1.2762272835	-2.7836870001	 1.9060465701	 0.092298
H	-3.004367726	-0.3286056472	 1.4120394386	 0.082376
H	-0.3743300175	-0.3805406512	 2.2814141617	 0.282208
29.6074	117.1614	132.8075	192.7916	240.971	268.7506	295.0898	309.296	382.2924	426.136	441.9851	481.1555	505.1442	577.2658	656.9439	782.8323	853.2021	890.8568	928.3117	943.5497	972.5147	1025.0454	1031.0366	1065.6781	1108.7833	1122.1304	1147.3897	1153.9622	1171.5386	1181.611	1223.332	1236.8517	1265.0812	1284.3475	1306.4109	1314.17	1348.0958	1365.6215	1387.1162	1396.4861	1413.8045	1441.4544	1477.5625	1481.4529	1487.4834	1494.4725	1497.8531	1501.1542	1515.9086	2991.8147	2993.412	3013.5709	3019.4397	3025.3875	3041.4055	3045.0662	3059.2704	3089.5267	3090.9684	3095.7104	3097.8386	3113.7256	3754.6844
COC1CC(C)CC1O	CO[C@H]1C[C@@H](C)C[C@H]1O	
InChI=1S/C7H14O2/c1-5-3-6(8)7(4-5)9-2/h5-8H,3-4H2,1-2H3	InChI=1S/C7H14O2/c1-5-3-6(8)7(4-5)9-2/h5-8H,3-4H2,1-2H3/t5-,6+,7-/m0/s1
