19
gdb 17289	3.05156	2.41239	1.84398	1.6665	73.87	-0.2182	0.0762	0.2943	816.6142	0.166534	-327.859402	-327.852465	-327.851521	-327.889873	28.493	
C	-0.0291863788	 1.5065957764	-0.0397533473	-0.498312
C	-0.0102687338	-0.0039656541	 0.0076373838	 0.36882
C	-1.3684731296	-0.7750843765	-0.0235604377	-0.299172
C	-0.9357579315	-1.5721989698	 1.2507803105	-0.238773
C	 0.4183898581	-0.8159034656	 1.2570721087	-0.011994
N	 1.6311594526	-1.4039642156	 0.5505716114	-0.149683
C	 1.1851818777	-2.1452349379	-0.6442900681	-0.254672
C	 1.1793338551	-0.6746789305	-0.712276589	-0.077981
H	 0.9587747277	 1.9226285423	 0.1878040549	 0.122774
H	-0.3196129906	 1.8658553825	-1.0350166937	 0.117365
H	-0.7425496666	 1.9180811506	 0.6823693192	 0.114125
H	-2.2310518295	-0.124819125	 0.1443650622	 0.099682
H	-1.5571257991	-1.3663247255	-0.9237700542	 0.098753
H	-1.540755188	-1.3382476187	 2.1303348826	 0.103261
H	-0.884525005	-2.6602548946	 1.1614141591	 0.108054
H	 0.7340069158	-0.3458433001	 2.1894421503	 0.075777
H	 2.0100462951	-2.6585928369	-1.1307281411	 0.119316
H	 0.262881954	-2.7165707693	-0.6323383922	 0.115211
H	 1.8910613664	-0.1244916417	-1.3232271493	 0.08745
203.43	223.634	237.9509	322.5435	341.5641	396.3808	516.1898	606.0415	667.7821	719.8611	730.1545	763.8172	858.3467	886.4834	893.7573	925.526	942.9298	983.1921	996.0915	1013.5977	1055.1617	1105.8876	1107.5915	1150.7262	1163.6044	1177.5379	1211.4978	1222.1131	1228.293	1254.984	1270.2907	1282.9284	1309.6476	1385.338	1412.1308	1471.1836	1483.7181	1491.1201	1494.0724	1515.634	3018.0576	3053.5485	3062.4401	3080.5573	3093.0285	3094.3837	3099.6792	3116.5182	3122.2192	3134.9279	3202.0083
CC12CCC1N1CC21	C[C@]12CC[C@H]1N1C[C@@H]21	
InChI=1S/C7H11N/c1-7-3-2-5(7)8-4-6(7)8/h5-6H,2-4H2,1H3	InChI=1S/C7H11N/c1-7-3-2-5(7)8-4-6(7)8/h5-6H,2-4H2,1H3/t5-,6+,7+,8?/m1/s1
