19
gdb 37375	2.87881	2.01057	1.82479	1.2423	75.76	-0.2193	0.0843	0.3036	861.2292	0.164073	-385.875923	-385.869961	-385.869017	-385.905766	26.718	
C	 0.0244218808	 1.5569955151	 0.1964397526	-0.318417
C	 1.2978407976	 0.7789713811	-0.0211651611	-0.011311
C	-0.0359981102	 0.0632251066	-0.0274054823	-0.029442
C	-0.312589811	-0.5702429094	-1.3864253951	 0.046493
C	-0.3047742625	 0.4542672569	-2.534295618	-0.2467
C	 1.1895442066	 0.7146364424	-2.6604837201	-0.121819
C	 1.8241863147	-0.5504398085	-2.1488899442	 0.098946
O	 0.8158529928	-1.424225905	-1.6928748627	-0.263236
C	 1.9872500303	 0.7326027091	-1.3550029095	-0.102796
H	-0.1775365693	 1.8994959868	 1.2056436126	 0.108768
H	-0.3104400904	 2.2413993215	-0.5733091714	 0.114161
H	 1.9499354759	 0.6398418656	 0.8359073602	 0.08409
H	-0.2904310864	-0.5572043619	 0.8251778498	 0.086491
H	-1.1976912187	-1.2083281149	-1.37170215	 0.077621
H	-0.6739047784	-0.0090239325	-3.4555392656	 0.104468
H	-0.9192852794	 1.3316601914	-2.3272148776	 0.106422
H	 1.5761010243	 1.2460411399	-3.5217286767	 0.086078
H	 2.6525167317	-1.0730480574	-2.6098918754	 0.097003
H	 2.9573120516	 1.2158220332	-1.4170591956	 0.083181
254.9112	317.2609	413.6913	475.8831	525.9577	561.6854	639.9164	696.6773	731.1481	772.1023	784.9925	824.8285	856.3719	877.6548	913.731	931.7212	936.3011	980.2742	989.0381	1024.5155	1030.1031	1065.5608	1076.9439	1091.671	1095.0979	1104.3373	1125.4719	1129.5449	1146.4355	1185.1934	1220.3643	1263.071	1293.8622	1317.0774	1345.4747	1359.8993	1377.5198	1407.5633	1413.4946	1485.8042	1508.3247	3052.1725	3098.0069	3113.5414	3139.8631	3143.2237	3154.9212	3163.4689	3180.5018	3197.7572	3224.6566
C1C2C1C1CC3C(O1)C23	C1[C@H]2[C@@H]1[C@H]1C[C@@H]3[C@H](O1)[C@H]23	
InChI=1S/C8H10O/c1-3-4(1)7-5-2-6(3)9-8(5)7/h3-8H,1-2H2	InChI=1S/C8H10O/c1-3-4(1)7-5-2-6(3)9-8(5)7/h3-8H,1-2H2/t3-,4+,5+,6-,7-,8+/m1/s1
