18
gdb 104110	2.32912	1.5239	1.30147	2.5091	69.12	-0.2585	0.0215	0.2801	1071.5126	0.14663	-476.24055	-476.231652	-476.230707	-476.274105	33.193	
C	-0.1279843351	 1.6305324424	 0.2536261127	-0.427655
C	 0.0352863814	 0.141056141	 0.0143525535	 0.42448
C	-1.307160251	-0.5819260429	-0.1855215242	-0.099067
O	-1.1496296285	-1.9812746411	-0.2950193351	-0.419965
O	 0.8944449267	-0.0673350105	-1.0897546521	-0.289837
C	 1.7581360208	-1.1533070742	-0.7961533972	-0.163828
C	 1.7031329327	-1.2742241965	 0.7095773236	 0.361081
N	 2.4469441503	-1.9919167698	 1.4294240119	-0.538411
O	 0.6967150894	-0.4619734832	 1.1476629985	-0.275307
H	 0.853724267	 2.0867535168	 0.3949216856	 0.137185
H	-0.6082889483	 2.0938713921	-0.6123949479	 0.136232
H	-0.740545571	 1.8154194577	 1.1393348715	 0.130288
H	-1.9921589321	-0.3081279498	 0.6301556568	 0.096767
H	-1.7423050179	-0.2373685644	-1.1281179141	 0.126002
H	-0.9253121177	-2.3180655773	 0.5787289609	 0.296842
H	 1.4168408778	-2.0825244061	-1.2660577785	 0.141903
H	 2.768127995	-0.9211947543	-1.1436786708	 0.138484
H	 2.2011870906	-1.9039501996	 2.416275695	 0.224806
77.4234	127.1153	155.6772	195.0974	233.3782	317.7686	335.4396	360.7195	409.3931	476.3693	531.2411	600.9626	627.1375	673.8018	824.9702	858.2349	887.7042	902.0788	925.7068	961.9661	1038.6023	1067.2171	1086.7308	1109.5638	1130.6692	1208.3691	1210.636	1232.3832	1250.5951	1333.2716	1362.3296	1398.3365	1409.7119	1416.8919	1477.7821	1485.7558	1488.6981	1499.9702	1795.1765	3001.908	3045.0824	3056.2471	3095.973	3100.3189	3133.7918	3143.2846	3481.0703	3820.428
CC1(CO)OCC(=N)O1	C[C@@]1(CO)OC[C]([NH])O1	
InChI=1S/C5H9NO3/c1-5(3-7)8-2-4(6)9-5/h6-7H,2-3H2,1H3	InChI=1S/C5H9NO3/c1-5(3-7)8-2-4(6)9-5/h6-7H,2-3H2,1H3/t5-/m1/s1
