16
gdb 10284	2.67905	1.65178	1.1856	2.7425	66.06	-0.2483	-0.0435	0.2048	1043.9454	0.128301	-379.939295	-379.930016	-379.929071	-379.973716	31.572	
C	 0.2058304085	 1.474319192	 0.163325	-0.328524
N	-0.2484314406	 0.1620865454	-0.2769317443	-0.270562
C	 0.5048780471	-0.4478248973	-1.3422772257	-0.197006
C	 1.9788500796	-0.4582251405	-1.1466575932	 0.255702
N	 3.1199580422	-0.4558206241	-0.9570901246	-0.325286
C	 0.0608671614	-1.9316237748	-1.5151189201	 0.39434
C	 0.3914955192	-2.5788066961	-2.8367352161	-0.487047
O	-0.5076682435	-2.4897807519	-0.6133123832	-0.280145
H	 1.2491748409	 1.4988839688	 0.515197426	 0.12652
H	 0.1118773149	 2.1917689158	-0.6598186102	 0.12541
H	-0.4428042684	 1.8138558341	 0.974609065	 0.131988
H	-0.3314939846	-0.5009170356	 0.4859403607	 0.244853
H	 0.3189435865	 0.0827302957	-2.2870459936	 0.134312
H	 1.4358683457	-2.3950923116	-3.1082346636	 0.164454
H	 0.1972372817	-3.6502437728	-2.7854363918	 0.156509
H	-0.2308209106	-2.134458227	-3.6228318053	 0.154482
59.9418	107.8341	127.6443	135.7946	179.3109	198.3806	263.4559	360.1431	370.0999	425.2011	560.9283	594.8537	623.3207	730.6512	824.1329	925.5336	945.6692	1012.4367	1054.5165	1156.263	1161.0205	1174.9877	1230.8829	1274.3209	1334.9597	1387.3413	1460.1886	1463.008	1473.9364	1486.6781	1497.0587	1520.414	1836.7424	2334.43	2984.3058	3012.2702	3039.5612	3063.7474	3104.4097	3116.3315	3160.2839	3544.7936
CNC(C#N)C(C)=O	CN[C@@H](C#N)C(=O)C	
InChI=1S/C5H8N2O/c1-4(8)5(3-6)7-2/h5,7H,1-2H3	InChI=1S/C5H8N2O/c1-4(8)5(3-6)7-2/h5,7H,1-2H3/t5-/m0/s1
