16
gdb 37262	3.27681	2.16655	1.72528	1.0787	68.9	-0.2286	0.0548	0.2835	802.2656	0.127108	-400.650112	-400.644447	-400.643503	-400.679787	24.601	
O	-0.0123715709	 1.4415947112	 0.1438918416	-0.259377
C	 1.2608782767	 0.8057663636	-0.0056578528	 0.025215
C	 0.033454835	 0.0103939405	 0.0277165576	 0.029414
C	-0.3777572778	-0.5804071537	-1.2783816314	-0.048547
C	-0.15059934	 0.1015013302	-2.5679526585	-0.053237
C	 1.1363882921	 0.9456723768	-2.6312022744	-0.114857
C	 1.9183289912	 0.868355868	-1.3415650156	-0.071103
C	 1.8786396813	-0.3181692122	-2.2870504759	-0.028349
N	 0.6168854365	-1.1525147351	-2.262330192	-0.178678
H	 1.9046013476	 0.8600678946	 0.8698435051	 0.096161
H	-0.2584192672	-0.5283863486	 0.9258942588	 0.097447
H	-1.2476717544	-1.2308541543	-1.2459764201	 0.100687
H	-0.8936656991	 0.1177136971	-3.3588517168	 0.102186
H	 1.3329613899	 1.6904564682	-3.389836023	 0.100621
H	 2.8631631523	 1.4022282087	-1.3897624282	 0.096663
H	 2.7659582467	-0.7775400249	-2.7024822743	 0.105753
242.9916	294.1581	479.9354	507.9061	590.3852	640.8497	690.9867	703.9209	740.5355	760.8011	836.02	858.9731	874.4348	881.8935	926.2282	940.0036	971.9689	994.1087	1030.4265	1042.6264	1055.1137	1061.1086	1070.7226	1095.9059	1112.225	1157.788	1218.1261	1260.8798	1283.7199	1307.6159	1328.9052	1374.7595	1406.4954	1441.5867	1473.9372	3126.1669	3136.9925	3149.552	3155.7646	3161.1765	3195.1516	3211.199
O1C2C1C1C3C4C2C4N13	O1[C@H]2[C@@H]1[C@H]1[C@H]3[C@H]4[C@@H]2[C@H]4N13	
InChI=1S/C7H7NO/c9-6-2-1-3(2)8-4(1)5(8)7(6)9/h1-7H	InChI=1S/C7H7NO/c9-6-2-1-3(2)8-4(1)5(8)7(6)9/h1-7H/t1-,2+,3-,4+,5+,6+,7-,8?/m0/s1
