21
gdb 63988	2.86538	1.43305	1.2715	1.0928	77.38	-0.2445	0.0775	0.322	1090.1708	0.183306	-424.224064	-424.215734	-424.21479	-424.256671	33.372	
C	 0.3054566245	 1.4913189448	-0.2015310352	-0.467969
C	 0.0355433483	 0.0027451891	-0.0313751487	 0.420074
O	-1.3579943394	-0.2495010925	 0.1023438671	-0.481187
C	 0.7400586062	-0.9367509887	-1.0628399426	-0.288267
C	 1.4598074287	-1.686230719	 0.0909331096	-0.028046
C	 2.9473948955	-1.3685372339	 0.2763949644	-0.09426
O	 3.0003315984	-0.0801698563	 0.8839800897	-0.250159
C	 1.9260755088	-0.0431192803	 1.8202456852	-0.111198
C	 0.7581915855	-0.7474953632	 1.1320345176	-0.065135
H	 1.3780296118	 1.6965711164	-0.2502320723	 0.139248
H	-0.1456883856	 1.8486833772	-1.1362251911	 0.100249
H	-0.1308227339	 2.0623236766	 0.6243575126	 0.119415
H	-1.8008526972	 0.1338228165	-0.6630909034	 0.271606
H	 0.0271814806	-1.5503972851	-1.6180781646	 0.096304
H	 1.4087914111	-0.4336583638	-1.7682482865	 0.093562
H	 1.2498731185	-2.7541740821	 0.1577244985	 0.073441
H	 3.4201947548	-2.1187193369	 0.9316919569	 0.085952
H	 3.5132130765	-1.3187735048	-0.6585545079	 0.105949
H	 2.1995386873	-0.5830678456	 2.7418513879	 0.088481
H	 1.7434091207	 1.0034649167	 2.0765089627	 0.110569
H	 0.0509703388	-1.2018354549	 1.82594199	 0.081371
66.9043	197.8144	268.4733	280.1509	301.9422	319.2955	363.6164	380.2138	402.4463	478.2574	579.7942	698.7529	712.9566	787.953	861.6469	872.3984	880.1806	899.863	938.933	957.9298	982.9085	997.8989	1038.1301	1055.6549	1101.3469	1117.7705	1141.1905	1167.3004	1190.8292	1207.8693	1231.9017	1255.8736	1263.1042	1287.4731	1316.6758	1331.1309	1346.7505	1375.3628	1396.5177	1405.3802	1463.2538	1490.29	1497.1605	1508.8001	1516.7508	2964.8637	2971.429	3021.1865	3049.0101	3083.8598	3087.6801	3097.469	3099.0519	3113.524	3118.087	3124.1202	3794.7483
CC1(O)CC2COCC12	C[C@@]1(O)C[C@H]2COC[C@@H]12	
InChI=1S/C7H12O2/c1-7(8)2-5-3-9-4-6(5)7/h5-6,8H,2-4H2,1H3	InChI=1S/C7H12O2/c1-7(8)2-5-3-9-4-6(5)7/h5-6,8H,2-4H2,1H3/t5-,6+,7+/m0/s1
