16
gdb 13964	5.30918	1.24096	1.13817	2.8747	65.43	-0.2479	-0.0276	0.2203	1046.3729	0.128763	-383.710848	-383.703202	-383.702258	-383.743784	27.539	
O	-0.3227226373	 0.1239267295	 0.2474040779	-0.23525
C	-0.0126149934	 1.2787810008	 0.1148681254	 0.157919
C	 1.4051429834	 1.762190947	-0.1486820865	-0.393271
C	 1.4652571956	 2.7204105653	-1.3012411622	 0.406532
C	 1.3508431342	 2.4277106213	-2.810256706	-0.286625
C	 2.2195284365	 3.7078530789	-3.0754355533	-0.235069
C	 2.273641143	 3.9272499953	-1.5582037999	-0.04311
O	 0.9182415686	 4.0356587614	-1.10073724	-0.288659
H	-0.7648786425	 2.0949406641	 0.186205847	 0.098315
H	 1.7455895082	 2.286271823	 0.7545425149	 0.134507
H	 2.046965586	 0.8920877492	-0.3139447677	 0.125886
H	 1.8587737437	 1.5079398829	-3.1097510714	 0.113235
H	 0.3326133791	 2.4276911456	-3.2055926536	 0.114747
H	 3.1918878285	 3.4709769748	-3.5130473503	 0.110023
H	 1.7498178274	 4.5160354601	-3.6401473805	 0.116608
H	 3.0348228089	 4.4125506607	-0.9571336037	 0.104212
53.011	70.406	155.4022	258.5835	303.9442	397.0669	466.788	493.3592	661.2133	729.7999	771.5991	821.2172	877.792	915.5695	920.4925	954.0505	982.0049	1030.2258	1038.6743	1083.0308	1143.1101	1169.6128	1212.0321	1220.0221	1236.8375	1255.2837	1294.857	1307.9816	1422.1035	1433.0844	1448.878	1464.112	1491.1128	1835.366	2896.5487	3027.7883	3066.8175	3074.1037	3102.3901	3118.7215	3134.7381	3180.6447
O=CCC12CCC1O2	O=CC[C@]12CC[C@H]1O2	
InChI=1S/C6H8O2/c7-4-3-6-2-1-5(6)8-6/h4-5H,1-3H2	InChI=1S/C6H8O2/c7-4-3-6-2-1-5(6)8-6/h4-5H,1-3H2/t5-,6-/m1/s1
