15
gdb 27006	3.35996	1.1784	0.89286	2.258	73.11	-0.1971	0.0302	0.2273	1227.2342	0.112886	-416.813278	-416.804899	-416.803955	-416.847179	30.936	
O	-0.8623888813	 1.2534620961	 0.3653795395	-0.441254
C	-0.3172987732	 0.0325809908	 0.1514078192	 0.267011
C	 0.2032363056	-0.4237475969	-1.0336776751	 0.220183
C	 0.3134007251	 0.1997734162	-2.3940655342	-0.465183
C	 1.3965246842	-0.3695436217	-3.1932081393	 0.280301
C	 2.2746710589	-0.8838846564	-3.8333757275	-0.441862
N	 0.6126139539	-1.7150470453	-0.7380663706	-0.294415
C	 0.3391582644	-1.9494682473	 0.5674182309	 0.005306
N	-0.234946599	-0.9055188882	 1.1373720446	-0.34403
H	-1.1097159598	 1.2787316053	 1.2975145663	 0.300612
H	-0.627610275	 0.0956943673	-2.9552711058	 0.148626
H	 0.4656601976	 1.2789345809	-2.2723117741	 0.161054
H	 3.0578232898	-1.304786324	-4.4142607735	 0.20159
H	 1.101100581	-2.3171695838	-1.3809963765	 0.269818
H	 0.5766717078	-2.8822012531	 1.0548407759	 0.132243
27.2024	112.2466	211.0889	236.8289	321.3757	332.2019	356.4313	407.1964	530.4759	532.9855	622.7084	650.3259	660.5569	675.7284	727.3305	781.779	792.9316	944.3658	951.413	965.9084	1087.3106	1141.7616	1199.1184	1248.5076	1267.8609	1335.4993	1355.8658	1401.9873	1469.1757	1496.4168	1519.5003	1685.3258	2236.8569	2988.9344	3051.1243	3260.0737	3504.0892	3654.3858	3806.3989
OC1=C(CC#C)NC=N1	Oc1c(CC#C)[nH]cn1	
InChI=1S/C6H6N2O/c1-2-3-5-6(9)8-4-7-5/h1,4,9H,3H2,(H,7,8)	InChI=1S/C6H6N2O/c1-2-3-5-6(9)8-4-7-5/h1,4,9H,3H2,(H,7,8)
