23
gdb 110385	5.19968	0.90924	0.89708	0.0453	90.74	-0.2768	0.0904	0.3672	1450.6216	0.20572	-351.088812	-351.080052	-351.079107	-351.122152	34.335	
C	 0.0095030237	 1.6417318409	-0.1719371906	-0.375021
C	 0.022167265	 0.1589294031	 0.2177246503	-0.207291
C	-1.3563055672	-0.4853112624	 0.1421490952	 0.004274
C	-1.9583635557	-0.8681126417	-1.2300522162	-0.049242
C	-1.120354188	-2.1916965927	-1.3331600421	-0.052675
C	-2.3767818686	-3.0393775869	-1.6361517721	-0.001765
C	-2.3924863094	-4.5180439265	-1.2789276427	-0.419738
C	-2.8478978962	-1.9939661443	-0.6008709944	-0.052328
C	-1.4906069541	-2.0236057878	 0.1872723888	-0.069603
H	 1.0071279222	 2.0849813742	-0.093161597	 0.10947
H	-0.3348619292	 1.7777969368	-1.202840413	 0.115635
H	-0.6616167296	 2.2150179147	 0.4775504654	 0.112566
H	 0.7215233256	-0.38513004	-0.4293697722	 0.091901
H	 0.4092958692	 0.0546064686	 1.2403212742	 0.091203
H	-2.0612935763	 0.0410950614	 0.8013308236	 0.054109
H	-2.2447978035	-0.2294399673	-2.068459057	 0.062149
H	-0.1165913098	-2.294187011	-1.7491970811	 0.064904
H	-2.7852925304	-2.8793669158	-2.6429720308	 0.057719
H	-1.9856270845	-4.6982442066	-0.2783431536	 0.112763
H	-3.4124703647	-4.9182432564	-1.3006049001	 0.112555
H	-1.7965068888	-5.1012426188	-1.9900971935	 0.112356
H	-3.8372834477	-1.8513568659	-0.1603306195	 0.061252
H	-1.2254569822	-2.7027286356	 0.9994342383	 0.064806
75.0415	129.1779	178.3136	215.0726	217.6899	260.0008	308.4394	408.1017	489.1475	551.7215	717.308	749.1056	771.2788	838.5487	842.7836	848.3372	857.4542	887.2367	909.7484	957.6981	966.0912	999.323	1037.5379	1040.9883	1057.5316	1086.967	1100.6556	1117.019	1135.2238	1143.112	1153.6393	1154.7918	1186.4585	1189.7704	1231.8262	1244.7481	1280.8662	1292.1234	1317.4189	1349.0056	1397.2359	1407.8685	1413.0779	1419.3063	1485.0882	1494.9286	1498.8478	1499.4328	1506.9165	3001.5488	3013.723	3015.1707	3026.2121	3029.287	3050.3802	3080.716	3086.788	3087.1524	3089.0819	3095.9609	3099.1833	3101.183	3104.2707
CCC1C2C3C(C)C2C13	CC[C@H]1[C@H]2[C@@H]3[C@@H](C)[C@H]2[C@H]13	
InChI=1S/C9H14/c1-3-5-8-6-4(2)7(8)9(5)6/h4-9H,3H2,1-2H3	InChI=1S/C9H14/c1-3-5-8-6-4(2)7(8)9(5)6/h4-9H,3H2,1-2H3/t4-,5-,6-,7+,8-,9+/m1/s1
