19
gdb 40476	3.67176	1.39028	1.25911	1.8937	80.21	-0.2296	0.0827	0.3123	1059.5883	0.160323	-381.93609	-381.928827	-381.927882	-381.968026	29.05	
C	-0.1149990377	 1.3461022448	-0.2196200138	-0.236451
C	 1.2863018757	 0.9075759951	 0.0192843965	-0.236462
N	 0.1816442305	-0.0465893092	 0.1155511013	-0.179681
C	-0.1811527246	-0.4957758818	 1.4195788706	 0.361899
C	-0.2127371376	 0.1648617616	 2.8102284183	-0.24265
N	-0.7057339855	-1.2393376821	 3.1333685268	-0.157979
C	-1.4703067185	-1.294238554	 1.7849293817	-0.049099
C	-0.8570657827	-2.6540151058	 1.4370673026	-0.261432
C	 0.2658399665	-1.8355480891	 2.0814815393	-0.049086
H	-0.5780385189	 1.9677800858	 0.5439349952	 0.116447
H	-0.4756263682	 1.5167850333	-1.2296061808	 0.120446
H	 1.965997006	 0.7526654615	-0.8133456533	 0.120444
H	 1.7592405323	 1.2363888685	 0.942387229	 0.116433
H	 0.7368537671	 0.4114148428	 3.2970018805	 0.098745
H	-0.9604167353	 0.9405599758	 3.007016514	 0.09875
H	-2.5039617773	-0.9482121539	 1.7268111308	 0.080065
H	-1.2217195273	-3.5082994039	 2.0125415547	 0.105926
H	-0.7474147015	-2.8835246369	 0.3761431414	 0.113628
H	 1.2767201771	-2.1269823625	 2.3725926452	 0.080056
67.1801	172.2089	197.9699	304.9466	385.786	481.2174	485.4034	557.4163	730.7253	784.2801	810.3961	844.9328	872.2723	885.4239	886.5879	927.3217	932.0649	941.3356	1007.8287	1014.0707	1038.2354	1062.6208	1094.1384	1105.6472	1115.6905	1122.8715	1128.1396	1145.6944	1164.9477	1179.0118	1199.893	1207.7383	1216.4239	1228.9599	1265.2622	1310.9935	1370.3139	1483.4292	1489.0195	1514.7662	1516.0656	3032.571	3067.9013	3092.2565	3096.4842	3102.5608	3103.4035	3106.239	3140.0906	3184.1953	3198.6519
C1CN1C12CN3C1CC23	C1CN1[C@@]12CN3[C@@H]1C[C@@H]23	
InChI=1S/C7H10N2/c1-2-8(1)7-4-9-5(7)3-6(7)9/h5-6H,1-4H2	InChI=1S/C7H10N2/c1-2-8(1)7-4-9-5(7)3-6(7)9/h5-6H,1-4H2/t5-,6+,7+
