21
gdb 55453	3.12094	1.15608	0.91034	2.7251	79.23	-0.2398	-0.0102	0.2296	1322.3833	0.182459	-424.26291	-424.253832	-424.252888	-424.297858	33.965	
C	 0.6935848931	 0.2323267213	 0.8655112931	-0.470535
C	-0.1912944522	 0.3250775045	-0.3560150084	 0.349852
O	 0.0411036002	 1.0666223559	-1.2835756455	-0.310165
C	-1.4386418838	-0.5642549622	-0.405504357	 0.034082
C	-1.4822439501	-1.3951681477	-1.6971429589	-0.189607
C	-2.7245004826	-2.294772623	-1.7000766621	-0.219467
C	-2.7945188359	-3.1054146531	-0.3974474346	-0.194337
C	-2.6669835091	-2.1749112564	 0.8096707475	-0.067992
O	-1.4849914455	-1.3878803567	 0.7471695979	-0.262757
H	 1.5336812682	 0.9192288294	 0.7590214242	 0.132519
H	 0.1168029607	 0.4656518115	 1.7661561872	 0.146885
H	 1.0486477703	-0.7949675445	 0.9941596431	 0.147678
H	-2.3068124101	 0.1215269336	-0.4027785111	 0.089136
H	-1.4641909542	-0.7156641036	-2.5527405661	 0.12165
H	-0.5750113839	-2.0107601199	-1.7465208616	 0.099994
H	-3.6241232989	-1.6702165092	-1.7886011856	 0.098197
H	-2.7159134397	-2.9587269604	-2.570620307	 0.099682
H	-3.7336275519	-3.6662597946	-0.3306641632	 0.096527
H	-1.9759288754	-3.8350907133	-0.3689795975	 0.104349
H	-3.5491129435	-1.513696268	 0.8685261089	 0.086992
H	-2.6061216156	-2.7367420136	 1.7460922766	 0.107317
19.195	115.2101	156.0076	186.5199	239.5399	288.9424	331.7108	411.6207	451.5321	472.4901	517.4787	564.2572	597.4542	786.4341	832.1184	849.7899	886.9777	913.9155	922.215	973.7864	1011.8817	1040.675	1060.2834	1083.7612	1115.7345	1142.6614	1190.4083	1229.9464	1237.8469	1279.9456	1286.4359	1318.817	1358.6005	1368.6184	1375.3434	1377.413	1380.066	1414.3992	1453.6024	1463.4631	1473.0503	1482.759	1490.0453	1501.954	1809.3625	2931.1683	2957.7679	3015.7468	3029.6548	3032.47	3047.9659	3070.9353	3077.8425	3086.3816	3107.1315	3110.3224	3158.4247
CC(=O)C1CCCCO1	CC(=O)[C@H]1CCCCO1	
InChI=1S/C7H12O2/c1-6(8)7-4-2-3-5-9-7/h7H,2-5H2,1H3	InChI=1S/C7H12O2/c1-6(8)7-4-2-3-5-9-7/h7H,2-5H2,1H3/t7-/m1/s1
