17
gdb 88341	4.04336	0.92744	0.83166	5.0753	73.15	-0.237	-0.034	0.203	1366.1002	0.13618	-455.16108	-455.152547	-455.151603	-455.194866	31.753	
O	 0.1341423779	 1.5065300437	 0.0052396932	-0.418051
C	 0.0537663376	 0.1379065278	 0.0905281713	 0.155028
C	-0.3899827314	-0.570702691	 1.324456438	-0.321087
C	-1.3162934584	-0.579735266	 0.1049440223	-0.194372
C	-2.5272123811	 0.268363765	 0.1205182378	 0.458624
N	-2.5131862055	 1.4335615133	 0.6439578487	-0.564951
N	-3.6447834416	-0.3208721158	-0.5094838785	-0.363808
C	-4.8883388836	 0.2391650866	-0.6785083927	 0.170344
O	-5.2241039363	 1.3418031974	-0.3114152366	-0.294774
H	-0.713526698	 1.8595885493	 0.3526382725	 0.30912
H	 0.8143352644	-0.341125306	-0.5191209875	 0.108808
H	 0.0734297222	-1.5128131319	 1.5972942347	 0.116645
H	-0.7217460939	 0.0470169548	 2.1521663297	 0.141721
H	-1.3926276592	-1.5098689342	-0.4493664777	 0.080177
H	-3.4120704786	 1.9023593905	 0.5538513249	 0.257626
H	-3.5258372351	-1.2581141327	-0.8632630824	 0.260143
H	-5.5734142894	-0.453270981	-1.2037726177	 0.098807
55.4732	92.4799	172.5391	237.8356	264.0131	312.0624	324.2341	438.9649	475.5904	586.0382	602.1385	660.381	715.0618	754.2218	767.8075	837.8375	902.664	928.711	939.2874	1005.1106	1025.8116	1049.382	1060.1221	1107.2386	1123.9884	1152.999	1187.4347	1243.402	1302.1157	1376.4127	1427.8277	1440.3275	1458.0876	1508.0821	1516.2652	1701.874	1812.0908	2954.9331	3130.2559	3148.2887	3158.8659	3228.1273	3454.311	3514.4405	3620.9754
OC1CC1C(=N)NC=O	O[C@H]1C[C@H]1C(=N)NC=O	
InChI=1S/C5H8N2O2/c6-5(7-2-8)3-1-4(3)9/h2-4,9H,1H2,(H2,6,7,8)	InChI=1S/C5H8N2O2/c6-5(7-2-8)3-1-4(3)9/h2-4,9H,1H2,(H2,6,7,8)/t3-,4+/m1/s1
