21
gdb 116914	4.03686	0.58457	0.53744	1.6183	90.1	-0.2281	0.0549	0.2829	2080.7938	0.180695	-387.051914	-387.041248	-387.040303	-387.089544	37.558	
C	-0.3535570882	 1.4217486663	 0.2803237823	-0.405676
C	 0.030292865	-0.0243655753	 0.0745709669	 0.017347
C	 1.4127725405	-0.4032451114	-0.3693774404	-0.286393
C	 0.9645509518	-0.7400838728	 1.0481716676	-0.188871
C	 1.5347951142	-0.0567686418	 2.172962026	 0.110123
C	 2.017066046	 0.5033650651	 3.1262425464	 0.020409
C	 2.574900687	 1.1853063417	 4.2869506299	-0.325307
C	 1.4984474691	 1.8071518621	 5.1835241606	-0.061561
O	 2.1690657319	 2.4344835633	 6.2639203975	-0.415978
H	 0.4745420432	 1.9897975596	 0.7126382035	 0.127533
H	-0.6303036158	 1.8906279649	-0.6702588428	 0.114806
H	-1.2070933764	 1.5115363954	 0.9610077657	 0.117552
H	-0.7709390739	-0.6541421742	-0.3035529377	 0.087612
H	 1.5402939197	-1.226431618	-1.0636395808	 0.113514
H	 2.1448197945	 0.390613419	-0.4692196566	 0.121591
H	 0.7332889313	-1.7867425152	 1.2266029138	 0.104552
H	 3.1674068827	 0.4885679044	 4.8929285718	 0.135063
H	 3.26321855	 1.9800775145	 3.9733577727	 0.133676
H	 0.9068968987	 2.5266747697	 4.5977770517	 0.09533
H	 0.8132337868	 1.0194058036	 5.530496072	 0.096613
H	 1.5088010019	 2.8255249591	 6.8429848099	 0.288067
20.2002	62.2668	79.5706	127.9295	156.2867	208.9812	234.8006	269.1202	334.2692	355.2397	385.0656	445.2847	519.9092	596.7477	731.7963	765.3641	792.7001	853.3016	886.9708	932.2016	984.8117	1004.9544	1067.3939	1067.6887	1078.7564	1087.0437	1104.7736	1143.7699	1179.2338	1199.7941	1221.4875	1235.052	1244.2113	1304.2337	1333.2887	1381.3037	1404.2047	1423.3617	1453.7419	1476.5647	1484.6304	1492.5772	1501.9418	1527.6157	2359.4013	2982.6232	3012.925	3026.731	3032.6539	3063.4071	3092.3558	3112.5511	3134.1642	3135.1742	3144.6132	3224.5079	3834.574
CC1CC1C#CCCO	C[C@H]1C[C@H]1C#CCCO	
InChI=1S/C8H12O/c1-7-6-8(7)4-2-3-5-9/h7-9H,3,5-6H2,1H3	InChI=1S/C8H12O/c1-7-6-8(7)4-2-3-5-9/h7-9H,3,5-6H2,1H3/t7-,8+/m0/s1
