21
gdb 81006	2.43755	1.50989	1.24408	2.3012	77.98	-0.2465	0.0739	0.3204	1111.0884	0.182669	-424.215898	-424.207099	-424.206154	-424.248559	35.098	
C	-0.1656239981	 1.5199094981	 0.0162827841	-0.437637
C	-0.0016190069	 0.0057223191	 0.0265871936	 0.015148
C	 1.1101707079	-0.6178947212	-0.8787221814	-0.040975
C	 2.1273413629	-0.2934625993	 0.2514941905	-0.319004
C	 0.8855339674	-0.6049073253	 1.1503837445	 0.424018
O	 0.7277699552	-0.1146981075	 2.4453562394	-0.491969
C	 0.7106097344	-2.1180969747	 0.9023780665	-0.330367
C	 0.8850945513	-2.1224721992	-0.6559527055	 0.135952
O	-0.2592893695	-2.5462710836	-1.3756900679	-0.440445
H	 0.7831834963	 2.0598584366	 0.0715888346	 0.114504
H	-0.6772845506	 1.8400138789	-0.8975902044	 0.113135
H	-0.7728316939	 1.8384580188	 0.869445814	 0.126733
H	-0.9818706157	-0.4672594365	-0.0829753609	 0.0765
H	 1.2628624131	-0.2949229711	-1.9076240761	 0.066202
H	 3.0078670526	-0.9375565078	 0.3485844874	 0.080159
H	 2.4279132195	 0.7530031135	 0.2808915934	 0.106955
H	 1.2970734496	-0.6185591752	 3.0367348884	 0.276782
H	 1.4658373961	-2.71974896	 1.4211677918	 0.081757
H	-0.2834553041	-2.4709275793	 1.1928301417	 0.100042
H	 1.7659413385	-2.7047728029	-0.9627173105	 0.061424
H	-0.428924816	-3.4670267215	-1.1538882032	 0.281086
161.7361	179.5525	203.4049	217.3738	241.1622	264.3561	343.5558	402.5004	416.9896	466.6985	476.6492	553.1287	635.9961	670.76	786.7023	836.2703	848.6455	869.5448	923.497	956.3985	967.6223	1005.1308	1041.6633	1056.5558	1083.5776	1100.0513	1122.64	1145.7866	1163.9232	1192.1172	1202.3508	1222.6213	1246.2701	1254.1962	1289.7704	1304.4656	1345.4338	1366.9621	1411.5666	1416.9469	1420.67	1482.0565	1495.6162	1501.1948	1514.6667	2987.4171	3034.0666	3037.9259	3048.7017	3063.3521	3092.3135	3100.4723	3113.3149	3126.2605	3145.1428	3804.8941	3819.7108
CC1C2CC1(O)CC2O	C[C@H]1[C@H]2C[C@]1(O)C[C@H]2O	
InChI=1S/C7H12O2/c1-4-5-2-7(4,9)3-6(5)8/h4-6,8-9H,2-3H2,1H3	InChI=1S/C7H12O2/c1-4-5-2-7(4,9)3-6(5)8/h4-6,8-9H,2-3H2,1H3/t4-,5+,6+,7-/m0/s1
