18
gdb 45803	2.72663	1.59783	1.17691	3.6575	77.8	-0.2243	0.0044	0.2288	1061.9521	0.150306	-401.968143	-401.960516	-401.959572	-402.000292	30.202	
O	-0.0182494057	-0.0917909707	-0.0345987595	-0.36512
C	-0.0200711744	 1.123791436	 0.032787975	 0.387913
C	-1.323572305	 1.9085813858	 0.1889660341	-0.382822
C	-1.5407662823	 2.9963524523	-0.8393190539	-0.100324
C	-0.7160306673	 4.0033961078	-1.1359547465	-0.032453
C	 0.6026760008	 4.307274193	-0.5344236084	-0.079496
C	 0.8457138672	 4.2015571735	 0.972502331	-0.317755
C	 1.4832209843	 3.2124194973	 0.0435805223	 0.044375
N	 1.1621048047	 1.8161876341	-0.0299612528	-0.309984
H	-2.1089552417	 1.1561075368	 0.1117939171	 0.135603
H	-1.3800409067	 2.3044157177	 1.2111114581	 0.131123
H	-2.4711417867	 2.9267595183	-1.3952344904	 0.100134
H	-1.0245204858	 4.6900441007	-1.9201551945	 0.092031
H	 1.1405304511	 5.1058943313	-1.0346390568	 0.092782
H	 1.4821984527	 4.9445131265	 1.4405862866	 0.119872
H	 0.012702656	 3.8839412375	 1.5851708821	 0.128601
H	 2.5468790272	 3.3452921738	-0.1193030706	 0.108382
H	 1.9484134617	 1.1922600984	-0.1378487328	 0.247141
80.6271	140.8029	241.8522	307.6952	333.1563	433.4144	472.8008	515.466	557.6496	622.9306	678.0977	687.696	747.862	783.6138	799.6672	862.6907	891.4572	944.375	977.8629	989.231	996.9036	1045.8728	1053.4128	1107.0866	1129.0755	1151.5257	1192.5534	1244.5614	1275.6555	1328.4337	1358.384	1403.4225	1430.3691	1433.5708	1465.4344	1489.0359	1503.7088	1719.3665	1779.9752	3027.6899	3123.8158	3145.0666	3146.1688	3158.9886	3169.7973	3176.4288	3242.247	3609.3949
O=C1CC=CC2CC2N1	O=C1CC=C[C@H]2C[C@H]2N1	
InChI=1S/C7H9NO/c9-7-3-1-2-5-4-6(5)8-7/h1-2,5-6H,3-4H2,(H,8,9)	InChI=1S/C7H9NO/c9-7-3-1-2-5-4-6(5)8-7/h1-2,5-6H,3-4H2,(H,8,9)/t5-,6+/m0/s1
