17
gdb 15779	4.59082	1.09525	0.9618	4.2724	68.92	-0.249	0.0347	0.2837	1189.82	0.142939	-360.019676	-360.011136	-360.010192	-360.053203	30.563	
N	-0.2262350379	 1.6683189126	-0.0919651312	-0.492762
C	 0.018793147	 0.2276545037	-0.0810828363	-0.011555
C	-1.3229219236	-0.5081951198	 0.1372560335	-0.338735
C	-1.9463678097	-0.1993664641	 1.4215576537	 0.278022
N	-2.4353262675	 0.0158727641	 2.445774915	-0.307208
C	 0.7039975014	-0.3072463958	-1.3285486265	 0.014275
C	 2.183342274	-0.3201972392	-1.4210525313	-0.255726
N	 1.4326155565	-1.5854770643	-1.3094187817	-0.318492
H	 0.6541950898	 2.1678892233	-0.1732693007	 0.236067
H	-0.7773175648	 1.9234717327	-0.9079891354	 0.229119
H	 0.6650493415	 0.0135604539	 0.7810837832	 0.097414
H	-2.0197662127	-0.2435075449	-0.6680851857	 0.146743
H	-1.1681151704	-1.5904922531	 0.0718863121	 0.158537
H	 0.1355961194	-0.1525704233	-2.2467590633	 0.090289
H	 2.6749278594	-0.1621493206	-2.3763943752	 0.126799
H	 2.7493689851	 0.0247087326	-0.558490457	 0.114572
H	 1.4965886827	-1.9334155779	-0.3541083033	 0.232642
62.1302	102.1859	128.6366	201.3948	252.2122	299.24	343.6956	396.3133	435.4963	478.4578	568.0777	800.4805	847.1903	878.5598	898.7931	920.8357	951.88	960.5897	1000.8312	1043.9998	1123.9224	1135.0621	1158.4623	1159.3462	1198.1554	1251.3797	1282.3713	1296.1792	1312.1385	1356.675	1400.4621	1426.9153	1462.5203	1510.454	1662.5853	2367.0141	3018.9076	3039.5575	3084.2369	3098.3704	3105.2309	3192.6019	3477.4192	3484.4506	3567.5095
NC(CC#N)C1CN1	N[C@@H](CC#N)[C@H]1CN1	
InChI=1S/C5H9N3/c6-2-1-4(7)5-3-8-5/h4-5,8H,1,3,7H2	InChI=1S/C5H9N3/c6-2-1-4(7)5-3-8-5/h4-5,8H,1,3,7H2/t4-,5+/m0/s1
