18
gdb 49283	2.9623	1.38726	1.00838	3.6659	80.41	-0.2405	-0.0517	0.1888	1165.6179	0.149517	-401.951823	-401.944037	-401.943093	-401.984442	29.703	
O	-0.0674816347	-0.0598943633	-0.1092198895	-0.274614
C	-0.0056093434	 1.1463047945	-0.0266505368	 0.085767
C	 1.2464130177	 1.9114448188	 0.0865267512	 0.266135
C	 1.2111857424	 3.2527726487	 0.0854323817	-0.132173
C	 2.4417103379	 4.1126795084	 0.1306946876	-0.265716
C	 3.6475996349	 3.4273406646	 0.8079497914	-0.215622
C	 3.7646504521	 1.941038685	 0.4796123236	-0.043612
N	 3.1649164208	 1.0286131673	 1.4742324182	-0.332404
C	 2.5373377455	 1.1769848797	 0.1406008889	-0.147799
H	-0.9258724021	 1.7741652603	-0.0481970647	 0.063785
H	 0.2468419177	 3.7540856053	 0.0150332389	 0.102648
H	 2.6929331245	 4.3899386461	-0.9049070654	 0.126441
H	 2.2180579604	 5.0590980201	 0.6349555148	 0.116281
H	 4.566752383	 3.9500202561	 0.5256633606	 0.100234
H	 3.5442577195	 3.5204418694	 1.8931936352	 0.12451
H	 4.6908283986	 1.6229491723	 0.0080595818	 0.087905
H	 3.6801978636	 0.1515251005	 1.5019586623	 0.233238
H	 2.6093354816	 0.3308440362	-0.5363660897	 0.104998
77.136	139.1208	178.6624	237.7408	307.7211	391.3197	417.1215	524.8736	580.5431	594.009	707.199	776.7415	787.8548	859.812	896.6213	912.0087	926.4148	927.9197	992.5084	1037.6294	1042.868	1073.3911	1116.7627	1158.9258	1195.528	1207.7968	1222.9369	1253.4463	1282.2445	1329.2193	1348.5539	1384.7026	1409.1934	1427.4996	1465.1838	1472.4673	1482.622	1700.8788	1789.8145	2867.0248	2994.9763	3047.9523	3063.0336	3094.0803	3136.6644	3141.5104	3156.0268	3492.2122
O=CC1=CCCC2NC12	O=CC1=CCC[C@H]2N[C@@H]12	
InChI=1S/C7H9NO/c9-4-5-2-1-3-6-7(5)8-6/h2,4,6-8H,1,3H2	InChI=1S/C7H9NO/c9-4-5-2-1-3-6-7(5)8-6/h2,4,6-8H,1,3H2/t6-,7+/m1/s1
