13
gdb 25205	2.39598	1.93422	1.32144	5.6508	68.99	-0.2602	-0.0815	0.1787	937.2074	0.089995	-452.761699	-452.754456	-452.753512	-452.79386	26.429	
N	-0.2365947102	 1.4233997303	-0.2257445969	-0.47649
C	-0.0770901465	 0.1827430371	-0.1701647868	 0.31736
O	 1.1900454272	-0.4036663559	-0.2357242166	-0.21333
C	 1.4343328421	-1.6304367768	-0.7373236368	 0.076595
C	 0.6144368813	-2.463172092	-1.406227154	-0.170879
C	-0.7909524669	-2.2468111585	-1.694121733	-0.001081
N	-1.6191253558	-1.5108882899	-1.0479850863	-0.225876
C	-1.2125867249	-0.8049708172	 0.078691594	 0.332916
O	-1.7206962003	-0.9088095143	 1.1642667835	-0.286736
H	 0.6468657779	 1.9115567676	-0.3861380942	 0.23987
H	 2.4761459447	-1.8850383487	-0.5759385021	 0.149388
H	 1.0741438726	-3.3577562185	-1.8115728195	 0.123505
H	-1.1912393111	-2.7888045032	-2.5532041912	 0.134759
83.7042	103.1075	242.3743	301.7606	313.9455	408.439	470.4481	550.4602	626.5303	707.1515	759.6088	784.0553	832.9965	899.7579	918.9693	939.9269	953.664	973.5526	997.5806	1124.1298	1141.4307	1255.5524	1333.6067	1419.5686	1449.3926	1621.1576	1705.1356	1781.8732	1818.8334	3112.6761	3190.2111	3210.082	3471.4223
N=C1OC=CC=NC1=O	[NH][C]1OC=CC=NC1=O	
InChI=1S/C5H4N2O2/c6-4-5(8)7-2-1-3-9-4/h1-3,6H	InChI=1S/C5H4N2O2/c6-4-5(8)7-2-1-3-9-4/h1-3,6H
