17
gdb 56538	2.81966	1.1409	0.8739	2.7058	71.8	-0.257	-0.032	0.2251	1298.2617	0.131208	-458.937005	-458.926717	-458.925773	-458.972732	36.657	
C	 0.0756065435	 1.4750301723	-0.0495096588	-0.490271
C	 0.0644751734	-0.0284584997	-0.0142288428	 0.362893
O	 1.0785327243	-0.6963033188	-0.0240882809	-0.317734
C	-1.2804106954	-0.7805856915	 0.0126191989	 0.017022
O	-1.0596719937	-2.1287888599	-0.2778737844	-0.421836
C	-1.9679630179	-0.6614365657	 1.4155563341	-0.073165
O	-2.2640423226	 0.688407732	 1.7653218048	-0.417892
C	-3.1679536796	-1.4922897056	 1.4597412349	 0.307871
C	-4.2021806324	-2.1038676561	 1.4814597094	-0.439753
H	 1.1026380561	 1.8408262533	-0.0230864044	 0.142547
H	-0.4141893496	 1.8212646185	-0.9674582835	 0.143359
H	-0.5080496143	 1.8684085706	 0.7867633239	 0.175339
H	-1.9602696042	-0.3346688108	-0.7287107935	 0.087995
H	-0.0940711356	-2.2375940438	-0.2268950439	 0.29499
H	-1.2459820149	-1.0193422747	 2.1596498435	 0.130588
H	-3.1404892673	 0.8920004898	 1.4210376341	 0.292511
H	-5.1014368297	-2.6687232499	 1.5076770586	 0.205536
49.5544	66.4972	124.4121	138.5207	226.2824	230.4459	263.6716	300.2222	308.9497	377.3156	435.5972	510.3787	518.2552	586.5671	600.9648	638.2732	641.1525	676.5774	842.152	902.7424	976.7036	1019.5019	1066.3279	1075.2809	1137.0329	1199.5346	1242.5254	1270.9145	1291.2541	1352.3234	1386.7958	1407.7057	1442.9921	1467.406	1471.0167	1791.5873	2236.5676	2999.1014	3042.1248	3043.911	3113.3571	3160.3111	3502.2552	3645.4282	3813.1966
CC(=O)C(O)C(O)C#C	CC(=O)[C@@H](O)[C@@H](O)C#C	
InChI=1S/C6H8O3/c1-3-5(8)6(9)4(2)7/h1,5-6,8-9H,2H3	InChI=1S/C6H8O3/c1-3-5(8)6(9)4(2)7/h1,5-6,8-9H,2H3/t5-,6+/m0/s1
