26
gdb 87126	2.33349	1.24833	1.16956	1.0621	92.52	-0.2197	0.0784	0.298	1303.588	0.237648	-369.594217	-369.583066	-369.582121	-369.629431	43.034	
C	-0.2641275952	 1.5933256003	 0.3022094954	-0.317262
N	-0.1190567037	 0.1481223693	 0.2586013816	-0.101835
C	 1.0651021694	-0.4225747899	-0.368957427	-0.308332
C	 0.8402675677	-0.5679334647	 1.1065677541	 0.329029
C	 1.7784848852	 0.2225831595	 2.0099622626	-0.479726
C	 0.2783978854	-1.8820647627	 1.7127693682	 0.2302
C	 1.4194719312	-2.7416788695	 2.2919735854	-0.418598
C	-0.7215668095	-1.5191168985	 2.8307580679	-0.410968
C	-0.4692657509	-2.7168971683	 0.6554622224	-0.424841
H	 0.681678716	 2.1551759078	 0.3442961115	 0.098323
H	-0.798801293	 1.9155741474	-0.5976520623	 0.122686
H	-0.8686487298	 1.875966964	 1.1703924644	 0.121105
H	 0.8944209477	-1.2390411614	-1.0646177179	 0.108665
H	 1.8568396892	 0.2630992155	-0.6736238969	 0.094207
H	 2.1093960471	 1.1478614432	 1.5349392443	 0.115512
H	 1.3040126269	 0.4878669659	 2.9599663082	 0.1198
H	 2.6765540102	-0.3572116238	 2.2384559246	 0.125547
H	 1.8916133948	-2.2761687337	 3.1619580558	 0.109429
H	 1.0316171048	-3.7142874133	 2.6130090353	 0.108386
H	 2.1970349311	-2.9262394494	 1.5421082522	 0.108864
H	-1.5420656221	-0.91760584	 2.4275529135	 0.122134
H	-1.1499315864	-2.4254930684	 3.2717229014	 0.10547
H	-0.2505531184	-0.955226871	 3.6420094393	 0.104471
H	 0.2177466279	-3.1554294598	-0.0753825423	 0.103371
H	-0.9961449292	-3.5442707429	 1.1416409497	 0.101089
H	-1.2016620666	-2.1054426657	 0.1236762187	 0.133277
51.1133	153.8798	164.817	174.4927	230.9633	254.3973	265.3097	291.0747	307.2097	320.6907	342.6882	371.1649	385.3935	444.9213	464.241	482.256	526.0186	634.7504	775.6409	801.895	876.9684	925.3286	935.2387	943.8186	960.6702	978.2018	1034.6772	1040.2742	1069.4877	1094.8124	1123.8049	1148.8985	1166.9833	1200.9897	1206.578	1239.0906	1252.6774	1300.7423	1371.9585	1391.1551	1395.9408	1410.1261	1428.179	1452.4305	1478.2922	1484.255	1486.4105	1493.387	1496.7503	1498.8214	1504.1044	1509.4874	1518.4846	1520.6593	1531.5036	2980.1582	3026.4557	3030.8773	3038.7848	3050.4115	3061.6592	3078.9366	3090.8313	3092.9009	3095.7011	3099.3254	3102.6625	3108.5095	3113.5301	3128.0564	3128.6001	3173.839
CN1CC1(C)C(C)(C)C	CN1C[C@]1(C)C(C)(C)C	
InChI=1S/C8H17N/c1-7(2,3)8(4)6-9(8)5/h6H2,1-5H3	InChI=1S/C8H17N/c1-7(2,3)8(4)6-9(8)5/h6H2,1-5H3/t8-,9?/m1/s1
