21
gdb 94547	2.45844	1.48514	1.18572	2.5344	78.3	-0.2465	0.0595	0.306	1143.5738	0.181229	-424.190276	-424.180875	-424.179931	-424.224491	35.355	
C	 0.0571273721	 1.4941953224	-0.2020747092	-0.474457
C	 0.0143214521	-0.0001259207	 0.0540347231	 0.37577
C	 1.0454907758	-0.8822076794	-0.6129689105	-0.320935
C	 1.1048663467	-0.6329037673	 0.8751014498	-0.288654
C	-1.3893504572	-0.5531435271	 0.1546904684	 0.033307
O	-1.4430785518	-1.9827849881	 0.3871419807	-0.291956
C	-2.1837241544	-1.8184049746	 1.6131859364	-0.100024
C	-2.2101109766	-0.2834325576	 1.4461479399	 0.052422
O	-1.5194762666	 0.4805526198	 2.4060510847	-0.416207
H	 1.0890748259	 1.8389862433	-0.3190827302	 0.111879
H	-0.4841873487	 1.7564725609	-1.1199038385	 0.10712
H	-0.3921456661	 2.0444570485	 0.6301017649	 0.131597
H	 0.7332801994	-1.8692027784	-0.9341453303	 0.124696
H	 1.7795691704	-0.4030738974	-1.2524153453	 0.102075
H	 1.8815419689	 0.0157507238	 1.2656932927	 0.102273
H	 0.8381632133	-1.459734869	 1.5224529636	 0.115398
H	-1.9440909085	-0.2972749583	-0.7601982998	 0.071647
H	-3.152517641	-2.3318158931	 1.5774300134	 0.097293
H	-1.6176075458	-2.1553713625	 2.4905528258	 0.102816
H	-3.2083981341	 0.1278928286	 1.2537912154	 0.075154
H	-2.109526514	 0.6410439762	 3.1486902948	 0.288788
61.239	95.0508	158.5404	218.7161	224.0922	243.324	300.6504	316.6029	369.8713	420.5634	484.3882	536.9295	723.2178	782.153	787.1968	857.4787	876.6535	892.715	939.6793	954.214	979.0412	1028.2927	1041.5639	1046.4554	1072.8348	1075.4776	1083.8478	1124.519	1155.1062	1184.9495	1190.8108	1202.2367	1273.5782	1288.7963	1304.4343	1340.9835	1361.8913	1387.2019	1413.104	1438.9755	1454.7472	1490.03	1496.4023	1510.5188	1513.8041	2987.0671	3010.4933	3022.2797	3026.8625	3063.4045	3087.0225	3110.5525	3131.5939	3137.177	3216.6063	3229.7717	3824.5562
CC1(CC1)C1OCC1O	CC1(CC1)[C@H]1OC[C@H]1O	
InChI=1S/C7H12O2/c1-7(2-3-7)6-5(8)4-9-6/h5-6,8H,2-4H2,1H3	InChI=1S/C7H12O2/c1-7(2-3-7)6-5(8)4-9-6/h5-6,8H,2-4H2,1H3/t5-,6+/m1/s1
