22
gdb 122837	6.7485	0.51658	0.48714	1.8161	82.07	-0.2451	0.032	0.2771	2293.7546	0.191698	-441.485665	-441.474552	-441.473608	-441.523406	38.074	
C	 0.0801643773	 1.5775326468	-0.1813652378	-0.384632
C	 0.0372655804	 0.064140236	-0.0515061583	-0.025511
O	 0.6680952907	-0.5035914501	-1.1795867404	-0.248672
C	 0.6807971043	-1.9159452595	-1.1551457918	-0.050393
C	 1.3828875587	-2.3860294918	-2.4206715487	-0.293087
C	 1.475596415	-3.8835417845	-2.5386432397	 0.417154
N	 1.0066757054	-4.6636195476	-1.6554046746	-0.533728
O	 2.1149691893	-4.2109136374	-3.6957152821	-0.227411
C	 2.2968628174	-5.5890827348	-3.9796839369	-0.264376
H	 1.1146824233	 1.9286009271	-0.2359551432	 0.124483
H	-0.4378552776	 1.8994134119	-1.0893862082	 0.124475
H	-0.4021983593	 2.0492456381	 0.6800157266	 0.112502
H	 0.5460530862	-0.2594187989	 0.8728315227	 0.084016
H	-1.0059988813	-0.2886998212	 0.019565624	 0.084015
H	 1.2061520167	-2.2903962121	-0.2636879403	 0.100777
H	-0.3422470984	-2.3189754739	-1.1120506429	 0.100732
H	 0.8625165757	-1.9947890863	-3.3025500919	 0.131023
H	 2.3944961874	-1.9660221183	-2.463228029	 0.131037
H	 1.1453318026	-5.6480974958	-1.8753237118	 0.2154
H	 2.8214709642	-5.6352934913	-4.9347072743	 0.141781
H	 2.9033183855	-6.0813639686	-3.2094719264	 0.13021
H	 1.3361927765	-6.1111242977	-4.0688667449	 0.130205
42.6933	54.204	91.804	102.8911	128.8225	162.2876	216.9661	223.9763	246.5639	288.3456	355.5279	433.8195	515.6961	549.6283	659.9798	807.7266	823.0914	871.0447	874.4286	919.6095	1007.3254	1043.4027	1084.7485	1097.9156	1132.8505	1148.0748	1173.0222	1176.2849	1186.7582	1219.1832	1224.2319	1263.599	1294.7028	1298.1192	1364.5236	1396.789	1413.3117	1455.7018	1471.693	1476.15	1483.6153	1493.1216	1499.797	1507.2704	1514.9896	1536.1158	1734.143	2951.0952	2974.7068	2988.4413	3013.3252	3016.2399	3043.762	3046.6312	3075.3589	3081.0718	3118.0365	3119.4993	3142.2669	3508.8305
CCOCCC(=N)OC	CCOCC[C]([NH])OC	
InChI=1S/C6H13NO2/c1-3-9-5-4-6(7)8-2/h7H,3-5H2,1-2H3	InChI=1S/C6H13NO2/c1-3-9-5-4-6(7)8-2/h7H,3-5H2,1-2H3
