20
gdb 69500	3.11634	1.51506	1.25312	2.3549	78.14	-0.2303	0.09	0.3202	1080.4467	0.170483	-403.123688	-403.115341	-403.114397	-403.155969	33.006	
C	-0.0170138031	 1.5133691464	 0.006282149	-0.487835
C	-0.0689893794	 0.0179077589	 0.1517694088	 0.416918
C	-1.2979561576	-0.7766856733	-0.2879774286	-0.234938
N	-1.3203184851	-2.0314634937	 0.497572965	-0.132077
C	-1.5306907098	-1.8137782243	 1.9379042317	-0.289765
C	-0.1555393155	-2.0361994047	 1.4168856978	 0.323691
C	 0.5991620311	-3.3275201795	 1.6072267354	-0.479838
C	 0.61743054	-0.7687688779	 1.1835487731	-0.111665
O	 1.1462935618	-0.6982952702	-0.1514317908	-0.300891
H	 0.9364752681	 1.9032783741	 0.3707000475	 0.132575
H	-0.1204968283	 1.8016312389	-1.0457890272	 0.131277
H	-0.8301465371	 1.989384344	 0.5643948179	 0.122093
H	-2.2233065182	-0.2106033634	-0.130486696	 0.102944
H	-1.2308478317	-1.0268363972	-1.3524437511	 0.117259
H	-1.7997791569	-0.814036042	 2.2767176051	 0.103388
H	-2.0497718981	-2.6197644898	 2.4495815518	 0.116036
H	-0.0893640433	-4.1757646514	 1.6243575435	 0.127828
H	 1.3081438406	-3.4748340396	 0.7866720412	 0.136926
H	 1.1603997174	-3.3184721994	 2.5484373254	 0.11414
H	 1.2400791151	-0.3312051659	 1.9615808306	 0.091935
143.5552	183.196	200.4098	207.8242	258.3515	342.4614	376.4723	398.9879	443.3727	511.1956	565.5204	615.4145	738.1485	783.5129	800.7571	850.2886	906.9984	912.7345	928.0631	980.0475	981.6173	1021.4533	1039.6471	1085.7347	1109.6721	1113.7124	1132.0424	1160.4283	1227.5467	1246.6089	1265.6342	1312.1311	1355.5308	1360.8655	1410.3184	1414.9334	1456.2272	1483.5294	1486.0846	1488.42	1497.3894	1498.8799	1509.0926	3031.9713	3035.3491	3036.9267	3076.1843	3089.8415	3096.4256	3101.5405	3124.0224	3125.2252	3131.7996	3179.1617
CC12CN3CC3(C)C1O2	C[C@]12CN3C[C@]3(C)[C@H]1O2	
InChI=1S/C7H11NO/c1-6-3-8(6)4-7(2)5(6)9-7/h5H,3-4H2,1-2H3	InChI=1S/C7H11NO/c1-6-3-8(6)4-7(2)5(6)9-7/h5H,3-4H2,1-2H3/t5-,6-,7+,8?/m1/s1
