19
gdb 39813	2.79345	1.64466	1.5674	1.7842	74.62	-0.2384	0.0868	0.3252	962.6303	0.161173	-422.982049	-422.974882	-422.973938	-423.013263	29.362	
C	 0.1151237522	 1.3484363225	 0.0083420721	-0.36946
C	 1.3788600541	 0.5165888703	-0.0088069605	-0.353252
C	 0.0404544417	-0.147820197	 0.0009650274	 0.377361
C	-0.6787080248	-1.0116030994	 1.0495050912	 0.031494
C	-1.8325731743	-1.1441515837	 0.0142788756	-0.234816
C	-0.6996178849	-1.0002467247	-1.0423056261	 0.031494
O	-0.0689747856	-2.276163786	-1.1930552947	-0.284592
C	 0.6275494158	-2.6489727498	-0.0184821513	 0.035467
O	-0.0453160611	-2.2890130222	 1.1737576833	-0.284592
H	-0.1413544931	 1.8703574256	 0.925059422	 0.117363
H	-0.1595719717	 1.8802525357	-0.897343936	 0.117363
H	 1.9572231933	 0.4844157672	-0.9267893775	 0.122148
H	 1.9754557164	 0.4745141626	 0.8970263686	 0.122148
H	-0.8626231924	-0.6356278511	 2.0575394328	 0.078705
H	-2.3797935954	-2.0877778052	 0.0146259957	 0.102752
H	-2.509251669	-0.2868593164	 0.0256971986	 0.102359
H	-0.9036055309	-0.613370096	-2.0423210772	 0.078705
H	 0.7173527089	-3.7381850679	-0.0252930606	 0.115168
H	 1.6275886408	-2.1928850549	-0.0260024547	 0.094185
162.787	207.6223	240.8328	284.2342	361.6838	421.7628	482.3626	521.3146	631.3339	657.7189	776.5839	830.6403	847.4032	873.039	908.1798	927.0325	955.4344	972.0173	988.8381	1009.2108	1011.1857	1055.3856	1080.7135	1087.6063	1124.7538	1148.256	1151.7401	1186.964	1188.615	1221.3578	1241.0541	1266.3665	1268.1133	1338.3063	1342.2285	1404.4969	1443.1141	1464.5027	1466.5816	1505.4443	1528.2735	2996.3091	3070.7212	3094.6221	3096.1913	3100.1034	3121.2942	3125.9874	3143.4587	3199.1838	3213.8012
C1CC11C2CC1OCO2	C1CC21[C@H]1C[C@@H]2OCO1	
InChI=1S/C7H10O2/c1-2-7(1)5-3-6(7)9-4-8-5/h5-6H,1-4H2	InChI=1S/C7H10O2/c1-2-7(1)5-3-6(7)9-4-8-5/h5-6H,1-4H2/t5-,6+
