14
gdb 80786	2.04162	1.83764	1.18082	5.802	68.24	-0.2649	-0.0234	0.2415	1021.6711	0.100639	-436.654608	-436.646884	-436.64594	-436.686873	28.845	
O	-0.0517126741	 1.4182718578	-0.0808102249	-0.425047
C	 0.0135380776	 0.027922032	-0.0160253862	 0.118385
C	-0.0209829408	-0.6628692452	 1.4095887769	-0.245072
C	-1.504440118	-0.1519813544	 1.5028231585	-0.267596
C	-1.392569993	-0.6618718665	 0.0141589671	 0.055461
C	-2.3962651802	-0.6539847587	-1.0066196663	 0.165265
N	-3.2049757969	-0.6665433881	-1.8331925802	-0.343
C	-0.6210157559	-1.8509060416	 0.6679341566	 0.42607
O	-0.5817760365	-3.0351532479	 0.6189536883	-0.294966
H	 0.8396866863	 1.7719370178	 0.0007755508	 0.301471
H	 0.7287585666	-0.3875510633	-0.7337038577	 0.10913
H	 0.7425866607	-0.6478468991	 2.1819543691	 0.111778
H	-2.1844489782	-0.6964344134	 2.1568578024	 0.135354
H	-1.6030439576	 0.9269741205	 1.5860038257	 0.152768
118.9245	153.6334	178.01	254.0908	284.1569	361.4602	410.3175	519.5002	549.7735	568.2342	628.7059	712.234	770.9854	795.338	812.5331	930.1298	935.2632	1003.7662	1054.1508	1089.7218	1125.2851	1142.7373	1173.2912	1185.4872	1221.8036	1281.926	1318.8282	1441.5297	1507.2413	1938.4153	2353.2969	3055.1983	3107.3075	3170.5886	3195.5694	3825.7934
OC1C2CC1(C#N)C2=O	O[C@H]1[C@H]2C[C@]1(C#N)C2=O	
InChI=1S/C6H5NO2/c7-2-6-1-3(4(6)8)5(6)9/h3-4,8H,1H2	InChI=1S/C6H5NO2/c7-2-6-1-3(4(6)8)5(6)9/h3-4,8H,1H2/t3-,4+,6-/m1/s1
