18
gdb 114300	2.33106	1.40907	1.06824	3.2164	75.73	-0.2664	0.0272	0.2936	1159.9822	0.148131	-401.925123	-401.916564	-401.91562	-401.95861	31.8	
O	-0.1868170899	 1.5431402704	-0.0722256344	-0.425318
C	 0.0356870358	 0.1527537497	 0.1298398754	-0.117137
C	-1.3093149466	-0.5294918791	-0.0416159894	 0.036904
C	-1.9659974897	-0.650466787	-1.4592795025	-0.265067
C	-2.1871091509	-2.1471950229	-1.1990771645	-0.064723
C	-0.8660378414	-2.8603332576	-1.0124685454	-0.169232
C	 0.3197868762	-2.526500784	-1.7567271187	 0.301409
N	 1.2683126799	-2.2719604205	-2.3693003572	-0.357129
C	-1.4491291473	-2.0476281513	 0.1327480005	-0.114441
H	 0.6681644637	 1.9753928892	-0.1516808095	 0.290341
H	 0.7689900237	-0.239783028	-0.584682412	 0.121464
H	 0.4181758749	-0.0483288734	 1.1449795376	 0.083957
H	-2.017762433	-0.0352300734	 0.6304315518	 0.096381
H	-2.8924656162	-0.0824661638	-1.5468664793	 0.116205
H	-1.3245992942	-0.4130424022	-2.3122752975	 0.126164
H	-3.0737448041	-2.7166687002	-1.4487146612	 0.10399
H	-0.9690694998	-3.9302868008	-0.8537756641	 0.135419
H	-1.6561609913	-2.554106245	 1.0684617403	 0.100814
82.0532	125.0454	135.8964	179.9957	244.6557	277.035	364.0345	424.9518	457.5021	565.367	602.7238	734.2712	764.6018	796.5546	837.1415	883.4324	934.2078	963.9447	986.2149	1005.3347	1034.2046	1070.8222	1077.7133	1102.6597	1117.946	1164.4187	1178.6051	1226.7682	1254.079	1268.5155	1275.7141	1302.5746	1334.2438	1375.2508	1410.4364	1464.8805	1490.7238	1523.4338	2345.6464	2960.5107	3047.5187	3067.1445	3071.0423	3132.3236	3153.8202	3176.4598	3193.3782	3836.2751
OCC1CC2C(C#N)C12	OC[C@H]1C[C@H]2[C@@H](C#N)[C@@H]12	
InChI=1S/C7H9NO/c8-2-6-5-1-4(3-9)7(5)6/h4-7,9H,1,3H2	InChI=1S/C7H9NO/c8-2-6-5-1-4(3-9)7(5)6/h4-7,9H,1,3H2/t4-,5+,6-,7+/m1/s1
