15
gdb 128314	5.04484	1.06266	0.8835	6.0327	73.29	-0.2176	-0.0742	0.1434	1248.5469	0.114366	-450.15169	-450.143654	-450.14271	-450.184598	29.317	
C	 0.009711398	 1.4713561314	 0.0221593251	-0.316644
N	-0.0114416679	 0.0229379056	 0.1309266579	-0.361084
C	-1.2095195334	-0.6505297895	 0.0451723668	 0.389509
N	-2.3357441476	 0.0060931102	 0.0661462894	-0.271578
N	-3.4449663543	-0.7661452526	 0.0553557582	-0.271905
C	-3.5289239287	-2.1513415394	-0.0096866236	 0.455877
O	-4.5970865098	-2.7211480702	-0.0276608762	-0.378053
N	-2.2848474029	-2.8121902734	-0.0507705123	-0.284575
C	-1.2154524483	-2.0967081824	-0.0180344175	-0.021239
H	 1.0411266355	 1.8150102684	 0.1194610113	 0.127985
H	-0.406310924	 1.8326991597	-0.9286090502	 0.129362
H	-0.5850713899	 1.9072755903	 0.8289038221	 0.152991
H	 0.7718905	-0.4582215456	-0.2827862742	 0.249348
H	-4.3176718413	-0.2586348248	 0.0828783791	 0.278247
H	-0.2556959656	-2.6200191675	-0.0403144658	 0.121757
73.7665	133.2022	164.3408	197.5015	357.8694	376.1978	386.6646	448.6207	481.7923	539.8307	610.7198	641.0087	692.2952	801.9379	819.9803	836.2659	984.8245	996.2992	1084.0899	1143.6996	1153.0648	1177.6408	1273.2256	1309.9749	1431.2369	1438.4905	1460.2327	1476.3611	1509.0063	1547.527	1585.5565	1686.7695	1812.0567	3009.8463	3090.7373	3092.8502	3138.4447	3614.4372	3622.5049
CNC1=NNC(=O)N=C1	CNc1n[nH]c(=O)nc1	
InChI=1S/C4H6N4O/c1-5-3-2-6-4(9)8-7-3/h2H,1H3,(H,5,7)(H,6,8,9)	InChI=1S/C4H6N4O/c1-5-3-2-6-4(9)8-7-3/h2H,1H3,(H,5,7)(H,6,8,9)
