22
gdb 52711	4.01389	0.67419	0.60898	1.1078	92.65	-0.2324	0.0647	0.2971	1899.4892	0.192064	-367.160304	-367.149496	-367.148552	-367.198318	37.91	
C	-0.0201102729	 1.4749085682	 0.0779991401	-0.497273
C	-0.0155468501	 0.0192303625	 0.0294641444	 0.056591
C	-0.0101035198	-1.1850837351	 0.0020662725	 0.071272
C	-0.0091052069	-2.6469063087	-0.0638592023	-0.160186
C	-1.4447579268	-3.2030764344	-0.1302176989	-0.385743
C	 0.8693671264	-3.1150910104	-1.245421268	-0.13351
N	 1.0365778456	-4.5642127805	-1.2478983197	-0.064393
C	 0.2106192157	-5.3321474836	-2.1763611607	-0.219187
C	 1.6604373155	-5.1309042249	-2.4385923298	-0.225349
H	 0.9985499917	 1.8784164967	 0.0614813772	 0.145488
H	-0.5579662254	 1.9021997594	-0.7757639792	 0.144681
H	-0.5049251484	 1.8416745417	 0.9897087206	 0.146256
H	 0.4618750778	-3.0405684418	 0.8468716879	 0.109806
H	-1.4334847311	-4.2954380681	-0.1082264115	 0.126497
H	-2.0320866785	-2.8459142793	 0.7196949796	 0.120996
H	-1.9464859006	-2.8746300426	-1.0464179414	 0.114793
H	 0.4409685149	-2.7380459371	-2.1917392095	 0.085422
H	 1.8611181119	-2.6631334374	-1.1382887751	 0.11069
H	-0.1582884815	-6.2850428747	-1.8073064052	 0.116369
H	-0.4885461078	-4.786541954	-2.8081554645	 0.111495
H	 1.9278898396	-4.4507693442	-3.2461780016	 0.109119
H	 2.3729256107	-5.9321856117	-2.2638207349	 0.116165
16.462	55.2806	76.5586	101.0134	148.3943	210.2729	260.1317	289.5663	299.6362	341.6901	370.0844	438.9697	511.0889	535.8309	730.0813	782.002	839.9576	883.8062	898.4948	929.429	1017.7163	1033.9915	1043.2698	1053.4371	1054.2972	1109.1962	1117.628	1122.2377	1130.8965	1170.4888	1181.5719	1200.7677	1275.4911	1308.7972	1321.4363	1351.1858	1386.6059	1408.0422	1415.5646	1479.2851	1479.9598	1483.71	1494.342	1496.8054	1501.5044	1523.6222	2369.0314	2940.5467	3017.7678	3024.8726	3042.0279	3066.9731	3084.3119	3084.5769	3092.8384	3097.5265	3112.982	3128.1525	3174.668	3189.3465
CC#CC(C)CN1CC1	CC#C[C@@H](C)CN1CC1	
InChI=1S/C8H13N/c1-3-4-8(2)7-9-5-6-9/h8H,5-7H2,1-2H3	InChI=1S/C8H13N/c1-3-4-8(2)7-9-5-6-9/h8H,5-7H2,1-2H3/t8-/m1/s1
