19
gdb 61625	3.11709	0.83002	0.75168	1.4312	77.87	-0.2561	0.0256	0.2818	1554.7783	0.155641	-422.966612	-422.956434	-422.955489	-423.002665	36.67	
C	-0.599413135	 1.1929255481	 0.4972499885	-0.422528
C	 0.126757651	-0.0772057673	 0.1342866992	 0.081531
O	 1.4015253113	 0.0502414619	-0.507383465	-0.27095
C	 1.3564070691	-0.5745308954	 0.7796809818	 0.059904
C	 2.0788668445	 0.1236781936	 1.9085075435	-0.249996
C	 1.731310962	-0.4944488689	 3.2793818501	-0.056658
O	 2.0285182519	-1.8892730795	 3.322556171	-0.418528
C	 2.3900278543	 0.2319252201	 4.3680330391	 0.291544
C	 2.9756052192	 0.8155297847	 5.2407753248	-0.429666
H	 0.0621797943	 1.927995889	 0.9596363575	 0.128359
H	-1.0282848826	 1.6484709604	-0.4015169895	 0.132394
H	-1.4234017003	 0.9781754108	 1.1866420998	 0.122281
H	-0.5111731609	-0.835686234	-0.3255738217	 0.088909
H	 1.52301109	-1.6514526377	 0.7545326733	 0.101814
H	 3.1619006921	 0.0388219534	 1.7515053427	 0.110536
H	 1.8483869135	 1.1918110893	 1.9225959741	 0.118901
H	 0.6447563173	-0.4416343153	 3.422019828	 0.123008
H	 2.9847764197	-1.9784623419	 3.4053590732	 0.287047
H	 3.4752145087	 1.3305913085	 6.0240254294	 0.2021
39.3833	60.257	114.2916	163.2771	200.9743	223.9493	262.3146	314.8896	342.7662	407.6227	419.4559	531.1825	555.8972	571.1975	635.7486	676.0069	777.8397	792.693	871.1667	936.4112	974.1134	998.7417	1014.1722	1076.6177	1095.3692	1115.8964	1163.6483	1183.5791	1208.9565	1272.9531	1294.8668	1301.3058	1359.4151	1395.8707	1417.2629	1421.967	1468.2388	1473.8002	1494.0964	1511.6423	2233.3646	3028.2011	3038.4742	3043.1815	3078.1296	3098.5711	3101.3188	3117.0656	3134.4213	3502.4647	3803.4992
CC1OC1CC(O)C#C	C[C@H]1O[C@H]1C[C@@H](O)C#C	
InChI=1S/C7H10O2/c1-3-6(8)4-7-5(2)9-7/h1,5-8H,4H2,2H3	InChI=1S/C7H10O2/c1-3-6(8)4-7-5(2)9-7/h1,5-8H,4H2,2H3/t5-,6+,7+/m1/s1
