23
gdb 73121	2.28815	1.7279	1.51943	0.2301	87.5	-0.2566	0.0822	0.3388	1054.9403	0.208049	-351.150962	-351.14298	-351.142036	-351.182789	33.343	
C	 0.3072200832	 1.5181302799	-0.1312845916	-0.477661
C	-0.0623361716	 0.0462323077	 0.0120373875	 0.357386
C	-1.4610929154	-0.2516127178	 0.6447818491	-0.269564
C	-0.7940161148	-1.2163065874	 1.6658822966	-0.238719
C	 0.6137322742	-0.7559710392	 1.1823308232	-0.030838
C	 1.6013193105	-1.7750792092	 0.5748957612	-0.2521
C	 1.3116201928	-1.809566118	-0.9238934879	-0.023653
C	-0.0756627413	-2.1950086897	-1.3665522181	-0.312448
C	 0.2921718324	-0.7342473131	-1.2537921032	-0.0793
H	 1.3576347282	 1.6370155649	-0.4222916473	 0.112377
H	-0.3062418652	 2.0080449988	-0.8971226312	 0.111779
H	 0.1564687773	 2.0578327705	 0.8097782534	 0.106493
H	-1.9028341245	 0.6296384887	 1.118694749	 0.091156
H	-2.2053656369	-0.6875820549	-0.0259893378	 0.096057
H	-1.0141622441	-1.014238386	 2.7171816285	 0.092023
H	-0.9980193784	-2.2752189437	 1.4834780257	 0.098493
H	 1.1045636903	-0.1177419724	 1.9221146569	 0.062176
H	 2.6337171581	-1.4438584167	 0.7350262451	 0.095323
H	 1.5126959919	-2.7625073174	 1.0446602963	 0.09568
H	 2.1360460578	-2.0220492595	-1.5964876751	 0.076548
H	-0.1854953528	-2.5954051901	-2.3691606417	 0.105667
H	-0.7592478152	-2.6353657339	-0.6490083886	 0.110466
H	 0.3635615834	-0.1706729216	-2.17901487	 0.072659
132.2116	208.4402	223.3016	249.6414	315.846	340.5699	384.846	453.2696	560.3647	629.7686	667.0481	733.2233	771.4007	789.3167	819.756	854.9286	872.7274	897.4031	925.7993	947.0511	970.8396	1000.9885	1017.212	1026.5115	1058.2969	1066.7442	1094.9057	1106.1892	1132.911	1152.967	1164.5809	1206.3576	1219.7644	1225.4507	1236.5087	1258.2919	1272.1376	1279.3053	1309.1176	1336.0266	1370.8342	1390.2416	1408.8573	1474.1383	1484.8224	1491.064	1493.9448	1496.1297	1504.4729	3016.9372	3025.2799	3050.8977	3053.1785	3057.2103	3066.8523	3081.2202	3089.4124	3093.8538	3111.3535	3130.2172	3148.0521	3161.6556	3210.3262
CC12CCC1CC1CC21	C[C@]12CC[C@H]1C[C@H]1C[C@@H]21	
InChI=1S/C9H14/c1-9-3-2-7(9)4-6-5-8(6)9/h6-8H,2-5H2,1H3	InChI=1S/C9H14/c1-9-3-2-7(9)4-6-5-8(6)9/h6-8H,2-5H2,1H3/t6-,7-,8+,9-/m0/s1
