27
gdb 60407	4.00144	0.61483	0.59849	0.1221	97.1	-0.2804	0.0849	0.3653	2058.7985	0.251602	-353.561493	-353.550651	-353.549707	-353.598288	40.371	
C	-0.0656163718	 1.5171423823	 0.2890381954	-0.379841
C	-0.0675940717	 0.0070625871	 0.0113690988	 0.043955
C	-1.5064953936	-0.5164487107	-0.0967541592	-0.388417
C	 0.7359388698	-0.3621942722	-1.2493658169	-0.161697
C	 2.241296597	-0.0743382788	-1.1768401087	-0.224102
C	 2.998623881	-0.5351492377	-2.4156933318	 0.066166
C	 2.7817089228	 0.2092518543	-3.767085321	-0.214366
C	 4.2991419668	 0.0530651409	-4.0535495009	-0.21064
C	 4.5156243729	-0.2146062093	-2.5398464831	-0.236967
H	 0.9442565273	 1.9059759991	 0.4478997989	 0.11338
H	-0.5072760126	 2.0673958521	-0.5510414471	 0.108807
H	-0.6535145175	 1.7514830913	 1.1828153679	 0.107759
H	 0.4089078178	-0.4939141597	 0.8672100232	 0.06799
H	-2.0288076948	-0.0514554052	-0.9417499846	 0.109911
H	-1.527455387	-1.6006676071	-0.2502901225	 0.107396
H	-2.0806316618	-0.2943265287	 0.8090706806	 0.106821
H	 0.5961249575	-1.4335608148	-1.4498184206	 0.085293
H	 0.3044108444	 0.1636162218	-2.113483574	 0.091718
H	 2.4163153538	 1.0007536112	-1.0387283748	 0.089878
H	 2.6633355138	-0.5695294783	-0.290217856	 0.088254
H	 2.839160992	-1.6108768863	-2.564508211	 0.064378
H	 2.0773317535	-0.2185735177	-4.4849239436	 0.091883
H	 2.5103407177	 1.2574983491	-3.5989411378	 0.094387
H	 4.5073370458	-0.8364708159	-4.6553975461	 0.099347
H	 4.822777886	 0.9013911816	-4.500774684	 0.093074
H	 4.7686255614	 0.7052814937	-2.0014827012	 0.094648
H	 5.2285734193	-0.991137882	-2.25049752	 0.090987
42.6078	61.9076	97.5951	128.85	170.4002	217.8211	243.8292	249.0585	297.4296	374.4323	403.6937	441.6861	471.4157	637.459	759.279	769.8105	785.6104	830.2227	894.3776	916.7144	925.7471	933.6008	954.6269	960.3334	966.4253	978.8386	1019.0884	1048.3505	1077.1877	1117.4168	1151.538	1187.4101	1194.3345	1204.1324	1225.4912	1255.2819	1258.1467	1264.5285	1269.9853	1289.3576	1301.3681	1326.937	1351.4614	1370.5259	1380.2138	1395.5096	1401.4143	1421.8545	1475.4129	1478.9756	1487.403	1488.4847	1492.1418	1499.1936	1504.7821	1510.93	1513.4225	2990.7711	2996.6784	3005.118	3017.0503	3021.5408	3027.2883	3028.0897	3040.7149	3044.9541	3053.4315	3056.0863	3085.5155	3091.567	3092.3082	3096.329	3096.6683	3106.7885	3113.7613
CC(C)CCC1CCC1	CC(C)CCC1CCC1	
InChI=1S/C9H18/c1-8(2)6-7-9-4-3-5-9/h8-9H,3-7H2,1-2H3	InChI=1S/C9H18/c1-8(2)6-7-9-4-3-5-9/h8-9H,3-7H2,1-2H3
