16
gdb 29144	2.98802	1.46677	0.99089	2.7846	79.68	-0.1952	-0.0564	0.1388	1148.5748	0.124678	-434.09474	-434.086383	-434.085439	-434.127539	31.635	
C	 0.1023718801	 1.4517344371	-0.0007042792	-0.457539
C	 0.0687393975	-0.0442167844	-0.0087895071	 0.27936
N	 0.0655866216	-0.6858059202	-1.1275119983	-0.331416
C	 0.0266900588	-2.0737766916	-1.1114593223	 0.263725
N	 0.107267723	-2.6620165665	-2.3764831708	-0.575386
C	-0.0263055089	-2.7494350504	 0.0526111036	-0.038115
O	-0.0190012914	-2.0937340058	 1.2561298095	-0.221041
C	 0.0371788959	-0.7270109933	 1.300409014	 0.334213
N	 0.0544356543	-0.0818419279	 2.3975899697	-0.5323
H	 0.9801596425	 1.8077530201	 0.548027739	 0.15191
H	 0.1206473155	 1.8259904752	-1.0246361631	 0.13103
H	-0.7667988545	 1.8491123258	 0.5332189483	 0.149714
H	-0.2526668997	-2.0425907262	-3.0903227871	 0.253409
H	-0.3030634212	-3.5829094501	-2.4424151983	 0.246426
H	-0.0680876049	-3.8226922249	 0.1729326033	 0.123416
H	 0.0249232215	-0.7215676168	 3.1927515988	 0.222592
81.9185	158.2185	212.7211	228.6411	291.0565	337.5221	352.5161	399.3301	480.1017	513.1316	575.6593	601.0968	662.4997	692.8167	770.1354	777.9056	815.4411	859.6395	956.4784	995.8354	1047.4304	1053.0397	1127.8882	1183.2122	1229.9469	1316.3828	1366.7433	1401.6737	1412.5236	1462.6845	1464.9359	1622.5114	1643.7102	1688.7478	1720.9799	3047.5251	3102.7536	3155.2231	3231.0445	3480.208	3551.1466	3654.3828
CC1=NC(N)=COC1=N	CC1=C(OC=C([N]1)N)[NH]	
InChI=1S/C5H7N3O/c1-3-5(7)9-2-4(6)8-3/h2,7H,6H2,1H3	InChI=1S/C5H7N3O/c1-3-5(7)9-2-4(6)8-3/h2,7H,6H2,1H3
