21
gdb 112787	2.12093	1.19186	0.84063	1.9945	79.67	-0.2436	-0.023	0.2206	1407.735	0.180691	-424.218508	-424.208488	-424.207544	-424.254086	36.16	
C	-0.0819564897	 1.5847573725	-0.0894148681	-0.420616
C	 0.1057513202	 0.0777685065	 0.0216941916	 0.03308
C	 1.1063827563	-0.6541697055	-0.9107770217	-0.24445
C	 1.4456006204	-1.6040432674	 0.2638571433	 0.043449
C	 2.8660454937	-2.1039262425	 0.4466089775	-0.114043
O	 3.1213448703	-3.0212476701	-0.6067927024	-0.422214
C	 0.8454570547	-0.5515206021	 1.2651756777	-0.151653
C	 1.8690004722	 0.3558965946	 1.8888750042	 0.165248
O	 1.9582635765	 0.5702817311	 3.0729138136	-0.262483
H	 0.8716262931	 2.1219584248	-0.071920994	 0.117264
H	-0.5825616354	 1.8378749245	-1.0303323235	 0.120311
H	-0.6983632562	 1.9710450821	 0.7295831076	 0.125404
H	-0.8714198761	-0.4120275677	-0.0466489614	 0.086802
H	 0.720376276	-1.0984023438	-1.8302083173	 0.107135
H	 1.9590542337	-0.0152228945	-1.1675744626	 0.098511
H	 0.7831802355	-2.4750572925	 0.2416437019	 0.094192
H	 3.5781937328	-1.263736044	 0.418468807	 0.084173
H	 2.9654563444	-2.5842802249	 1.433948552	 0.09598
H	 4.0246280098	-3.3393435822	-0.5189115916	 0.289165
H	 0.2143756694	-0.9418966725	 2.0663517152	 0.083537
H	 2.5730096985	 0.8459063835	 1.1775482112	 0.071207
54.9995	83.2786	100.0022	147.0806	216.5977	249.0213	266.3355	298.9902	320.6469	399.4486	437.8494	451.7094	483.5676	657.6979	768.4508	867.5629	881.4902	916.6387	955.0265	967.6754	1004.4304	1024.6493	1072.1299	1080.195	1137.8747	1147.0144	1149.0388	1167.7291	1226.2784	1236.8151	1256.8721	1268.3758	1274.9386	1285.0924	1331.0712	1356.5215	1387.6623	1415.4427	1439.9137	1463.5742	1494.0849	1498.4325	1501.9052	1521.6587	1818.587	2858.4917	2962.8198	2990.4368	3031.7088	3041.1444	3048.3496	3062.0944	3092.1929	3096.4979	3103.8906	3113.2676	3829.1341
CC1CC(CO)C1C=O	C[C@H]1C[C@@H](CO)[C@H]1C=O	
InChI=1S/C7H12O2/c1-5-2-6(3-8)7(5)4-9/h4-8H,2-3H2,1H3	InChI=1S/C7H12O2/c1-5-2-6(3-8)7(5)4-9/h4-8H,2-3H2,1H3/t5-,6-,7-/m0/s1
