18
gdb 78211	2.32639	1.6063	1.43174	2.8852	72.02	-0.2354	-0.0136	0.2218	1029.4812	0.145376	-439.067357	-439.058261	-439.057317	-439.100583	34.064	
C	-0.0075978557	 1.5639752784	 0.0364750532	-0.418629
C	 0.0454032456	 0.0652076962	-0.1472121227	-0.00645
C	 0.7051762321	-0.673919577	-1.2366182258	-0.062421
N	 1.2528834456	-0.75717756	 0.2126920272	-0.204
C	 2.4011256807	 0.0014155594	-0.2387729515	 0.336039
O	 3.33559618	 0.410979011	 0.3785713348	-0.314116
C	 2.0065202317	-0.0511406877	-1.7402027297	 0.257753
C	 2.8867657852	-1.0319083248	-2.5134463391	-0.451701
O	 1.8454198093	 1.1687651606	-2.4312265208	-0.461951
H	 0.8322840079	 2.0741348466	-0.434664242	 0.151129
H	-0.9284312706	 1.9490194008	-0.4135990447	 0.127634
H	-0.0248786698	 1.8083863428	 1.1032705172	 0.133734
H	-0.8376582584	-0.4431019322	 0.2359221053	 0.112634
H	 0.2613526308	-1.5568830647	-1.6831390281	 0.106979
H	 2.95734053	-1.996292451	-2.0024143181	 0.141357
H	 2.4735862602	-1.1887410846	-3.5144075698	 0.132309
H	 3.9009065146	-0.62986809	-2.610447661	 0.129906
H	 2.7236493107	 1.5113709163	-2.6344636443	 0.289795
115.6242	159.0951	180.0113	202.7347	225.9429	247.7752	293.778	309.4372	366.4411	400.3488	530.2815	602.7017	652.8856	669.6966	738.3065	791.1527	848.425	888.3714	915.9062	974.7974	997.617	1051.3036	1068.6342	1099.6282	1104.7824	1174.6909	1177.8714	1215.7048	1269.7245	1325.5684	1397.3377	1407.0439	1418.6817	1433.4906	1486.908	1488.9648	1492.8962	1503.1053	1907.9032	3035.5594	3045.4955	3106.136	3108.2277	3121.5658	3125.1818	3157.4206	3179.6464	3797.7678
CC1C2N1C(=O)C2(C)O	C[C@H]1[C@@H]2N1C(=O)[C@]2(C)O	
InChI=1S/C6H9NO2/c1-3-4-6(2,9)5(8)7(3)4/h3-4,9H,1-2H3	InChI=1S/C6H9NO2/c1-3-4-6(2,9)5(8)7(3)4/h3-4,9H,1-2H3/t3-,4-,6+,7?/m0/s1
