17
gdb 98098	3.76923	1.05392	0.84808	0.936	73.28	-0.2384	-0.0406	0.1978	1348.1442	0.135359	-455.172207	-455.162759	-455.161815	-455.207452	32.453	
C	-0.0408861178	 1.3870511109	 0.0389214542	-0.332796
N	-0.0099556255	-0.0409474739	-0.187386125	-0.297089
C	 0.5144100344	-0.6028804195	-1.2965895018	 0.31479
O	 1.0201160121	-0.0115613321	-2.2348575701	-0.381016
C	 0.4166528242	-2.1450676086	-1.2278191024	 0.29899
O	 0.0053216097	-2.7122495446	-0.2326695292	-0.364748
N	 0.7499781764	-2.7756893032	-2.3920949474	-0.054967
C	 1.971377099	-2.7035661613	-3.1540871025	-0.204752
C	 1.5062778276	-3.9945570731	-2.5332295054	-0.232243
H	 0.3895970629	 1.8706034097	-0.8393788349	 0.167611
H	-1.0674017762	 1.7431629394	 0.1775170645	 0.132581
H	 0.5458826587	 1.6630290878	 0.9222847565	 0.131482
H	-0.3640432487	-0.6917784229	 0.4995778778	 0.268257
H	 1.8533768412	-2.5419121016	-4.2211232229	 0.137202
H	 2.8140077654	-2.1899473543	-2.7024743129	 0.143729
H	 2.0204514328	-4.3593206334	-1.6478826245	 0.139279
H	 1.0596371138	-4.7613792994	-3.1592735738	 0.133688
58.8857	82.3511	104.826	138.3348	160.3345	194.3332	247.2884	343.115	394.7941	474.8432	531.0357	651.8998	667.7247	798.2811	809.2201	834.6647	905.71	992.777	1036.5832	1055.3474	1130.7978	1134.4987	1152.2687	1157.2272	1169.5716	1181.3858	1192.4096	1254.4103	1442.4715	1447.8971	1494.8463	1497.0893	1497.5673	1528.2224	1571.8564	1764.7331	1788.2137	3029.566	3082.6939	3115.4304	3126.8164	3147.6339	3201.7693	3219.0726	3604.7582
CNC(=O)C(=O)N1CC1	CNC(=O)C(=O)N1CC1	
InChI=1S/C5H8N2O2/c1-6-4(8)5(9)7-2-3-7/h2-3H2,1H3,(H,6,8)	InChI=1S/C5H8N2O2/c1-6-4(8)5(9)7-2-3-7/h2-3H2,1H3,(H,6,8)
