16
gdb 45645	3.2613	1.63335	1.18318	4.0278	77.32	-0.2089	0.0047	0.2136	1013.5401	0.12553	-400.732076	-400.725064	-400.72412	-400.764226	27.408	
O	-0.1620777328	-0.0855025647	 0.0008700791	-0.371551
C	-0.0924078783	 1.1140906786	 0.1162288126	 0.373555
C	-1.2467251548	 2.1666777002	 0.0343149192	-0.376909
C	-0.5955993486	 3.5230371498	 0.2699118074	-0.327517
C	 0.7031353317	 3.2736810569	 0.4348945854	 0.420597
C	 2.1335969147	 3.6200087049	 0.7473998824	-0.247823
C	 2.5967353302	 2.7609181191	 1.9218286923	-0.282484
C	 2.4372177323	 2.1118723077	 0.5824666653	-0.006736
N	 1.0143609738	 1.9104481109	 0.3061575298	-0.093741
H	-1.734966521	 2.0764224043	-0.9431742778	 0.142759
H	-2.00397841	 1.91675944	 0.7863545593	 0.142611
H	-1.1097755899	 4.4711011718	 0.2907188239	 0.109855
H	 2.6914380048	 4.4762609764	 0.398362077	 0.120746
H	 3.6215367255	 2.9468898677	 2.2298053272	 0.12995
H	 1.9106478184	 2.5186252861	 2.7270094527	 0.133653
H	 3.2086580341	 1.6012884004	 0.0235267743	 0.133035
37.7806	173.1851	268.0788	313.2773	446.8176	535.892	553.6469	635.3436	660.8432	676.5109	726.7768	753.545	804.1812	861.2899	910.513	939.9507	954.1491	972.4507	983.9746	1021.1667	1032.5117	1087.032	1098.0173	1143.0161	1174.3309	1191.97	1240.2832	1268.8322	1281.4259	1344.2176	1367.8898	1442.4479	1474.3084	1730.7964	1830.4107	3043.3807	3077.2285	3124.1263	3214.1448	3220.2158	3232.7338	3252.8183
O=C1CC=C2C3CC3N12	O=C1CC=C2[C@H]3C[C@H]3N12	
InChI=1S/C7H7NO/c9-7-2-1-5-4-3-6(4)8(5)7/h1,4,6H,2-3H2	InChI=1S/C7H7NO/c9-7-2-1-5-4-3-6(4)8(5)7/h1,4,6H,2-3H2/t4-,6-/m1/s1
