14
gdb 18821	4.41352	2.3917	1.94042	4.8033	59.8	-0.2308	0.0234	0.2542	688.999	0.109928	-378.698643	-378.69297	-378.692026	-378.728192	22.892	
O	 0.0270124718	-0.0403066936	 0.085489039	-0.359741
C	 0.0036274656	 1.153374801	-0.0433748367	 0.399364
N	-1.1086058094	 1.977094752	-0.0192933097	-0.325629
C	-0.699950151	 3.3510986289	-0.0651795274	-0.010739
C	 0.4753500515	 3.8308387838	 0.8115302095	-0.108294
C	 1.2843186783	 2.6272548843	 1.2664665006	-0.194298
N	 1.1814817069	 2.0229059525	-0.1413717576	-0.203246
C	 0.6758075801	 3.3542881293	-0.615424484	-0.035328
H	-1.9669733572	 1.6485547524	 0.3917707706	 0.259311
H	-1.4291198335	 4.0844106639	-0.3843996244	 0.117986
H	 0.508280925	 4.8376066624	 1.2097371757	 0.099529
H	 2.3294558562	 2.8690678672	 1.4685129599	 0.129498
H	 0.8937261456	 1.9914242514	 2.0680613589	 0.124166
H	 1.0471417302	 3.8172317245	-1.5204129643	 0.10742
155.0765	331.6066	391.212	459.0276	506.6768	651.1463	721.0083	753.8707	770.4377	812.1351	830.812	854.3661	920.8025	956.1895	986.96	1010.1385	1019.4252	1037.5871	1081.5899	1100.0452	1125.866	1157.0704	1188.3077	1233.8161	1298.769	1325.5278	1368.5199	1417.5117	1509.9093	1870.2909	3048.6914	3114.1048	3186.4862	3195.335	3209.216	3653.0887
O=C1NC2C3CN1C23	O=C1N[C@H]2[C@H]3CN1[C@@H]23	
InChI=1S/C5H6N2O/c8-5-6-3-2-1-7(5)4(2)3/h2-4H,1H2,(H,6,8)	InChI=1S/C5H6N2O/c8-5-6-3-2-1-7(5)4(2)3/h2-4H,1H2,(H,6,8)/t2-,3+,4-/m1/s1
