16
gdb 30406	2.57882	1.53967	0.96993	2.7919	79.46	-0.2039	-0.0231	0.1808	1164.3103	0.124505	-437.895764	-437.887579	-437.886635	-437.928586	30.636	
C	 0.0609555059	 1.3911755519	 0.1126815997	-0.321272
N	 0.0306740059	-0.0598169008	 0.1010717544	-0.306239
C	-1.1060217952	-0.6428775757	-0.0218767776	 0.253372
C	-2.4272528799	-0.0321591978	-0.1574427962	-0.250769
C	-3.5415722211	-0.7717362555	-0.2791493219	 0.064685
O	-3.5538252638	-2.1178964576	-0.2884287247	-0.194665
C	-2.3479437229	-2.7533966611	-0.1651366626	-0.079081
C	-1.1688599717	-2.1117930038	-0.0371209308	 0.234045
O	 0.0149929805	-2.7575758473	 0.0837038402	-0.405046
H	 1.0956831865	 1.7263152725	 0.2225394095	 0.119745
H	-0.332839463	 1.8307736739	-0.8169446955	 0.10956
H	-0.5166185327	 1.8203862109	 0.946170763	 0.109602
H	-2.5253905579	 1.0449576695	-0.16142529	 0.113511
H	-4.5418172067	-0.3695712317	-0.3821351014	 0.136538
H	-2.4630973513	-3.8298257317	-0.1836602514	 0.118912
H	-0.1351700927	-3.7096280457	 0.0625630252	 0.297103
95.2858	122.9453	211.2371	216.1659	293.7638	336.6586	385.7259	447.6143	490.5488	540.296	544.0097	599.6634	742.1556	758.658	804.3637	832.577	853.0291	947.1807	1018.0353	1051.5813	1094.9549	1117.3754	1165.7217	1196.8836	1266.2543	1286.7071	1349.0244	1424.9671	1433.6725	1470.6985	1491.5087	1505.8036	1641.4036	1670.5487	1707.2175	2969.118	3016.209	3094.6951	3209.3534	3212.5914	3231.4565	3803.6849
CN=C1C=COC=C1O	CN=c1ccocc1O	
InChI=1S/C6H7NO2/c1-7-5-2-3-9-4-6(5)8/h2-4,8H,1H3	InChI=1S/C6H7NO2/c1-7-5-2-3-9-4-6(5)8/h2-4,8H,1H3
