21
gdb 73554	2.623	1.66009	1.33637	1.5924	83.77	-0.2257	0.0182	0.2439	1061.4696	0.184008	-387.111081	-387.102879	-387.101935	-387.143616	32.376	
C	 0.1344392376	 1.5861956931	-0.1986163322	-0.42547
C	-0.0238005878	 0.0719882354	-0.0003549184	 0.347446
C	 0.6547796669	-0.7355781901	-1.1279428704	-0.255999
C	 2.1406885015	-0.832418437	-0.6736958227	-0.210713
C	 2.1431390685	-0.7028659989	 0.8933128538	-0.33224
C	 0.6966789991	-0.4767588023	 1.2100827199	 0.322436
C	-0.1847111493	-0.8692162931	 2.1200014269	-0.27853
C	-1.5781109416	-0.6094169831	 1.5955511215	-0.130601
O	-1.4024104232	-0.2300932271	 0.2270468126	-0.324359
H	 1.1777026959	 1.8622597416	-0.3848483679	 0.109617
H	-0.4619781798	 1.9089175331	-1.0575233406	 0.123091
H	-0.2111711549	 2.129066169	 0.6858265601	 0.116018
H	 0.1923110625	-1.7266856005	-1.1581649522	 0.106177
H	 0.549542028	-0.2833251675	-2.1183403372	 0.093132
H	 2.5983395333	-1.7692088187	-1.0005947171	 0.104711
H	 2.7307217635	-0.0257465282	-1.1180875339	 0.105268
H	 2.5372585941	-1.5938643365	 1.3893908648	 0.114029
H	 2.7727010958	 0.1371588205	 1.2084163882	 0.11347
H	 0.0089343251	-1.3652128235	 3.0632720527	 0.098368
H	-2.2087899096	-1.508698694	 1.639800861	 0.106142
H	-2.1091638255	 0.1832092876	 2.149429681	 0.09801
88.7932	142.8835	210.0044	235.8059	258.1252	322.9377	386.5234	444.7528	573.2146	593.1908	662.6354	708.7026	774.1318	782.8315	823.9441	869.5835	894.291	913.877	942.1183	950.4361	991.9708	998.4658	1039.1962	1066.2264	1078.0327	1117.02	1182.4934	1189.541	1203.2655	1207.3271	1236.11	1260.66	1272.2506	1302.1317	1329.1856	1348.2794	1374.3329	1401.9065	1476.8152	1483.2563	1489.9192	1497.2432	1508.3179	1521.5075	1747.1393	2957.6533	3010.4164	3034.6001	3036.4426	3052.0417	3061.8109	3081.5779	3095.8609	3105.546	3111.2407	3114.515	3207.2586
CC12CCCC1=CCO2	C[C@@]12CCCC1=CCO2	
InChI=1S/C8H12O/c1-8-5-2-3-7(8)4-6-9-8/h4H,2-3,5-6H2,1H3	InChI=1S/C8H12O/c1-8-5-2-3-7(8)4-6-9-8/h4H,2-3,5-6H2,1H3/t8-/m1/s1
