25
gdb 77523	2.24284	1.6741	1.22524	0.1153	92.42	-0.2692	0.0818	0.351	1181.3038	0.229374	-352.368798	-352.359454	-352.358509	-352.401651	37.965	
C	-0.1811710334	 1.538993069	-0.0068949106	-0.44018
C	-0.0045657186	 0.0256708925	 0.0083293676	-0.02073
C	 1.1221647445	-0.5871045348	-0.8983289516	 0.354115
C	 1.3713340921	-0.120795984	-2.3143431743	-0.503311
C	 2.1057051257	-0.278422621	 0.2716478849	-0.314951
C	 0.8640071055	-0.5965376584	 1.1596124409	 0.354118
C	 0.755128785	-0.1433129382	 2.5974424237	-0.503309
C	 0.6799395644	-2.1027493146	 0.8715234251	-0.255111
C	 0.8743681038	-2.0956475326	-0.6782368243	-0.255112
H	 0.7580697516	 2.0868230077	 0.1131184877	 0.114891
H	-0.6314335856	 1.866071643	-0.9507960904	 0.114128
H	-0.8505019455	 1.8581382058	 0.7998331255	 0.114128
H	-0.9896171411	-0.4437158559	-0.1173794135	 0.047881
H	 1.5165640265	 0.9634049752	-2.3657934469	 0.111558
H	 2.2673195511	-0.5950206431	-2.7321742415	 0.112443
H	 0.5294704638	-0.3760639682	-2.9692618255	 0.110864
H	 2.987376339	-0.9200243481	 0.3792946893	 0.079284
H	 2.4133564658	 0.7679484524	 0.3150412597	 0.089801
H	 0.8826036657	 0.9401262292	 2.6930427429	 0.111557
H	-0.2224048076	-0.402910511	 3.0215334666	 0.110866
H	 1.5202076417	-0.6228394115	 3.2195120971	 0.112439
H	 1.4264902699	-2.7138171845	 1.3894551785	 0.088676
H	-0.3098843182	-2.4600728523	 1.1745060146	 0.08864
H	-0.0095345534	-2.4490959023	-1.2195485979	 0.088639
H	 1.7264113073	-2.7028668644	-1.0011978278	 0.088678
194.3784	201.2401	210.5529	214.6204	228.7899	239.3633	268.2176	321.7668	368.3663	427.4851	453.8737	530.5638	583.0792	605.0498	685.6771	776.3875	793.4281	847.5167	857.8171	915.4837	917.7692	955.3648	985.1395	992.4531	1027.7232	1045.6184	1054.8887	1084.8507	1139.9254	1140.8861	1151.8738	1190.4975	1195.3489	1234.9575	1251.5411	1253.3669	1259.075	1269.6329	1340.4241	1347.9591	1387.9893	1411.7944	1412.6065	1417.3755	1487.0669	1488.4933	1491.5507	1494.3406	1495.5777	1498.2562	1501.4799	1509.2555	1524.4598	3003.8063	3019.2712	3019.6945	3030.7566	3034.2333	3040.6203	3047.4262	3069.2951	3079.8297	3080.2007	3087.0536	3089.3405	3091.04	3091.5179	3100.4526	3115.592
CC1C2(C)CC1(C)CC2	C[C@H]1[C@@]2(C)C[C@]1(C)CC2	
InChI=1S/C9H16/c1-7-8(2)4-5-9(7,3)6-8/h7H,4-6H2,1-3H3	InChI=1S/C9H16/c1-7-8(2)4-5-9(7,3)6-8/h7H,4-6H2,1-3H3/t7-,8+,9-
