18
gdb 57875	2.57003	1.13491	0.9596	5.8661	71.76	-0.2478	-0.0359	0.2119	1290.5709	0.144243	-476.246118	-476.235712	-476.234768	-476.282351	35.519	
C	-0.2278195999	 1.3046178062	 0.2499616745	-0.348821
N	-0.1430048862	-0.1500847088	 0.3019364884	-0.090462
C	 1.1678994052	-0.6782781299	 0.6344528884	-0.342087
C	-1.2732015063	-0.8792583389	 0.1085151408	 0.385596
O	-2.3699468429	-0.3742779535	-0.0891149569	-0.391761
C	-1.2144738826	-2.433590397	 0.0807549097	-0.069589
O	-2.4983450114	-2.9325397859	 0.2361505733	-0.406781
C	-0.5823495628	-2.8683781218	-1.2548549578	 0.143253
O	-1.2084881898	-3.3374701017	-2.1626079522	-0.219666
H	 0.4949589478	 1.6974671703	-0.4741835205	 0.130737
H	-1.2364583431	 1.5841555161	-0.046775015	 0.177467
H	-0.0032246638	 1.7378968159	 1.2322188612	 0.131223
H	 1.5274430001	-0.2264251357	 1.5672554293	 0.137195
H	 1.1441531352	-1.7570997807	 0.7719833003	 0.145882
H	 1.8940706974	-0.4465339428	-0.1544924034	 0.139215
H	-0.5766551911	-2.8154320866	 0.8900354492	 0.108409
H	-3.0838529845	-2.198181432	-0.0165342347	 0.300461
H	 0.5195258588	-2.7125911234	-1.3233414644	 0.069729
65.4266	69.4046	92.5368	114.8287	140.5904	211.3146	243.1216	282.1537	288.4929	363.0532	404.0707	455.3251	481.0229	612.2213	667.9019	754.2415	779.9936	873.018	959.5656	1013.1198	1080.7557	1130.1677	1137.6032	1175.5989	1185.8317	1218.5334	1277.6176	1337.3412	1413.2023	1424.7425	1435.913	1455.1397	1478.7899	1481.5027	1499.7471	1504.5885	1545.0809	1744.0287	1848.4572	2856.9448	3016.6915	3019.1408	3026.0293	3064.7042	3076.8391	3169.2323	3178.905	3660.8714
CN(C)C(=O)C(O)C=O	CN(C)C(=O)[C@@H](O)C=O	
InChI=1S/C5H9NO3/c1-6(2)5(9)4(8)3-7/h3-4,8H,1-2H3	InChI=1S/C5H9NO3/c1-6(2)5(9)4(8)3-7/h3-4,8H,1-2H3/t4-/m0/s1
