23
gdb 101008	2.1772	1.39365	1.06336	1.64	81.68	-0.2459	0.0698	0.3157	1269.7084	0.203221	-425.408041	-425.397519	-425.396574	-425.443484	38.934	
C	 0.024862343	 1.2747307236	-0.1481490926	-0.233633
O	 0.1978351474	-0.1218287203	-0.1025142871	-0.249607
C	 0.6823633518	-0.6302173199	 1.1342455915	 0.089676
C	-0.4338292044	-0.7210464862	 2.1798802689	-0.432633
C	 1.3377455665	-1.9916291093	 0.8386059437	 0.399707
O	 1.8641632015	-2.5391653405	 2.0370357024	-0.489012
C	 0.4893310206	-2.9579701895	-0.0480915717	-0.27596
C	 1.4252613944	-2.6453876593	-1.247931154	-0.198097
C	 2.4138260628	-1.9465261457	-0.2757185598	-0.253898
H	 0.9564144075	 1.8074349384	 0.0982995525	 0.105887
H	-0.2662570691	 1.529412416	-1.170447395	 0.127081
H	-0.7628474004	 1.6275555419	 0.5335047295	 0.106119
H	 1.4784911871	 0.0310332537	 1.5154525987	 0.069868
H	-0.0335126301	-1.0422602009	 3.1459528184	 0.116631
H	-0.9064427313	 0.2521644417	 2.3373804511	 0.120672
H	-1.2105963224	-1.4243814698	 1.8618904497	 0.123569
H	 1.1269951416	-2.8359599281	 2.5808126511	 0.275195
H	 0.5861814625	-3.986541553	 0.3098763944	 0.094047
H	-0.5674204419	-2.7143698075	-0.1752023577	 0.099965
H	 1.8110916586	-3.5050304433	-1.7997376518	 0.09091
H	 0.9707307812	-1.9449289282	-1.9490361001	 0.112727
H	 2.774990395	-0.9567607134	-0.5629851737	 0.094988
H	 3.2623368779	-2.5756448304	 0.0017486915	 0.105798
67.8204	82.1243	119.4956	171.048	193.5339	203.6368	253.0808	270.1944	337.7238	355.7877	394.5337	421.325	476.3744	537.5782	641.2287	722.5099	778.9547	840.9095	867.4913	904.5663	947.7304	970.802	974.4273	1033.0875	1048.8817	1085.6106	1128.5206	1141.7949	1180.5175	1187.2297	1199.1982	1212.8201	1227.7835	1254.8537	1272.0876	1275.1202	1301.1623	1339.5572	1368.6153	1378.6679	1399.801	1457.5123	1469.0512	1477.9061	1486.2648	1492.1541	1495.0598	1507.2819	1512.0182	2963.8542	2978.5719	3025.0863	3041.1164	3059.7881	3067.2553	3076.4839	3109.6218	3112.4784	3113.805	3115.1447	3123.1388	3141.2342	3810.8449
COC(C)C1(O)CCC1	CO[C@@H](C)C1(O)CCC1	
InChI=1S/C7H14O2/c1-6(9-2)7(8)4-3-5-7/h6,8H,3-5H2,1-2H3	InChI=1S/C7H14O2/c1-6(9-2)7(8)4-3-5-7/h6,8H,3-5H2,1-2H3/t6-/m0/s1
