19
gdb 102227	2.7185	1.08649	0.85705	2.6508	78.07	-0.2377	-0.003	0.2347	1408.3216	0.15647	-456.376523	-456.365628	-456.364684	-456.413784	36.565	
C	 0.7952398024	 0.4720747396	 0.8215910323	-0.253267
O	-0.3088421913	 0.6246396168	-0.0807439994	-0.233647
C	-1.3182843925	-0.2620431617	-0.0709548193	 0.45768
N	-1.0224230495	-1.6140721122	 0.2350400331	-0.382521
C	-0.0224836109	-2.3959645397	-0.3300436544	 0.39798
C	-0.2294229695	-3.88512721	-0.1044492235	-0.493762
O	 0.9263538004	-1.9438219184	-0.9333419323	-0.339117
N	-2.5282326954	 0.0282245151	-0.2993332648	-0.323875
C	-2.9018533284	 1.4187186939	-0.4819253037	-0.320454
H	 1.2912279603	 1.4438516004	 0.8373179497	 0.137011
H	 0.4447042386	 0.2292072431	 1.8297105962	 0.122208
H	 1.4818883947	-0.293368919	 0.4591715062	 0.163032
H	-1.8687845447	-2.1031399146	 0.4913791044	 0.260832
H	-0.4840900594	-4.1031840394	 0.9370092198	 0.139344
H	-1.0496594255	-4.248793034	-0.7333659572	 0.151746
H	 0.6840962724	-4.4108863024	-0.3795578569	 0.155127
H	-3.8884514509	 1.5824690842	-0.0369132847	 0.117265
H	-2.1871057046	 2.1284229358	-0.0488201587	 0.116587
H	-2.9904160963	 1.6444557925	-1.5520617568	 0.12783
48.855	71.8529	89.7984	96.7449	110.6105	153.0152	200.8161	252.0506	266.8965	312.3207	359.6895	456.5492	573.0237	599.0128	648.7717	707.5933	747.0106	835.3009	955.9134	998.9995	1052.7245	1060.1677	1108.2112	1129.335	1169.5352	1184.4655	1208.033	1242.881	1302.3504	1387.1745	1438.7057	1463.7196	1477.7863	1482.6637	1483.499	1489.866	1493.0638	1504.8695	1520.2874	1763.6229	1806.803	3012.9419	3043.7919	3044.3474	3069.1075	3090.3459	3108.9099	3129.9545	3157.6691	3165.5144	3605.2691
COC(NC(C)=O)=NC	COC(=NC)NC(=O)C	
InChI=1S/C5H10N2O2/c1-4(8)7-5(6-2)9-3/h1-3H3,(H,6,7,8)	InChI=1S/C5H10N2O2/c1-4(8)7-5(6-2)9-3/h1-3H3,(H,6,7,8)
