25
gdb 122874	3.77897	0.58697	0.57905	2.2793	86.68	-0.2452	0.079	0.3242	2072.0579	0.224878	-426.624911	-426.612882	-426.611937	-426.663007	43.041	
C	-0.1082815228	 1.5618270326	 0.0941798916	-0.413229
C	 0.0317776527	 0.0313838368	 0.044720617	 0.37334
C	 0.6655729291	-0.5015285144	 1.3403549795	-0.413179
C	-1.3399045913	-0.6152595919	-0.1742323618	-0.395716
O	 0.7817690132	-0.3835192648	-1.1077409407	-0.28715
C	 2.1219676393	 0.0448440487	-1.2323962453	-0.071933
C	 2.6668898766	-0.5359409943	-2.5323889576	-0.173327
C	 4.1163353418	-0.1456839242	-2.7875906946	-0.073212
O	 4.51493352	-0.7371626905	-4.0151018701	-0.419796
H	 0.8461333616	 2.0559504063	 0.298220118	 0.112247
H	-0.4959417208	 1.9380634908	-0.8573558469	 0.118773
H	-0.803348883	 1.8534050566	 0.8876543727	 0.112952
H	 0.0072924012	-0.3064147139	 2.1926117884	 0.112939
H	 0.8235957896	-1.5818680653	 1.2686676354	 0.118767
H	 1.6267658167	-0.0250544744	 1.5543285319	 0.112238
H	-1.7796185641	-0.2588929796	-1.1098959024	 0.117876
H	-1.2382491714	-1.7021430951	-0.238719984	 0.117892
H	-2.0212886999	-0.3750576747	 0.6471319955	 0.106482
H	 2.190781648	 1.1438059866	-1.2555042955	 0.083309
H	 2.733212103	-0.2994291109	-0.383351885	 0.083281
H	 2.587667623	-1.6277309678	-2.5024194138	 0.113257
H	 2.0489335971	-0.1934171173	-3.3690440611	 0.113267
H	 4.2079757102	 0.9526098964	-2.8276607048	 0.083168
H	 4.7507763555	-0.4927038805	-1.9549486046	 0.083176
H	 5.4304514346	-0.4949089953	-4.1812707718	 0.284577
35.9613	61.3452	102.649	113.1465	134.6635	204.0426	239.7399	260.3041	264.0758	268.0223	284.371	340.1692	349.273	446.7158	454.2714	466.4496	540.9261	751.3991	780.9357	888.5398	892.8113	907.0113	919.7619	957.2636	1029.892	1038.3026	1039.1565	1063.446	1089.8249	1124.3048	1177.8831	1226.0461	1229.2482	1241.7002	1250.1421	1275.5022	1305.7323	1310.761	1319.8643	1395.2992	1395.4693	1422.7206	1433.0284	1467.6236	1472.263	1483.3017	1486.1304	1498.6734	1501.3969	1501.9197	1517.0943	1526.1587	1536.8716	2954.2225	2971.0633	2978.317	2997.8049	3036.6647	3038.6815	3046.2203	3051.6697	3097.8779	3105.4616	3109.9035	3112.011	3114.173	3120.8433	3121.8321	3829.7141
CC(C)(C)OCCCO	CC(C)(C)OCCCO	
InChI=1S/C7H16O2/c1-7(2,3)9-6-4-5-8/h8H,4-6H2,1-3H3	InChI=1S/C7H16O2/c1-7(2,3)9-6-4-5-8/h8H,4-6H2,1-3H3
