18
gdb 54767	2.79112	1.49855	1.16684	4.2986	72.2	-0.2521	0.0195	0.2715	1075.9222	0.147981	-439.071949	-439.063593	-439.062649	-439.105224	32.319	
N	 0.089611736	 1.2099519352	-0.2498929218	-0.522897
C	 0.0470835617	-0.0741755766	 0.1919022951	 0.374092
O	 1.0089491132	-0.6213596192	 0.7151525724	-0.379774
C	-1.2755493696	-0.7993060036	 0.052269614	-0.159639
C	-1.9497527047	-1.1198786851	-1.3209527817	-0.085971
C	-0.7536443267	-2.0553031471	-1.6438444584	-0.294405
C	-1.1446190394	-2.3374845435	-0.1478148767	 0.438933
O	-0.560385226	-3.2060692819	 0.7368301072	-0.480512
C	-2.6227495657	-2.3379768721	-0.6075727554	-0.270612
H	 0.9476418416	 1.7300026148	-0.1590347145	 0.262854
H	-0.6927136975	 1.6341642768	-0.7162933934	 0.264056
H	-1.9633366375	-0.486252618	 0.8467755209	 0.093039
H	-2.4353185337	-0.4165024695	-1.9945382375	 0.075422
H	-0.9504222396	-2.8630228438	-2.3525646254	 0.093144
H	 0.2161427147	-1.5880361884	-1.8275710026	 0.105909
H	 0.2564838266	-2.7670436989	 1.0196589967	 0.295471
H	-3.374617886	-2.1112709874	 0.1532213272	 0.092955
H	-2.9341532075	-3.1596988116	-1.2568314061	 0.097933
43.8109	139.1912	193.9211	205.6346	305.5067	354.7441	432.8556	487.0141	519.9846	551.8075	574.9109	636.9051	675.2649	710.1555	771.9193	827.6772	895.3654	915.6084	949.5571	957.8627	1006.8627	1033.8915	1046.2217	1090.5718	1103.2238	1116.2754	1129.6681	1152.9707	1195.241	1213.21	1227.1428	1299.099	1347.7125	1400.1858	1416.4277	1500.4127	1546.7453	1615.5358	1758.6928	3041.34	3054.3044	3064.79	3122.7172	3130.7347	3134.1915	3597.4051	3723.109	3737.5719
NC(=O)C1C2CC1(O)C2	NC(=O)[C@H]1[C@H]2C[C@]1(O)C2	
InChI=1S/C6H9NO2/c7-5(8)4-3-1-6(4,9)2-3/h3-4,9H,1-2H2,(H2,7,8)	InChI=1S/C6H9NO2/c7-5(8)4-3-1-6(4,9)2-3/h3-4,9H,1-2H2,(H2,7,8)/t3-,4-,6-/m1/s1
