17
gdb 42849	2.69814	1.83338	1.58073	2.7694	70.22	-0.2478	-0.0145	0.2333	908.6629	0.137687	-421.796346	-421.789612	-421.788668	-421.827495	27.103	
O	 0.1817451418	-0.0197390661	 0.2516062747	-0.324446
C	 0.0790838609	 1.1511599745	 0.0611946592	 0.437611
C	-1.0316207296	 2.2245124032	 0.0198629882	-0.049161
O	-0.0998424085	 2.9898533153	 0.8632327137	-0.297401
C	 0.9803602277	 2.4061813665	 0.0522337313	-0.049161
C	 0.7210674698	 3.0329020314	-1.3308287437	-0.023503
C	 0.8189542151	 2.1107317525	-2.5827244201	-0.250606
C	-0.7359186549	 1.9703383866	-2.6077417659	-0.250606
C	-0.8447554282	 2.8915180358	-1.3560213534	-0.023503
H	-2.0234606903	 2.0946238923	 0.4485249707	 0.102619
H	 1.9652351981	 2.4547779572	 0.5126989801	 0.102619
H	 1.1516090109	 4.0308701484	-1.4170855099	 0.084761
H	 1.2287837587	 2.6109152533	-3.4620423145	 0.108835
H	 1.3742338983	 1.181492099	-2.4312820455	 0.119173
H	-1.2004219139	 2.391580047	-3.5011264304	 0.108835
H	-1.1203616611	 0.9562488176	-2.4714238699	 0.119173
H	-1.444079615	 3.7964955753	-1.4588464146	 0.084761
130.1607	134.3566	307.0865	332.7543	440.3744	510.6814	622.4038	630.399	731.8866	759.3326	794.9253	843.7598	844.1332	863.7208	871.0043	925.9624	961.1783	982.024	999.1549	1018.3255	1038.7477	1060.6711	1117.2671	1141.9632	1170.5412	1212.6305	1236.0739	1244.6772	1248.6274	1253.5294	1281.2189	1300.9105	1322.1233	1326.6392	1479.1718	1497.0617	1918.1175	3064.8828	3069.7732	3097.9441	3108.3162	3112.3266	3129.6049	3148.9685	3152.1906
O=C1C2OC1C1CCC21	O=C1[C@H]2O[C@@H]1[C@H]1CC[C@@H]21	
InChI=1S/C7H8O2/c8-5-6-3-1-2-4(3)7(5)9-6/h3-4,6-7H,1-2H2	InChI=1S/C7H8O2/c8-5-6-3-1-2-4(3)7(5)9-6/h3-4,6-7H,1-2H2/t3-,4+,6+,7-
