19
gdb 40035	3.47005	1.51999	1.40825	1.8797	77.64	-0.2487	0.0842	0.333	987.3545	0.161474	-385.849625	-385.842871	-385.841926	-385.880576	28.395	
C	 0.0952541778	 1.5260887602	 0.0005279303	-0.256406
O	 1.220058976	 0.6384604959	-0.0111127046	-0.292395
C	-0.092337988	 0.0708719625	 0.02553962	 0.460912
C	-0.4887951486	-0.7413053777	 1.2629890327	-0.304867
C	-1.4883736956	-1.762222996	 0.7029664375	-0.054288
C	-2.7161976282	-1.0418139725	 0.0511097931	-0.236371
C	-2.0002613609	-1.1308852134	-1.2963627157	-0.070021
C	-0.9822942864	-2.1052684967	-0.7339496666	-0.087036
C	-0.5314552989	-0.7388163192	-1.1685860499	-0.115456
H	-0.0318959258	 2.1064634928	 0.9142225122	 0.107653
H	-0.0724373498	 2.0799385479	-0.9232822113	 0.107952
H	 0.4059406553	-1.2407403636	 1.6524841783	 0.11427
H	-0.9107340596	-0.1263626258	 2.0639291614	 0.100329
H	-1.7198848603	-2.5850655477	 1.3779376394	 0.071606
H	-3.6052518649	-1.6776594119	 0.0650145403	 0.101716
H	-2.9816736132	-0.0512966816	 0.4392270716	 0.088988
H	-2.4746567946	-1.1359517338	-2.2709414716	 0.083559
H	-0.6134935419	-3.0488489792	-1.1123502151	 0.087192
H	 0.0155097676	-0.6151982502	-2.095916172	 0.092663
107.3856	256.8258	333.3308	356.1531	381.2698	503.7608	519.9985	629.2448	751.6963	764.6604	800.9037	822.7887	842.5798	853.2297	875.1826	924.0363	938.0117	960.0002	990.65	1002.6089	1026.9511	1031.8533	1063.7351	1066.5863	1099.4888	1126.7975	1141.0384	1155.7198	1169.2723	1222.0093	1233.4272	1239.0028	1264.0668	1297.7955	1309.8791	1329.7886	1370.2865	1436.5266	1482.047	1497.8818	1532.2843	3030.2749	3039.9866	3071.4793	3088.4656	3093.781	3120.8495	3156.0085	3172.6909	3187.2644	3207.2547
C1OC11CC2CC3C2C13	C1O[C@]21C[C@H]1C[C@@H]3[C@H]1[C@H]23	
InChI=1S/C8H10O/c1-4-2-8(3-9-8)7-5(1)6(4)7/h4-7H,1-3H2	InChI=1S/C8H10O/c1-4-2-8(3-9-8)7-5(1)6(4)7/h4-7H,1-3H2/t4-,5-,6+,7-,8+/m1/s1
