18
gdb 91529	2.46902	1.55221	1.12328	5.6152	72.35	-0.2515	0.0169	0.2684	1101.8176	0.148965	-439.090101	-439.081807	-439.080862	-439.123098	31.787	
N	 0.1516592479	 1.1722821723	 0.0433154541	-0.535566
H	 0.4346026969	 0.2027827718	-0.0611827244	 0.23598
H	 1.4095212072	 2.37867453	 1.5072827064	 0.31072
H	-0.2812627473	 1.4601273585	-0.8283981303	 0.239022
C	-0.7365037966	 1.3479867351	 1.1797382824	-0.062699
C	-1.9983511375	 0.4694686863	 1.5423585591	-0.273195
C	-1.4098078357	 0.2611627775	 2.946742891	-0.104269
C	-0.1285762283	-0.4848476346	 2.8218249719	-0.321914
C	-0.1280544322	 1.0065064985	 2.5316734578	 0.228439
C	 0.8047749922	 1.9025398171	 3.2621020409	 0.331066
O	 1.5698855294	 2.651933669	 2.4287446841	-0.385289
O	 0.9189183977	 1.9752008308	 4.4562545155	-0.345358
H	-1.0453353827	 2.3983171843	 1.1811104918	 0.105024
H	-2.9315196917	 1.0342988238	 1.5100056352	 0.11125
H	-2.1207140022	-0.4519098618	 0.9634486503	 0.099533
H	-1.9395951878	 0.3603498247	 3.8846573769	 0.116579
H	 0.3733370878	-0.729442364	 3.7517087793	 0.146314
H	 0.0141502128	-1.2086170393	 2.0219313182	 0.104362
85.2912	118.564	172.4723	201.5262	298.8801	361.4289	396.2677	439.2495	454.6368	605.6403	657.2966	706.1273	736.5624	759.487	827.1987	852.9571	869.2477	875.1926	946.1527	983.57	1016.7369	1029.5265	1048.9344	1087.4915	1116.1311	1136.9537	1177.6549	1215.1852	1226.1517	1248.8654	1278.7344	1313.5363	1358.4433	1403.4189	1438.0361	1477.7394	1499.0021	1653.2753	1861.2951	3049.3504	3056.5852	3104.9558	3118.9637	3206.7311	3215.3539	3497.5881	3579.7971	3623.8245
[NH3+]C1CC2CC12C([O-])=O	N[C@H]1C[C@H]2C[C@@]12C(=O)O	
InChI=1S/C6H9NO2/c7-4-1-3-2-6(3,4)5(8)9/h3-4H,1-2,7H2,(H,8,9)	InChI=1S/C6H9NO2/c7-4-1-3-2-6(3,4)5(8)9/h3-4H,1-2,7H2,(H,8,9)/t3-,4-,6-/m0/s1
