20
gdb 92128	2.60397	1.64183	1.21654	1.5429	78.77	-0.2106	0.0542	0.2648	1078.321	0.171424	-403.076593	-403.068411	-403.067467	-403.109494	32.131	
O	 0.0566426778	 1.0190213358	-0.9381993488	-0.427301
C	 0.0026677841	-0.1394101034	-0.1393885181	 0.121676
C	 0.1456713299	-0.0047075095	 1.4023908154	-0.21929
N	-1.1286100461	-0.7661241006	 1.6208424363	-0.128272
C	-2.2891099975	 0.1479149778	 1.8876569153	-0.257962
C	-2.5605060766	 0.2858026437	 0.3847243066	 0.374055
C	-3.8948609377	 0.3190456814	-0.3030489552	-0.335592
C	-2.9661768817	 1.5047029582	-0.3907130413	-0.313441
C	-1.4135089877	-0.6903671607	 0.1216951945	-0.103459
H	 0.9806633497	 1.2414059402	-1.0884925855	 0.28617
H	 0.6575388976	-0.9246471587	-0.541216576	 0.072055
H	 1.0149996481	-0.4903493201	 1.8563781053	 0.097758
H	 0.1003752408	 1.0378523533	 1.7391407718	 0.100601
H	-3.0786547243	-0.3622396248	 2.4510988067	 0.101834
H	-2.0140601288	 1.0641631308	 2.4238877147	 0.098877
H	-4.0268710669	-0.2960121938	-1.1880588512	 0.111566
H	-4.7807816148	 0.400568272	 0.3194722595	 0.109757
H	-3.2191854834	 2.3958643499	 0.1756039258	 0.107557
H	-2.4555896054	 1.6978888309	-1.3256772754	 0.131249
H	-1.6807887771	-1.6188303923	-0.3926846404	 0.072163
51.6238	149.7713	232.8753	236.7432	289.9439	321.1318	401.8167	420.1508	501.9852	601.2373	672.2941	764.1364	770.8827	844.7134	852.1386	877.1897	917.6105	924.7292	963.8886	980.3544	1010.6858	1026.1742	1052.1283	1058.9242	1070.5038	1104.0883	1161.6467	1169.3392	1187.0501	1194.6633	1204.5629	1206.1499	1252.5398	1287.75	1294.542	1317.1576	1325.7893	1396.4228	1433.656	1466.3525	1489.0452	1503.703	1509.6652	3000.5228	3017.5974	3026.4139	3053.0878	3063.7715	3082.0415	3119.	3134.4728	3200.8118	3230.7134	3820.1331
OC1CN2CC3(CC3)C12	O[C@H]1CN2CC3(CC3)[C@@H]12	
InChI=1S/C7H11NO/c9-5-3-8-4-7(1-2-7)6(5)8/h5-6,9H,1-4H2	InChI=1S/C7H11NO/c9-5-3-8-4-7(1-2-7)6(5)8/h5-6,9H,1-4H2/t5-,6+/m0/s1
