18
gdb 93382	2.83897	1.52019	1.16599	2.4109	71.28	-0.2423	-0.0227	0.2196	1058.4861	0.149783	-439.089925	-439.082238	-439.081294	-439.122232	30.307	
O	 0.158451246	 1.3442873912	-0.2700721081	-0.441211
C	 0.0633846707	-0.0463200541	-0.0144383833	 0.132223
C	 0.8240105422	-0.4370090852	 1.2644591503	-0.228777
C	 0.0469135423	-0.0711245609	 2.5458499572	-0.323416
C	-1.2404694131	-0.8697679989	 2.5984029925	 0.429255
O	-1.5792971878	-1.5492425183	 3.5406717414	-0.323272
C	-2.0619320729	-0.8323700691	 1.3408453697	-0.134441
N	-2.2563921699	 0.507234058	 0.7335232554	-0.345355
C	-1.4143540547	-0.4667699683	 0.0386407921	-0.073522
H	-0.6038522321	 1.7429295792	 0.1732193369	 0.292399
H	 0.5358243328	-0.5488610357	-0.8657788799	 0.085373
H	 1.015815751	-1.5177596904	 1.2534529154	 0.102914
H	 1.7946899886	 0.0666830477	 1.2513410559	 0.116662
H	 0.6215723273	-0.2836981941	 3.449402085	 0.120846
H	-0.1910333611	 0.9989752192	 2.5332087487	 0.131268
H	-2.9008670952	-1.5221814891	 1.3376405814	 0.105883
H	-3.1804937937	 0.5659521507	 0.3164789562	 0.250447
H	-1.8201467504	-0.9337004921	-0.8546675068	 0.102725
69.3394	152.9319	233.6528	318.7611	365.818	410.3288	457.6862	476.1629	488.2424	565.0289	667.3208	725.021	752.63	779.3966	859.0212	909.9478	917.841	926.4554	964.0417	985.3432	1052.425	1087.5542	1104.3765	1128.8184	1160.499	1181.6556	1214.9476	1246.0934	1262.6293	1297.3845	1341.0647	1351.0866	1377.6407	1385.7188	1426.1099	1444.5888	1470.1102	1480.5714	1812.1734	3026.0464	3047.5524	3049.8358	3093.4856	3118.6568	3144.1565	3162.6106	3522.4272	3731.9023
OC1CCC(=O)C2NC12	O[C@H]1CCC(=O)[C@H]2N[C@@H]12	
InChI=1S/C6H9NO2/c8-3-1-2-4(9)6-5(3)7-6/h3,5-8H,1-2H2	InChI=1S/C6H9NO2/c8-3-1-2-4(9)6-5(3)7-6/h3,5-8H,1-2H2/t3-,5-,6+/m0/s1
