15
gdb 65858	2.70056	1.30723	1.18799	3.7491	66.9	-0.2775	-0.0104	0.2671	1078.8119	0.112617	-453.96676	-453.958565	-453.957621	-453.999768	30.262	
O	 0.0608294676	 1.4103670318	-0.2715031264	-0.452883
C	-0.0137618365	 0.0307210913	 0.0159392422	 0.226988
C	 0.524489087	-0.3354117666	 1.4291667981	-0.134668
O	-0.253012295	-1.4455135262	 1.8674695065	-0.230413
C	-1.4488932826	-1.4959225189	 1.1904490435	 0.427428
N	-2.3618308066	-2.3332539191	 1.4065361624	-0.5322
C	-1.4847972806	-0.3968671373	 0.1526725644	-0.3443
C	 0.6873960446	-0.7499138364	-1.0226963197	 0.24314
N	 1.2733772406	-1.3275662498	-1.8340770786	-0.322968
H	 0.9709873548	 1.6390371812	-0.4929315352	 0.30059
H	 1.5777415118	-0.6220570032	 1.4431888253	 0.137615
H	 0.3656318522	 0.5320945364	 2.0810534932	 0.129006
H	-2.1083653046	-2.96109995	 2.1711221396	 0.231646
H	-2.0410262583	 0.4661524768	 0.5332544335	 0.157376
H	-1.9499154243	-0.7275103498	-0.7742581687	 0.163642
72.5083	131.1109	191.3551	211.9595	300.9843	318.079	399.0389	447.8506	474.8128	530.9863	582.8633	640.1444	688.095	758.9209	855.0302	897.0923	923.7476	954.8578	1017.0066	1084.7621	1092.6096	1115.4042	1130.6617	1206.0848	1264.072	1272.3803	1307.7841	1357.8643	1405.0607	1465.4212	1515.9549	1795.2241	2353.8578	3037.4687	3069.6398	3120.1287	3157.4312	3480.4228	3804.3146
OC1(COC(=N)C1)C#N	O[C@]1(CO[C]([NH])C1)C#N	
InChI=1S/C5H6N2O2/c6-2-5(8)1-4(7)9-3-5/h7-8H,1,3H2	InChI=1S/C5H6N2O2/c6-2-5(8)1-4(7)9-3-5/h7-8H,1,3H2/t5-/m0/s1
