23
gdb 89581	3.9975	0.98373	0.94959	1.8032	85.42	-0.2373	0.0791	0.3164	1371.2805	0.206756	-388.2916	-388.282621	-388.281677	-388.325904	34.282	
C	 0.0867257057	 1.5800804794	-0.1910469315	-0.407784
C	 0.0725443892	 0.0676418287	-0.0347386358	 0.059691
C	 1.0831607825	-0.7795351193	-0.858041107	-0.28161
C	 1.3169768574	-1.6746807827	 0.3991320609	 0.332494
C	 0.6693385297	-0.5580143284	 1.2586251401	-0.314611
C	 0.5831662483	-3.0238437645	 0.3479761997	-0.2875
C	 1.6400339669	-3.9243367188	-0.2952391436	-0.065314
O	 2.9007747905	-3.4431956246	 0.1689585246	-0.265714
C	 2.7414478455	-2.1345369441	 0.7157152939	-0.127006
H	 1.0952634494	 1.9810256428	-0.0362407363	 0.110133
H	-0.2401309522	 1.8808324219	-1.1929014628	 0.114118
H	-0.5781059401	 2.0627957374	 0.5342549832	 0.113848
H	-0.9440071314	-0.3095656492	-0.1914672003	 0.070767
H	 0.7184501085	-1.2688737077	-1.7662973412	 0.093589
H	 1.9774672573	-0.2008122365	-1.1125081312	 0.09368
H	 1.4260023699	 0.0972050515	 1.7056825551	 0.094609
H	-0.0241920013	-0.8713163311	 2.0446692234	 0.093551
H	 0.3571745715	-3.3665789981	 1.3648025399	 0.101353
H	-0.3532013903	-2.9927400373	-0.2158863656	 0.099078
H	 1.5419034336	-4.9788095377	-0.0155358176	 0.100821
H	 1.5958180544	-3.8611596954	-1.393897867	 0.089833
H	 3.5012675834	-1.4693049514	 0.2867688693	 0.094307
H	 2.9025485816	-2.170673995	 1.8049939598	 0.087665
43.7874	80.3576	142.3629	221.623	259.3133	287.6725	324.6153	382.6025	431.4599	457.4587	636.8838	692.2172	763.8787	823.8251	850.3545	885.977	900.0372	919.5145	934.6417	947.2896	961.552	989.392	1012.7029	1072.0473	1073.894	1100.997	1133.0237	1169.5627	1179.0756	1188.5717	1213.0448	1238.4189	1239.01	1257.9081	1286.34	1290.783	1313.0518	1318.1663	1365.4573	1375.4755	1406.6709	1411.873	1473.447	1486.5406	1494.2797	1495.975	1500.7026	1517.4244	1530.7427	2972.5835	2980.5569	3021.0598	3031.8309	3032.8384	3035.4981	3038.064	3041.8678	3062.3038	3085.8574	3088.1547	3089.7713	3094.8207	3098.3653
CC1CC2(C1)CCOC2	C[C@H]1C[C@@]2(C1)CCOC2	
InChI=1S/C8H14O/c1-7-4-8(5-7)2-3-9-6-8/h7H,2-6H2,1H3	InChI=1S/C8H14O/c1-7-4-8(5-7)2-3-9-6-8/h7H,2-6H2,1H3/t7-,8+
