20
gdb 72453	2.35263	2.12215	1.51227	1.935	76.77	-0.2276	0.0689	0.2965	947.2353	0.174206	-403.130016	-403.122972	-403.122028	-403.160807	30.313	
O	-0.0890073247	 1.3792291347	 0.064382725	-0.503876
C	 0.0335167984	-0.018795316	 0.0638757731	 0.418767
C	 0.7345303028	-0.6502437781	-1.1736773773	-0.262488
C	 0.9982512812	-2.1179298138	-0.7053530248	-0.198139
C	 0.4161304185	-2.1227649379	 0.7304957561	 0.014692
C	 0.8093450338	-0.7122347499	 1.2095984472	-0.318723
N	-1.0625605455	-2.1152240434	 0.5179148855	-0.102562
C	-1.8384438898	-1.245347725	 1.4158118084	-0.274358
C	-1.3300765375	-0.7045004728	 0.1319982224	-0.028374
H	 0.7756464082	 1.7563615794	-0.1290193027	 0.275869
H	 0.1091307724	-0.5883324411	-2.0680635497	 0.105186
H	 1.6692411748	-0.1176052531	-1.3861568098	 0.08178
H	 0.4910340854	-2.8570810712	-1.3283836457	 0.112938
H	 2.0660341438	-2.3534786894	-0.6954459387	 0.09467
H	 0.7200452761	-2.9701381555	 1.3466830955	 0.068508
H	 1.8875889296	-0.539217593	 1.144183292	 0.087875
H	 0.4784541149	-0.4316814835	 2.2091148795	 0.104705
H	-2.8869242521	-1.5230921937	 1.4693714399	 0.117159
H	-1.42272918	-0.9136464576	 2.3606170469	 0.116086
H	-2.0085556805	-0.535514219	-0.700330533	 0.090287
211.4674	259.2178	303.648	323.5358	389.6689	412.4811	510.6493	541.2805	555.466	611.2183	715.3663	760.5441	788.8654	838.5294	845.9705	888.0752	919.126	933.9516	969.0922	986.7408	993.952	1027.1799	1058.4641	1080.0861	1105.9038	1129.0176	1140.1748	1161.8217	1179.6513	1195.7232	1234.8524	1248.766	1250.7858	1256.6842	1304.8606	1323.0362	1326.7753	1359.3131	1416.9141	1482.4423	1485.6281	1504.8996	1540.0001	3030.753	3063.042	3068.6837	3090.8037	3103.0788	3119.6477	3124.3185	3137.2631	3141.5574	3207.4316	3809.1082
OC12CCC(C1)N1CC21	O[C@@]12CC[C@@H](C1)N1C[C@@H]21	
InChI=1S/C7H11NO/c9-7-2-1-5(3-7)8-4-6(7)8/h5-6,9H,1-4H2	InChI=1S/C7H11NO/c9-7-2-1-5(3-7)8-4-6(7)8/h5-6,9H,1-4H2/t5-,6-,7-,8?/m0/s1
