15
gdb 15628	3.46149	1.72426	1.16763	2.5962	64.21	-0.2427	-0.0168	0.2259	971.5888	0.119316	-399.84238	-399.834514	-399.83357	-399.875077	27.902	
O	 0.0040370453	 1.4277730932	 0.0082989476	-0.424013
C	-0.0055356801	 0.0109352567	 0.0018489458	-0.17143
C	-1.4150786856	-0.4685256873	 0.0118286867	 0.201342
C	-2.5532211534	 0.2280928583	 0.0236242533	-0.187834
C	-3.7369366172	-0.7045517721	 0.0303556136	-0.208102
N	-3.1018528451	-2.0025462335	 0.0204437836	-0.336614
C	-1.7287333825	-1.9317661869	 0.0093608283	 0.359603
O	-0.9461780602	-2.8619273055	 0.0002960318	-0.39128
H	 0.9201258204	 1.718514085	 0.0020832762	 0.292282
H	 0.5036289777	-0.4012356202	-0.8844434576	 0.115712
H	 0.5188767069	-0.4094905434	 0.8752555946	 0.115759
H	-2.6500463107	 1.3045312858	 0.0281738373	 0.12916
H	-4.3655920349	-0.5556051689	 0.9205066868	 0.125737
H	-4.3805540626	-0.5494367442	-0.8479635319	 0.125726
H	-3.5907554481	-2.8810924571	 0.0224203038	 0.253952
71.8197	107.0384	170.1712	220.0472	254.9869	338.1077	409.0303	418.3718	576.5389	615.89	750.1573	779.1159	824.1959	845.6308	952.5556	1012.1803	1041.8364	1052.6132	1087.3692	1158.3387	1184.7539	1201.3115	1238.3127	1244.598	1305.3069	1358.9875	1424.6957	1467.9024	1500.1664	1500.7915	1715.7281	1811.5176	2972.2615	2989.4955	2997.0499	3017.6332	3241.4708	3674.5333	3841.1696
OCC1=CCNC1=O	OCC1=CCNC1=O	
InChI=1S/C5H7NO2/c7-3-4-1-2-6-5(4)8/h1,7H,2-3H2,(H,6,8)	InChI=1S/C5H7NO2/c7-3-4-1-2-6-5(4)8/h1,7H,2-3H2,(H,6,8)
