18
gdb 126986	3.23085	1.11378	0.85863	2.33	75.42	-0.2011	0.0379	0.2391	1344.7031	0.148611	-435.269389	-435.260044	-435.2591	-435.304676	33.279	
C	-0.1438945049	 1.4883224973	-0.0993267746	-0.384982
C	-0.6677504287	 0.1755956901	 0.4488012358	-0.067541
O	-0.68220757	-0.7744627611	-0.6378992007	-0.285895
C	-1.2272697153	-1.9731351266	-0.3558016479	 0.408494
C	-2.4219722665	-2.376226509	 0.2255008976	 0.025949
N	-3.4163840493	-1.5249853306	 0.7791940847	-0.61702
C	-2.3739832471	-3.7885628583	 0.144532136	-0.054672
N	-1.2640741812	-4.2324953566	-0.4376209865	-0.239037
N	-0.5824049725	-3.105458281	-0.7362256359	-0.257182
H	-0.0961957037	 2.2337820784	 0.6999954543	 0.121275
H	 0.8593954891	 1.3640081681	-0.5170221811	 0.126393
H	-0.7997272917	 1.8681722936	-0.887881381	 0.128478
H	-0.0184525406	-0.2123844121	 1.2447132854	 0.10332
H	-1.678889796	 0.27467107	 0.8554875947	 0.138046
H	-4.0160685426	-1.1312171688	 0.0602574274	 0.24328
H	-4.0132262046	-2.0389392289	 1.4171471226	 0.239921
H	-3.1148412861	-4.4936070727	 0.496896711	 0.099231
H	 0.3006360617	-3.1561198318	-1.2150876417	 0.271945
36.4746	58.3227	141.0013	153.7325	240.3252	267.3681	286.1372	333.1868	392.6508	465.453	485.2211	677.6719	688.3914	704.9797	759.9965	816.8551	847.5381	870.9603	914.1402	943.2519	1056.9206	1112.5375	1128.5397	1153.7608	1183.8115	1252.1332	1270.608	1294.8881	1303.4903	1389.8502	1399.9234	1422.5288	1446.4939	1482.8588	1501.5753	1527.439	1550.214	1636.7566	1668.1696	3019.6816	3045.3687	3083.0616	3120.8589	3123.2568	3226.2142	3493.738	3579.1621	3675.3153
CCOC1=C(N)C=NN1	CCOc1c(N)cn[nH]1	
InChI=1S/C5H9N3O/c1-2-9-5-4(6)3-7-8-5/h3H,2,6H2,1H3,(H,7,8)	InChI=1S/C5H9N3O/c1-2-9-5-4(6)3-7-8-5/h3H,2,6H2,1H3,(H,7,8)
