23
gdb 115112	2.84287	1.12943	0.89034	0.1687	92.9	-0.2329	0.0223	0.2552	1407.4012	0.206698	-351.168925	-351.159588	-351.158644	-351.203654	35.562	
C	-0.2799004536	 1.7046939406	-0.0484481689	-0.388695
C	-0.0967588189	 0.1967341954	-0.2447813033	-0.186813
C	-1.3061766752	-0.6389086975	 0.2103388799	-0.01991
C	-1.1646362088	-2.1087165665	-0.2330082658	-0.249667
C	-2.3972554621	-2.9624657889	-0.0788174144	-0.051917
C	-3.4622110112	-2.793316606	 0.7059342339	-0.045252
C	-3.7541403212	-1.7316050807	 1.7418898909	-0.313214
C	-2.5774993587	-1.0143561626	 2.3604224169	-0.078405
C	-1.5229375848	-0.5381165736	 1.7037561142	-0.030408
H	 0.6062722434	 2.2568885562	-0.376408276	 0.111071
H	-1.1355746866	 2.0733562682	-0.6252610179	 0.114123
H	-0.4597396346	 1.9578829253	 1.0013403064	 0.118887
H	 0.0955405062	-0.0065119222	-1.3053628051	 0.089227
H	 0.7964502599	-0.1431138115	 0.2976916175	 0.093614
H	-2.1969401737	-0.2392868228	-0.2981403731	 0.080616
H	-0.877339611	-2.1279031525	-1.2936677638	 0.093994
H	-0.3215197463	-2.5700085482	 0.3028986401	 0.107049
H	-2.410677032	-3.8355503248	-0.7301503707	 0.079414
H	-4.2610876954	-3.5269971638	 0.6077018259	 0.081549
H	-4.4517671256	-0.992469137	 1.3111851198	 0.122272
H	-4.3313116739	-2.2071416224	 2.5439288754	 0.107459
H	-2.6222659148	-0.8798358039	 3.438771341	 0.085171
H	-0.7358596412	-0.0499674908	 2.276079087	 0.079834
36.1071	94.8319	131.5451	187.6436	228.244	307.2785	332.3894	378.8013	408.7094	430.6585	506.8853	642.5703	674.7906	707.0689	777.0444	805.2225	849.4763	885.8742	914.4614	932.8254	969.4717	993.9865	1003.6505	1013.9927	1044.4457	1060.2126	1084.4821	1126.0618	1154.4575	1208.2336	1218.1747	1252.7721	1271.0457	1286.5684	1307.7445	1356.3664	1367.5779	1376.04	1384.7245	1412.6219	1420.7492	1436.8481	1466.0956	1470.8636	1488.5575	1498.7511	1506.4644	1729.5777	1739.8012	2960.016	2981.5763	2995.193	3013.2447	3022.3285	3032.2532	3041.5372	3050.6731	3097.9338	3104.6872	3117.3753	3130.0367	3142.9171	3157.46
CCC1CC=CCC=C1	CC[C@H]1CC=CCC=C1	
InChI=1S/C9H14/c1-2-9-7-5-3-4-6-8-9/h3,5-6,8-9H,2,4,7H2,1H3	InChI=1S/C9H14/c1-2-9-7-5-3-4-6-8-9/h3,5-6,8-9H,2,4,7H2,1H3/t9-/m0/s1
