19
gdb 56834	3.02488	1.24556	1.04884	4.4085	80.85	-0.2379	0.0328	0.2708	1197.6066	0.159471	-382.004541	-381.996242	-381.995297	-382.037875	31.697	
C	 0.7495681338	-0.3870062629	-1.6275946547	-0.387931
C	 0.1519788496	-0.1177775075	-0.2371221335	-0.117655
C	 0.0030353182	 1.3275955305	-0.004033529	 0.297539
N	-0.1038247413	 2.461321889	 0.1917986241	-0.330988
N	-1.1816877801	-0.7323727958	-0.1584710978	-0.107691
C	-1.894012244	-0.7771903969	 1.1886286964	-0.009004
C	-2.7563427861	-1.9048201607	 0.5646365946	-0.210901
C	-1.2738511077	-2.2072019136	 0.2267669186	-0.017459
C	-0.9236537772	-1.877041387	 1.706439489	-0.242683
H	 1.7204693676	 0.1029218589	-1.7348911301	 0.13358
H	 0.8881583105	-1.4633332989	-1.7621465686	 0.124216
H	 0.0732748916	-0.0222776047	-2.4031363283	 0.146885
H	 0.8674384882	-0.4769928516	 0.5198774349	 0.105031
H	-2.223906864	 0.1368150143	 1.6825114791	 0.105694
H	-3.2503723703	-2.5865455607	 1.2577065375	 0.100799
H	-3.3807824637	-1.6087273764	-0.2777675877	 0.113446
H	-0.8748709938	-2.9934462445	-0.4156725676	 0.088189
H	 0.1005011567	-1.5860191573	 1.9403074987	 0.106513
H	-1.3084723679	-2.5588435141	 2.4690061644	 0.10242
50.0848	123.854	198.6952	222.7175	227.0098	332.779	394.5015	472.7241	565.0913	567.4389	604.6563	768.3585	787.3764	802.0891	849.1933	891.786	899.1452	906.9178	995.9188	1000.9285	1006.3506	1060.0177	1073.0078	1102.4539	1109.2478	1119.5945	1141.3939	1166.8951	1187.2431	1195.0346	1225.6125	1260.4227	1270.9243	1328.1257	1345.6846	1405.5703	1484.2779	1488.6561	1494.9971	1532.9277	2359.7148	2970.438	3052.5204	3069.7605	3084.685	3106.8699	3122.9832	3126.8833	3135.2002	3144.5407	3166.3327
CC(C#N)N1C2CC1C2	C[C@@H](C#N)N1[C@H]2C[C@@H]1C2	
InChI=1S/C7H10N2/c1-5(4-8)9-6-2-7(9)3-6/h5-7H,2-3H2,1H3	InChI=1S/C7H10N2/c1-5(4-8)9-6-2-7(9)3-6/h5-7H,2-3H2,1H3/t5-,6-,7+/m0/s1
