19
gdb 99480	2.45892	1.06582	0.77453	2.7166	78.14	-0.2615	-0.0317	0.2297	1468.9331	0.155259	-423.009779	-422.999314	-422.99837	-423.046661	37.282	
C	 0.2222302183	 1.5032226686	-0.6383106824	-0.395363
C	 0.1368805644	-0.0165541837	-0.5034172699	-0.168513
C	-1.1296467423	-0.4911839724	 0.2585281672	-0.282818
C	-2.3651586677	-0.1469310282	-0.4385051912	 0.333121
C	-3.3674292293	 0.154082348	-1.0303850157	-0.458789
C	-1.0129684464	-1.9854135869	 0.6094993024	 0.353623
O	 0.0140939565	-2.4304752207	 1.0744222798	-0.326106
C	-2.1971518811	-2.9099038547	 0.3988963578	-0.140696
O	-1.9114638591	-4.2070002911	 0.8254851968	-0.422256
H	 1.1250854203	 1.7893098327	-1.1856523651	 0.120759
H	-0.6416603846	 1.9039253871	-1.1764570529	 0.132319
H	 0.2602621988	 1.9861941582	 0.3444499673	 0.117425
H	 0.1411998503	-0.4844047992	-1.4943150685	 0.11009
H	 0.9998170205	-0.4076339888	 0.0415407325	 0.130311
H	-1.1322700545	 0.0163157813	 1.2360781666	 0.141587
H	-4.2594674802	 0.4137722336	-1.5454548526	 0.205612
H	-3.0646043541	-2.487169547	 0.9314261934	 0.126546
H	-2.4637698458	-2.8783070125	-0.6704085374	 0.128978
H	-0.992436674	-4.1777621243	 1.1356595917	 0.29417
14.1071	99.3663	126.2035	136.1803	173.208	206.8865	260.955	294.6888	324.0811	386.6123	397.3486	486.7368	505.5596	547.3792	635.9971	658.3798	700.1501	774.5013	813.4628	883.6191	967.3299	982.1058	1054.596	1094.7181	1120.7577	1132.7132	1168.847	1228.3967	1256.1907	1275.2058	1310.3601	1338.7166	1360.6435	1415.6352	1448.8191	1477.8719	1490.6681	1497.6472	1507.7187	1789.178	2233.444	2982.3001	2991.4995	2997.4844	3036.7146	3048.5218	3096.3189	3109.2928	3121.389	3500.5455	3689.6472
CCC(C#C)C(=O)CO	CC[C@@H](C#C)C(=O)CO	
InChI=1S/C7H10O2/c1-3-6(4-2)7(9)5-8/h1,6,8H,4-5H2,2H3	InChI=1S/C7H10O2/c1-3-6(4-2)7(9)5-8/h1,6,8H,4-5H2,2H3/t6-/m1/s1
