14
gdb 98504	2.45625	1.45806	0.97936	2.9308	64.01	-0.2983	-0.0398	0.2585	1155.9974	0.098608	-473.828998	-473.820075	-473.819131	-473.863611	30.357	
C	-0.0359519859	 1.317949891	 0.3300435097	-0.250645
O	-0.2025696393	-0.1058901807	 0.4529387274	-0.232746
C	-1.1761260803	-0.6373218433	-0.2862536132	 0.448151
O	-1.9043667672	-0.0386609696	-1.0308603652	-0.359188
C	-1.2783250006	-2.137126342	-0.0680356174	 0.113632
C	-2.6129372553	-2.7543379857	-0.2777783446	-0.18829
O	-1.5935058641	-2.872049068	-1.2517402989	-0.230934
C	-0.3358139097	-2.7708367202	 0.831431721	 0.265075
N	 0.4011535332	-3.2888122697	 1.5543036236	-0.326196
H	 0.7823852847	 1.5746763079	 1.0008066377	 0.151337
H	 0.2099881842	 1.5806488292	-0.7010556834	 0.154428
H	-0.9540860143	 1.8325259498	 0.6220065741	 0.150884
H	-2.8538136256	-3.6613316036	 0.2721276903	 0.148518
H	-3.43118379	-2.0878390349	-0.5385134911	 0.155976
44.3854	108.8109	127.8884	145.7441	224.5185	241.1391	315.68	322.7951	396.7653	499.7895	566.7987	585.4343	762.839	800.5667	884.9676	905.5807	945.9778	1012.5332	1138.35	1163.6005	1178.6961	1184.7969	1223.0687	1303.466	1355.2478	1474.1173	1482.7531	1493.3101	1498.3501	1837.1461	2366.7511	3060.7018	3103.5137	3140.2401	3176.2866	3211.2995
COC(=O)C1(CO1)C#N	COC(=O)[C@]1(CO1)C#N	
InChI=1S/C5H5NO3/c1-8-4(7)5(2-6)3-9-5/h3H2,1H3	InChI=1S/C5H5NO3/c1-8-4(7)5(2-6)3-9-5/h3H2,1H3/t5-/m1/s1
