21
gdb 59905	4.32281	0.67952	0.64734	1.5425	84.48	-0.2572	-0.0161	0.2412	1812.4218	0.181333	-420.460451	-420.449934	-420.448989	-420.497044	37.44	
C	-0.2280918907	 1.6254686503	 0.173142568	-0.399059
C	 0.064709574	 0.1212159991	 0.1139763658	 0.058134
C	 0.9676510311	-0.3165208586	 1.2747810549	-0.390164
C	-1.2449197393	-0.6808817049	 0.0886657688	-0.332546
C	-1.0546449399	-2.1481222136	-0.275537555	 0.432978
O	-0.0745974134	-2.5827570988	-0.8449980746	-0.353617
N	-2.1219430243	-2.9614723727	 0.0708810768	-0.310345
C	-2.1858231634	-4.3168086606	-0.2098833347	 0.099756
N	-3.2050407997	-4.9924466741	 0.1344659811	-0.465122
H	 0.7011994078	 2.2037397819	 0.1613723217	 0.115628
H	-0.8366728585	 1.952056846	-0.6771197653	 0.109998
H	-0.768484191	 1.8889603119	 1.0906075863	 0.110631
H	 0.5894165969	-0.0996241127	-0.8223754831	 0.101316
H	 1.2098162694	-1.3799738177	 1.2060361778	 0.133072
H	 1.9084199537	 0.242964015	 1.2669220195	 0.113547
H	 0.4822266692	-0.1331400168	 2.2415476797	 0.105081
H	-1.7646714423	-0.6041929524	 1.0532318212	 0.10851
H	-1.9306918649	-0.2569163335	-0.6586375581	 0.129431
H	-2.9210687387	-2.5705994978	 0.5498049311	 0.260386
H	-1.2926085847	-4.6699980933	-0.7283307	 0.13971
H	-3.0926974813	-5.9656286167	-0.1434392521	 0.232676
28.1298	78.0131	115.0188	138.5708	189.4011	229.1519	233.1821	256.1889	304.0396	351.4169	413.9409	431.4337	510.4474	572.2822	658.1438	740.527	832.4721	836.6431	898.0677	933.8011	952.9253	972.1882	995.0104	1071.8991	1089.5865	1122.8485	1137.7033	1184.5145	1199.126	1255.3417	1298.7941	1315.5247	1364.1123	1389.4191	1395.6756	1402.2871	1422.4143	1453.747	1487.7564	1491.2502	1495.6228	1506.1156	1512.9821	1727.0093	1795.642	3009.9974	3022.7215	3027.5047	3041.1083	3055.4219	3087.291	3095.1834	3101.5564	3122.2834	3126.0606	3506.7021	3609.6125
CC(C)CC(=O)NC=N	CC(C)CC(=O)NC=N	
InChI=1S/C6H12N2O/c1-5(2)3-6(9)8-4-7/h4-5H,3H2,1-2H3,(H2,7,8,9)	InChI=1S/C6H12N2O/c1-5(2)3-6(9)8-4-7/h4-5H,3H2,1-2H3,(H2,7,8,9)
