13
gdb 46021	5.32496	1.02665	0.87665	2.5621	70.06	-0.254	-0.0586	0.1954	1200.9521	0.091333	-452.809992	-452.802523	-452.801578	-452.842502	26.899	
O	 0.0240218154	-0.0250722319	 0.2166866228	-0.358349
C	 0.0039513768	 1.1574999255	 0.02220534	 0.490304
N	-1.1881979988	 1.8809816264	-0.0692775362	-0.380312
C	-1.2415857763	 3.2560183085	-0.0240024432	-0.027573
C	-0.1341304013	 3.9757506234	-0.2742951314	 0.06493
C	 1.1048037482	 3.2042774231	-0.6633891754	-0.1735
O	 1.1279887679	 1.8942269805	-0.064355807	-0.235934
C	-0.1076643044	 5.3886883603	-0.2220507446	 0.20947
N	-0.0486429811	 6.5466876195	-0.1968818963	-0.330587
H	-2.0122294924	 1.3329228108	 0.1211310748	 0.282421
H	-2.1981559434	 3.6978427076	 0.2247276288	 0.156632
H	 1.1724783719	 3.0892715385	-1.7538576691	 0.143106
H	 2.0139307075	 3.6971949779	-0.3159947033	 0.159391
72.611	140.6216	168.0521	216.3568	410.4741	429.287	456.1858	535.192	560.2107	588.0011	620.7659	739.0654	767.031	831.177	923.8146	937.7716	1035.4659	1069.1781	1157.994	1223.2889	1236.1661	1278.6927	1367.2255	1430.1359	1472.8097	1504.5424	1709.1669	1870.5113	2330.6619	3014.7601	3121.5896	3221.1454	3650.3866
O=C1NC=C(CO1)C#N	O=C1NC=C(CO1)C#N	
InChI=1S/C5H4N2O2/c6-1-4-2-7-5(8)9-3-4/h2H,3H2,(H,7,8)	InChI=1S/C5H4N2O2/c6-1-4-2-7-5(8)9-3-4/h2H,3H2,(H,7,8)
