14
gdb 34711	4.51516	1.40735	1.25578	2.7671	68.85	-0.2689	-0.0356	0.2333	950.3573	0.103419	-395.691563	-395.685248	-395.684304	-395.722345	24.728	
N	-0.0930319855	-1.0714645879	-0.1720152151	-0.316243
C	-0.0527520497	 0.0799829317	-0.074465178	 0.273391
C	 0.0049614637	 1.5255193123	 0.0509237915	-0.183362
C	-0.1259181404	 1.960967135	 1.5274162984	-0.035561
C	 1.341872285	 2.1151009849	 1.6641865843	-0.045297
C	 1.4894895919	 2.0857163388	 0.1104376702	-0.044008
N	 1.3821440828	 3.4827782854	-0.3369962683	-0.180152
C	 0.760393385	 4.0681223416	 0.6053178684	 0.035731
N	 0.4910993961	 3.3072446247	 1.7953758759	-0.155756
H	-0.6400843212	 1.9995251699	-0.6940436594	 0.135776
H	-0.885280112	 1.6290366376	 2.2228194041	 0.134451
H	 2.0359336936	 1.8426748438	 2.4492769704	 0.121597
H	 2.2665887474	 1.5141322855	-0.3875059254	 0.115479
H	 0.4307536732	 5.1007143267	 0.570705513	 0.143953
133.6005	155.4409	341.3916	399.3745	471.7193	523.8396	589.5184	720.8379	743.5852	821.0025	835.222	870.1597	891.4374	906.3672	960.6524	968.2288	982.8587	996.8882	1033.1669	1043.894	1084.5065	1152.3914	1199.8823	1214.392	1236.3762	1263.9861	1297.3248	1330.3011	1337.6271	1661.6127	2355.4336	3078.3024	3173.6703	3196.9113	3209.6398	3214.3201
N#CC1C2C3C1N=CN23	N#C[C@H]1[C@H]2[C@H]3[C@@H]1[N][CH]N23	
InChI=1S/C6H5N3/c7-1-3-4-6-5(3)9(6)2-8-4/h2-6H	InChI=1S/C6H5N3/c7-1-3-4-6-5(3)9(6)2-8-4/h2-6H/t3-,4-,5+,6-,9?/m1/s1
