18
gdb 50043	3.66187	1.00052	0.92366	1.8813	73.31	-0.2509	-0.0314	0.2195	1287.9915	0.147891	-439.066621	-439.058336	-439.057392	-439.100463	30.441	
O	-0.1979675487	 0.4119205664	 0.8525154033	-0.259539
C	 0.3281923501	 0.7759022643	-0.1690203415	 0.177226
C	 1.4568777433	 1.7456166334	-0.2246151122	-0.190223
N	 2.2543411279	 1.7148862209	-1.4736972653	-0.362249
C	 1.4435037857	 2.8887813047	-1.1936714989	 0.306978
C	 0.3107173773	 3.2417522497	-2.1672685742	-0.310144
C	 0.4349238309	 4.776481252	-2.287261115	-0.081335
O	 1.7653363084	 5.0933135837	-1.8886476563	-0.239523
C	 2.0627690852	 4.2333570047	-0.8070758872	-0.148645
H	 0.0038122685	 0.4099269246	-1.1680019285	 0.086331
H	 1.9558046396	 1.9109556545	 0.728525331	 0.103148
H	 3.2358198903	 1.8787494975	-1.2610981222	 0.240191
H	 0.4914795731	 2.7423454049	-3.1216640149	 0.131643
H	-0.6757400274	 2.9423341694	-1.805781811	 0.117651
H	 0.2934709918	 5.1512001404	-3.3029757716	 0.118857
H	-0.289286082	 5.2785143711	-1.6264027815	 0.097109
H	 1.6149520975	 4.60796609	 0.1293257404	 0.101639
H	 3.1490833188	 4.1916088077	-0.6808652744	 0.110885
46.1748	96.6322	136.524	223.6223	265.8264	360.6829	396.1797	421.9524	489.1913	546.912	664.9122	765.6456	819.8216	869.0917	930.2076	943.9845	971.6076	976.638	1002.8473	1039.4189	1066.9899	1071.5179	1105.1071	1130.5773	1205.7469	1218.9214	1228.3663	1253.3234	1279.7967	1294.3194	1315.3791	1351.6775	1385.5418	1407.4158	1457.3499	1486.7295	1500.8654	1521.2002	1823.6379	2896.1428	2958.3678	2981.7458	3071.1272	3078.341	3105.5484	3122.6973	3134.9763	3495.5277
O=CC1NC11CCOC1	O=C[C@H]1N[C@]21CCOC2	
InChI=1S/C6H9NO2/c8-3-5-6(7-5)1-2-9-4-6/h3,5,7H,1-2,4H2	InChI=1S/C6H9NO2/c8-3-5-6(7-5)1-2-9-4-6/h3,5,7H,1-2,4H2/t5-,6-/m1/s1
