20
gdb 110374	2.71349	1.53452	1.30334	0.1466	77.82	-0.226	0.0461	0.2721	1072.4932	0.171915	-403.055722	-403.047849	-403.046904	-403.087984	31.125	
C	-1.0700336639	 1.1764468788	-0.3994180074	-0.370801
C	-0.1205755671	 0.052080456	 0.0326389874	-0.245772
C	 0.5992765762	-0.5784275241	-1.1490276123	 0.038674
C	 1.1327332842	-1.9409111828	-1.3187581925	-0.097579
C	 0.1846839964	-3.0944058589	-0.948332575	 0.106588
O	-0.7114464541	-2.9145053887	 0.1767781112	-0.298917
C	-1.7812081863	-2.4759625104	-0.7096843444	-0.111884
C	-0.8346314806	-2.5148925626	-1.9196483839	-0.020932
N	 0.0804847587	-1.3620915807	-2.3014861476	-0.191949
H	-0.5415421762	 1.9402052503	-0.9804710624	 0.116239
H	-1.882239394	 0.796327348	-1.0275381648	 0.121149
H	-1.5164766074	 1.6670979452	 0.470657336	 0.113704
H	 0.6693556402	 0.4770263162	 0.6661921741	 0.099274
H	-0.6248544695	-0.6873274037	 0.6492624683	 0.140043
H	 1.2796449497	 0.1519078416	-1.5932888797	 0.102429
H	 2.1538486024	-2.1213364619	-1.6461204296	 0.093013
H	 0.607570901	-4.0997310061	-0.9979468981	 0.08869
H	-2.5717029629	-3.2352349885	-0.765265552	 0.108211
H	-2.2214433494	-1.520401074	-0.414809774	 0.115527
H	-1.1773532272	-3.0133277436	-2.8245921632	 0.094292
105.1789	142.6656	207.3855	253.5838	286.2837	348.1723	372.4877	535.8321	608.1176	662.125	691.6095	723.8054	800.1079	848.0145	870.5457	887.8776	910.4604	918.5085	960.9186	989.3786	1008.6364	1049.4063	1061.7489	1081.5672	1085.2277	1127.9549	1164.3524	1172.1298	1210.1979	1240.8168	1270.1849	1280.6727	1300.2394	1321.2525	1340.7353	1356.3632	1372.5823	1411.6617	1461.0908	1495.8287	1497.0198	1512.6456	1529.356	3023.1436	3025.7581	3033.5785	3076.5999	3089.2501	3095.8129	3098.9418	3108.1824	3127.137	3137.2204	3171.8083
CCC1C2C3OCC3N12	CC[C@H]1[C@H]2[C@H]3OC[C@H]3N12	
InChI=1S/C7H11NO/c1-2-4-6-7-5(3-9-7)8(4)6/h4-7H,2-3H2,1H3	InChI=1S/C7H11NO/c1-2-4-6-7-5(3-9-7)8(4)6/h4-7H,2-3H2,1H3/t4-,5+,6-,7-,8?/m0/s1
