15
gdb 15612	3.3706	1.85618	1.22952	3.9801	66.34	-0.2485	-0.0635	0.185	956.4782	0.118397	-399.824793	-399.816957	-399.816013	-399.857904	27.078	
C	-0.0125868939	 1.4413822838	 0.0559461609	-0.336049
N	-0.0018681584	-0.0105556429	 0.0306052068	-0.285783
C	-1.0899458947	-0.6386253076	-0.0591935226	 0.332495
O	-2.3400926678	-0.091683931	-0.1169805538	-0.255014
C	-3.3339201482	-1.096503832	-0.4202235446	-0.098661
C	-2.7034465673	-2.451205116	-0.08496035	-0.343124
C	-1.2076338473	-2.1490021773	-0.0918351284	 0.312915
O	-0.3003515518	-2.933367149	-0.1086622457	-0.276944
H	 0.8317474098	 1.8088229494	-0.5352305797	 0.133124
H	-0.941603634	 1.8905590404	-0.3130163878	 0.12512
H	 0.1495489207	 1.7816895341	 1.0864687746	 0.137018
H	-4.2210985969	-0.8610847955	 0.1702120504	 0.130181
H	-3.5906325898	-1.0190797658	-1.4826628601	 0.126419
H	-2.9768731848	-2.7873606399	 0.9215941441	 0.151412
H	-2.9543179757	-3.2496585208	-0.7847676139	 0.146893
58.193	90.7162	133.303	194.9766	211.8099	354.8453	469.7089	578.7188	592.9415	647.1421	704.715	760.5139	839.8417	966.8509	987.9147	1046.5402	1049.8056	1082.3064	1123.4796	1163.4312	1200.0916	1237.854	1246.9645	1279.1878	1399.0021	1432.4509	1451.1029	1484.0186	1496.6996	1525.3188	1767.6345	1861.3344	3015.6607	3043.7653	3056.0804	3075.5683	3098.5807	3111.5323	3129.7683
CN=C1OCCC1=O	CN=C1OCCC1=O	
InChI=1S/C5H7NO2/c1-6-5-4(7)2-3-8-5/h2-3H2,1H3	InChI=1S/C5H7NO2/c1-6-5-4(7)2-3-8-5/h2-3H2,1H3
