19
gdb 59445	2.85211	1.16391	0.90892	7.0473	72.57	-0.2375	0.0208	0.2583	1296.3575	0.159787	-456.349681	-456.340582	-456.339638	-456.383835	33.962	
C	-0.6712346286	 2.4678663873	 1.3991081177	-0.404292
C	-0.6659612367	 1.4508669282	 0.2547059437	 0.016807
N	 0.3891914691	 0.4174271378	 0.362883771	-0.524233
H	 1.3034556628	 0.8515846009	 0.4558945054	 0.245828
H	 0.249016196	-0.1496014834	 1.1954985439	 0.238447
H	 0.0425506327	-0.2795947523	-1.2211902917	 0.326864
C	-2.0072424284	 0.7511634862	 0.1255575663	-0.023624
N	-2.9310758417	 1.3053756117	-0.8715281997	-0.318422
C	-2.3936043277	-0.0510465975	-1.0675919896	-0.171905
C	-1.5611346001	-0.2988713092	-2.3206561117	 0.415568
O	-2.0962727777	-0.4287228685	-3.3901353531	-0.337413
O	-0.2403914535	-0.4178379399	-2.166264369	-0.386626
H	 0.2888100866	 2.9897436289	 1.4673290718	 0.115998
H	-1.4525948843	 3.2178397853	 1.2414332847	 0.138669
H	-0.859346931	 1.976998753	 2.3615204599	 0.111938
H	-0.4868913739	 1.9766849568	-0.6887863169	 0.118399
H	-2.4275262631	 0.4163573788	 1.0757173379	 0.081308
H	-3.8948541401	 1.2628981753	-0.5529629759	 0.2406
H	-3.0780854904	-0.8789222294	-0.8911896849	 0.116087
51.5908	109.18	186.9653	213.8748	253.4612	270.8221	315.659	328.5868	399.9171	437.1347	510.1548	544.2734	658.8288	757.9319	788.7711	842.3689	894.9065	922.7003	931.6175	958.4325	974.5013	1013.7301	1023.4495	1069.0567	1111.7912	1162.9446	1180.446	1193.5667	1256.6913	1264.5662	1289.28	1345.5293	1394.8744	1404.6927	1410.9217	1460.9129	1471.3141	1493.4954	1499.2348	1650.0438	1853.1939	3026.1959	3061.8896	3086.6486	3098.4713	3110.1048	3125.7681	3169.9452	3482.5293	3513.2064	3562.4292
CC([NH3+])C1NC1C([O-])=O	C[C@@H](N)[C@H]1N[C@H]1C(=O)O	
InChI=1S/C5H10N2O2/c1-2(6)3-4(7-3)5(8)9/h2-4,7H,6H2,1H3,(H,8,9)	InChI=1S/C5H10N2O2/c1-2(6)3-4(7-3)5(8)9/h2-4,7H,6H2,1H3,(H,8,9)/t2-,3-,4-/m1/s1
