16
gdb 81313	2.39238	1.74979	1.63374	5.1292	64.28	-0.2407	0.008	0.2487	913.9844	0.126252	-475.0225	-475.015175	-475.014231	-475.054206	28.248	
O	-0.0585667923	 1.4760568528	 0.0892170749	-0.420722
C	-0.0006501078	 0.0827731231	-0.0240971249	 0.132897
C	-1.3570815015	-0.6429385105	-0.1089966259	-0.074009
C	-2.3195309374	 0.1318284016	-0.9949110298	-0.04293
O	-1.720797733	 0.507870767	-2.2512798941	-0.235239
C	-0.4253820008	 0.2025091748	-2.4891060631	 0.492646
O	 0.1234760215	 0.5798227274	-3.4861116776	-0.344015
C	 0.24075557	-0.6171238536	-1.3960155982	-0.235863
N	-0.7320599868	-1.6933131827	-0.9868835034	-0.322192
H	 0.8327635164	 1.8380980293	 0.0509392795	 0.297187
H	 0.6378660002	-0.375951442	 0.7441370497	 0.081605
H	-1.8518744911	-0.9867796882	 0.8020087847	 0.086872
H	-3.1913997385	-0.4857712187	-1.2290949725	 0.126348
H	-2.6433529515	 1.053945421	-0.5036986871	 0.132125
H	 1.2356917504	-0.9297596366	-1.7099645269	 0.096196
H	-0.2300217978	-2.3516598546	-0.3924547753	 0.229093
117.1728	182.502	228.4122	239.6996	341.7483	414.9165	453.3113	537.6635	563.5036	630.2842	766.0989	769.8146	841.3766	868.448	884.1751	913.3598	997.9452	1000.6883	1024.247	1061.2012	1112.3263	1141.5065	1168.6707	1170.8295	1212.9466	1250.0917	1256.3557	1286.1675	1318.1993	1370.6882	1402.5301	1409.16	1441.95	1495.661	1861.6218	3004.1206	3056.8625	3094.6783	3108.0227	3132.5353	3468.1198	3818.5731
OC1C2COC(=O)C1N2	O[C@H]1[C@H]2COC(=O)[C@@H]1N2	
InChI=1S/C5H7NO3/c7-4-2-1-9-5(8)3(4)6-2/h2-4,6-7H,1H2	InChI=1S/C5H7NO3/c7-4-2-1-9-5(8)3(4)6-2/h2-4,6-7H,1H2/t2-,3-,4+/m1/s1
