14
gdb 20412	4.69941	2.06778	1.48764	4.538	62.35	-0.2877	-0.0418	0.2459	798.0189	0.109816	-378.693321	-378.68745	-378.686506	-378.723329	22.691	
C	 0.0229730948	 1.5061252522	-0.0323706926	-0.213521
C	 1.5275843889	 1.9385172597	 0.0218973681	-0.341358
C	 2.1519629512	 0.7540085466	 0.6921019152	 0.335149
N	 3.2679871273	 0.4439064253	 1.2765642274	-0.203225
O	 3.1032465975	-0.8794345502	 1.6493912837	-0.160446
N	 1.8617391889	-1.3691818785	 1.280368574	-0.203225
C	 1.2825581242	-0.3669230193	 0.6944539469	 0.335149
C	-0.0214012692	-0.0586036157	 0.0260882792	-0.341358
H	-0.4903868407	 1.9061373962	 0.847056116	 0.125963
H	-0.4874851602	 1.9001928113	-0.9133372531	 0.115963
H	 1.9423976669	 2.0684409881	-0.9844414315	 0.136897
H	 1.6757250977	 2.8785935118	 0.5575377987	 0.138559
H	-0.8939774766	-0.4345468389	 0.564490707	 0.138559
H	-0.0460899335	-0.495333052	-0.9790613991	 0.136897
140.3188	246.095	292.2213	450.4987	570.1953	621.4692	668.8424	718.1718	720.2198	829.7076	837.7382	883.337	890.6554	913.2269	988.2488	1052.5541	1058.7878	1151.6075	1169.9693	1221.7161	1226.6054	1306.2826	1308.2738	1343.1855	1417.6046	1477.9022	1481.8223	1499.9181	1564.1033	1662.4234	3045.7149	3046.225	3063.1331	3105.6642	3107.7211	3121.4616
C1CC2=NON=C2C1	C1Cc2nonc2C1	
InChI=1S/C5H6N2O/c1-2-4-5(3-1)7-8-6-4/h1-3H2	InChI=1S/C5H6N2O/c1-2-4-5(3-1)7-8-6-4/h1-3H2
