18
gdb 94607	3.23942	1.02977	0.85307	6.4496	68.63	-0.2462	0.0305	0.2767	1326.6476	0.148155	-476.232637	-476.22388	-476.222936	-476.267492	31.928	
O	 0.2087473763	 1.457506807	 0.057238377	-0.412833
C	 0.1153996767	 0.0568388434	 0.0420840573	 0.097874
C	-0.0195114807	-0.5382306884	 1.4570847031	-0.184822
N	-1.2800493191	-1.2469853499	 1.0742861727	-0.343422
H	-1.148534092	-2.2506495257	 1.0129617116	 0.239951
H	-3.0466470817	-1.0379861413	 1.2946027486	 0.304328
C	-1.2729257864	-0.5972962107	-0.2844145819	-0.033104
C	-2.436908358	 0.3778337358	-0.4740554737	-0.333127
C	-3.8213235666	-0.2370131014	-0.2506209729	 0.390738
O	-3.941655815	-0.9525427359	 0.8788532294	-0.373633
O	-4.7453092859	-0.0712891738	-1.0020127948	-0.330832
H	 0.3545935757	 1.7724260249	-0.840609697	 0.293177
H	 0.9294340386	-0.3921243478	-0.540497764	 0.081906
H	 0.7906104014	-1.1918895826	 1.7892643017	 0.117413
H	-0.1949501648	 0.2277565202	 2.2175423488	 0.13438
H	-1.2477901402	-1.3234756364	-1.1032334692	 0.0887
H	-2.3172223662	 1.2101291648	 0.2291361178	 0.139992
H	-2.4236420719	 0.7980381977	-1.4819412045	 0.123312
27.6087	89.7977	122.1342	179.9758	257.667	301.4415	375.1418	404.2771	468.7981	526.0737	617.0931	681.3601	727.3734	817.0027	856.9853	883.3631	901.2864	921.5913	964.4801	992.6983	1005.6301	1039.5135	1104.1416	1127.5092	1161.9516	1207.0835	1237.7412	1253.6908	1278.8933	1296.0094	1307.5829	1340.7279	1354.1507	1393.8582	1435.9133	1469.8474	1478.5301	1503.516	1861.4999	3018.4699	3049.9457	3057.8182	3059.7331	3112.9923	3117.9855	3284.0385	3536.7506	3821.0378
OC1C[NH2+]C1CC([O-])=O	O[C@H]1CN[C@H]1CC(=O)O	
InChI=1S/C5H9NO3/c7-4-2-6-3(4)1-5(8)9/h3-4,6-7H,1-2H2,(H,8,9)	InChI=1S/C5H9NO3/c7-4-2-6-3(4)1-5(8)9/h3-4,6-7H,1-2H2,(H,8,9)/t3-,4-/m0/s1
