27
gdb 101015	2.40691	0.95589	0.91936	0.2027	95.65	-0.2598	0.0859	0.3457	1556.2963	0.250716	-353.5566	-353.545323	-353.544379	-353.593261	42.368	
C	-0.1505976325	 1.6207179044	-0.1982262874	-0.391928
C	-0.0961251142	 0.0895764371	-0.1549587713	-0.176299
C	 0.8706621528	-0.5416077362	-1.1777420508	-0.01714
C	 2.3411340601	-0.2033301454	-0.8799623384	-0.406451
C	 0.6447555492	-2.0542243764	-1.3304625352	 0.391713
C	 0.8593471299	-2.8766175402	-0.058679538	-0.254205
C	 0.7965402868	-4.4023580985	-0.1897762851	-0.402386
C	-0.4437438484	-2.4535823455	-2.2992324421	-0.317416
C	 1.0084509629	-2.6289690919	-2.6799969368	-0.318008
H	 0.8109562716	 2.0732795624	 0.063367826	 0.116867
H	-0.4245302101	 1.9789960412	-1.1972795409	 0.111146
H	-0.8946318935	 2.0054470404	 0.5066011809	 0.109953
H	 0.1791093725	-0.230652668	 0.8579026601	 0.094175
H	-1.1022269216	-0.3078427986	-0.3386150472	 0.094681
H	 0.6307976841	-0.1002723456	-2.156247882	 0.060451
H	 2.6348184762	-0.5206248824	 0.1265088138	 0.113378
H	 3.0067668379	-0.6984669362	-1.5941446445	 0.113198
H	 2.5243991551	 0.8728978595	-0.9481607966	 0.111388
H	 1.8352573893	-2.6138370175	 0.3682349231	 0.097368
H	 0.1151502834	-2.5628773449	 0.6842591355	 0.099566
H	-0.1646241706	-4.7470468012	-0.5837820707	 0.118041
H	 1.5864603104	-4.7908671005	-0.8396130031	 0.119214
H	 0.927745559	-4.865535687	 0.7931033258	 0.112622
H	-1.0266690591	-3.3464820656	-2.10201822	 0.106296
H	-1.0081689469	-1.6627759983	-2.7834008856	 0.103817
H	 1.4271260143	-1.9545149854	-3.4203855318	 0.103162
H	 1.3964541814	-3.6389796897	-2.7410441578	 0.106797
38.7344	75.54	86.7513	172.1304	201.0816	231.6011	251.7809	270.5044	286.7473	301.0332	334.0982	343.6656	454.2026	494.4759	522.9458	676.7964	771.5859	778.2373	788.8253	837.7181	897.8583	904.8831	938.7346	946.0216	973.4047	994.856	1027.5443	1039.5229	1053.4781	1067.6744	1082.0299	1105.4268	1131.8528	1157.3137	1185.7764	1189.8515	1266.5468	1278.03	1299.3395	1319.5447	1349.0047	1370.9887	1388.0472	1396.4238	1406.6392	1413.0519	1418.8816	1468.7657	1485.0633	1489.6105	1496.458	1502.1679	1504.2235	1507.1544	1508.9385	1510.623	1517.1638	2989.9451	3016.8433	3021.9419	3030.5499	3036.4652	3039.584	3049.1568	3054.5677	3095.4957	3101.3607	3102.0946	3103.2563	3108.9421	3109.4531	3126.9648	3131.9764	3203.1744	3218.4288
CCC(C)C1(CC)CC1	CC[C@@H](C)C1(CC)CC1	
InChI=1S/C9H18/c1-4-8(3)9(5-2)6-7-9/h8H,4-7H2,1-3H3	InChI=1S/C9H18/c1-4-8(3)9(5-2)6-7-9/h8H,4-7H2,1-3H3/t8-/m1/s1
