15
gdb 54060	1.92525	1.5701	0.93849	4.4297	69.24	-0.2629	-0.0136	0.2493	1196.062	0.111384	-453.970542	-453.961474	-453.96053	-454.004765	32.708	
N	 1.0662361927	-0.7938032056	 0.2898784257	-0.569196
C	-0.0019357844	 0.0096284941	-0.0145549456	 0.47547
O	 0.0918618063	 1.1968291315	-0.2423650531	-0.375701
N	-1.2401635353	-0.6740679459	-0.0977157733	-0.151191
C	-1.3617865702	-2.1347816431	-0.0623845656	-0.333468
C	-1.0760585589	-2.7233659425	 1.2450771296	 0.296356
C	-0.8045442204	-3.209859769	 2.3103074994	-0.442595
C	-2.3991748644	 0.068091918	-0.3075819812	 0.177004
O	-3.4928958675	-0.4283164885	-0.4388666866	-0.325336
H	 1.9130906337	-0.2750145822	 0.4651359601	 0.270033
H	 0.9268800533	-1.6176445511	 0.8576960933	 0.269764
H	-2.3966812876	-2.3436353983	-0.3499388202	 0.189081
H	-0.7027099088	-2.5726496487	-0.8200792742	 0.158046
H	-0.5979105624	-3.6449617872	 3.2575823012	 0.21526
H	-2.1884975361	 1.1439422487	-0.3402406095	 0.146475
69.0987	83.9838	129.8373	209.6505	258.6169	314.2233	322.0841	344.6957	455.4693	460.7877	510.1007	556.4311	639.4813	640.3978	667.5406	676.9459	777.7704	832.183	954.4038	985.8087	1056.075	1119.4498	1144.2723	1256.6038	1330.4649	1356.9293	1398.4518	1424.7248	1467.2215	1633.0816	1798.7542	1817.5817	2236.0815	3045.5828	3079.6907	3095.923	3498.7203	3557.6665	3685.2788
NC(=O)N(CC#C)C=O	NC(=O)N(CC#C)C=O	
InChI=1S/C5H6N2O2/c1-2-3-7(4-8)5(6)9/h1,4H,3H2,(H2,6,9)	InChI=1S/C5H6N2O2/c1-2-3-7(4-8)5(6)9/h1,4H,3H2,(H2,6,9)
