17
gdb 10262	2.0943	2.02038	1.09042	3.2453	69.58	-0.2759	-0.0527	0.2232	1070.7486	0.139524	-363.891617	-363.882343	-363.881399	-363.926163	32.115	
C	-0.0424958629	 1.5718579547	 0.0639262603	-0.403643
C	-0.0013800375	 0.0387623826	 0.0345387734	 0.013382
C	 0.7984705289	-0.51631878	 1.2195260662	-0.406035
C	-1.4538058304	-0.5467429992	 0.0146469533	-0.21497
C	-2.1880552489	-0.1003471662	-1.2578802192	 0.162322
O	-3.008385657	 0.774252956	-1.2772821136	-0.233461
C	-1.4513790812	-2.008354071	 0.060662765	 0.266708
N	-1.4557083114	-3.1643756659	 0.0576225519	-0.318624
H	 0.9755381995	 1.9709141799	 0.0396702315	 0.124689
H	-0.5909191551	 1.993951409	-0.7818081199	 0.136994
H	-0.5204585303	 1.931008201	 0.9822128209	 0.127101
H	 0.4873006592	-0.2859920471	-0.8936852443	 0.099255
H	 0.8632659398	-1.6069503942	 1.1923444253	 0.14724
H	 1.816060274	-0.1147997544	 1.2044399915	 0.124645
H	 0.3391062937	-0.2253892827	 2.1710345591	 0.123336
H	-2.0123287069	-0.1562541976	 0.8724646585	 0.143003
H	-1.8715663535	-0.6376747649	-2.1776762597	 0.108058
46.4113	72.3879	148.2802	186.6244	220.6088	240.9656	263.4853	347.6595	365.7303	421.7176	487.8311	535.6925	548.3614	825.3225	916.1532	935.8682	945.2491	966.6926	1013.8414	1061.0063	1133.4954	1153.2416	1187.1475	1241.1763	1294.6668	1350.6918	1361.102	1406.9764	1421.3154	1428.4494	1486.0041	1491.2392	1504.8844	1509.4231	1841.0237	2353.6877	2905.6278	3019.952	3035.981	3041.1117	3065.7713	3103.4319	3109.8359	3123.4149	3124.364
CC(C)C(C=O)C#N	CC(C)[C@@H](C=O)C#N	
InChI=1S/C6H9NO/c1-5(2)6(3-7)4-8/h4-6H,1-2H3	InChI=1S/C6H9NO/c1-5(2)6(3-7)4-8/h4-6H,1-2H3/t6-/m1/s1
