16
gdb 49276	2.04384	1.66006	1.06232	5.9568	77.08	-0.2655	-0.0734	0.1921	1129.9342	0.124863	-400.791084	-400.782898	-400.781954	-400.824487	29.457	
O	-0.1134925505	-0.0093204675	-0.3864876645	-0.261984
C	-0.0407329508	 1.1850030536	-0.2042108016	 0.076888
C	 1.2223670234	 1.8993878091	-0.0027034578	 0.243892
C	 1.3619952448	 3.2201253738	 0.1690702041	-0.141594
C	 2.7984311193	 3.6304309581	 0.339443068	-0.258906
C	 3.5807270547	 2.3704934329	-0.1081102123	-0.235704
C	 2.5716294647	 1.1874879466	 0.0350895039	-0.247701
C	 2.7487211379	 0.4544079953	 1.2941199331	 0.278003
N	 2.9094479778	-0.0969149495	 2.2971410502	-0.325152
H	-0.9470816277	 1.8288362803	-0.1929198191	 0.079661
H	 0.5343288062	 3.921424296	 0.2027143084	 0.12334
H	 3.0571690349	 4.5182134458	-0.2465334898	 0.126275
H	 2.9926965578	 3.8870151727	 1.3900421067	 0.141802
H	 3.8511750364	 2.4617433941	-1.1633468129	 0.123513
H	 4.4971880886	 2.2060809036	 0.4596264397	 0.133514
H	 2.6636641024	 0.4634628749	-0.779921586	 0.144153
68.1439	115.9648	139.5592	197.5106	238.4222	291.8226	413.8613	465.5654	534.0137	589.657	682.2436	726.4442	790.6712	851.8478	875.8818	928.3068	944.2916	983.9266	1035.6453	1042.9312	1066.6637	1158.8026	1179.945	1240.0113	1251.3954	1299.7531	1314.6273	1342.523	1361.2563	1417.0155	1472.3967	1492.9458	1686.2405	1786.5443	2356.1133	2895.6409	3022.4097	3065.7893	3073.3993	3082.0365	3133.5214	3192.8899
O=CC1=CCCC1C#N	O=CC1=CCC[C@H]1C#N	
InChI=1S/C7H7NO/c8-4-6-2-1-3-7(6)5-9/h3,5-6H,1-2H2	InChI=1S/C7H7NO/c8-4-6-2-1-3-7(6)5-9/h3,5-6H,1-2H2/t6-/m0/s1
