21
gdb 12068	3.35795	1.63661	1.45719	1.5581	78.04	-0.2243	0.0881	0.3124	991.4783	0.188704	-329.088826	-329.080495	-329.079551	-329.121024	32.607	
C	 0.1251232455	 1.5054152322	-0.1119759648	-0.389129
C	-0.0097421267	-0.003102183	 0.1248769927	-0.228566
C	-1.4433904009	-0.5383369428	 0.051534659	 0.362815
C	-2.3512039861	 0.0318850821	 1.1420215473	-0.456553
C	-2.1488452106	-0.4961600707	-1.3672231501	-0.277841
C	-2.2730163815	-2.0201697944	-1.3117971698	-0.036866
N	-0.8849642723	-2.5424822335	-1.2333841169	-0.34015
C	-1.5703761396	-2.0783955749	-0.0041488232	-0.098944
H	 1.1779360574	 1.804927923	-0.1097958224	 0.110827
H	-0.297203615	 1.7956669391	-1.0804453893	 0.115216
H	-0.3831265902	 2.0920078895	 0.6599705351	 0.111949
H	 0.5871384023	-0.5451597951	-0.6150640274	 0.117652
H	 0.4085076446	-0.2554009763	 1.1096375265	 0.082106
H	-2.4900129147	 1.1112034788	 1.0257334601	 0.11758
H	-3.342092428	-0.4345612603	 1.1111669427	 0.109319
H	-1.929123332	-0.1471734023	 2.1383112645	 0.108943
H	-3.1071263161	 0.0276964302	-1.3393608445	 0.096682
H	-1.5490349603	-0.1184053391	-2.1992393722	 0.101985
H	-3.0713096406	-2.6393001246	-1.7026101932	 0.08802
H	-0.9461897438	-3.5604891112	-1.2404195082	 0.225137
H	-1.7103075615	-2.7470977169	 0.8384355341	 0.079819
99.9764	170.6335	195.0924	245.3963	262.4266	298.1909	356.3569	407.7873	431.7116	533.4205	616.7546	769.1021	786.8557	809.4083	840.312	872.087	912.506	928.2926	951.0047	972.0567	1004.4639	1019.0446	1036.0615	1069.3008	1090.7342	1111.2879	1151.3142	1163.8799	1213.4797	1231.7921	1263.1181	1297.9978	1315.3018	1331.2411	1369.7519	1382.9898	1408.7735	1413.443	1471.3743	1485.6495	1494.9292	1501.2609	1505.5666	1510.9404	3009.2814	3022.7559	3032.5798	3058.4812	3076.714	3085.3799	3097.4689	3099.369	3106.6426	3116.0744	3166.9479	3187.8473	3468.8857
CCC1(C)CC2NC12	CC[C@@]1(C)C[C@H]2N[C@@H]12	
InChI=1S/C7H13N/c1-3-7(2)4-5-6(7)8-5/h5-6,8H,3-4H2,1-2H3	InChI=1S/C7H13N/c1-3-7(2)4-5-6(7)8-5/h5-6,8H,3-4H2,1-2H3/t5-,6-,7+/m1/s1
