21
gdb 60493	2.59053	0.9095	0.70738	4.4485	77.	-0.2677	0.0163	0.284	1616.6669	0.179222	-461.384526	-461.373825	-461.372881	-461.421833	37.156	
C	-0.7417197517	 1.4759326023	 0.0317255223	-0.393653
C	-0.377381843	 0.0107462897	-0.1727759111	 0.153946
C	 0.7671391632	-0.4390404356	 0.7382167329	-0.393306
O	-1.5702460129	-0.7376457053	 0.0716231755	-0.261325
C	-1.5682631367	-2.0674370379	-0.390087155	-0.06384
C	-3.0129689001	-2.5344020446	-0.4461716188	-0.100753
O	-3.7372878747	-1.8281061334	-1.454834609	-0.180006
C	-4.3130119838	-0.660045191	-1.0970943128	 0.180316
O	-4.8281134053	 0.0671206934	-1.892208867	-0.283677
H	 0.1175818911	 2.1181228346	-0.1818121437	 0.116267
H	-1.5644438481	 1.7610837727	-0.6288356027	 0.134776
H	-1.0538604594	 1.6501481615	 1.066464109	 0.122598
H	-0.0810760582	-0.1442438691	-1.2234492192	 0.073949
H	 0.4849458002	-0.3188041444	 1.7892181355	 0.123354
H	 1.0331346149	-1.4869737936	 0.5704434291	 0.115587
H	 1.6616104164	 0.1627404892	 0.5496066732	 0.119968
H	-1.1236903871	-2.1348543738	-1.3952538928	 0.105988
H	-1.0020833454	-2.7373223926	 0.2767793142	 0.095848
H	-3.0636434362	-3.5924546452	-0.7139425318	 0.125664
H	-3.4873781757	-2.3963738356	 0.5334595692	 0.121469
H	-4.2693180774	-0.4750169113	-0.0094547271	 0.08683
36.5144	42.8831	93.813	134.7806	184.8761	192.4165	215.6881	259.865	289.3954	363.0389	377.8557	439.0451	486.0441	521.5245	636.4938	811.0306	884.7523	925.9585	929.4327	944.1713	987.8606	1030.964	1056.6256	1114.3467	1128.3555	1153.5689	1160.5034	1191.366	1207.7129	1267.2976	1319.838	1365.8439	1371.0155	1399.3693	1400.5353	1415.3604	1427.8797	1432.7591	1481.1743	1486.1926	1490.3349	1494.8499	1504.3171	1514.373	1864.0058	2966.2217	2973.4068	2985.8713	3009.0775	3037.5598	3039.5821	3043.7734	3109.7096	3111.3287	3112.5953	3117.9115	3126.101
CC(C)OCCOC=O	CC(C)OCCOC=O	
InChI=1S/C6H12O3/c1-6(2)9-4-3-8-5-7/h5-6H,3-4H2,1-2H3	InChI=1S/C6H12O3/c1-6(2)9-4-3-8-5-7/h5-6H,3-4H2,1-2H3
