16
gdb 34613	3.17863	1.40402	1.0699	5.7142	76.57	-0.2617	-0.0492	0.2125	1094.9561	0.126391	-400.75738	-400.75009	-400.749146	-400.789564	27.394	
N	 0.0971596309	-1.0460955174	 0.331551847	-0.332841
C	 0.0233224886	 0.1018550587	 0.1950563563	 0.202219
C	-0.0293694035	 1.5093412137	 0.00851301	 0.207199
C	-1.1354641134	 2.266583919	 0.0608888098	-0.148931
C	-0.8657661235	 3.7247560422	-0.206747181	-0.281997
C	 0.6687222752	 3.7973616883	-0.3106077251	-0.083794
C	 1.4719092394	 3.9498394754	 1.0019351322	-0.081244
O	 2.0065818308	 2.6100595253	 0.8960306199	-0.278345
C	 1.2073940727	 2.3437182647	-0.2744327808	 0.007913
H	-2.1289669459	 1.8813904832	 0.2615344356	 0.127519
H	-1.3609683903	 4.0467225395	-1.1319235854	 0.127632
H	-1.2667047667	 4.3645962304	 0.5898241178	 0.125078
H	 1.0210914341	 4.4248238921	-1.1282275096	 0.093432
H	 2.2696831769	 4.700197963	 0.9929702037	 0.113315
H	 0.8638774664	 4.0825525949	 1.9062841301	 0.106091
H	 1.8183299682	 1.9513707772	-1.0933306005	 0.096754
85.052	141.5531	170.4878	262.8521	365.8916	424.025	498.5408	561.085	663.0186	698.1043	772.0106	843.1564	860.1334	886.0414	927.1738	946.2894	985.9309	998.7028	1019.2717	1082.848	1084.5783	1153.4043	1159.4584	1195.7897	1232.9625	1257.6045	1291.6827	1315.0972	1336.4989	1340.4539	1364.7977	1475.8555	1522.2337	1671.1935	2339.2572	3015.3548	3023.3534	3049.6608	3063.6511	3068.6347	3121.266	3204.4382
N#CC1=CCC2COC12	N#CC1=CC[C@H]2CO[C@@H]12	
InChI=1S/C7H7NO/c8-3-5-1-2-6-4-9-7(5)6/h1,6-7H,2,4H2	InChI=1S/C7H7NO/c8-3-5-1-2-6-4-9-7(5)6/h1,6-7H,2,4H2/t6-,7-/m0/s1
