20
gdb 118448	2.52799	1.06684	0.8327	13.8195	74.35	-0.1749	-0.0031	0.1719	1416.7013	0.169704	-477.375159	-477.364782	-477.363838	-477.411477	36.143	
C	 0.3714086236	 1.2687949293	-0.2397067186	-0.344698
N	-0.1538566613	-0.0522410962	 0.1848776274	-0.240046
H	-1.1708135534	-0.0242960591	 0.2610991281	 0.299381
H	 0.077477325	-0.8274963524	-0.4844930616	 0.309185
C	 0.4293781856	-0.6449218915	 1.466809477	-0.202404
C	 0.2854603759	-2.163619342	 1.3325136515	-0.048049
O	 0.5489655107	-2.4949225412	-0.0483278901	-0.300757
C	 1.8761496378	-2.9451503831	-0.3601871677	-0.256759
C	 1.1417304356	-2.8461935944	 2.4889039417	 0.352197
O	 1.317152874	-2.0510127311	 3.4317410956	-0.467712
O	 1.4676066271	-4.0223306597	 2.2996051634	-0.45285
H	 1.4492509767	 1.181943783	-0.3785548404	 0.186129
H	-0.0997556732	 1.5694700572	-1.1772930403	 0.166668
H	 0.1631375761	 2.0058967826	 0.5370099214	 0.178775
H	 1.4782949629	-0.3486616078	 1.5031883649	 0.160614
H	-0.0864138174	-0.2367652179	 2.3312412844	 0.168635
H	-0.7627994718	-2.4500629913	 1.4890525065	 0.094858
H	 1.8614241981	-3.203933206	-1.4219455458	 0.110844
H	 2.6223478377	-2.1538006482	-0.1955732356	 0.090983
H	 2.1211237303	-3.8050387802	 0.263477318	 0.195006
49.073	74.929	90.8481	148.9417	170.2742	180.6491	243.2908	275.8663	324.6312	335.3376	380.2015	468.276	514.1157	629.1992	775.6806	780.0053	827.7431	860.3034	925.6302	987.0718	1012.358	1036.4753	1085.0389	1122.3081	1160.018	1181.9779	1211.8603	1257.2515	1267.0767	1298.7839	1329.9656	1361.9776	1363.5934	1397.5182	1451.5843	1458.7608	1466.931	1486.4012	1496.1039	1501.9032	1525.8578	1675.8966	1795.37	2990.2462	3022.4904	3033.597	3072.4999	3093.0765	3117.8324	3158.564	3159.8105	3171.0543	3199.6184	3485.7641
C[NH2+]CC(OC)C([O-])=O	C[NH2]C[C@@H](OC)C(=O)[O]	
InChI=1S/C5H11NO3/c1-6-3-4(9-2)5(7)8/h4,6H,3H2,1-2H3,(H,7,8)	InChI=1S/C5H11NO3/c1-6-3-4(9-2)5(7)8/h4H,3,6H2,1-2H3/t4-/m1/s1
