14
gdb 31432	3.06629	1.40998	0.97175	4.7842	67.81	-0.2595	-0.055	0.2045	1131.3852	0.101328	-473.885313	-473.877645	-473.876701	-473.917942	27.706	
C	-0.0362799024	 1.3983533391	-0.0202538067	-0.239209
O	 0.0169985498	-0.0370691579	 0.023167131	-0.247483
C	 0.6357147052	-0.592527883	 1.0582320737	 0.470249
N	 1.1653684398	 0.1528993155	 1.9845899356	-0.44304
C	 1.8018541957	-0.4219240898	 3.049392614	 0.444322
O	 2.3276455737	 0.1367097002	 3.9630572498	-0.332684
O	 1.8517552334	-1.8620139593	 3.086827097	-0.215216
C	 1.2950268823	-2.5793587398	 2.1153335809	 0.119234
C	 0.6654853394	-2.0259387767	 1.0617514692	-0.286877
H	 0.9713858289	 1.8183155156	-0.0443809137	 0.1536
H	-0.5783567793	 1.6357307559	-0.935244054	 0.138524
H	-0.5596599449	 1.7886962655	 0.8549867044	 0.153603
H	 1.4074587154	-3.6472973388	 2.2715672699	 0.153296
H	 0.2143943331	-2.6101940263	 0.2745169787	 0.131681
93.779	144.4093	163.8975	220.3028	238.303	420.9667	433.0722	523.2606	578.0539	603.7372	697.757	746.5646	790.7581	810.4217	826.7493	969.1432	978.927	1025.7798	1097.8807	1154.66	1177.0967	1238.3554	1292.8433	1343.9608	1443.8659	1479.0727	1491.9276	1514.6409	1579.8784	1687.6731	1888.2498	3060.3289	3141.1259	3166.7494	3197.0928	3256.3621
COC1=NC(=O)OC=C1	COc1nc(=O)occ1	
InChI=1S/C5H5NO3/c1-8-4-2-3-9-5(7)6-4/h2-3H,1H3	InChI=1S/C5H5NO3/c1-8-4-2-3-9-5(7)6-4/h2-3H,1H3
