16
gdb 37921	3.2828	1.76301	1.32194	0.3194	69.1	-0.2473	0.0211	0.2684	931.9643	0.126664	-437.812623	-437.806213	-437.805269	-437.843486	25.715	
C	 0.1004034097	 1.5286315205	-0.2974841107	-0.206726
N	 1.0481242613	 2.3737785295	 0.3901097436	-0.261868
C	 1.852819384	 2.0263373861	 1.2910111536	 0.126428
O	 2.1166804971	 0.8423416349	 1.9051607269	-0.235527
C	 1.4607681758	-0.3657767404	 1.6165847835	 0.143537
C	 1.1724179083	-0.9218075829	 0.1923842329	-0.02614
O	 0.2513093379	-1.8657800593	 0.8667774616	-0.29921
C	-0.0759830001	-0.5450936048	 1.452403427	-0.026163
C	-0.0282922824	 0.0469823564	 0.0178658858	 0.006693
H	-0.890432511	 1.9863602026	-0.1656001417	 0.12382
H	 0.3072958132	 1.6254417576	-1.3728937106	 0.123828
H	 2.5171939542	 2.7718087543	 1.7272109985	 0.124146
H	 1.9039297222	-1.1089341506	 2.2778389503	 0.114029
H	 1.8608449425	-1.3317899582	-0.5473373473	 0.101325
H	-0.8652016272	-0.5091820506	 2.2041011495	 0.10133
H	-0.8018351055	-0.3995215749	-0.6150916728	 0.0905
105.6546	249.6778	345.3888	373.4478	419.1575	499.6495	548.5375	664.3962	732.4927	809.5261	827.8303	845.0645	883.6889	906.9509	954.6484	958.6223	1002.932	1006.6491	1030.02	1069.1285	1100.7814	1137.6623	1158.2557	1191.3862	1206.9978	1223.3522	1246.9694	1303.5618	1310.5167	1354.7779	1389.76	1428.3881	1444.2011	1471.4704	1780.5207	3005.0168	3024.322	3067.7523	3116.9576	3119.5649	3138.5794	3144.9765
C1N=COC2C3OC2C13	C1N=CO[C@@H]2[C@H]3O[C@@H]2[C@@H]13	
InChI=1S/C6H7NO2/c1-3-4-6(5(3)9-4)8-2-7-1/h2-6H,1H2	InChI=1S/C6H7NO2/c1-3-4-6(5(3)9-4)8-2-7-1/h2-6H,1H2/t3-,4-,5+,6+
