20
gdb 69600	3.43242	1.30644	1.21651	1.2504	79.4	-0.2311	0.0912	0.3223	1125.1799	0.171612	-403.1201	-403.11199	-403.111046	-403.152328	32.359	
C	 0.0059351898	 1.4987384642	-0.082950731	-0.474383
C	-0.0154958819	 0.0001147045	 0.0565999323	 0.321119
C	-1.2898755532	-0.7670160346	-0.2779528831	-0.159306
O	-1.1087454046	-2.0758726071	 0.263585643	-0.300043
C	-0.2849562221	-1.9504089959	 1.4062029746	 0.454524
C	-0.8674772379	-2.227510732	 2.7673421947	-0.334735
C	 0.0804210156	-3.2169414077	 2.10546564	-0.33658
C	 0.6245568141	-0.7876196968	 1.1460384151	-0.173257
N	 1.2370935802	-0.7294959948	-0.1922224741	-0.383389
H	 0.9710956064	 1.8956589221	 0.2397790803	 0.134204
H	-0.1451232629	 1.7977563607	-1.1266642253	 0.121926
H	-0.7836061891	 1.9629101102	 0.5180769733	 0.117123
H	-2.1585293899	-0.2625560829	 0.174434027	 0.096269
H	-1.4746335425	-0.878731793	-1.3521497073	 0.10894
H	-0.5103488184	-1.6548404424	 3.6172863364	 0.112621
H	-1.9169722458	-2.4966175657	 2.8028148413	 0.122469
H	-0.3506308029	-4.1318813907	 1.7147597235	 0.126672
H	 1.0859712446	-3.3181027236	 2.4989765249	 0.120027
H	 1.1880955951	-0.3487733784	 1.9630202245	 0.090799
H	 1.0506552855	-1.6002568463	-0.68836564	 0.234998
114.314	191.6276	193.0514	229.5191	318.754	336.9703	385.8199	407.8668	484.284	572.3189	611.799	747.3446	767.2105	790.2625	858.4074	885.8147	897.802	930.1584	963.5723	979.2597	1006.7676	1016.9029	1044.7828	1053.6826	1067.2851	1075.969	1109.5713	1145.6261	1178.0922	1190.0499	1234.8267	1245.1442	1273.2824	1326.0798	1345.2965	1391.671	1413.3281	1451.7983	1454.1482	1487.4811	1495.9136	1501.7274	1513.8845	2979.2581	3031.3469	3064.2282	3090.4716	3125.3056	3129.6076	3136.2468	3164.5883	3216.7144	3230.7899	3470.9167
CC12COC3(CC3)C1N2	C[C@]12COC3(CC3)[C@H]1N2	
InChI=1S/C7H11NO/c1-6-4-9-7(2-3-7)5(6)8-6/h5,8H,2-4H2,1H3	InChI=1S/C7H11NO/c1-6-4-9-7(2-3-7)5(6)8-6/h5,8H,2-4H2,1H3/t5-,6-/m0/s1
