18
gdb 84749	2.56132	1.58857	1.17356	2.6796	76.28	-0.2395	-0.0123	0.2271	1084.3749	0.149223	-435.288741	-435.280219	-435.279275	-435.321686	32.484	
C	-0.0192238468	 1.577780812	 0.0079562851	-0.396268
C	 0.1415455101	 0.0598904931	-0.0727429177	 0.037367
N	 0.8985091303	-0.2945914739	-1.278924002	-0.245925
C	 1.4776389339	-1.4205431789	-1.2770512907	 0.092477
N	 1.4880346261	-2.3349994581	-0.2252653743	-0.34976
C	 1.0536941278	-2.0088380352	 1.0506358451	 0.358663
N	 0.9910696428	-2.785461588	 2.0597128532	-0.530567
C	 0.7396669748	-0.5296019457	 1.2121140784	 0.05266
O	 1.9579666727	 0.1520438957	 1.494611556	-0.433695
H	 0.9540058148	 2.0539939983	 0.1400688445	 0.141078
H	-0.4674956688	 1.9479151913	-0.9170142421	 0.120644
H	-0.661037534	 1.8588811801	 0.8490973024	 0.105424
H	-0.8576625594	-0.391982746	-0.18206756	 0.090402
H	 2.0197288679	-1.7621606408	-2.1583795334	 0.119103
H	 1.9132562801	-3.2380951401	-0.3733503858	 0.247263
H	 1.2996716067	-3.7346605513	 1.8328249275	 0.202646
H	 0.0289498839	-0.4284959518	 2.0413848002	 0.094837
H	 2.311559557	-0.2291763207	 2.3058570436	 0.293651
89.0237	122.8644	219.0258	230.9059	269.938	301.7367	382.1067	419.6705	439.6953	482.9085	537.5181	555.7379	689.5916	732.2468	771.5341	866.8547	883.655	930.3315	945.5821	948.1956	992.2925	1075.6946	1078.1043	1135.9951	1155.6913	1175.3832	1228.5266	1302.1899	1331.696	1359.1905	1371.676	1402.4882	1419.882	1429.4242	1460.202	1485.7545	1498.5708	1728.4165	1744.3459	2976.6119	3034.4529	3048.1794	3120.2151	3135.907	3143.4092	3427.1697	3610.736	3809.884
CC1N=CNC(=N)C1O	C[C@H]1N=CN[C]([NH])[C@H]1O	
InChI=1S/C5H9N3O/c1-3-4(9)5(6)8-2-7-3/h2-4,9H,1H3,(H2,6,7,8)	InChI=1S/C5H9N3O/c1-3-4(9)5(6)8-2-7-3/h2-4,9H,1H3,(H2,6,7,8)/t3-,4+/m1/s1
