21
gdb 90717	3.0341	1.33346	1.29059	1.0664	78.35	-0.2416	0.0714	0.313	1128.2903	0.180537	-424.203871	-424.194775	-424.193831	-424.237092	35.066	
C	 0.4927958575	 1.5279310738	-0.1333026457	-0.409849
C	 0.1267883955	 0.0748889669	 0.0632524577	 0.132547
O	 0.8638384783	-0.8466595141	-0.8018754613	-0.317493
C	 1.230529507	-1.6793873586	 0.3100866354	 0.020033
C	 0.6310280864	-0.6796055398	 1.3107585125	 0.041991
O	 1.9354522887	-0.2733926437	 1.7505428092	-0.344925
C	 2.5964454544	-1.3244230769	 0.9519581228	 0.388558
C	 3.1081109049	-2.4147975628	 1.884656628	-0.425511
C	 3.6744407609	-0.7540581983	 0.0512734853	-0.437518
H	 1.5269906743	 1.7086786536	 0.1663987081	 0.138185
H	 0.3673989701	 1.8079985545	-1.1836415101	 0.12585
H	-0.1622627476	 2.1661129454	 0.4696460546	 0.117216
H	-0.9514429856	-0.0830910482	-0.0858066567	 0.075308
H	 0.9683018337	-2.7302634915	 0.1696796089	 0.078564
H	-0.0598851062	-0.8810216122	 2.1315370137	 0.081948
H	 2.2974138909	-2.8188304579	 2.4991388526	 0.117285
H	 3.5520939346	-3.2372267743	 1.3137107394	 0.116344
H	 3.870089164	-2.0071303044	 2.5558233607	 0.127733
H	 4.4131481672	-0.2147091238	 0.6527356643	 0.121729
H	 4.191791947	-1.5560144562	-0.4855893797	 0.11514
H	 3.2420337039	-0.0710741317	-0.6812605398	 0.136867
95.5648	178.2812	188.6986	203.1969	227.0536	243.6112	316.794	347.1536	375.6653	414.177	516.3342	564.1322	612.8692	751.3631	805.9817	844.6767	877.984	898.8744	926.2895	940.9183	977.3222	980.3925	1006.6015	1033.9728	1085.0681	1103.7207	1144.9816	1172.7285	1182.1772	1215.3238	1236.0143	1286.2111	1302.291	1322.5551	1343.1451	1378.339	1397.2777	1405.0159	1411.7758	1473.2116	1479.2016	1482.1899	1493.4092	1494.5508	1506.6163	2995.9157	3032.8684	3041.5621	3042.6658	3081.3817	3095.4239	3103.3402	3107.6651	3108.0553	3113.5783	3137.1502	3143.3838
CC1OC2C1OC2(C)C	C[C@H]1O[C@@H]2[C@H]1OC2(C)C	
InChI=1S/C7H12O2/c1-4-5-6(8-4)7(2,3)9-5/h4-6H,1-3H3	InChI=1S/C7H12O2/c1-4-5-6(8-4)7(2,3)9-5/h4-6H,1-3H3/t4-,5+,6-/m1/s1
