21
gdb 122091	3.06331	0.76824	0.64726	0.2178	82.47	-0.2538	0.036	0.2898	1796.3811	0.178158	-424.169095	-424.157836	-424.156892	-424.206628	38.746	
C	 0.6564605242	 0.8035073443	-1.215606835	-0.385403
C	 0.0683736497	 0.1489889412	 0.0225076917	-0.025021
O	-1.0493151595	-0.6250600733	-0.3663103487	-0.244469
C	-1.6753114006	-1.276988029	 0.7081355551	-0.076169
C	-2.9142122045	-2.0015039921	 0.1685900335	-0.065581
O	-3.393033929	-2.7982860689	 1.2376283273	-0.236691
C	-4.4258309766	-3.6909847195	 0.8733072487	-0.237642
C	-3.9266089278	-1.0633008783	-0.331941335	 0.363764
C	-4.7728211934	-0.3045655044	-0.7228470897	-0.49534
H	 1.5235448413	 1.4145948591	-0.9478356233	 0.114544
H	 0.9747932549	 0.0450491092	-1.9364066885	 0.126442
H	-0.0862930314	 1.4445976595	-1.6985100306	 0.129801
H	 0.8190767891	-0.4903247832	 0.5175286344	 0.086212
H	-0.2384081987	 0.9122410944	 0.7571624569	 0.089318
H	-1.0150385585	-2.0286657192	 1.1682855062	 0.097024
H	-1.9796860649	-0.5667418475	 1.4921814518	 0.102519
H	-2.5888211927	-2.6433362001	-0.6674058133	 0.101398
H	-4.6815309065	-4.2607174333	 1.7693828494	 0.128281
H	-5.317390388	-3.1587738217	 0.516599541	 0.122451
H	-4.095856766	-4.3883353588	 0.0877360339	 0.104952
H	-5.513145161	 0.3703986616	-1.0755253458	 0.19961
47.826	63.4026	89.5099	119.3293	129.155	174.3227	204.3675	243.764	257.2042	259.62	334.3397	399.9435	484.5374	582.9906	605.5559	630.9845	671.0731	821.4781	836.2926	898.6824	985.6097	1048.1669	1080.06	1101.9089	1143.7675	1163.8505	1176.4799	1185.0618	1188.7228	1222.4185	1241.8375	1297.8385	1320.5811	1369.5535	1383.6708	1405.3208	1447.0319	1478.4663	1483.1983	1484.8918	1499.8433	1511.0763	1513.7442	1536.3706	2232.0249	2955.2097	2965.0745	2979.2303	2982.0196	2984.5974	3018.6433	3045.5956	3048.6505	3119.9985	3122.1728	3122.822	3502.6428
CCOCC(OC)C#C	CCOC[C@@H](OC)C#C	
InChI=1S/C7H12O2/c1-4-7(8-3)6-9-5-2/h1,7H,5-6H2,2-3H3	InChI=1S/C7H12O2/c1-4-7(8-3)6-9-5-2/h1,7H,5-6H2,2-3H3/t7-/m0/s1
