16
gdb 9904	4.89586	0.87699	0.83414	1.2442	71.53	-0.2405	0.0269	0.2674	1386.8453	0.128288	-383.682115	-383.673169	-383.672225	-383.716694	31.766	
O	 0.2401291501	 1.0659471641	-0.749449754	-0.401676
C	-0.0178243465	 0.1201864085	 0.2805524458	-0.195918
C	-1.3519244721	-0.472028046	 0.220909301	 0.016757
C	-2.4659006857	-0.9323501248	 0.1649639943	 0.053619
C	-3.8063277873	-1.4524308331	 0.1060667175	 0.226294
O	-4.6945867031	-0.9663902347	 1.080260218	-0.442021
C	-4.3930989605	-1.8204171943	-1.2496198964	-0.312183
C	-4.0381385605	-2.897112089	-0.2570700652	-0.287255
H	-0.4855401932	 1.6986722899	-0.7460790633	 0.285102
H	 0.7445191031	-0.6583909886	 0.1643002525	 0.141826
H	 0.1339899335	 0.5624398191	 1.2784839624	 0.120046
H	-4.7697205842	-0.0135258788	 0.9558778618	 0.283447
H	-5.443794764	-1.5876560227	-1.3804900917	 0.122561
H	-3.7708072745	-1.6941584061	-2.1276169879	 0.127
H	-3.1705896916	-3.516872101	-0.4465077365	 0.129557
H	-4.8504577636	-3.3787845523	 0.2745845817	 0.132844
31.7666	92.1361	106.4374	209.1184	267.7525	299.9292	327.7096	354.7014	381.9828	502.6193	551.2157	576.2092	643.6991	777.33	858.9296	886.5763	928.656	976.7039	988.7443	1030.3204	1056.1928	1080.5676	1083.8649	1194.9749	1214.7694	1240.2768	1310.8707	1355.6801	1377.614	1417.3236	1449.3144	1486.2173	1488.0682	2345.2103	2975.1793	3061.307	3140.409	3148.5304	3231.5101	3246.9555	3796.9573	3817.7351
OCC#CC1(O)CC1	OCC#CC1(O)CC1	
InChI=1S/C6H8O2/c7-5-1-2-6(8)3-4-6/h7-8H,3-5H2	InChI=1S/C6H8O2/c7-5-1-2-6(8)3-4-6/h7-8H,3-5H2
