14
gdb 81525	3.79165	1.30139	1.08644	2.5759	62.79	-0.2809	-0.0004	0.2805	1050.8732	0.0994	-473.746616	-473.738875	-473.73793	-473.778623	29.614	
O	 0.164978493	 1.4216118745	-0.0935048751	-0.442393
C	 0.1182565301	 0.0421856631	-0.0652245092	 0.179192
C	 0.0054667761	-0.6542716056	 1.3268831138	-0.073786
O	-1.3728527877	-0.1168589804	 1.4300890077	-0.323779
C	-1.2856607964	-0.6372116992	 0.0416351855	-0.045742
C	-0.6139507883	-1.9077923069	 0.6187928423	 0.291304
O	 0.137831254	-2.6648901419	-0.2799576386	-0.466235
C	-1.4583250057	-2.7382751989	 1.4812479096	 0.243851
N	-2.0567229198	-3.4801184614	 2.1346752166	-0.329719
H	-0.481011625	 1.7264778139	 0.560106277	 0.295238
H	 0.8273608189	-0.3623301603	-0.7846903203	 0.125466
H	 0.6351740774	-0.600329299	 2.214658767	 0.117951
H	-2.1729112729	-0.5619616773	-0.5855878588	 0.122959
H	 0.5378052264	-3.4064810808	 0.1880518926	 0.305692
138.7617	144.9233	243.1396	279.577	314.5908	340.7787	379.9005	476.3906	521.8355	573.5443	579.5521	673.7306	738.0287	764.807	814.5423	863.083	921.0479	960.5161	1013.87	1104.6474	1122.0307	1132.8753	1165.0906	1187.7683	1201.1907	1217.9849	1265.9759	1324.62	1378.5337	1450.5636	2357.0094	3131.7961	3140.4404	3153.5117	3743.6007	3811.324
OC1C2OC1C2(O)C#N	O[C@H]1[C@H]2O[C@@H]1[C@]2(O)C#N	
InChI=1S/C5H5NO3/c6-1-5(8)3-2(7)4(5)9-3/h2-4,7-8H	InChI=1S/C5H5NO3/c6-1-5(8)3-2(7)4(5)9-3/h2-4,7-8H/t2-,3+,4-,5-
