16
gdb 42306	3.35829	1.18453	0.99056	3.8486	75.61	-0.2604	-0.0844	0.176	1183.9267	0.124462	-400.781144	-400.772828	-400.771884	-400.815415	29.588	
O	-0.1293262805	-0.1500069245	-0.0518806432	-0.2682
C	-0.1306786661	 1.0534598178	-0.0129750769	 0.294883
C	 1.1203442972	 1.7826342322	 0.3079757099	 0.232677
N	 2.0873575544	 2.3720315886	 0.5421264984	-0.302906
C	-1.3353826025	 1.9550475981	-0.2461144299	-0.152561
C	-2.6190500501	 1.1693602978	-0.6070144033	-0.241914
C	-3.4661937828	 1.1251051201	 0.692514273	-0.253142
C	-2.8375051114	 2.1854984143	 1.5607726224	-0.041887
C	-1.6950766356	 2.6522491029	 1.0613010341	-0.094404
H	-1.0414440033	 2.6789696904	-1.0182039641	 0.113982
H	-3.1571049846	 1.7125232129	-1.3874905091	 0.11188
H	-2.3830103813	 0.175403272	-0.9890698481	 0.131241
H	-4.5270407328	 1.3183598271	 0.4994637874	 0.114024
H	-3.4174632485	 0.1448587723	 1.1842241444	 0.125493
H	-3.2781622589	 2.5122380871	 2.4963356763	 0.108302
H	-1.0549186832	 3.4000180508	 1.5133426687	 0.122532
42.6053	57.1345	129.7623	191.6328	281.2069	286.4947	416.9874	447.0829	581.7204	666.8388	692.2489	732.2749	785.6845	815.9083	870.2951	912.5068	924.4602	977.9763	989.545	1035.5544	1060.5199	1100.9816	1133.0523	1178.0616	1213.9239	1264.0925	1300.4007	1316.5333	1344.7682	1372.9217	1474.8719	1493.3356	1681.5011	1797.1407	2334.9704	3017.0626	3027.4069	3061.0934	3079.7126	3132.8674	3190.8918	3218.6666
O=C(C#N)C1CCC=C1	O=C(C#N)[C@H]1CCC=C1	
InChI=1S/C7H7NO/c8-5-7(9)6-3-1-2-4-6/h1,3,6H,2,4H2	InChI=1S/C7H7NO/c8-5-7(9)6-3-1-2-4-6/h1,3,6H,2,4H2/t6-/m1/s1
