21
gdb 91066	3.36975	1.35376	1.28562	1.351	81.03	-0.2382	0.0812	0.3194	1100.5069	0.184548	-387.071022	-387.063402	-387.062458	-387.102943	31.144	
C	 0.0421145171	 1.5591770631	 0.054182314	-0.403589
C	 0.0736956719	 0.0429351994	-0.018323186	 0.162751
C	 0.7799689343	-0.5546697418	-1.2618279838	-0.277104
C	 1.3100176895	-1.8963601134	-0.7332552573	-0.027983
C	 2.8210533564	-2.1693129862	-0.581049924	-0.070285
C	 3.5133203842	-1.0757645055	 0.1812043125	-0.285876
C	 2.7108090002	-2.0826618657	 0.9492620994	-0.063972
C	 1.2112664686	-1.7784947067	 0.8161837898	 0.091842
O	 0.7978955587	-0.457456757	 1.1132405326	-0.277205
H	 1.0574091627	 1.9663734174	 0.013068414	 0.120448
H	-0.5316159699	 1.9697611153	-0.7826911137	 0.113573
H	-0.4232745643	 1.8911958518	 0.986362079	 0.12512
H	-0.9597517423	-0.3431477218	 0.0207510127	 0.062796
H	 0.0903091666	-0.6632579468	-2.1032172989	 0.096869
H	 1.5947787427	 0.102642461	-1.5818189715	 0.101898
H	 0.7744059219	-2.7569192121	-1.137331259	 0.07132
H	 3.3767690688	-2.8856355341	-1.1738326352	 0.08458
H	 4.5892982771	-1.1897150021	 0.264098981	 0.109803
H	 3.1780192649	-0.0447843123	 0.1299536522	 0.11602
H	 3.149512798	-2.720177576	 1.7063063533	 0.082403
H	 0.5653908929	-2.5174049264	 1.3052180591	 0.06659
95.5517	163.4787	233.2109	291.8428	300.9455	439.3898	457.2358	551.6523	578.2628	635.0356	728.7182	769.0941	813.6079	840.3294	861.097	908.2932	914.6309	929.9768	968.6922	981.4604	1008.1469	1028.2329	1052.9903	1062.2977	1080.7197	1088.1673	1117.3786	1134.816	1151.3967	1185.0103	1192.5754	1222.1512	1259.5055	1282.0855	1302.9939	1331.1253	1337.912	1366.082	1374.3249	1394.5537	1414.3155	1483.1994	1487.4627	1495.3293	1499.6967	2945.5291	3028.763	3038.8544	3051.5287	3086.7387	3103.9109	3111.8752	3118.0781	3125.9305	3179.7211	3191.1701	3210.0018
CC1CC2C3CC3C2O1	C[C@H]1C[C@H]2[C@H]3C[C@H]3[C@H]2O1	
InChI=1S/C8H12O/c1-4-2-6-5-3-7(5)8(6)9-4/h4-8H,2-3H2,1H3	InChI=1S/C8H12O/c1-4-2-6-5-3-7(5)8(6)9-4/h4-8H,2-3H2,1H3/t4-,5+,6-,7+,8-/m0/s1
