16
gdb 32611	2.87655	1.26595	0.93664	3.0477	67.3	-0.196	0.048	0.244	1225.5782	0.123302	-475.077111	-475.068134	-475.06719	-475.111658	31.801	
C	-0.0397851554	 1.5808886768	 0.1667450947	-0.376605
C	-0.0650708325	 0.0714907076	-0.0836179133	-0.159159
N	-1.3971754227	-0.5004272854	 0.0026669286	-0.121436
C	-2.1600173543	-0.6978913876	 1.1790822334	-0.262822
C	-3.3226061153	-1.2157131749	 0.7695097729	 0.401492
O	-4.4150733121	-1.6030893883	 1.4381188468	-0.418767
O	-3.343647429	-1.352115863	-0.5913431664	-0.257005
C	-2.1138253417	-0.8924216677	-1.0901813258	 0.487742
O	-1.8339218854	-0.8851029211	-2.2597392627	-0.412577
H	 0.9860365278	 1.9552142864	 0.0971796618	 0.124358
H	-0.6495105629	 2.105356846	-0.5741406429	 0.139191
H	-0.4227597529	 1.8267670088	 1.1620367719	 0.123344
H	 0.2939642792	-0.1576003957	-1.0896870337	 0.15108
H	 0.5847649086	-0.4479338021	 0.6305608346	 0.1165
H	-1.7956244267	-0.4643446654	 2.1619035131	 0.147927
H	-5.0484436845	-1.9502467244	 0.7985592471	 0.316737
48.9291	82.8965	124.5327	200.1673	213.8279	286.6065	305.3574	344.8571	404.6678	575.3521	611.3647	625.0768	662.4901	684.5792	749.2072	796.2779	845.3471	944.3617	990.5951	1046.1573	1093.924	1114.2128	1166.0525	1231.677	1261.4782	1367.2126	1384.8705	1403.6964	1413.4175	1441.8688	1485.0258	1491.1948	1503.2955	1778.5345	1888.32	3037.7452	3042.3119	3104.0073	3119.305	3127.9913	3308.1375	3816.2295
CCN1C=C(O)OC1=O	CCn1cc(O)oc1=O	
InChI=1S/C5H7NO3/c1-2-6-3-4(7)9-5(6)8/h3,7H,2H2,1H3	InChI=1S/C5H7NO3/c1-2-6-3-4(7)9-5(6)8/h3,7H,2H2,1H3
