22
gdb 106701	2.40212	1.46272	1.18178	1.2488	86.48	-0.2253	0.0929	0.3182	1188.2246	0.194057	-367.162274	-367.153203	-367.152259	-367.195828	35.184	
C	 0.1472436519	 1.4848013158	 0.2289088967	-0.373472
C	-0.1186424931	 0.0088992864	-0.0998280073	-0.288382
C	 0.6193433954	-0.4665368969	-1.3217494334	 0.346261
C	 2.052287965	-0.9521247303	-1.3130480136	-0.393337
C	 0.9726741272	-1.9166084921	-1.7465180146	 0.296
C	 0.658085696	-3.2069280002	-1.0447325012	-0.494565
C	 0.5522840887	-1.5718247995	-3.1577726119	-0.123628
N	-0.86999721	-1.136074897	-3.1064162243	-0.343068
C	 0.2148062793	-0.1799978254	-2.7518667369	-0.129902
H	 1.2103900768	 1.6609694603	 0.4242003086	 0.114653
H	-0.148938869	 2.1338601501	-0.6022468872	 0.114923
H	-0.4156429068	 1.8002877787	 1.1130059261	 0.109418
H	 0.1631056786	-0.6111438125	 0.7605803664	 0.091899
H	-1.1926525218	-0.1485903329	-0.2567620933	 0.112885
H	 2.7761681832	-0.5686184754	-2.0281876737	 0.09866
H	 2.469518149	-1.1405316652	-0.3270955102	 0.107178
H	 0.7974848562	-3.1180569727	 0.0376970905	 0.114444
H	-0.3801899231	-3.5003718563	-1.2296443776	 0.133281
H	 1.3081592345	-4.019628476	-1.3912723454	 0.114773
H	 0.9900754469	-1.9182671574	-4.087678982	 0.086409
H	-1.1500185958	-0.9242715324	-4.0663198995	 0.218938
H	 0.3476049809	 0.737152001	-3.3150229461	 0.086632
73.6503	133.821	182.955	206.762	220.1462	253.7103	273.3778	395.2058	416.3882	523.9544	583.8061	603.1938	715.7569	764.3619	793.3233	810.7442	838.1241	850.2694	931.3267	941.5583	951.308	982.8658	997.0847	1028.0576	1048.3684	1073.3845	1082.8146	1094.0928	1129.1928	1137.8212	1189.9404	1213.0212	1258.7858	1280.3335	1321.6457	1334.2204	1359.7453	1374.7221	1402.6788	1410.2473	1422.5863	1480.7787	1488.6095	1498.0401	1498.878	1502.1224	1507.7458	3021.859	3024.1702	3031.4293	3057.1453	3082.9358	3099.8938	3102.5773	3103.2196	3104.7509	3164.56	3177.8149	3186.0224	3443.1354
CCC12CC1(C)C1NC21	CC[C@@]12C[C@]1(C)[C@H]1N[C@@H]21	
InChI=1S/C8H13N/c1-3-8-4-7(8,2)5-6(8)9-5/h5-6,9H,3-4H2,1-2H3	InChI=1S/C8H13N/c1-3-8-4-7(8,2)5-6(8)9-5/h5-6,9H,3-4H2,1-2H3/t5-,6+,7+,8-/m0/s1
