25
gdb 123263	11.26672	0.35933	0.3536	1.9719	88.87	-0.2507	0.0871	0.3378	3093.8987	0.226193	-426.608972	-426.596969	-426.596025	-426.647946	40.435	
C	 0.042065285	 1.3819515169	 0.0088850659	-0.226436
O	 0.0281149142	-0.0235751847	 0.0015089256	-0.229872
C	-1.2766430904	-0.5610363304	 0.0112553322	-0.050013
C	-1.1798966842	-2.0803053782	 0.0019571419	-0.196153
C	-2.5513299252	-2.7628369764	 0.011656975	-0.187576
C	-2.4544856511	-4.2916618234	 0.0022608973	-0.196153
C	-3.8176013313	-4.9694876053	 0.011909029	-0.050013
O	-3.6286505493	-6.3679014642	 0.0024035574	-0.229872
C	-4.8378576067	-7.0844994694	 0.0101478065	-0.226436
H	 1.0874379961	 1.7006353777	 0.0004352469	 0.125238
H	-0.4639682078	 1.8027620226	-0.8753130436	 0.10071
H	-0.4466502531	 1.7932432678	 0.9071924374	 0.10071
H	-1.8267376984	-0.2157680111	 0.9050103643	 0.080728
H	-1.8439936676	-0.2060155323	-0.8677684945	 0.080727
H	-0.6121208869	-2.3887442899	-0.8841290985	 0.106413
H	-0.5948946149	-2.3983943305	 0.8733040752	 0.106416
H	-3.1156537413	-2.437447726	 0.8967495114	 0.09532
H	-3.1329020345	-2.4277497393	-0.8585273409	 0.095318
H	-1.9031286636	-4.6285329824	-0.8838405904	 0.106413
H	-1.8858747156	-4.6382414991	 0.8735918856	 0.106416
H	-4.3919555423	-4.6663857986	 0.9056978634	 0.080729
H	-4.4093298831	-4.6566862321	-0.8670800963	 0.080727
H	-4.5896169447	-8.1488038161	 0.0019097871	 0.125238
H	-5.4385713813	-6.8675630336	 0.9085024249	 0.10071
H	-5.455782762	-6.857773412	-0.8740025729	 0.10071
40.4629	66.7508	68.5255	92.5726	118.572	145.9818	156.3043	173.4776	238.6581	239.4452	247.531	313.7734	428.3593	478.3553	522.7927	744.3265	781.9109	862.5206	965.5221	983.232	991.5611	1026.2396	1052.8312	1071.9899	1106.2492	1163.444	1168.789	1171.9023	1178.8964	1202.3836	1214.7963	1225.4493	1232.3538	1269.0254	1272.5143	1306.7404	1321.2348	1329.4572	1333.7522	1397.3242	1426.2951	1431.444	1481.7024	1481.9385	1485.1944	1485.2034	1489.0432	1493.19	1502.2392	1505.6248	1512.2739	1532.9025	1534.8198	2936.8746	2937.0894	2961.5199	2961.8858	2964.8963	2965.2978	3005.0519	3005.1119	3005.2875	3030.7104	3032.0587	3036.8714	3071.3861	3083.1265	3110.9919	3111.0702
COCCCCCOC	COCCCCCOC	
InChI=1S/C7H16O2/c1-8-6-4-3-5-7-9-2/h3-7H2,1-2H3	InChI=1S/C7H16O2/c1-8-6-4-3-5-7-9-2/h3-7H2,1-2H3
