18
gdb 124774	2.57961	1.39908	0.96705	0.7387	74.05	-0.2049	0.0329	0.2378	1204.103	0.148863	-435.284187	-435.275091	-435.274146	-435.3179	34.196	
C	 0.1451034631	 1.4366279843	-0.2709802732	-0.402845
C	 0.0466185832	-0.0339142372	 0.1506227764	-0.014915
O	 0.5912056793	-0.2307677019	 1.4542868207	-0.422098
C	-1.3602213864	-0.5671474538	 0.0657968718	 0.157157
C	-2.0840314104	-1.156567861	 1.08215932	-0.122918
N	-3.301362138	-1.4589816268	 0.5787277127	-0.200901
N	-3.4277789087	-1.1292253566	-0.7294909981	-0.303179
C	-2.2557625876	-0.5851585843	-1.0411660457	 0.272305
N	-2.0306942392	-0.0597276205	-2.3212368346	-0.590724
H	 1.1859914942	 1.7702904053	-0.2358625696	 0.116233
H	-0.251152294	 1.5865263399	-1.2787954643	 0.137246
H	-0.4489101222	 2.061729407	 0.4068117199	 0.107879
H	 0.7032215325	-0.6264260974	-0.5024300079	 0.09093
H	 0.160852879	 0.4044467092	 2.0378766744	 0.276221
H	-1.8082768126	-1.3821268773	 2.0994372384	 0.134855
H	-4.0753547349	-1.895557805	 1.0464481308	 0.27087
H	-2.7912783275	-0.3090452258	-2.9428150333	 0.249149
H	-1.1532432697	-0.367690248	-2.7228436882	 0.244735
57.6356	160.6443	175.3921	252.3136	263.7479	296.8113	305.1858	328.747	365.9161	407.9453	489.6331	526.5205	635.3972	658.5895	713.0148	757.0977	806.0878	824.1718	909.5899	947.4046	1033.6771	1061.8064	1069.6038	1096.5656	1121.2281	1196.3608	1238.2165	1302.3263	1315.811	1351.082	1404.1952	1414.4498	1431.9902	1485.3739	1491.5282	1497.1965	1529.6892	1616.6478	1649.8173	3001.0114	3029.8249	3101.3865	3127.4572	3269.9826	3522.0965	3613.3978	3694.1635	3794.6211
CC(O)C1=CNN=C1N	C[C@@H](O)c1c[nH]nc1N	
InChI=1S/C5H9N3O/c1-3(9)4-2-7-8-5(4)6/h2-3,9H,1H3,(H3,6,7,8)	InChI=1S/C5H9N3O/c1-3(9)4-2-7-8-5(4)6/h2-3,9H,1H3,(H3,6,7,8)/t3-/m1/s1
