17
gdb 31169	2.19176	1.63441	0.9639	2.2167	72.76	-0.1669	0.0447	0.2116	1179.1566	0.136649	-455.15551	-455.146358	-455.145413	-455.189217	34.205	
N	-0.0959793574	 1.3220858099	-0.1402298018	-0.602621
C	-0.1362270555	-0.058352743	-0.0709268206	 0.31344
C	-1.1896658306	-0.9312955063	-0.0462928443	 0.148627
C	-2.6337540638	-0.5666651177	-0.1141125274	-0.220296
O	-2.7991464678	 0.5016412381	-1.0590537285	-0.420958
C	-0.5933859051	-2.2393928248	 0.0898839056	 0.120468
N	-1.3164571259	-3.4357233775	 0.2348820268	-0.609526
C	 0.7522935785	-2.0553864715	 0.135060543	-0.126664
O	 1.0399142355	-0.6999146904	 0.0397043958	-0.185984
H	 0.7535895014	 1.6697061754	-0.5659405041	 0.248791
H	-0.9261844263	 1.67348495	-0.6026101024	 0.261204
H	-3.234536348	-1.4397262363	-0.414178107	 0.087502
H	-3.015045864	-0.2483200443	 0.8701127156	 0.103418
H	-3.6790249043	 0.8703025474	-0.9326359193	 0.287384
H	-2.0880317927	-3.498489018	-0.4193201217	 0.24029
H	-0.7299264957	-4.2527295047	 0.1180354305	 0.240715
H	 1.5992443218	-2.7088710962	 0.2438474197	 0.114212
66.133	153.506	195.8221	208.47	246.1304	287.6465	314.4647	336.1422	365.7787	415.6077	522.707	562.1959	592.5384	626.5143	693.3525	732.1304	755.0751	801.9021	803.5493	976.8366	1025.7574	1042.1958	1089.305	1153.6411	1159.5967	1221.9134	1251.8651	1274.7785	1301.3664	1390.6802	1443.3427	1511.5527	1515.9451	1608.4815	1633.0971	1661.7518	1695.8962	2957.2022	2982.2009	3293.4795	3519.5064	3530.2148	3608.5694	3633.9696	3819.2963
NC1=C(CO)C(N)=CO1	Nc1c(CO)c(N)co1	
InChI=1S/C5H8N2O2/c6-4-2-9-5(7)3(4)1-8/h2,8H,1,6-7H2	InChI=1S/C5H8N2O2/c6-4-2-9-5(7)3(4)1-8/h2,8H,1,6-7H2
