18
gdb 84584	2.32087	1.95518	1.24476	3.4113	76.44	-0.2437	0.0027	0.2464	1020.2964	0.149287	-401.984639	-401.976859	-401.975915	-402.016926	30.237	
C	-0.2947613186	 1.5697591225	-0.0332943221	-0.393179
C	-0.0113646633	 0.0600550751	-0.0224183811	-0.041938
C	 0.8419320062	-0.4184813114	-1.1809638889	-0.054038
C	 1.8586462959	-1.1998939641	-0.8174887457	-0.101719
C	 1.9206420341	-1.3814727022	 0.6770893734	-0.021448
N	 2.8691729556	-0.5052191176	 1.4002770281	-0.329642
C	 1.9201654087	 0.4258843986	 1.76436796	 0.426871
O	 2.0012633434	 1.5021001516	 2.2940000385	-0.365141
C	 0.7722102172	-0.4627022086	 1.2082354218	-0.206889
H	 0.6295507047	 2.1502794082	 0.0124314014	 0.138872
H	-0.8365670489	 1.848922441	-0.9429853661	 0.107336
H	-0.9063791612	 1.8576721131	 0.8266770783	 0.12561
H	-0.9806551144	-0.457198532	-0.0637815674	 0.087603
H	 0.6158049876	-0.1301107122	-2.2033326545	 0.099206
H	 2.5762595586	-1.6529597792	-1.4928786822	 0.097832
H	 1.9634056499	-2.4218626372	 1.0120872973	 0.087179
H	 3.865456322	-0.3811931735	 1.2809767244	 0.244044
H	 0.1385284925	-0.8759300019	 1.9934583047	 0.099442
78.5251	160.6678	213.9811	240.2549	320.1329	373.6017	421.3145	507.8517	543.3727	626.9007	696.5215	739.645	781.896	808.7468	853.5125	868.9179	928.9763	961.9544	980.5346	989.9084	1015.0373	1058.288	1100.2761	1123.1098	1150.3653	1173.2445	1181.2505	1246.1033	1264.5235	1314.8149	1337.4156	1343.0513	1366.6801	1377.0403	1418.0042	1493.5655	1496.8942	1678.1088	1881.2404	2995.1113	3041.098	3065.3948	3108.0821	3113.7911	3129.796	3171.7527	3199.8185	3588.1545
CC1C=CC2NC(=O)C12	C[C@H]1C=C[C@H]2NC(=O)[C@@H]12	
InChI=1S/C7H9NO/c1-4-2-3-5-6(4)7(9)8-5/h2-6H,1H3,(H,8,9)	InChI=1S/C7H9NO/c1-4-2-3-5-6(4)7(9)8-5/h2-6H,1H3,(H,8,9)/t4-,5+,6-/m0/s1
