16
gdb 42577	3.03116	2.10246	1.64213	3.138	71.06	-0.24	-0.0201	0.2198	833.639	0.127094	-400.706863	-400.700944	-400.7	-400.736959	24.938	
O	-0.00332136	 0.022911654	 0.1501456078	-0.339319
C	 0.0022471319	 1.2214741254	 0.0214855175	 0.443031
C	-1.197880574	 2.1078428415	-0.1044887251	-0.159242
C	-0.8488580277	 3.2658477383	-0.9640786227	-0.04756
C	 0.6684093679	 3.4526400984	-0.7237503052	-0.074287
C	 0.3069239947	 3.9181866141	 0.7058580478	 0.031968
C	 1.2445585576	 2.8809616282	 1.3332605903	-0.243335
C	 1.2125462663	 2.1385802246	-0.0500603233	-0.180406
N	-1.1423810705	 3.4986913524	 0.4821175972	-0.16393
H	-2.1905166879	 1.6757177514	-0.085968265	 0.117423
H	-1.4693403196	 3.6569628387	-1.7624279611	 0.107591
H	 1.3012221899	 3.9994898909	-1.4171057065	 0.083483
H	 0.3202413217	 4.9562295564	 1.038306459	 0.089955
H	 2.2278123174	 3.3151675306	 1.5364314761	 0.115685
H	 0.9053441784	 2.3272677253	 2.2129285734	 0.123066
H	 2.1158266138	 1.6508362397	-0.4105380102	 0.095876
149.6039	305.6439	416.5834	438.8121	549.3568	619.2239	683.4784	738.3614	746.2706	785.5319	798.3977	852.8285	864.1403	896.9071	914.2676	937.3661	955.7934	992.6663	1008.2064	1044.7103	1066.424	1101.941	1129.6467	1174.0903	1192.5278	1199.0366	1214.9051	1244.2601	1256.3311	1292.8095	1298.6927	1312.3325	1338.8315	1483.0882	1835.8375	3054.1516	3108.5475	3111.9476	3138.8058	3153.9003	3176.9961	3204.4953
O=C1C2C3C4C(CC14)N23	O=C1[C@@H]2[C@@H]3[C@H]4[C@H](C[C@@H]14)N23	
InChI=1S/C7H7NO/c9-7-2-1-3-4(2)5-6(7)8(3)5/h2-6H,1H2	InChI=1S/C7H7NO/c9-7-2-1-3-4(2)5-6(7)8(3)5/h2-6H,1H2/t2-,3+,4-,5+,6+,8?/m1/s1
