17
gdb 96947	4.23307	1.3972	1.24045	3.2886	74.34	-0.2413	0.0255	0.2668	1035.6811	0.137247	-417.955916	-417.948625	-417.947681	-417.988106	27.918	
C	-0.0519708018	 1.4216499502	-0.1563263787	-0.333424
N	-0.0157463483	-0.0298098864	-0.0864570532	-0.330491
C	-1.0787752866	-0.6616636214	 0.1066912139	 0.459212
O	-2.3450235324	-0.0999968115	 0.2633254561	-0.254059
C	-3.2011282968	-1.1625278783	 0.6336253441	 0.076907
C	-3.2871619501	-2.3967523308	-0.2598307756	-0.120311
C	-2.0220740003	-2.4662001984	-1.0967997264	-0.190995
N	-1.1892378251	-2.0952639318	 0.1332223543	-0.197189
C	-2.4008922477	-2.355007395	 0.9813918186	-0.07253
H	 0.7910062519	 1.8215841423	 0.4160525151	 0.126591
H	 0.090957981	 1.7387621816	-1.1964649249	 0.126682
H	-0.9818457315	 1.8665667903	 0.216018907	 0.12347
H	-4.0704294459	-0.8436929467	 1.1923286879	 0.121959
H	-4.2206986145	-2.9218732514	-0.4223045119	 0.100888
H	-1.7637955158	-3.4812034632	-1.4047875111	 0.127382
H	-1.9115208532	-1.7816598604	-1.9434362044	 0.125733
H	-2.3534582529	-2.9206939591	 1.9022104494	 0.110175
68.3467	107.0755	233.1287	247.8497	369.7625	466.8707	484.4988	665.5667	732.0693	745.5897	780.3969	811.7012	819.9485	825.4738	917.3779	953.7666	982.7789	1013.7447	1020.6529	1034.3878	1059.2318	1066.429	1087.3129	1121.8797	1132.1089	1137.5628	1170.3193	1208.8363	1227.8224	1305.2161	1313.2895	1399.7443	1439.4929	1491.4829	1499.8526	1510.2957	1822.6494	3017.0277	3054.7682	3077.0251	3093.8745	3116.82	3186.722	3202.5834	3221.2148
CN=C1OC2C3CN1C23	CN=C1O[C@H]2[C@H]3CN1[C@@H]23	
InChI=1S/C6H8N2O/c1-7-6-8-2-3-4(8)5(3)9-6/h3-5H,2H2,1H3	InChI=1S/C6H8N2O/c1-7-6-8-2-3-4(8)5(3)9-6/h3-5H,2H2,1H3/t3-,4+,5-/m0/s1
