17
gdb 36576	2.92907	0.95959	0.7931	4.3334	80.07	-0.2412	0.0154	0.2566	1422.07	0.134207	-380.816003	-380.80672	-380.805776	-380.850625	34.027	
C	 0.2660953917	-1.2619756685	-0.0776524803	-0.47912
C	 0.1539032275	-0.0647344609	-0.0735424321	 0.350009
C	-0.0079410952	 1.367981538	-0.045527654	 0.152038
C	 0.3121646405	 2.0850149052	 1.2706034145	-0.298569
C	 1.2272553762	 2.2276797865	 0.0836296286	-0.317268
N	-1.0692210211	 1.8482268366	-0.9051694715	-0.349749
C	-2.4033512428	 1.5042435123	-0.4160550776	-0.271781
C	-3.4371343095	 2.0294612493	-1.3095941156	 0.251671
N	-4.254888655	 2.4670925466	-1.9978500482	-0.299031
H	 0.3765831996	-2.3181967343	-0.0952362333	 0.203278
H	-0.3192769935	 2.9290563292	 1.528505261	 0.11933
H	 0.6445542636	 1.4890514572	 2.1122090895	 0.13364
H	 2.184976981	 1.7224479404	 0.1021941871	 0.139485
H	 1.2288916366	 3.1687024663	-0.457431748	 0.1258
H	-0.9901300861	 2.8498865077	-1.0389402248	 0.234666
H	-2.4864326783	 0.4117742549	-0.3841393959	 0.171958
H	-2.6143948351	 1.8672112934	 0.6051177204	 0.133642
53.0519	99.9676	125.52	165.2904	212.6201	260.6424	347.1026	393.8067	408.8704	514.3674	547.7928	575.5629	598.4691	675.1373	704.2444	731.2653	781.38	878.2119	920.8546	937.2267	985.2915	992.2068	1017.6697	1052.3269	1086.483	1110.463	1192.2135	1233.4365	1273.4325	1321.6045	1375.0905	1459.3869	1489.063	1491.3576	1496.2438	2237.2507	2368.9811	2955.9442	3065.265	3133.8567	3138.2445	3222.0268	3236.0711	3500.6527	3544.0694
C#CC1(CC1)NCC#N	C#CC1(CC1)NCC#N	
InChI=1S/C7H8N2/c1-2-7(3-4-7)9-6-5-8/h1,9H,3-4,6H2	InChI=1S/C7H8N2/c1-2-7(3-4-7)9-6-5-8/h1,9H,3-4,6H2
