19
gdb 28449	2.9931	1.38276	0.96267	0.5809	87.39	-0.2355	-0.0347	0.2008	1250.1837	0.158725	-382.146857	-382.137652	-382.136708	-382.18103	33.451	
C	-0.0477009268	 1.502418743	 0.0366405198	-0.472195
C	-0.0277867341	-0.0007902565	-0.0068581161	 0.305236
C	-0.0976880896	-0.714076703	-1.2005802845	-0.076278
N	-0.0803741587	-2.0477075445	-1.241233022	-0.293727
C	 0.0079066738	-2.6973545427	-0.0800030772	 0.276648
C	 0.0272537355	-4.2014696422	-0.1264396214	-0.486909
C	 0.07962046	-1.9861973543	 1.1377508693	 0.271875
C	 0.1798838669	-2.6960446642	 2.46152075	-0.486424
N	 0.0610600915	-0.6538124486	 1.1606884457	-0.351281
H	 0.8603500884	 1.884897897	 0.513791893	 0.14016
H	-0.1211508629	 1.9308197396	-0.9661144436	 0.122212
H	-0.8954340715	 1.8582529956	 0.630999084	 0.140158
H	-0.1699159739	-0.1966558365	-2.1544309256	 0.104034
H	 0.9449750663	-4.6066749019	 0.3159489638	 0.130622
H	-0.8102524017	-4.6328649333	 0.434452206	 0.130627
H	-0.0378738876	-4.5316270564	-1.1640219939	 0.141388
H	 1.0742550676	-3.328225531	 2.5106633858	 0.131713
H	 0.2233191619	-1.9604160863	 3.2656201718	 0.140426
H	-0.6804595653	-3.3544986539	 2.629515415	 0.131716
66.299	112.6024	124.0557	156.4941	216.5994	279.8416	295.8319	340.9924	466.6447	468.4897	498.9315	577.8178	580.6671	716.3422	756.8955	786.0253	923.6179	959.6098	988.1413	1016.5166	1036.2885	1046.6649	1060.6241	1076.325	1180.2079	1240.5907	1289.1976	1300.6449	1390.1616	1405.7716	1408.855	1418.2191	1457.3294	1474.3288	1475.3171	1478.0631	1489.4915	1491.7961	1499.5833	1588.6437	1610.1641	3028.9474	3029.8352	3040.0898	3077.755	3079.8615	3100.2429	3123.5354	3143.6377	3144.5868	3153.0702
CC1=CN=C(C)C(C)=N1	Cc1cnc(C)c(C)n1	
InChI=1S/C7H10N2/c1-5-4-8-6(2)7(3)9-5/h4H,1-3H3	InChI=1S/C7H10N2/c1-5-4-8-6(2)7(3)9-5/h4H,1-3H3
