13
gdb 127782	3.56832	1.70935	1.16424	1.0499	67.31	-0.2502	-0.0665	0.1836	959.8304	0.091009	-448.869873	-448.863125	-448.862181	-448.901391	24.767	
C	 0.0498590298	 1.4254915682	-0.0103054901	-0.343045
N	 0.0153197441	-0.0187472362	 0.0555372607	-0.125395
N	-0.1186667113	-0.7766659876	-1.097038023	-0.110106
N	-0.1292006418	-2.0316827783	-0.8286540939	-0.283089
C	-0.0000811707	-2.1572948292	 0.5415150302	 0.156544
C	 0.0801080897	-2.9866142452	 1.6243970172	-0.005128
O	 0.2091346844	-2.2319707264	 2.7264103531	-0.160056
N	 0.2204171694	-0.8487380943	 2.4216143646	-0.283379
C	 0.0930318107	-0.8668868584	 1.1128079471	 0.495422
H	 0.9951193388	 1.8062021647	 0.3870484301	 0.156421
H	-0.0446559629	 1.7042749603	-1.0599442521	 0.170678
H	-0.7779867074	 1.8564661236	 0.5600403364	 0.15643
H	 0.0642470771	-4.052577671	 1.7829946797	 0.174703
97.8275	143.6602	255.946	293.0792	354.0092	537.4848	581.3334	628.2834	656.4115	708.2234	775.6088	828.0404	838.8389	854.0537	961.7989	973.1495	1138.14	1155.3222	1167.0463	1228.9836	1284.5108	1336.7127	1389.7645	1446.2345	1480.6272	1482.8808	1510.4577	1558.532	1678.5661	3047.8892	3112.7525	3161.7355	3280.4198
CN1N=NC2=CON=C12	Cn1nnc2conc12	
InChI=1S/C4H4N4O/c1-8-4-3(5-7-8)2-9-6-4/h2H,1H3	InChI=1S/C4H4N4O/c1-8-4-3(5-7-8)2-9-6-4/h2H,1H3
