23
gdb 107475	2.0851	1.63628	1.22455	0.2969	89.57	-0.2353	0.0873	0.3226	1175.9117	0.205575	-351.118143	-351.1091	-351.108156	-351.15154	35.673	
C	 0.0220475556	 1.5884422535	 0.2182930246	-0.375175
C	 0.0169657582	 0.0648034966	 0.0273133749	-0.304929
C	 0.681188726	-0.4039518778	-1.2428077718	 0.3071
C	 1.608769699	-1.5911542779	-1.3104489471	-0.336878
C	 2.1317372016	-0.2400724462	-1.7224035275	-0.098827
C	 1.6565582486	 0.1102810416	-3.1387575243	-0.313729
C	 0.2048410492	-0.1183632883	-2.665910733	 0.339377
C	-0.9028292621	-0.809739408	-3.4099929463	-0.327016
C	-0.9975042773	 0.6672758304	-3.0916396233	-0.343715
H	 1.0475645901	 1.969745479	 0.2596700001	 0.114777
H	-0.4862780968	 2.1016459586	-0.6028520744	 0.122641
H	-0.4793223893	 1.868073237	 1.150434524	 0.107982
H	 0.5168067346	-0.4044088944	 0.883481753	 0.096598
H	-1.0175660086	-0.3066545206	 0.0506951942	 0.095742
H	 1.9682392597	-1.9535786944	-0.3516620057	 0.102626
H	 1.4543804554	-2.3710095588	-2.0533628487	 0.102148
H	 2.9637188547	 0.2271466332	-1.2087550596	 0.081996
H	 1.8453753794	 1.1548829769	-3.4032522035	 0.101147
H	 2.02387294	-0.5322784122	-3.9475771121	 0.091114
H	-0.7243485113	-1.0999242975	-4.4406329546	 0.108447
H	-1.5464172384	-1.4900760354	-2.8605107487	 0.108483
H	-1.7133635942	 0.9721629551	-2.3349614599	 0.111552
H	-0.8833891143	 1.3792434096	-3.9037497405	 0.108539
96.4628	120.6958	163.9227	184.3513	237.6622	255.8193	362.212	387.5491	419.6731	505.4053	575.3164	608.9023	746.667	775.1404	802.3047	840.3981	851.2778	879.51	900.9706	933.9195	939.971	988.3254	993.2041	1009.8714	1028.1696	1048.4617	1057.4122	1076.863	1084.1384	1102.8384	1114.523	1174.3087	1184.4969	1190.9345	1241.6901	1263.5629	1270.3873	1315.1236	1343.2618	1388.9882	1399.2692	1410.7547	1462.4587	1475.5985	1482.2132	1495.7717	1497.4196	1505.0973	1508.3952	3006.0543	3028.5646	3038.4216	3046.7156	3085.1791	3099.6633	3103.1132	3115.1464	3118.6297	3122.3142	3174.9597	3190.8346	3195.2765	3210.6605
CCC12CC1CC21CC1	CC[C@]12C[C@H]1CC12CC1	
InChI=1S/C9H14/c1-2-9-6-7(9)5-8(9)3-4-8/h7H,2-6H2,1H3	InChI=1S/C9H14/c1-2-9-6-7(9)5-8(9)3-4-8/h7H,2-6H2,1H3/t7-,9+/m1/s1
