17
gdb 33040	4.532	0.83294	0.73693	4.9383	71.24	-0.2393	0.0133	0.2526	1529.9426	0.135456	-459.024059	-459.015505	-459.014561	-459.058217	30.756	
C	 0.0968233266	 1.5331670955	 0.1262101816	-0.384382
C	 0.0607775895	 0.0058400617	 0.0496603554	-0.166069
C	 0.5946401935	-0.5250063615	-1.2955658589	-0.306871
C	 0.6009987107	-2.0050006509	-1.38662197	 0.330182
C	-0.0210913574	-2.8962036251	-2.1555870336	-0.147667
O	 0.3614691787	-4.1731610183	-1.7833647921	-0.209403
C	 1.2460842444	-4.0448037959	-0.7495521797	 0.499757
O	 1.7845297014	-4.9332987968	-0.1733551339	-0.37071
O	 1.4029534714	-2.7084422031	-0.4946553932	-0.246503
H	 1.1186138894	 1.9120583228	 0.0141837403	 0.120774
H	-0.5133559973	 1.9866196112	-0.662897171	 0.116799
H	-0.2857549443	 1.8873775942	 1.0877376402	 0.121711
H	 0.6562652265	-0.4251410585	 0.8616723247	 0.124756
H	-0.9647347641	-0.355074329	 0.1913853575	 0.106755
H	-0.0122128894	-0.1386686356	-2.1221532008	 0.119324
H	 1.6155142415	-0.1514058684	-1.4520288312	 0.127885
H	-0.721005001	-2.8086309724	-2.9671459553	 0.16366
70.3076	85.0538	98.2315	216.6038	242.4915	295.651	314.5504	386.7776	546.2558	614.7533	697.9267	741.5761	751.0207	783.5547	785.7318	871.1474	897.3112	926.6194	966.0701	1043.6698	1067.8432	1099.6551	1112.5375	1146.4023	1246.0561	1252.2229	1312.6655	1322.2279	1351.6854	1387.9314	1414.2253	1469.8447	1492.928	1499.2056	1509.7078	1739.7612	1939.5917	3020.3009	3031.6623	3040.8827	3064.5326	3082.1483	3103.3822	3110.0436	3305.3521
CCCC1=COC(=O)O1	CCCc1coc(=O)o1	
InChI=1S/C6H8O3/c1-2-3-5-4-8-6(7)9-5/h4H,2-3H2,1H3	InChI=1S/C6H8O3/c1-2-3-5-4-8-6(7)9-5/h4H,2-3H2,1H3
