20
gdb 117197	2.96062	1.00277	0.88139	2.0807	76.96	-0.2431	0.0223	0.2654	1426.1116	0.169099	-440.308927	-440.29881	-440.297865	-440.345004	36.123	
C	-0.0951281921	 1.3331955026	-0.1363708142	-0.372378
C	-0.4064804602	-0.1647215358	-0.1740105879	-0.145336
N	 0.1723075755	-0.8323427009	-1.3271664547	-0.317332
C	 1.2332027976	-1.6736575507	-1.2386193876	 0.338846
O	 1.7893401055	-1.9948022932	-0.2011499281	-0.391459
C	 1.6926697617	-2.2337815088	-2.5779265429	 0.30691
C	 3.1796957103	-2.4452059657	-2.7065732527	-0.463396
C	 0.7332783577	-3.0562586553	-3.3384252332	-0.206314
O	 1.0073858848	-1.7076955599	-3.7293563879	-0.282267
H	 0.9840016805	 1.5024508278	-0.0807094281	 0.133073
H	-0.4746634239	 1.8409132519	-1.0297319173	 0.114454
H	-0.5628056899	 1.7978333722	 0.7374116718	 0.119952
H	 0.0054293699	-0.6650144835	 0.7052711624	 0.147383
H	-1.4916771014	-0.3251030993	-0.1734534729	 0.105525
H	-0.1188853091	-0.5806424914	-2.260726673	 0.258386
H	 3.5341749866	-3.0488460025	-1.8685673866	 0.154458
H	 3.41918469	-2.9435373471	-3.648699539	 0.120428
H	 3.7067118224	-1.4864322105	-2.6755709149	 0.132257
H	 1.1118175095	-3.8213628714	-4.0143939296	 0.124179
H	-0.2636647455	-3.2324800983	-2.9387864137	 0.122631
35.4903	72.7452	84.7934	170.4299	178.4946	238.6745	284.2277	310.6797	332.3565	373.1363	418.1593	514.2102	541.2048	623.7443	756.8343	762.5687	801.2262	858.4673	895.1006	922.4154	937.3992	1016.5774	1071.0161	1101.4247	1118.0674	1136.5554	1166.679	1177.5523	1209.5227	1298.3091	1330.1559	1371.6312	1394.9525	1409.2555	1411.7434	1477.7217	1485.5046	1492.2201	1495.3622	1503.0635	1520.3763	1555.3713	1773.9442	3029.9915	3035.7794	3050.1903	3088.446	3098.0674	3116.1474	3119.4168	3125.0947	3144.7194	3180.114	3608.3951
CCNC(=O)C1(C)CO1	CCNC(=O)[C@@]1(C)CO1	
InChI=1S/C6H11NO2/c1-3-7-5(8)6(2)4-9-6/h3-4H2,1-2H3,(H,7,8)	InChI=1S/C6H11NO2/c1-3-7-5(8)6(2)4-9-6/h3-4H2,1-2H3,(H,7,8)/t6-/m1/s1
