18
gdb 72689	2.27801	1.5516	1.46535	3.0237	72.44	-0.2308	-0.0428	0.188	1025.1718	0.146083	-439.047836	-439.039208	-439.038263	-439.081212	31.962	
C	-0.0089220208	 1.5603491864	 0.0894073327	-0.463223
C	 0.0649757968	 0.0546151002	 0.0466773777	 0.228123
C	-1.249241375	-0.7632766143	-0.0096428189	-0.118743
O	-0.844645496	-1.6066961084	 1.0946603518	-0.33544
C	 0.4067800583	-0.9224535003	 1.2426270364	 0.291689
C	 1.5315898089	-1.4857391526	 0.3492984642	-0.219362
N	 1.2022976096	-0.4991669231	-0.7162105913	-0.355187
C	 0.6978783413	-0.4890723181	 2.6445807509	 0.081189
O	 1.767394575	-0.0576546564	 2.998817397	-0.254127
H	 0.951916593	 1.9805584821	 0.3961830529	 0.144886
H	-0.241057863	 1.9505939753	-0.9090481911	 0.124799
H	-0.7864264889	 1.9068819646	 0.7774559958	 0.118949
H	-2.1599391266	-0.2022055221	 0.2356641415	 0.107613
H	-1.413765624	-1.3318562994	-0.9338557219	 0.099574
H	 2.5370256616	-1.3362611186	 0.7536967496	 0.130705
H	 1.3772127288	-2.5414130481	 0.103948257	 0.111236
H	 0.9613461755	-0.8936259452	-1.6196748279	 0.218105
H	-0.1692763545	-0.5756407421	 3.3357126535	 0.089213
74.1934	112.3144	177.9893	198.0866	237.8148	274.3872	351.4158	383.9617	454.0839	501.6075	612.0471	649.6588	725.2459	768.6022	849.6802	882.5108	941.8374	958.2742	983.5009	1004.9287	1016.4538	1092.3375	1119.6682	1147.6089	1155.1788	1191.5177	1214.0853	1243.5331	1274.3609	1319.9936	1350.4862	1370.7445	1401.2854	1414.4398	1481.9971	1488.1471	1494.9018	1517.4698	1813.7542	2896.3803	3007.8248	3031.1884	3040.1427	3056.2168	3096.6294	3097.2854	3126.8831	3520.3655
CC12COC1(CN2)C=O	C[C@]12CO[C@]1(CN2)C=O	
InChI=1S/C6H9NO2/c1-5-4-9-6(5,3-8)2-7-5/h3,7H,2,4H2,1H3	InChI=1S/C6H9NO2/c1-5-4-9-6(5,3-8)2-7-5/h3,7H,2,4H2,1H3/t5-,6+/m0/s1
