17
gdb 28048	5.51853	0.92426	0.79558	3.1918	80.2	-0.1916	0.0193	0.2109	1409.0017	0.136716	-418.043914	-418.035271	-418.034326	-418.07745	31.797	
C	-0.0065211626	 1.5357940993	 0.0248922279	-0.48857
C	-0.0761300004	 0.0508983332	 0.0191169433	 0.402367
C	-1.1020874803	-0.8308212604	-0.1229519083	-0.414749
C	-0.523133981	-2.1438436016	-0.0379592373	 0.328006
N	-1.2514636889	-3.3292449791	-0.1373102434	-0.391182
C	-0.7504512187	-4.6000292105	-0.0633457554	 0.075502
N	 0.4893275425	-4.8501535655	 0.1118745476	-0.459942
C	 0.8155774579	-1.9637358887	 0.1500109486	-0.093823
O	 1.0907664334	-0.6223694472	 0.1851725252	-0.189005
H	 0.6406451941	 1.9099929097	-0.7765128791	 0.138899
H	-1.0043350802	 1.9569133252	-0.1165274043	 0.131707
H	 0.3948791142	 1.9147563858	 0.9716610377	 0.138899
H	-2.143164163	-0.58522967	-0.2701534261	 0.097939
H	-2.2424634095	-3.2362003181	-0.2770811858	 0.252318
H	-1.5423141234	-5.3506105705	-0.1728054566	 0.086741
H	 0.6428588822	-5.8550494068	 0.1362048601	 0.220867
H	 1.6361340038	-2.6436140747	 0.267337386	 0.164025
69.4305	115.762	171.5076	179.7719	239.5316	275.8814	365.9888	403.5987	442.7995	548.7784	624.4979	661.3783	704.0595	729.7347	776.456	797.2907	826.0902	945.9569	993.4407	1023.3115	1030.2945	1063.5603	1104.5053	1151.7781	1185.9805	1213.7911	1268.9416	1302.213	1388.5648	1412.9026	1415.9523	1472.375	1491.1763	1562.2767	1603.9629	1669.814	1720.3194	3030.234	3045.8558	3080.486	3128.0832	3241.6366	3342.9677	3519.7847	3668.8793
CC1=CC(NC=N)=CO1	Cc1cc(NC=N)co1	
InChI=1S/C6H8N2O/c1-5-2-6(3-9-5)8-4-7/h2-4H,1H3,(H2,7,8)	InChI=1S/C6H8N2O/c1-5-2-6(3-9-5)8-4-7/h2-4H,1H3,(H2,7,8)
