18
gdb 85064	2.46195	1.59832	1.12688	3.7276	68.07	-0.2693	0.0047	0.274	1100.5601	0.14849	-476.268352	-476.25982	-476.258876	-476.301287	32.537	
C	-0.3460256109	 1.5126632348	-0.0018201705	-0.398181
C	 0.000070018	 0.0403351563	 0.0799789949	 0.109944
O	 0.7076704987	-0.3440765721	-1.1355476048	-0.232281
C	 1.6861106054	-1.2227959357	-0.8620034402	 0.457775
O	 2.4717875341	-1.6307573258	-1.6718478514	-0.357732
C	 1.6424428777	-1.5985523154	 0.6230607155	-0.1725
N	 2.9908219728	-1.8012346998	 1.1250716914	-0.534239
C	 0.9397376672	-0.3676483106	 1.2322274365	 0.104468
O	 1.8887922892	 0.6333403731	 1.4884819782	-0.436812
H	 0.5663449649	 2.1102266533	-0.0182733398	 0.152829
H	-0.9326791237	 1.7151325222	-0.9012530152	 0.128807
H	-0.9371187577	 1.8036042281	 0.8720073094	 0.122999
H	-0.910600196	-0.5710621212	 0.1264610924	 0.08843
H	 0.9923640054	-2.4822393576	 0.7130756132	 0.102262
H	 3.0273341771	-2.5252975971	 1.8322057749	 0.243678
H	 3.5871106074	-2.0802796613	 0.3498422275	 0.259023
H	 0.3573766451	-0.6072183708	 2.1340639646	 0.068714
H	 2.7275991553	 0.1514001995	 1.6078854932	 0.292817
98.96	134.9556	222.61	241.2742	275.5079	296.5109	307.1075	346.689	482.3706	522.4027	564.7183	622.8804	646.0533	715.1023	773.6403	825.2451	871.1791	922.7339	924.9473	970.1325	1019.1265	1072.4339	1129.4892	1154.3451	1160.8197	1188.899	1216.428	1254.6335	1321.8385	1354.1795	1376.0449	1383.6508	1395.2182	1414.8446	1440.7834	1484.8465	1495.9464	1647.5705	1870.011	2985.192	2997.9694	3026.6105	3053.8806	3123.264	3153.7288	3496.4213	3592.7054	3603.7785
CC1OC(=O)C(N)C1O	C[C@H]1OC(=O)[C@@H](N)[C@H]1O	
InChI=1S/C5H9NO3/c1-2-4(7)3(6)5(8)9-2/h2-4,7H,6H2,1H3	InChI=1S/C5H9NO3/c1-2-4(7)3(6)5(8)9-2/h2-4,7H,6H2,1H3/t2-,3+,4+/m1/s1
