18
gdb 89767	2.34612	1.5191	1.06401	5.2441	76.48	-0.2786	0.0262	0.3048	1157.4362	0.146778	-401.933577	-401.924913	-401.923969	-401.967193	32.174	
C	-0.7312024346	 1.2161777817	-0.0484020322	-0.416924
C	 0.1732325053	-0.0031271189	-0.007935533	 0.029212
C	 1.5454237554	 0.0578664651	-0.7461785883	-0.335055
C	 2.1702835027	-0.6518515467	 0.4499788244	 0.475275
C	 3.0180426964	-1.8430493978	 0.4992077246	-0.264902
O	 3.5033181042	-0.5425577846	 0.8725949757	-0.254421
C	 0.9320593674	-0.3591607315	 1.3341269165	-0.306554
C	 1.1130383942	 0.758410918	 2.2472170145	 0.303791
N	 1.2439678478	 1.6552262358	 2.9652547606	-0.333347
H	-0.207011501	 2.1120544675	 0.2970833632	 0.143965
H	-1.076897244	 1.3969896145	-1.0715001474	 0.121998
H	-1.6135118169	 1.0797777474	 0.5851796144	 0.127394
H	-0.3781937085	-0.8952705363	-0.3179041075	 0.091894
H	 1.6209377758	-0.4264647431	-1.7218093883	 0.113688
H	 1.9142042179	 1.085582135	-0.8266336193	 0.13079
H	 2.9135977708	-2.5528760364	 1.3186380816	 0.1245
H	 3.4332414697	-2.2474757494	-0.4227114501	 0.12474
H	 0.5337239474	-1.2118341605	 1.8900774305	 0.123956
57.0566	122.7407	154.2192	220.4008	254.5835	318.2246	346.7343	385.5927	412.8066	486.2141	555.0412	629.7787	746.5867	805.8848	867.5564	875.601	890.4227	940.4638	953.2971	989.8498	1084.5657	1104.7307	1110.5239	1129.239	1143.5944	1173.7961	1191.4935	1216.7197	1252.5538	1272.4951	1317.78	1364.5804	1418.2054	1436.315	1482.4393	1494.4727	1496.0948	1535.9467	2353.3037	3037.1352	3057.1193	3064.3977	3080.8324	3083.7782	3104.2116	3114.9579	3120.1488	3173.4384
CC1CC2(CO2)C1C#N	C[C@H]1C[C@]2(CO2)[C@H]1C#N	
InChI=1S/C7H9NO/c1-5-2-7(4-9-7)6(5)3-8/h5-6H,2,4H2,1H3	InChI=1S/C7H9NO/c1-5-2-7(4-9-7)6(5)3-8/h5-6H,2,4H2,1H3/t5-,6-,7-/m0/s1
