19
gdb 96468	2.20576	1.86719	1.29811	2.7225	70.4	-0.2448	0.0564	0.3012	1022.6814	0.160552	-460.13005	-460.122148	-460.121204	-460.162059	31.233	
O	 0.1246478652	 1.3403225901	-0.3355177236	-0.412033
C	 0.0240686721	-0.0456940271	-0.0461438946	 0.051205
C	 0.7571731663	-0.4299307401	 1.2563811489	-0.248785
C	 0.4844249704	 0.4999080376	 2.4503124984	-0.056387
O	-0.8379992962	 0.4872402455	 2.955992048	-0.250021
C	-1.803375103	 1.0966240815	 2.1075396258	-0.121596
C	-2.3396051761	 0.1038575154	 1.091362483	 0.038601
O	-2.4516644816	 0.5295509234	-0.2750919592	-0.240393
C	-1.4550003069	-0.4284659804	 0.049332619	 0.072007
H	 1.0597373478	 1.5511393651	-0.4272964233	 0.285137
H	 0.4582041923	-0.6286986252	-0.8735037513	 0.069751
H	 0.4966979417	-1.4615720673	 1.5232727806	 0.110861
H	 1.8416457197	-0.4182800223	 1.0753599448	 0.08997
H	 1.1178464285	 0.1879173437	 3.2870381549	 0.10523
H	 0.7707678283	 1.5269597219	 2.1783131192	 0.090304
H	-2.6079156456	 1.444043442	 2.7632104014	 0.102939
H	-1.3822093042	 1.9567078237	 1.5747714559	 0.128327
H	-3.1639280497	-0.5255984173	 1.4279060237	 0.092057
H	-1.660654339	-1.4352635502	-0.3180590316	 0.092826
136.1516	202.09	222.9969	279.016	295.3299	329.0983	386.0968	425.8966	453.7824	517.5598	598.222	725.9539	754.8243	823.0729	837.8781	901.2719	935.5398	969.2555	1003.9151	1021.1022	1059.9167	1072.0451	1101.4519	1136.6699	1161.0166	1163.938	1226.2156	1236.2968	1280.0208	1306.2532	1316.255	1351.8086	1369.9029	1392.9265	1406.6033	1422.8498	1448.6258	1467.6669	1483.0446	1492.873	1501.63	2967.8971	2994.8066	3011.3329	3039.4926	3061.3132	3076.0205	3087.3256	3092.7743	3112.1354	3814.1008
OC1CCOCC2OC12	O[C@H]1CCOC[C@H]2O[C@@H]12	
InChI=1S/C6H10O3/c7-4-1-2-8-3-5-6(4)9-5/h4-7H,1-3H2	InChI=1S/C6H10O3/c7-4-1-2-8-3-5-6(4)9-5/h4-7H,1-3H2/t4-,5+,6-/m0/s1
