19
gdb 101202	3.80767	1.04586	0.96545	3.5583	70.92	-0.2468	0.0575	0.3043	1258.8574	0.159695	-460.101573	-460.09326	-460.092316	-460.13477	32.078	
O	 0.238317685	 1.2911572466	-0.1952185477	-0.427258
C	 0.0900230572	-0.1041566197	-0.0705165161	-0.05133
C	-1.387044307	-0.4705683361	 0.1479182119	 0.054077
O	-2.1619973235	 0.1860214957	-0.8542196433	-0.451357
C	-1.5688030846	-1.9801874607	 0.2019227623	-0.043307
C	-2.8552121879	-2.7890536831	 0.1521938858	-0.165069
C	-3.802355544	-2.2679882357	-0.9235178651	-0.100269
O	-2.727783601	-2.263948245	-1.9182659296	-0.30488
C	-1.8355068707	-2.8783435487	-0.9657922642	 0.062962
H	-0.4970206622	 1.5676334793	-0.7592774204	 0.286673
H	 0.459875466	-0.6358756244	-0.9656822582	 0.076929
H	 0.698356811	-0.4272930485	 0.7823824019	 0.098337
H	-1.7075164226	-0.0314174831	 1.1019669713	 0.092563
H	-2.2164860902	-0.4164634017	-1.6123429149	 0.297225
H	-0.8666625226	-2.4431689112	 0.8954909075	 0.103235
H	-3.1156583995	-3.5090924706	 0.9160258593	 0.105562
H	-4.5634437672	-2.9996310145	-1.2125972103	 0.118434
H	-4.245944511	-1.2787317541	-0.7929862912	 0.133676
H	-1.1987092351	-3.6756257845	-1.3316734989	 0.113799
67.2598	124.7724	163.2581	245.3931	286.3111	337.6153	409.7292	426.3404	499.7305	531.731	642.1785	737.0526	765.6081	794.1273	801.4099	858.7966	901.9023	948.1741	975.6965	1004.0428	1012.5488	1058.3117	1067.8561	1083.2084	1094.3167	1101.7833	1124.1022	1175.5394	1184.7563	1219.8432	1261.6344	1292.6766	1322.5906	1331.7564	1354.2425	1385.423	1438.9105	1446.2614	1467.8415	1505.4318	1509.9788	2944.3015	3023.7919	3051.0866	3058.6711	3117.9582	3118.815	3179.4127	3206.2555	3684.7493	3752.8123
OCC(O)C1C2COC12	OC[C@@H](O)[C@H]1[C@H]2CO[C@@H]12	
InChI=1S/C6H10O3/c7-1-4(8)5-3-2-9-6(3)5/h3-8H,1-2H2	InChI=1S/C6H10O3/c7-1-4(8)5-3-2-9-6(3)5/h3-8H,1-2H2/t3-,4-,5-,6-/m1/s1
