21
gdb 72131	2.11068	1.96259	1.71498	1.7741	81.62	-0.2334	0.0852	0.3186	980.1496	0.183092	-387.061847	-387.053925	-387.052981	-387.093521	32.531	
C	 0.0111248731	 1.5557491177	-0.0572743055	-0.512906
C	-0.0050732375	 0.0496277642	-0.0663410394	 0.286185
C	 0.4678729328	-0.8234144857	-1.2405237606	-0.299579
C	-0.2378477761	-1.9395702949	-0.4432904032	 0.041114
O	 0.618504291	-2.0723016979	 0.701852394	-0.272003
C	 0.3755869631	-0.7666568385	 1.2482842951	 0.041115
C	-1.1204678777	-0.848676893	 1.6150573109	-0.299579
C	-1.2961458601	-0.8729750806	 0.0875991861	 0.286187
C	-2.6082856387	-0.6833551908	-0.6272996773	-0.512906
H	 1.0397124664	 1.9351802161	-0.0791872235	 0.122127
H	-0.5095966094	 1.9651117329	-0.9300700357	 0.118345
H	-0.4690203077	 1.9654187436	 0.8384457741	 0.117009
H	-0.0533328817	-0.5531546189	-2.163350664	 0.095988
H	 1.5367376665	-0.9574890961	-1.4277860682	 0.095744
H	-0.5045391641	-2.9134882171	-0.8524771984	 0.071973
H	 1.1639522839	-0.4753499085	 1.9416057518	 0.071973
H	-1.4300231163	-1.7081655931	 2.2158654391	 0.095744
H	-1.5148853365	 0.0791377437	 2.0392024294	 0.095987
H	-3.1056583944	 0.2396353884	-0.3091635276	 0.118346
H	-2.479359413	-0.6336418383	-1.7143090338	 0.117009
H	-3.2911665937	-1.5151371733	-0.4169363734	 0.122127
175.7117	203.769	205.7049	258.5434	290.9741	312.5681	446.0952	463.1842	529.3871	580.6144	608.943	664.3123	717.3653	813.498	839.3877	881.6239	911.3684	929.4021	933.826	948.8942	969.3108	991.7802	1008.9606	1070.1002	1088.6281	1142.531	1142.9378	1170.6361	1186.639	1200.9959	1216.8658	1229.2748	1259.7152	1262.9711	1295.3463	1323.1515	1351.6435	1411.4442	1416.172	1480.9632	1484.7486	1489.7649	1490.6253	1496.2693	1497.7025	3020.5863	3022.0447	3054.0425	3055.2003	3082.051	3083.1942	3088.2783	3089.04	3113.3483	3114.1308	3124.5308	3127.0885
CC12CC3OC1CC23C	C[C@@]12C[C@H]3O[C@@H]1C[C@@]23C	
InChI=1S/C8H12O/c1-7-3-6-8(7,2)4-5(7)9-6/h5-6H,3-4H2,1-2H3	InChI=1S/C8H12O/c1-7-3-6-8(7,2)4-5(7)9-6/h5-6H,3-4H2,1-2H3/t5-,6-,7-,8-/m1/s1
