20
gdb 51542	2.87048	1.09678	0.91654	3.4233	82.12	-0.249	0.0205	0.2695	1338.8474	0.170285	-403.11526	-403.10622	-403.105276	-403.150094	33.147	
N	-0.2391013243	 1.1168715213	-0.2516612255	-0.440993
C	-0.305946159	-0.1376537859	-0.3700214961	 0.131711
O	-1.0458027326	-0.8583099121	 0.4996934668	-0.182221
C	-1.0656862629	-2.2503214734	 0.2829934632	 0.044819
C	-2.1983971086	-2.9871888408	 0.9270554707	-0.393531
C	-2.1499612811	-2.846788033	-0.5710335139	 0.331224
C	-3.087300945	-2.0523765156	-1.4889790551	-0.292295
C	-2.6135394145	-2.9524859254	-2.6699833815	-0.201318
C	-1.9449932787	-3.9206889105	-1.6479606092	-0.294095
H	 0.3626880291	 1.5011309843	-0.9771105127	 0.228612
H	 0.1959755435	-0.7525005617	-1.1298732479	 0.085513
H	-0.077821872	-2.7084057835	 0.274641883	 0.099203
H	-1.9917923216	-3.9530732921	 1.3768716811	 0.116978
H	-2.9232067599	-2.3795166557	 1.4593589301	 0.133192
H	-4.142684132	-2.199430631	-1.2407246309	 0.106762
H	-2.9002769937	-0.9791005333	-1.5719712095	 0.118655
H	-3.3933848497	-3.3765387159	-3.3053148697	 0.102707
H	-1.8825501928	-2.4511778355	-3.30920696	 0.10345
H	-0.9148687788	-4.2274465648	-1.8523996838	 0.096528
H	-2.5423923555	-4.8193961554	-1.464275889	 0.105099
53.5518	85.5773	92.2191	130.8338	200.3023	299.2015	314.4448	428.7577	474.5838	560.4405	631.6667	715.5654	781.7602	821.3572	835.3454	858.576	880.3173	896.5998	935.8944	952.4894	1021.1854	1046.227	1050.9375	1065.422	1086.0289	1120.9074	1140.6321	1179.5549	1192.2065	1225.2574	1230.0541	1254.0392	1272.1716	1281.1758	1290.5488	1337.3727	1404.6577	1420.6751	1477.5379	1479.6945	1486.52	1507.5278	1745.9917	3022.2267	3043.5922	3055.8442	3067.497	3088.7276	3104.267	3113.9702	3124.5606	3126.8661	3215.6926	3517.5474
N=COC1CC11CCC1	[NH][CH]O[C@H]1CC21CCC2	
InChI=1S/C7H11NO/c8-5-9-6-4-7(6)2-1-3-7/h5-6,8H,1-4H2	InChI=1S/C7H11NO/c8-5-9-6-4-7(6)2-1-3-7/h5-6,8H,1-4H2/t6-/m0/s1
