18
gdb 91554	3.17051	1.32143	1.11021	2.7708	71.59	-0.2432	0.0593	0.3025	1126.8148	0.147868	-439.012326	-439.004239	-439.003295	-439.045373	30.935	
O	 0.2000087992	 1.3360316339	-0.2775925107	-0.430074
C	 0.14458306	-0.0431291255	-0.0577747358	 0.079344
C	 0.2861601107	-0.5799414876	 1.4216320814	-0.292519
C	-1.1201322095	-1.1572461018	 1.2844287191	-0.039516
O	-1.9893079559	-0.0537768688	 0.9514385655	-0.306823
C	-1.258770841	-0.6959469519	-0.1126100648	 0.382055
C	-2.0241497478	-1.1943150779	-1.2794466385	-0.137415
C	-3.4576031937	-1.5502945848	-1.1373528355	-0.241746
N	-3.0682678572	-0.3480730631	-1.8923390194	-0.319207
H	-0.5117837088	 1.7200997784	 0.2501833379	 0.287195
H	 0.8614511723	-0.50957176	-0.7380470616	 0.099683
H	 1.0663104287	-1.3379792215	 1.5242494478	 0.112848
H	 0.4087769967	 0.18425819	 2.1928594868	 0.11225
H	-1.580969954	-2.0028486496	 1.780983705	 0.111709
H	-1.4180993723	-1.7283472762	-2.0079080503	 0.096282
H	-3.8713200542	-2.3555949227	-1.7371483871	 0.119094
H	-3.907011928	-1.4183104555	-0.1580539284	 0.125299
H	-3.2128920754	 0.4688621044	-1.3022662713	 0.241542
60.6374	125.3464	179.9041	194.692	319.3436	353.5906	444.6312	471.4147	507.3294	619.0804	696.3562	719.2856	814.8473	840.8727	867.5191	882.5317	925.1921	940.6383	965.7868	986.9689	1029.8756	1047.0658	1092.651	1123.166	1132.108	1148.5373	1152.0485	1191.7243	1197.3154	1247.9296	1261.0838	1272.3204	1302.375	1312.4372	1390.4299	1432.3209	1461.345	1484.6019	1502.5223	3067.3466	3089.7526	3117.5822	3127.1622	3133.8345	3195.08	3208.5477	3494.2237	3775.1174
OC1CC2OC12C1CN1	O[C@H]1C[C@H]2O[C@@]12[C@H]1CN1	
InChI=1S/C6H9NO2/c8-4-1-5-6(4,9-5)3-2-7-3/h3-5,7-8H,1-2H2	InChI=1S/C6H9NO2/c8-4-1-5-6(4,9-5)3-2-7-3/h3-5,7-8H,1-2H2/t3-,4+,5-,6+/m1/s1
