16
gdb 47382	2.9601	1.25484	0.93041	3.3539	71.96	-0.2428	0.0162	0.259	1204.7421	0.124678	-437.878152	-437.869928	-437.868984	-437.911318	30.712	
O	-0.0485397261	-0.0740363381	 0.0227104882	-0.368051
C	-0.0304310179	 1.1407720179	 0.0360776211	 0.382064
C	-1.3231477122	 1.951911971	 0.1122552525	-0.193284
O	-1.1539979978	 3.3250155165	 0.4166395516	-0.24108
C	-0.1533555702	 3.9144328668	-0.3792222014	-0.08846
C	 1.2182558678	 3.3266171195	-0.0006193352	-0.153837
N	 1.1215535367	 1.8676864644	-0.058535699	-0.319625
C	 2.2727475187	 3.8181824343	-0.8827393252	 0.313825
C	 3.1345915908	 4.2320726547	-1.6099452383	-0.437596
H	-1.846816552	 1.8216683944	-0.8487358458	 0.126498
H	-1.9477292033	 1.5174850548	 0.8950151361	 0.148032
H	-0.3393929804	 3.7491383282	-1.4516060286	 0.110443
H	-0.1632763612	 4.9877781003	-0.1798932964	 0.130588
H	 1.4405831683	 3.6467145588	 1.0285579227	 0.124596
H	 1.9753513495	 1.3287329287	-0.091197569	 0.256412
H	 3.8997774793	 4.5971577377	-2.2502444931	 0.209476
80.6633	103.362	147.1808	235.9733	335.2581	409.1172	425.3412	466.6774	496.2503	516.0218	559.4919	628.433	643.6061	672.6453	682.9593	861.4663	935.5741	978.2476	1014.6119	1017.5832	1099.909	1146.7365	1150.811	1235.1038	1294.7576	1325.9336	1338.6965	1357.246	1384.6538	1406.1	1455.7343	1472.1473	1494.2096	1799.3168	2242.1791	2983.0711	2985.5379	2999.3342	3116.554	3120.9275	3500.9518	3607.1545
O=C1COCC(N1)C#C	O=C1COC[C@@H](N1)C#C	
InChI=1S/C6H7NO2/c1-2-5-3-9-4-6(8)7-5/h1,5H,3-4H2,(H,7,8)	InChI=1S/C6H7NO2/c1-2-5-3-9-4-6(8)7-5/h1,5H,3-4H2,(H,7,8)/t5-/m0/s1
