19
gdb 103874	2.94794	0.92855	0.78089	6.3134	76.98	-0.2545	0.0412	0.2957	1469.6696	0.157971	-419.196333	-419.18628	-419.185336	-419.23189	35.726	
C	-0.1647127768	 1.8911221302	 0.2391474757	-0.45596
C	-0.0865164461	 0.3890951191	 0.0631522814	 0.280207
C	-1.2635970594	-0.1761974333	-0.7195098987	-0.14524
O	-1.0571113787	-1.5619726793	-0.9374081088	-0.419161
N	 1.2456466851	-0.1711491664	-0.210298995	-0.36445
C	 0.5699307786	-0.5088420506	 1.0529171724	-0.033985
C	 1.2235069716	-0.0135975425	 2.3352538307	-0.357513
C	 2.2032590319	-0.9718240914	 2.8494678826	 0.262915
N	 2.9642976141	-1.7425302493	 3.2518978109	-0.307579
H	 0.7264847952	 2.2825806598	 0.7315742938	 0.132479
H	-0.2395065515	 2.385079943	-0.736094677	 0.12432
H	-1.0432885386	 2.1773813034	 0.8285852597	 0.118043
H	-2.1950809093	 0.0088544736	-0.1611154809	 0.099043
H	-1.3402440546	 0.3653046806	-1.6763119237	 0.098275
H	-1.7598550356	-1.89402238	-1.5021592692	 0.299091
H	 1.1544727956	-0.9570152144	-0.8509267805	 0.244977
H	 0.1517503842	-1.5085839287	 1.1283655581	 0.119171
H	 1.7310800054	 0.9384879659	 2.1607716405	 0.156792
H	 0.4659407388	 0.1526257202	 3.1107517382	 0.148574
49.0631	98.3928	113.7914	160.8384	191.18	224.2142	244.0085	266.1271	368.2196	386.1768	421.4986	449.0518	546.9691	563.4038	705.2841	840.6302	861.7759	932.2272	948.2018	981.6986	1007.7826	1035.0551	1082.5675	1087.1579	1110.6534	1146.6902	1212.9066	1217.7517	1261.6264	1277.6667	1312.3818	1324.2574	1360.8021	1420.9769	1449.8328	1453.7786	1467.7206	1491.744	1502.5078	1520.5041	2362.5878	2966.2557	2995.8158	3033.4149	3045.0791	3090.4501	3105.8	3138.0523	3157.5991	3499.252	3849.6968
CC1(CO)NC1CC#N	C[C@@]1(CO)N[C@H]1CC#N	
InChI=1S/C6H10N2O/c1-6(4-9)5(8-6)2-3-7/h5,8-9H,2,4H2,1H3	InChI=1S/C6H10N2O/c1-6(4-9)5(8-6)2-3-7/h5,8-9H,2,4H2,1H3/t5-,6-/m0/s1
