21
gdb 26145	2.4591	1.28656	1.04085	3.5624	85.99	-0.2071	0.0363	0.2434	1277.6055	0.182841	-383.330311	-383.320581	-383.319637	-383.365175	35.77	
C	-0.0346244266	 1.5839860221	 0.0386528979	-0.376229
C	 0.0115264514	 0.045316838	 0.0510866073	-0.083362
C	 0.7624351885	-0.4705579546	 1.2919977863	-0.376212
C	-1.3754443002	-0.5329758713	-0.0149107293	 0.237445
C	-1.9385587408	-1.3403317668	-0.9763102027	 0.193933
C	-1.4249369795	-1.9202261933	-2.2514228574	-0.511232
N	-3.2301615818	-1.5707462536	-0.5327266322	-0.292278
C	-3.3851390918	-0.9072118328	 0.6473163961	-0.00273
N	-2.2917795345	-0.2732624665	 0.989469977	-0.312337
H	 0.9746724447	 2.0059112785	 0.094468723	 0.099653
H	-0.5125212201	 1.9581748251	-0.8722172878	 0.104455
H	-0.6107731369	 1.9495459163	 0.8935964451	 0.134542
H	 0.5587099049	-0.2863369987	-0.840821994	 0.063036
H	 1.7698992113	-0.0438813583	 1.344883685	 0.099691
H	 0.2207614444	-0.1936128283	 2.2010811881	 0.134491
H	 0.8527429806	-1.5612606293	 1.2747782552	 0.10444
H	-1.4598955158	-3.0169643306	-2.2503105694	 0.127454
H	-1.9959348841	-1.5753811858	-3.1227658725	 0.127851
H	-0.3845430566	-1.6267139972	-2.4055486307	 0.144348
H	-3.9245878486	-2.128014645	-1.0015541848	 0.259177
H	-4.3113062585	-0.9265380677	 1.20291369	 0.123864
44.0524	102.8863	146.4147	181.658	227.9634	237.1468	252.3692	281.1698	368.5852	417.0467	498.7881	503.8223	614.2028	661.8524	711.4368	755.308	803.9493	887.4337	928.0848	956.3997	963.3287	980.8457	1061.697	1062.5699	1104.7656	1123.7862	1132.4139	1197.4559	1252.6513	1296.6807	1333.3058	1353.6736	1379.313	1391.1818	1412.4958	1421.0259	1460.9913	1480.3434	1484.4301	1492.0895	1493.0284	1499.0494	1512.1678	1532.907	1633.4282	3015.9057	3019.5057	3029.7041	3034.3258	3059.6114	3097.2805	3100.9221	3114.1788	3118.6783	3125.8498	3245.0078	3660.583
CC(C)C1=C(C)NC=N1	CC(C)c1c(C)[nH]cn1	
InChI=1S/C7H12N2/c1-5(2)7-6(3)8-4-9-7/h4-5H,1-3H3,(H,8,9)	InChI=1S/C7H12N2/c1-5(2)7-6(3)8-4-9-7/h4-5H,1-3H3,(H,8,9)
