19
gdb 82808	2.88234	1.61348	1.5605	2.2761	73.18	-0.236	0.0625	0.2986	953.8486	0.162049	-422.987884	-422.980785	-422.979841	-423.019016	29.432	
O	 0.0056023106	 1.4179747531	-0.131562699	-0.407376
C	-0.0169639358	 0.0236398858	-0.0224649428	 0.066498
C	-0.430556355	-0.6933936761	 1.2405668333	-0.080733
C	-1.0588147631	 0.0229563182	 2.4411014901	-0.24657
C	-2.5407819787	 0.3590399344	 2.1821128452	 0.10025
C	-2.7337853473	 1.2149958059	 0.9188440872	-0.254855
C	-2.6999447392	-0.1727845744	 0.2448714361	 0.06609
O	-3.1752546372	-0.762102243	 1.5025570747	-0.296696
C	-1.3126126203	-0.7470066866	-0.0045282544	-0.068138
H	 0.7540898795	 1.7376346346	 0.3838787899	 0.290078
H	 0.7790201467	-0.4615513394	-0.5892393909	 0.088536
H	 0.1457133313	-1.5789984815	 1.4879734545	 0.086621
H	-0.9982840582	-0.6426526402	 3.3075299036	 0.108424
H	-0.5173318612	 0.9408357844	 2.7064863971	 0.088496
H	-3.0645385896	 0.6347195062	 3.1015918776	 0.069518
H	-3.7425405571	 1.6300379387	 0.878305143	 0.100261
H	-1.9860619738	 1.9545393991	 0.6502495575	 0.125932
H	-3.3861710893	-0.3711680371	-0.5812703091	 0.074044
H	-1.3158378224	-1.6658581621	-0.5829970236	 0.089617
148.6756	221.1542	273.9033	288.4494	386.059	434.1454	516.7141	542.224	633.6537	665.8084	736.4088	767.5396	802.3964	859.5686	874.7688	895.701	924.9103	952.1823	984.522	1005.0645	1029.598	1052.1214	1095.9123	1117.5232	1129.1519	1138.9953	1141.0213	1194.3138	1238.2118	1258.5498	1268.2441	1295.9734	1306.0397	1331.945	1343.546	1360.9217	1379.5253	1389.3265	1456.6413	1477.1197	1493.7932	3019.8001	3067.08	3078.6962	3080.956	3083.7285	3094.0861	3146.1483	3157.1083	3190.1403	3801.0069
OC1C2CC3CC(O3)C12	O[C@H]1[C@H]2C[C@H]3C[C@H](O3)[C@@H]12	
InChI=1S/C7H10O2/c8-7-4-1-3-2-5(9-3)6(4)7/h3-8H,1-2H2	InChI=1S/C7H10O2/c8-7-4-1-3-2-5(9-3)6(4)7/h3-8H,1-2H2/t3-,4-,5-,6-,7-/m0/s1
