16
gdb 90651	3.78424	1.08797	1.02218	4.5878	70.28	-0.2678	0.0115	0.2793	1174.5033	0.123245	-437.852768	-437.844365	-437.84342	-437.885536	31.776	
O	 0.0149238461	 1.3302732122	-0.0305716842	-0.437639
C	-0.0139807075	-0.0790337384	-0.0237628711	 0.117853
C	 0.2786852648	-0.72396214	 1.3750909811	-0.285384
C	-1.1839121682	-1.1765565412	 1.454484072	-0.125073
C	-1.4705251037	-0.5409802315	 0.0877617447	-0.10489
C	-1.5098386419	-2.0343769586	 0.2453189434	 0.25306
O	-0.5507162042	-2.8079311841	-0.4144552409	-0.451845
C	-2.8349628004	-2.6256294867	 0.259197513	 0.240946
N	-3.87413046	-3.1326117444	 0.2801770945	-0.337096
H	 0.9348866536	 1.6097832149	-0.0777530228	 0.287564
H	 0.5464847852	-0.5007460275	-0.8656666723	 0.090951
H	 1.0393357731	-1.5070184173	 1.4273814717	 0.099676
H	 0.496978438	 0.0619423462	 2.1003314265	 0.118654
H	-1.8025429384	-1.216071671	 2.3426232352	 0.112769
H	-2.3237749839	 0.0227221462	-0.2671052334	 0.122736
H	-0.4113058826	-3.6172621686	 0.0913440526	 0.297719
119.2951	142.9626	167.8066	248.343	268.4554	316.3879	350.6954	392.4518	453.1659	479.4028	561.2492	608.7605	684.1189	743.2634	846.9354	867.1714	904.4076	966.612	991.6845	999.4726	1028.6933	1050.7312	1102.4673	1130.988	1189.6919	1213.6363	1238.7043	1248.8205	1266.5121	1298.305	1322.2523	1407.397	1426.5952	1467.609	2351.1595	3039.6389	3065.2119	3130.631	3188.9952	3206.4161	3793.3293	3817.6775
OC1CC2C1C2(O)C#N	O[C@H]1C[C@H]2[C@@H]1[C@]2(O)C#N	
InChI=1S/C6H7NO2/c7-2-6(9)3-1-4(8)5(3)6/h3-5,8-9H,1H2	InChI=1S/C6H7NO2/c7-2-6(9)3-1-4(8)5(3)6/h3-5,8-9H,1H2/t3-,4-,5-,6-/m0/s1
