19
gdb 116260	2.17871	1.52723	1.02029	0.5184	77.59	-0.2542	0.0524	0.3066	1206.9878	0.158279	-422.993598	-422.984297	-422.983353	-423.028085	33.653	
C	 0.5655354989	 1.2868631519	 0.2116261504	-0.241715
O	 0.647099544	-0.1240352773	 0.1309243641	-0.241861
C	 0.4251508146	-0.625362379	-1.1555006224	 0.231014
O	 1.4314427734	-0.2540705987	-2.0669482866	-0.266865
C	 2.5175460762	-1.1943610377	-2.0000591797	-0.091807
C	 2.0467234705	-2.3574257166	-1.1084188661	-0.246535
C	 0.510688794	-2.1646853866	-1.0977694073	-0.232146
C	-0.191504516	-2.8032009744	 0.0007549189	 0.335428
C	-0.7724955255	-3.3632055716	 0.8910353758	-0.451577
H	 1.3197951561	 1.7706646353	-0.4201237007	 0.124121
H	-0.4295482517	 1.6461392273	-0.091715794	 0.106926
H	 0.7367898847	 1.5568648319	 1.2556934541	 0.127502
H	-0.5222700226	-0.2426744555	-1.5597002943	 0.079149
H	 2.7353760488	-1.5174358033	-3.0242627425	 0.107191
H	 3.4106454955	-0.7025137509	-1.5997215991	 0.109751
H	 2.341997565	-3.3344689769	-1.4945184705	 0.113464
H	 2.427759255	-2.2562175	-0.0907201942	 0.13309
H	 0.1015282408	-2.5300578613	-2.0478494534	 0.112223
H	-1.2869675517	-3.8417799468	 1.6868957074	 0.192648
82.8302	99.5479	121.0529	137.6713	183.6482	201.5796	295.9549	365.0541	470.6972	507.8875	563.4163	622.2844	637.0655	652.8682	750.7463	840.7379	901.649	934.077	951.3408	989.1939	1047.9908	1069.1423	1079.0437	1112.4054	1147.0864	1181.6637	1202.1246	1218.219	1234.2458	1292.7458	1311.3895	1321.9355	1367.0283	1389.9044	1397.385	1477.4953	1484.367	1491.5661	1513.356	1528.3554	2242.953	2991.0789	3016.1785	3032.5125	3034.8393	3062.5621	3067.3951	3084.4878	3126.4698	3135.7221	3505.4804
COC1OCCC1C#C	CO[C@H]1OCC[C@H]1C#C	
InChI=1S/C7H10O2/c1-3-6-4-5-9-7(6)8-2/h1,6-7H,4-5H2,2H3	InChI=1S/C7H10O2/c1-3-6-4-5-9-7(6)8-2/h1,6-7H,4-5H2,2H3/t6-,7+/m1/s1
