19
gdb 70530	2.80969	1.50681	1.15928	2.7415	76.77	-0.2525	0.0215	0.274	1101.7631	0.160861	-419.207042	-419.198867	-419.197923	-419.23967	31.65	
C	 0.0225729736	 1.5087763101	-0.0960691165	-0.45201
C	 0.0111369945	 0.0065072122	 0.0664566936	 0.303759
C	-1.2887452834	-0.6794597456	-0.3281198765	-0.346085
C	-1.2476769225	-2.1867217965	-0.2317143588	 0.363657
N	-1.8749460263	-2.9122612619	-1.0575709099	-0.509628
O	-0.4914706995	-2.7449205949	 0.763036667	-0.250624
C	 0.139549936	-1.9155512301	 1.7425002641	-0.117725
C	 0.7547276063	-0.662408041	 1.1581684846	-0.060214
N	 1.2994254312	-0.6655068901	-0.206136059	-0.372609
H	 0.9867773593	 1.917515444	 0.215036254	 0.130952
H	-0.1407678775	 1.78657549	-1.1433053774	 0.125002
H	-0.7668373539	 1.9763116403	 0.5031707154	 0.114949
H	-2.0895018507	-0.3064016138	 0.3266879673	 0.128642
H	-1.5857642316	-0.4320754583	-1.3503549173	 0.141637
H	-1.7486065392	-3.8996808843	-0.8239887112	 0.21944
H	-0.5843357534	-1.6435334517	 2.5245095786	 0.11577
H	 0.8995666402	-2.5550800477	 2.201414339	 0.12917
H	 1.3201519586	-0.0730157712	 1.8781211567	 0.095331
H	 1.1610292585	-1.5741711793	-0.6440593036	 0.240587
86.9938	149.2235	195.9428	240.548	284.1204	359.9788	380.4378	437.6685	489.0341	524.4264	589.2283	708.8945	737.9766	806.9537	826.2403	882.2239	913.5652	935.8596	966.9007	992.6092	1036.3876	1070.5551	1078.3359	1100.5729	1151.32	1162.4736	1177.2688	1232.6186	1264.141	1282.7011	1309.577	1338.1081	1356.0486	1411.0557	1425.9702	1456.6568	1473.0381	1489.8806	1500.1685	1513.4752	1749.6187	3002.5161	3012.8197	3031.5708	3080.5131	3092.4512	3100.3224	3122.5847	3125.253	3460.7782	3492.1344
CC12CC(=N)OCC1N2	C[C@]12C[C]([NH])OC[C@H]1N2	
InChI=1S/C6H10N2O/c1-6-2-5(7)9-3-4(6)8-6/h4,7-8H,2-3H2,1H3	InChI=1S/C6H10N2O/c1-6-2-5(7)9-3-4(6)8-6/h4,7-8H,2-3H2,1H3/t4-,6+/m1/s1
