21
gdb 81689	2.63778	1.51808	1.44496	1.729	76.91	-0.2425	0.0738	0.3164	1047.0563	0.184367	-424.216811	-424.208738	-424.207793	-424.24901	32.722	
C	-0.1764063369	 1.4536347684	 0.0802789648	-0.392956
C	 0.0279063764	-0.0585690037	-0.0161064236	 0.127094
C	 0.6648458617	-0.5224538679	-1.3582254941	-0.242492
C	 2.1099346703	-0.9908735133	-1.1662460696	-0.076512
C	 2.8364513965	-0.0727402987	-0.1441341334	-0.26883
C	 2.1136104443	-0.898486477	 0.9461320626	 0.07361
O	 0.7546305361	-0.5216879192	 1.1490463072	-0.313154
C	 2.1365026986	-2.0887252087	-0.0473666513	 0.160371
O	 1.1048015391	-3.0279372766	 0.0503513574	-0.447859
H	 0.7576111694	 2.0052463314	-0.0569388616	 0.121573
H	-0.8820793342	 1.7862066455	-0.6889282343	 0.113954
H	-0.5859888918	 1.7130153976	 1.0604217893	 0.124616
H	-0.9589338762	-0.5257461461	 0.0819454961	 0.083752
H	 0.0846485862	-1.3499336174	-1.7778147509	 0.114346
H	 0.6268122981	 0.3007882961	-2.0795733268	 0.099002
H	 2.5946530489	-1.2099325103	-2.1200369114	 0.064285
H	 3.9133003895	-0.2587625917	-0.1139697669	 0.106017
H	 2.6610658955	 1.002747287	-0.1827103849	 0.104851
H	 2.5477247284	-1.000121579	 1.9429389853	 0.075596
H	 3.0961511108	-2.6146475125	-0.0386049905	 0.081302
H	 0.4270667792	-2.615193634	 0.6029578167	 0.291434
95.9887	196.0962	216.455	238.8507	339.7033	386.7298	413.147	432.632	468.3088	550.0489	616.472	630.6181	756.0377	775.0046	816.9143	858.6518	880.4891	899.0069	946.4183	963.0869	997.4004	1016.0673	1063.7757	1082.6873	1106.3016	1131.6288	1145.3477	1160.0019	1177.8414	1227.9244	1237.1434	1249.7731	1281.1309	1305.3235	1335.3194	1357.5002	1372.5692	1376.5462	1403.4916	1406.8474	1427.5032	1479.1436	1492.2636	1494.9592	1501.3029	3023.6501	3037.4489	3044.655	3062.1475	3069.6847	3084.2493	3086.6582	3093.7078	3109.1416	3122.2447	3135.2636	3748.255
CC1CC2CC(O1)C2O	C[C@H]1C[C@H]2C[C@@H](O1)[C@H]2O	
InChI=1S/C7H12O2/c1-4-2-5-3-6(9-4)7(5)8/h4-8H,2-3H2,1H3	InChI=1S/C7H12O2/c1-4-2-5-3-6(9-4)7(5)8/h4-8H,2-3H2,1H3/t4-,5-,6+,7-/m0/s1
