19
gdb 64501	3.05197	1.52003	1.21991	1.5494	75.17	-0.2588	0.068	0.3268	1056.9478	0.159357	-422.940009	-422.932194	-422.93125	-422.972333	31.119	
O	-0.1257366213	 1.399500082	-0.1546275701	-0.486668
C	 0.0069574202	-0.006397472	-0.0262871738	 0.444254
C	 1.045104702	-0.4344901665	-1.0442397105	-0.019224
C	 2.4854428013	-0.289539899	-0.7628209807	-0.189923
O	 1.8702512308	-1.5750282988	-0.818175145	-0.222949
C	-0.023223354	-0.6406829899	 1.4090216777	-0.122905
C	-1.4863814696	-0.1089747183	 1.5151482554	-0.234482
C	-1.3691129578	-0.7210350842	 0.0835383201	-0.102268
C	-0.6290893448	-1.9172368861	 0.7507443603	-0.233792
H	 0.7514750242	 1.7892613895	-0.0746677362	 0.27838
H	 0.7274243939	-0.3127358763	-2.0810789681	 0.101718
H	 3.176911377	-0.0632707324	-1.5729079836	 0.11905
H	 2.8130379914	 0.0218830419	 0.2290494672	 0.114543
H	 0.7561946665	-0.5954171838	 2.171541869	 0.066045
H	-2.1327902405	-0.6541195821	 2.206716758	 0.08785
H	-1.6216146396	 0.968201951	 1.5835345486	 0.111927
H	-2.1395732584	-0.7587996422	-0.6879152693	 0.070822
H	 0.0251747069	-2.5307042984	 0.1360707602	 0.126239
H	-1.2489097883	-2.5258354443	 1.4127378506	 0.091382
71.0274	160.4422	218.1568	309.178	310.1352	359.0724	429.7667	464.2533	561.2024	624.2996	644.1605	791.2345	803.7641	882.314	894.836	897.1172	904.5013	911.4605	991.495	1012.3277	1020.6479	1040.1623	1071.8749	1085.8663	1099.3579	1115.7606	1149.3519	1158.9329	1169.6726	1185.1963	1195.8771	1200.8679	1235.7508	1244.777	1257.7254	1296.2313	1352.8407	1425.7315	1496.6686	1523.08	1539.367	3073.8105	3078.0127	3079.4039	3097.399	3098.9071	3106.7464	3164.6052	3167.3292	3170.9384	3805.8956
OC1(C2CO2)C2CC1C2	O[C@@]1([C@H]2CO2)[C@H]2C[C@@H]1C2	
InChI=1S/C7H10O2/c8-7(6-3-9-6)4-1-5(7)2-4/h4-6,8H,1-3H2	InChI=1S/C7H10O2/c8-7(6-3-9-6)4-1-5(7)2-4/h4-6,8H,1-3H2/t4-,5+,6-,7-/m1/s1
