19
gdb 83135	2.00454	1.80447	1.46324	4.2914	75.04	-0.2595	0.0134	0.2729	1035.4122	0.159544	-423.071362	-423.062795	-423.061851	-423.104182	32.392	
C	-0.1121511909	 1.5585023129	 0.0661251146	-0.432033
C	 0.0507123082	 0.0529058532	 0.0593845172	-0.046386
C	 1.3403400103	-0.6612641335	-0.2381262619	-0.137863
C	 2.6212573843	 0.1397802009	-0.0849374338	-0.106849
O	 2.6431115563	 0.6301289129	 1.2668552567	-0.229665
C	 1.663589115	 0.0493176897	 2.024777979	 0.407789
O	 1.6115513277	 0.1919984232	 3.21298361	-0.348415
C	 0.7441321147	-0.755952863	 1.1520822253	 0.150027
C	 0.0976546826	-1.9654734501	 1.7792659254	-0.480199
H	 0.7633649473	 2.0734261375	 0.4684207086	 0.143806
H	-0.2824176266	 1.9285901959	-0.950876591	 0.120336
H	-0.9752307676	 1.8487838276	 0.6736531053	 0.130531
H	-0.8227397992	-0.4719153809	-0.3223009587	 0.094851
H	 1.3468650038	-1.509681003	-0.9124624734	 0.099954
H	 3.5071341509	-0.4858465492	-0.2391132873	 0.122371
H	 2.6845055377	 1.0036403799	-0.754349471	 0.122641
H	-0.482868178	-1.6678679638	 2.6573924963	 0.145551
H	-0.572780311	-2.4627059294	 1.0725720926	 0.115338
H	 0.8462136544	-2.6930001407	 2.1097042061	 0.128215
123.5566	165.8783	197.0473	204.8819	222.7813	244.2602	266.9239	398.5298	488.7546	513.9132	585.7752	681.912	708.3778	793.4759	798.4478	843.4831	885.0342	949.7994	991.8475	1024.6149	1048.8624	1062.8068	1089.9365	1115.1282	1129.751	1134.4482	1166.2495	1234.8725	1265.3554	1318.1379	1357.0373	1386.0431	1416.9866	1424.9149	1458.0168	1484.2206	1498.6419	1499.691	1505.203	1522.6432	1870.9295	3037.6299	3038.7112	3041.6811	3082.1141	3096.9489	3104.5975	3116.7217	3118.9407	3135.1892	3179.918
CC1C2COC(=O)C12C	C[C@H]1[C@H]2COC(=O)[C@@]12C	
InChI=1S/C7H10O2/c1-4-5-3-9-6(8)7(4,5)2/h4-5H,3H2,1-2H3	InChI=1S/C7H10O2/c1-4-5-3-9-6(8)7(4,5)2/h4-5H,3H2,1-2H3/t4-,5+,7-/m0/s1
