20
gdb 94398	2.47714	1.34364	1.24149	2.4942	80.12	-0.2585	0.024	0.2825	1149.5467	0.171412	-403.142425	-403.133814	-403.13287	-403.175809	32.708	
C	-0.6356111178	 1.1911164597	-0.0679194741	-0.42209
C	 0.1861069836	-0.0844324393	-0.1569550671	-0.013359
C	 1.6005566506	-0.0380017632	-0.7994689947	-0.238667
C	 2.0906287495	-1.0232105044	 0.2932360422	-0.292449
C	 0.8272028542	-0.6939948546	 1.12922356	 0.192393
C	 0.9292935886	 0.079532979	 2.4615006515	-0.144857
O	 0.2330271501	-1.0095027308	 3.1499822823	-0.26407
C	 0.1218680005	-1.7250656903	 1.9747127997	 0.382286
N	-0.3980446713	-2.8420651064	 1.7388503233	-0.556867
H	-0.0629139055	 2.0110057053	 0.3798815009	 0.112065
H	-0.9464115546	 1.5162715997	-1.0666588471	 0.122022
H	-1.5425696722	 1.0459633635	 0.5295215572	 0.124505
H	-0.4061364261	-0.8772840206	-0.6262250297	 0.102479
H	 1.6918420602	-0.350574545	-1.8419149229	 0.103263
H	 2.0574605713	 0.9512539787	-0.6920868008	 0.099126
H	 2.0683868807	-2.0638610482	-0.0396454154	 0.129934
H	 3.0558418926	-0.8237723582	 0.7655875738	 0.102661
H	 1.9374209984	 0.2127174738	 2.8639162912	 0.116066
H	 0.3616134329	 1.009683954	 2.5405675774	 0.119053
H	-0.7921501358	-3.2605563926	 2.5830497724	 0.226503
82.7437	116.3464	138.7621	220.4047	242.0637	277.4112	354.8296	400.3849	484.1062	574.4802	637.6444	674.9643	766.136	795.0095	858.5427	883.812	893.7126	898.164	944.8508	957.9189	974.3407	1010.6925	1059.7454	1082.1446	1143.8279	1156.2423	1167.748	1186.2168	1201.4511	1242.6202	1252.9781	1267.8072	1279.1579	1300.4752	1370.296	1372.4655	1411.643	1478.339	1492.77	1498.849	1500.7696	1515.3894	1818.4572	3025.7875	3047.6987	3054.5603	3055.9394	3062.5706	3093.7545	3095.4512	3104.8536	3115.1177	3121.9417	3476.9788
CC1CCC11COC1=N	C[C@H]1CC[C@]21CO[C]2[NH]	
InChI=1S/C7H11NO/c1-5-2-3-7(5)4-9-6(7)8/h5,8H,2-4H2,1H3	InChI=1S/C7H11NO/c1-5-2-3-7(5)4-9-6(7)8/h5,8H,2-4H2,1H3/t5-,7+/m0/s1
