19
gdb 50260	3.07628	1.40201	1.29956	1.515	73.97	-0.2435	-0.0254	0.2181	1042.412	0.160984	-423.028948	-423.021447	-423.020503	-423.061182	29.369	
O	-0.6110358247	 0.6330776595	-0.8732742578	-0.246381
C	 0.1662631674	 0.9214273963	 0.0000977784	 0.153971
C	 1.1995252847	 2.0361381548	-0.0497483581	-0.092323
C	 1.1399443995	 2.8477102363	-1.3686895894	-0.230986
C	 0.458103821	 4.1943666341	-1.1367518182	 0.099165
C	-0.7325335337	 4.0908954029	-0.1619627714	-0.264643
C	 0.393328531	 4.2512278127	 0.8808655731	 0.104097
C	 1.0726873865	 2.9270944764	 1.2289901166	-0.238575
O	 1.2158442942	 4.9147691666	-0.1185234306	-0.299987
H	 0.1831677788	 0.3462416322	 0.9559472567	 0.080444
H	 2.1564142928	 1.4995151499	 0.0151868664	 0.104458
H	 2.1490216282	 3.0387904777	-1.7454444585	 0.107218
H	 0.5986749374	 2.2659891084	-2.1214025949	 0.124752
H	 0.3454919755	 4.7768319588	-2.0546348399	 0.077784
H	-1.3699379426	 4.9750429963	-0.2037017492	 0.112071
H	-1.3396059038	 3.1844895252	-0.1663382737	 0.117651
H	 0.2215873664	 4.8787227987	 1.7599063749	 0.076939
H	 0.5167158703	 2.397365976	 2.0139753215	 0.096775
H	 2.0623494412	 3.1549667873	 1.635110134	 0.117569
82.4897	113.0816	225.3043	314.5938	359.4927	380.0057	447.9148	526.5686	627.651	673.9071	756.0899	831.2695	848.8817	863.395	882.6157	921.667	948.1512	956.7594	976.7965	991.9704	1045.1461	1082.9253	1101.0205	1114.2709	1120.6283	1189.7202	1212.1275	1220.7412	1258.2412	1271.0895	1315.9796	1340.491	1346.0192	1353.0065	1365.4922	1385.2501	1426.0542	1468.9933	1482.4152	1498.1327	1825.9561	2856.2159	3009.6545	3023.6618	3053.4714	3069.4582	3077.6933	3085.8003	3089.143	3101.2026	3145.0601
O=CC1CC2CC(C1)O2	O=C[C@H]1C[C@H]2C[C@@H](C1)O2	
InChI=1S/C7H10O2/c8-4-5-1-6-3-7(2-5)9-6/h4-7H,1-3H2	InChI=1S/C7H10O2/c8-4-5-1-6-3-7(2-5)9-6/h4-7H,1-3H2/t5-,6-,7+
