19
gdb 80578	2.90238	1.39465	1.13395	3.7558	75.37	-0.2394	-0.0286	0.2108	1131.227	0.158569	-423.014996	-423.006396	-423.005452	-423.048607	32.625	
C	-0.0351531375	 1.483019404	 0.0734775367	-0.476161
C	 0.1501852758	-0.0074805443	 0.2712431724	 0.384532
O	 1.2511627634	-0.4775650258	 0.4889304799	-0.321411
C	-1.1007558513	-0.8571707028	 0.1658083846	-0.102098
C	-1.4859535354	-1.4464258806	-1.25027104	-0.258611
C	-1.6232508574	-2.8311745694	-0.6076181216	-0.094061
C	-0.3036906268	-3.2509390999	-0.0384947468	 0.127955
O	 0.8983457602	-2.9477614625	-0.6644596507	-0.439492
C	-1.1252603353	-2.2739621389	 0.751007372	-0.143577
H	 0.9329934607	 1.9821023471	 0.0250712894	 0.145528
H	-0.6074828356	 1.6809436193	-0.8396605571	 0.145196
H	-0.6178106127	 1.8951897609	 0.9059719498	 0.14603
H	-1.950124712	-0.2733138294	 0.5327187373	 0.085754
H	-2.4163628665	-1.0261334902	-1.6328490323	 0.106934
H	-0.708032523	-1.3851577702	-2.0152433203	 0.12309
H	-2.4262305027	-3.5295319067	-0.8092884593	 0.089192
H	-0.3260964215	-4.2504266988	 0.3980672818	 0.089984
H	 1.3113973803	-2.2287542573	-0.158324766	 0.303418
H	-1.4651599229	-2.4969328942	 1.7561066004	 0.087799
47.2725	133.0715	160.7658	201.4319	245.5979	280.4027	354.19	451.2176	547.6952	589.0152	617.2572	632.0956	726.9054	749.3583	804.8042	814.0289	902.9997	949.7684	959.4739	975.152	1008.2365	1019.8018	1032.6372	1065.2233	1075.6643	1104.5527	1150.3004	1192.869	1219.1513	1241.2944	1260.6439	1291.4772	1343.3668	1366.8835	1386.9215	1415.246	1440.6541	1461.5567	1474.4104	1480.4721	1780.6882	3034.7774	3059.9485	3071.1031	3094.9765	3097.6894	3133.2099	3154.9385	3169.1421	3187.4928	3645.8935
CC(=O)C1CC2C(O)C12	CC(=O)[C@H]1C[C@H]2[C@@H](O)[C@@H]12	
InChI=1S/C7H10O2/c1-3(8)4-2-5-6(4)7(5)9/h4-7,9H,2H2,1H3	InChI=1S/C7H10O2/c1-3(8)4-2-5-6(4)7(5)9/h4-7,9H,2H2,1H3/t4-,5-,6+,7-/m1/s1
