19
gdb 38685	2.83711	1.92996	1.61552	1.719	77.16	-0.239	0.0127	0.2517	903.4233	0.163339	-385.890806	-385.884417	-385.883473	-385.921098	27.612	
C	-0.0180789236	 1.5408925605	-0.0229518583	-0.226524
C	 1.4982472681	 1.8405007108	-0.0014036801	-0.060768
C	 2.0308724375	 1.6442981486	 1.4454282294	-0.238783
C	 1.474345884	 0.3902954633	 2.1120550808	 0.058852
O	 0.0987677072	 0.417276465	 2.5357106682	-0.260406
C	 0.4512206789	-0.4287180606	 1.43955392	 0.062181
C	 0.0105676076	-0.0006632414	 0.0371975292	-0.099005
C	 1.1783606108	-0.3040693831	-0.9008178662	-0.078693
C	 2.0170994552	 0.7332245211	-0.9095728614	-0.064963
H	-0.5652807213	 1.9870259368	 0.8086750495	 0.113619
H	-0.4596312117	 1.8664529843	-0.9689040822	 0.093287
H	 1.7526053245	 2.8444546263	-0.3526620565	 0.064238
H	 3.1248812026	 1.577724771	 1.4357728164	 0.098228
H	 1.7725845777	 2.5139808314	 2.0617481462	 0.112506
H	 2.1320840749	-0.0902509098	 2.8361916942	 0.089022
H	 0.398732	-1.4955513135	 1.6586967476	 0.085466
H	-0.9349520784	-0.4748218525	-0.2399298248	 0.065669
H	 1.3240782501	-1.2561040288	-1.3974461646	 0.094116
H	 2.973710196	 0.7783760605	-1.4179552573	 0.091957
212.0365	279.0154	353.7893	380.0564	427.0149	506.2798	596.2496	609.5233	737.4177	773.5074	785.0518	814.2991	839.2055	867.0556	875.08	923.5743	930.7868	963.2668	967.2344	993.9117	1017.8382	1055.3734	1070.6108	1084.5077	1128.3731	1143.6847	1167.3611	1203.5178	1237.6783	1278.0596	1294.278	1300.3408	1316.6778	1331.5217	1345.914	1380.2348	1383.3114	1455.1331	1476.8803	1492.6552	1661.3683	3029.5488	3058.895	3065.5672	3069.3971	3074.6151	3099.7592	3112.4719	3130.7492	3185.1171	3211.5888
C1C2CC3OC3C1C=C2	C1[C@H]2C[C@H]3O[C@H]3[C@@H]1C=C2	
InChI=1S/C8H10O/c1-2-6-3-5(1)4-7-8(6)9-7/h1-2,5-8H,3-4H2	InChI=1S/C8H10O/c1-2-6-3-5(1)4-7-8(6)9-7/h1-2,5-8H,3-4H2/t5-,6+,7+,8-/m0/s1
