20
gdb 53328	3.00328	0.96694	0.86675	1.59	89.27	-0.2205	0.058	0.2785	1461.6213	0.169657	-365.950714	-365.941005	-365.940061	-365.986821	35.092	
C	-0.0180622282	 1.5027211561	-0.1055887795	-0.49796
C	 0.0008689148	 0.0481669995	-0.0494435536	 0.051685
C	 0.0098966857	-1.1552426463	 0.0058684513	 0.107826
C	 0.0209222268	-2.6034844241	 0.0672108239	-0.227578
C	 0.3128727835	-3.3272161012	 1.4441530684	-0.231303
C	-1.0171863046	-4.0642679131	 1.2858401637	-0.108291
N	-2.0581530687	-3.0026214187	 1.2454319009	-0.362806
C	-1.330223215	-3.3647546909	 0.0087407811	 0.346581
C	-2.0375413358	-3.7899794531	-1.2390517825	-0.508654
H	 0.7434953549	 1.9364029719	 0.5525225351	 0.144849
H	 0.1770665936	 1.8685335073	-1.1201079596	 0.142211
H	-0.9895960081	 1.9003491897	 0.2087674611	 0.147284
H	 0.6925689483	-3.0092386808	-0.6975921507	 0.093503
H	 1.1936169206	-3.9700673416	 1.3919629352	 0.101252
H	 0.3751652016	-2.6720567284	 2.3147018358	 0.114699
H	-1.2651856736	-5.0689394359	 1.6072930895	 0.09033
H	-2.9627322688	-3.4727646995	 1.1982920845	 0.22115
H	-2.4930825282	-2.9297556642	-1.7434342853	 0.135879
H	-1.3458552477	-4.2628831165	-1.9446906624	 0.123265
H	-2.8334111211	-4.5091635703	-1.0153118768	 0.116078
18.3168	82.0984	84.5208	192.8451	204.0527	244.0314	292.1512	323.6175	378.9993	451.3314	473.376	536.1097	631.5364	695.3962	758.4553	851.0583	904.0831	913.7663	938.4229	941.6683	1012.9208	1026.5861	1052.0247	1053.6271	1078.1644	1100.9564	1113.1929	1164.9424	1192.4745	1204.867	1239.5328	1301.2388	1314.8467	1359.1508	1408.5096	1414.7094	1444.5674	1478.3756	1478.674	1479.613	1482.8565	1498.3821	2368.0034	3022.6282	3023.4422	3040.1685	3074.5217	3081.7853	3083.7782	3086.827	3093.4943	3135.9065	3183.542	3460.8488
CC#CC1CC2NC12C	CC#C[C@H]1C[C@H]2N[C@@]12C	
InChI=1S/C8H11N/c1-3-4-6-5-7-8(6,2)9-7/h6-7,9H,5H2,1-2H3	InChI=1S/C8H11N/c1-3-4-6-5-7-8(6,2)9-7/h6-7,9H,5H2,1-2H3/t6-,7+,8-/m0/s1
