17
gdb 78206	2.29036	1.60851	1.39219	2.2895	69.	-0.2327	-0.0158	0.2169	1013.261	0.133474	-458.94273	-458.933865	-458.932921	-458.975757	33.6	
C	-0.1503045606	 1.659314223	-0.0528982626	-0.46821
C	 0.0410056527	 0.1547766691	-0.0599050151	 0.302628
O	-1.1841600925	-0.5267460845	 0.2036404115	-0.47571
C	 0.6926227678	-0.5586376918	-1.2568763013	-0.118541
C	 2.135707337	-0.2746074181	-1.387746043	 0.084097
O	 2.6545076674	 0.991056493	-1.1017579787	-0.410866
C	 1.7405621127	-1.2705592387	-0.3140562222	-0.261958
C	 1.1156104831	-0.5428719092	 0.8355869053	 0.37372
O	 1.210628968	-0.6326800096	 2.0284679921	-0.33819
H	 0.7746055608	 2.1771579691	-0.3064503314	 0.148994
H	-0.9302748915	 1.9370920753	-0.7687408467	 0.12323
H	-0.4731415953	 1.9834624698	 0.9433114263	 0.116775
H	-1.4020160089	-0.3679082608	 1.1299441548	 0.290139
H	 0.1101812094	-1.0206014654	-2.0434274438	 0.117556
H	 2.6025604208	-0.7595675321	-2.2463934496	 0.108768
H	 3.5359931646	 0.8775806547	-0.7301368797	 0.295036
H	 2.1207956944	-2.2849790838	-0.3055664559	 0.112532
99.3398	169.0389	195.614	212.4986	259.2049	284.8011	314.6148	342.9568	371.0633	437.4927	499.474	635.5274	660.1282	674.278	717.5098	786.5058	856.2664	918.9603	950.3167	967.3544	977.5458	993.2918	1075.8787	1093.1699	1126.1047	1172.0281	1196.5835	1218.2666	1256.1711	1303.4067	1339.1763	1377.1255	1400.7377	1454.6218	1486.0119	1500.5787	1874.3006	3036.0798	3095.2436	3100.0624	3158.0199	3189.9711	3208.4865	3793.5383	3808.8153
CC1(O)C2C(O)C2C1=O	C[C@@]1(O)[C@H]2[C@@H](O)[C@H]2C1=O	
InChI=1S/C6H8O3/c1-6(9)3-2(4(3)7)5(6)8/h2-4,7,9H,1H3	InChI=1S/C6H8O3/c1-6(9)3-2(4(3)7)5(6)8/h2-4,7,9H,1H3/t2-,3+,4-,6+/m0/s1
