15
gdb 12175	3.29707	1.6657	1.25181	3.5057	63.83	-0.2636	-0.0411	0.2225	963.7044	0.117234	-399.804577	-399.79664	-399.795696	-399.837456	27.832	
C	-0.2330853136	 1.4197692633	 0.0193696394	-0.409568
C	 0.0476881252	-0.0757917399	 0.0480463022	-0.155449
C	 0.9868665869	-0.6889089584	-1.0404226941	 0.024852
O	 1.9209111386	-1.1080260038	-0.0153357905	-0.24456
C	 1.1419037634	-0.5573702095	 0.9851419256	 0.452683
N	 1.3264021981	-0.4773131958	 2.2194834701	-0.539774
C	 0.4028652813	-1.8305719473	-1.8347480029	 0.142287
O	 0.5740415058	-2.9942129801	-1.593604121	-0.227739
H	 0.6877465554	 1.9922172086	-0.1278679862	 0.130625
H	-0.9315588634	 1.6751436677	-0.7833186907	 0.124921
H	-0.6745400797	 1.7313701833	 0.9698493452	 0.151551
H	-0.8766575167	-0.6471299043	 0.1757515775	 0.122714
H	 1.435661508	 0.0532036249	-1.7119672452	 0.110364
H	 2.2063613949	-0.9118454584	 2.5017063827	 0.235521
H	-0.2443936244	-1.4885316002	-2.6762919119	 0.08157
73.6832	89.9239	191.4019	218.2504	241.7805	263.7115	338.8093	464.629	643.3781	676.2746	774.066	817.026	822.7244	867.3554	932.6941	972.3208	1010.1414	1073.2739	1080.2298	1111.0025	1133.1253	1198.4705	1240.8149	1273.566	1349.0044	1365.1489	1412.0808	1418.3999	1493.7311	1495.1788	1834.1819	1846.5283	2860.134	3041.1047	3044.7907	3070.4968	3114.1581	3123.4252	3482.773
CC1C(OC1=N)C=O	C[C@H]1[C@@H](O[C]1[NH])C=O	
InChI=1S/C5H7NO2/c1-3-4(2-7)8-5(3)6/h2-4,6H,1H3	InChI=1S/C5H7NO2/c1-3-4(2-7)8-5(3)6/h2-4,6H,1H3/t3-,4-/m0/s1
