21
gdb 32202	2.50492	1.42147	0.985	0.5061	93.2	-0.2302	0.0055	0.2357	1267.8874	0.183933	-350.037649	-350.028771	-350.027827	-350.071223	33.953	
C	 0.0520533466	 1.5969101498	-0.0771406497	-0.368005
C	 0.0161458198	 0.0593428973	-0.0030622729	-0.289951
C	 0.706440022	-0.4893517405	 1.228033042	 0.22986
C	 2.0701684785	-0.7884978965	 1.1669849722	-0.174004
C	 2.7648403702	-1.2650649958	 2.274468688	-0.119717
C	 2.0882823535	-1.4548771423	 3.4744459646	-0.116781
C	 0.7288677802	-1.1659035648	 3.5472719723	-0.176096
C	 0.020842831	-0.6840548613	 2.4429623345	 0.234255
C	-1.4576398483	-0.3993771596	 2.5740123788	-0.506356
H	 1.0844149535	 1.9600328054	-0.0948167601	 0.121094
H	-0.4514361033	 1.9574050356	-0.9800019269	 0.111216
H	-0.4405077991	 2.0510865839	 0.7883448479	 0.120963
H	-1.0246119768	-0.2788878108	-0.0407797229	 0.100105
H	 0.5036104	-0.3480420515	-0.8960548445	 0.100842
H	 2.595008481	-0.6462657176	 0.2259394353	 0.083752
H	 3.8234895599	-1.490185662	 2.197221147	 0.091326
H	 2.6116281378	-1.8281875604	 4.34857364	 0.091398
H	 0.1987903788	-1.3192055556	 4.4830509088	 0.084563
H	-1.7040872519	 0.637464629	 2.3208665086	 0.13017
H	-2.0549307685	-1.037291348	 1.9115878046	 0.131183
H	-1.7977125649	-0.5793373443	 3.5970988124	 0.120183
74.0671	124.3349	145.3429	206.8584	215.8816	318.7326	331.9675	410.9059	465.1849	503.9471	559.1064	593.8443	729.2488	750.9393	776.8772	787.5995	827.6238	886.4286	932.5953	968.3343	971.6539	1006.8419	1049.9102	1054.4328	1078.2059	1086.2946	1146.7446	1184.757	1200.5523	1242.2854	1272.6185	1316.3818	1343.9819	1349.3532	1401.6369	1415.0183	1469.9555	1485.4593	1488.1445	1495.0119	1500.8957	1510.8155	1524.8543	1617.6221	1645.143	3028.1888	3034.5718	3037.1401	3071.8707	3079.5793	3105.3053	3109.7236	3113.1267	3155.9111	3161.8531	3177.7955	3193.7771
CCC1=CC=CC=C1C	CCc1ccccc1C	
InChI=1S/C9H12/c1-3-9-7-5-4-6-8(9)2/h4-7H,3H2,1-2H3	InChI=1S/C9H12/c1-3-9-7-5-4-6-8(9)2/h4-7H,3H2,1-2H3
