20
gdb 86564	2.31661	1.36438	1.2917	6.6048	74.81	-0.2357	0.0296	0.2654	1122.4899	0.17219	-440.314951	-440.306168	-440.305223	-440.348148	33.758	
C	-0.8269319363	 1.2024384565	-0.0059652936	-0.439409
C	-0.1392939586	-0.154283083	-0.0680743523	 0.044231
C	 0.8505039416	-0.5015493488	-1.222708882	-0.028214
N	 1.5931012163	 0.6842140438	-1.6730975117	-0.514491
H	 2.1612503988	 1.2826485559	-0.1111264838	 0.319754
H	 2.3477835073	 0.4121879123	-2.2967200478	 0.246295
H	 0.9900052368	 1.317553758	-2.1902189791	 0.24687
C	 1.6990726805	-1.292570845	-0.1939856081	-0.242648
C	 0.9679203924	-0.5551426286	 0.9742386568	-0.1511
C	 1.7410359228	 0.5795672858	 1.646461367	 0.386799
O	 2.3430165869	 1.4735291006	 0.8483786472	-0.391566
O	 1.8113060065	 0.6691107498	 2.8467749812	-0.339298
H	-0.111484382	 2.0286017193	 0.0010708469	 0.135631
H	-1.5063255848	 1.3380285123	-0.8557461656	 0.110207
H	-1.4251586118	 1.2824255292	 0.907336001	 0.136259
H	-0.899510648	-0.9419309401	-0.0437562445	 0.08836
H	 0.4283744964	-1.0746192109	-2.0578802737	 0.065949
H	 1.4644005247	-2.3588786535	-0.2000415928	 0.114161
H	 2.7827331386	-1.1687146794	-0.2639036553	 0.11334
H	 0.6202934018	-1.1920082743	 1.78645835	 0.098873
88.2717	155.3163	191.6025	209.5618	254.7287	267.2662	350.5458	364.5399	423.5014	454.2947	526.4594	615.5152	717.117	754.0889	799.5656	837.4005	857.2175	914.4598	926.1361	966.8514	989.5069	1009.7152	1044.5764	1075.6435	1089.6503	1137.4763	1159.6491	1195.2702	1228.362	1253.851	1270.8475	1306.5697	1328.2009	1339.698	1371.3209	1381.1305	1414.842	1477.0014	1487.56	1495.3276	1506.4823	1644.7288	1840.7394	3009.6158	3031.9202	3051.6214	3067.7767	3095.6043	3117.0937	3121.8181	3127.0229	3178.5277	3490.2137	3568.7912
CC1C([NH3+])CC1C([O-])=O	C[C@H]1[C@@H](N)C[C@H]1C(=O)O	
InChI=1S/C6H11NO2/c1-3-4(6(8)9)2-5(3)7/h3-5H,2,7H2,1H3,(H,8,9)	InChI=1S/C6H11NO2/c1-3-4(6(8)9)2-5(3)7/h3-5H,2,7H2,1H3,(H,8,9)/t3-,4-,5+/m1/s1
