19
gdb 124461	3.15591	1.32769	1.1793	3.0974	76.53	-0.2837	-0.0173	0.2665	1126.7072	0.15921	-415.390281	-415.38143	-415.380486	-415.424116	32.916	
C	-0.0143210515	 1.5408777242	 0.0074450627	-0.399577
C	-0.0080962236	 0.0092712788	 0.0197520331	 0.246522
C	 0.7618813175	-0.5268357749	 1.2372629428	-0.399117
C	-1.4411833302	-0.5458176224	-0.0092778998	-0.399095
N	 0.6874608293	-0.4738005219	-1.2023119332	 0.13242
N	 0.8471221965	-1.7671734231	-1.4616597187	-0.248262
C	 1.4986433744	-1.7263231293	-2.6167151792	 0.075762
N	 1.7269250162	-0.4665571897	-3.0436230564	-0.219204
N	 1.2037453401	 0.3196554909	-2.1317738266	-0.12408
H	 0.9997036044	 1.9455358594	 0.0027147852	 0.13908
H	-0.5379902293	 1.9323725359	-0.8669033835	 0.139163
H	-0.526617119	 1.8903655029	 0.9080510509	 0.117472
H	 0.2599315695	-0.2097667196	 2.1555828986	 0.123305
H	 0.8036404237	-1.617835838	 1.2195791928	 0.144785
H	 1.7843308098	-0.138687193	 1.2519340845	 0.128827
H	-1.9852193064	-0.1711373211	-0.8810099456	 0.12886
H	-1.4332433317	-1.6371191223	-0.0461302414	 0.144726
H	-1.9740871045	-0.2290800655	 0.8915513775	 0.123318
H	 1.8098061848	-2.6089388212	-3.1516472136	 0.145096
34.9974	144.5388	213.286	226.0506	268.4252	278.9218	332.478	338.6643	348.8341	454.6528	485.782	595.619	722.7381	734.2981	825.9922	902.2066	932.0368	939.3062	971.3826	1028.2924	1041.8678	1046.5316	1055.4564	1161.4634	1193.8675	1220.1515	1248.7761	1253.0726	1301.8927	1324.037	1348.8764	1398.3708	1403.2618	1434.7529	1470.4557	1481.7229	1487.3599	1490.897	1497.1628	1499.4116	1520.8712	3046.3779	3048.9613	3057.4749	3119.6474	3121.7463	3131.6133	3135.073	3139.6704	3141.5015	3284.1404
CC(C)(C)N1N=CN=N1	CC(C)(C)n1ncnn1	
InChI=1S/C5H10N4/c1-5(2,3)9-7-4-6-8-9/h4H,1-3H3	InChI=1S/C5H10N4/c1-5(2,3)9-7-4-6-8-9/h4H,1-3H3
