19
gdb 60313	3.92149	0.77044	0.74901	3.0349	78.86	-0.2397	-0.0885	0.1513	1577.5502	0.156417	-419.221068	-419.210641	-419.209696	-419.257475	36.522	
C	 0.2526631457	 1.3675862764	 0.2371016213	-0.391288
C	-0.0524659639	-0.108701299	-0.0250917765	 0.060656
C	-0.0383252299	-0.9198667403	 1.2815044642	-0.382109
N	-1.3057442588	-0.1851279034	-0.7939160247	-0.282185
C	-1.7042315907	-1.4876168389	-1.2587618329	-0.268324
C	-2.6868821231	-2.2258868079	-0.3580718904	 0.285605
O	-3.2072171513	-1.7514621074	 0.6198727066	-0.272099
C	-3.0283718749	-3.5928271818	-0.8084730819	 0.226181
N	-3.2548819937	-4.6634515945	-1.182794963	-0.28994
H	 1.2207410523	 1.4833723015	 0.7327889782	 0.11748
H	 0.2650341433	 1.9308457714	-0.6992383373	 0.125346
H	-0.5087451307	 1.8096902285	 0.8911537977	 0.115604
H	 0.7306620773	-0.5069282347	-0.6854200057	 0.084746
H	-0.2083848686	-1.9867235821	 1.1038746627	 0.106049
H	 0.9305682531	-0.8245099027	 1.7829313761	 0.114941
H	-0.8159947179	-0.5669091013	 1.966664942	 0.126176
H	-2.0639639827	 0.2308226108	-0.2605619591	 0.227407
H	-2.2075266018	-1.4277238113	-2.2402770166	 0.148341
H	-0.831377174	-2.1302051433	-1.4283163006	 0.147415
42.124	61.9537	78.6586	149.2438	221.9928	244.2691	245.8959	269.9649	281.0658	351.0987	411.8402	440.1716	546.8957	557.32	598.7549	695.6842	802.7118	852.4243	923.5042	932.5396	948.7569	994.8861	1059.7445	1140.5934	1153.7371	1182.1725	1203.4615	1278.3352	1338.4149	1356.8903	1381.9789	1397.8933	1418.1564	1441.4847	1479.7186	1485.047	1491.6494	1506.3026	1522.9354	1795.515	2333.0427	2960.3157	3007.8495	3029.8125	3034.596	3059.3822	3097.4492	3100.2365	3109.5791	3126.2833	3514.8955
CC(C)NCC(=O)C#N	CC(C)NCC(=O)C#N	
InChI=1S/C6H10N2O/c1-5(2)8-4-6(9)3-7/h5,8H,4H2,1-2H3	InChI=1S/C6H10N2O/c1-5(2)8-4-6(9)3-7/h5,8H,4H2,1-2H3
