15
gdb 6351	5.59908	1.09465	0.95594	5.9575	60.59	-0.2518	0.0193	0.2711	1189.3732	0.118523	-433.188757	-433.179582	-433.178638	-433.223683	31.224	
C	 0.0794794315	 1.442293966	-0.0738283988	-0.320736
N	-0.0770128224	-0.001817613	-0.1208595138	-0.365983
C	-1.300517243	-0.5599300426	 0.1852554148	 0.510499
O	-2.2475320095	 0.0665150136	 0.5948034659	-0.355599
N	-1.2850103236	-1.9613084229	 0.035660923	-0.442147
C	-2.4213518062	-2.7699823804	-0.1112404159	 0.460845
N	-2.1136253054	-4.1156659058	 0.0654343428	-0.568533
O	-3.5139871591	-2.3704526025	-0.4239308294	-0.33662
H	 1.1289683912	 1.6917943543	 0.1030723384	 0.121572
H	-0.2541201269	 1.9341664881	-0.9964259881	 0.129263
H	-0.5267469679	 1.8225097693	 0.7485759409	 0.16772
H	 0.507398253	-0.4991946122	-0.7743988414	 0.238853
H	-0.3873381654	-2.4175094246	-0.0040322122	 0.245448
H	-1.4426687917	-4.3500480607	 0.7824509706	 0.250093
H	-2.9409449646	-4.6940167466	 0.0784815732	 0.265326
51.966	64.8437	72.5327	141.9637	187.2505	295.2973	365.8306	384.9373	423.9468	466.4641	494.6003	573.3409	615.8534	725.3798	772.579	797.1267	953.6775	982.5431	1101.7314	1140.059	1150.276	1173.9194	1211.1629	1323.4813	1443.7512	1485.5022	1494.9975	1510.0779	1543.8421	1625.9622	1806.4686	1870.5754	3023.3882	3095.5631	3156.8766	3567.2419	3619.6822	3629.9895	3680.7393
CNC(=O)NC(N)=O	CNC(=O)NC(=O)N	
InChI=1S/C3H7N3O2/c1-5-3(8)6-2(4)7/h1H3,(H4,4,5,6,7,8)	InChI=1S/C3H7N3O2/c1-5-3(8)6-2(4)7/h1H3,(H4,4,5,6,7,8)
