21
gdb 71599	2.12313	1.9271	1.60896	1.8978	81.62	-0.2233	0.0799	0.3032	1004.6813	0.182343	-387.056214	-387.047948	-387.047004	-387.088328	33.198	
C	 0.0080284584	 1.5142501498	-0.0098591885	-0.505527
C	 0.057317118	 0.0067680718	-0.0335123726	 0.313631
C	 0.8601363345	-0.710628747	-1.1181836976	-0.294774
C	 0.6097358197	-2.2018285125	-0.7402505199	-0.256932
C	-0.2820358101	-2.0187335743	 0.4810056216	-0.072275
C	 0.192061568	-0.792134506	 1.3029789047	 0.008124
O	-1.1884305538	-0.466834829	 1.683161954	-0.357501
C	-1.2544891028	-0.8199529246	 0.2497101642	 0.390899
C	-2.5851161556	-0.7721136017	-0.4344952219	-0.527034
H	 1.0115260989	 1.9421493129	 0.0950993052	 0.112716
H	-0.420332763	 1.9115297903	-0.9374786256	 0.111512
H	-0.6039205018	 1.8555373539	 0.829500321	 0.134887
H	 0.4981666496	-0.4627804503	-2.1220007318	 0.097648
H	 1.9208959745	-0.4399639515	-1.0846180286	 0.098855
H	 0.1092394531	-2.7604401163	-1.5374596649	 0.100634
H	 1.5343848063	-2.7361929633	-0.5013776653	 0.101775
H	-0.6607862736	-2.8834469772	 1.0256110666	 0.071761
H	 0.9590591801	-0.7261060338	 2.0765691408	 0.08014
H	-2.9939482019	 0.243212708	-0.4171832389	 0.132983
H	-2.489045717	-1.0865396409	-1.4790511372	 0.124413
H	-3.2971776815	-1.4387514183	 0.0618452847	 0.134065
167.4554	186.9327	197.0752	209.5161	241.1803	291.8437	386.3835	422.4034	490.7478	632.0027	661.0277	682.6421	710.5701	726.3478	772.0357	834.0029	884.9189	911.1247	921.7006	945.3262	959.4327	996.3472	1014.564	1060.9772	1097.4529	1120.5246	1140.9834	1157.5526	1214.1775	1224.9169	1239.6645	1249.3517	1251.5519	1283.6947	1301.1124	1344.6235	1382.9654	1403.0857	1415.4037	1473.7244	1485.5238	1488.4501	1494.9467	1500.6141	1509.1871	3026.455	3034.7858	3037.2569	3050.359	3068.9718	3083.1577	3091.4281	3101.174	3106.8452	3109.4508	3115.8296	3127.6604
CC12CCC3C1OC23C	C[C@@]12CC[C@H]3[C@@H]1O[C@@]23C	
InChI=1S/C8H12O/c1-7-4-3-5-6(7)9-8(5,7)2/h5-6H,3-4H2,1-2H3	InChI=1S/C8H12O/c1-7-4-3-5-6(7)9-8(5,7)2/h5-6H,3-4H2,1-2H3/t5-,6-,7+,8+/m0/s1
