18
gdb 120415	3.28489	0.93878	0.81387	1.5041	70.68	-0.2625	0.0112	0.2737	1437.6474	0.145663	-476.197649	-476.187972	-476.187028	-476.233181	33.581	
C	-0.0356210845	 1.2732741616	 0.3113053924	-0.227941
O	-0.0444311218	-0.0987756387	-0.007085444	-0.236798
C	-1.3333652811	-0.6613741369	 0.0388578938	-0.052967
C	-1.2168329284	-2.1313881626	-0.2825386049	 0.068151
O	-0.6827925679	-2.923031787	 0.8450060049	-0.25834
C	-1.8710651942	-3.5918683913	 0.9911689873	 0.397443
N	-2.2906005625	-4.3870543574	 1.8654351183	-0.553871
C	-2.5231590483	-2.9623639066	-0.2244487093	-0.015662
O	-3.7088737326	-2.242403079	 0.0009952562	-0.427077
H	 0.9996680933	 1.6156194873	 0.2463857041	 0.131202
H	-0.6502150485	 1.8589737866	-0.3906040681	 0.105878
H	-0.4089582694	 1.457818297	 1.3306312543	 0.108629
H	-1.797794136	-0.5284891483	 1.0276300487	 0.100907
H	-2.0043255404	-0.1917970752	-0.700617816	 0.105506
H	-0.5902900012	-2.2855713553	-1.1637190062	 0.106769
H	-1.5970623969	-4.5542691841	 2.5962099035	 0.234044
H	-2.6290151334	-3.6552690341	-1.0689516655	 0.108222
H	-4.1903284962	-2.701230696	 0.6993828105	 0.305905
55.4497	94.6202	95.3374	130.6598	169.6587	232.2542	251.505	282.4669	347.0121	418.4251	498.7336	555.5601	675.154	778.4289	855.2751	864.7961	887.0115	941.7861	1001.3813	1027.495	1046.9004	1127.057	1154.4361	1170.0714	1184.8164	1204.0243	1228.4199	1235.2117	1259.0898	1313.2718	1348.9842	1379.6333	1386.9043	1436.2519	1479.749	1486.148	1494.8595	1515.822	1825.7426	2965.1285	2975.8162	3011.2642	3019.0145	3026.6343	3100.2675	3119.1853	3479.6191	3801.1483
COCC1OC(=N)C1O	COC[C@H]1O[C]([NH])[C@H]1O	
InChI=1S/C5H9NO3/c1-8-2-3-4(7)5(6)9-3/h3-4,6-7H,2H2,1H3	InChI=1S/C5H9NO3/c1-8-2-3-4(7)5(6)9-3/h3-4,6-7H,2H2,1H3/t3-,4+/m1/s1
