22
gdb 64159	2.07272	1.46881	1.33287	4.0588	85.76	-0.2929	0.0332	0.3261	1151.7987	0.192781	-367.234476	-367.224629	-367.223685	-367.268225	37.97	
C	-0.6048947012	 1.4302700178	 0.1858668304	-0.456233
C	-0.0183651323	 0.0362934899	-0.0091380765	 0.292473
C	-1.0754961182	-0.9030440457	-0.5974136002	-0.439463
C	 1.3260721152	-0.0619217857	-0.794001603	-0.260041
C	 1.8560037348	-1.0785464659	 0.2461906136	-0.259045
C	 0.7379842928	-0.616277437	 1.2398109476	 0.126604
C	 1.2678544972	 0.3844405174	 2.2793317608	-0.44799
C	 0.0179604979	-1.6836939602	 1.9262348337	 0.243312
N	-0.5556249919	-2.529018268	 2.4694540532	-0.361565
H	 0.1257707496	 2.1396678414	 0.5824390967	 0.113767
H	-0.9563604259	 1.8229214108	-0.7750202801	 0.119638
H	-1.464024352	 1.4106427865	 0.8659249418	 0.123366
H	-1.4222038131	-0.5123161548	-1.5601557506	 0.1125
H	-0.6846195856	-1.9107531034	-0.7661657168	 0.124411
H	-1.9411860099	-0.9930724444	 0.0659688773	 0.133129
H	 1.2542164061	-0.4063059022	-1.8282013753	 0.104327
H	 1.8846738032	 0.8778180531	-0.7816785608	 0.102738
H	 1.7273530557	-2.1149693305	-0.0693987559	 0.12417
H	 2.8783245917	-0.9476356782	 0.607357311	 0.109493
H	 1.8646712739	 1.1636139779	 1.7976899042	 0.123732
H	 0.4532373768	 0.8631844353	 2.8289780878	 0.135632
H	 1.9075024352	-0.1311871942	 3.001559461	 0.135046
95.0314	147.4367	193.447	207.5396	251.3199	273.8118	275.0885	314.1573	335.8317	361.5257	386.6198	425.4845	539.0103	564.9017	597.0676	655.8417	753.285	860.3798	888.7494	917.4458	938.3831	956.8931	960.6012	981.6887	1012.1131	1035.4193	1129.5151	1168.3867	1180.3331	1220.5263	1227.608	1245.5222	1260.2682	1285.6915	1303.279	1404.44	1411.3921	1424.3233	1477.857	1480.3173	1483.0544	1492.6536	1496.4047	1498.5279	1505.2703	1510.8677	2342.472	3028.8367	3034.8751	3044.2157	3060.4531	3074.696	3089.8549	3102.7346	3107.899	3110.8437	3112.9879	3118.3878	3123.5653	3133.775
CC1(C)CCC1(C)C#N	CC1(C)CC[C@]1(C)C#N	
InChI=1S/C8H13N/c1-7(2)4-5-8(7,3)6-9/h4-5H2,1-3H3	InChI=1S/C8H13N/c1-7(2)4-5-8(7,3)6-9/h4-5H2,1-3H3/t8-/m1/s1
