17
gdb 54732	3.05188	1.43083	1.39769	2.5163	70.84	-0.2295	0.0221	0.2516	997.5727	0.136018	-417.937128	-417.929147	-417.928203	-417.969715	30.819	
N	 1.1489591548	-0.6225529925	 0.5684700043	-0.500725
C	 0.1090962015	 0.1263555081	 0.1065329005	 0.330933
O	 0.1407695188	 1.3360001943	 0.0023435544	-0.362877
C	-1.142212969	-0.6975694174	-0.1364560597	-0.086003
C	-2.0123747477	-0.8541917628	-1.3169672516	-0.050339
C	-1.3549933279	-0.9858179302	-2.7000278387	-0.063122
C	 0.1360550021	-0.8390778827	-2.6517033577	-0.311066
C	-0.5127298421	-2.0853870615	-2.1033499236	-0.014541
N	-1.2326601101	-2.0384200935	-0.7592740362	-0.19151
H	 2.0161457616	-0.1646144836	 0.7957815915	 0.263449
H	 1.0984423078	-1.6266027731	 0.5858933437	 0.274028
H	-1.7212073717	-0.7152411753	 0.7893261137	 0.131106
H	-3.0924211098	-0.8224012267	-1.2107358901	 0.104758
H	-1.9335326153	-0.9796369837	-3.6132119544	 0.099548
H	 0.6186386555	-1.0233706341	-3.6078874061	 0.117154
H	 0.6256580187	-0.0756784455	-2.0645788287	 0.154358
H	-0.283618397	-3.0754446299	-2.4749986612	 0.104849
80.0937	119.0125	175.5378	232.5987	306.0621	365.4485	475.1591	537.8176	577.0299	639.1275	667.3084	685.7843	705.6842	758.9883	803.474	873.559	897.2919	926.7583	950.1636	1008.3075	1020.391	1055.1958	1060.9953	1068.5693	1074.9119	1092.2393	1114.4909	1187.743	1235.5684	1273.8201	1316.6164	1341.7593	1361.6454	1443.5484	1494.9264	1608.6845	1797.1298	3090.4607	3139.4821	3156.2451	3194.9598	3211.1736	3240.96	3599.65	3738.4765
NC(=O)C1C2C3CC3N12	NC(=O)[C@H]1[C@H]2[C@H]3C[C@H]3N12	
InChI=1S/C6H8N2O/c7-6(9)5-4-2-1-3(2)8(4)5/h2-5H,1H2,(H2,7,9)	InChI=1S/C6H8N2O/c7-6(9)5-4-2-1-3(2)8(4)5/h2-5H,1H2,(H2,7,9)/t2-,3+,4+,5+,8?/m0/s1
