18
gdb 74740	2.41029	1.84015	1.37987	3.4639	76.09	-0.226	-0.0074	0.2186	995.8822	0.150213	-401.990644	-401.9833	-401.982356	-402.0222	29.582	
C	 0.0252440019	 1.4735645158	 0.0642957749	-0.512904
C	-0.0478567778	-0.012878191	-0.0227630007	 0.341025
C	-0.0631354977	-0.8191275488	-1.0905546104	-0.19988
C	-0.008653085	-2.2603706565	-0.5593070233	-0.049494
C	-0.8775355369	-2.109409249	 0.7101234327	-0.211047
C	-0.0122918957	-0.9279168882	 1.2192159309	-0.224246
C	 1.3985652564	-1.5712468756	 1.1470570086	 0.416372
O	 2.3771981844	-1.3095990771	 1.8046575821	-0.382135
N	 1.3006796184	-2.484324697	 0.106828362	-0.303902
H	 0.9396242563	 1.788826373	 0.5817334665	 0.146996
H	 0.0157688567	 1.9346074176	-0.9270638449	 0.126753
H	-0.815644491	 1.8793185436	 0.6405735531	 0.129714
H	-0.0301342318	-0.5339034361	-2.134222712	 0.098308
H	-0.2516262124	-3.0649940867	-1.2514091469	 0.077686
H	-1.9057945083	-1.8157102559	 0.4942779198	 0.107099
H	-0.8508412381	-2.9955232197	 1.3497160421	 0.109943
H	-0.2356851539	-0.4651866831	 2.1780153605	 0.082264
H	 2.1314296945	-2.6792472952	-0.4322619251	 0.247447
128.5377	174.0423	202.9572	306.1977	431.702	460.5629	471.5637	538.8466	556.2462	614.2356	674.5018	740.0304	795.2687	816.2237	851.9958	896.3667	902.9602	946.01	957.465	991.2067	1012.6101	1032.6657	1065.3841	1126.0149	1148.1262	1167.1471	1214.6784	1238.9382	1260.5048	1261.6044	1320.889	1332.7031	1379.761	1412.3268	1477.1212	1485.5598	1493.1194	1690.5971	1842.3438	3020.8625	3068.9157	3070.3385	3112.4336	3131.6214	3134.5802	3146.6051	3212.6853	3618.7422
CC1=CC2CC1C(=O)N2	CC1=C[C@@H]2C[C@H]1C(=O)N2	
InChI=1S/C7H9NO/c1-4-2-5-3-6(4)7(9)8-5/h2,5-6H,3H2,1H3,(H,8,9)	InChI=1S/C7H9NO/c1-4-2-5-3-6(4)7(9)8-5/h2,5-6H,3H2,1H3,(H,8,9)/t5-,6-/m1/s1
