19
gdb 90551	4.49577	1.00174	0.92498	4.7554	79.59	-0.2234	0.0271	0.2504	1305.6839	0.159421	-419.180778	-419.172237	-419.171293	-419.214892	31.225	
C	-0.0457872483	 1.6565452309	 0.2846940439	-0.327419
N	 0.0431220455	 0.223446574	 0.1201259288	-0.067059
C	-1.203356345	-0.5706514491	 0.2051322865	-0.182367
C	-0.4835572836	-1.5985221099	 1.1088476048	-0.035274
C	 0.6959362342	-0.5768881555	 1.1767648166	-0.020042
C	 1.6299592632	-1.6710600672	 0.5938410398	-0.171081
N	 0.4379389646	-2.5180845007	 0.4434975387	-0.031927
C	 0.3019252069	-3.7642914692	-0.0599315244	 0.129621
O	 1.2046962526	-4.4174288048	-0.5415468492	-0.33075
H	 0.958265942	 2.0932474636	 0.2881588033	 0.125577
H	-0.5930109182	 2.0894487681	-0.559138074	 0.127727
H	-0.5590770049	 1.9657971968	 1.2155329893	 0.090911
H	-2.0063546311	-0.0584059088	 0.7592755097	 0.092976
H	-1.5960317656	-0.9215088552	-0.7550141795	 0.112387
H	-1.0245655754	-2.0085264083	 1.9626567595	 0.0963
H	 0.9976005587	-0.0464290077	 2.0821579672	 0.079671
H	 2.1216787208	-1.4071932751	-0.345445913	 0.130354
H	 2.3587204223	-2.0924385169	 1.2957188782	 0.116997
H	-0.7439096188	-4.1287569848	 0.0233687239	 0.063398
29.9554	109.9236	186.3251	209.059	255.7639	300.9066	320.955	353.3096	426.6456	541.6597	672.9112	761.9288	792.522	853.0574	889.9911	951.4518	990.083	999.5731	1032.1482	1036.7394	1040.5568	1122.976	1144.632	1157.5975	1174.5282	1189.7195	1212.5782	1233.7448	1250.6962	1290.3164	1310.5409	1329.3457	1347.9046	1400.0451	1446.7308	1455.1003	1486.4336	1496.1792	1501.6616	1507.0487	1792.7569	2910.0083	2921.678	2974.5778	3037.5378	3058.4431	3066.7424	3089.4556	3101.2856	3102.995	3109.0518
CN1CC2C1CN2C=O	CN1C[C@@H]2[C@H]1CN2C=O	
InChI=1S/C6H10N2O/c1-7-2-6-5(7)3-8(6)4-9/h4-6H,2-3H2,1H3	InChI=1S/C6H10N2O/c1-7-2-6-5(7)3-8(6)4-9/h4-6H,2-3H2,1H3/t5-,6-/m1/s1
