21
gdb 92600	2.08605	1.67012	1.47492	2.2954	77.32	-0.2411	0.0717	0.3128	1061.9866	0.182738	-424.232415	-424.223746	-424.222802	-424.265179	34.033	
C	 0.2320680609	 1.5796425876	-0.1914664464	-0.420574
C	 0.1153560141	 0.0888772937	 0.0474556728	 0.120506
O	 0.8755352777	-0.7022270022	-0.9000560179	-0.326859
C	 1.3560077845	-1.5883129725	 0.1424077401	 0.114227
C	 2.8747830404	-1.6024302986	 0.2341782549	-0.228819
C	 3.2148236597	-0.2212644096	 0.8314311687	-0.214475
C	 2.06829072	 0.0463817276	 1.8319669593	-0.292745
C	 0.8182755422	-0.6294322242	 1.2346375713	 0.321004
O	-0.029432259	-1.2200466754	 2.1918415425	-0.484813
H	 1.2695341854	 1.9224260501	-0.150892765	 0.122337
H	-0.166964745	 1.8305182721	-1.1795320166	 0.130104
H	-0.3492119083	 2.1329584181	 0.5547158771	 0.112235
H	-0.9424024818	-0.2131934475	 0.0299679655	 0.073434
H	 0.8803040509	-2.5732322311	 0.0900907617	 0.075388
H	 3.182828838	-2.4064721584	 0.9141435144	 0.100967
H	 3.3451232341	-1.785081429	-0.7361641108	 0.108551
H	 4.1983612432	-0.1903063819	 1.3075920666	 0.096726
H	 3.2118622624	 0.5305904037	 0.0371965938	 0.11629
H	 2.2781678855	-0.4584690381	 2.7822504037	 0.103562
H	 1.9266016731	 1.1105493454	 2.0462188458	 0.094957
H	-0.2010407682	-0.5747113296	 2.8854968983	 0.277998
111.9735	193.7319	198.2035	205.3086	230.4311	270.5017	341.6432	381.6189	446.8882	502.6709	550.8036	614.1083	643.788	785.2997	827.8679	860.3851	880.09	902.4129	934.6472	951.9115	974.908	1017.9926	1044.2538	1066.4811	1095.754	1133.8013	1140.09	1160.5104	1203.5402	1218.5441	1236.7402	1281.4786	1294.4112	1318.0521	1325.9529	1342.6726	1354.1256	1387.2911	1403.611	1418.3548	1469.1278	1476.0065	1487.0498	1494.2499	1502.6493	2991.2115	3034.0051	3034.932	3036.828	3058.3386	3060.5609	3082.4997	3094.4899	3101.9491	3108.337	3117.6704	3810.1327
CC1OC2CCCC12O	C[C@H]1O[C@H]2CCC[C@@]12O	
InChI=1S/C7H12O2/c1-5-7(8)4-2-3-6(7)9-5/h5-6,8H,2-4H2,1H3	InChI=1S/C7H12O2/c1-5-7(8)4-2-3-6(7)9-5/h5-6,8H,2-4H2,1H3/t5-,6+,7-/m1/s1
