13
gdb 45921	2.98858	1.50809	1.02852	4.0753	63.17	-0.2814	-0.0784	0.2029	1057.8721	0.090489	-489.942817	-489.935369	-489.934425	-489.975412	27.022	
N	-0.1093715665	 1.3464899157	 0.0307482768	-0.494311
C	-0.0079607291	 0.08291172	 0.0626639573	 0.368679
C	-1.2531608045	-0.7648572063	-0.0291884816	-0.137312
O	-1.1914083808	-1.9958685249	 0.6999868994	-0.228024
C	-0.0576927431	-2.7280299673	 0.7142380815	 0.350522
O	-0.0484809934	-3.8504449628	 1.117438473	-0.275099
C	 1.2534925247	-2.0307849474	 0.2781021264	 0.28405
O	 2.2886260691	-2.6362759591	 0.1882159961	-0.298978
N	 1.1683228035	-0.6623996687	 0.0889153911	-0.384117
H	 0.8001967084	 1.8119903883	 0.0239274233	 0.22376
H	-2.0957388001	-0.2049804933	 0.3720768973	 0.172457
H	-1.453150229	-0.9883605776	-1.085213206	 0.151948
H	 2.0566317407	-0.1898923367	-0.0338710645	 0.266426
69.0709	116.9832	163.6451	342.963	389.851	417.9553	452.8822	471.9371	550.4723	626.206	650.657	665.2742	797.2491	822.7136	888.7482	930.2768	1031.4465	1060.6075	1132.2577	1169.6211	1260.1178	1322.2938	1389.9023	1409.8502	1418.6064	1492.613	1752.5565	1832.8242	1870.3868	3032.664	3160.7676	3460.3426	3566.3614
N=C1COC(=O)C(=O)N1	[NH][C]1COC(=O)C(=O)N1	
InChI=1S/C4H4N2O3/c5-2-1-9-4(8)3(7)6-2/h1H2,(H2,5,6,7)	InChI=1S/C4H4N2O3/c5-2-1-9-4(8)3(7)6-2/h1H2,(H2,5,6,7)
