12
gdb 21621	3.95535	2.05415	1.35219	5.4961	60.5	-0.2467	-0.0595	0.1872	821.722	0.086299	-410.885945	-410.87925	-410.878306	-410.916824	24.678	
N	-0.0097396836	 1.3401891625	-0.0534306211	-0.553638
C	-0.0084814446	-0.0136172073	-0.0218973675	 0.406958
N	-1.1566723343	-0.6432982199	-0.0098803815	-0.399574
C	-1.1548372508	-2.0200798713	-0.0060767496	 0.443362
O	-2.1336711536	-2.7318299558	 0.0012355119	-0.383008
N	 0.1301914132	-2.6236141685	-0.0068399139	-0.261144
N	 1.3024376057	-2.0036336913	-0.013991263	-0.135205
C	 1.2615017317	-0.7077972395	-0.0231751245	-0.063525
H	 0.833924901	 1.8676989157	 0.0813040932	 0.269904
H	-0.8955885735	 1.8104362426	 0.0375203455	 0.276345
H	 0.1610565384	-3.6335171721	-0.0001331996	 0.27919
H	 2.2104142306	-0.1835498452	-0.0330894099	 0.120334
133.9097	178.1338	203.3517	349.357	412.4244	518.8359	543.5344	551.8418	590.376	677.3465	754.8257	757.5522	791.5077	855.7283	941.2182	1003.379	1098.8181	1175.0718	1252.427	1351.9713	1423.0384	1478.4281	1568.9533	1626.4268	1663.6762	1822.8989	3191.0036	3608.3412	3611.2956	3745.3751
NC1=NC(=O)NN=C1	Nc1nc(=O)[nH]nc1	
InChI=1S/C3H4N4O/c4-2-1-5-7-3(8)6-2/h1H,(H3,4,6,7,8)	InChI=1S/C3H4N4O/c4-2-1-5-7-3(8)6-2/h1H,(H3,4,6,7,8)
