23
gdb 119097	2.17488	1.09337	0.8642	2.6256	81.72	-0.2585	0.0697	0.3282	1445.9457	0.204658	-425.40316	-425.392719	-425.391775	-425.438942	38.298	
O	-1.924684227	 1.3576631398	-1.7336027115	-0.419996
C	-1.8928672607	-0.0610130716	-1.6424231526	-0.087135
C	-1.4864703167	-0.4203009275	-0.2173589187	-0.24278
C	-1.6095649904	-1.9045429134	 0.1344028212	 0.342054
C	-0.7608078422	-2.7938991124	-0.7724076997	-0.128633
O	 0.5927849393	-2.3717419076	-0.6818514028	-0.425708
C	-1.3761903	-2.2509724177	 1.6396209099	-0.257679
C	-2.6556044775	-3.1306282566	 1.6251730024	-0.2148
C	-3.0546714756	-2.4870125342	 0.2691651733	-0.268554
H	-2.119964605	 1.5944689996	-2.6447802699	 0.282355
H	-2.8811960185	-0.4928578864	-1.8744588323	 0.080845
H	-1.1727548218	-0.4826615466	-2.3598239621	 0.08921
H	-0.4556484374	-0.0907493005	-0.0513716086	 0.120035
H	-2.1215696592	 0.1590372431	 0.4635667042	 0.095225
H	-0.8678877123	-3.8443496849	-0.4573245748	 0.080588
H	-1.128397804	-2.7314633484	-1.8097497074	 0.083009
H	 1.1298875167	-2.9553999859	-1.2249884102	 0.287396
H	-0.4268363569	-2.7363888598	 1.8767562728	 0.103876
H	-1.4824940704	-1.3707260799	 2.279705744	 0.095796
H	-2.4359606292	-4.1978456909	 1.5355430896	 0.099655
H	-3.3535727129	-2.9997461875	 2.4551110665	 0.096698
H	-3.8008692416	-1.695402278	 0.3829426756	 0.099889
H	-3.3928942967	-3.1619724028	-0.5236497687	 0.088655
64.4664	86.8195	108.8915	139.4348	179.115	234.5731	252.0692	270.2976	332.0721	336.3368	386.2463	403.6437	514.7134	672.1789	739.8165	796.4415	800.2695	858.054	907.0486	928.5306	945.5043	980.4061	1008.7271	1026.7154	1056.1098	1066.0482	1086.1285	1119.2142	1178.3647	1199.1903	1211.0559	1224.0284	1245.9319	1255.2115	1260.8782	1265.9215	1281.1048	1298.4659	1323.0313	1338.5405	1359.2029	1455.0669	1461.7459	1477.9003	1483.874	1489.0894	1508.0865	1520.7987	1527.7486	2957.0654	2963.2276	2986.9681	2999.147	3035.45	3043.4017	3057.6604	3062.7721	3086.6261	3089.6416	3105.1232	3119.77	3829.1736	3833.428
OCCC1(CO)CCC1	OCCC1(CO)CCC1	
InChI=1S/C7H14O2/c8-5-4-7(6-9)2-1-3-7/h8-9H,1-6H2	InChI=1S/C7H14O2/c8-5-4-7(6-9)2-1-3-7/h8-9H,1-6H2
