20
gdb 22079	2.99447	0.98146	0.9295	1.0469	79.5	-0.2305	0.0098	0.2403	1364.5035	0.167065	-440.236884	-440.226383	-440.225439	-440.272765	38.412	
C	-0.8731304846	 1.058817715	 0.0566324933	-0.475251
C	 0.1649390407	-0.0326762329	 0.0960426056	 0.34828
N	 0.8413285798	-0.3239296663	 1.143865756	-0.180253
O	 0.4734751557	 0.4824064594	 2.2355799463	-0.401334
C	 0.4052869366	-0.8336438494	-1.1306324695	-0.120884
C	 1.3686443887	-2.0037815279	-1.170360799	-0.357831
C	-0.1106709761	-2.2550720648	-1.2904625155	 0.400315
C	-0.86658328	-2.9549752271	-0.186728014	-0.458138
O	-0.6162764703	-2.4934297894	-2.5806180847	-0.463913
H	-1.2889786216	 1.1745285472	-0.9455066592	 0.122837
H	-1.687665401	 0.8336487342	 0.7534131913	 0.146488
H	-0.4404492242	 2.0092271579	 0.383839717	 0.146763
H	 1.074975886	 0.1765329287	 2.922188962	 0.304085
H	 0.3236470759	-0.2630877678	-2.0510566009	 0.100652
H	 1.9662703296	-2.1102342242	-2.0686499912	 0.109145
H	 1.8627657277	-2.2604679585	-0.2408710837	 0.13045
H	-0.4940576312	-2.6594336765	 0.7961646594	 0.139733
H	-1.934434815	-2.7209400595	-0.2468430477	 0.122324
H	-0.7539082493	-4.0425229531	-0.277267789	 0.105965
H	-0.4650952673	-3.4230069652	-2.7867022464	 0.280568
52.1334	53.9139	120.5343	142.3351	236.9744	267.2487	282.106	299.1959	343.7292	363.7412	393.3174	426.4356	445.2061	492.019	568.4929	650.4118	712.6549	783.4661	872.3731	922.3291	938.2102	967.3195	997.0613	1035.057	1042.2433	1066.4995	1072.9303	1092.5877	1117.3081	1224.9802	1248.3134	1296.1884	1356.6215	1387.0395	1401.2864	1413.8561	1425.5122	1472.7768	1475.0291	1485.7934	1491.8853	1504.6818	1714.0839	3026.7172	3043.6963	3088.0509	3100.6961	3133.8803	3138.7361	3141.1887	3156.1077	3237.3151	3787.2563	3823.6879
CC(=NO)C1CC1(C)O	CC(=NO)[C@H]1C[C@]1(C)O	
InChI=1S/C6H11NO2/c1-4(7-9)5-3-6(5,2)8/h5,8-9H,3H2,1-2H3	InChI=1S/C6H11NO2/c1-4(7-9)5-3-6(5,2)8/h5,8-9H,3H2,1-2H3/t5-,6+/m1/s1
