14
gdb 130166	5.08847	0.94756	0.79952	1.6686	67.76	-0.2162	-0.0049	0.2112	1335.8629	0.102953	-466.20813	-466.200014	-466.199069	-466.241437	29.141	
N	-0.0590492501	 1.3460566188	 0.154718449	-0.579819
C	-0.0007508802	-0.0266742853	 0.048530042	 0.412113
N	-1.0765212443	-0.7959749258	 0.0298293126	-0.297655
N	-0.5117970268	-2.0531325224	-0.0073290072	-0.29834
C	 0.8207846571	-1.942102794	-0.0186434775	 0.52448
O	 1.5783465344	-3.051046471	-0.064695528	-0.229037
C	 2.9442544474	-2.8967854269	-0.0093928469	 0.109723
N	 3.6496276626	-3.9332876856	-0.0775358422	-0.424298
N	 1.2038600763	-0.6851674984	 0.013498136	-0.421376
H	 0.7342274713	 1.8140741362	-0.2576728429	 0.259257
H	-0.9440367635	 1.7366132825	-0.1345072937	 0.26041
H	-1.0820486178	-2.8807568033	-0.0260025394	 0.285342
H	 3.2442485702	-1.8532268477	 0.091917002	 0.156104
H	 4.6355975734	-3.6853861972	-0.0205589038	 0.243095
71.2484	93.6693	154.7652	236.1423	304.9029	349.1575	390.0512	451.2358	462.1671	537.1342	618.2691	715.1369	729.2039	781.6312	838.0684	848.5637	1013.8808	1025.898	1060.4752	1078.5619	1126.7329	1172.7396	1257.0859	1319.4861	1393.5658	1432.6405	1513.801	1596.6482	1605.5926	1659.1973	1754.2395	3136.3774	3520.6832	3574.5016	3680.7288	3686.811
NC1=NNC(OC=N)=N1	Nc1n[nH]c(O[CH][NH])n1	
InChI=1S/C3H5N5O/c4-1-9-3-6-2(5)7-8-3/h1,4H,(H3,5,6,7,8)	InChI=1S/C3H5N5O/c4-1-9-3-6-2(5)7-8-3/h1,4H,(H3,5,6,7,8)
