15
gdb 54242	2.43512	1.46047	1.33777	2.9744	62.7	-0.2528	-0.0015	0.2513	1019.0241	0.111759	-491.104888	-491.096065	-491.095121	-491.138802	31.991	
N	-0.0574188711	 1.3653413139	-0.0820899511	-0.536532
C	 0.0738593856	 0.0385652083	 0.135210768	 0.376308
O	 1.1161749245	-0.5324988699	 0.3915326801	-0.369051
C	-1.2522764369	-0.7417539218	 0.0530022668	 0.173679
O	-2.2947585722	 0.0269907758	-0.5017334285	-0.487432
C	-1.0546649575	-2.1882744599	-0.4690911614	-0.108461
O	-1.3312100056	-2.7110602421	 0.8774369786	-0.248418
C	-1.6176650003	-1.4622574819	 1.3464912862	 0.3837
N	-2.1252411959	-1.0452460889	 2.4135720165	-0.544881
H	 0.7632382693	 1.9467837269	-0.0589009096	 0.2677
H	-0.9473599328	 1.737128249	-0.366823913	 0.27333
H	-2.9929374516	 0.0841483154	 0.1622965913	 0.304286
H	-1.818286949	-2.5135615597	-1.1773850515	 0.126741
H	-0.0438332386	-2.443459375	-0.7821827786	 0.150302
H	-2.3429578478	-1.8040275903	 3.0611267963	 0.23873
48.7924	115.8717	141.2898	206.515	257.7566	286.8486	348.0243	383.9645	438.9564	501.8606	506.2123	629.0907	665.3939	698.6542	736.2103	808.5058	863.7618	904.7083	947.4162	1009.6472	1026.9165	1094.3351	1137.9459	1164.8118	1222.1178	1240.4563	1335.0587	1366.9466	1387.6276	1484.4504	1589.8577	1800.9762	1824.5989	3087.6212	3174.2076	3485.1017	3604.3077	3744.3845	3785.3343
NC(=O)C1(O)COC1=N	NC(=O)[C@@]1(O)CO[C]1[NH]	
InChI=1S/C4H6N2O3/c5-2(7)4(8)1-9-3(4)6/h6,8H,1H2,(H2,5,7)	InChI=1S/C4H6N2O3/c5-2(7)4(8)1-9-3(4)6/h6,8H,1H2,(H2,5,7)/t4-/m0/s1
