17
gdb 24215	4.12638	1.60729	1.38435	2.1644	78.7	-0.2058	0.0518	0.2576	937.987	0.140587	-380.831152	-380.824847	-380.823903	-380.861541	26.594	
C	-0.0328750049	 1.5100189874	-0.0560213019	-0.170125
C	 1.5271660459	 1.3618288589	 0.0086739959	-0.206372
C	 1.14857524	 0.1653306927	 0.9493793628	-0.170125
N	-0.0813511623	-0.0259242811	 0.0427758401	-0.241735
C	 0.6349423324	-0.3210339625	-1.19372424	 0.333066
C	 0.6406755614	-1.1329291837	-2.2867990192	-0.299792
N	 1.7368581385	-0.733463027	-3.0403698852	-0.255857
C	 2.4093133317	 0.3164681047	-2.4262621636	-0.300341
C	 1.7327589532	 0.583819998	-1.2734390267	 0.320787
H	-0.4777712275	 1.9536776779	 0.8393245635	 0.102339
H	-0.4813578253	 1.9185989078	-0.9635244655	 0.109294
H	 2.198685214	 2.1691936675	 0.2994090518	 0.06833
H	 1.8166570733	-0.6969233427	 0.9920593147	 0.109293
H	 0.8281590475	 0.4673284904	 1.9506487656	 0.102342
H	 0.0027705658	-1.9374814184	-2.6135054009	 0.123818
H	 2.006957813	-1.1490590645	-3.9134223028	 0.256498
H	 3.2865307232	 0.7441725648	-2.8849702885	 0.118581
137.4722	302.0947	332.9448	439.3886	506.1668	571.5282	602.5342	678.4509	700.1254	702.6502	746.7824	764.3715	815.6242	831.0467	840.9698	902.6275	937.8401	998.0739	1010.8743	1026.5025	1045.386	1093.6657	1096.3272	1141.1384	1176.6887	1195.4313	1222.3555	1232.7533	1262.4418	1268.0052	1295.0667	1416.391	1445.06	1488.1519	1522.4097	1588.5489	1662.3163	3050.6093	3060.1989	3122.3045	3127.4543	3131.7622	3254.9262	3267.5036	3695.5036
C1C2CN1C1=CNC=C21	C1[C@H]2CN1c1c[nH]cc21	
InChI=1S/C7H8N2/c1-6-5-3-9(4-5)7(6)2-8-1/h1-2,5,8H,3-4H2	InChI=1S/C7H8N2/c1-6-5-3-9(4-5)7(6)2-8-1/h1-2,5,8H,3-4H2
