15
gdb 8167	2.8677	2.738	1.80097	3.0852	60.16	-0.241	0.0126	0.2537	750.8797	0.120582	-399.810147	-399.803395	-399.802451	-399.841526	25.739	
N	-0.0955285986	 1.4935047053	 0.0508384412	-0.602493
C	-0.0564747394	 0.0646705221	 0.0229785195	 0.154151
C	 0.3397983699	-0.8035429017	 1.2705438824	-0.266621
C	-0.3377861435	-1.8935783654	 0.4136576816	 0.104841
C	-1.3496847167	-0.8239962795	-0.0485220013	-0.266625
O	 0.5630439642	-1.9983688066	-0.738514171	-0.244083
C	 0.7771877313	-0.677497718	-1.0332765096	 0.416425
O	 1.4654126401	-0.2707455855	-1.9210614549	-0.359552
H	 0.8505992603	 1.8556147303	 0.1481274202	 0.240684
H	-0.4249544817	 1.8401653855	-0.8475215407	 0.240682
H	 1.3998286149	-0.9325224611	 1.5003785967	 0.117588
H	-0.2310643636	-0.5244360439	 2.1574789228	 0.12181
H	-0.5955097466	-2.8903678506	 0.7592079791	 0.103794
H	-2.0758436199	-0.5467737482	 0.7171672278	 0.121811
H	-1.8277044807	-0.9715960527	-1.0195193238	 0.117588
45.4678	193.2053	259.6172	354.1777	466.9414	472.9809	541.892	606.4645	696.0737	753.0628	776.0618	862.797	890.6243	893.8555	911.9112	955.4186	980.1915	993.8383	1046.6563	1074.6549	1119.2454	1158.263	1215.3938	1232.5478	1240.6428	1310.1403	1323.0649	1372.8491	1476.9865	1515.1406	1656.7723	1906.0192	3070.7476	3075.1357	3141.0206	3146.1135	3168.4926	3477.3973	3547.4472
NC12CC(C1)OC2=O	N[C@@]12C[C@@H](C1)OC2=O	
InChI=1S/C5H7NO2/c6-5-1-3(2-5)8-4(5)7/h3H,1-2,6H2	InChI=1S/C5H7NO2/c6-5-1-3(2-5)8-4(5)7/h3H,1-2,6H2/t3-,5-
