16
gdb 88915	3.30242	0.93998	0.90652	4.3405	72.1	-0.2926	-0.0694	0.2232	1341.2965	0.122431	-437.902075	-437.893002	-437.892057	-437.937278	31.746	
C	-0.1619235895	 1.4074426874	 0.4300303621	-0.414277
C	 0.0965987671	-0.0601137924	 0.1719169753	-0.016611
C	 1.4605789283	-0.5330447313	-0.2961387404	-0.332951
C	 0.982653366	-0.8707106117	 1.077643298	 0.116671
O	 1.6652887989	-0.1923524654	 2.1322289509	-0.224851
C	 1.1696868634	-0.3701539486	 3.3589017775	 0.362938
O	 0.2296385953	-1.0453601858	 3.6741644575	-0.328166
C	 1.9681508364	 0.3918360553	 4.3280945572	 0.251236
N	 2.5570600744	 0.9745945918	 5.13248907	-0.30519
H	 0.7214800591	 1.901597231	 0.8428023452	 0.130423
H	-0.4303338875	 1.9196152166	-0.4991260121	 0.128746
H	-0.9858820328	 1.5431716349	 1.138459589	 0.131329
H	-0.7564221597	-0.6103643736	-0.2160362253	 0.104091
H	 1.5368263346	-1.3333238854	-1.0232197001	 0.12821
H	 2.2407157027	 0.217897401	-0.3632019459	 0.135894
H	 0.7065560533	-1.8819452239	 1.347873531	 0.132507
31.6337	67.008	124.6834	190.9355	228.032	238.4948	318.6756	339.0692	410.6016	483.8015	591.9288	612.2281	772.7173	778.3277	814.2017	842.9779	895.1922	940.2003	980.5871	1055.4484	1091.6825	1102.1586	1136.6773	1163.5791	1192.3031	1233.4055	1260.9751	1374.2841	1409.2491	1421.7347	1484.4432	1495.8744	1504.7232	1820.3955	2361.1094	3039.4819	3102.1974	3117.5676	3138.979	3148.8261	3196.5476	3228.2617
CC1CC1OC(=O)C#N	C[C@H]1C[C@H]1OC(=O)C#N	
InChI=1S/C6H7NO2/c1-4-2-5(4)9-6(8)3-7/h4-5H,2H2,1H3	InChI=1S/C6H7NO2/c1-4-2-5(4)9-6(8)3-7/h4-5H,2H2,1H3/t4-,5+/m0/s1
