18
gdb 68051	2.15115	1.8867	1.31281	1.658	72.26	-0.2357	0.0601	0.2958	1015.0251	0.147004	-438.998069	-438.989779	-438.988835	-439.030278	32.883	
O	-0.1224738637	 1.3262019399	 0.0334644879	-0.478039
C	 0.0237444858	-0.0438141714	 0.0306689488	 0.303951
C	 0.661870658	-0.9630659302	-1.0655622733	-0.369275
C	 0.0771006281	-1.9177821058	 0.0371127717	 0.348058
O	 0.1250319902	-3.290150548	 0.0958798731	-0.47232
C	 0.6843678075	-0.9766457455	 1.1083580937	-0.328651
C	-1.1640259458	-1.0040471877	 0.048233574	 0.331895
C	-2.4706894563	-1.0085211794	 0.7061952335	-0.358921
N	-2.3390479141	-1.100273809	-0.7866248055	-0.425898
H	 0.747229579	 1.7325507506	-0.0414017484	 0.289319
H	 0.1693600335	-0.9763106951	-2.0403088704	 0.101653
H	 1.7521436784	-0.939742839	-1.1463428044	 0.088489
H	-0.4641436933	-3.632258846	-0.5868803174	 0.293821
H	 1.77606673	-0.9552438828	 1.1592818022	 0.091127
H	 0.2194227136	-0.9916902245	 2.0962278505	 0.102236
H	-2.8543763492	-1.9086133049	 1.1789606129	 0.122028
H	-2.8412149824	-0.0772500332	 1.1269560224	 0.123297
H	-2.5584044694	-0.1964605578	-1.2018646113	 0.237232
153.958	207.0069	220.671	226.2725	246.9371	307.1685	325.1026	452.4324	477.0401	528.3925	618.2881	625.5881	670.4604	694.204	742.5329	786.1062	906.6853	936.7612	968.0181	987.8935	991.6789	1031.3196	1050.8558	1082.6127	1107.6695	1123.3721	1125.6164	1130.9384	1148.9968	1206.9581	1260.6314	1294.1695	1315.4635	1361.3725	1405.5415	1463.6575	1484.5854	1517.8664	1573.5664	3053.8738	3060.7622	3106.6814	3129.4294	3133.5401	3192.2022	3481.1572	3795.0083	3816.1847
OC12CC(O)(C1)C21CN1	O[C@@]12C[C@@](O)(C1)[C@]12CN1	
InChI=1S/C6H9NO2/c8-4-1-5(9,2-4)6(4)3-7-6/h7-9H,1-3H2	InChI=1S/C6H9NO2/c8-4-1-5(9,2-4)6(4)3-7-6/h7-9H,1-3H2/t4-,5+,6-
