14
gdb 24177	4.14736	1.7387	1.2251	3.5894	78.28	-0.2299	-0.0485	0.1814	926.6527	0.106054	-395.801744	-395.795955	-395.795011	-395.831783	23.442	
C	-0.0137563735	 1.3083724798	 0.0099452848	-0.081834
C	 1.2775701322	 1.806266521	-0.0000961214	-0.143218
N	 2.0879749664	 0.7044932511	-0.0143716823	-0.042414
C	 3.4490408513	 0.5388847433	-0.0288409296	-0.040072
C	 3.9392535073	-0.7323342756	-0.0408839189	-0.035963
N	 3.1578781587	-1.8529317695	-0.0394305041	-0.276947
C	 1.8568444712	-1.6846274261	-0.0255414561	-0.060418
C	 1.2397363053	-0.4144411643	-0.0122431828	 0.35686
N	-0.037885614	-0.0484856481	 0.0025267704	-0.33664
H	-0.9270353531	 1.8858983556	 0.0222900646	 0.122245
H	 1.6722578246	 2.8084290277	 0.0016234886	 0.140438
H	 4.0606098125	 1.4313796371	-0.0298929524	 0.137836
H	 5.0117259588	-0.8909901431	-0.0524444891	 0.122054
H	 1.2188548521	-2.5644603788	-0.0241589718	 0.138071
218.0056	235.4741	416.4434	432.0568	579.9651	607.4298	642.9565	655.4274	722.7599	785.1602	796.3068	812.6051	897.8556	909.5837	925.8819	935.633	968.7553	1054.0479	1098.7808	1185.2837	1207.2944	1259.3807	1312.6085	1336.1841	1344.6258	1411.2524	1478.3588	1494.4844	1526.741	1532.7189	1656.1373	3172.1342	3193.7974	3225.6769	3240.6994	3279.7832
C1=CN2C=CN=CC2=N1	c1cn2ccncc2n1	
InChI=1S/C6H5N3/c1-3-9-4-2-8-6(9)5-7-1/h1-5H	InChI=1S/C6H5N3/c1-3-9-4-2-8-6(9)5-7-1/h1-5H
