23
gdb 122292	4.56536	0.69553	0.67681	1.4407	87.07	-0.2625	0.0804	0.3429	1749.4119	0.206238	-388.240233	-388.230921	-388.229977	-388.275184	35.146	
O	-0.0272589542	 1.4316994903	 0.0087164219	-0.423056
C	 0.0279410772	 0.0123899686	 0.0017752409	-0.074016
C	-1.4002204848	-0.5145895895	 0.0122160731	-0.164734
C	-1.4707182534	-2.0458156341	 0.0059497553	-0.353579
C	-2.881906156	-2.5819945381	 0.0158040193	 0.381947
C	-4.0043144152	-2.345688326	-1.0482151677	-0.246232
C	-4.6389665881	-3.2693197985	 0.0279063735	-0.042771
C	-3.3149368838	-4.0816014331	 0.0134974049	-0.26543
C	-3.9861750775	-2.3542185611	 1.1004608649	-0.24624
H	 0.8736624358	 1.7675545518	 0.0019047507	 0.284133
H	 0.5560070601	-0.3611865323	-0.8914240744	 0.082224
H	 0.5719460607	-0.3692369723	 0.8819132193	 0.082224
H	-1.9102221234	-0.1167096647	 0.8975500031	 0.108441
H	-1.9259850838	-0.1087942006	-0.8602127696	 0.108432
H	-0.9493361132	-2.4371645853	-0.8790624944	 0.094674
H	-0.9339935568	-2.4450922727	 0.8781526202	 0.094677
H	-4.4068087372	-1.3313798479	-1.1233721904	 0.088394
H	-3.838663747	-2.7836718944	-2.0373514236	 0.083596
H	-5.6543840306	-3.6666575343	 0.0349034457	 0.068255
H	-3.0960293469	-4.6518967812	-0.8945708429	 0.083533
H	-3.0807561155	-4.6590728283	 0.9131819373	 0.083532
H	-3.8039063939	-2.8000191772	 2.0831609753	 0.083598
H	-4.3872716424	-1.3405615789	 1.1904238976	 0.088398
60.6681	78.0091	104.4602	130.6363	262.0364	268.4723	308.4184	315.5641	471.0772	545.1056	549.4102	681.1735	745.6619	781.7232	803.7367	867.5043	882.0916	941.4191	948.452	960.3703	973.0788	997.4679	1023.9875	1044.2382	1059.2719	1079.1698	1101.182	1107.2661	1143.3141	1146.7386	1156.8883	1184.8126	1220.7879	1227.0709	1233.8097	1247.4628	1248.8876	1302.3063	1310.0493	1321.2604	1327.6007	1391.6002	1463.1831	1479.0964	1497.2492	1497.5516	1499.2442	1527.5805	1555.4883	2954.7699	2979.4364	3001.1665	3031.7705	3034.8227	3037.2854	3038.6561	3046.6584	3079.6863	3099.9146	3105.2405	3106.7961	3107.7738	3830.4274
OCCCC12CC(C1)C2	OCCC[C@@]12C[C@@H](C1)C2	
InChI=1S/C8H14O/c9-3-1-2-8-4-7(5-8)6-8/h7,9H,1-6H2	InChI=1S/C8H14O/c9-3-1-2-8-4-7(5-8)6-8/h7,9H,1-6H2/t7-,8+
