19
gdb 11894	4.46251	1.46699	1.23196	1.6859	80.21	-0.214	0.0218	0.2359	1039.0212	0.166457	-327.924364	-327.916562	-327.915618	-327.956505	29.887	
C	-0.0454852698	 1.5031482773	 0.0352082555	-0.487897
C	-0.0230262732	 0.0086644212	 0.0023233031	 0.317925
C	-0.313858846	-0.7866423422	-1.0318309234	-0.253249
C	-0.1403812672	-2.2237107772	-0.7038655173	 0.354173
C	-0.7892411478	-3.3112573874	-1.4777950669	-0.296738
N	 0.6669102314	-3.1072891744	-1.5812327255	-0.35676
C	 0.1103301593	-2.2737008301	 0.8081568815	-0.295216
C	 0.3898564541	-0.8034376054	 1.215448618	-0.309076
H	 0.9414866674	 1.9057532841	 0.2980262691	 0.126287
H	-0.3403834564	 1.9277144051	-0.928270463	 0.122049
H	-0.7421414644	 1.872760136	 0.7986823253	 0.125602
H	-0.6135379726	-0.4476748465	-2.0192285426	 0.082259
H	-1.0844366982	-4.2286983043	-0.9734343813	 0.113072
H	-1.4219152631	-3.0398258033	-2.3202654968	 0.105211
H	 0.8867724825	-2.621237684	-2.4485780815	 0.223943
H	-0.7819354832	-2.6449758463	 1.3222849322	 0.10397
H	 0.9338250512	-2.9511949901	 1.0428461812	 0.115502
H	 1.4494702484	-0.628078061	 1.4481327343	 0.107511
H	-0.1671967626	-0.5082370214	 2.1130341482	 0.101431
71.4625	145.1534	186.6381	248.9436	324.7894	387.5832	394.5683	488.7491	517.8349	591.4369	747.5444	830.003	841.6693	865.4297	884.1024	914.6599	950.0459	973.7379	984.2734	1013.5852	1023.6001	1071.161	1085.4432	1132.8756	1165.0371	1179.6387	1228.5421	1264.6025	1272.5643	1291.2531	1335.9887	1342.2949	1402.7401	1413.6959	1477.2271	1478.5973	1488.4441	1496.4241	1510.79	1715.2272	3010.039	3015.9794	3040.5992	3057.1817	3059.8865	3093.2402	3109.3597	3112.4274	3171.9368	3176.3111	3480.6789
CC1=CC2(CN2)CC1	CC1=C[C@]2(CN2)CC1	
InChI=1S/C7H11N/c1-6-2-3-7(4-6)5-8-7/h4,8H,2-3,5H2,1H3	InChI=1S/C7H11N/c1-6-2-3-7(4-6)5-8-7/h4,8H,2-3,5H2,1H3/t7-/m0/s1
