19
gdb 47446	2.75989	1.34136	1.01066	4.1632	74.86	-0.2547	0.014	0.2687	1202.5754	0.160697	-423.06056	-423.052326	-423.051382	-423.094273	30.676	
O	 0.410475203	 0.0588589928	-0.4951325971	-0.343638
C	 0.2564653077	 1.2312334299	-0.3126172723	 0.44108
O	-0.9792218056	 1.7955363735	-0.2102548425	-0.219345
C	-0.8838239256	 3.2056397397	 0.0485944535	-0.078832
C	 0.5418366858	 3.6112277458	-0.3591453922	-0.256379
C	 1.3319343039	 2.3114488934	-0.1377160706	-0.166132
C	 1.9709286368	 2.1960522694	 1.2370222925	 0.02793
C	 3.0113941234	 1.1407554524	 1.4954103525	-0.258131
C	 3.4137071466	 2.5938790648	 1.4341904923	-0.285153
H	-1.664608612	 3.7045312791	-0.5293131921	 0.125052
H	-1.0767017059	 3.3784363163	 1.1139699709	 0.117263
H	 0.5614014697	 3.8957901038	-1.415074283	 0.116549
H	 0.9202454763	 4.4513659366	 0.2268730843	 0.116192
H	 2.1000266186	 2.1495591308	-0.8983346412	 0.100907
H	 1.2974489002	 2.4157579615	 2.0622325505	 0.086636
H	 3.0097634435	 0.6451718506	 2.4593856332	 0.117378
H	 3.2842029738	 0.4961217713	 0.667585717	 0.130929
H	 3.9682960709	 2.9323631439	 0.5648783716	 0.113159
H	 3.687175549	 3.0945665245	 2.3562642326	 0.114536
57.1869	80.5999	153.1728	186.4995	274.9168	298.7246	391.2329	513.6525	658.0901	682.2168	697.9716	767.1304	813.6268	831.4252	865.1941	893.8281	925.5275	960.8004	973.1637	1036.2343	1051.5142	1060.2931	1069.5577	1078.6933	1133.1193	1172.6183	1179.084	1194.5292	1218.2494	1227.7258	1241.2767	1274.0851	1293.4017	1338.6089	1401.0446	1414.584	1473.6995	1492.71	1508.1946	1525.5176	1878.3382	3036.5513	3060.4609	3079.2367	3104.5839	3118.6749	3130.535	3132.6708	3144.5959	3211.887	3230.5235
O=C1OCCC1C1CC1	O=C1OCC[C@H]1C1CC1	
InChI=1S/C7H10O2/c8-7-6(3-4-9-7)5-1-2-5/h5-6H,1-4H2	InChI=1S/C7H10O2/c8-7-6(3-4-9-7)5-1-2-5/h5-6H,1-4H2/t6-/m0/s1
