15
gdb 26895	3.1059	1.48322	1.00961	3.8719	78.84	-0.1941	-0.0486	0.1455	1106.7805	0.114061	-450.148791	-450.140727	-450.139783	-450.181217	30.848	
N	 0.1235353217	 1.3630484565	 0.0976776037	-0.559862
C	-0.007604975	 0.0070404081	 0.0280958993	 0.418185
C	-1.1936619038	-0.6701093734	 0.0070154887	 0.126837
N	-2.4032597229	 0.0874575099	-0.0092435724	-0.598804
N	-1.209027195	-2.0373282437	-0.022702161	-0.251969
C	-0.0905598024	-2.6875489581	-0.0263489929	-0.072334
C	 1.2145205115	-2.0477584761	 0.0098007907	 0.349213
N	 2.3225822051	-2.6652131924	 0.0139499698	-0.531665
O	 1.172837682	-0.6461776246	 0.0364297696	-0.255766
H	 0.9773148459	 1.7461031647	-0.2804370566	 0.262932
H	-0.7306228603	 1.849739774	-0.1390464234	 0.274112
H	-2.8590881164	 0.0671051881	 0.9003152414	 0.242516
H	-3.0589651551	-0.3320647673	-0.6622968782	 0.243641
H	-0.0945334063	-3.7721353944	-0.0628683838	 0.131397
H	 3.1090636109	-2.0164316012	 0.042045835	 0.221568
95.5807	149.892	221.4236	296.8337	304.8669	343.5423	415.8437	444.9573	479.2464	510.0188	576.6569	613.9049	689.9353	725.635	749.7689	800.092	833.4514	885.2045	898.7725	907.9306	1043.5198	1099.8393	1189.2381	1245.9419	1257.0933	1310.3281	1389.9478	1430.528	1551.3448	1607.213	1642.3491	1686.8909	1740.7812	3184.2657	3473.6469	3494.4249	3545.131	3554.0525	3676.9821
NC1=C(N)N=CC(=N)O1	NC1=C(N)[N]C=C([NH])O1	
InChI=1S/C4H6N4O/c5-2-1-8-3(6)4(7)9-2/h1,5H,6-7H2	InChI=1S/C4H6N4O/c5-2-1-8-3(6)4(7)9-2/h1,5H,6-7H2
