18
gdb 60335	4.45994	0.69327	0.62989	2.5096	71.49	-0.2695	-0.0754	0.1941	1743.2512	0.144472	-476.229755	-476.219576	-476.218632	-476.266097	35.279	
C	 0.1119777954	 1.4460179899	-0.0925421619	-0.410515
C	-0.0176605307	-0.0755899639	-0.004209508	 0.113933
O	 0.6564536771	-0.6022862063	 1.1291391504	-0.423423
C	-1.4817573056	-0.4991171579	-0.0324449993	-0.066958
O	-1.5300233292	-1.9282324511	-0.1163289021	-0.234339
C	-2.7435652203	-2.4904735824	-0.0547843786	 0.311418
N	-3.830021992	-1.8482330047	 0.0640187661	-0.509996
C	-2.6333107528	-3.9980597682	-0.1448165631	 0.106266
O	-3.6029879001	-4.709035685	-0.1093696593	-0.235662
H	 1.1655871111	 1.7295386594	-0.0360909029	 0.133609
H	-0.3034395443	 1.8318139492	-1.0287453324	 0.123701
H	-0.4180139641	 1.933685007	 0.7352554523	 0.113419
H	 0.4855499512	-0.5366531543	-0.8620303663	 0.102228
H	 0.2910659567	-0.1797508816	 1.9148452437	 0.27856
H	-2.0097507862	-0.1723910196	 0.8724028452	 0.117106
H	-2.0107546969	-0.0693765416	-0.8908893329	 0.122453
H	-4.5975764025	-2.5234774555	 0.0890249625	 0.246467
H	-1.601293677	-4.3879958934	-0.2439160436	 0.111733
42.8313	56.0283	108.7615	136.5208	211.1591	233.8624	257.9574	269.0059	280.8789	348.564	448.1507	475.1684	529.4801	570.7066	730.9747	856.9346	898.5599	922.8993	937.8136	950.905	1022.4762	1041.0843	1080.0165	1110.5393	1134.4249	1179.9426	1245.2332	1318.9482	1335.1573	1345.5155	1397.802	1406.136	1426.3537	1446.7238	1488.9206	1497.1217	1501.5985	1716.3649	1830.885	2951.8916	3026.1081	3030.4201	3051.9753	3075.7326	3100.0609	3127.5281	3465.8718	3794.0144
CC(O)COC(=N)C=O	C[C@@H](O)CO[C]([NH])C=O	
InChI=1S/C5H9NO3/c1-4(8)3-9-5(6)2-7/h2,4,6,8H,3H2,1H3	InChI=1S/C5H9NO3/c1-4(8)3-9-5(6)2-7/h2,4,6,8H,3H2,1H3/t4-/m1/s1
