17
gdb 66036	2.29205	1.38763	1.11919	4.1659	79.46	-0.2591	0.0099	0.269	1145.946	0.135501	-380.834942	-380.825966	-380.825022	-380.86843	33.776	
N	-0.0630820443	 1.4369589118	 0.0123676712	-0.541354
C	 0.0356616805	-0.0211174693	-0.032474159	 0.092545
C	 0.1912621477	-0.5702353139	 1.4231605578	-0.244836
C	-1.3502306482	-0.6717071721	 1.5324648726	-0.241135
C	-1.4186818924	-0.642672284	-0.0234261373	-0.153438
C	-2.4717408893	 0.1050343049	-0.6840225204	 0.28261
N	-3.2970629723	 0.7151266857	-1.2171804874	-0.335824
C	 0.9451573627	-0.5382019985	-1.0472790696	 0.25579
C	 1.7025012983	-0.9482454397	-1.8875826618	-0.427848
H	 0.8620059154	 1.8295592656	 0.1641504812	 0.237464
H	-0.3868958633	 1.7901466858	-0.8848346424	 0.248519
H	 0.6760155946	-1.5483619073	 1.4288175754	 0.119738
H	 0.70374083	 0.0984733794	 2.1159819941	 0.116148
H	-1.7696826252	-1.5555368289	 2.0133771505	 0.116534
H	-1.7900113252	 0.2271055821	 1.9628424138	 0.142987
H	-1.3812802553	-1.6548718265	-0.4329283608	 0.132189
H	 2.3703549963	-1.307074975	-2.6316489379	 0.199912
87.1002	132.6917	146.5299	190.2491	242.7038	285.3536	358.0476	380.4247	464.8133	500.2823	554.5346	570.9398	612.2772	642.1303	649.8429	728.6989	792.6002	872.3138	925.9937	933.2873	961.3369	977.4565	1058.4775	1098.5555	1149.2951	1178.0545	1223.5625	1255.4354	1268.9292	1281.426	1294.7119	1354.2381	1472.2453	1489.1073	1657.0437	2223.9761	2351.7674	3079.1204	3089.7333	3096.594	3137.4514	3161.846	3484.0305	3498.7627	3564.0568
NC1(CCC1C#N)C#C	N[C@]1(CC[C@H]1C#N)C#C	
InChI=1S/C7H8N2/c1-2-7(9)4-3-6(7)5-8/h1,6H,3-4,9H2	InChI=1S/C7H8N2/c1-2-7(9)4-3-6(7)5-8/h1,6H,3-4,9H2/t6-,7-/m0/s1
