21
gdb 95256	2.59803	1.76072	1.3754	1.338	80.53	-0.2377	0.0812	0.3189	1030.5554	0.185464	-387.066277	-387.058825	-387.057881	-387.097854	30.795	
C	-0.0607753056	 1.5529784119	-0.0286465571	-0.396211
C	 0.0297509159	 0.0229725954	-0.0038746117	-0.01907
C	 0.5332985148	-0.5108559407	-1.3608243199	-0.087677
O	 1.0221538859	-1.8426553258	-1.3225738689	-0.26659
C	 1.9716857725	-2.0639373598	-0.2989694581	 0.105404
C	 3.0406250986	-0.9423373478	-0.0371224534	-0.277412
C	 2.3507698884	-0.6384955903	 1.2920832952	-0.077058
C	 1.4458896553	-1.8683383232	 1.1346695941	-0.106279
C	 0.8457825771	-0.4976498479	 1.1736206849	-0.018937
H	 0.9326319646	 2.0028614109	-0.1348559927	 0.118533
H	-0.6798908321	 1.9035869879	-0.8621729064	 0.111414
H	-0.502465193	 1.9370144193	 0.8967640191	 0.112584
H	-0.9830718225	-0.3776318324	 0.1448687668	 0.078697
H	-0.2875790609	-0.5170859303	-2.084211803	 0.104349
H	 1.3059094143	 0.1634027439	-1.7596449509	 0.089235
H	 2.404158331	-3.0443991955	-0.501536429	 0.083687
H	 4.0222276253	-1.3979231375	 0.1186287653	 0.102829
H	 3.1501270817	-0.1393594956	-0.7700031292	 0.09845
H	 2.8590512172	-0.3029011717	 2.1884876239	 0.08238
H	 1.2020532176	-2.6540519854	 1.8390020503	 0.080415
H	 0.3970365639	-0.2511000954	 2.1345662907	 0.081259
104.3832	219.023	249.3304	319.9941	341.1082	393.92	454.8986	510.1199	559.6896	651.9305	722.4389	777.7765	809.6696	825.3608	864.4639	919.2703	948.6298	952.1102	974.3329	985.54	1010.5751	1012.9498	1061.2063	1073.8644	1091.7754	1109.8954	1131.5843	1147.3169	1181.3536	1208.2056	1230.7743	1259.2346	1286.0689	1301.1093	1325.9298	1344.7141	1370.2435	1377.2017	1407.144	1412.7935	1448.3577	1487.1957	1496.0421	1498.3496	1518.0633	2986.0665	3001.9744	3026.158	3060.2343	3077.0641	3092.7176	3097.9823	3099.4508	3108.9789	3119.9911	3174.5285	3188.2339
CC1COC2CC3C2C13	C[C@H]1CO[C@H]2C[C@@H]3[C@H]2[C@H]13	
InChI=1S/C8H12O/c1-4-3-9-6-2-5-7(4)8(5)6/h4-8H,2-3H2,1H3	InChI=1S/C8H12O/c1-4-3-9-6-2-5-7(4)8(5)6/h4-8H,2-3H2,1H3/t4-,5-,6-,7+,8+/m0/s1
