18
gdb 122693	3.73404	0.83973	0.73357	7.0234	77.22	-0.2444	-0.0278	0.2165	1514.0993	0.147343	-435.272557	-435.26269	-435.261746	-435.307642	35.363	
N	 0.7085240098	 1.0389851484	 1.0937110083	-0.567618
C	 0.4141248419	-0.0153958904	 0.2613006344	 0.25511
N	 1.1843331501	-0.6544852019	-0.5346963835	-0.273255
C	 2.5836705909	-0.2564357017	-0.5612136202	-0.184506
C	 3.4030975574	-0.8578581044	 0.6145951807	-0.185667
C	 4.3908788986	 0.1361307907	 1.2080229421	-0.089353
O	 3.6303789812	 1.1791031414	 1.828229287	-0.403496
C	-0.9877327819	-0.4042927189	 0.2827983482	 0.268095
N	-2.106543819	-0.690398609	 0.3304426074	-0.325366
H	 1.6721568325	 1.1946253966	 1.373051921	 0.289405
H	 0.0052680312	 1.3145812931	 1.7591892788	 0.26577
H	 3.0054495613	-0.5993671738	-1.5101149331	 0.109263
H	 2.6839868649	 0.8396427329	-0.5435136757	 0.1039
H	 2.7243238674	-1.1801496428	 1.4111475168	 0.123575
H	 3.9429052037	-1.7510324882	 0.286537478	 0.113616
H	 5.0323072716	-0.3565725869	 1.9521480452	 0.10199
H	 5.0400902127	 0.5492961527	 0.4223886982	 0.101592
H	 4.2062769557	 1.9261208522	 2.0122259964	 0.296945
68.1864	94.7634	119.0834	159.823	189.1451	243.6083	272.449	311.5873	345.8746	412.8459	463.5766	477.4509	577.6571	595.0227	615.1383	728.7476	778.3167	856.1918	876.6375	971.7762	1022.3148	1045.6699	1087.2593	1103.9007	1153.1917	1215.7385	1252.7191	1287.8107	1314.397	1343.7262	1359.9664	1384.1813	1440.2192	1483.8477	1516.2782	1522.9784	1666.9511	1709.2231	2357.9691	2985.5112	2992.6593	3027.0551	3058.3316	3070.0625	3101.4222	3492.1793	3678.2767	3844.4885
NC(=NCCCO)C#N	NC(=NCCCO)C#N	
InChI=1S/C5H9N3O/c6-4-5(7)8-2-1-3-9/h9H,1-3H2,(H2,7,8)	InChI=1S/C5H9N3O/c6-4-5(7)8-2-1-3-9/h9H,1-3H2,(H2,7,8)
