15
gdb 124985	2.96597	1.12455	0.88498	2.4032	69.5	-0.2597	-0.0536	0.2061	1263.3589	0.110011	-453.939744	-453.930968	-453.930024	-453.975083	29.825	
C	-0.1494317131	 1.5644973801	 0.0441381216	-0.495716
C	 0.0136153035	 0.0841584644	-0.0130025596	 0.16493
C	 0.0878827209	-0.7809803159	-1.0652027845	 0.31305
C	 0.069520167	-0.606128517	-2.5430081086	-0.392017
C	 1.4503305378	-0.8172763177	-3.1718876921	 0.160199
O	 1.9044055201	-0.1047911076	-4.023782928	-0.219078
O	 0.2388156352	-2.021744699	-0.5876646541	-0.221575
N	 0.2518072933	-1.9069698918	 0.8408671356	-0.012214
N	 0.1186937099	-0.692065095	 1.1247052519	-0.15683
H	 0.7122026247	 2.0366751518	 0.5264397747	 0.15355
H	-0.2478939799	 1.9865683908	-0.958757219	 0.135738
H	-1.0388199413	 1.8385190369	 0.6197966433	 0.152288
H	-0.6021689035	-1.353226398	-2.9878465184	 0.161052
H	-0.2908579828	 0.3857849522	-2.8213752412	 0.147705
H	 2.0017305682	-1.7000243043	-2.7835163216	 0.108918
33.519	67.7552	79.6016	145.3165	242.7988	257.6097	341.4714	415.7846	445.9321	640.9076	661.2305	680.845	701.127	740.7625	824.5714	984.8267	1018.3036	1024.7751	1039.87	1068.2548	1157.013	1205.7883	1262.1573	1293.9039	1381.7635	1418.1695	1423.4188	1447.5316	1469.9193	1475.8431	1492.5967	1657.5607	1843.0619	2911.8881	3028.5355	3045.7311	3104.3544	3125.9051	3128.9911
CC1=C(CC=O)ON=N1	Cc1c(CC=O)onn1	
InChI=1S/C5H6N2O2/c1-4-5(2-3-8)9-7-6-4/h3H,2H2,1H3	InChI=1S/C5H6N2O2/c1-4-5(2-3-8)9-7-6-4/h3H,2H2,1H3
