21
gdb 104631	2.50281	1.18255	0.95913	4.4945	84.16	-0.2288	0.0355	0.2644	1339.0999	0.181615	-383.266252	-383.256428	-383.255484	-383.300995	35.872	
C	 0.0344576564	 1.5699240105	-0.0952197456	-0.395455
C	-0.0151221856	 0.057792118	 0.1395121045	-0.252195
C	-1.428814695	-0.5341136383	 0.0443510271	 0.120363
C	-2.103733079	-0.5777020041	-1.3677413979	-0.197563
N	-2.5358972044	-1.9552520597	-1.0934521238	-0.056492
C	-2.5269190875	-2.9184317418	-2.169880957	-0.324135
C	-1.5546711091	-2.0926187636	-0.0076944468	-0.208979
C	-2.3085156313	 0.0471348986	 1.0551214676	 0.283937
N	-2.9810925092	 0.5227526605	 1.8668047482	-0.354386
H	 1.0622199624	 1.9370751826	-0.0257725139	 0.121447
H	-0.3460116897	 1.8307717388	-1.0886594342	 0.121989
H	-0.5666919832	 2.1048428701	 0.6458470048	 0.147269
H	 0.6096005046	-0.4575297166	-0.5986865449	 0.103585
H	 0.4003046118	-0.1819864188	 1.1254893258	 0.117786
H	-2.9096401312	 0.1320752582	-1.5745031002	 0.12432
H	-1.3375379091	-0.4999459145	-2.1580294481	 0.088745
H	-1.5417467024	-3.0058527622	-2.6673459688	 0.09017
H	-2.8030476774	-3.9055206657	-1.7850012889	 0.128298
H	-3.2663931367	-2.6352750907	-2.9260297397	 0.128185
H	-0.5991213354	-2.5434628705	-0.3245614058	 0.089003
H	-1.9173514988	-2.6052653907	 0.8878985378	 0.124107
72.5011	93.1029	153.9413	175.2141	198.01	231.6626	256.4914	311.477	326.8986	385.8265	406.858	500.4166	588.1358	631.4786	726.8763	789.5003	862.3475	937.8002	951.2171	984.5909	1003.1623	1024.4562	1049.8109	1112.9243	1119.0461	1132.5231	1155.4134	1195.3703	1237.2045	1251.184	1265.2629	1302.3992	1329.3877	1345.5322	1364.0645	1415.5873	1451.4488	1482.1271	1485.5367	1497.9449	1498.8623	1499.6881	1505.9238	1526.8875	2349.79	2921.945	2953.0742	2964.6625	3033.61	3039.6241	3061.006	3070.6883	3077.8721	3080.0434	3103.7141	3108.3369	3119.3608
CCC1(CN(C)C1)C#N	CCC1(CN(C)C1)C#N	
InChI=1S/C7H12N2/c1-3-7(4-8)5-9(2)6-7/h3,5-6H2,1-2H3	InChI=1S/C7H12N2/c1-3-7(4-8)5-9(2)6-7/h3,5-6H2,1-2H3
