17
gdb 39887	4.05413	1.5055	1.39567	2.0077	70.66	-0.2457	0.0762	0.322	943.8089	0.137599	-421.750082	-421.743781	-421.742837	-421.780569	26.427	
C	 0.0579514002	 1.558103865	 0.0600032323	-0.295233
O	 1.1916006513	 0.6686443549	-0.0175567759	-0.302815
C	-0.1103913112	 0.1107234519	 0.0082365449	 0.510187
C	-0.5443509067	-0.939927743	 1.0337439605	-0.202253
C	-2.0723209431	-0.9330569371	 0.8062897491	-0.215358
C	-1.95682272	-1.4571964223	-0.6437198809	 0.063109
O	-1.3738544572	-2.7751452503	-0.4161126538	-0.293778
C	-0.1915930184	-2.0407065647	-0.0929641059	 0.11177
C	-0.5448673262	-0.8796082937	-1.0594711818	-0.179824
H	-0.0495620364	 2.0860227983	 1.006798971	 0.117236
H	-0.1163160939	 2.1622999089	-0.8293858938	 0.116715
H	-0.1425890103	-0.9623681864	 2.0436984168	 0.082203
H	-2.6258226331	-1.6430449918	 1.4232421199	 0.112594
H	-2.509423199	 0.0646461042	 0.8993907097	 0.100551
H	-2.8256909464	-1.4654743494	-1.2996716418	 0.086034
H	 0.7347425433	-2.6082297588	-0.0490224847	 0.100117
H	-0.2624244129	-0.8376213555	-2.1084147958	 0.088747
152.3134	254.9466	315.9638	430.657	472.4106	540.1895	592.2125	708.2864	739.1465	812.9248	830.6102	853.2404	876.423	887.0958	916.4013	937.286	959.5098	967.4988	998.3166	1026.8646	1032.4573	1064.6278	1114.7634	1136.7056	1146.678	1151.1348	1165.5894	1187.887	1211.849	1223.6272	1240.607	1282.1894	1301.7559	1332.0268	1458.0022	1485.5625	1545.7083	3068.4692	3080.9614	3127.7179	3136.3783	3149.5052	3153.9519	3161.9762	3166.3812
C1OC11C2CC3OC2C13	C1O[C@]21[C@H]1C[C@@H]3O[C@H]1[C@H]23	
InChI=1S/C7H8O2/c1-3-6-5(4(1)9-6)7(3)2-8-7/h3-6H,1-2H2	InChI=1S/C7H8O2/c1-3-6-5(4(1)9-6)7(3)2-8-7/h3-6H,1-2H2/t3-,4-,5+,6+,7+/m0/s1
