14
gdb 43231	3.84798	1.24836	0.99724	4.5419	80.06	-0.2554	-0.0791	0.1763	1120.3135	0.100927	-399.526133	-399.518825	-399.517881	-399.557964	28.001	
O	 0.0799884136	-0.0274435756	 0.077942273	-0.323034
C	-0.0149040739	 1.1681582384	 0.0024581562	 0.39112
C	-1.2420402908	 1.9994660902	 0.0038047331	-0.332024
C	-0.9050841485	 3.3063511442	 0.0237448404	 0.211172
C	-1.7551899671	 4.4311589113	 0.0494426153	 0.209702
C	-2.4479258656	 5.4166954069	 0.0663679023	-0.381769
C	 0.5896130119	 3.4211955753	-0.0043840493	-0.154073
C	 1.3460210943	 2.8434930335	 1.1471840578	-0.237849
N	 1.1267378726	 2.0660017537	-0.0898090108	-0.130195
H	-2.2362446204	 1.5799774199	 0.0594410748	 0.134823
H	-3.0703285168	 6.2776359886	 0.0831227474	 0.209114
H	 1.0444751018	 4.1836086374	-0.6288399375	 0.123785
H	 2.3739326626	 3.1468720707	 1.3220660848	 0.139963
H	 0.7820477761	 2.5587899256	 2.0317208627	 0.139264
117.4806	141.2687	197.3944	308.366	370.4924	444.7016	505.2261	554.5419	632.8331	648.2033	652.8836	678.9588	769.3126	771.6353	830.2152	882.0243	911.397	945.4728	1009.7557	1072.2823	1093.7783	1133.6415	1152.6033	1171.321	1258.72	1270.3921	1357.9783	1497.3714	1626.7364	1837.4589	2224.6887	3113.0425	3166.884	3208.7876	3245.8124	3498.267
O=C1C=C(C#C)C2CN12	O=C1C=C(C#C)[C@H]2CN12	
InChI=1S/C7H5NO/c1-2-5-3-7(9)8-4-6(5)8/h1,3,6H,4H2	InChI=1S/C7H5NO/c1-2-5-3-7(9)8-4-6(5)8/h1,3,6H,4H2/t6-,8?/m1/s1
