21
gdb 104061	2.8556	1.34252	1.20753	2.6478	78.34	-0.2386	0.0746	0.3132	1153.8624	0.181279	-424.178437	-424.169426	-424.168482	-424.212146	34.067	
C	-0.291362423	 1.229845179	 0.0088224445	-0.249016
O	 0.0490951838	-0.138628979	 0.0363593346	-0.274512
C	 0.7583986312	-0.5664785911	 1.1705238011	 0.426961
C	 2.1522360184	 0.054625136	 1.2754178406	-0.454856
C	-0.0050498462	-0.565319306	 2.5456787794	-0.314359
C	 0.2793455756	-2.0853557261	 2.696808606	-0.081194
C	-0.8291897984	-2.9750205751	 2.1169753417	-0.07591
O	-0.3201348445	-2.8084386223	 0.7737039779	-0.284008
C	 0.8450774956	-2.1152302171	 1.2457264706	 0.061471
H	 0.5852303121	 1.8827939878	-0.1088640848	 0.105972
H	-0.9476198418	 1.3738870637	-0.8529061052	 0.129401
H	-0.8321573308	 1.5387690132	 0.9159454023	 0.104434
H	 2.1028353348	 1.1224498153	 1.5094919389	 0.118046
H	 2.7298971706	-0.4274286892	 2.0711978274	 0.118948
H	 2.6922226232	-0.0743148401	 0.331992864	 0.125563
H	 0.4373606267	 0.0733640471	 3.3136539243	 0.097637
H	-1.0691095256	-0.3297487263	 2.4606390746	 0.105298
H	 0.8164291526	-2.4231332507	 3.5811399805	 0.075871
H	-0.7842635737	-4.0269283431	 2.4296672615	 0.097233
H	-1.8593098788	-2.6120075305	 2.2230632784	 0.100736
H	 1.7752804083	-2.5877574055	 0.9139882916	 0.066284
71.8562	105.1949	176.5396	191.5403	258.4425	276.8698	293.5271	351.6659	412.1824	436.2877	528.7327	621.1245	772.2623	782.1048	836.2699	880.8616	904.1545	926.7537	936.3581	968.9357	1010.3119	1024.2171	1066.5947	1101.7999	1137.1247	1151.8418	1161.1021	1178.4696	1181.4467	1198.7577	1217.749	1241.692	1251.0595	1275.9013	1301.906	1333.4603	1363.0258	1400.4811	1473.893	1475.7773	1485.905	1490.2619	1503.6876	1509.9343	1522.3858	2984.6992	3002.2639	3029.9665	3035.6654	3048.7958	3054.4089	3059.3851	3102.2635	3110.1039	3112.3803	3113.5334	3128.5535
COC1(C)CC2COC12	CO[C@@]1(C)C[C@H]2CO[C@@H]12	
InChI=1S/C7H12O2/c1-7(8-2)3-5-4-9-6(5)7/h5-6H,3-4H2,1-2H3	InChI=1S/C7H12O2/c1-7(8-2)3-5-4-9-6(5)7/h5-6H,3-4H2,1-2H3/t5-,6+,7-/m0/s1
