19
gdb 116620	4.00887	1.04468	0.91828	3.2757	79.33	-0.2223	0.0192	0.2415	1320.0645	0.15983	-419.197556	-419.188871	-419.187927	-419.231672	32.144	
C	 0.1162031703	 1.3824593344	 0.0802447225	-0.366046
C	-0.1338409334	-0.1164088575	-0.1348665743	-0.145921
N	 0.6062681887	-0.6276841467	-1.2800160386	-0.334835
C	 1.8078842009	-1.0114064854	-1.1140665229	 0.435152
N	 2.598321853	-1.045652485	 0.02641258	-0.358607
C	 3.9499460218	-1.5519577809	-0.1838088138	-0.191268
C	 3.9711709441	-1.8748983746	-1.6690339726	 0.043708
O	 3.048280482	-2.9014260174	-2.0211052455	-0.248098
C	 2.6605232053	-1.5278716245	-2.2321694651	-0.064671
H	 1.1664809887	 1.5738312761	 0.3211876827	 0.114983
H	-0.1279085493	 1.938993872	-0.8290275466	 0.127783
H	-0.5006590951	 1.7674832445	 0.8987914304	 0.107701
H	 0.0851420348	-0.6646752314	 0.7983630079	 0.069118
H	-1.1996161956	-0.2770845936	-0.3311886776	 0.10431
H	 2.1818683655	-1.0624549306	 0.9418100541	 0.249826
H	 4.7070820518	-0.794067606	 0.0587154253	 0.111532
H	 4.156771625	-2.446982489	 0.4164561813	 0.121873
H	 4.9002873111	-1.842657301	-2.2296350115	 0.107594
H	 2.4662182805	-1.2290561134	-3.2553006957	 0.115867
38.3846	96.8555	165.7905	200.2975	260.2063	283.2697	342.1672	394.2603	459.6351	507.1943	658.2283	709.4107	766.1365	809.4023	832.3865	869.6625	881.3033	914.8909	936.9265	996.5738	1043.045	1063.3689	1087.4616	1112.2751	1121.503	1177.2694	1223.8043	1244.4532	1262.2528	1291.9051	1304.9036	1356.4782	1368.177	1398.6476	1419.1707	1441.2237	1489.8987	1499.7444	1512.3029	1526.5759	1761.5149	2939.7474	3008.6672	3036.7575	3045.4523	3050.4328	3107.2789	3117.0708	3165.7963	3199.5114	3657.3971
CCN=C1NCC2OC12	CCN=C1NC[C@H]2O[C@@H]12	
InChI=1S/C6H10N2O/c1-2-7-6-5-4(9-5)3-8-6/h4-5H,2-3H2,1H3,(H,7,8)	InChI=1S/C6H10N2O/c1-2-7-6-5-4(9-5)3-8-6/h4-5H,2-3H2,1H3,(H,7,8)/t4-,5-/m1/s1
