19
gdb 86500	7.92138	0.5847	0.57148	1.5491	101.17	-0.2363	-0.0105	0.2258	1943.7283	0.157711	-348.698035	-348.688589	-348.687644	-348.732605	35.191	
C	-0.240992114	 1.4876240112	-0.0277321124	-0.393716
C	-0.0252327949	-0.0229468515	-0.0076963756	 0.021829
C	 1.1574841179	-0.5132797952	-0.8932493479	-0.231376
C	 2.0523137939	-0.5997792086	 0.3895234518	-0.200462
C	 0.7402904142	-0.5445097121	 1.2434643538	-0.231377
C	 2.9368604765	-1.7292948586	 0.5457073184	 0.386781
C	 3.667094161	-2.6879555885	 0.6742269795	-0.229814
C	 4.4842841513	-3.7656117512	 0.8178865026	 0.296059
C	 5.2107907705	-4.7223538872	 0.9454679886	-0.572989
H	 0.692164427	 2.0307938516	 0.1623358373	 0.115316
H	-0.6230547522	 1.8175090092	-0.9998327997	 0.116823
H	-0.9622990344	 1.7920974925	 0.7382882952	 0.116824
H	-0.9744576407	-0.5300647742	-0.2004517118	 0.072659
H	 0.9809246613	-1.5037661164	-1.3176669156	 0.11407
H	 1.5062155618	 0.1557524426	-1.6838442814	 0.104516
H	 2.6205974622	 0.3281420892	 0.5140544983	 0.108887
H	 0.7624436045	 0.1001196495	 2.1256334795	 0.104516
H	 0.4225025116	-1.545541662	 1.5423107511	 0.114069
H	 5.8491651224	-5.5628837804	 1.0576620784	 0.187387
60.8361	72.8131	125.1577	214.9727	238.1794	248.3082	332.8416	355.0573	460.8005	476.1193	518.8757	541.4713	566.7035	592.591	601.2538	779.8665	821.8951	837.5795	903.5332	909.5063	947.457	955.4096	1026.825	1067.0013	1131.0138	1138.2256	1202.4198	1230.9772	1236.5524	1242.5515	1274.7175	1275.9734	1350.6297	1373.7614	1412.8693	1473.7197	1493.8127	1497.0672	1500.34	2178.6029	2354.1016	3024.6716	3043.7777	3057.7239	3063.1171	3069.8112	3093.3264	3096.4808	3122.8806	3126.1321	3506.6995
CC1CC(C1)C#CC#C	C[C@H]1C[C@@H](C1)C#CC#C	
InChI=1S/C9H10/c1-3-4-5-9-6-8(2)7-9/h1,8-9H,6-7H2,2H3	InChI=1S/C9H10/c1-3-4-5-9-6-8(2)7-9/h1,8-9H,6-7H2,2H3/t8-,9-
