19
gdb 49444	5.16319	1.06098	0.99266	3.3264	80.62	-0.2414	-0.0212	0.2202	1215.9166	0.161165	-385.86425	-385.85701	-385.856066	-385.89618	28.647	
O	 0.1430864847	-0.1380992223	-0.4679812065	-0.261677
C	 0.0779834733	 1.0283627952	-0.1627511825	 0.131906
C	 1.2715506691	 1.930465184	-0.0825582972	-0.074156
C	 1.2002729186	 3.3701188102	-0.6812965531	-0.076423
C	 0.3355234132	 3.8604859148	 0.5265695131	-0.010648
C	 0.7079670345	 5.3090089831	 0.8492093268	-0.243018
C	 2.2469130597	 5.2445313048	 0.640489585	-0.250227
C	 2.3911159376	 3.7760937283	 0.2482360814	 0.007801
C	 1.4256543337	 2.91022568	 1.123045497	-0.076468
H	-0.9045762986	 1.4908071956	 0.0783704707	 0.069046
H	 2.1670168147	 1.3576110261	-0.3403049855	 0.081411
H	 1.0703377395	 3.630360747	-1.7336798628	 0.076816
H	-0.7172512549	 3.588021455	 0.5886020446	 0.071463
H	 0.2175360393	 6.0173753778	 0.1742186518	 0.10171
H	 0.4295559947	 5.5848661916	 1.8711225107	 0.101709
H	 2.5969520537	 5.9165891417	-0.1491661917	 0.102455
H	 2.8090723463	 5.4839011307	 1.5484590575	 0.102455
H	 3.3841030855	 3.3826580846	 0.0239281496	 0.068992
H	 1.5581718155	 2.6347120418	 2.171198071	 0.076851
76.4985	177.5586	216.5325	259.886	382.2972	415.7747	466.222	705.443	721.1063	749.2373	792.1706	815.3821	873.4357	874.06	928.0527	950.3646	954.9807	977.9164	995.2187	1025.6412	1035.7935	1071.1467	1089.1053	1094.8629	1124.8364	1133.9257	1174.1792	1205.1603	1214.5664	1237.7363	1252.0855	1255.0512	1255.8163	1289.4254	1314.2504	1336.2101	1388.7974	1449.058	1488.4094	1508.5199	1815.9671	2881.5866	3044.8867	3054.5566	3074.7826	3078.4893	3090.7207	3091.7065	3098.0638	3108.182	3127.4852
O=CC1C2C3CCC2C13	O=C[C@H]1[C@H]2[C@@H]3CC[C@H]2[C@H]13	
InChI=1S/C8H10O/c9-3-6-7-4-1-2-5(7)8(4)6/h3-8H,1-2H2	InChI=1S/C8H10O/c9-3-6-7-4-1-2-5(7)8(4)6/h3-8H,1-2H2/t4-,5+,6-,7-,8+
