19
gdb 81629	4.1019	0.86205	0.81198	2.5701	76.9	-0.2506	-0.0232	0.2274	1427.5334	0.158462	-422.973148	-422.96456	-422.963616	-423.007605	32.106	
O	 0.0845820016	 1.4331335002	-0.2640892775	-0.450258
C	-0.0651877761	 0.0494460079	-0.1372054143	 0.199329
C	-0.0820145319	-0.6526260985	 1.26117159	-0.110292
C	-1.5280195476	-0.0981877488	 1.439459136	-0.258161
C	-1.4747563641	-0.6191457328	-0.0297386345	-0.117223
C	-0.7571135764	-1.8780215423	 0.5556837981	 0.040388
C	 0.0117477688	-2.8647750062	-0.3311568317	-0.336895
C	 0.8990383487	-3.7601583664	 0.5066112316	 0.165053
O	 0.7902007937	-4.956149272	 0.5903264736	-0.238211
H	-0.4977106688	 1.8813133777	 0.3571211613	 0.283902
H	 0.6124207511	-0.3707348423	-0.8799028862	 0.077731
H	 0.7114401432	-0.670608395	 2.0098562939	 0.078441
H	-2.1782544981	-0.6454261267	 2.1263808568	 0.102777
H	-1.6475947899	 0.9772396584	 1.5979389609	 0.08069
H	-2.2796492552	-0.6073086798	-0.766363234	 0.077681
H	-1.4019298827	-2.4436939903	 1.2359370589	 0.085218
H	-0.6885607047	-3.4974869177	-0.8849526694	 0.122871
H	 0.6528222778	-2.3504730956	-1.05611837	 0.122526
H	 1.6885491205	-3.2174152798	 1.0773817764	 0.074434
44.0886	49.0081	170.6312	236.8602	248.9322	342.029	372.6794	396.8196	472.143	573.6947	609.2628	751.7018	800.8863	826.9722	837.0178	876.1538	892.0293	898.4287	1007.0852	1016.0677	1043.2701	1050.3772	1079.5701	1085.0792	1107.3853	1132.9495	1159.8619	1186.8164	1200.4087	1218.2938	1239.0976	1250.124	1269.9525	1284.714	1298.2514	1419.3753	1428.8844	1456.7882	1484.0975	1538.5788	1834.775	2858.7757	3042.595	3052.5894	3054.4348	3098.6291	3101.6218	3104.9005	3109.4471	3121.9185	3820.7814
OC1C2CC1C2CC=O	O[C@H]1[C@H]2C[C@@H]1[C@H]2CC=O	
InChI=1S/C7H10O2/c8-2-1-4-5-3-6(4)7(5)9/h2,4-7,9H,1,3H2	InChI=1S/C7H10O2/c8-2-1-4-5-3-6(4)7(5)9/h2,4-7,9H,1,3H2/t4-,5-,6+,7-
