18
gdb 81978	2.54264	1.42282	1.31566	2.5583	77.71	-0.2396	0.048	0.2876	1067.9167	0.146242	-401.867481	-401.858742	-401.857798	-401.900364	34.042	
C	-0.1269461566	 1.5764890338	-0.0145278269	-0.448765
C	-0.0382741556	 0.0499074054	-0.0094765673	 0.074434
C	-1.3289023969	-0.5743414567	 0.2243580826	 0.271812
C	-2.3925402321	-1.0999718154	 0.4245679663	-0.450015
C	 0.7046822567	-0.6211230021	-1.188124227	-0.08377
N	 2.0999952977	-0.1227442327	-1.1486144255	-0.371038
C	 1.6941217157	-1.2692192648	-0.2937332182	-0.072831
C	 1.0942926068	-0.6017597333	 0.9486307324	 0.100142
O	 1.9292576934	 0.2632005552	 1.6512988918	-0.427553
H	 0.8372392541	 2.0112408608	-0.2849708309	 0.125715
H	-0.8765697005	 1.9150472172	-0.7358868008	 0.120068
H	-0.411905789	 1.9435921362	 0.974841409	 0.133311
H	-3.3348436505	-1.5559561313	 0.6025283307	 0.191636
H	 0.2629763647	-0.9834586014	-2.1078282571	 0.103425
H	 2.5885082412	-0.4946425408	-1.9608229935	 0.237709
H	 2.1955862136	-2.2258910308	-0.3700576225	 0.097728
H	 0.6464754285	-1.2957876446	 1.6600389141	 0.103159
H	 2.4604245587	 0.7145261453	 0.9803333327	 0.294833
115.313	148.2945	173.1091	193.5198	239.5934	286.2522	397.3795	472.297	482.4812	522.4403	553.0986	610.3961	614.143	634.9387	656.8083	765.0494	835.036	845.0561	862.6868	923.2854	945.9352	960.955	1024.1204	1082.6067	1096.7591	1126.4461	1139.7747	1158.7292	1197.1777	1224.6311	1280.0884	1317.5533	1321.0035	1369.9191	1405.3004	1443.5321	1483.5101	1497.073	2228.0784	3048.2645	3117.9766	3119.2235	3136.3716	3188.4177	3202.4436	3496.1314	3501.8482	3747.5991
CC1(C#C)C2NC2C1O	C[C@@]1(C#C)[C@H]2N[C@H]2[C@H]1O	
InChI=1S/C7H9NO/c1-3-7(2)5-4(8-5)6(7)9/h1,4-6,8-9H,2H3	InChI=1S/C7H9NO/c1-3-7(2)5-4(8-5)6(7)9/h1,4-6,8-9H,2H3/t4-,5+,6-,7-/m1/s1
