18
gdb 126798	4.57516	0.88315	0.81757	1.4565	75.82	-0.2436	0.0033	0.2468	1449.3278	0.148297	-435.270947	-435.261699	-435.260755	-435.307367	31.997	
C	 0.0114964964	 1.566418084	-0.0803327187	-0.378406
C	 0.0544364405	 0.0394063169	-0.0186074121	-0.127706
N	 0.6933701901	-0.5448815446	-1.1880265646	 0.146365
N	 0.0113429608	-0.85735482	-2.2831297373	-0.231623
C	 0.9539780449	-1.2652473491	-3.1355657864	-0.121809
C	 2.2031456013	-1.169450407	-2.5035414482	 0.309872
C	 3.5581918654	-1.5342672845	-3.0184903407	-0.184512
O	 3.5370455711	-1.3971760504	-4.43195139	-0.416445
N	 2.011760153	-0.6996747409	-1.2682367871	-0.311642
H	 1.022851865	 1.9774977408	-0.1374162235	 0.139653
H	-0.5517640947	 1.8999837407	-0.9559423647	 0.140261
H	-0.4742584229	 1.9625599365	 0.8164380085	 0.12205
H	 0.6185152572	-0.3027691022	 0.8517139388	 0.135578
H	-0.9522649341	-0.3808748834	 0.026366885	 0.13803
H	 0.7107546894	-1.5949992562	-4.1315676688	 0.131878
H	 4.3101905044	-0.8832210246	-2.5490102347	 0.110924
H	 3.800868087	-2.5695563164	-2.7283721903	 0.105774
H	 4.3550087451	-1.7654935197	-4.7777646652	 0.291756
19.8792	30.204	109.258	174.0263	221.3677	237.5339	286.2525	341.8334	406.6912	484.2069	654.7822	695.1825	711.7963	734.2273	794.5585	880.8282	973.181	1021.8958	1034.5814	1044.5988	1077.9061	1102.3537	1115.9501	1187.5368	1233.9648	1244.3113	1269.08	1342.9149	1384.8853	1392.7086	1401.7494	1410.5011	1451.236	1459.3875	1474.6869	1488.3271	1505.5167	1515.6119	1566.9186	2967.3906	3008.226	3046.7019	3080.2939	3120.3555	3122.59	3144.1844	3286.5283	3836.2071
CCN1N=CC(CO)=N1	CCn1ncc(CO)n1	
InChI=1S/C5H9N3O/c1-2-8-6-3-5(4-9)7-8/h3,9H,2,4H2,1H3	InChI=1S/C5H9N3O/c1-2-8-6-3-5(4-9)7-8/h3,9H,2,4H2,1H3
