19
gdb 94064	4.44062	0.9776	0.84381	3.9672	76.96	-0.2347	0.0212	0.2558	1354.8963	0.16079	-419.218441	-419.20985	-419.208906	-419.251588	32.497	
C	-0.0103413875	 1.5272204587	 0.0757091659	-0.40378
C	 0.0228275327	 0.0102909008	-0.0049107935	 0.129803
C	 0.7075931013	-0.5149670558	-1.2732815644	-0.171504
N	 0.885422462	-1.9716653154	-1.2813591313	-0.305881
C	 1.5042872063	-2.4275162677	-0.0304523569	-0.115806
C	 0.7874199061	-1.8656597082	 1.2202046012	-0.083929
O	 0.7286604473	-0.460027538	 1.1461375174	-0.257281
C	 1.549528019	-3.890999169	 0.0142048353	 0.263793
N	 1.5543139586	-5.0439290168	 0.087427109	-0.313333
H	 1.0052313681	 1.9334626324	 0.0425455663	 0.128181
H	-0.5802479549	 1.9448086762	-0.759725852	 0.119475
H	-0.476634184	 1.8482936932	 1.010508038	 0.130926
H	-1.0068487186	-0.3902137863	 0.0279975846	 0.062943
H	 0.1362507668	-0.2337538863	-2.163507889	 0.111581
H	 1.6990944281	-0.050232597	-1.3554354589	 0.11425
H	-0.0165624606	-2.4287407634	-1.3892239061	 0.227931
H	 2.5362300467	-2.0514545337	-0.0179512062	 0.137234
H	-0.2224516525	-2.304420383	 1.2828330814	 0.098509
H	 1.3338013052	-2.1173364908	 2.1335448392	 0.126888
83.7887	145.6237	204.6384	209.5738	256.0901	301.4837	341.0313	390.6209	464.4144	481.493	542.262	561.6343	602.7407	775.4086	821.2632	871.7681	913.5216	944.4827	999.6959	1039.9777	1063.9239	1096.8191	1130.0006	1145.0204	1154.1712	1182.0016	1247.9659	1280.3964	1313.5407	1333.2107	1357.8884	1375.4531	1400.3752	1408.1722	1413.8456	1469.9172	1483.6136	1484.3923	1493.591	1501.6971	2363.1212	2938.5613	2970.9069	3025.0515	3028.8075	3044.5997	3087.0375	3092.6987	3117.6695	3125.5185	3497.0075
CC1CNC(CO1)C#N	C[C@H]1CN[C@@H](CO1)C#N	
InChI=1S/C6H10N2O/c1-5-3-8-6(2-7)4-9-5/h5-6,8H,3-4H2,1H3	InChI=1S/C6H10N2O/c1-5-3-8-6(2-7)4-9-5/h5-6,8H,3-4H2,1H3/t5-,6+/m0/s1
