17
gdb 114727	2.80437	1.44314	1.15047	3.9246	67.64	-0.2518	-0.0449	0.2068	1076.0337	0.136308	-458.964226	-458.956287	-458.955343	-458.997093	29.933	
O	 0.3444874198	 1.1280772027	 0.3826816852	-0.425848
C	 0.0572223347	-0.2447490604	 0.2584707687	-0.063959
C	-1.4243646222	-0.4937206283	-0.1002623161	-0.13105
C	-1.8057949927	-1.9658505996	-0.3955654064	-0.285539
C	-2.7056863635	-2.3906992121	 0.7531823721	 0.052838
O	-2.0788287926	-2.2191525999	 2.022890169	-0.2414
C	-3.0539034189	-1.2385037033	 1.6015457534	-0.082386
C	-2.3155607762	-0.0409594604	 1.0625252982	 0.415967
O	-2.3737671007	 1.0858356487	 1.4990762785	-0.342197
H	-0.337624055	 1.5171757156	 0.9468227563	 0.296812
H	 0.6912121698	-0.631347853	-0.5473033287	 0.10823
H	 0.3023406452	-0.8082012346	 1.1728156641	 0.105198
H	-1.6534812448	 0.152638499	-0.9538615073	 0.118978
H	-2.3433374009	-2.0525922413	-1.344699756	 0.11751
H	-0.929707232	-2.6202616117	-0.4550582847	 0.125178
H	-3.3602979077	-3.2540740955	 0.669203828	 0.111343
H	-3.9444482722	-1.1411619661	 2.2134551258	 0.120326
60.1478	149.6337	197.823	199.6072	330.9592	373.9432	413.96	460.754	478.9929	599.9635	679.4072	726.6139	799.9139	823.1033	859.859	894.0227	962.2685	982.9551	1014.3448	1061.4289	1088.8921	1094.8306	1118.0245	1182.7101	1199.8484	1215.0303	1243.2697	1267.5487	1297.2877	1319.878	1339.3933	1377.058	1413.27	1450.7602	1481.6668	1519.8957	1816.8059	2982.0555	3049.6524	3056.1219	3067.6229	3093.9674	3155.396	3182.4866	3749.1857
OCC1CC2OC2C1=O	OC[C@H]1C[C@H]2O[C@H]2C1=O	
InChI=1S/C6H8O3/c7-2-3-1-4-6(9-4)5(3)8/h3-4,6-7H,1-2H2	InChI=1S/C6H8O3/c7-2-3-1-4-6(9-4)5(3)8/h3-4,6-7H,1-2H2/t3-,4-,6-/m1/s1
