22
gdb 108065	2.60019	1.52249	1.11814	1.9885	85.98	-0.2147	0.0787	0.2933	1186.2195	0.194145	-367.146702	-367.137838	-367.136893	-367.180073	34.442	
C	-0.3179155478	 1.4519678726	-0.0831010235	-0.37708
C	 0.187950289	 0.0073381187	 0.0348002936	-0.307009
C	 0.8928809923	-0.4870120862	-1.1988914005	 0.294702
C	 2.0069534106	 0.1899039154	-1.9874661904	-0.230229
N	 1.714608705	-0.7269715476	-3.1570941662	-0.1693
C	 2.1380367433	-2.0629997626	-2.5855034713	-0.221586
C	 0.9829740343	-1.9886156528	-1.5981981094	 0.258597
C	 0.3795197567	-3.1101870169	-0.8058806693	-0.510539
C	 0.3328938192	-0.9803496029	-2.5103412529	-0.127546
H	 0.506692778	 2.1542789372	-0.2414712191	 0.12008
H	-1.0108680538	 1.5585057944	-0.92408331	 0.118904
H	-0.8416806232	 1.7567663638	 0.8280145174	 0.111585
H	 0.8678977433	-0.0707964726	 0.8945561685	 0.100781
H	-0.6592816471	-0.6499755985	 0.2636554532	 0.098884
H	 1.7597494698	 1.2183302739	-2.2655795033	 0.104568
H	 3.0407835347	 0.1486929678	-1.622082084	 0.089684
H	 1.9884899756	-2.8449633487	-3.3369201541	 0.101491
H	 3.1729939668	-2.0980041967	-2.2227147553	 0.089648
H	 1.0415507862	-3.4246600363	 0.0098129237	 0.121186
H	-0.5804597661	-2.8304837405	-0.3613635162	 0.121707
H	 0.2018460614	-3.983734023	-1.4436271025	 0.121064
H	-0.623563248	-0.9107717086	-3.0108383682	 0.09041
69.0031	144.8956	187.3559	192.1303	234.269	276.7549	323.5966	377.5968	482.4693	488.6056	578.2123	654.246	720.9804	763.402	796.8685	846.6073	856.3427	902.3195	925.973	954.3053	971.9047	992.509	1000.018	1036.8528	1058.5944	1111.4199	1127.2971	1143.0021	1161.0108	1179.9005	1188.1432	1231.2323	1242.89	1286.4045	1312.5608	1347.7502	1377.3732	1407.2069	1415.1175	1431.3252	1477.8089	1489.0155	1496.138	1498.771	1501.543	1508.2067	1523.6485	3010.5542	3015.9606	3022.4202	3027.3863	3035.8644	3051.261	3078.7947	3080.3265	3087.016	3099.2769	3106.1719	3107.1936	3203.842
CCC12CN3CC1(C)C23	CC[C@@]12CN3C[C@]1(C)[C@@H]23	
InChI=1S/C8H13N/c1-3-8-5-9-4-7(8,2)6(8)9/h6H,3-5H2,1-2H3	InChI=1S/C8H13N/c1-3-8-5-9-4-7(8,2)6(8)9/h6H,3-5H2,1-2H3/t6-,7+,8-/m0/s1
