21
gdb 112866	1.94396	1.60034	1.01713	0.8161	82.1	-0.2427	0.0175	0.2602	1269.9671	0.180649	-424.241023	-424.23114	-424.230196	-424.275939	35.852	
C	-0.0514983435	 1.2511423721	-0.4121899469	-0.238006
O	-0.0944915514	-0.1584470511	-0.291437737	-0.242816
C	-1.3424535528	-0.6468979733	 0.1406395112	 0.123732
O	-2.3636764406	-0.4616441642	-0.8179272332	-0.277006
C	-2.72181979	-1.7194292524	-1.4120062267	 0.08111
C	-2.3438064885	-1.7495184575	-2.8940989798	-0.387969
C	-2.0031995978	-2.7370224116	-0.5689971761	-0.213983
C	-1.2233411429	-2.142023627	 0.3281563485	 0.298721
C	-0.2953889626	-2.7268154107	 1.3397791808	-0.496794
H	 0.9674992882	 1.5185054858	-0.7010585999	 0.123105
H	-0.7517719672	 1.6096257831	-1.1760718829	 0.124816
H	-0.2921731924	 1.7429363962	 0.5431910606	 0.10212
H	-1.6384538445	-0.0962966407	 1.0512254265	 0.06134
H	-3.8133397509	-1.8207117931	-1.3182635742	 0.083847
H	-1.2618894902	-1.6403761791	-3.0084345851	 0.128238
H	-2.6543218816	-2.694328764	-3.3531931443	 0.109695
H	-2.8383661682	-0.9314636071	-3.4256433155	 0.122637
H	-2.1108775524	-3.8043416198	-0.7212965647	 0.100711
H	-0.286059512	-3.8187039873	 1.2956165111	 0.123542
H	 0.7233150721	-2.3594330316	 1.1749801291	 0.146796
H	-0.5787000109	-2.4283932366	 2.3571532886	 0.126162
64.6927	112.2035	138.8484	169.148	180.6251	202.7944	236.4519	278.4393	359.7629	374.6913	474.9251	519.5784	565.8855	641.001	750.4937	841.3208	852.2775	919.0745	950.6429	993.1163	1005.663	1027.8624	1057.1795	1070.9037	1100.2212	1119.4218	1138.7439	1178.738	1210.2747	1214.4838	1284.267	1341.1918	1368.2332	1380.5514	1396.5202	1398.3689	1410.6527	1474.7436	1477.6995	1483.2974	1485.9134	1492.2073	1495.5907	1512.7879	1739.1173	2944.5042	2985.7054	2991.5389	3025.5157	3036.6428	3059.5321	3080.7476	3109.2936	3119.7958	3120.3936	3125.2646	3206.0285
COC1OC(C)C=C1C	CO[C@H]1O[C@@H](C)C=C1C	
InChI=1S/C7H12O2/c1-5-4-6(2)9-7(5)8-3/h4,6-7H,1-3H3	InChI=1S/C7H12O2/c1-5-4-6(2)9-7(5)8-3/h4,6-7H,1-3H3/t6-,7-/m0/s1
