16
gdb 9249	5.78466	0.765	0.71287	3.0423	73.64	-0.2702	-0.0655	0.2047	1552.0246	0.127307	-383.716046	-383.706479	-383.705535	-383.751583	32.028	
C	 0.0767195613	 1.48750925	 0.231809285	-0.387258
C	 0.054648394	-0.0301404187	 0.0444764013	-0.180625
C	 0.6518443433	-0.4560650006	-1.3149484718	-0.054065
O	 1.9861979298	 0.0032025399	-1.491528161	-0.408979
C	 0.5512947772	-1.9066328945	-1.4918681521	 0.091712
C	 0.51575101	-3.1109924017	-1.5905426775	 0.032727
C	 0.4326983755	-4.5420431978	-1.7289979256	 0.025042
O	 1.3617397682	-5.29998077	-1.5691089257	-0.228699
H	 1.0939262832	 1.8736567335	 0.1324744116	 0.135861
H	-0.5460392122	 1.9867594364	-0.5184935256	 0.118995
H	-0.3040347027	 1.761558041	 1.2196290097	 0.11699
H	 0.6246439409	-0.5252478741	 0.840736966	 0.105748
H	-0.9693325939	-0.4153552102	 0.1086915755	 0.113392
H	 0.0814966067	 0.0361547164	-2.1133692986	 0.126839
H	 2.5565769245	-0.5202912251	-0.9166799588	 0.290426
H	-0.5770153958	-4.9117743146	-2.0004505326	 0.101894
40.9777	72.3195	94.7213	127.3703	214.8894	239.1573	243.9973	293.8743	332.1907	391.9911	508.6258	549.8163	662.5353	773.7757	826.8235	898.4758	981.7133	1020.9851	1060.9006	1091.7301	1109.546	1154.2571	1252.397	1288.0095	1326.306	1368.3736	1407.2961	1418.5962	1422.8098	1480.9124	1495.0584	1507.9135	1767.858	2318.6358	2920.2103	3026.2779	3037.0195	3041.7083	3073.1341	3108.8225	3130.0284	3799.1869
CCC(O)C#CC=O	CC[C@@H](O)C#CC=O	
InChI=1S/C6H8O2/c1-2-6(8)4-3-5-7/h5-6,8H,2H2,1H3	InChI=1S/C6H8O2/c1-2-6(8)4-3-5-7/h5-6,8H,2H2,1H3/t6-/m1/s1
