23
gdb 106159	2.61683	1.43803	1.41394	0.3551	88.49	-0.2494	0.0799	0.3293	1118.1723	0.207418	-351.126806	-351.118579	-351.117635	-351.159369	33.199	
C	 0.0683649126	 1.5680803676	 0.0328220773	-0.380691
C	 0.001146636	 0.0354060788	 0.0178950322	-0.336736
C	-1.4018060931	-0.5057761322	 0.0107337034	 0.423299
C	-2.5100487685	-0.2506731035	-1.0887410154	-0.087117
C	-2.6238805713	-1.7806624147	-1.2970852735	-0.225522
C	-1.8074553837	-2.0308919189	-0.0049553596	-0.103756
C	-2.6269860294	-1.8064813972	 1.2899534861	-0.225526
C	-2.5126422617	-0.2726462911	 1.1124668891	-0.087097
C	-3.453034657	 0.2862511819	 0.0162279756	-0.22362
H	 1.1052023344	 1.9180030729	 0.0377814275	 0.111051
H	-0.4231717711	 1.994560821	-0.8481384619	 0.11767
H	-0.4258351238	 1.9774320155	 0.9203968106	 0.117668
H	 0.5386829482	-0.3452326168	-0.8621496616	 0.094838
H	 0.5361973049	-0.3621753306	 0.8919474144	 0.094841
H	-2.36885119	 0.3696601063	-1.9758812289	 0.056937
H	-3.6291851647	-2.2127951261	-1.3563207422	 0.085302
H	-2.0602119912	-2.0964338361	-2.1806443335	 0.094584
H	-1.0900698355	-2.8538475307	-0.0123120295	 0.056721
H	-3.6324282229	-2.2396729882	 1.3381384478	 0.085304
H	-2.0654383226	-2.139835702	 2.1683864303	 0.094582
H	-2.3735100649	 0.3298527506	 2.0121372007	 0.056934
H	-3.4549834908	 1.3806588634	 0.0271851899	 0.095664
H	-4.4919012939	-0.0628054499	 0.0115128112	 0.084671
84.2453	140.236	186.1975	266.4476	289.7863	351.4318	369.3868	417.1547	583.6369	612.3326	623.2758	765.6223	806.4883	827.3538	827.8896	898.7462	913.7941	938.1304	944.8655	949.6692	958.873	992.2636	1032.0329	1034.7088	1062.452	1106.2872	1117.3504	1121.6276	1136.6214	1162.5609	1162.6882	1205.7208	1206.1106	1236.5378	1279.4353	1282.3188	1288.2056	1308.6528	1324.9079	1331.361	1334.4135	1374.8725	1406.9045	1474.5071	1477.7861	1477.8826	1494.0875	1500.1601	1505.8418	2999.2937	3028.0223	3029.6427	3030.8926	3032.2656	3033.4973	3076.5219	3077.0881	3077.1987	3085.1987	3085.2882	3093.6511	3099.5147	3103.8341
CCC12C3CC1CC2C3	CC[C@@]12[C@H]3C[C@@H]1C[C@@H]2C3	
InChI=1S/C9H14/c1-2-9-6-3-7(9)5-8(9)4-6/h6-8H,2-5H2,1H3	InChI=1S/C9H14/c1-2-9-6-3-7(9)5-8(9)4-6/h6-8H,2-5H2,1H3/t6-,7+,8-,9+
