18
gdb 8219	5.24399	1.10313	0.98564	3.4138	67.9	-0.2417	-0.0174	0.2243	1197.634	0.151845	-384.9396	-384.930761	-384.929816	-384.974755	30.187	
C	-0.1275883967	 1.5122608665	-0.0726045006	-0.473066
C	-0.2280742843	 0.0008262128	 0.018585643	 0.382833
O	-0.5355627167	-0.5612573777	 1.0456931608	-0.289365
C	 0.0749799723	-0.7809704523	-1.2553561922	-0.333761
C	 0.1048652624	-2.2845249086	-1.036226464	-0.005995
C	-1.2354011597	-2.9908098711	-0.73927447	-0.067732
O	-1.0918029712	-3.8476325032	-1.8941767299	-0.273847
C	 0.127461082	-3.1908312221	-2.2879801304	-0.098062
H	 0.9123015248	 1.8057815608	-0.2581952738	 0.142124
H	-0.7183307661	 1.8922572429	-0.9131674647	 0.137601
H	-0.470118355	 1.9650005295	 0.8584846451	 0.14543
H	-0.6888186937	-0.5121796497	-2.0004941498	 0.12629
H	 1.024282058	-0.4196711233	-1.6749533597	 0.118734
H	 0.8773715216	-2.5369899008	-0.3073322319	 0.091179
H	-1.2858618215	-3.5586520911	 0.1951963351	 0.111643
H	-2.1247915054	-2.3509271872	-0.8118984086	 0.094912
H	 0.0194460856	-2.6626340818	-3.246448445	 0.090627
H	 0.9681240735	-3.8912229236	-2.3663791635	 0.100455
35.8603	62.3977	82.6594	116.5627	154.3211	308.3259	329.9016	417.0326	480.7004	583.5398	764.2438	810.3606	830.9235	883.1679	898.0883	947.8809	980.9161	986.2519	1036.3163	1063.5515	1118.0963	1149.646	1158.9683	1165.1498	1180.0461	1242.1169	1264.1849	1309.0329	1338.0657	1373.19	1385.0021	1404.834	1447.0921	1464.3446	1476.7827	1511.848	1537.5442	1806.7862	2991.3398	3005.7591	3016.2053	3036.3096	3038.7872	3041.6869	3069.9836	3095.7698	3097.3511	3153.1902
CC(=O)CC1COC1	CC(=O)CC1COC1	
InChI=1S/C6H10O2/c1-5(7)2-6-3-8-4-6/h6H,2-4H2,1H3	InChI=1S/C6H10O2/c1-5(7)2-6-3-8-4-6/h6H,2-4H2,1H3
