15
gdb 130440	2.71164	1.54427	0.99519	7.0865	75.01	-0.22	-0.0773	0.1427	1118.9831	0.114078	-446.23218	-446.224109	-446.223165	-446.266023	29.01	
N	 0.0499399528	 0.9341533686	 0.0561376271	-0.531154
H	-0.5936837327	 0.3989134808	-0.5132187996	 0.255729
H	 0.8456262943	 0.3405492486	 0.2509447638	 0.256471
H	 0.1755842776	 3.0305175157	-0.4617409294	 0.289539
C	-0.5875782881	 1.3977750822	 1.291433462	-0.275543
C	-0.7476995242	 2.8906931335	 1.2812743656	 0.405959
N	-0.2825273573	 3.572169911	 0.2767390701	-0.193763
N	-0.3362081002	 4.918280285	 0.0946213255	-0.160865
N	-0.9451509363	 5.577258903	 1.062686272	-0.062626
N	-1.4570663359	 5.0342712573	 2.1208847679	-0.271846
C	-1.3934359203	 3.6461531156	 2.3318966889	 0.289135
N	-1.8557925362	 3.0232796769	 3.3559208692	-0.55217
H	-1.5774871477	 0.9611200926	 1.4717969418	 0.162809
H	-0.0015238606	 1.1377263843	 2.1807119082	 0.164597
H	-2.2775073752	 3.701451435	 3.9943590871	 0.223727
33.7516	85.6306	198.6019	204.2296	250.7514	342.6414	423.3001	514.1287	565.2378	589.1783	633.8319	761.7705	772.6938	860.534	878.8797	908.3383	927.9168	988.732	1014.459	1045.4412	1070.9311	1115.0602	1172.9823	1212.539	1314.7137	1332.7513	1368.0199	1385.3312	1452.9654	1495.5608	1635.6024	1663.4306	1689.3674	3039.5782	3071.79	3426.8676	3460.0034	3544.7829	3622.1424
[NH3+]CC1=N[N-]N=NC1=N	NC[C@@H]1NN=NN=C1[NH]	
InChI=1S/C3H5N6/c4-1-2-3(5)7-9-8-6-2/h1,4H2,(H-,5,7,8)/q-1/p+1	InChI=1S/C3H7N6/c4-1-2-3(5)7-9-8-6-2/h2,5H,1,4H2,(H,6,9)/t2-/m0/s1
