20
gdb 38994	2.96482	1.71061	1.26417	2.0164	78.62	-0.2263	0.0909	0.3171	1032.8389	0.173717	-403.111095	-403.103879	-403.102935	-403.142468	29.654	
C	-0.0386934821	 1.4600847832	 0.1240008893	-0.304775
N	 1.2734504647	 0.8095412269	-0.08223387	-0.166145
C	 1.6191506243	 0.2317463416	 1.2679965462	-0.188161
C	 0.3850274104	-0.6963788343	 1.2607013183	 0.05622
O	 0.799049603	-2.0353423321	 1.068419978	-0.261874
C	-0.0690564666	-2.7803836246	 0.2249300771	-0.071542
C	-0.0675783022	-2.2162893338	-1.1970707926	-0.207184
C	-0.600181583	-0.7721201272	-1.1962746192	-0.318747
C	-0.0182255972	-0.002798256	-0.0446410943	 0.331772
H	-0.2602409359	 1.9055100857	 1.0930153274	 0.107092
H	-0.3575436423	 2.0553785176	-0.7272040696	 0.118985
H	 2.5444465261	-0.343065047	 1.2177279986	 0.123181
H	 1.6843455824	 0.9822261319	 2.0622689143	 0.099752
H	-0.3297096066	-0.6382811448	 2.0959549784	 0.063272
H	 0.3081268793	-3.8066506619	 0.2438553128	 0.109255
H	-1.0942930713	-2.7919872552	 0.634498109	 0.083165
H	 0.9618277692	-2.2361226099	-1.5715882398	 0.117527
H	-0.672779358	-2.8503753817	-1.8541111718	 0.094376
H	-0.3814896956	-0.2610886173	-2.1399448999	 0.111481
H	-1.6941924586	-0.7897178209	-1.0874163423	 0.102352
140.8569	153.9257	302.4919	340.8475	388.9995	438.027	460.7552	488.6265	573.8674	622.0136	743.3845	781.9544	846.3667	879.6536	887.5582	900.2164	912.3732	950.4562	1000.3565	1022.5836	1040.8265	1082.1043	1094.9798	1112.1221	1124.8782	1147.8858	1204.4088	1215.135	1223.2819	1257.3744	1282.5309	1300.2487	1328.3973	1332.3747	1356.7341	1371.3397	1408.0074	1412.6524	1467.0164	1479.0403	1482.5399	1500.2744	1509.4295	2955.7876	2975.2152	3007.1233	3039.5138	3052.1767	3070.0463	3086.17	3089.8659	3090.9202	3133.6287	3183.7918
C1N2CC3OCCCC123	C1N2C[C@@H]3OCCC[C@]123	
InChI=1S/C7H11NO/c1-2-7-5-8(7)4-6(7)9-3-1/h6H,1-5H2	InChI=1S/C7H11NO/c1-2-7-5-8(7)4-6(7)9-3-1/h6H,1-5H2/t6-,7+,8?/m0/s1
