19
gdb 74301	2.65623	1.14217	1.09862	3.6405	79.29	-0.2411	-0.0304	0.2106	1238.3082	0.157074	-423.054889	-423.045456	-423.044512	-423.08939	34.622	
C	 0.1285945204	 1.5609966003	-0.0121054318	-0.488445
C	 0.0756085422	 0.0665490623	-0.0409012497	 0.331816
C	-0.1405077821	-0.7099134785	-1.1074959051	-0.266818
C	-0.0712072078	-2.1870724124	-0.7846522278	 0.278335
O	 1.0107030562	-2.8291998537	-1.4655915719	-0.475712
C	 0.0255077929	-2.2119252532	 0.763209575	-0.284761
C	 0.2941760677	-0.75563685	 1.2094937717	-0.310425
C	-1.3152058728	-2.9008828539	-1.319341424	 0.143444
O	-2.3143994373	-3.1161418137	-0.6859907496	-0.250512
H	 1.0932372659	 1.9116074124	 0.3759507573	 0.12989
H	-0.021470741	 1.9948933665	-1.003877299	 0.128373
H	-0.6400471144	 1.9646694059	 0.6585969436	 0.135774
H	-0.3058181176	-0.3565613686	-2.1200962294	 0.095964
H	 1.7621204729	-2.2273778701	-1.4423844575	 0.277182
H	-0.9266945956	-2.5695454841	 1.1620353618	 0.134938
H	 0.8053782278	-2.9111446933	 1.0715608268	 0.110045
H	 1.3118221996	-0.6045729131	 1.5949744059	 0.106475
H	-0.3787105976	-0.4422993159	 2.016743916	 0.114992
H	-1.2156959895	-3.1948571669	-2.3870604723	 0.089443
59.7472	86.298	148.7996	178.8816	241.3099	263.6211	289.7666	323.6159	385.1936	424.6363	473.4705	549.8625	600.1273	668.7699	786.9717	825.8107	868.5951	885.7947	946.4354	968.7539	996.9885	1018.3062	1029.0452	1068.0374	1102.0207	1143.3791	1189.2958	1215.2808	1253.9266	1286.5209	1289.6706	1348.1199	1369.3623	1399.9813	1411.52	1476.1656	1478.6118	1485.0578	1494.8847	1706.0782	1836.6672	2900.5179	3015.0618	3022.4884	3049.8184	3069.8936	3075.301	3116.4501	3125.0707	3186.1442	3811.5839
CC1=CC(O)(CC1)C=O	CC1=C[C@@](O)(CC1)C=O	
InChI=1S/C7H10O2/c1-6-2-3-7(9,4-6)5-8/h4-5,9H,2-3H2,1H3	InChI=1S/C7H10O2/c1-6-2-3-7(9,4-6)5-8/h4-5,9H,2-3H2,1H3/t7-/m0/s1
