22
gdb 119995	2.33877	1.00365	0.82992	1.3202	80.04	-0.2208	0.066	0.2869	1499.2638	0.191741	-441.422797	-441.411871	-441.410927	-441.460014	38.11	
C	-0.2616667192	 0.7112289479	-3.5045207579	-0.225844
O	-0.1330176891	-0.617287805	-3.0552321066	-0.233327
C	 0.8818673555	-0.7698554816	-2.0814245285	-0.089179
C	 0.8469181431	-2.2023251227	-1.5965315752	-0.041714
C	 1.308544252	-3.3334775205	-2.463564301	-0.026881
C	 1.856118169	-3.1233982936	-3.8585577404	-0.081819
O	 2.9080939819	-4.0321849824	-4.1664048752	-0.421637
N	 2.0368059152	-2.9797049485	-1.2488620684	-0.107367
C	 3.3792906476	-2.4188236102	-1.3205959468	-0.310804
H	-0.5253547009	 1.3969879071	-2.683697313	 0.104971
H	 0.6669759427	 1.0782160262	-3.9704024634	 0.103932
H	-1.060617697	 0.7285049833	-4.249595146	 0.128725
H	 1.8597955865	-0.4965515906	-2.5035318885	 0.088787
H	 0.7007696824	-0.0877102398	-1.2334360827	 0.091955
H	 0.0010384336	-2.3996510691	-0.9392238981	 0.093747
H	 0.7657861755	-4.2774149077	-2.3689659984	 0.079039
H	 1.0259089171	-3.2091334935	-4.5758409576	 0.101168
H	 2.2848070693	-2.1286597394	-3.9897514435	 0.107694
H	 2.5702710195	-4.9251392871	-4.0409028826	 0.281516
H	 3.5760037488	-1.73628899	-2.158175991	 0.106095
H	 3.5834391137	-1.8809947499	-0.3890072028	 0.117716
H	 4.0893973228	-3.246336443	-1.4023128826	 0.133226
32.397	72.6751	95.1416	119.1181	143.14	200.9316	231.6273	261.0711	287.94	301.5685	333.4397	407.8574	503.7834	549.4331	569.4547	739.7092	813.6008	888.6347	973.5142	995.0896	1027.3207	1055.7059	1075.3049	1109.9107	1136.0869	1143.7099	1158.3953	1171.3941	1181.2741	1192.0655	1228.7439	1229.2975	1261.4572	1346.1861	1354.4364	1381.209	1407.9299	1428.0045	1447.4918	1463.2318	1479.7735	1483.6047	1485.7971	1498.1741	1507.113	1511.7009	1531.2514	2959.3414	2971.2341	2994.5433	2998.9762	3011.7695	3014.9675	3064.164	3072.074	3109.0272	3109.9635	3115.4733	3116.5025	3810.0221
COCC1C(CO)N1C	COC[C@H]1[C@@H](CO)N1C	
InChI=1S/C6H13NO2/c1-7-5(3-8)6(7)4-9-2/h5-6,8H,3-4H2,1-2H3	InChI=1S/C6H13NO2/c1-7-5(3-8)6(7)4-9-2/h5-6,8H,3-4H2,1-2H3/t5-,6+,7?/m1/s1
