19
gdb 105823	2.39954	1.4461	1.20758	2.4385	75.26	-0.2086	0.0623	0.2709	1114.9601	0.158528	-422.935167	-422.926587	-422.925643	-422.968211	33.384	
O	 0.1072715836	 1.3766687709	-0.0210115482	-0.414074
C	-0.0087500013	-0.0382574348	-0.1109821926	-0.160978
C	-1.4365015791	-0.4950443073	-0.0524834926	 0.271737
C	-2.0745193009	-0.9954083771	 1.2040086521	 0.019288
O	-3.2063760929	-0.4295489804	 1.8070608227	-0.417613
C	-2.0147994911	-1.9360920515	 0.030788482	-0.194066
C	-2.9312226081	-1.6213812329	-1.1783551167	-0.060813
C	-3.855000612	-0.4428826031	-1.0021605725	-0.307013
C	-2.3885320369	-0.2066790089	-1.2474551394	-0.101387
H	-0.3707255561	 1.6533995629	 0.7683731038	 0.285243
H	 0.4399160332	-0.303459958	-1.075491546	 0.108323
H	 0.5771437884	-0.5451215374	 0.6731623754	 0.081872
H	-1.3049301916	-1.2642416243	 1.9350802724	 0.088336
H	-3.7028915412	-1.1434578626	 2.222753446	 0.287336
H	-1.4608876947	-2.8658310549	 0.0987929498	 0.087923
H	-3.047545475	-2.3292180691	-1.9885697091	 0.089418
H	-4.4677449599	-0.2490743808	-1.8789911166	 0.106261
H	-4.3202117992	-0.2052748015	-0.0576285849	 0.134812
H	-2.0240821553	 0.3321853908	-2.1121320956	 0.095396
81.3957	130.4352	195.6966	267.1216	276.8413	298.0965	334.1936	393.1147	415.4994	506.6907	600.4316	693.483	703.777	764.3442	776.085	862.4422	889.5716	912.0321	940.6358	972.0681	998.5991	1011.3321	1035.1211	1048.7607	1063.3304	1091.3476	1099.69	1132.8751	1191.3657	1204.17	1243.4479	1265.8441	1289.7013	1303.5737	1343.419	1359.9115	1375.0943	1423.633	1477.8389	1486.3138	1504.185	2969.827	3045.4657	3056.1926	3132.1676	3169.2508	3191.174	3201.6738	3254.1753	3797.2952	3805.1414
OCC12C(O)C1C1CC21	OC[C@]12[C@@H](O)[C@H]1[C@H]1C[C@@H]21	
InChI=1S/C7H10O2/c8-2-7-4-1-3(4)5(7)6(7)9/h3-6,8-9H,1-2H2	InChI=1S/C7H10O2/c8-2-7-4-1-3(4)5(7)6(7)9/h3-6,8-9H,1-2H2/t3-,4+,5+,6-,7+/m0/s1
