19
gdb 112519	2.29674	1.23801	1.11025	0.7239	77.01	-0.259	0.0127	0.2717	1229.7073	0.156771	-422.973434	-422.963784	-422.96284	-423.008275	35.425	
C	-0.0473711809	 1.2661580452	-0.5981652284	-0.386497
C	-0.0635480061	-0.2246232769	-0.2478006192	-0.183425
C	-1.4112208027	-0.6661204767	 0.2978601395	 0.099307
O	-2.4848584697	-0.5430173034	-0.6810120845	-0.294876
C	-2.6634940796	-1.9727926262	-0.7721468424	-0.107474
C	-2.2082879974	-2.5405628269	-2.033285295	 0.313204
C	-1.7694608417	-3.0361214476	-3.0386961616	-0.433928
C	-1.6725076897	-2.1940315904	 0.4210585153	 0.060959
O	-0.6258609481	-3.1010561324	 0.2763598938	-0.420787
H	 0.9164061556	 1.5616114906	-1.0229127265	 0.112328
H	-0.8282272426	 1.4933498221	-1.3293740514	 0.137313
H	-0.2268399277	 1.8840087231	 0.2887309493	 0.113542
H	 0.1786212118	-0.8161957934	-1.1382546397	 0.093915
H	 0.7015213796	-0.4563189696	 0.5034512702	 0.107101
H	-1.6627089118	-0.091231196	 1.1988602132	 0.076845
H	-3.7044261364	-2.2573894181	-0.58007882	 0.109038
H	-1.420313653	-3.4622321911	-3.9474039634	 0.209352
H	-2.1963309331	-2.4559930339	 1.3426419482	 0.105478
H	-0.3796498364	-3.1329543085	-0.6574198771	 0.288605
51.0952	93.6524	136.2654	163.6243	210.7002	235.1195	287.1205	328.0038	382.2796	447.4146	511.1314	569.0473	600.5255	648.1638	672.2447	761.8468	780.3767	828.7508	900.8722	920.5821	972.4068	999.4867	1042.4935	1061.202	1104.0711	1148.6423	1176.5988	1199.7374	1254.7874	1279.0731	1292.4093	1328.7626	1337.2868	1353.2366	1405.184	1411.8466	1446.8974	1472.8249	1498.6644	1508.7994	2220.9546	3016.886	3032.2749	3036.7594	3038.9407	3070.5712	3093.5668	3104.3423	3119.9391	3497.9057	3759.1931
CCC1OC(C#C)C1O	CC[C@H]1O[C@@H](C#C)[C@H]1O	
InChI=1S/C7H10O2/c1-3-5-7(8)6(4-2)9-5/h1,5-8H,4H2,2H3	InChI=1S/C7H10O2/c1-3-5-7(8)6(4-2)9-5/h1,5-8H,4H2,2H3/t5-,6+,7+/m0/s1
