18
gdb 124952	3.00177	1.25587	0.95792	3.4676	79.52	-0.2305	-0.0034	0.2271	1241.9289	0.147832	-401.940685	-401.932267	-401.931323	-401.974731	30.821	
C	 0.0846801657	 1.5030954042	-0.230563141	-0.494879
C	-0.0517255417	 0.0271270002	-0.104677107	 0.327946
C	-1.1120630319	-0.8085735934	 0.1065940161	 0.104895
C	-0.4967395925	-2.0963771192	 0.1119917448	-0.056208
N	 0.7966198021	-2.0425141232	-0.0759794833	-0.143346
O	 1.0862471081	-0.6904321725	-0.2148244261	-0.213446
C	-2.5365010359	-0.4661294571	 0.2845504258	-0.11475
C	-3.6299490158	-1.366524457	-0.2557561514	-0.26685
C	-3.4187782925	-1.2594526599	 1.2282283644	-0.266854
H	 0.7522797692	 1.9030946911	 0.5399528557	 0.150472
H	 0.5046476483	 1.7771442669	-1.2041490088	 0.150474
H	-0.8879971746	 1.9878263876	-0.1274127552	 0.139651
H	-0.9610212213	-3.0638596025	 0.2478697111	 0.125968
H	-2.7446183628	 0.5979171271	 0.2373546981	 0.0813
H	-4.5054947121	-0.8969835766	-0.6901144896	 0.117993
H	-3.323129433	-2.2801580085	-0.7534519908	 0.119819
H	-2.9675876242	-2.099951397	 1.7445232954	 0.119818
H	-4.1485773351	-0.7161026501	 1.8180367515	 0.117996
48.4791	75.6256	159.2328	166.7777	243.2464	277.094	432.7174	452.4451	589.067	637.9515	696.519	701.9859	791.7506	821.0478	900.7557	909.4922	918.0051	924.0447	965.0551	1006.6244	1062.3913	1063.3859	1069.0483	1079.904	1127.793	1136.5863	1199.9283	1210.2262	1234.3283	1261.7487	1391.2941	1408.397	1434.3608	1469.3422	1472.6116	1485.2867	1502.7359	1518.7329	1676.197	3040.4584	3095.146	3132.885	3135.7146	3136.6323	3155.6466	3212.1356	3227.3086	3232.6579
CC1=C(C=NO1)C1CC1	Cc1c(cno1)C1CC1	
InChI=1S/C7H9NO/c1-5-7(4-8-9-5)6-2-3-6/h4,6H,2-3H2,1H3	InChI=1S/C7H9NO/c1-5-7(4-8-9-5)6-2-3-6/h4,6H,2-3H2,1H3
