13
gdb 20771	3.34167	2.33867	1.3875	1.8305	63.14	-0.2491	-0.0628	0.1863	826.3351	0.095423	-398.602158	-398.59539	-398.594445	-398.633138	24.987	
C	-0.0319705763	 1.4817944062	 0.0373475762	-0.456211
C	-0.0092805228	-0.0147809385	 0.0009531669	 0.242462
N	-0.048746914	-0.5652792683	-1.1659465101	-0.121495
O	-0.0284527018	-1.9605130184	-1.225212675	-0.227226
C	 0.0300784906	-2.6872854476	-0.1037811392	 0.116731
C	 0.0734765592	-2.1785450165	 1.1420093137	-0.271108
C	 0.0563397803	-0.742914773	 1.3042277913	 0.327589
O	 0.09115182	-0.135206135	 2.3630034456	-0.354126
H	 0.8605460969	 1.8515485743	 0.5512837447	 0.155514
H	-0.0807963777	 1.8915508682	-0.9717782086	 0.143128
H	-0.8899025018	 1.8232099743	 0.6245473841	 0.1555
H	 0.0376273237	-3.7459003407	-0.3423802715	 0.155523
H	 0.1202235538	-2.826417465	 2.0076014819	 0.13372
117.3665	159.1154	278.084	290.1978	429.9889	468.883	473.0338	520.8265	596.7035	705.748	772.1604	861.8617	867.2112	900.1378	978.4068	1033.535	1045.409	1053.0493	1177.2088	1265.5823	1342.8462	1407.8403	1438.6689	1460.3019	1466.231	1620.7327	1654.8327	1756.0968	3052.3742	3111.4833	3158.1147	3194.9579	3226.659
CC1=NOC=CC1=O	Cc1noccc1=O	
InChI=1S/C5H5NO2/c1-4-5(7)2-3-8-6-4/h2-3H,1H3	InChI=1S/C5H5NO2/c1-4-5(7)2-3-8-6-4/h2-3H,1H3
