14
gdb 34795	2.38991	1.5772	1.11663	4.0493	71.58	-0.2874	-0.0268	0.2606	1053.8829	0.102409	-395.665741	-395.658453	-395.657508	-395.697784	27.223	
N	-0.1043581619	-1.1703355603	-0.0487031691	-0.313056
C	-0.0397194704	-0.01741071	-0.0062528392	 0.300801
C	 0.0314128545	 1.4346449478	 0.0195335339	-0.152101
N	 0.0583918355	 2.1028483905	 1.4161692796	-0.142385
C	 1.5278348391	 1.6372329585	 1.4845238246	-0.221998
C	 1.4161195163	 2.1544264185	 0.0275676738	 0.19802
C	 0.6206708503	 3.3214478299	 0.6615947342	-0.203924
C	 2.4125052374	 2.1900348537	-1.0216474414	 0.15775
N	 3.2082025439	 2.2287248153	-1.8588923971	-0.323536
H	-0.7302899948	 1.8610705215	-0.6368975162	 0.141667
H	 2.1347792116	 2.2230221176	 2.175540467	 0.133959
H	 1.6489910197	 0.5648668079	 1.6387642395	 0.156983
H	-0.112986081	 3.8381543173	 0.0399073092	 0.131951
H	 1.1723083699	 4.0088786316	 1.3031236211	 0.13587
97.7565	172.5525	181.9435	217.9894	446.8228	451.9114	499.9856	523.3138	550.7698	594.7828	654.3253	781.4477	815.9806	894.7963	912.6736	975.4275	999.4376	1049.9506	1070.9342	1095.4014	1142.0752	1158.2329	1175.6322	1202.9375	1250.0089	1281.6808	1382.5329	1514.2093	1551.863	2354.97	2360.7882	3079.8099	3089.1317	3097.5076	3157.6438	3164.9709
N#CC1N2CC1(C2)C#N	N#C[C@H]1N2C[C@@]1(C2)C#N	
InChI=1S/C6H5N3/c7-1-5-6(2-8)3-9(5)4-6/h5H,3-4H2	InChI=1S/C6H5N3/c7-1-5-6(2-8)3-9(5)4-6/h5H,3-4H2/t5-/m1/s1
