17
gdb 98725	2.76389	1.09307	0.91287	3.2197	76.51	-0.2556	-0.0316	0.224	1303.1987	0.133224	-421.793574	-421.784306	-421.783362	-421.828224	33.831	
O	 0.1286098418	 1.347094541	-0.1947112552	-0.420694
C	-0.0195114046	-0.0354327924	-0.2888703613	-0.136768
C	-1.4197699724	-0.4720405977	 0.1180417214	 0.361567
O	-2.2273742835	 0.3691455459	 0.4608811812	-0.339068
C	-1.7263432608	-1.9239322142	 0.0610372745	-0.128359
C	-2.9196460159	-2.4460483155	 0.8215276111	-0.291388
C	-3.0029383061	-2.3955478496	-0.6783134749	-0.189469
C	-3.8646419041	-1.4754722969	-1.3578721071	 0.356871
C	-4.5982580151	-0.7373298804	-1.9591492364	-0.458548
H	-0.7393699994	 1.6708518995	 0.097659064	 0.295017
H	 0.164557516	-0.3960984136	-1.3158304071	 0.118263
H	 0.7053703505	-0.5624427875	 0.3553426412	 0.113744
H	-0.8689743007	-2.5774640142	-0.0617059206	 0.102983
H	-2.8346779023	-3.4167997405	 1.2952226232	 0.128688
H	-3.4840443321	-1.6960473856	 1.3627684242	 0.15694
H	-2.8656348018	-3.3432116209	-1.1915764667	 0.127115
H	-5.2454216195	-0.0718337674	-2.4746634614	 0.203106
47.6827	96.3799	124.6973	173.6888	226.527	255.6303	325.2507	383.8995	425.9498	502.0481	523.7931	597.2979	614.1801	659.6728	693.8265	765.7987	809.057	852.4315	899.2241	970.2598	1025.5642	1057.9623	1088.8852	1103.562	1126.2084	1146.3086	1157.7461	1217.2783	1242.7566	1307.0397	1381.7519	1409.9417	1454.5924	1470.7703	1491.629	1781.275	2243.073	2961.6752	2976.1944	3145.6919	3147.387	3168.9282	3246.958	3505.1369	3673.1653
OCC(=O)C1CC1C#C	OCC(=O)[C@H]1C[C@H]1C#C	
InChI=1S/C7H8O2/c1-2-5-3-6(5)7(9)4-8/h1,5-6,8H,3-4H2	InChI=1S/C7H8O2/c1-2-5-3-6(5)7(9)4-8/h1,5-6,8H,3-4H2/t5-,6+/m1/s1
