19
gdb 65069	2.07496	1.67441	1.25075	2.23	75.69	-0.2539	-0.0375	0.2164	1094.0786	0.156646	-423.003366	-422.994267	-422.993323	-423.037114	34.048	
C	-0.1260484514	 1.4327735442	 0.5931684309	-0.479613
C	-0.0514344867	 0.0073218373	 0.0732933224	 0.26447
C	 0.9588642337	-0.3213071373	-0.9996774711	-0.312834
C	 1.1602548354	-0.8288509563	 0.4074782686	-0.293064
C	-1.3773851904	-0.702042277	 0.018180627	 0.22636
C	-2.2466286685	-0.6134018195	-1.1794511403	-0.216711
O	-1.5186473792	-1.7987613308	-0.9058103093	-0.262703
C	-2.0938702486	-1.0026967388	 1.3057750766	 0.134499
O	-1.7868980277	-0.5770620037	 2.3887211109	-0.253646
H	 0.8687781858	 1.8882046445	 0.5935613856	 0.115555
H	-0.7737616864	 2.0514831309	-0.0394700883	 0.109807
H	-0.5149125313	 1.4578573138	 1.6136345609	 0.15029
H	 0.6814269728	-1.0475405908	-1.7542485183	 0.127487
H	 1.5890664862	 0.4885488139	-1.3510191745	 0.109606
H	 1.93022431	-0.3760029176	 1.0222856594	 0.115784
H	 1.0156813914	-1.8900048258	 0.5790847504	 0.120964
H	-3.3290293346	-0.6962945452	-1.0881131472	 0.124162
H	-1.8837531313	-0.0188047157	-2.0158686008	 0.132246
H	-2.9565664892	-1.6916535864	 1.162669327	 0.087341
65.1154	124.8026	179.1333	202.6723	230.8644	269.406	311.9699	356.0988	372.8897	436.738	514.5731	553.754	637.8333	791.4642	849.9102	859.5341	876.6309	887.9026	930.2221	957.406	979.7917	1036.4529	1052.6648	1074.7638	1089.0969	1129.8618	1135.6225	1157.5322	1195.4167	1215.5632	1298.8301	1326.5595	1380.4717	1411.9756	1433.6524	1461.1169	1488.5213	1497.3219	1514.3338	1516.0366	1829.4186	2886.065	3030.5075	3085.1423	3095.1235	3129.3613	3134.0381	3138.768	3178.0865	3216.2792	3232.1398
CC1(CC1)C1(CO1)C=O	CC1(CC1)[C@]1(CO1)C=O	
InChI=1S/C7H10O2/c1-6(2-3-6)7(4-8)5-9-7/h4H,2-3,5H2,1H3	InChI=1S/C7H10O2/c1-6(2-3-6)7(4-8)5-9-7/h4H,2-3,5H2,1H3/t7-/m1/s1
