18
gdb 88406	2.11998	1.37134	0.90767	2.1615	79.76	-0.2355	-0.0365	0.199	1282.5878	0.144028	-401.880119	-401.870298	-401.869354	-401.915589	34.897	
C	-0.563728346	 1.3174027625	 0.1057412204	-0.323101
N	-0.0168289551	-0.0336825616	 0.1067611883	-0.083388
C	 1.3589988525	-0.2200452716	-0.3367840335	-0.2513
C	 0.9813691214	-0.4392919245	 1.087637714	 0.006144
C	 1.5085784134	 0.4962116144	 2.185720211	-0.295962
C	 0.5013868524	 0.5059315144	 3.3469639571	 0.171761
O	-0.2171858044	 1.4325923042	 3.6035550591	-0.241992
C	 2.8043725159	 0.0385951429	 2.6727162598	 0.297008
C	 3.8445417802	-0.370525242	 3.1150081792	-0.420887
H	 0.1851811711	 2.1141127149	 0.234824109	 0.104844
H	-1.0618014707	 1.4827461612	-0.8543558865	 0.126158
H	-1.3062212357	 1.4146634458	 0.9020679755	 0.144184
H	 1.5474969216	-1.0616131705	-0.9980923411	 0.12187
H	 1.9491112094	 0.6706961934	-0.5536961456	 0.111918
H	 0.8573839805	-1.463006473	 1.4384353639	 0.105248
H	 1.5799327261	 1.5222339179	 1.8144682727	 0.126137
H	 0.4776734736	-0.4404910907	 3.9301104899	 0.096912
H	 4.7765283738	-0.7151292778	 3.4903619068	 0.204446
50.6799	65.599	113.4848	161.6136	186.2393	222.8287	257.513	333.2353	394.0308	440.0638	501.3654	515.4765	521.7954	637.8787	652.7375	746.5884	871.0784	907.313	953.4276	1003.1336	1031.753	1052.4136	1103.7711	1118.1612	1128.7281	1151.251	1173.7632	1201.5239	1223.6413	1280.6859	1339.8765	1401.1629	1419.355	1454.7273	1485.3951	1503.2341	1514.527	1837.6498	2234.1253	2897.4253	2981.1993	3074.7376	3079.802	3085.0313	3112.7131	3120.5545	3174.9989	3502.7306
CN1CC1C(C=O)C#C	CN1C[C@H]1[C@@H](C=O)C#C	
InChI=1S/C7H9NO/c1-3-6(5-9)7-4-8(7)2/h1,5-7H,4H2,2H3	InChI=1S/C7H9NO/c1-3-6(5-9)7-4-8(7)2/h1,5-7H,4H2,2H3/t6-,7+,8?/m1/s1
