15
gdb 32280	2.64667	1.52967	0.97526	3.1144	69.81	-0.2525	-0.0236	0.229	1127.1245	0.114581	-454.003592	-453.995747	-453.994803	-454.036476	28.68	
O	-0.0122573049	 1.4705385352	 0.0499756788	-0.418434
C	 0.0251131691	 0.0575220746	-0.007388325	-0.17096
C	-1.3833726362	-0.4691917541	-0.0007221163	 0.12712
C	-2.5123969348	 0.3319182089	 0.0539392264	-0.037281
N	-3.7661620103	-0.1534265025	 0.0590064439	-0.271316
C	-3.8699680474	-1.4741480834	 0.0076865754	 0.068437
N	-2.8658116567	-2.356923504	-0.047416284	-0.352495
C	-1.6440107795	-1.8454658536	-0.0510797802	 0.38169
O	-0.603003853	-2.6969695923	-0.1054617318	-0.411329
H	 0.8921248652	 1.795088402	 0.046803208	 0.295938
H	 0.5396481359	-0.2994934268	-0.9144187387	 0.113513
H	 0.5744431442	-0.3701282976	 0.8471422595	 0.113515
H	-2.4014213298	 1.4099093398	 0.0951205618	 0.139422
H	-4.8736469137	-1.8921201176	 0.0112736626	 0.119352
H	-0.982357668	-3.5874844384	-0.1336434203	 0.302829
60.7594	162.6449	194.7152	215.2619	277.6617	338.8731	421.7268	523.2442	553.8938	562.8398	609.1993	629.388	793.713	809.2502	910.0999	958.5946	1007.4495	1053.2093	1079.2709	1128.2854	1179.6237	1216.4263	1233.8314	1250.1516	1316.4024	1346.5472	1360.3869	1441.0796	1463.5311	1496.3276	1510.1877	1617.3553	1652.5933	2966.1996	2984.3198	3166.6429	3202.1041	3754.5275	3846.7762
OCC1=CN=CN=C1O	OCc1cncnc1O	
InChI=1S/C5H6N2O2/c8-2-4-1-6-3-7-5(4)9/h1,3,8H,2H2,(H,6,7,9)	InChI=1S/C5H6N2O2/c8-2-4-1-6-3-7-5(4)9/h1,3,8H,2H2,(H,6,7,9)
