17
gdb 95114	2.5582	1.56975	1.1652	1.912	74.46	-0.2506	0.0193	0.2699	1075.6332	0.135122	-421.783539	-421.775285	-421.774341	-421.816214	31.942	
O	 0.0983094886	 1.3671669204	-0.1487174196	-0.432494
C	 0.0703527053	-0.0408008229	-0.084255805	 0.064499
C	 0.751560049	-0.6336506403	 1.1781295935	-0.256995
C	 0.0181572485	-1.9555162643	 1.4880507755	-0.252639
C	-1.3726488406	-1.7336506373	 0.9275137005	-0.013048
O	-1.9383929614	-0.4619934558	 1.2645658039	-0.309725
C	-1.3442576208	-0.6289121683	-0.0497338683	 0.208979
C	-2.2126423618	-0.5148267879	-1.1831372974	 0.193168
C	-2.9061626738	-0.405992057	-2.1587203912	-0.342075
H	-0.4270891194	 1.6949017475	 0.591179743	 0.288913
H	 0.5660995327	-0.3852551705	-0.9985314836	 0.10051
H	 1.8257159089	-0.7642228686	 1.0340205932	 0.10957
H	 0.6147593929	 0.0733539351	 2.000621244	 0.113573
H	 0.4748560879	-2.8053459942	 0.9671359642	 0.112771
H	 0.00513474	-2.1952346737	 2.5557937022	 0.116562
H	-2.0878723645	-2.5476842831	 0.8429794266	 0.106818
H	-3.5279128014	-0.3089629392	-3.0142462716	 0.191614
94.8365	135.6674	163.5347	240.2738	333.1723	377.6771	395.2146	464.1376	517.902	543.2743	595.4005	617.5834	655.2994	668.85	694.9323	827.0368	863.5382	919.9859	933.2668	959.4736	1016.2946	1032.0938	1098.9053	1108.0397	1160.1455	1201.1443	1228.267	1267.8915	1301.1374	1311.8199	1333.1597	1346.6452	1423.2438	1442.4247	1479.1868	1491.8002	2242.837	3042.4315	3057.6907	3070.8406	3087.1725	3122.4131	3154.6397	3502.0875	3788.5277
OC1CCC2OC12C#C	O[C@H]1CC[C@H]2O[C@@]12C#C	
InChI=1S/C7H8O2/c1-2-7-5(8)3-4-6(7)9-7/h1,5-6,8H,3-4H2	InChI=1S/C7H8O2/c1-2-7-5(8)3-4-6(7)9-7/h1,5-6,8H,3-4H2/t5-,6+,7-/m0/s1
