12
gdb 5658	5.45898	2.29353	1.615	4.1261	61.38	-0.2027	0.0035	0.2062	712.8901	0.087966	-377.556044	-377.550706	-377.549762	-377.585272	21.141	
N	-0.0301902797	 1.3896129996	 0.0102626285	-0.402321
C	 1.3053193909	 1.7397824332	-0.0010859289	-0.007443
N	 2.1245747416	 0.701146127	-0.014569424	-0.347969
C	 1.2644711342	-0.3431151771	-0.0117112629	 0.366832
C	-0.0630461459	 0.0116886788	 0.0032352331	 0.273281
C	-0.8188155771	-1.1991322403	 0.0041341004	-0.339569
C	 0.1339734597	-2.1811812832	-0.0105652787	-0.005365
O	 1.4179336143	-1.6876728189	-0.0204367125	-0.196359
H	-0.8051209272	 2.0296015282	 0.0213876549	 0.269443
H	 1.6149888214	 2.7736325063	 0.0013632852	 0.135199
H	-1.8853504865	-1.3555091127	 0.0137892128	 0.11601
H	 0.0593608743	-3.2557201309	-0.0156326279	 0.138261
212.1701	353.088	451.601	487.3278	590.5797	649.1111	705.7198	710.9105	750.837	761.006	786.3827	801.538	909.3926	972.3226	1042.3151	1086.8708	1148.0501	1174.0042	1255.016	1318.1963	1384.3361	1433.9364	1469.1529	1514.3994	1562.3389	1590.9705	3260.3863	3260.9797	3289.2013	3680.3375
N1C=NC2=C1C=CO2	[nH]1cnc2c1cco2	
InChI=1S/C5H4N2O/c1-2-8-5-4(1)6-3-7-5/h1-3H,(H,6,7)	InChI=1S/C5H4N2O/c1-2-8-5-4(1)6-3-7-5/h1-3H,(H,6,7)
