18
gdb 95736	2.89418	1.22904	0.90047	5.4121	80.64	-0.2406	-0.0326	0.208	1278.7854	0.149126	-398.163122	-398.15432	-398.153376	-398.196748	32.383	
C	-0.0959898671	 1.5554642773	 0.0125553563	-0.390944
C	 0.0763099603	 0.0365644884	 0.0151242565	 0.054691
C	 0.7613343039	-0.475592338	-1.2638227553	-0.213297
C	 0.9935255178	-1.9861596542	-1.1790850756	-0.174251
N	 1.5861604595	-2.3086138367	 0.1122171883	-0.351149
C	 1.4769554476	-1.4403001272	 1.1671375603	 0.280553
N	 0.8035437733	-0.3551577068	 1.2261825976	-0.310738
C	 2.2257643224	-1.850011072	 2.3429136053	 0.260635
N	 2.8354972544	-2.2075543976	 3.2571575605	-0.323706
H	 0.8779851923	 2.051383292	-0.0516526936	 0.120171
H	-0.7075466689	 1.8804207439	-0.8353652363	 0.10627
H	-0.5767982503	 1.8796785809	 0.9386765907	 0.129919
H	-0.9244265952	-0.4200569295	 0.0761191808	 0.089361
H	 0.1570685869	-0.2445123488	-2.1457313934	 0.10786
H	 1.7233599381	 0.0374999255	-1.3799176095	 0.114024
H	 0.0447962589	-2.5253197691	-1.3067298513	 0.118855
H	 1.6675420689	-2.3227754081	-1.973278904	 0.11883
H	 2.2169444672	-3.0874914999	 0.1941071727	 0.262915
76.7486	117.238	156.8867	227.8414	246.698	267.3607	319.3003	376.1036	449.461	472.6625	527.8379	580.1722	606.3459	723.1312	807.0358	883.5271	921.9478	933.1883	967.179	1007.038	1071.8228	1131.2461	1162.0001	1170.3147	1220.5778	1239.7133	1282.0742	1325.5335	1341.5497	1371.2391	1381.0103	1409.0583	1479.1783	1488.3282	1498.949	1506.0128	1537.3704	1694.6564	2360.2069	2975.4025	3007.4598	3036.8807	3041.1856	3071.1716	3095.0296	3108.7829	3125.2738	3659.0956
CC1CCNC(=N1)C#N	C[C@H]1CCNC(=N1)C#N	
InChI=1S/C6H9N3/c1-5-2-3-8-6(4-7)9-5/h5H,2-3H2,1H3,(H,8,9)	InChI=1S/C6H9N3/c1-5-2-3-8-6(4-7)9-5/h5H,2-3H2,1H3,(H,8,9)/t5-/m0/s1
