22
gdb 57461	2.87339	1.26925	1.12788	1.8464	81.19	-0.2449	0.026	0.2709	1204.5506	0.193698	-404.376565	-404.36703	-404.366086	-404.410643	36.159	
C	 0.2821255233	 1.5369408474	 0.1204811116	-0.417424
C	 0.013554276	 0.0268951514	-0.0031557913	 0.233829
C	 0.722669996	-0.7124956289	 1.1475721104	-0.409362
C	-1.4992029631	-0.2525778398	 0.0693870511	-0.416687
C	 0.5416911883	-0.5295304702	-1.3422354531	 0.107433
C	 0.0006369494	 0.0991891506	-2.6576977634	-0.2116
N	 1.1906369812	 0.5669426761	-3.3901348102	-0.265742
C	 2.175465324	 0.3022903657	-2.6399956128	 0.11687
O	 1.9809687937	-0.3043188607	-1.4465372938	-0.239958
H	 1.3528752451	 1.7498926734	 0.0605450489	 0.125178
H	-0.2236796165	 2.1131108286	-0.660642838	 0.11649
H	-0.0809913198	 1.9056661243	 1.0852416276	 0.112324
H	 0.3622650006	-0.352014615	 2.1167287404	 0.10869
H	 0.5328669627	-1.7907917505	 1.1011312349	 0.107254
H	 1.8039548146	-0.5584633037	 1.1052618142	 0.129862
H	-2.0529702632	 0.2777796946	-0.7120007516	 0.117245
H	-1.7121859632	-1.322786683	-0.0328477214	 0.111987
H	-1.8985849252	 0.0735231816	 1.0350435564	 0.117125
H	 0.4033638414	-1.6170915053	-1.3420741399	 0.085287
H	-0.5488829146	-0.6257492393	-3.2655731818	 0.117443
H	-0.6721406556	 0.9446068989	-2.4804671767	 0.115783
H	 3.2133840747	 0.5239897037	-2.8641525916	 0.137974
71.0528	92.6568	204.4329	208.3298	253.9472	258.2067	287.2868	321.3592	343.8945	384.4739	453.2217	480.3544	536.3642	707.5195	759.5646	852.4321	888.0764	936.3954	938.8658	959.0299	960.9768	971.4263	986.2094	1001.2648	1022.9648	1061.5183	1079.9882	1131.5263	1200.1722	1239.6146	1244.1508	1284.6038	1310.6807	1324.6694	1354.3457	1379.684	1398.0001	1400.1773	1433.1962	1477.4615	1486.3353	1489.029	1494.5184	1506.4321	1512.7989	1520.9488	1711.447	3026.9803	3028.0274	3032.5259	3040.1505	3049.2386	3081.1249	3092.	3097.3726	3100.6435	3105.0469	3116.1278	3120.5554	3212.3198
CC(C)(C)C1CN=CO1	CC(C)(C)[C@H]1CN=CO1	
InChI=1S/C7H13NO/c1-7(2,3)6-4-8-5-9-6/h5-6H,4H2,1-3H3	InChI=1S/C7H13NO/c1-7(2,3)6-4-8-5-9-6/h5-6H,4H2,1-3H3/t6-/m1/s1
