15
gdb 16830	3.77957	1.88903	1.43009	2.8987	60.55	-0.2418	-0.0234	0.2184	846.1165	0.120112	-399.796457	-399.789654	-399.78871	-399.827558	26.228	
O	-0.0217809959	 1.4206297661	 0.006744622	-0.437233
C	 0.0212372375	 0.013492259	-0.0911880366	 0.148386
C	 0.809195728	-0.692370375	 1.0455582369	-0.372666
C	 0.0631840888	-2.0010912446	 1.3201100827	 0.44263
O	 0.529623481	-3.0273824642	 1.7428532604	-0.319618
C	-1.3542974975	-1.8080113798	 0.8533093279	-0.162961
N	-1.9189703029	-0.5030770087	 1.3180820092	-0.346324
C	-1.3699503755	-0.616731617	-0.0392925021	-0.074569
H	-0.5492984715	 1.620021082	 0.7907745761	 0.288633
H	 0.4851947981	-0.2030052553	-1.0586801099	 0.101071
H	 1.8564228829	-0.8830551779	 0.8074125897	 0.131424
H	 0.7787828226	-0.0768262934	 1.9510794971	 0.139715
H	-2.0079976279	-2.6636215991	 0.7332371608	 0.111152
H	-2.9333406885	-0.5758283158	 1.2847246936	 0.246693
H	-2.0329612192	-0.5460494363	-0.8948422777	 0.103667
87.5485	168.8622	292.1443	360.3527	440.8913	476.4738	501.279	537.4989	616.6535	679.5391	803.7424	823.5099	866.2924	877.1845	916.6898	960.5353	1005.7714	1051.6413	1096.7873	1115.4497	1142.6741	1161.7887	1195.1976	1240.7116	1258.9111	1316.697	1334.0513	1354.5982	1398.6534	1437.7512	1447.5042	1847.683	3061.5478	3068.0788	3131.8667	3173.8981	3196.2631	3500.8535	3775.3279
OC1CC(=O)C2NC12	O[C@H]1CC(=O)[C@H]2N[C@@H]12	
InChI=1S/C5H7NO2/c7-2-1-3(8)5-4(2)6-5/h2,4-7H,1H2	InChI=1S/C5H7NO2/c7-2-1-3(8)5-4(2)6-5/h2,4-7H,1H2/t2-,4-,5+/m0/s1
