16
gdb 34913	2.99307	1.62097	1.30537	3.4184	73.18	-0.2389	0.0558	0.2947	981.2726	0.124686	-400.659727	-400.652511	-400.651567	-400.691347	28.708	
C	 0.0539129349	-1.225093374	 0.0175242166	-0.460196
C	 0.0324826868	-0.0241293308	 0.0371356821	 0.351742
C	-0.0057405448	 1.4315629219	 0.0399290185	-0.218194
C	-0.7125634194	 2.0626711707	 1.2572309588	-0.059488
N	-0.0712055621	 1.8250939115	 2.5537238029	-0.299707
C	 0.1718073561	 3.1012484661	 1.8513672773	-0.085609
C	 1.4666797498	 3.1164474663	 1.0608904975	 0.042339
O	 2.2107317079	 1.8983719958	 1.1222048295	-0.219868
C	 1.3779456067	 2.1088607166	-0.0092506341	 0.019583
H	 0.0834633378	-2.2863704099	 0.0162347599	 0.19458
H	-0.5471341089	 1.7727883677	-0.8543324428	 0.106853
H	-1.7917414785	 2.1693334513	 1.2130032585	 0.097568
H	-0.7539076826	 1.9721297022	 3.2937832326	 0.235099
H	-0.2105835882	 4.0300495957	 2.2598169443	 0.091542
H	 2.0496346402	 4.0297125807	 0.9816393931	 0.099525
H	 1.8906450143	 2.1786002181	-0.9661352046	 0.10423
107.3633	129.5762	282.4125	307.6743	370.4789	505.2077	527.6773	573.9659	622.9095	633.9494	700.3245	745.6749	788.7791	843.3496	863.5937	875.6312	880.8348	913.1927	971.7138	990.1463	1042.8631	1063.2908	1080.7039	1104.2644	1144.5956	1166.3985	1222.0847	1261.4915	1282.3559	1311.1565	1315.0549	1373.216	1421.3062	1429.6488	2241.4848	3007.6117	3135.1754	3154.6358	3157.7295	3178.6336	3496.8855	3505.5922
C#CC1C2NC2C2OC12	C#C[C@H]1[C@H]2N[C@H]2[C@H]2O[C@@H]12	
InChI=1S/C7H7NO/c1-2-3-4-5(8-4)7-6(3)9-7/h1,3-8H	InChI=1S/C7H7NO/c1-2-3-4-5(8-4)7-6(3)9-7/h1,3-8H/t3-,4+,5+,6-,7+/m0/s1
