18
gdb 103522	2.43978	1.472	1.20656	2.5103	73.14	-0.2156	0.0006	0.2162	1091.1507	0.14704	-439.1261	-439.116928	-439.115984	-439.159794	33.955	
C	-0.0436119459	 1.5564224727	-0.0003879436	-0.424051
C	-0.0119812015	 0.0167956628	-0.0567430153	 0.107194
C	-1.4413050388	-0.550632237	-0.0575639543	-0.092498
O	-2.1034569933	-0.0698497856	-1.2173318743	-0.42968
C	 0.8285100843	-0.5268006606	-1.1918304469	-0.166993
C	 1.8461624308	-1.2264987119	-0.6847585128	-0.043084
N	 1.801121681	-1.2410348389	 0.7209383346	-0.336461
C	 0.7179251404	-0.5298200615	 1.1934080308	 0.393126
O	 0.4095919316	-0.3730443127	 2.3542644026	-0.388867
H	 0.9663432201	 1.970873517	-0.0612716931	 0.117474
H	-0.6357766861	 1.9463946814	-0.8303827106	 0.135538
H	-0.493816242	 1.8800677904	 0.9431153779	 0.132017
H	-1.3987751365	-1.6505007076	-0.0529394586	 0.091871
H	-1.9432529257	-0.2269200915	 0.8657934359	 0.10799
H	-3.0141244147	-0.3767250205	-1.191596156	 0.290327
H	 0.6159981966	-0.3657305404	-2.2369423436	 0.116306
H	 2.6438205647	-1.7509630688	-1.1913708925	 0.129051
H	 2.4632029449	-1.6937004172	 1.32881304	 0.26074
86.7356	126.124	165.228	209.5268	226.1325	246.252	273.014	335.5399	354.4822	456.0439	558.1247	594.6399	625.9899	718.8346	741.1758	763.783	808.1349	905.4659	922.8526	968.6599	978.2539	1062.9155	1075.9341	1104.065	1146.0696	1162.0342	1202.3367	1223.2509	1278.4953	1298.0082	1373.3668	1393.8602	1408.0992	1449.4634	1492.1243	1496.832	1519.2727	1666.3445	1824.7706	2979.3666	3021.5289	3044.7088	3116.6429	3138.5195	3234.4612	3265.5387	3663.6632	3836.2798
CC1(CO)C=CNC1=O	C[C@@]1(CO)C=CNC1=O	
InChI=1S/C6H9NO2/c1-6(4-8)2-3-7-5(6)9/h2-3,8H,4H2,1H3,(H,7,9)	InChI=1S/C6H9NO2/c1-6(4-8)2-3-7-5(6)9/h2-3,8H,4H2,1H3,(H,7,9)/t6-/m0/s1
