17
gdb 85193	2.36681	1.32074	0.93754	3.9832	74.61	-0.2651	0.0093	0.2744	1237.1006	0.135328	-418.045659	-418.036603	-418.035659	-418.080446	31.94	
C	 0.066548651	 1.6667600485	 0.0732606263	-0.403984
C	 0.0528062033	 0.1463912066	 0.0697788328	 0.04884
C	 1.0175101325	-0.5826652553	-0.9172208465	-0.397393
C	 1.6556807771	-1.2204498613	 0.3333292822	 0.420454
O	 2.5099292852	-2.0281585019	 0.5804147303	-0.362942
N	 0.8101684502	-0.5075881412	 1.1583330156	-0.080597
C	 0.6017383986	-0.6367509059	 2.5761912101	-0.309262
C	 0.8056956285	 0.6195179114	 3.3151026765	 0.273687
N	 0.9436220238	 1.6128374496	 3.8881804636	-0.303848
H	 1.0920686184	 2.0464108524	 0.1117346792	 0.132814
H	-0.412026781	 2.0458375373	-0.8353468983	 0.127285
H	-0.4760631538	 2.0704575419	 0.9330713006	 0.140684
H	-0.9758667734	-0.2315586869	 0.0113565356	 0.08889
H	 0.5527784985	-1.3002852661	-1.5951074376	 0.138241
H	 1.6859542552	 0.0749776906	-1.4762797323	 0.139114
H	-0.4063419746	-1.0095344139	 2.8043272272	 0.158166
H	 1.3191532605	-1.3850794758	 2.9317060149	 0.18985
47.5694	73.3391	113.0269	208.6172	222.7834	240.1864	300.7162	377.0667	431.0996	457.655	544.4541	592.841	706.7276	763.7395	825.7952	908.0307	926.9883	930.8671	1025.0195	1055.8363	1077.5984	1102.9579	1144.3348	1186.0005	1216.7225	1260.5234	1314.7859	1367.0576	1383.1492	1404.6317	1417.9976	1453.3311	1462.5504	1489.1611	1493.9626	1882.7463	2363.7089	3015.4259	3024.2634	3040.2527	3082.0721	3087.5764	3113.6939	3118.2216	3146.8555
CC1CC(=O)N1CC#N	C[C@H]1CC(=O)N1CC#N	
InChI=1S/C6H8N2O/c1-5-4-6(9)8(5)3-2-7/h5H,3-4H2,1H3	InChI=1S/C6H8N2O/c1-5-4-6(9)8(5)3-2-7/h5H,3-4H2,1H3/t5-/m0/s1
