15
gdb 124425	3.346	1.13213	0.98832	2.922	70.58	-0.2797	-0.0288	0.2509	1189.1594	0.112995	-416.818608	-416.810514	-416.80957	-416.852385	28.863	
C	 0.0128736819	 1.5769459956	-0.0150271292	-0.39362
C	 0.054150499	 0.0300842381	 0.0010416323	-0.249515
C	 0.6448723678	-0.4829297666	-1.2409903525	 0.275275
N	 1.1215183749	-0.8628997857	-2.2224634312	-0.321353
C	 0.7994482082	-0.4961755318	 1.2034998811	 0.396319
N	 0.1153439737	-0.88321898	 2.2538198864	-0.199616
O	 1.0593486512	-1.2573220335	 3.199627757	-0.159423
C	 2.2841828905	-1.0874060602	 2.6815855314	 0.088796
C	 2.2036830352	-0.6049208716	 1.4167477674	-0.330219
H	 1.0224952321	 1.9919377845	-0.0645155627	 0.141809
H	-0.5521389171	 1.9335686557	-0.8793292847	 0.14369
H	-0.4691244356	 1.9318808899	 0.8984360572	 0.146613
H	-0.9717353858	-0.3480039266	 0.0660614417	 0.156772
H	 3.1076779806	-1.355522002	 3.3250223426	 0.160959
H	 3.0037412833	-0.3785492359	 0.7323902131	 0.143513
35.0397	111.8775	170.7705	202.3404	229.6403	342.5554	384.3538	478.3311	565.5304	618.3918	706.2307	735.7468	805.1805	863.3272	879.7044	918.9478	955.5854	987.395	1008.139	1075.6317	1084.1095	1117.5772	1158.1673	1287.2982	1304.8105	1323.3993	1407.3209	1450.1762	1475.6223	1492.9934	1499.0777	1606.5677	2362.2192	3054.6323	3064.7839	3136.1617	3141.6876	3266.4296	3291.1108
CC(C#N)C1=NOC=C1	C[C@@H](C#N)c1nocc1	
InChI=1S/C6H6N2O/c1-5(4-7)6-2-3-9-8-6/h2-3,5H,1H3	InChI=1S/C6H6N2O/c1-5(4-7)6-2-3-9-8-6/h2-3,5H,1H3/t5-/m0/s1
