14
gdb 126083	4.69732	1.34459	1.09612	3.9261	63.91	-0.2338	-0.0036	0.2301	1042.2946	0.101481	-473.792902	-473.785949	-473.785005	-473.824707	26.351	
C	-0.4598049193	 1.5185172608	 0.0356134493	-0.398346
C	 0.1622937591	 0.1476690966	-0.0020692673	 0.181873
O	 1.0001412128	 0.0013407494	-1.1830845616	-0.290295
C	 2.1607031876	-0.5278286049	-0.7156935011	 0.178125
C	 3.3654527728	-1.0225278522	-1.0571004389	-0.071769
O	 4.0325856096	-1.3300212865	 0.0999419873	-0.1948
N	 3.2352928646	-1.0263925408	 1.2314188969	-0.261283
C	 2.1533648577	-0.5591972617	 0.6875730397	 0.418659
O	 0.9977671013	-0.0642526016	 1.173155292	-0.272875
H	 0.320585711	 2.2825788716	 0.0614745648	 0.145877
H	-1.0786633356	 1.663979601	-0.8532717869	 0.143893
H	-1.0886840905	 1.6139454544	 0.9241498088	 0.145577
H	-0.5831544838	-0.6577760264	-0.020682826	 0.116185
H	 3.8953340327	-1.2177195998	-1.973233197	 0.15918
56.5601	223.2201	258.068	328.9151	343.3474	463.7658	527.1682	543.7827	661.2703	734.6975	741.6154	766.9002	782.0222	854.1551	870.9246	877.6821	976.2215	1060.7388	1081.037	1107.6278	1153.6624	1199.4036	1286.2446	1360.6297	1389.0441	1421.5451	1480.9042	1483.1446	1496.0795	1632.928	1720.0104	3030.2335	3057.2777	3139.7265	3144.4009	3290.1044
CC1OC2=CON=C2O1	C[C@H]1Oc2conc2O1	
InChI=1S/C5H5NO3/c1-3-8-4-2-7-6-5(4)9-3/h2-3H,1H3	InChI=1S/C5H5NO3/c1-3-8-4-2-7-6-5(4)9-3/h2-3H,1H3/t3-/m0/s1
