18
gdb 98476	2.2318	1.43731	0.97649	2.5947	69.72	-0.2418	0.012	0.2538	1227.5799	0.146519	-476.224786	-476.215118	-476.214174	-476.260088	34.171	
C	 0.1690113809	 1.4985431636	-0.0341514675	-0.335607
N	 0.466994818	 0.079943883	 0.0039665772	-0.330905
C	 0.4740888575	-0.6243940248	 1.1645640893	 0.370387
O	 0.2760220139	-0.1405206195	 2.2659195344	-0.382298
C	 0.7517781726	-2.1201455987	 0.9925589364	 0.256846
C	 1.5117485272	-2.6135367601	-0.2200960956	-0.174165
O	 0.7898317792	-2.3830797956	-1.4297913864	-0.410622
C	 0.7090276033	-2.9371822975	 2.2107644372	-0.203603
O	-0.3970373139	-2.940294907	 1.3053884438	-0.27735
H	 0.904418653	 2.030281499	-0.6460885944	 0.126514
H	-0.8300942125	 1.6911582716	-0.4430934676	 0.128306
H	 0.2057668749	 1.8757057246	 0.9881552835	 0.168283
H	 0.5179974521	-0.4472625047	-0.8585792861	 0.262446
H	 2.4613368463	-2.0807362158	-0.3267699143	 0.128012
H	 1.7275485817	-3.6826127659	-0.0969446322	 0.111376
H	-0.0556114032	-2.8394391703	-1.3365317912	 0.301854
H	 1.281228068	-3.8627816802	 2.252103848	 0.110619
H	 0.5307963309	-2.4248313716	 3.1514813054	 0.149905
58.4265	64.9616	121.6183	136.7154	186.2059	267.0511	291.17	326.5314	346.2061	407.9476	475.9296	498.4017	637.2496	698.317	767.3905	794.4349	856.4915	918.0966	960.3484	980.8604	1048.9734	1060.6093	1133.394	1151.9998	1168.1844	1179.5893	1193.8113	1246.2486	1310.5042	1347.1228	1410.493	1431.1852	1440.4831	1488.7279	1495.1342	1502.6323	1506.1174	1591.6898	1778.2692	3023.5763	3027.9883	3084.3043	3094.9433	3096.3992	3155.801	3206.5156	3556.1375	3789.359
CNC(=O)C1(CO)CO1	CNC(=O)[C@@]1(CO)CO1	
InChI=1S/C5H9NO3/c1-6-4(8)5(2-7)3-9-5/h7H,2-3H2,1H3,(H,6,8)	InChI=1S/C5H9NO3/c1-6-4(8)5(2-7)3-9-5/h7H,2-3H2,1H3,(H,6,8)/t5-/m1/s1
