19
gdb 5269	6.24866	1.07821	0.99745	2.1575	78.1	-0.1991	0.0476	0.2467	1228.8836	0.166881	-327.96747	-327.959323	-327.958379	-328.000865	29.966	
C	-0.0309755783	 1.5501918431	-0.0130871995	-0.379921
C	 0.0028409267	 0.0202139274	-0.0015569169	-0.164443
C	 0.733059655	-0.535034875	 1.2290561938	-0.163729
N	 0.7818968998	-1.9856692068	 1.2690902364	 0.042032
C	-0.181295758	-2.8018303314	 1.8113021888	-0.100101
C	 0.171513097	-4.1098637106	 1.5709605641	-0.167436
C	 1.396309635	-4.0885137294	 0.8490886478	-0.167383
C	 1.7435641951	-2.7682845433	 0.6770082048	-0.100125
H	 0.980520054	 1.9715653102	-0.0215993274	 0.117315
H	-0.5541703939	 1.926283428	-0.8968196457	 0.120594
H	-0.5454489279	 1.944622562	 0.8703596263	 0.117323
H	-1.0165777203	-0.3821877501	-0.0174508931	 0.109982
H	 0.4982792676	-0.3552873175	-0.9042974232	 0.109946
H	 1.7616158342	-0.1583755389	 1.2559370115	 0.115197
H	 0.2433783536	-0.1852932851	 2.1446773257	 0.115201
H	-1.0300249086	-2.377425762	 2.3247591895	 0.107943
H	-0.3789406466	-4.9817454578	 1.8897821776	 0.089841
H	 1.9641622335	-4.9409114809	 0.5088097012	 0.089838
H	 2.5926188321	-2.3143310519	 0.1900488683	 0.107925
50.8	84.8483	99.5287	223.2752	285.402	354.1898	368.2947	623.3356	635.5263	680.1486	732.896	740.8483	750.4755	794.5822	845.5837	881.1314	885.8053	896.7889	987.9878	1042.2882	1083.9518	1084.4795	1114.3314	1122.5929	1136.1092	1249.3323	1299.4513	1315.8086	1323.6449	1331.5116	1403.5491	1414.3878	1422.9056	1433.6991	1480.1037	1493.1379	1498.5769	1510.5299	1535.9101	1560.681	3030.1582	3033.6487	3043.5572	3064.0331	3084.1913	3101.9011	3108.7488	3236.6614	3246.1158	3257.5965	3267.2337
CCCN1C=CC=C1	CCCn1cccc1	
InChI=1S/C7H11N/c1-2-5-8-6-3-4-7-8/h3-4,6-7H,2,5H2,1H3	InChI=1S/C7H11N/c1-2-5-8-6-3-4-7-8/h3-4,6-7H,2,5H2,1H3
