12
gdb 21277	5.59799	1.74954	1.34426	2.5155	58.47	-0.2544	-0.0887	0.1657	842.67	0.084594	-410.815978	-410.80939	-410.808446	-410.847031	22.942	
C	-0.0157644141	 1.3973134957	 0.0097180968	-0.237734
O	 0.0214355246	-0.0391832764	-0.0362092763	-0.230469
C	 0.6117481829	-0.6109966174	-1.0688469855	 0.526354
N	 0.618752468	-1.9450416423	-1.0641114148	-0.275679
C	 1.2235499787	-2.4479235623	-2.1245513682	 0.117599
N	 1.785724264	-1.7500955362	-3.1251591486	-0.183839
N	 1.7325779034	-0.4361530369	-3.0486671038	-0.054388
N	 1.1492689596	 0.1617087262	-2.0275787474	-0.268749
H	 0.9953476425	 1.8096199173	 0.0243031526	 0.15409
H	-0.5516044323	 1.7976476546	-0.8535112945	 0.154101
H	-0.5418559787	 1.6351348829	 0.9335882786	 0.146612
H	 1.2803267014	-3.5299379953	-2.2104028288	 0.152101
114.0449	155.1842	202.1229	251.1937	350.4309	508.2638	585.35	606.975	708.1457	860.969	870.8672	1011.5169	1012.8304	1027.7542	1071.3911	1153.464	1176.9151	1200.0506	1297.6818	1382.2965	1426.0503	1483.1466	1490.142	1511.1786	1555.2127	1571.8113	3059.4511	3140.2004	3168.6348	3179.0881
COC1=NC=NN=N1	COc1ncnnn1	
InChI=1S/C3H4N4O/c1-8-3-4-2-5-7-6-3/h2H,1H3	InChI=1S/C3H4N4O/c1-8-3-4-2-5-7-6-3/h2H,1H3
