19
gdb 82958	3.07382	1.51775	1.43324	1.3001	74.68	-0.2371	0.0782	0.3153	1009.3659	0.159619	-422.979627	-422.971924	-422.97098	-423.011702	30.491	
C	-0.0963014132	 1.5703233181	-0.1419917004	-0.402433
C	 0.0837320995	 0.0718328709	-0.078879896	-0.072163
C	 1.441564483	-0.5794606122	-0.2180180667	 0.045266
O	 2.5643151384	 0.2634084576	-0.2446983037	-0.253585
C	 3.4064025923	 0.0585981285	 0.8598606684	 0.076229
C	 3.5589816969	 1.2074486519	 1.8221463212	-0.331815
C	 2.6930034298	 0.028668381	 2.182010262	 0.076304
O	 1.3037568031	 0.2100098176	 2.0914576184	-0.253619
C	 0.7254722248	-0.609620122	 1.1088541114	 0.045349
H	-0.1704755059	 1.9063372911	-1.1811999383	 0.117514
H	-1.0112860383	 1.8710714353	 0.3783222492	 0.117521
H	 0.743088386	 2.0872618087	 0.3222608894	 0.136311
H	-0.7232681701	-0.5032782577	-0.5274099035	 0.087063
H	 1.548617848	-1.4867421016	-0.8096039069	 0.088037
H	 4.2475363194	-0.6051191927	 0.6707961196	 0.092645
H	 4.5066732207	 1.3245770077	 2.336273195	 0.115149
H	 3.0480149149	 2.1284346635	 1.5671552341	 0.135557
H	 3.0097382449	-0.6570260895	 2.9651257188	 0.092643
H	 0.3071890758	-1.5390902962	 1.4905832481	 0.088029
117.2309	128.7821	175.3381	270.6299	306.2536	459.8448	465.8194	486.0209	572.3062	612.1626	749.8973	768.4296	807.8634	815.4785	851.4835	859.0729	918.3383	990.8555	992.7984	1023.3405	1033.5727	1071.9472	1102.9288	1109.2999	1114.439	1129.5139	1148.821	1148.8777	1167.9083	1187.1981	1217.1507	1252.2482	1311.5409	1351.5842	1384.3258	1389.5702	1415.1175	1428.7491	1466.6959	1490.9899	1497.363	3043.3668	3099.6002	3107.5911	3114.5182	3116.0246	3125.3798	3134.5162	3141.2028	3155.8463	3234.7653
CC1C2OC3CC3OC12	C[C@H]1[C@H]2O[C@H]3C[C@H]3O[C@@H]12	
InChI=1S/C7H10O2/c1-3-6-7(3)9-5-2-4(5)8-6/h3-7H,2H2,1H3	InChI=1S/C7H10O2/c1-3-6-7(3)9-5-2-4(5)8-6/h3-7H,2H2,1H3/t3-,4-,5+,6+,7-
