16
gdb 32507	2.17115	1.50548	0.89396	1.3422	80.76	-0.203	0.0167	0.2197	1234.4289	0.124018	-400.748641	-400.739772	-400.738828	-400.782857	32.654	
O	-0.0266423306	 1.419825974	 0.0084478261	-0.421624
C	 0.0075026093	-0.0003171202	 0.0017226799	-0.216823
C	-1.3971666333	-0.5096655731	 0.011834001	 0.172451
C	-2.5414674919	 0.2442700082	 0.0235014517	-0.146204
N	-3.6160273512	-0.61600349	 0.0296530911	-0.247933
C	-3.1827645176	-1.9085872102	 0.0220239979	-0.19082
C	-1.7975378381	-1.8903539725	 0.0110403746	 0.067296
C	-0.9368748731	-3.0116469903	 0.0007140897	 0.255444
C	-0.1772135107	-3.9478391944	-0.0082503682	-0.48405
H	 0.8802192485	 1.737647607	 0.0021179927	 0.289116
H	 0.5362165161	-0.3826090852	-0.8871179624	 0.103495
H	 0.5517990214	-0.3907204052	 0.877513882	 0.103519
H	-2.6685698835	 1.3129060976	 0.0278948772	 0.140533
H	-4.5799413397	-0.3330622721	 0.0384863573	 0.265703
H	-3.8674529261	-2.7404203488	 0.0249854444	 0.129822
H	 0.4835794205	-4.7781664146	-0.0160978248	 0.180076
36.9265	112.5219	166.574	213.4134	220.8393	262.0741	397.3306	458.0674	495.3058	521.2448	547.8917	596.4527	632.1731	650.2712	665.9756	733.6711	737.0576	776.0087	915.213	1048.541	1057.3266	1087.5439	1111.1722	1186.4774	1219.9296	1241.7809	1259.7572	1332.3225	1370.511	1464.5083	1477.7924	1516.3073	1550.4549	1614.7112	2225.6307	2959.5427	2975.1818	3272.9258	3289.8047	3506.5278	3687.7312	3842.1459
OCC1=CNC=C1C#C	OCc1c[nH]cc1C#C	
InChI=1S/C7H7NO/c1-2-6-3-8-4-7(6)5-9/h1,3-4,8-9H,5H2	InChI=1S/C7H7NO/c1-2-6-3-8-4-7(6)5-9/h1,3-4,8-9H,5H2
