16
gdb 105665	2.02376	1.45309	1.22715	4.545	65.39	-0.2711	-0.0056	0.2655	1097.657	0.122889	-474.997203	-474.988152	-474.987208	-475.031294	32.443	
O	-0.017584204	 1.296590549	-0.4354426572	-0.414302
C	-0.0151132985	-0.0535591357	-0.0385234719	-0.087902
C	-1.45351485	-0.5474683939	 0.1532484031	 0.174463
O	-2.1978216682	-0.3454850463	-1.0770935677	-0.316489
C	-2.2666113268	-1.7711487321	-1.3344119455	-0.091859
C	-1.679240034	-2.1011043639	 0.0449337235	 0.008365
O	-0.5514182203	-2.9243980546	-0.0062058669	-0.409312
C	-2.1133580473	 0.1005988974	 1.2889691355	 0.267924
N	-2.6335545322	 0.5503560214	 2.2178463116	-0.331938
H	-0.5985468613	 1.3538841042	-1.2047678746	 0.297486
H	 0.473309506	-0.7086923755	-0.7720606904	 0.11106
H	 0.5418258521	-0.1193783965	 0.9009408605	 0.123227
H	-3.2911056851	-2.0982905851	-1.530360778	 0.128243
H	-1.6103753322	-2.0755544928	-2.1569626307	 0.126477
H	-2.4216267545	-2.4571033771	 0.7654325507	 0.112698
H	-0.3459568436	-3.2351433184	 0.8812003879	 0.301859
77.0992	98.4706	151.8357	171.1823	192.6242	288.9667	304.8549	380.6973	427.9814	466.7625	504.5356	548.8366	597.774	675.4812	780.6982	895.3528	940.5724	1000.0894	1023.3833	1030.7432	1084.3037	1127.0994	1135.2803	1156.0563	1184.2335	1241.3493	1255.4652	1312.7077	1334.0012	1376.6318	1425.6698	1450.9383	1498.3104	1516.6775	2353.242	3020.8845	3045.0381	3062.2688	3092.4646	3106.142	3779.6191	3825.5921
OCC1(OCC1O)C#N	OC[C@]1(OC[C@H]1O)C#N	
InChI=1S/C5H7NO3/c6-2-5(3-7)4(8)1-9-5/h4,7-8H,1,3H2	InChI=1S/C5H7NO3/c6-2-5(3-7)4(8)1-9-5/h4,7-8H,1,3H2/t4-,5-/m1/s1
