16
gdb 97292	2.5329	1.21504	0.9327	4.5032	73.95	-0.2492	0.01	0.2593	1250.6478	0.12381	-434.05435	-434.045281	-434.044337	-434.088823	32.089	
N	 0.080995377	 1.3922160949	-0.058041611	-0.504376
C	-0.0635593325	 0.0557164403	-0.2618676615	 0.099279
N	-0.9371763303	-0.6321986591	 0.3661043518	-0.294077
C	-1.0225980401	-2.055743191	 0.1818712969	 0.129803
C	-1.0871761937	-2.8776203738	 1.5108208249	-0.091159
O	-2.3784514723	-3.4127783186	 1.1831607003	-0.264205
C	-2.4795658788	-2.5947925601	 0.0077627186	-0.090103
C	-0.082037934	-2.6183468766	-0.7959665339	 0.241625
N	 0.6786736441	-3.0069007772	-1.5760667773	-0.356294
H	 0.58764943	 1.9384573252	-0.7323317316	 0.267313
H	-0.6314457003	 1.8644384514	 0.4764719096	 0.265569
H	 0.6525992352	-0.3631545405	-0.9780616533	 0.12664
H	-0.3301529848	-3.6580610531	 1.6379137399	 0.119992
H	-1.1102834547	-2.218804995	 2.3856808788	 0.115867
H	-3.2160999018	-1.790645052	 0.1122969621	 0.114522
H	-2.677387723	-3.1816533648	-0.8949119944	 0.119604
62.0536	84.9362	135.6849	180.2805	203.3465	248.4978	317.9454	400.4383	413.3396	453.8135	535.8998	576.301	585.9595	721.7685	832.2779	896.6187	969.0423	982.285	1002.342	1045.7436	1055.4802	1092.5954	1158.4082	1161.4189	1187.8844	1249.0461	1303.4789	1315.4476	1367.3347	1423.3497	1498.745	1525.7589	1628.4252	1747.5565	2339.3548	3027.3218	3037.5845	3065.2263	3091.0318	3092.808	3598.9142	3730.5006
NC=NC1(COC1)C#N	NC=NC1(COC1)C#N	
InChI=1S/C5H7N3O/c6-1-5(8-4-7)2-9-3-5/h4H,2-3H2,(H2,7,8)	InChI=1S/C5H7N3O/c6-1-5(8-4-7)2-9-3-5/h4H,2-3H2,(H2,7,8)
