17
gdb 71477	4.067	1.20944	1.09028	3.2222	74.76	-0.2405	-0.0223	0.2182	1125.2513	0.134161	-421.777683	-421.769786	-421.768842	-421.810018	30.294	
C	-0.038710706	 1.5456946755	 0.1114821964	-0.505608
C	-0.1051572953	 0.0622801933	-0.0570874569	 0.412356
C	 0.4038800068	-0.7107013216	-1.3049036761	-0.320486
C	-0.4762168084	-1.8517676031	-0.8138609023	 0.214659
C	-0.8696564514	-3.0926419377	-1.4741140053	 0.038228
O	-0.4242984449	-3.481167131	-2.5298675969	-0.269634
C	-0.4262473854	-1.7202840788	 0.7581964938	 0.065425
O	 0.5041969263	-0.6989622372	 1.0474944363	-0.318891
C	-1.371013301	-0.8892534833	 0.0007703413	-0.256689
H	 1.0069812299	 1.8702460793	 0.1363399617	 0.141437
H	-0.5349367151	 2.0474985682	-0.7243558628	 0.130275
H	-0.5179670939	 1.8546335461	 1.0444120751	 0.136484
H	 0.0168839436	-0.2894959838	-2.235600022	 0.116896
H	 1.4843317044	-0.8634867097	-1.36807179	 0.114316
H	-1.633825912	-3.6867175406	-0.918248953	 0.060675
H	-0.5411525813	-2.5582964446	 1.4326149455	 0.125623
H	-2.4431890261	-0.7489665708	 0.0007681049	 0.114935
100.2182	150.757	204.2921	229.3899	290.7037	335.0015	431.0761	448.1623	543.35	602.6293	698.5279	718.9697	780.0385	818.5266	843.1379	875.1737	916.1929	963.9386	992.7683	1017.1544	1035.8793	1049.0692	1087.013	1109.7213	1155.5035	1157.5439	1197.4711	1233.4224	1334.6499	1344.147	1375.8386	1419.9226	1440.417	1478.2334	1488.041	1488.6905	1796.9221	2843.3522	3041.0904	3064.4894	3112.4256	3122.6107	3127.477	3205.5568	3220.3752
CC12CC3(C=O)C(O1)C23	C[C@@]12C[C@@]3(C=O)[C@@H](O1)[C@@H]23	
InChI=1S/C7H8O2/c1-6-2-7(3-8)4(6)5(7)9-6/h3-5H,2H2,1H3	InChI=1S/C7H8O2/c1-6-2-7(3-8)4(6)5(7)9-6/h3-5H,2H2,1H3/t4-,5-,6-,7-/m0/s1
