16
gdb 69450	2.96991	1.28642	1.22646	5.0425	68.44	-0.2783	0.0146	0.2929	1066.6732	0.124586	-437.87775	-437.86988	-437.868936	-437.910137	30.005	
O	-0.3892037416	 1.3530882091	 0.1135911146	-0.462859
C	-0.1604013688	-0.0149164638	 0.0683462631	 0.38251
C	-0.1941408103	-0.7804229281	-1.2284144345	-0.370312
C	-1.293297004	-0.967394954	-0.2024547306	-0.100651
C	-1.0930178682	-2.1273326268	 0.7626825671	-0.049643
O	 0.2581294426	-2.0289675786	 1.2048777417	-0.251257
C	 0.6400519167	-0.6505733896	 1.1968525635	-0.156225
C	-2.0427676423	-2.0497486968	 1.8948695425	 0.27703
N	-2.7855117394	-1.9928531513	 2.7779466567	-0.318532
H	 0.3719672095	 1.8012950582	-0.2707262355	 0.291855
H	-0.4730858964	-0.2179385233	-2.1122710269	 0.126083
H	 0.5209896529	-1.5815114775	-1.3884398525	 0.129499
H	-2.2923853547	-0.6065823368	-0.4077114035	 0.128158
H	-1.2001344189	-3.1124588768	 0.2960329003	 0.136042
H	 1.7257871617	-0.6276815404	 1.0612796201	 0.113905
H	 0.3835176111	-0.1500746835	 2.1412122741	 0.124395
90.8689	142.0683	243.0724	281.249	297.0449	354.8989	383.9544	435.2681	482.5671	563.3865	590.6792	738.2305	750.7359	833.7327	909.3678	920.9699	939.1642	961.9454	1021.5478	1036.9038	1060.7933	1077.9181	1090.859	1114.3018	1209.4729	1259.992	1268.2408	1293.5423	1328.9536	1348.5844	1362.9843	1416.5541	1481.5143	1514.2388	2356.5233	3012.5393	3059.0139	3083.8245	3129.4232	3210.379	3226.1216	3803.4035
OC12CC1C(OC2)C#N	O[C@]12C[C@H]1[C@@H](OC2)C#N	
InChI=1S/C6H7NO2/c7-2-5-4-1-6(4,8)3-9-5/h4-5,8H,1,3H2	InChI=1S/C6H7NO2/c7-2-5-4-1-6(4,8)3-9-5/h4-5,8H,1,3H2/t4-,5-,6-/m0/s1
