18
gdb 109459	2.67118	1.35134	0.99722	3.0094	73.92	-0.2574	0.0169	0.2743	1196.1476	0.147306	-439.062884	-439.054413	-439.053469	-439.096132	32.117	
O	-0.0479584948	 1.4248543021	-0.2487128516	-0.420841
C	-0.02614524	 0.0922765402	 0.2096352667	-0.069465
C	-1.4346708536	-0.5084544774	 0.1622916257	-0.268059
C	-1.9399205357	-0.6775141767	-1.2531848361	 0.446655
N	-2.0609434951	 0.1154257806	-2.2212040005	-0.56638
O	-2.1270147929	-2.0369553067	-1.156757025	-0.271842
C	-1.6297070067	-2.0231800636	 0.2128575194	 0.43751
C	-0.7765362208	-3.1303334386	 0.7229922237	-0.334166
C	-2.1977220572	-2.9315320038	 1.2412610227	-0.336346
H	-0.4860654717	 1.4209686262	-1.1127712315	 0.302509
H	 0.6579265275	-0.5383967269	-0.3808663673	 0.09317
H	 0.3500393089	 0.1136315888	 1.2382533122	 0.108189
H	-2.1119284693	 0.0611699856	 0.8035145882	 0.11782
H	-2.3663381576	-0.3565067605	-3.0734673207	 0.232471
H	-0.6015865694	-3.9676248128	 0.0565823223	 0.136234
H	 0.0554905536	-2.8854035362	 1.3746640923	 0.128949
H	-2.3377193586	-2.5476978811	 2.2463602862	 0.127688
H	-2.9504145367	-3.6401522692	 0.9139526331	 0.135904
97.2599	122.8247	133.9873	211.7349	241.1875	325.6704	388.5712	455.9187	502.255	534.5383	538.2469	679.4447	756.5005	816.6614	836.9159	863.1516	873.8705	904.9777	968.0754	988.9853	1038.4258	1052.2224	1057.6512	1077.2767	1088.4624	1115.9036	1179.8377	1184.5367	1192.0855	1231.1272	1299.376	1343.3723	1377.5786	1398.0245	1449.2805	1454.139	1502.6291	1513.2693	1815.3903	2974.578	3063.9016	3089.9572	3134.0437	3136.0409	3217.6227	3230.6808	3480.9879	3720.5636
OCC1C(=N)OC11CC1	OC[C@H]1[C]([NH])OC21CC2	
InChI=1S/C6H9NO2/c7-5-4(3-8)6(9-5)1-2-6/h4,7-8H,1-3H2	InChI=1S/C6H9NO2/c7-5-4(3-8)6(9-5)1-2-6/h4,7-8H,1-3H2/t4-/m0/s1
