16
gdb 94498	4.401	0.76638	0.69387	1.8962	88.98	-0.2417	-0.0227	0.219	1585.9909	0.122875	-400.659195	-400.650159	-400.649215	-400.693551	33.087	
O	 0.2084192184	 1.4113308703	-0.0904087232	-0.419747
C	 0.0963150431	 0.0235274402	 0.0134178963	 0.161911
C	 0.2068069264	-0.5684583103	 1.443149302	-0.214216
N	-1.2723747036	-0.6064198652	 1.5123727553	-0.301883
C	-1.3762809773	-0.5503030607	 0.0293362524	-0.322322
C	-2.4442998217	 0.2694085856	-0.5033009825	 0.435916
C	-3.3236206953	 0.969088124	-0.954994102	-0.186071
C	-4.3127231405	 1.7548915498	-1.4589952342	 0.292095
C	-5.1913939161	 2.4521899266	-1.9063780411	-0.561917
H	-0.4465896025	 1.8113008411	 0.494302307	 0.294626
H	 0.7527781963	-0.4005179101	-0.7468938675	 0.101596
H	 0.6979348413	-1.5519820257	 1.4478566176	 0.095164
H	 0.6808741585	 0.073367264	 2.192523138	 0.110752
H	-1.6874821315	-1.4238036623	 1.9459693464	 0.225037
H	-1.3917966208	-1.54020064	-0.4525188153	 0.096624
H	-5.9626874147	 3.0666691127	-2.2996460192	 0.192435
63.7301	76.3914	125.512	192.7539	249.0273	329.0692	367.2465	394.9132	463.167	497.5893	517.7016	551.3577	588.3645	604.04	692.2981	753.9796	842.9108	883.1562	940.3636	990.4705	1005.4184	1060.8546	1129.1785	1141.3883	1188.057	1200.5125	1242.2232	1288.8032	1328.2808	1359.2575	1382.3873	1442.6564	1512.0033	2180.1552	2356.1976	2976.7939	2999.7904	3074.1312	3114.6131	3505.0225	3531.8284	3792.2009
OC1CNC1C#CC#C	O[C@H]1CN[C@H]1C#CC#C	
InChI=1S/C7H7NO/c1-2-3-4-6-7(9)5-8-6/h1,6-9H,5H2	InChI=1S/C7H7NO/c1-2-3-4-6-7(9)5-8-6/h1,6-9H,5H2/t6-,7-/m0/s1
