16
gdb 29815	2.55708	1.3307	0.88009	3.4027	79.13	-0.2078	-0.0432	0.1647	1247.1296	0.124009	-437.928531	-437.919818	-437.918874	-437.962183	31.433	
C	-0.0786397385	 1.4444645446	 0.0415065666	-0.344827
N	-0.0088400207	-0.0064345261	 0.0167301948	-0.062572
C	 0.0066734626	-0.7531091025	-1.1254804626	-0.163129
C	 0.0778023192	-2.09490182	-0.7704001446	 0.322598
O	 0.1100459435	-3.1032963989	-1.6841359328	-0.44457
C	 0.1062048512	-2.1623808437	 0.6297573603	-0.370867
C	 0.0516121565	-0.8518779387	 1.1081863527	 0.229768
C	 0.0543970751	-0.397970666	 2.4812046499	 0.065518
O	 0.1073299006	-1.1348900416	 3.4474521262	-0.293683
H	 0.7997097652	 1.8751056499	 0.5307024793	 0.151455
H	-0.1139493769	 1.8063328534	-0.9869753129	 0.146478
H	-0.9770208024	 1.7891568571	 0.5614866608	 0.151443
H	-0.0329158826	-0.2960714271	-2.1008629104	 0.133709
H	 0.1590421131	-3.9410900514	-1.2142288391	 0.302146
H	 0.1597958033	-3.0389573302	 1.2573214071	 0.124442
H	 0.0035332307	 0.7060920411	 2.6154685649	 0.052092
72.8925	143.55	180.157	183.7019	220.045	269.0558	292.889	373.3749	423.5425	541.6347	618.7325	635.0665	638.5393	672.579	746.0288	815.5564	867.2953	1018.1328	1019.5332	1075.1359	1146.9282	1162.3476	1179.1594	1186.9304	1272.8749	1393.2648	1413.8538	1446.3981	1478.594	1484.1512	1490.9767	1513.8424	1534.1277	1632.4169	1763.6377	2871.1303	3045.524	3107.7637	3143.462	3252.4616	3265.9412	3840.5002
CN1C=C(O)C=C1C=O	Cn1cc(O)cc1C=O	
InChI=1S/C6H7NO2/c1-7-3-6(9)2-5(7)4-8/h2-4,9H,1H3	InChI=1S/C6H7NO2/c1-7-3-6(9)2-5(7)4-8/h2-4,9H,1H3
