22
gdb 99869	2.02755	1.39146	1.0276	4.7384	82.11	-0.2873	0.0204	0.3077	1295.6015	0.190644	-404.371047	-404.359753	-404.358809	-404.406955	40.886	
C	 0.0233831075	 1.6062608229	-0.0452871971	-0.397993
C	-0.0079110129	 0.0780018596	 0.0368558296	-0.230563
C	-1.4347805966	-0.52457525	 0.070775446	 0.196092
O	-2.1708708482	-0.0253046154	 1.1878780392	-0.454706
C	-2.164007846	-0.0456540739	-1.1258361772	 0.323971
N	-2.6883596069	 0.3074210684	-2.0926256354	-0.357352
C	-1.4317099657	-2.0888411688	 0.0459796281	 0.019858
C	-0.6762335776	-2.6828748346	 1.2443241025	-0.427924
C	-2.8614370285	-2.6446382524	-0.0115137295	-0.409286
H	 1.0532205531	 1.96908256	 0.0150385926	 0.116145
H	-0.4072018309	 1.9619400113	-0.9852638849	 0.147838
H	-0.5466306007	 2.0522393978	 0.7740805877	 0.128499
H	 0.5366059931	-0.3627037618	-0.8058483897	 0.117333
H	 0.5075015601	-0.251738626	 0.946360772	 0.101208
H	-1.6271807071	-0.1601625664	 1.9715555667	 0.289436
H	-0.904244732	-2.3796669745	-0.8715698077	 0.091017
H	-0.7263149143	-3.774681783	 1.2038002877	 0.127469
H	 0.3807368291	-2.4059731122	 1.2636435452	 0.121884
H	-1.1322514316	-2.3799039362	 2.1942416447	 0.112625
H	-3.394049219	-2.2978095872	-0.9006284953	 0.142788
H	-2.8415803041	-3.738127459	-0.034226864	 0.111431
H	-3.4303128907	-2.3286789786	 0.8676002091	 0.130231
64.7979	105.8395	156.524	163.1298	178.6552	201.3469	218.7797	233.8631	240.5106	290.8881	328.113	354.5721	421.2675	435.2539	506.8827	578.9576	617.8282	691.0681	794.2565	877.1409	927.579	944.8172	971.1427	977.3509	1000.1912	1058.3665	1098.9634	1111.0786	1152.6747	1188.275	1200.3993	1282.533	1334.9099	1344.0294	1361.9295	1388.8666	1404.2466	1414.9778	1421.374	1479.8542	1490.1961	1491.8868	1496.1667	1508.4119	1509.2383	1514.2655	2360.0472	3025.9409	3033.0648	3036.5265	3046.5436	3049.1958	3075.5817	3099.5486	3116.4387	3118.8769	3120.2915	3126.7137	3127.6056	3813.3588
CCC(O)(C#N)C(C)C	CC[C@@](O)(C#N)C(C)C	
InChI=1S/C7H13NO/c1-4-7(9,5-8)6(2)3/h6,9H,4H2,1-3H3	InChI=1S/C7H13NO/c1-4-7(9,5-8)6(2)3/h6,9H,4H2,1-3H3/t7-/m1/s1
