16
gdb 35408	3.15813	1.58132	1.32058	4.9688	71.69	-0.2442	0.0062	0.2504	965.5539	0.126172	-396.844572	-396.837582	-396.836638	-396.87598	27.66	
N	-0.4430001246	-1.1278773095	-0.5039063376	-0.328943
C	-0.2494785917	-0.014587301	-0.2606564131	 0.319348
C	-0.0157677393	 1.4018684152	 0.0213995729	-0.169012
N	-0.1582930132	 1.8163431318	 1.4447615514	-0.315778
C	 1.1160891842	 2.583933584	 1.385573104	-0.031705
C	 2.3547350876	 1.8359151302	 1.9217790889	-0.015261
C	 2.2500212006	 0.3893337157	 1.6944981592	-0.248464
N	 2.6332630488	 1.22710515	 0.5355328045	-0.154629
C	 1.4383826649	 1.9848968786	 0.0122349314	 0.008001
H	-0.6363533825	 1.9842661252	-0.6726149829	 0.123151
H	-0.9904746614	 2.3587937742	 1.6401847691	 0.234527
H	 1.0600574248	 3.6553029372	 1.5785316124	 0.085422
H	 3.1515511938	 2.2957912366	 2.4972250394	 0.102265
H	 3.0828564335	-0.2251195081	 2.0214874597	 0.130035
H	 1.2823786947	-0.096605543	 1.7389100089	 0.155803
H	 1.7156713397	 2.562563993	-0.8670452482	 0.10524
113.7001	146.6383	264.1451	318.0168	413.2966	507.6695	539.8658	569.5043	659.8476	694.1948	702.6623	735.7694	845.4728	884.2956	909.0988	916.8769	968.1108	999.9472	1014.1097	1044.284	1061.6695	1072.8335	1111.528	1141.4897	1164.7742	1199.258	1236.8088	1247.8487	1283.4243	1310.1576	1353.8283	1362.3964	1395.1049	1494.862	2354.3276	3014.499	3109.1681	3134.4977	3136.2177	3166.3254	3225.279	3559.4822
N#CC1NC2C3CN3C12	N#C[C@H]1N[C@H]2[C@H]3CN3[C@@H]12	
InChI=1S/C6H7N3/c7-1-3-6-5(8-3)4-2-9(4)6/h3-6,8H,2H2	InChI=1S/C6H7N3/c7-1-3-6-5(8-3)4-2-9(4)6/h3-6,8H,2H2/t3-,4-,5+,6+,9?/m1/s1
