23
gdb 121640	5.76468	0.5816	0.5585	2.5056	88.35	-0.2404	-0.0064	0.234	2088.9808	0.204104	-388.312797	-388.302274	-388.30133	-388.349661	37.599	
C	 0.0939663315	 1.5435017891	-0.0029035697	-0.379655
C	 0.0086499932	 0.0148671387	-0.0183087076	-0.170285
C	-1.4328177157	-0.5021493055	 0.028004417	-0.155432
C	-1.5226600447	-2.0267244903	 0.0128742358	-0.314828
C	-2.9435440556	-2.5686852328	 0.0577384871	 0.377446
O	-3.9138833745	-1.8391977647	 0.1015196699	-0.334979
C	-3.083344066	-4.0554536955	 0.0450238009	-0.100941
C	-4.2454244371	-4.6544544872	 0.8249587214	-0.247122
C	-4.2992521131	-4.6366430456	-0.6630146687	-0.247125
H	 1.1325429164	 1.8872536188	-0.0366855955	 0.10963
H	-0.4293783566	 1.9765939831	-0.862463077	 0.1156
H	-0.3648798331	 1.9552111948	 0.9027768362	 0.115597
H	 0.5063283199	-0.370901734	-0.9184352999	 0.091599
H	 0.5702396906	-0.3921230249	 0.8335741629	 0.091597
H	-1.937795444	-0.1228907566	 0.9240579157	 0.108577
H	-2.001392725	-0.1018599258	-0.8194809619	 0.108598
H	-1.0353820165	-2.4430666122	-0.8815359708	 0.119117
H	-0.9723813004	-2.4640779133	 0.8594302179	 0.119113
H	-2.1625139628	-4.6267775495	 0.0049008819	 0.084791
H	-4.066790201	-5.5941510668	 1.3347265437	 0.11652
H	-4.8668405697	-3.9415425615	 1.354567832	 0.13783
H	-4.9566539161	-3.911743108	-1.1291008765	 0.137832
H	-4.1588264396	-5.5637037102	-1.206740965	 0.116522
43.8335	61.8731	89.6788	96.8217	140.9968	232.6152	241.5737	260.6108	281.3947	317.6668	457.055	573.9941	656.9234	732.8649	785.8696	800.8843	823.8175	831.7	879.0393	911.1718	917.9918	945.3829	1020.4826	1053.2633	1070.6651	1082.8557	1093.3226	1109.9529	1117.3281	1132.6273	1144.2242	1210.7569	1223.7086	1234.4167	1282.1693	1311.0419	1327.1115	1360.9641	1396.494	1410.137	1415.7373	1451.3814	1451.9981	1483.7567	1484.2936	1495.2616	1499.2166	1511.8981	1784.3097	3002.0066	3009.8202	3027.2989	3029.9785	3035.709	3041.0357	3078.9511	3097.9896	3101.6716	3140.6336	3142.1294	3170.0988	3228.1484	3242.6352
CCCCC(=O)C1CC1	CCCCC(=O)C1CC1	
InChI=1S/C8H14O/c1-2-3-4-8(9)7-5-6-7/h7H,2-6H2,1H3	InChI=1S/C8H14O/c1-2-3-4-8(9)7-5-6-7/h7H,2-6H2,1H3
