17
gdb 57106	2.59702	1.32733	1.14057	3.9346	67.41	-0.2608	0.02	0.2808	1119.3117	0.137189	-455.139183	-455.130488	-455.129544	-455.173264	30.967	
N	-0.1205114045	 1.5059492401	-0.0055127727	-0.500989
C	-0.020823744	 0.0466888692	-0.0314570543	-0.149906
C	-1.3766541122	-0.5257174801	 0.055920355	 0.314076
N	-2.4276641895	-1.0029568007	 0.1028763177	-0.329269
C	 0.7208504851	-0.5147368542	-1.2685030795	 0.09347
C	 0.7803151691	-2.0544404103	-1.3980518011	-0.142524
O	 0.5766957615	-2.2730137924	-2.785527049	-0.230643
C	-0.3104344177	-1.2622220317	-3.1794649499	 0.017545
O	 0.0621376502	-0.092640583	-2.4579013357	-0.271725
H	 0.8112181175	 1.9017226588	 0.0810047462	 0.237756
H	-0.4908083064	 1.8175736131	-0.900020688	 0.253478
H	 0.5232013705	-0.2713564222	 0.8678919246	 0.131932
H	 1.7291470454	-0.0787006814	-1.2591891183	 0.087375
H	 1.7487969936	-2.4740777799	-1.1202540583	 0.12528
H	-0.0091226836	-2.5356209189	-0.8031112793	 0.125306
H	-0.1910300916	-1.0787505731	-4.2506518858	 0.125153
H	-1.3529926935	-1.5275542533	-2.9418318615	 0.113685
62.3153	79.4347	152.0513	188.3858	235.4337	272.5991	294.8895	376.1604	404.6617	596.4063	644.9661	698.8517	742.2015	802.0552	881.1869	920.1557	963.4172	988.2486	1028.6731	1062.5879	1108.759	1120.1462	1140.7851	1180.6139	1205.5688	1215.9982	1266.6376	1294.5599	1317.1162	1361.5057	1376.3734	1419.0881	1436.318	1509.9225	1544.2697	1659.6336	2361.657	2980.5988	3006.1172	3013.958	3033.8417	3095.8673	3115.6344	3487.8485	3571.4803
NC(C#N)C1COCO1	N[C@@H](C#N)[C@H]1COCO1	
InChI=1S/C5H8N2O2/c6-1-4(7)5-2-8-3-9-5/h4-5H,2-3,7H2	InChI=1S/C5H8N2O2/c6-1-4(7)5-2-8-3-9-5/h4-5H,2-3,7H2/t4-,5+/m0/s1
