18
gdb 95131	2.49221	1.55514	1.14842	4.7199	72.36	-0.2396	-0.0312	0.2085	1089.596	0.147375	-439.06825	-439.059845	-439.058901	-439.101386	31.547	
O	 0.0889197592	 1.4770427162	 0.1533876132	-0.436893
C	 0.0471012144	 0.0635785082	 0.0350448437	 0.037514
C	 0.6905192121	-0.7013443881	 1.2145164477	-0.291144
C	-0.1799631837	-1.9649573468	 1.356666845	-0.15754
N	-1.5324599281	-1.6603174721	 0.8337820661	-0.125337
C	-2.1043295751	-0.428462657	 1.3537248482	-0.274655
C	-1.3977441581	-0.4025846344	 0.0370547496	 0.263682
C	-2.1969206685	-0.3057474683	-1.2210423175	 0.077629
O	-3.3655730514	-0.5850813885	-1.304578537	-0.252048
H	 1.0010258127	 1.762800826	 0.0401422323	 0.28775
H	 0.5084865953	-0.2476605356	-0.916728757	 0.073895
H	 1.7437395554	-0.9379081458	 1.0428753023	 0.104687
H	 0.6379586345	-0.0654221638	 2.1029230691	 0.120237
H	 0.2173951937	-2.7856036662	 0.7507856252	 0.116649
H	-0.2574675983	-2.3234263766	 2.3876820031	 0.117745
H	-3.18894304	-0.3985003155	 1.328636488	 0.142942
H	-1.6329513727	 0.0793332797	 2.1907730009	 0.12288
H	-1.6258847014	 0.0609985087	-2.104127263	 0.072005
78.629	123.5705	185.0038	220.816	252.3476	287.2829	343.809	421.8017	489.1673	551.4432	644.9648	651.3865	735.8893	769.6158	831.9078	897.2648	926.2018	965.6893	986.9857	1018.6841	1056.2574	1073.8851	1103.0971	1120.4381	1172.0938	1201.5338	1225.3547	1239.3363	1249.5899	1304.6856	1344.9063	1350.8428	1379.4264	1431.2774	1443.5936	1481.2895	1496.6634	1513.5758	1824.187	2873.2457	2963.7536	3048.8081	3061.8782	3089.2179	3109.6513	3118.0145	3212.8227	3818.2349
OC1CCN2CC12C=O	O[C@H]1CCN2C[C@@]12C=O	
InChI=1S/C6H9NO2/c8-4-6-3-7(6)2-1-5(6)9/h4-5,9H,1-3H2	InChI=1S/C6H9NO2/c8-4-6-3-7(6)2-1-5(6)9/h4-5,9H,1-3H2/t5-,6+,7?/m0/s1
