22
gdb 8944	3.04633	1.15254	0.89077	1.656	74.68	-0.2577	0.077	0.3347	1328.4935	0.198006	-387.33273	-387.322235	-387.32129	-387.368075	37.807	
C	-0.2355145225	 1.4752186064	-0.0047208679	-0.410139
C	 0.0345110029	-0.0364269277	-0.043130553	 0.036492
C	 0.8337081891	-0.3699974684	-1.3093028359	-0.081327
O	 0.025204058	-0.0679579239	-2.4398874543	-0.42257
C	 0.7445569995	-0.5734877005	 1.2267482154	 0.036489
C	 0.2337063748	 0.0570446542	 2.5309412405	-0.410138
C	 0.6231762767	-2.0993581945	 1.3275259709	-0.081328
O	 1.4850078854	-2.5479660328	 2.3663351768	-0.422567
H	 0.6901669811	 2.0349358404	 0.1784408636	 0.105764
H	-0.6402922804	 1.7987315953	-0.9660931133	 0.131381
H	-0.9501035981	 1.7452808179	 0.7761060266	 0.112316
H	-0.9344841742	-0.5485793896	-0.1384587449	 0.075898
H	 1.7611173319	 0.2271684983	-1.3142816329	 0.083692
H	 1.1286356428	-1.4289182895	-1.3213997277	 0.083021
H	 0.5545106627	-0.1996272735	-3.2313912991	 0.285472
H	 1.8180462543	-0.3479950007	 1.1424171663	 0.075896
H	-0.8530485857	-0.0607976273	 2.6247196768	 0.105762
H	 0.7013056528	-0.438817971	 3.3842967064	 0.131385
H	 0.4609282269	 1.1239873794	 2.5880818709	 0.112314
H	-0.4265737876	-2.3609619182	 1.5427177798	 0.083692
H	 0.8893450655	-2.579441271	 0.3750990624	 0.083023
H	 1.3478654241	-3.4921211234	 2.4835690324	 0.285472
56.1973	101.1204	102.9895	211.0034	228.0095	246.0748	249.962	253.3466	286.1347	332.9856	364.1327	364.5185	410.6723	481.7401	555.0412	829.4111	870.2263	926.1139	926.167	945.9012	979.6177	1056.1349	1058.724	1077.8633	1134.4482	1147.0894	1159.9049	1177.2441	1228.8692	1265.1376	1266.4724	1282.619	1308.1246	1346.7472	1367.9871	1380.4934	1400.0258	1406.1216	1453.2191	1464.3083	1489.479	1498.8077	1510.076	1512.2175	1520.7147	1522.6219	2960.7375	2962.3177	2992.98	2997.1468	3013.3021	3022.4252	3031.3165	3032.5561	3105.5212	3105.5707	3129.9191	3134.0812	3834.7818	3834.9628
CC(CO)C(C)CO	C[C@@H](CO)[C@@H](C)CO	
InChI=1S/C6H14O2/c1-5(3-7)6(2)4-8/h5-8H,3-4H2,1-2H3	InChI=1S/C6H14O2/c1-5(3-7)6(2)4-8/h5-8H,3-4H2,1-2H3/t5-,6-/m0/s1
