18
gdb 55745	4.12799	1.10818	1.01508	2.4424	72.87	-0.2468	0.0072	0.254	1218.2721	0.147107	-439.045231	-439.036859	-439.035915	-439.079232	30.741	
C	-0.0435897888	 1.4498606712	-0.1453753529	-0.484689
C	-0.0227857366	-0.0406570219	 0.0863424228	 0.394404
O	-0.038813855	-0.5871436715	 1.1586454918	-0.343384
O	 0.0173336503	-0.705335879	-1.0975656679	-0.293503
C	 0.040777492	-2.1170929638	-1.0339196067	 0.403393
C	-1.0028100539	-3.1002113017	-0.474402906	-0.220115
N	 0.0755056353	-4.0178272657	-1.0802354106	-0.141885
C	 0.0862118473	-3.0265085803	-2.2615934884	-0.228761
C	 1.0905395692	-3.0631803655	-0.4243586582	-0.220117
H	 0.8454559596	 1.7535315846	-0.7053794406	 0.152107
H	-0.9146847077	 1.7223584489	-0.7480093781	 0.152101
H	-0.075943223	 1.9666380315	 0.8128970432	 0.149622
H	-1.0957493694	-3.1843342607	 0.6080498759	 0.126799
H	-1.9668796253	-3.1716763758	-0.9834980687	 0.104966
H	-0.8038203506	-3.0901460982	-2.8916497501	 0.108649
H	 1.0070186467	-3.0581172305	-2.8483591225	 0.108648
H	 2.0797513103	-3.1000952633	-0.8867573566	 0.104966
H	 1.1345785396	-3.1448807684	 0.6613693936	 0.126797
58.1747	77.1275	98.3971	149.2326	336.0279	345.3761	374.1155	564.5989	588.0388	588.463	610.15	710.6363	784.3286	788.4426	869.2445	925.9299	942.6745	972.5115	1019.2312	1020.4247	1024.2265	1039.1872	1064.3441	1163.2771	1165.517	1184.7992	1188.8411	1189.2294	1198.7496	1214.9209	1269.2623	1296.9692	1395.0528	1468.4894	1475.3594	1510.3488	1511.6467	1566.8164	1826.5425	3056.8107	3061.2186	3069.0064	3075.9749	3121.7238	3132.8915	3152.7373	3156.3726	3169.2785
CC(=O)OC12CN(C1)C2	CC(=O)O[C@@]12CN(C1)C2	
InChI=1S/C6H9NO2/c1-5(8)9-6-2-7(3-6)4-6/h2-4H2,1H3	InChI=1S/C6H9NO2/c1-5(8)9-6-2-7(3-6)4-6/h2-4H2,1H3
