14
gdb 127929	6.71859	0.90478	0.80142	2.9999	75.85	-0.2174	-0.057	0.1604	1344.5245	0.101515	-429.05996	-429.051288	-429.050343	-429.09377	29.974	
C	-0.0453918298	 1.3974861805	 0.0465137291	-0.339995
N	-0.0224146228	-0.0545428603	 0.0428775562	-0.373988
C	 0.5268302881	-0.6179935894	-0.9501990002	 0.499714
N	 1.1472275425	-0.127401247	-2.1017854756	-0.302112
N	 1.6182162707	-1.0942697659	-2.9401158392	-0.239198
C	 1.307857559	-2.208293169	-2.3408155938	 0.307117
N	 0.6546944958	-1.9944642446	-1.1483106856	-0.417641
C	 1.6036144678	-3.4992937036	-2.8488905255	 0.257547
N	 1.8229510244	-4.5719458045	-3.2225604463	-0.321257
H	 0.9643390828	 1.8402718891	 0.038838524	 0.105508
H	-0.5976316806	 1.8175932138	-0.8103313452	 0.105578
H	-0.5437150821	 1.7465753293	 0.9538244462	 0.132874
H	 1.2693200135	 0.8370843595	-2.3518670555	 0.291363
H	 0.3128635108	-2.6838252779	-0.5015546287	 0.29449
72.775	95.1386	135.3487	191.12	213.9346	222.1322	346.5188	422.2651	449.2188	517.0834	569.8183	622.21	706.0539	722.2118	729.6067	981.1086	1013.472	1071.3804	1110.6391	1120.7886	1165.1224	1260.138	1306.3902	1393.5631	1447.9929	1472.9093	1495.2974	1506.1259	1592.1481	1793.3897	2358.8896	2954.8777	2995.6813	3104.0016	3692.3116	3708.4214
CN=C1NN=C(N1)C#N	CN=c1[nH]nc([nH]1)C#N	
InChI=1S/C4H5N5/c1-6-4-7-3(2-5)8-9-4/h1H3,(H2,6,7,8,9)	InChI=1S/C4H5N5/c1-6-4-7-3(2-5)8-9-4/h1H3,(H2,6,7,8,9)
