18
gdb 96820	2.9928	1.11092	0.9306	1.8994	81.98	-0.2513	0.0113	0.2626	1313.2063	0.145056	-401.911245	-401.901506	-401.900562	-401.946375	34.535	
C	 0.259086944	 1.4277026678	-0.2254179541	-0.340353
N	 0.3691005764	-0.0240216337	-0.1785356405	-0.328797
C	 0.5398767425	-0.5935416716	 0.9189933641	 0.474793
O	 0.6551758379	-0.0682925986	 2.2016705705	-0.274543
C	 0.7835524145	-1.4097041023	 2.7855101095	-0.070679
C	-0.2554458269	-1.7068353622	 3.7493331171	 0.358826
C	-1.1058430967	-1.9727995525	 4.5557039724	-0.46013
C	 0.6796312987	-2.0372925242	 1.3545441166	-0.171572
C	-0.4710071698	-2.9773621858	 1.0265848515	-0.408962
H	 1.0805624923	 1.8302572669	-0.8285602045	 0.127874
H	-0.6723318699	 1.6977021962	-0.7344243662	 0.12794
H	 0.2766119562	 1.9107149976	 0.7583463993	 0.12805
H	 1.7721206301	-1.5123446483	 3.243417561	 0.119197
H	-1.8576425813	-2.1999708171	 5.271117969	 0.209432
H	 1.6339360096	-2.4695476915	 1.0406522091	 0.110462
H	-1.4259573964	-2.5698337432	 1.367224303	 0.13521
H	-0.5263320272	-3.1225511903	-0.0556070264	 0.139838
H	-0.3266973939	-3.9527234173	 1.5005237484	 0.123416
60.318	77.7678	134.1756	149.0374	179.9199	213.6935	240.3575	285.1401	363.1804	481.1914	513.0327	589.8071	633.2047	663.0994	679.3944	751.9591	796.7658	859.4055	921.2639	1009.7808	1034.0403	1072.928	1087.9527	1126.1282	1133.277	1148.8942	1189.9107	1227.4644	1284.5789	1343.3019	1368.5076	1413.4267	1440.2683	1492.7479	1493.8864	1495.047	1497.9087	1853.9027	2238.9863	3018.3695	3048.1255	3059.3068	3075.7471	3083.5753	3089.6695	3120.4686	3130.5689	3500.7561
CN=C1OC(C#C)C1C	CN=C1O[C@@H](C#C)[C@H]1C	
InChI=1S/C7H9NO/c1-4-6-5(2)7(8-3)9-6/h1,5-6H,2-3H3	InChI=1S/C7H9NO/c1-4-6-5(2)7(8-3)9-6/h1,5-6H,2-3H3/t5-,6+/m1/s1
