23
gdb 86465	1.77878	1.55877	0.88587	1.6427	82.84	-0.2464	0.0793	0.3256	1374.4281	0.205317	-425.451335	-425.441669	-425.440725	-425.485178	37.421	
C	 0.0029812229	 1.5060631762	 0.0716834909	-0.400242
C	 0.0380109884	-0.0131893658	-0.0087149577	 0.129627
C	 0.7130051118	-0.5299711183	-1.2850557629	-0.188364
C	 0.8208899492	-2.0513829223	-1.2605817042	 0.100663
O	 1.551158181	-2.4484215864	-2.413853076	-0.439293
C	 1.4885831231	-2.5015502318	 0.0423983549	-0.228255
C	 0.7765425059	-1.8921616934	 1.2590237061	 0.137831
C	 1.4657756216	-2.2148428092	 2.5770554785	-0.399999
O	 0.7272095878	-0.4758624331	 1.1482451755	-0.271349
H	 1.0190891876	 1.9119137629	 0.0508074435	 0.123176
H	-0.5556037782	 1.9235655827	-0.7712931079	 0.113241
H	-0.4748220261	 1.826835456	 1.0012058448	 0.120648
H	-0.9976379232	-0.3995552983	 0.0213652373	 0.059123
H	 0.1528952257	-0.2090694847	-2.1697567907	 0.099022
H	 1.7221206422	-0.1068563579	-1.3590509928	 0.106052
H	-0.1986618174	-2.4748136627	-1.2964679835	 0.058688
H	 1.6519595797	-3.4055647259	-2.3862939656	 0.277334
H	 1.4811766403	-3.5969891137	 0.1190366149	 0.08045
H	 2.5355798181	-2.1745205017	 0.0335510548	 0.106016
H	-0.2583090309	-2.2812952932	 1.288818472	 0.058976
H	 2.4897424282	-1.8286601479	 2.575321426	 0.123542
H	 0.9280114127	-1.7542112403	 3.410015758	 0.122113
H	 1.5017675896	-3.2963344213	 2.7392922742	 0.110999
136.1618	155.8791	161.8909	216.5058	229.9598	246.5034	259.9456	287.5411	412.12	417.1932	442.0228	465.8748	488.2434	507.233	570.1967	834.6345	862.4935	883.6498	897.9255	930.0514	967.6634	978.0745	1040.7098	1060.7015	1072.278	1116.8205	1136.3688	1152.7278	1167.3855	1195.6522	1203.7969	1247.9735	1277.1997	1296.2582	1314.1907	1349.353	1382.3267	1387.6182	1398.2655	1403.4452	1406.036	1421.0051	1439.4966	1470.8845	1481.5779	1483.9219	1491.0498	1499.0108	1501.9665	2924.5926	2928.5865	2943.3055	3016.7769	3036.5525	3042.0477	3043.4083	3068.1757	3086.2549	3115.5417	3116.6055	3120.917	3121.4619	3809.5703
CC1CC(O)CC(C)O1	C[C@H]1C[C@@H](O)C[C@@H](C)O1	
InChI=1S/C7H14O2/c1-5-3-7(8)4-6(2)9-5/h5-8H,3-4H2,1-2H3	InChI=1S/C7H14O2/c1-5-3-7(8)4-6(2)9-5/h5-8H,3-4H2,1-2H3/t5-,6+,7+
