27
gdb 121391	3.71377	0.76231	0.66954	0.0793	96.62	-0.2829	0.0874	0.3704	1823.1472	0.254302	-353.595611	-353.585656	-353.584712	-353.630683	38.435	
C	 0.0658743679	 1.648341542	 0.0413477769	-0.378502
C	-0.0104650876	 0.1186547457	 0.0199259512	-0.175872
C	 0.6455202941	-0.4910895395	-1.2253854839	-0.175049
C	 0.6759571581	-2.0280933626	-1.2691045758	 0.045901
C	-0.7285074061	-2.6526256905	-1.3630263956	-0.183052
C	-0.6801091016	-4.1862132447	-1.4394774533	-0.197157
C	 0.201118044	-4.667045098	-2.5997095147	-0.175682
C	 1.6073638821	-4.059502523	-2.5119310268	-0.199133
C	 1.5519610221	-2.5272406507	-2.4330211442	-0.1923
H	 1.1057115345	 1.9934028444	 0.0203471427	 0.112007
H	-0.4416136745	 2.0817370985	-0.8278743767	 0.112501
H	-0.4041061383	 2.0606887552	 0.9398832869	 0.108751
H	 0.47674166	-0.2844337398	 0.9181055818	 0.091735
H	-1.0612561057	-0.1881279303	 0.0807958775	 0.09843
H	 0.1345697559	-0.1166428653	-2.1247751962	 0.086706
H	 1.6778220344	-0.1195080071	-1.2922517951	 0.084252
H	 1.1365271818	-2.3820917797	-0.3325297641	 0.06113
H	-1.3416654787	-2.3460459846	-0.508845116	 0.089347
H	-1.2291163049	-2.2600052205	-2.2608430543	 0.086282
H	-0.2798740697	-4.5813363824	-0.49507732	 0.089931
H	-1.6944322818	-4.5900403335	-1.5377060534	 0.086417
H	 0.2578841236	-5.7615836715	-2.6081138035	 0.086162
H	-0.261648248	-4.3713177955	-3.5518336015	 0.089322
H	 2.1136432296	-4.4490868571	-1.6175019811	 0.089444
H	 2.2129559525	-4.3714052994	-3.3707532786	 0.086574
H	 1.1475113697	-2.1306023692	-3.3761886681	 0.087204
H	 2.5646162266	-2.1166818809	-2.3366997641	 0.084652
68.407	78.5148	120.0213	184.6582	224.1627	249.9554	290.1065	318.8022	347.7628	439.0606	440.6923	465.9177	562.0337	741.6876	785.6925	793.9819	846.4047	848.5485	888.165	908.7408	909.7489	930.4171	978.8717	1030.394	1042.3573	1043.2206	1067.6273	1081.9501	1098.0755	1112.5361	1126.5916	1187.3864	1209.6968	1248.515	1280.2484	1287.5896	1296.8789	1304.6328	1326.3172	1341.3042	1352.7949	1368.2795	1377.726	1380.1165	1382.5446	1398.7151	1400.691	1411.3013	1477.0142	1483.6759	1484.8645	1486.7146	1490.1235	1494.255	1499.9317	1504.8898	1510.9363	2970.6322	2993.9869	2997.1049	3005.0732	3006.3041	3008.9164	3012.9332	3017.7725	3027.3036	3027.9448	3048.1179	3056.0545	3057.2246	3058.1871	3063.595	3067.1267	3095.5136	3099.4882
CCCC1CCCCC1	CCCC1CCCCC1	
InChI=1S/C9H18/c1-2-6-9-7-4-3-5-8-9/h9H,2-8H2,1H3	InChI=1S/C9H18/c1-2-6-9-7-4-3-5-8-9/h9H,2-8H2,1H3
