20
gdb 103314	3.2405	1.24796	1.08321	2.0394	80.05	-0.246	0.0056	0.2515	1187.8431	0.169996	-403.098619	-403.089678	-403.088734	-403.132155	34.066	
C	 0.0790901931	 1.5252402468	-0.2159486234	-0.388012
C	-0.0355602171	 0.0437069208	 0.1664431159	-0.25286
C	-1.4650130369	-0.5100116299	 0.1238493641	 0.37415
C	-2.375856374	 0.1222535386	 1.1718490622	-0.487069
C	-2.0816541039	-0.7423893686	-1.3050834655	-0.192035
N	-1.0669069451	-1.8717266403	-1.4764691229	-0.320673
C	-1.5768706487	-2.0694357223	-0.0497579959	-0.20552
C	-2.9721249428	-1.8353353086	-0.6707541012	 0.427013
O	-4.0428898511	-2.3479738621	-0.7827896137	-0.337774
H	 1.1249506597	 1.8457528835	-0.1862523472	 0.116946
H	-0.2899100471	 1.7024154714	-1.2319263955	 0.117087
H	-0.4811844807	 2.177026665	 0.4613689643	 0.116571
H	 0.5946540999	-0.5484275541	-0.4993760752	 0.127959
H	 0.3507201317	-0.0990462106	 1.1843191462	 0.092274
H	-2.4809885859	 1.1986060526	 1.0075987271	 0.128002
H	-3.3807294276	-0.3109154421	 1.1638592991	 0.136874
H	-1.9590854942	-0.0181252797	 2.1751603797	 0.122719
H	-2.2804537641	-0.0225662339	-2.0977124308	 0.095975
H	-1.4295238756	-2.5989773676	-2.098819007	 0.233326
H	-1.1941389697	-2.8603624088	 0.5941370297	 0.095047
69.4385	142.4703	157.8312	192.0544	223.6725	296.2205	350.8271	375.1171	406.1262	489.0613	541.7784	635.2159	695.9632	756.8603	794.608	802.1996	804.9432	877.5305	914.2067	982.0513	1010.7688	1021.3685	1050.5714	1058.4053	1115.5226	1117.8063	1132.7289	1158.3209	1176.0219	1217.8312	1246.8664	1271.0498	1293.8519	1339.6806	1369.8799	1410.695	1422.6364	1480.2298	1493.8808	1498.6355	1504.3623	1508.5028	1900.0529	3023.4098	3035.0674	3037.7617	3095.1801	3101.3144	3103.8967	3110.8225	3120.3887	3131.7679	3136.7154	3415.2916
CCC1(C)C2NC1C2=O	CC[C@@]1(C)[C@H]2N[C@@H]1C2=O	
InChI=1S/C7H11NO/c1-3-7(2)5-4(9)6(7)8-5/h5-6,8H,3H2,1-2H3	InChI=1S/C7H11NO/c1-3-7(2)5-4(9)6(7)8-5/h5-6,8H,3H2,1-2H3/t5-,6+,7-
