19
gdb 18600	3.91921	1.85904	1.50586	1.5568	71.61	-0.2122	0.0882	0.3004	900.0243	0.16718	-365.04383	-365.036576	-365.035632	-365.075192	27.976	
C	-0.0322647421	 1.4256515666	-0.1002930207	-0.325258
N	 0.0477397751	-0.003252684	 0.0919105081	-0.076791
C	-1.1867156993	-0.7460459895	 0.4169308401	-0.196904
C	-0.4020303327	-1.5618142644	 1.4769265095	 0.108038
O	 0.1007951812	-2.8209711162	 1.0822189671	-0.269787
C	 1.3244231155	-2.632923656	 0.3650164008	-0.076456
C	 1.972691827	-1.3777286245	 0.9699168776	-0.227379
C	 0.7443905261	-0.5281891235	 1.2897616673	-0.006058
H	 0.9713777555	 1.8418886979	-0.2390260605	 0.119039
H	-0.6114528753	 1.6481550492	-1.0029970652	 0.121332
H	-0.5085992401	 1.956914008	 0.7469417312	 0.087549
H	-1.9676077531	-0.1209949289	 0.8801210039	 0.082684
H	-1.6232120556	-1.3066046641	-0.4169654189	 0.104669
H	-0.8816883036	-1.675587906	 2.4500222284	 0.083193
H	 1.9187099835	-3.5426483317	 0.4841239232	 0.104504
H	 1.1243694587	-2.4777889799	-0.7035860117	 0.104496
H	 2.5125766965	-1.6224954591	 1.8912446628	 0.100821
H	 2.6590046923	-0.883428257	 0.2778294259	 0.10439
H	 0.8883322707	 0.2043692931	 2.0936663411	 0.057919
102.8189	189.7116	221.7352	255.3743	298.4334	385.3244	426.5288	608.2971	654.6213	740.4628	815.7124	861.0688	882.116	900.7371	956.291	975.8515	986.9843	1018.3445	1032.2951	1086.797	1110.4449	1153.7087	1166.5017	1189.5303	1208.1224	1223.5282	1236.5877	1259.812	1276.1481	1309.7361	1323.168	1344.8569	1362.5728	1396.7669	1453.3175	1472.6427	1485.7799	1499.1447	1507.1456	1514.6621	2915.2633	2969.0816	3016.2034	3024.036	3050.499	3053.2243	3060.2426	3093.5644	3094.9339	3101.4189	3111.5422
CN1CC2OCCC12	CN1C[C@H]2OCC[C@@H]12	
InChI=1S/C6H11NO/c1-7-4-6-5(7)2-3-8-6/h5-6H,2-4H2,1H3	InChI=1S/C6H11NO/c1-7-4-6-5(7)2-3-8-6/h5-6H,2-4H2,1H3/t5-,6-/m1/s1
