21
gdb 90520	4.43431	0.9866	0.90869	0.9755	89.15	-0.2492	0.0505	0.2996	1354.2263	0.182038	-349.898687	-349.889815	-349.888871	-349.932574	34.489	
C	 0.3386469822	 1.65959185	-0.249398727	-0.411325
C	 0.0717987768	 0.1738706709	-0.0576626277	 0.049477
C	 0.9223601795	-0.8633200745	-0.8582961938	-0.266083
C	 1.1252274047	-1.6997904896	 0.4368446826	-0.015627
C	 2.4968048118	-1.4541189542	 1.1445415133	-0.176023
C	 1.8627213965	-0.2110380421	 1.8713394811	-0.251559
C	 0.4696954514	-0.5406742897	 1.2650455877	-0.029762
C	 2.9326008386	-2.5167226305	 2.0289999951	 0.299275
C	 3.2701891707	-3.4016855416	 2.7711577784	-0.450397
H	 1.3964404008	 1.9064860303	-0.1088975236	 0.113493
H	 0.0628684754	 1.9764814689	-1.261481211	 0.1151
H	-0.2413849893	 2.2638251631	 0.4573956373	 0.11443
H	-0.9910981721	-0.0211114544	-0.2397651335	 0.072871
H	 0.3958316577	-1.3709708881	-1.6696854263	 0.098815
H	 1.8555211465	-0.4579951352	-1.2648379091	 0.093472
H	 0.7525968797	-2.723356522	 0.4317155112	 0.075724
H	 3.3044643937	-1.2035634838	 0.4476292988	 0.095344
H	 1.9025965777	-0.2892512553	 2.9584445565	 0.116239
H	 2.2948070133	 0.7490192677	 1.5799504361	 0.101628
H	-0.3258924503	-0.7031804335	 1.9936571936	 0.064066
H	 3.5799828044	-4.1822061663	 3.4205917603	 0.190841
36.8129	127.478	153.3233	214.2658	263.1724	323.3886	345.1523	438.9582	466.7235	520.9267	613.4991	617.3171	639.3052	733.838	764.2313	812.2431	841.1393	867.6664	888.5058	942.0744	949.8883	989.448	999.373	1041.3454	1092.8329	1107.656	1119.5067	1141.1726	1149.8755	1200.8783	1209.7637	1225.6583	1256.2585	1265.4651	1277.3542	1294.1731	1322.4513	1345.5593	1370.5811	1410.351	1475.6879	1485.8863	1494.0211	1501.846	2229.5214	3025.6024	3032.8175	3035.3021	3042.5819	3072.4414	3089.9065	3090.322	3094.3083	3099.8319	3119.5811	3130.9205	3505.0959
CC1CC2C(CC12)C#C	C[C@H]1C[C@H]2[C@@H](C[C@@H]12)C#C	
InChI=1S/C9H12/c1-3-7-5-8-6(2)4-9(7)8/h1,6-9H,4-5H2,2H3	InChI=1S/C9H12/c1-3-7-5-8-6(2)4-9(7)8/h1,6-9H,4-5H2,2H3/t6-,7+,8-,9-/m0/s1
