16
gdb 117033	4.25973	0.79347	0.702	3.8795	68.61	-0.2442	-0.1177	0.1264	1575.3929	0.121538	-475.06365	-475.053693	-475.052749	-475.100768	33.087	
C	 0.3335990602	 1.2765521344	-0.1981826081	-0.375565
C	-0.4140167122	 0.0746154968	 0.3813508357	-0.149491
N	 0.3156282024	-0.5653626477	 1.4646316809	-0.30885
C	 0.7915042013	-1.8240485449	 1.4057496306	 0.312232
O	 0.6703991689	-2.6097784952	 0.4771520113	-0.366916
C	 1.5510797409	-2.2326826389	 2.6775743629	 0.213729
O	 1.7056663951	-1.4819320453	 3.6082448139	-0.271071
C	 2.1127083515	-3.6738240048	 2.6954828101	 0.094734
O	 2.7329973825	-4.0730975006	 3.6435728277	-0.212699
H	 1.3001186242	 0.972776853	-0.6099074442	 0.13515
H	-0.2542513838	 1.7351950555	-0.9988544709	 0.128389
H	 0.5122831432	 2.0405497563	 0.5658899256	 0.121343
H	-1.4011767817	 0.3818757544	 0.7472871776	 0.119414
H	-0.5665416859	-0.6945126673	-0.3791050197	 0.152596
H	 0.5244272412	-0.0545413894	 2.311641697	 0.267322
H	 1.9033134824	-4.2818230963	 1.7997777297	 0.139683
31.6103	46.7015	67.464	93.4849	148.554	230.4313	283.7978	327.4769	353.3299	393.301	457.8315	516.9312	621.4409	728.4632	763.1934	824.0711	856.9684	901.6444	1012.3958	1016.1152	1097.6257	1147.1755	1178.5899	1261.9287	1320.4319	1385.4681	1391.7169	1412.9396	1489.4201	1492.2858	1505.0193	1561.2151	1766.0053	1804.4413	1829.8846	3007.4726	3034.9978	3039.4323	3101.7478	3119.9129	3126.9018	3599.2081
CCNC(=O)C(=O)C=O	CCNC(=O)C(=O)C=O	
InChI=1S/C5H7NO3/c1-2-6-5(9)4(8)3-7/h3H,2H2,1H3,(H,6,9)	InChI=1S/C5H7NO3/c1-2-6-5(9)4(8)3-7/h3H,2H2,1H3,(H,6,9)
