14
gdb 48056	3.19384	1.17145	0.96884	3.3048	65.69	-0.249	-0.1079	0.1411	1190.7954	0.098006	-473.816791	-473.807847	-473.806903	-473.851844	29.823	
O	-0.6065867226	 1.3880454701	 0.9345954526	-0.198427
C	 0.1137852087	 1.1303330209	 0.0109691741	 0.096336
C	 1.2972561784	 2.0123970497	-0.4096175131	 0.223887
O	 2.1739086845	 1.541839995	-1.0947016016	-0.269527
C	 1.2667898158	 3.4833826099	 0.0140173668	 0.309077
O	 0.2665004288	 4.1298622453	-0.2035190746	-0.321882
N	 2.3997796005	 3.9371896843	 0.6398286469	-0.085336
C	 3.7393161092	 4.0047046873	 0.0803370212	-0.223055
C	 2.9781427322	 5.2478754984	 0.4440229304	-0.225301
H	 0.0548046206	 0.1917065778	-0.5800298987	 0.111671
H	 4.5355699495	 3.6521250668	 0.7289561093	 0.139329
H	 3.8530344483	 3.7604924834	-0.9703261792	 0.154722
H	 2.5604695978	 5.8507571609	-0.3571349971	 0.148478
H	 3.2361152483	 5.7872151202	 1.3499386429	 0.140027
41.0044	89.4839	110.0979	150.4152	171.2216	194.721	279.0593	362.0999	517.6963	545.9043	565.987	676.9525	796.4928	810.8553	892.3711	972.6132	1007.5243	1047.0159	1086.7479	1131.951	1136.5417	1171.8801	1173.8919	1252.8486	1369.1798	1429.1094	1496.8267	1523.8506	1775.6844	1795.4433	1833.0856	2919.7488	3123.9003	3128.8153	3212.2034	3226.5458
O=CC(=O)C(=O)N1CC1	O=CC(=O)C(=O)N1CC1	
InChI=1S/C5H5NO3/c7-3-4(8)5(9)6-1-2-6/h3H,1-2H2	InChI=1S/C5H5NO3/c7-3-4(8)5(9)6-1-2-6/h3H,1-2H2
