15
gdb 11163	3.94831	1.58085	1.3859	2.9421	67.91	-0.2616	0.0221	0.2837	918.1805	0.119305	-362.649501	-362.642234	-362.64129	-362.681259	27.293	
N	-0.03445782	 1.2845492731	-0.084121393	-0.538133
C	-0.0404119724	 0.0244227672	-0.0536254086	 0.422645
C	-1.2614047317	-0.8675801255	-0.0978726646	-0.298622
C	-0.6835597803	-2.2218684906	-0.5239542591	-0.240263
C	 0.7433345636	-2.1546734444	 0.0694739279	-0.079998
O	 1.0902510658	-0.7529593742	 0.0152149177	-0.232393
C	 0.8210084357	-2.6523942663	 1.4418942437	 0.357126
C	 0.871756162	-3.0728968495	 2.566193709	-0.475023
H	 0.9208961157	 1.6411551091	-0.0237421869	 0.22398
H	-1.6963765775	-0.922843724	 0.9059169577	 0.143467
H	-2.0179781265	-0.4636260913	-0.7700799526	 0.139703
H	-1.2416003391	-3.0831490866	-0.1565103198	 0.126208
H	-0.6134715073	-2.288472671	-1.6134265829	 0.120036
H	 1.4738967606	-2.6796705982	-0.5526579622	 0.122437
H	 0.9259244914	-3.4407049677	 3.5613735438	 0.20883
78.9827	125.2333	200.4922	266.1493	433.0029	463.9438	505.6548	549.4471	637.5253	659.6845	675.9538	743.2285	809.7975	850.8829	894.5539	902.2857	963.1255	976.988	1039.2363	1075.1109	1085.7233	1163.3404	1212.6627	1263.1402	1304.4933	1312.9753	1354.9635	1378.8769	1472.271	1494.9167	1783.9146	2238.1305	3059.6883	3065.0112	3075.1524	3135.3808	3142.026	3472.9077	3501.775
N=C1CCC(O1)C#C	[NH][C]1CC[C@@H](O1)C#C	
InChI=1S/C6H7NO/c1-2-5-3-4-6(7)8-5/h1,5,7H,3-4H2	InChI=1S/C6H7NO/c1-2-5-3-4-6(7)8-5/h1,5,7H,3-4H2/t5-/m0/s1
