12
gdb 48150	2.89148	1.07801	0.78525	3.7529	65.81	-0.2681	-0.1069	0.1612	1316.2429	0.07451	-472.635335	-472.626547	-472.625602	-472.669933	29.774	
O	-0.7880158739	 1.6966852918	 0.3223070403	-0.238867
C	 0.1828297185	 1.0537218473	 0.0190893118	 0.101796
C	 1.5719746276	 1.6770090012	-0.1896589086	 0.324822
O	 2.5131126244	 0.9889438398	-0.4935314581	-0.288469
N	 1.5421860309	 3.0432229748	 0.015927582	-0.391869
C	 2.6092026434	 3.9461424118	-0.0830426518	 0.314382
O	 3.737057624	 3.6401190772	-0.3713390588	-0.28843
C	 2.1915828934	 5.3086073196	 0.2056664366	 0.198961
C	 1.8682689082	 6.4423963802	 0.4406926962	-0.373258
H	 0.1770756746	-0.0411114587	-0.1395040948	 0.134227
H	 0.6300352298	 3.4087795859	 0.2662383473	 0.283472
H	 1.596078869	 7.4496325889	 0.6462842878	 0.223234
56.6586	102.4728	102.7724	169.666	204.8625	253.1084	259.7763	416.2649	538.7991	576.4418	590.1928	664.3032	673.7644	698.3087	727.889	773.7924	928.1329	970.1656	1024.8481	1178.2457	1213.5099	1358.053	1517.8691	1785.3167	1821.3037	1843.1373	2226.7619	2976.0417	3492.0967	3561.5633
O=CC(=O)NC(=O)C#C	O=CC(=O)NC(=O)C#C	
InChI=1S/C5H3NO3/c1-2-4(8)6-5(9)3-7/h1,3H,(H,6,8,9)	InChI=1S/C5H3NO3/c1-2-4(8)6-5(9)3-7/h1,3H,(H,6,8,9)
