16
gdb 5066	3.36515	1.96966	1.25815	1.2843	68.69	-0.1824	0.0411	0.2236	941.4297	0.131225	-379.943813	-379.935454	-379.93451	-379.976303	30.716	
C	 0.0814747631	 1.4828081276	 0.0695925037	-0.499845
C	-0.0562127236	 0.0039035315	 0.0340322092	 0.322389
C	-1.1316124573	-0.8322484602	-0.0388985466	 0.060365
N	-2.5150186209	-0.5524770454	-0.0570154987	-0.625076
C	-0.6137290486	-2.1757258684	-0.0102897746	 0.198825
N	-1.4321879164	-3.3101832365	-0.130867497	-0.617934
C	 0.7379184224	-2.0538101923	 0.0770994081	-0.115819
O	 1.0930513116	-0.7316772917	 0.1101629942	-0.197678
H	 0.8663430499	 1.8199360064	-0.616226586	 0.137835
H	-0.8556217695	 1.9585435751	-0.2362350174	 0.117072
H	 0.3348295956	 1.8605931426	 1.0685347842	 0.133522
H	-2.7054585253	 0.4422209311	-0.0544591535	 0.237303
H	-2.9642479048	-0.9611871678	-0.8711701187	 0.2461
H	-2.2741524987	-3.2077306318	 0.4262901763	 0.24767
H	-0.9604782622	-4.164787761	 0.1366186737	 0.241023
H	 1.5461959447	-2.764160539	 0.1169011231	 0.114248
109.2832	123.7413	155.1711	238.1645	267.2077	302.0415	336.6418	369.2071	504.0014	570.83	596.3761	654.3331	694.1947	728.1017	754.8467	807.8853	836.5484	939.937	1012.0331	1058.0264	1117.8449	1159.4976	1210.7343	1243.7386	1312.8856	1324.5779	1415.6913	1469.6028	1487.6641	1493.8244	1623.015	1635.0654	1651.2092	1715.3274	3016.7879	3070.6428	3103.5036	3278.0499	3496.375	3510.7264	3596.5643	3609.3025
CC1=C(N)C(N)=CO1	Cc1c(N)c(N)co1	
InChI=1S/C5H8N2O/c1-3-5(7)4(6)2-8-3/h2H,6-7H2,1H3	InChI=1S/C5H8N2O/c1-3-5(7)4(6)2-8-3/h2H,6-7H2,1H3
