20
gdb 40992	3.7977	1.52338	1.45403	1.7865	83.71	-0.2003	0.0694	0.2697	992.2378	0.173542	-365.88173	-365.875054	-365.87411	-365.912289	28.784	
C	-0.0581521706	 1.5615560926	 0.1402335499	-0.28131
C	 1.5149044348	 1.5394969839	-0.1442962859	-0.346678
C	 1.2286698699	 0.1582010491	-0.7949662525	 0.262561
C	-0.0335063122	-0.0074505222	-0.0248957787	 0.041376
N	-0.2880409855	-0.9957463034	-1.2196671632	-0.206723
C	 0.37593709	 0.0804738056	-2.0985816618	 0.018445
C	 1.1227519785	-0.6440810206	-3.2115531809	-0.245933
C	 1.746595929	-1.7991507262	-2.3830195852	-0.234858
C	 1.2257116762	-1.4054362221	-1.0113554296	-0.074269
H	-0.3617893915	 1.9084312188	 1.1305375201	 0.103424
H	-0.6141949488	 2.1241522353	-0.6100617421	 0.119455
H	 1.9319286292	 2.3340335563	-0.7697937349	 0.100652
H	 2.0849094656	 1.4766831404	 0.7870954629	 0.109643
H	-0.0244939763	-0.5345312874	 0.9324346587	 0.071217
H	-0.278671313	 0.9023099251	-2.3895673564	 0.066207
H	 0.4372861585	-1.002743501	-3.9847098434	 0.108509
H	 1.868651725	-0.0029864479	-3.6911038151	 0.099045
H	 1.3808561281	-2.7838033017	-2.6864397966	 0.111875
H	 2.8396109156	-1.8189444675	-2.4120445483	 0.103306
H	 1.4045158975	-2.059384567	-0.156305847	 0.074057
199.3247	244.7389	278.5036	317.5554	450.0623	522.0019	626.3917	644.2391	679.326	718.2014	789.277	810.4031	820.4215	827.1834	874.398	892.9195	942.9748	956.5068	969.6028	985.8269	1011.0263	1029.9112	1044.4979	1088.7482	1101.036	1132.4651	1158.2011	1162.9769	1189.2761	1214.4685	1228.2736	1239.7738	1249.2266	1256.5951	1269.4366	1289.3054	1316.3906	1347.1859	1383.5582	1471.6025	1474.7099	1484.6763	1496.4804	3049.8037	3051.8616	3062.0918	3068.8402	3077.9229	3090.6009	3106.95	3109.6566	3110.9512	3116.0065	3141.5765
C1CC23C1N1C2CCC31	C1C[C@@]23[C@@H]1N1[C@@H]2CC[C@@H]31	
InChI=1S/C8H11N/c1-2-6-8-4-3-7(8)9(6)5(1)8/h5-7H,1-4H2	InChI=1S/C8H11N/c1-2-6-8-4-3-7(8)9(6)5(1)8/h5-7H,1-4H2/t5-,6+,7-,8-/m1/s1
