16
gdb 26454	4.31671	1.05263	0.85082	2.5516	74.01	-0.2172	0.0037	0.2209	1275.2102	0.124971	-437.929705	-437.921512	-437.920568	-437.963963	29.673	
C	-0.0168920327	 1.4433976489	-0.0297713028	-0.36071
N	-0.0113591076	-0.0117375492	 0.0253828066	-0.187398
C	-0.0196071205	-0.6311527405	 1.251025917	 0.153568
O	-0.0312154898	-0.0552991266	 2.3170960447	-0.338615
C	 0.0017129818	-0.7180040228	-1.1823085565	 0.312049
C	 0.0095964397	-0.1600320043	-2.4294795383	-0.100956
O	 0.0217743581	-1.1364153125	-3.3823410527	-0.145371
C	 0.0216467484	-2.3215971537	-2.7337440459	 0.022537
C	 0.0097067089	-2.144622914	-1.3883460439	-0.297485
H	 0.876202692	 1.8088831686	-0.5483404488	 0.134647
H	-0.9050984251	 1.8017812256	-0.5615599976	 0.134651
H	-0.0260332494	 1.8123590743	 0.9943130693	 0.173422
H	-0.0144690239	-1.7296379595	 1.1676662052	 0.089631
H	 0.0079449935	 0.8524952471	-2.790616448	 0.139122
H	 0.030751027	-3.2014405203	-3.355654585	 0.14437
H	 0.0070987595	-2.9295571509	-0.6511880134	 0.126539
17.2522	127.0703	196.0114	199.5994	292.937	328.8926	375.5179	454.105	467.7437	612.2586	646.7148	704.6825	765.4486	803.4194	817.1375	887.625	940.4831	1016.9856	1022.9626	1075.2475	1105.8292	1159.4834	1176.3338	1221.385	1259.2389	1344.3623	1361.08	1422.3135	1443.5694	1449.3575	1496.995	1515.2875	1547.2503	1649.2976	1793.911	3008.5601	3030.7857	3086.1157	3172.741	3269.2723	3289.8445	3300.8552
CN(C=O)C1=COC=C1	CN(C=O)c1cocc1	
InChI=1S/C6H7NO2/c1-7(5-8)6-2-3-9-4-6/h2-5H,1H3	InChI=1S/C6H7NO2/c1-7(5-8)6-2-3-9-4-6/h2-5H,1H3
