19
gdb 6278	3.75819	1.02515	0.96194	3.5656	72.41	-0.3003	0.0117	0.312	1285.6529	0.163365	-365.081232	-365.071514	-365.07057	-365.116239	34.494	
C	 0.0962390649	 1.5613291286	 0.0162782576	-0.39349
C	 0.0145060133	 0.0286455166	 0.0362257407	 0.039362
C	 0.7414697632	-0.5396356772	 1.2625971941	-0.397088
C	-1.4376715241	-0.4811406659	 0.0070608647	-0.198829
C	-2.1931661498	-0.146913112	-1.2925853103	-0.034777
O	-1.5457474212	-0.6279047594	-2.4577211425	-0.404814
C	-3.583126932	-0.646019069	-1.2182546182	 0.259725
N	-4.6564559511	-1.0699575883	-1.1561991288	-0.316654
H	 1.1387867462	 1.8914804739	 0.0604732659	 0.11891
H	-0.3386223732	 1.9886930606	-0.892311916	 0.120881
H	-0.4254284453	 1.9952326206	 0.8779013942	 0.114886
H	 0.5118865407	-0.349613753	-0.8651866206	 0.089245
H	 0.2754349535	-0.1931936341	 2.1927721865	 0.116239
H	 0.7231610792	-1.6345942214	 1.2696004848	 0.11224
H	 1.7887077815	-0.2217246595	 1.2786403338	 0.116389
H	-1.4500250284	-1.5717116075	 0.1345637566	 0.10337
H	-2.0019273213	-0.066960537	 0.8525984934	 0.117652
H	-2.2427543455	 0.9387309532	-1.424385055	 0.142239
H	-1.5183373305	-1.590916639	-2.4109143111	 0.294515
35.6689	92.591	122.9172	202.9291	217.0077	242.3383	267.442	328.2921	340.2124	377.2588	420.9338	465.8958	566.236	593.154	818.8934	847.5897	915.8632	930.7923	960.8592	968.3707	996.3033	1092.1014	1122.4129	1155.0847	1192.8027	1232.0483	1278.8934	1312.8754	1341.4294	1377.5484	1385.1492	1402.2763	1417.5812	1424.5877	1475.7467	1487.3798	1494.4436	1505.1988	1511.8503	2353.6172	3017.601	3025.2476	3028.4315	3035.1371	3057.788	3076.0231	3091.0881	3097.9213	3102.6229	3105.8236	3796.8224
CC(C)CC(O)C#N	CC(C)C[C@@H](O)C#N	
InChI=1S/C6H11NO/c1-5(2)3-6(8)4-7/h5-6,8H,3H2,1-2H3	InChI=1S/C6H11NO/c1-5(2)3-6(8)4-7/h5-6,8H,3H2,1-2H3/t6-/m1/s1
