19
gdb 41361	2.80752	1.88994	1.72596	2.1909	73.9	-0.2439	0.0723	0.3162	895.7508	0.162382	-422.980833	-422.974283	-422.973339	-423.011338	27.768	
C	 0.0713139591	 1.4893567867	-0.1491907674	-0.180725
O	 1.5045329266	 1.436094328	 0.1592444424	-0.319707
C	 1.2655667057	 0.2076028209	 0.8979810686	 0.138674
C	 1.8011353718	-1.2065088035	 0.6660929287	-0.12278
C	 0.5594091579	-1.9650517829	 1.2899312963	-0.215392
C	-0.7283277156	-1.0992105767	 0.906898054	-0.312947
C	-0.0053976192	-0.0271888853	 0.1086757141	 0.394153
O	 0.432822948	-0.6604860244	-1.1113062932	-0.312831
C	 1.6826303939	-1.3184239849	-0.8481931565	-0.076839
H	-0.4643041301	 2.1151533928	 0.5752458752	 0.100429
H	-0.1166546427	 1.8185420324	-1.1726095943	 0.121354
H	 1.1254670936	 0.432489632	 1.9621401291	 0.077581
H	 2.7616152547	-1.500800543	 1.0898230213	 0.073852
H	 0.499512858	-2.9817206558	 0.8945584706	 0.111773
H	 0.662919185	-2.0403657805	 2.3754022889	 0.107582
H	-1.4461115041	-1.6672865078	 0.313365671	 0.112416
H	-1.2288596066	-0.7140695265	 1.7994476795	 0.101528
H	 2.4988430758	-0.8010312651	-1.3688152586	 0.105273
H	 1.6328409882	-2.3539523264	-1.2049195897	 0.096607
189.7324	276.3607	310.6167	353.0292	408.4181	430.602	568.7974	646.2038	722.0917	785.7724	817.8024	834.6457	842.7418	874.3245	881.4231	933.4446	943.3671	967.9258	988.8512	1024.5349	1033.896	1049.4123	1081.3303	1113.8291	1141.7354	1170.2791	1184.7984	1208.9073	1225.6868	1244.9281	1267.731	1295.2918	1296.4764	1316.3179	1346.4485	1369.3642	1390.6815	1479.0721	1496.333	1497.9495	1523.3061	3014.6836	3026.1	3035.9055	3057.3447	3061.4715	3070.8212	3108.1673	3118.13	3121.2798	3128.9995
C1OC2C3CCC12OC3	C1O[C@@H]2[C@H]3CC[C@@]12OC3	
InChI=1S/C7H10O2/c1-2-7-4-8-6(7)5(1)3-9-7/h5-6H,1-4H2	InChI=1S/C7H10O2/c1-2-7-4-8-6(7)5(1)3-9-7/h5-6H,1-4H2/t5-,6+,7+/m0/s1
