15
gdb 25816	3.96939	1.13114	0.88418	6.7329	83.83	-0.19	-0.043	0.1471	1230.4606	0.114064	-454.004009	-453.996006	-453.995062	-454.036459	30.802	
N	-0.0663769248	 1.3347613307	 0.2237105013	-0.541393
C	-0.0036163038	-0.024216277	 0.0075785737	 0.185432
N	 1.2782814069	-0.5186781145	-0.176892687	-0.563716
H	 1.8439094408	 0.037932215	-0.8060961495	 0.259401
H	 1.326516418	-1.5022806913	-0.3966554646	 0.260444
C	-1.1282291949	-0.7962865044	-0.0088862404	 0.385677
C	-1.3642838235	-2.1483642484	-0.3808973483	-0.221861
C	-2.6855646622	-2.4114568408	-0.2053609141	-0.274349
C	-3.3376473686	-1.2020592917	 0.284976206	 0.387748
O	-4.4754015608	-0.9447125136	 0.5746672994	-0.365336
O	-2.3257542323	-0.2291641193	 0.3892729137	-0.282482
H	 0.6708466326	 1.7071068851	 0.8068834908	 0.259016
H	-0.9878341338	 1.6589665308	 0.483276788	 0.280212
H	-0.6115900184	-2.8330022324	-0.7485325272	 0.110232
H	-3.2196274751	-3.3306245882	-0.386067052	 0.120975
118.0622	133.3195	171.2048	293.9016	352.7825	379.0492	422.3879	443.7567	519.2454	573.0461	607.7226	621.9901	671.9403	714.5845	732.9065	736.3631	800.2408	884.3842	901.3058	904.9438	1050.0746	1088.1206	1106.4909	1140.1537	1253.682	1281.0927	1401.908	1458.9503	1559.2899	1630.1024	1636.4571	1730.6152	1853.0022	3218.4038	3268.0465	3540.112	3550.1501	3658.4074	3660.193
NC(=[NH2+])C1=CC=C([O-])O1	NC(=[NH2])[C]1C=CC(=O)O1	
InChI=1S/C5H6N2O2/c6-5(7)3-1-2-4(8)9-3/h1-2,8H,(H3,6,7)	InChI=1S/C5H6N2O2/c6-5(7)3-1-2-4(8)9-3/h1-2H,6-7H2
