18
gdb 92761	3.39066	1.05403	0.88365	3.5026	75.76	-0.2408	-0.0225	0.2183	1311.8951	0.147851	-439.132428	-439.123472	-439.122528	-439.166508	33.412	
N	-0.0984020647	 1.3220141968	 0.0818852781	-0.539753
C	-0.042473748	-0.0415420746	 0.2237320797	 0.300767
O	 0.9918644879	-0.618113293	 0.5128807053	-0.365033
C	-1.3229485344	-0.7573543873	-0.0348066329	 0.252153
C	-1.4340287172	-2.0852638201	 0.0661755203	-0.12568
C	-2.8118887313	-2.5698213514	-0.2854268845	-0.289866
C	-3.6598469396	-1.269015099	-0.3285816942	 0.118536
O	-4.3372085947	-1.0377117651	 0.901039003	-0.436657
C	-2.6286667386	-0.1270157597	-0.4775426173	-0.349958
H	 0.7169676229	 1.8405917314	 0.3667412233	 0.258388
H	-0.9764560246	 1.809981178	 0.0467077426	 0.257566
H	-0.6118136222	-2.7326187018	 0.3456183562	 0.123892
H	-2.8091521582	-3.0835248533	-1.2572870462	 0.114093
H	-3.2174561868	-3.2846417433	 0.4415581654	 0.103975
H	-4.377704187	-1.2797159817	-1.1599401964	 0.065481
H	-4.9421755463	-1.7712462467	 1.0509396629	 0.281753
H	-2.9509540183	 0.7187262832	 0.1408017115	 0.117313
H	-2.5686247088	 0.2289523178	-1.5139865967	 0.113028
57.6438	80.9568	183.8849	192.5368	281.3634	303.5695	359.9745	382.5169	419.4658	440.4736	500.4273	568.753	651.0998	745.6254	769.8227	829.0185	862.9593	890.537	921.2177	971.9386	978.1517	1028.5622	1076.6666	1089.1628	1105.3806	1168.5432	1215.3722	1235.5821	1268.849	1296.3361	1329.7849	1360.8906	1373.6218	1419.603	1461.5341	1477.8369	1615.4779	1693.6901	1776.1574	2997.6722	3013.5166	3026.6601	3047.3113	3063.5328	3218.8417	3598.6734	3731.7681	3816.0957
NC(=O)C1=CCC(O)C1	NC(=O)C1=CC[C@@H](O)C1	
InChI=1S/C6H9NO2/c7-6(9)4-1-2-5(8)3-4/h1,5,8H,2-3H2,(H2,7,9)	InChI=1S/C6H9NO2/c7-6(9)4-1-2-5(8)3-4/h1,5,8H,2-3H2,(H2,7,9)/t5-/m1/s1
