23
gdb 36967	6.58863	0.54772	0.54167	1.1923	88.29	-0.2302	0.09	0.3201	2108.3796	0.205584	-384.402327	-384.392629	-384.391684	-384.438242	35.422	
C	 0.1915986021	 1.3828246579	 0.0023773572	-0.178893
C	 0.1659877826	-0.1385696523	 0.1434753555	-0.141513
N	-1.1994663169	-0.6214251567	 0.3226528669	-0.059035
C	-1.9421627267	-0.9208916308	-0.8973287028	-0.218303
C	-1.4423874641	-2.0168041478	-0.0217685856	-0.221197
C	 1.6089263004	 1.9394317429	-0.1263705008	-0.141513
N	 1.5842762405	 3.3859564452	-0.3178843153	-0.059035
C	 1.5895673894	 4.1966193372	 0.8955532707	-0.218303
C	 2.8015625719	 4.1058711363	 0.0351825819	-0.221197
H	-0.3879350708	 1.6844389367	-0.8775641124	 0.109146
H	-0.304651793	 1.8269818839	 0.8727722825	 0.109146
H	 0.6540522153	-0.6051726334	-0.73398186	 0.074843
H	 0.743189206	-0.4440800094	 1.0257228497	 0.099863
H	-2.9925778159	-0.6444737326	-0.8956338359	 0.116132
H	-1.4351278166	-0.7792995983	-1.8511523674	 0.107847
H	-0.604324369	-2.6046077563	-0.3941977984	 0.106454
H	-2.1203340456	-2.5562220108	 0.6337139325	 0.115207
H	 2.2065219794	 1.6534169867	 0.760721022	 0.074843
H	 2.1080347386	 1.498806008	-0.9990665679	 0.099863
H	 0.9623150354	 5.0832202113	 0.8789708339	 0.116132
H	 1.6233939143	 3.6800833718	 1.8541765698	 0.107847
H	 3.6414668595	 3.5304484474	 0.4225014478	 0.106454
H	 3.0767323434	 4.924507533	-0.6238747541	 0.115207
50.6558	55.4595	99.508	127.7014	147.6865	242.3496	289.5928	376.0296	389.8375	415.1965	520.439	755.1097	766.2781	781.2987	835.6798	839.9766	888.5869	902.2658	907.0784	1008.7387	1016.4049	1029.9116	1043.669	1066.8532	1090.7837	1111.0815	1115.2799	1116.754	1117.3368	1137.0975	1164.3983	1172.678	1183.9064	1210.4093	1252.3506	1284.9591	1314.1184	1315.4496	1324.8597	1326.4393	1395.1041	1412.2348	1484.0679	1487.8433	1493.432	1495.7532	1507.9595	1523.0551	1524.8582	2913.6648	2916.2352	3033.9568	3033.9597	3041.8596	3085.2022	3090.487	3090.7469	3095.2308	3095.4296	3174.2591	3174.2667	3188.6152	3188.7194
C(CN1CC1)CN1CC1	C(CN1CC1)CN1CC1	
InChI=1S/C7H14N2/c1(2-8-4-5-8)3-9-6-7-9/h1-7H2	InChI=1S/C7H14N2/c1(2-8-4-5-8)3-9-6-7-9/h1-7H2
