18
gdb 64535	4.05483	1.22283	1.08588	2.3057	77.44	-0.2392	-0.0284	0.2108	1122.965	0.146936	-401.858556	-401.850692	-401.849748	-401.890709	30.926	
C	-0.0565020943	 1.6214508879	-0.0104037668	-0.515631
C	 0.0419680502	 0.105048884	-0.1025267024	 0.201004
C	-1.1121300779	-0.5952337095	 0.5639141934	 0.145175
O	-2.0276469256	-0.0460333032	 1.1226011572	-0.278582
C	 0.4905784126	-0.7610838646	-1.2759748828	-0.130142
C	 1.8237223378	-0.3428954682	-1.9224395137	-0.055053
C	 2.5595842538	 0.779975972	-1.3025484167	-0.248684
N	 2.5754773221	-0.5338558688	-0.6296281918	-0.150551
C	 1.2461487911	-0.8502138251	 0.0175014476	-0.053699
H	 0.0554455827	 2.1033625599	-0.9834411416	 0.130583
H	-1.0475114261	 1.8656934836	 0.3806947862	 0.15003
H	 0.6796380922	 2.0440520053	 0.6790861405	 0.133769
H	-1.0666105352	-1.7060871831	 0.5044738241	 0.079425
H	-0.165978359	-1.4841326587	-1.7441667386	 0.104338
H	 2.1717808832	-0.8288585696	-2.8281168617	 0.112044
H	 3.5292402656	 0.997176403	-1.7433759092	 0.128643
H	 2.0755371786	 1.6322567139	-0.8553693121	 0.133506
H	 1.2695135881	-1.6221863389	 0.7767807083	 0.113824
102.0257	150.2299	233.1593	275.7435	335.3831	346.7724	364.0829	473.1892	486.1827	648.0194	671.283	730.2499	760.159	782.1301	839.0279	852.2907	925.7717	963.4671	978.1244	1005.2413	1039.3868	1055.3942	1062.8888	1083.41	1099.3682	1112.977	1130.714	1169.8487	1230.4124	1268.854	1289.9188	1331.5879	1387.6712	1407.9097	1445.7184	1492.0245	1510.4435	1515.9366	1819.672	2876.225	3048.141	3115.6964	3129.3263	3138.0068	3163.8771	3179.6727	3189.083	3280.8782
CC1(C=O)C2C3CN3C12	C[C@@]1(C=O)[C@H]2[C@H]3CN3[C@@H]12	
InChI=1S/C7H9NO/c1-7(3-9)5-4-2-8(4)6(5)7/h3-6H,2H2,1H3	InChI=1S/C7H9NO/c1-7(3-9)5-4-2-8(4)6(5)7/h3-6H,2H2,1H3/t4-,5+,6-,7-,8?/m1/s1
