14
gdb 127489	3.2618	1.32252	0.94736	3.8149	73.44	-0.2321	-0.051	0.1811	1156.486	0.102989	-429.089363	-429.081164	-429.08022	-429.122289	29.378	
C	-0.1047094576	 1.390016773	-0.036162881	-0.335756
N	-0.0442635109	-0.0557055971	 0.0156309282	-0.01718
N	-0.1758482328	-0.7954295479	-1.1094225484	-0.308648
C	-0.0701719988	-2.0459116969	-0.6504892032	 0.401911
N	-0.2071107532	-3.1468332207	-1.4591269958	-0.592087
N	 0.1272378651	-2.1512156693	 0.6884301662	-0.363072
C	 0.1362611994	-0.8791129804	 1.0725704541	 0.28367
C	 0.3107961816	-0.4017635264	 2.3987614356	 0.246024
N	 0.4508242442	 0.0272066398	 3.4645809731	-0.341532
H	 0.033168917	 1.7825873002	 0.9718577758	 0.171142
H	 0.6837378854	 1.7692725038	-0.6905975163	 0.161122
H	-1.0756637921	 1.705864843	-0.4251031112	 0.162698
H	-0.0159995817	-2.979943475	-2.4352799523	 0.264294
H	 0.2270114644	-3.9800264061	-1.0923689748	 0.267415
104.0823	146.043	147.6861	181.6094	285.8056	328.7158	351.4866	431.2865	505.2002	558.1919	573.6715	605.7849	673.7163	712.316	775.2247	843.8563	1047.1132	1070.0998	1120.642	1153.4151	1203.2618	1320.7556	1406.2154	1452.9057	1473.7873	1480.7178	1511.5614	1537.3392	1572.8843	1651.5186	2352.3619	3058.11	3129.1166	3160.7948	3585.3422	3694.5194
CN1N=C(N)N=C1C#N	Cn1nc(N)nc1C#N	
InChI=1S/C4H5N5/c1-9-3(2-5)7-4(6)8-9/h1H3,(H2,6,8)	InChI=1S/C4H5N5/c1-9-3(2-5)7-4(6)8-9/h1H3,(H2,6,8)
