16
gdb 97259	2.24361	1.21613	0.83398	0.6174	76.39	-0.227	0.014	0.241	1341.5386	0.122125	-434.061467	-434.051448	-434.050504	-434.097304	35.897	
N	-0.2972430497	 1.4035955482	-0.0894833557	-0.507233
C	-0.2751926983	 0.0368187623	-0.1637094435	 0.128477
N	-1.2219938862	-0.6840094762	 0.2905218869	-0.225874
C	-1.0555233237	-2.119095629	 0.1345541236	-0.316141
C	-1.6610151094	-2.8419137705	 1.2540281733	 0.317312
C	-2.1619245045	-3.4624165434	 2.154357565	-0.395116
C	-1.6152100725	-2.5274446748	-1.2690408974	 0.44238
N	-2.6150445878	-3.4372664975	-1.2729344155	-0.539535
O	-1.1330342933	-2.0327920036	-2.2674703855	-0.367529
H	 0.2777146278	 1.9110294663	-0.7415189368	 0.258947
H	-1.1980689869	 1.8161544632	 0.1043661939	 0.259417
H	 0.6443208939	-0.3652703263	-0.6052722324	 0.100983
H	 0.0077153479	-2.4106007255	 0.0774619386	 0.115983
H	-2.5882068303	-3.9929272506	 2.9697958277	 0.196351
H	-3.0071817465	-3.778429445	-0.4113472606	 0.27035
H	-3.0192227204	-3.7062157776	-2.1545934117	 0.261228
32.7267	60.6801	140.3585	160.479	175.6763	294.3629	310.7052	340.0405	382.162	409.896	476.0408	488.1322	541.0373	580.4502	605.863	628.725	641.9364	650.4444	743.8245	876.7867	983.9162	1001.6295	1034.8585	1110.0985	1156.5951	1258.847	1292.8119	1330.0163	1345.9082	1418.1562	1608.074	1628.064	1748.7986	1806.9608	2231.1945	2948.1948	3055.7044	3500.1678	3580.8389	3592.606	3704.2897	3728.8129
NC=NC(C#C)C(N)=O	NC=N[C@@H](C#C)C(=O)N	
InChI=1S/C5H7N3O/c1-2-4(5(7)9)8-3-6/h1,3-4H,(H2,6,8)(H2,7,9)	InChI=1S/C5H7N3O/c1-2-4(5(7)9)8-3-6/h1,3-4H,(H2,6,8)(H2,7,9)/t4-/m0/s1
