17
gdb 8667	2.68636	1.70424	1.37347	1.8094	65.51	-0.2335	-0.0586	0.1748	971.6288	0.13838	-401.001186	-400.991682	-400.990738	-401.0356	32.749	
C	-0.2642511161	 1.515363621	 0.0968787822	-0.327352
N	-0.0005874046	 0.0753212392	 0.0393859683	-0.312947
C	 0.5740055453	-0.4251379664	-1.2012969046	 0.065761
C	-0.1061471061	 0.1125736537	-2.4720737562	-0.435331
C	 2.0920852255	-0.1656813453	-1.3028588158	 0.147124
O	 2.7369804966	 0.3088947703	-0.4050649845	-0.252399
C	 0.4304247727	-1.9615036815	-1.1914186627	 0.144683
O	 0.6653358058	-2.6661691777	-2.1367276634	-0.254016
H	 0.6010983628	 2.14597	-0.1558280847	 0.11558
H	-1.090316279	 1.7757471159	-0.5702844862	 0.127189
H	-0.5774019233	 1.7633410939	 1.1145456259	 0.126654
H	 0.6585043627	-0.1414728751	 0.7826584713	 0.229761
H	 0.1176542488	 1.1694658659	-2.636410623	 0.130961
H	 0.2431325308	-0.4607675853	-3.3331182612	 0.150084
H	-1.1900153346	-0.0075645172	-2.3939257215	 0.142233
H	 2.5571653731	-0.4759150649	-2.2628874483	 0.103508
H	 0.0914867398	-2.3637072564	-0.2125829256	 0.098507
66.0074	92.0817	104.0714	180.3324	221.9234	244.9435	262.7859	308.0364	315.7589	347.231	433.3469	533.204	664.0269	769.0859	797.8524	866.2584	915.7585	961.374	1023.0852	1079.3768	1111.5534	1147.034	1172.3584	1237.3485	1259.1414	1379.6301	1396.3667	1404.2339	1457.5135	1487.9863	1491.9295	1501.5053	1505.8016	1532.7146	1804.6047	1837.9081	2906.9706	2909.1234	2992.6661	3051.1965	3083.1896	3116.7467	3126.2891	3141.2759	3500.356
CNC(C)(C=O)C=O	CNC(C)(C=O)C=O	
InChI=1S/C5H9NO2/c1-5(3-7,4-8)6-2/h3-4,6H,1-2H3	InChI=1S/C5H9NO2/c1-5(3-7,4-8)6-2/h3-4,6H,1-2H3
