18
gdb 98871	4.1352	1.07048	0.86412	1.0923	77.23	-0.2244	0.0064	0.2308	1323.8548	0.149154	-435.287078	-435.278176	-435.277232	-435.32164	31.212	
C	-0.0407772997	 1.3071503226	 0.0950189931	-0.224415
O	 0.0495971686	-0.1132401963	-0.0307090948	-0.248648
C	 0.6926147425	-0.5657177101	-1.1258883275	 0.514287
N	 1.1865853713	 0.224151937	-1.9929240954	-0.604885
N	 0.7125274377	-1.9477443553	-1.1292484064	-0.1544
C	 1.3331812545	-2.757961729	-2.1792418678	-0.207338
C	 1.0501052577	-4.1995798821	-1.6582805572	-0.173207
N	 0.3117531279	-4.0584860599	-0.390197139	-0.274117
C	 0.1724192091	-2.8115547903	-0.1790220298	 0.087448
H	 0.9544967546	 1.7562199356	 0.1381487937	 0.141877
H	-0.5806784629	 1.737330693	-0.752086285	 0.141811
H	-0.5825433063	 1.4816807615	 1.0254186853	 0.128421
H	 1.6357303179	-0.2764269442	-2.7533219507	 0.222296
H	 0.8684426874	-2.5559894556	-3.1506098201	 0.124452
H	 2.4029258264	-2.5354212807	-2.2595815825	 0.124423
H	 0.4520031048	-4.7803675792	-2.3674462287	 0.122829
H	 1.9740242373	-4.7597444194	-1.4834417687	 0.122825
H	-0.3309410388	-2.3842739072	 0.6778609616	 0.156343
71.8485	75.5347	120.6448	144.628	179.8319	181.5347	342.5451	407.8201	496.3697	516.6924	726.8546	743.9867	767.73	808.2557	838.9283	910.9754	955.822	959.8095	967.8037	979.9221	1111.0403	1115.8025	1183.2077	1203.7855	1214.9462	1224.5937	1243.0173	1252.1035	1315.6526	1328.2489	1391.6415	1421.8654	1477.0369	1488.5533	1497.9558	1504.3538	1531.4409	1695.2731	1721.5933	3028.2365	3050.8256	3051.6912	3059.5154	3087.2202	3127.7713	3152.878	3242.1879	3551.2056
COC(=N)N1CCN=C1	CO[C]([NH])N1CCN=C1	
InChI=1S/C5H9N3O/c1-9-5(6)8-3-2-7-4-8/h4,6H,2-3H2,1H3	InChI=1S/C5H9N3O/c1-9-5(6)8-3-2-7-4-8/h4,6H,2-3H2,1H3
