18
gdb 122618	3.69117	0.83257	0.7126	4.1398	69.09	-0.2346	0.0094	0.244	1540.7172	0.147452	-476.221259	-476.212022	-476.211077	-476.256506	32.421	
O	-0.1592181482	 1.325674613	 0.3189093917	-0.424883
C	 0.0333908415	-0.0231322482	-0.0992357919	-0.092391
C	-1.3411914684	-0.658404631	-0.2072524402	-0.123709
N	-2.1273030666	 0.0495463438	-1.2189460341	-0.312329
C	-3.496234514	-0.4063556762	-1.3039822762	-0.156496
C	-4.3154758018	 0.1232813281	-2.4949149505	-0.104129
O	-4.4354160817	-1.2341651502	-3.0343843996	-0.23717
C	-3.6648425247	-1.7547988089	-2.028058508	 0.479872
O	-3.3076374081	-2.8803579725	-1.8893070913	-0.326098
H	 0.6740473461	 1.7957602848	 0.227722677	 0.292701
H	 0.5317051777	-0.0660053004	-1.0779783626	 0.103014
H	 0.6421657073	-0.5829141841	 0.626042861	 0.093934
H	-1.2421716823	-1.7077233765	-0.5013249171	 0.135389
H	-1.8203882657	-0.6390531518	 0.7886141914	 0.090363
H	-2.1052788902	 1.0383779758	-0.9857957697	 0.234296
H	-4.049892698	-0.3908396268	-0.3486248925	 0.092753
H	-5.2995553207	 0.539561542	-2.2731394186	 0.124384
H	-3.7556779423	 0.7617359892	-3.1805474688	 0.130501
55.5639	73.8136	103.4505	151.0187	191.78	250.5095	273.3992	344.0692	390.8099	497.9813	523.097	724.2274	756.6303	816.0662	840.5824	886.2775	922.7987	953.1543	978.821	1072.8371	1075.2332	1101.0156	1126.3604	1147.2406	1162.9341	1194.3914	1201.9503	1252.6968	1271.0873	1310.3919	1329.1857	1376.009	1395.5015	1456.0147	1485.6726	1504.368	1508.9403	1512.6622	1934.3402	2941.2239	2946.6946	2990.3181	3032.2217	3077.7297	3088.1569	3144.0795	3510.2109	3840.3498
OCCNC1COC1=O	OCCN[C@H]1COC1=O	
InChI=1S/C5H9NO3/c7-2-1-6-4-3-9-5(4)8/h4,6-7H,1-3H2	InChI=1S/C5H9NO3/c7-2-1-6-4-3-9-5(4)8/h4,6-7H,1-3H2/t4-/m0/s1
