19
gdb 95006	3.03947	1.63604	1.33549	1.2152	74.02	-0.2359	0.0692	0.3051	1002.2533	0.160557	-422.960832	-422.953573	-422.952629	-422.992341	29.273	
C	-0.2186747465	 1.5865335736	-0.0021901311	-0.399092
C	 0.0224019218	 0.0743571945	-0.0520532755	 0.085915
O	 0.7125894563	-0.3112076021	-1.239689797	-0.267971
C	 2.1265196121	-0.2533864687	-1.1543074246	-0.1235
C	 2.6386805054	-0.7481889513	 0.189998241	-0.028221
C	 1.7007926929	-1.658147115	 1.0328740496	 0.031335
O	 2.4120111334	-1.2270308745	 2.2550843147	-0.316092
C	 2.1980198749	 0.00518294	 1.4712337807	 0.032135
C	 0.7391648514	-0.4466233957	 1.1902382114	-0.022262
H	 0.7245761967	 2.1393123639	 0.0601921432	 0.116964
H	-0.7476658018	 1.9126344774	-0.9015152442	 0.126269
H	-0.8220235306	 1.854120608	 0.8716693566	 0.117439
H	-0.9478294827	-0.4319273133	-0.1291569419	 0.088433
H	 2.4984433252	-0.8897884792	-1.9642494638	 0.114281
H	 2.5014836243	 0.7664300556	-1.3455621997	 0.092945
H	 3.6887069224	-1.0473662351	 0.1861364674	 0.083628
H	 1.4742377754	-2.719074458	 0.9261212806	 0.094724
H	 2.5720551422	 0.9402741676	 1.8901808258	 0.090057
H	 0.1078544472	-0.4801584276	 2.080521677	 0.083013
129.032	176.0079	219.443	302.0473	361.5414	449.996	474.8146	498.961	626.6315	737.0465	746.2295	815.6932	837.7329	867.5372	882.9062	896.8509	931.7253	971.2091	1001.1938	1021.5719	1039.1284	1075.4884	1106.9295	1114.9132	1147.0539	1154.503	1181.469	1191.9838	1210.886	1258.1924	1266.7688	1283.4615	1312.9364	1356.2005	1378.6466	1386.2721	1402.78	1419.868	1487.1673	1495.0965	1511.0411	2961.4711	3028.5294	3036.3735	3064.3299	3096.6156	3101.5515	3105.2515	3110.3145	3120.1858	3122.8084
CC1OCC2C3OC2C13	C[C@H]1OC[C@@H]2[C@H]3O[C@@H]2[C@@H]13	
InChI=1S/C7H10O2/c1-3-5-6-4(2-8-3)7(5)9-6/h3-7H,2H2,1H3	InChI=1S/C7H10O2/c1-3-5-6-4(2-8-3)7(5)9-6/h3-7H,2H2,1H3/t3-,4-,5+,6-,7+/m1/s1
