17
gdb 111825	2.65722	1.50796	1.14855	3.1455	68.98	-0.2246	-0.0432	0.1813	1090.2516	0.13467	-458.916178	-458.907753	-458.906808	-458.949854	30.111	
C	 0.2296507816	 1.5503842567	 0.1493249896	-0.248513
O	-0.320973531	 0.2622735179	 0.3829107328	-0.240556
C	 0.4899825776	-0.5531471733	 1.1705349923	 0.011317
C	-0.0417425626	-1.9835761442	 1.4355356563	-0.140862
C	-0.6584908749	-2.6642363064	 0.2051340424	-0.076657
O	 0.6383703609	-3.1388227465	-0.24979393	-0.283134
C	 1.2989814635	-2.6034420302	 0.9181562688	-0.017931
C	 1.7900531207	-1.1761073992	 0.5691025354	 0.382086
O	 2.7446528898	-0.7294683222	 0.0046225131	-0.292392
H	 1.1932118434	 1.4883920952	-0.3687042404	 0.144845
H	-0.48604056	 2.0912155101	-0.4730633482	 0.132008
H	 0.3696291921	 2.0974757389	 1.0941327382	 0.108403
H	 0.7575503915	-0.059260263	 2.1239603894	 0.091841
H	-0.4744519995	-2.1795399241	 2.4132394184	 0.091968
H	-1.3181417473	-3.5074746675	 0.437967411	 0.109144
H	-1.1391603718	-2.0019239169	-0.5195226733	 0.131778
H	 1.944676086	-3.3211946754	 1.4285640543	 0.096654
68.0455	101.7962	157.8753	180.4314	206.4504	239.902	339.0912	460.155	490.2261	616.392	656.96	787.6107	827.8856	866.3308	923.3082	978.8291	984.6222	1017.1488	1045.6781	1054.423	1078.871	1145.7147	1168.0704	1172.2161	1184.6699	1192.0307	1240.8643	1247.8771	1270.8187	1313.0705	1339.947	1370.8874	1479.9735	1486.4117	1511.9435	1516.2766	1888.8552	2927.9915	2990.6056	3037.6642	3071.4082	3092.7753	3102.9393	3130.5378	3147.7533
COC1C2COC2C1=O	CO[C@H]1[C@H]2CO[C@H]2C1=O	
InChI=1S/C6H8O3/c1-8-5-3-2-9-6(3)4(5)7/h3,5-6H,2H2,1H3	InChI=1S/C6H8O3/c1-8-5-3-2-9-6(3)4(5)7/h3,5-6H,2H2,1H3/t3-,5+,6-/m1/s1
