24
gdb 100135	3.52033	0.70637	0.68497	4.3596	90.31	-0.3072	0.0404	0.3476	1766.1475	0.215318	-368.445246	-368.434013	-368.433069	-368.481975	40.966	
C	 0.2126758559	 1.5039054879	 0.0076490068	-0.407947
C	-0.0566974594	-0.0051311827	 0.0025902201	-0.180044
C	-1.5417964972	-0.4607053324	 0.0144893936	 0.256477
C	-2.2463142519	 0.0523221916	 1.2843425089	-0.416113
C	-2.2705976572	 0.0657198726	-1.2360235903	-0.416107
C	-1.5051465602	-2.0110970059	 0.0058643128	-0.189077
C	-2.8758685504	-2.7226796818	 0.0151341543	-0.370672
C	-2.7296364663	-4.1767398779	 0.0058001705	 0.262523
N	-2.5960884451	-5.3247210877	-0.0017762864	-0.307386
H	 1.2912086645	 1.6896326449	-0.001636003	 0.118109
H	-0.2089057613	 2.0024381854	-0.8702337864	 0.119656
H	-0.1921382071	 1.9935268315	 0.8983448762	 0.119651
H	 0.4255251426	-0.4446774695	-0.8803945729	 0.094563
H	 0.4422999833	-0.453570332	 0.8716731606	 0.094563
H	-2.2433045024	 1.1451377331	 1.3246629985	 0.119904
H	-3.2949004827	-0.2597392531	 1.3243646308	 0.111073
H	-1.7511391067	-0.3166563965	 2.1897020979	 0.113248
H	-1.7928793922	-0.2934082754	-2.1546260288	 0.113247
H	-3.3197406418	-0.2461771062	-1.259247694	 0.111071
H	-2.2684178037	 1.1589067344	-1.2646706343	 0.119904
H	-0.9520807324	-2.3483960245	-0.8782893034	 0.114146
H	-0.9353206583	-2.3577840116	 0.8756275993	 0.114143
H	-3.4567265591	-2.446308	 0.901219482	 0.152532
H	-3.4736038308	-2.436703364	-0.8565706727	 0.152535
46.8025	79.6372	93.021	110.4844	213.9532	221.7655	250.7515	283.0913	300.2447	332.3166	358.1526	384.6232	392.2955	419.8173	495.5444	571.9245	733.3068	758.183	786.0089	866.3926	937.1305	938.5919	969.7479	978.5135	1001.9295	1013.7297	1039.251	1087.8778	1093.2334	1185.7447	1206.4972	1248.5255	1256.204	1305.5503	1311.9159	1364.9914	1372.3779	1386.2828	1403.022	1413.0223	1428.2246	1466.5094	1478.8296	1483.0329	1488.5367	1492.2389	1507.322	1508.7474	1515.7464	1518.5752	2361.0803	3012.7728	3029.2795	3029.913	3037.2941	3044.0588	3046.657	3055.2597	3069.5034	3093.0803	3097.5411	3099.0968	3104.0852	3104.9107	3112.0108	3116.8911
CCC(C)(C)CCC#N	CCC(C)(C)CCC#N	
InChI=1S/C8H15N/c1-4-8(2,3)6-5-7-9/h4-6H2,1-3H3	InChI=1S/C8H15N/c1-4-8(2,3)6-5-7-9/h4-6H2,1-3H3
