23
gdb 104057	2.92875	1.19412	1.10618	1.2474	84.85	-0.2461	0.0718	0.3179	1257.6304	0.205406	-388.268021	-388.258757	-388.257813	-388.302018	36.267	
C	-0.2055510541	 1.5422299427	 0.0432831721	-0.405086
C	-0.0497183574	 0.0165580318	 0.0316552875	-0.223486
C	 0.7419996166	-0.521865637	 1.221584297	 0.419315
O	 2.0621513332	 0.0199355767	 1.2434928777	-0.491835
C	 0.0894541496	-0.4625210715	 2.6448904864	-0.296894
C	 0.4969814568	-1.9424754261	 2.8961140804	-0.005879
C	-0.6312432601	-2.973473779	 2.6533861139	-0.221909
C	-0.2960707396	-2.9746010625	 1.1304522795	-0.248217
C	 0.9305837088	-2.052241609	 1.3902607911	-0.044813
H	 0.7650649474	 2.0436656928	-0.0347059548	 0.112906
H	-0.8116760701	 1.8819092438	-0.8015521014	 0.117595
H	-0.6950429376	 1.8890380959	 0.9607079513	 0.117554
H	-1.0438222428	-0.4433972588	 0.01914452	 0.093102
H	 0.4577699491	-0.2953436073	-0.8897101461	 0.100246
H	 1.9941737151	 0.9546640862	 1.4656668254	 0.274261
H	 0.5564097622	 0.2702218807	 3.3083304678	 0.091872
H	-0.9926750511	-0.2955050421	 2.647591152	 0.089084
H	 1.1787791785	-2.1171314029	 3.7283948066	 0.063782
H	-0.432314758	-3.9398959057	 3.1244283232	 0.098442
H	-1.6400721151	-2.6587532499	 2.9385057512	 0.090658
H	-0.0257795269	-3.956523885	 0.7357817249	 0.102228
H	-1.0683663313	-2.5595222101	 0.4783756289	 0.097466
H	 1.9030771769	-2.4199920935	 1.0627014755	 0.06961
55.6127	95.3409	173.0647	225.5059	273.3438	283.9504	334.0384	354.0707	390.0266	432.346	470.8932	617.4753	725.7488	738.6679	767.9418	783.6714	841.6803	866.1676	902.0647	926.5412	944.8173	958.0832	989.5085	1012.8943	1018.2987	1050.5811	1080.0008	1103.6195	1140.8322	1155.9882	1180.8417	1207.9049	1231.8056	1241.1191	1262.2533	1268.7384	1278.6308	1288.6434	1308.156	1323.054	1337.7101	1386.6876	1404.6917	1462.9459	1476.6606	1478.466	1496.7084	1501.0987	1512.2418	3028.0441	3030.8982	3040.6565	3045.3326	3063.6825	3069.5993	3087.6374	3094.0001	3097.7905	3104.6589	3105.3984	3108.5574	3119.7273	3805.6739
CCC1(O)CC2CCC12	CC[C@@]1(O)C[C@H]2CC[C@@H]12	
InChI=1S/C8H14O/c1-2-8(9)5-6-3-4-7(6)8/h6-7,9H,2-5H2,1H3	InChI=1S/C8H14O/c1-2-8(9)5-6-3-4-7(6)8/h6-7,9H,2-5H2,1H3/t6-,7-,8-/m1/s1
