19
gdb 69461	3.03201	1.12782	1.07306	3.8894	75.52	-0.2429	-0.0189	0.224	1202.5593	0.158878	-423.032115	-423.023586	-423.022642	-423.065593	32.566	
O	-0.467144354	 1.3613780352	-0.0223228625	-0.472397
C	-0.1825737276	-0.0015170265	 0.0621615974	 0.423387
C	-0.1487714179	-0.8318523997	-1.1955047935	-0.372993
C	-1.284150547	-0.9943527083	-0.1967607622	-0.084924
C	-1.1774692994	-2.1363949819	 0.8100848652	-0.081741
C	 0.2625202101	-1.9859707492	 1.3969123081	-0.263766
C	 0.6320791666	-0.4933872217	 1.2510025507	-0.279955
C	-2.216195952	-1.9646772911	 1.8997704204	 0.157699
O	-3.0418210013	-2.7882436344	 2.1994972362	-0.253496
H	 0.3131627151	 1.8097749181	-0.3660478115	 0.283606
H	-0.4090014657	-0.3121989585	-2.1109975018	 0.118759
H	 0.5864329649	-1.6214825894	-1.3157416463	 0.111473
H	-2.2650681432	-0.6483830055	-0.5029107564	 0.103757
H	-1.3335533212	-3.1232583315	 0.364413189	 0.090772
H	 0.325794878	-2.3326993622	 2.4324098136	 0.11524
H	 0.9465478985	-2.6127531313	 0.818448069	 0.117008
H	 1.7116900852	-0.3465784874	 1.1317326217	 0.095612
H	 0.3195714705	 0.0827580921	 2.1291578747	 0.114435
H	-2.1636222196	-0.9861840368	 2.433911378	 0.077523
58.1845	97.5685	190.0164	278.5441	298.055	315.803	369.882	404.1497	412.9468	471.0831	562.4325	680.0362	721.1334	814.6362	845.4701	892.8436	911.6955	930.412	967.5338	982.357	1000.4802	1041.239	1045.9682	1073.5735	1098.6486	1124.6714	1181.6191	1206.0273	1243.4077	1264.2046	1281.6948	1292.8543	1323.4345	1336.8213	1350.6327	1409.3425	1430.5318	1481.5805	1492.7156	1510.744	1832.7181	2851.6136	3035.1989	3058.318	3071.4254	3073.3923	3101.1443	3127.0846	3176.7462	3217.9631	3798.6724
OC12CC1C(CC2)C=O	O[C@]12C[C@H]1[C@@H](CC2)C=O	
InChI=1S/C7H10O2/c8-4-5-1-2-7(9)3-6(5)7/h4-6,9H,1-3H2	InChI=1S/C7H10O2/c8-4-5-1-2-7(9)3-6(5)7/h4-6,9H,1-3H2/t5-,6-,7+/m0/s1
