19
gdb 116649	3.5515	0.73766	0.66429	7.3379	79.39	-0.2316	0.0082	0.2398	1720.0614	0.157694	-456.388813	-456.378418	-456.377474	-456.42554	35.829	
C	-0.1242968706	 1.5061812021	-0.0063794321	-0.325598
N	 0.1879421109	 0.0948515216	 0.0724503058	-0.279582
C	 0.7084334175	-0.6224543508	-0.9541776841	 0.132752
N	 0.7632184111	-1.8978384799	-0.9635505207	-0.294376
H	-0.3503361378	-3.3993356101	-0.9289230899	 0.297674
C	 1.4041603708	-2.558280264	-2.0894895591	-0.10325
C	 2.8347325318	-3.0065887268	-1.7470853348	-0.37731
C	 0.5765997982	-3.7986513325	-2.4830905307	 0.424562
O	-0.3998725552	-4.0993543567	-1.6154576618	-0.367885
O	 0.8039290363	-4.4509495401	-3.4669538074	-0.350734
H	 0.4970368127	 1.9684384845	-0.777869761	 0.144865
H	-1.1764068025	 1.6970181106	-0.2570237589	 0.134111
H	 0.0993472774	 1.9997115819	 0.9441013223	 0.140357
H	-0.226526356	-0.4458970974	 0.8171524712	 0.252651
H	 1.1059092259	 0.0004755657	-1.766927832	 0.099657
H	 1.4425939337	-1.9165152276	-2.9830440385	 0.09125
H	 2.8334292134	-3.6265593516	-0.8456166541	 0.127167
H	 3.248751631	-3.5865265458	-2.5751041393	 0.143975
H	 3.4708685114	-2.135956423	-1.5630331749	 0.109713
43.1159	68.5906	87.3471	128.0273	141.3877	214.3262	233.4398	249.0701	312.8162	387.4745	434.9918	469.2514	591.4238	607.9884	658.6827	741.7922	801.3381	833.7802	917.9224	1011.2042	1028.0626	1056.972	1096.8885	1128.861	1152.4674	1192.3738	1228.3128	1300.2543	1321.0821	1344.4826	1389.9212	1394.5839	1427.7305	1469.5311	1484.9553	1488.1244	1490.4347	1499.2638	1532.7211	1752.7741	1868.5972	2987.8656	3011.7369	3033.8065	3042.6023	3081.1007	3115.6339	3122.3694	3135.4643	3490.9411	3615.8269
CNC=[NH+]C(C)C([O-])=O	CNC=N[C@@H](C)C(=O)O	
InChI=1S/C5H10N2O2/c1-4(5(8)9)7-3-6-2/h3-4H,1-2H3,(H,6,7)(H,8,9)	InChI=1S/C5H10N2O2/c1-4(5(8)9)7-3-6-2/h3-4H,1-2H3,(H,6,7)(H,8,9)/t4-/m0/s1
