14
gdb 13742	3.21787	1.67511	1.36993	6.3442	63.18	-0.2639	0.0002	0.2641	913.4036	0.107458	-378.757932	-378.750055	-378.749111	-378.790634	28.256	
N	 0.1307732911	 1.0418928884	 0.6032393229	-0.537425
C	 0.0898012981	-0.0419541875	-0.2257333084	 0.426733
O	 1.0193690468	-0.3688280903	-0.9365182573	-0.355025
C	-1.215375776	-0.7929073675	-0.2152384442	-0.128562
C	-1.4883822704	-1.6951524454	-1.3839611029	-0.279674
C	-1.1767039375	-2.3176998748	-0.0462274621	-0.168469
C	 0.0551667138	-3.0208815824	 0.1890244148	 0.309754
N	 1.0071382879	-3.6355159509	 0.4188677987	-0.337335
H	 1.0188322879	 1.5058193091	 0.7113871404	 0.268749
H	-0.5686084296	 1.1929961504	 1.3094130807	 0.260917
H	-2.0579346373	-0.3071287796	 0.2656101158	 0.09912
H	-2.5037957961	-1.7839314907	-1.7498773884	 0.131166
H	-0.6997459169	-1.7274165616	-2.1260541493	 0.170583
H	-2.0140549419	-2.7349857271	 0.5037136495	 0.139467
52.3019	113.6858	191.1169	268.7608	279.7184	287.6785	416.9722	511.2251	548.5598	587.264	639.7499	748.0904	768.4032	809.6169	856.433	929.4695	1000.3815	1044.0052	1092.3722	1115.3941	1125.972	1146.7739	1219.895	1286.6367	1382.6777	1433.0764	1470.5701	1620.0097	1798.8064	2360.7401	3151.985	3161.043	3169.6952	3253.2568	3596.7627	3729.5052
NC(=O)C1CC1C#N	NC(=O)[C@H]1C[C@H]1C#N	
InChI=1S/C5H6N2O/c6-2-3-1-4(3)5(7)8/h3-4H,1H2,(H2,7,8)	InChI=1S/C5H6N2O/c6-2-3-1-4(3)5(7)8/h3-4H,1H2,(H2,7,8)/t3-,4-/m0/s1
