20
gdb 101624	3.5576	0.69866	0.6725	3.7336	76.33	-0.2765	0.0114	0.2878	1702.9867	0.168413	-440.289881	-440.279045	-440.278101	-440.326534	38.115	
C	 0.0994404124	 1.57764389	 0.0155426544	-0.404907
C	 0.0165017952	 0.0460037141	 0.0448077574	 0.038202
C	 0.7480842735	-0.517082023	 1.2658092352	-0.086224
O	 2.1143546724	-0.146361306	 1.1738829864	-0.420974
C	-1.4293555285	-0.4755040599	 0.0289587967	-0.224418
C	-2.1852619126	-0.1470153252	-1.2722658932	-0.033636
O	-1.5357141732	-0.6254901342	-2.4357525129	-0.403241
C	-3.5728719415	-0.6528346199	-1.1957371915	 0.260936
N	-4.6440729442	-1.0817082355	-1.1314858457	-0.316329
H	 1.1384910484	 1.8939937445	 0.1257800443	 0.14238
H	-0.2782833581	 1.9911634412	-0.9241414384	 0.119398
H	-0.4787394735	 2.0184736087	 0.8372686838	 0.108285
H	 0.5284465273	-0.3460834365	-0.842040782	 0.098839
H	 0.2882276383	-0.1213818784	 2.1871992705	 0.085628
H	 0.6376143664	-1.6134545669	 1.2892738518	 0.083522
H	 2.559268907	-0.4240669916	 1.9794843725	 0.289594
H	-1.4388442849	-1.5660720579	 0.1599997102	 0.103809
H	-1.9974256247	-0.0583999435	 0.8703518217	 0.119462
H	-2.2386844649	 0.9384534729	-1.4032474362	 0.144714
H	-1.5015755946	-1.5882859429	-2.3889981849	 0.294961
42.9735	73.6536	104.8718	132.8623	195.4981	233.082	241.7378	250.8586	277.1295	326.0433	345.0003	406.0907	422.0896	511.4651	585.4905	595.7035	820.4083	865.5175	917.8268	930.599	954.7481	991.9855	1074.097	1089.9297	1116.6471	1123.635	1170.4814	1216.2228	1240.8258	1273.6472	1291.8664	1309.6898	1338.5114	1385.058	1387.8948	1408.0346	1420.831	1459.9804	1478.6856	1494.0188	1510.3862	1521.8345	2354.0154	2954.9095	2984.1466	3016.0506	3029.0705	3043.8236	3060.3739	3078.1875	3098.8238	3133.5614	3797.0046	3836.8868
CC(CO)CC(O)C#N	C[C@@H](CO)C[C@@H](O)C#N	
InChI=1S/C6H11NO2/c1-5(4-8)2-6(9)3-7/h5-6,8-9H,2,4H2,1H3	InChI=1S/C6H11NO2/c1-5(4-8)2-6(9)3-7/h5-6,8-9H,2,4H2,1H3/t5-,6-/m1/s1
