19
gdb 127061	5.47055	0.73464	0.67387	1.3954	79.07	-0.2399	0.0253	0.2652	1682.5105	0.160055	-419.22169	-419.212586	-419.211642	-419.257165	32.284	
C	 0.0113746848	 1.4684756032	 0.2801027844	-0.385069
C	-0.023798036	-0.0190417923	-0.026804913	-0.017854
O	-1.3492157618	-0.4801364068	 0.1340023759	-0.246949
C	-1.4908258074	-1.8593976616	-0.1417043281	-0.170188
C	-2.9335438849	-2.232942707	-0.0161907233	 0.334002
N	-3.2876640884	-3.3800424385	 0.5592776939	-0.294699
N	-4.6311903317	-3.4001917219	 0.4661654267	-0.182679
C	-5.1390068172	-2.2985086739	-0.1386525298	-0.019697
C	-4.0607581188	-1.510058594	-0.4725098952	-0.263943
H	 1.0271633147	 1.8583854947	 0.1648562635	 0.113164
H	-0.6501019129	 2.0156236539	-0.3977390586	 0.124288
H	-0.3191261599	 1.6558958482	 1.3056212644	 0.127879
H	 0.3240211303	-0.2112711772	-1.0567742583	 0.083009
H	 0.6552499464	-0.5692995562	 0.6467394315	 0.08595
H	-1.1245620788	-2.0738817223	-1.1618044334	 0.093532
H	-0.8947134582	-2.4736259599	 0.5504232868	 0.105627
H	-5.1334009856	-4.1828017796	 0.8484534424	 0.273929
H	-6.2006604876	-2.1655866468	-0.2754475593	 0.130627
H	-4.0723297569	-0.5492484317	-0.9586545507	 0.109072
31.0637	76.9201	97.7619	116.6363	244.6667	259.6025	314.8949	351.2228	482.9876	501.613	657.3597	697.8407	754.3105	775.7664	821.4402	849.3048	907.9614	948.0503	989.8823	1030.4353	1040.2445	1069.1725	1106.5432	1141.204	1162.8628	1188.4003	1206.5366	1249.6209	1295.463	1298.4283	1374.5044	1400.4918	1412.8859	1443.2585	1481.7344	1483.3995	1498.4327	1499.2989	1508.3671	1534.3205	1579.5845	2938.1915	2951.519	2973.4259	3002.1189	3044.0243	3118.0929	3120.7791	3258.2913	3285.1535	3679.7511
CCOCC1=NNC=C1	CCOCc1n[nH]cc1	
InChI=1S/C6H10N2O/c1-2-9-5-6-3-4-7-8-6/h3-4H,2,5H2,1H3,(H,7,8)	InChI=1S/C6H10N2O/c1-2-9-5-6-3-4-7-8-6/h3-4H,2,5H2,1H3,(H,7,8)
