16
gdb 54300	2.42404	1.62093	1.0909	1.9044	66.06	-0.2589	0.0032	0.2621	1078.2638	0.125521	-471.25895	-471.25037	-471.249426	-471.292202	32.387	
N	 0.6463130437	 0.4392493512	-1.0560810842	-0.543681
C	 0.1498158535	-0.109033666	 0.0671353287	 0.360613
O	 0.7624043121	-0.230700438	 1.1189254186	-0.395453
C	-1.2799224544	-0.6271825604	-0.0223719315	 0.097789
C	-1.4392575964	-2.0421627866	 0.4657296099	-0.23374
N	-1.9012107605	-0.9267553153	 1.2769806832	-0.358299
C	-2.2140869635	-0.1226807953	-1.1003217808	 0.35963
N	-3.5155030708	-0.1255799289	-0.7394764465	-0.522186
O	-1.8195539392	 0.2256593104	-2.2080813707	-0.397087
H	 1.5856143488	 0.8003077636	-1.0395092917	 0.260282
H	 0.0473768182	 0.5117551405	-1.8718647816	 0.288726
H	-2.2175747221	-2.6598472752	 0.027538287	 0.131752
H	-0.5284835151	-2.5535035089	 0.7622179185	 0.145566
H	-1.1907206363	-0.7159776912	 1.9807573138	 0.258335
H	-3.7497023793	-0.2975805793	 0.2265498747	 0.282359
H	-4.1979030487	 0.2289242292	-1.3883691875	 0.265394
81.3798	84.7819	241.6986	267.8493	273.274	331.5102	392.1678	403.8648	411.9425	440.8409	536.1739	611.1432	661.9428	690.2744	707.9445	761.0412	788.3903	898.8541	911.8587	949.3756	1016.0316	1084.7266	1104.643	1135.3724	1146.609	1248.4074	1292.0744	1329.5907	1390.2031	1425.5762	1490.4817	1588.3261	1597.0953	1756.2292	1785.4745	3117.2409	3215.2217	3448.729	3485.8505	3575.3409	3694.8073	3723.0317
NC(=O)C1(CN1)C(N)=O	NC(=O)C1(CN1)C(=O)N	
InChI=1S/C4H7N3O2/c5-2(8)4(1-7-4)3(6)9/h7H,1H2,(H2,5,8)(H2,6,9)	InChI=1S/C4H7N3O2/c5-2(8)4(1-7-4)3(6)9/h7H,1H2,(H2,5,8)(H2,6,9)
