18
gdb 76725	3.53968	0.87183	0.79952	5.302	69.92	-0.2409	0.0381	0.279	1435.1897	0.147051	-476.215001	-476.205623	-476.204679	-476.250168	33.94	
O	-0.092212521	 0.9940143428	-0.5094418017	-0.431775
C	-0.2994069222	-0.3454632765	-0.1543945597	 0.071512
C	-0.4662810737	-0.6470918884	 1.314229616	 0.017921
O	-0.4263579593	 0.4725947631	 2.1661082922	-0.419979
C	-1.6599823264	-0.743808382	 0.3920382223	-0.094259
C	-2.7704703862	 0.2936534612	 0.4312777019	-0.203241
N	-3.0685480197	 0.8116062539	-0.8958015472	-0.265331
C	-4.2681883579	 0.6510830361	-1.5066248117	 0.1544
O	-5.2406703188	 0.1063952434	-1.0235648398	-0.332259
H	-0.042805131	 1.4861563832	 0.3231805591	 0.288111
H	 0.2419418691	-1.0295367192	-0.80024094	 0.10559
H	-0.0628351508	-1.5618977833	 1.7414917828	 0.101969
H	 0.4604991203	 0.5284629202	 2.5382216076	 0.301365
H	-1.9831630769	-1.7542507595	 0.1595267829	 0.104501
H	-3.6946697826	-0.1471363054	 0.8086801789	 0.149927
H	-2.4995480955	 1.1153772614	 1.099593599	 0.124737
H	-2.3038932055	 1.2402423213	-1.3951371422	 0.257828
H	-4.2684464219	 1.0892580277	-2.5250465606	 0.068984
42.8321	65.7843	138.3369	179.3926	239.8061	252.8648	292.0919	327.2799	366.5012	496.8054	552.6586	619.7239	637.4844	667.2257	741.2471	771.3694	805.6825	913.7398	954.4355	1013.0676	1034.0832	1059.7611	1064.8335	1118.5817	1130.8857	1150.6302	1215.4305	1227.8313	1248.5558	1287.8147	1320.4136	1348.2805	1401.4167	1406.1322	1429.2204	1467.1512	1498.3988	1530.4986	1800.878	2929.2878	3070.2029	3127.819	3129.8913	3151.5068	3163.373	3624.9936	3722.5071	3809.0732
OC1C(O)C1CNC=O	O[C@H]1[C@@H](O)[C@H]1CNC=O	
InChI=1S/C5H9NO3/c7-2-6-1-3-4(8)5(3)9/h2-5,8-9H,1H2,(H,6,7)	InChI=1S/C5H9NO3/c7-2-6-1-3-4(8)5(3)9/h2-5,8-9H,1H2,(H,6,7)/t3-,4+,5-
