21
gdb 90705	3.21377	1.28675	1.04475	1.7029	83.36	-0.24	0.0117	0.2517	1208.6129	0.183566	-387.090889	-387.082405	-387.081461	-387.124142	33.294	
C	-0.3427155856	 1.4103250889	-0.056842386	-0.40433
C	 0.0716427187	-0.0560466357	-0.0950093517	 0.0308
C	 1.386440455	-0.3454801654	-0.8833402878	-0.246442
C	 2.1452033498	-0.6219958808	 0.4489710221	-0.032364
C	 0.7781560061	-0.570224814	 1.202060034	-0.067441
C	 0.5291075691	-2.011754343	 1.556417848	-0.083996
C	 1.5667430376	-2.7987738961	 1.2720062128	-0.126118
C	 2.7324886762	-2.0421445398	 0.6666096386	 0.079741
O	 3.2846229401	-2.661921562	-0.4887798634	-0.429812
H	 0.4893252605	 2.0493062812	 0.2615886785	 0.114091
H	-0.6661400109	 1.7558063377	-1.0450010511	 0.113314
H	-1.1707840828	 1.5707827213	 0.6427022272	 0.112596
H	-0.7791970748	-0.6718575168	-0.4052776244	 0.064974
H	 1.3188078031	-1.209809753	-1.5493700161	 0.078928
H	 1.7688027205	 0.4923183157	-1.4718157262	 0.10198
H	 2.8607634621	 0.1610870924	 0.7014270173	 0.067486
H	 0.6908797815	 0.0962485375	 2.0672954284	 0.069233
H	-0.4078345412	-2.3472813125	 1.9910904265	 0.094391
H	 1.618475086	-3.8693919301	 1.4409247821	 0.096568
H	 3.5778127515	-2.0026593541	 1.3653581901	 0.089325
H	 2.5588721476	-2.8528142015	-1.0922591591	 0.277077
46.73	155.246	201.7357	249.2819	287.1219	308.0494	336.8087	393.7363	471.844	548.3446	643.9017	703.5445	770.9355	805.3776	808.486	854.0877	878.0898	913.464	922.5558	962.593	985.1668	1012.6997	1043.3262	1065.912	1092.1279	1096.7412	1102.686	1139.304	1181.2881	1197.3812	1240.4418	1253.1379	1259.3805	1267.3325	1282.6416	1306.9753	1332.0151	1362.9311	1371.6461	1409.6704	1428.3228	1480.7666	1496.1866	1497.1434	1675.3275	3020.9606	3022.4012	3037.985	3040.881	3056.8327	3088.6851	3090.9448	3093.5443	3107.938	3168.3476	3197.0744	3808.0715
CC1CC2C1C=CC2O	C[C@H]1C[C@H]2[C@@H]1C=C[C@H]2O	
InChI=1S/C8H12O/c1-5-4-7-6(5)2-3-8(7)9/h2-3,5-9H,4H2,1H3	InChI=1S/C8H12O/c1-5-4-7-6(5)2-3-8(7)9/h2-3,5-9H,4H2,1H3/t5-,6+,7-,8+/m0/s1
