20
gdb 96892	2.63107	1.28686	1.05321	2.4851	83.77	-0.2431	0.0271	0.2702	1255.8261	0.168824	-403.130754	-403.121113	-403.120169	-403.165157	35.24	
C	-0.1333402328	 1.3602758576	 0.0579669845	-0.339918
N	-0.0654021219	-0.0925814219	 0.1250608001	-0.349591
C	-1.117817914	-0.75620237	 0.0060027182	 0.480172
O	-2.4424057822	-0.3234093514	-0.175277759	-0.315873
C	-2.9109606854	-1.6952655897	-0.0083913894	 0.435542
C	-4.1233795124	-1.890339524	 0.8375457961	-0.488407
C	-2.3888679978	-2.5350472171	-1.1257893105	-0.068318
C	-2.1569592102	-2.0553735775	-2.5400927145	-0.420331
C	-1.47720977	-2.1988594242	 0.0702429065	-0.30967
H	 0.4350238729	 1.7061978457	-0.8129310801	 0.126643
H	-1.1524370654	 1.7588570801	-0.0080561307	 0.12578
H	 0.3547343349	 1.7815520306	 0.9435132728	 0.125286
H	-5.0022707794	-1.4419225297	 0.3612552524	 0.137247
H	-4.3211012955	-2.9571525154	 0.9749898934	 0.129415
H	-3.9936235263	-1.4272110411	 1.8202572139	 0.136575
H	-2.7345446839	-3.5655790081	-1.0491529547	 0.096302
H	-1.898409711	-0.9947821423	-2.5593095264	 0.141296
H	-1.3458557354	-2.6165934515	-3.0143029626	 0.124751
H	-3.0600129778	-2.1922695924	-3.1445466622	 0.11939
H	-1.0074566063	-2.9498015778	 0.6893469922	 0.113708
89.4393	94.1074	171.1762	185.1083	199.4416	204.6671	228.16	277.6832	333.423	441.4686	491.166	560.4002	642.2843	705.5393	718.2108	789.138	879.5377	892.3132	923.5102	957.6517	1010.543	1027.7958	1054.8612	1085.0568	1120.8968	1129.3503	1139.1181	1140.6404	1171.0508	1227.7063	1271.3081	1328.215	1410.8674	1414.0725	1439.5176	1474.6571	1478.0109	1490.8156	1492.8147	1495.5496	1498.4794	1510.0532	1850.7063	3016.4567	3036.2595	3040.5934	3080.4434	3087.4076	3100.0892	3101.664	3117.153	3120.7652	3137.6285	3220.1861
CN=C1OC2(C)C(C)C12	CN=C1O[C@@]2(C)[C@@H](C)[C@@H]12	
InChI=1S/C7H11NO/c1-4-5-6(8-3)9-7(4,5)2/h4-5H,1-3H3	InChI=1S/C7H11NO/c1-4-5-6(8-3)9-7(4,5)2/h4-5H,1-3H3/t4-,5-,7-/m0/s1
