19
gdb 70596	2.13571	1.86751	1.44602	2.5313	69.96	-0.2165	0.0542	0.2706	999.0579	0.157645	-460.14411	-460.135331	-460.134387	-460.1767	34.628	
C	 0.0092834826	 1.5489055878	-0.039485434	-0.460547
C	 0.0444973856	 0.0277289028	 0.0481568957	 0.277091
O	-1.2813260766	-0.5006415619	 0.22391142	-0.488504
C	 0.7574550524	-0.6657875563	-1.1336460227	-0.120371
O	 1.3165552134	-1.8844670136	-0.6463650599	-0.256701
C	 1.518060516	-1.7438285324	 0.7358646001	 0.02242
C	 2.2971699442	-0.535074755	 1.2285795697	-0.388504
C	 0.7951177732	-0.532491974	 1.257506731	 0.39908
O	 0.160679777	-0.4319413301	 2.4864556732	-0.481368
H	 1.0178622881	 1.9642142569	-0.114274702	 0.128728
H	-0.5570120986	 1.885230597	-0.9171946583	 0.108798
H	-0.4641203825	 1.956450035	 0.8581009449	 0.137316
H	-1.8884356404	 0.0155048557	-0.31500048	 0.284676
H	 0.0565003055	-0.9079260619	-1.9373567625	 0.107286
H	 1.5460878219	-0.0187503938	-1.5439202426	 0.09247
H	 1.5778140217	-2.6910837838	 1.2567228114	 0.108595
H	 2.7645769198	-0.6460441621	 2.2011220579	 0.12769
H	 2.8445246908	 0.0895011236	 0.5300010554	 0.113155
H	-0.759229764	-0.6781646938	 2.3178764528	 0.288689
125.3751	204.5035	212.4862	226.2775	252.2002	297.3271	351.3544	372.6511	431.9437	454.6971	479.4864	498.8451	609.8146	634.022	724.1586	820.7379	867.5027	881.9146	937.3721	968.6305	974.0512	996.7015	1007.0621	1031.156	1074.1524	1096.3324	1147.1287	1175.4279	1200.8772	1224.5738	1244.2285	1282.2802	1345.0592	1357.0832	1403.5902	1416.7598	1424.6912	1487.3549	1488.2167	1496.507	1504.9055	2998.2618	3025.2461	3086.722	3097.0057	3123.9297	3129.6235	3198.5809	3220.9744	3760.3086	3827.9068
CC1(O)COC2CC12O	C[C@@]1(O)CO[C@H]2C[C@@]12O	
InChI=1S/C6H10O3/c1-5(7)3-9-4-2-6(4,5)8/h4,7-8H,2-3H2,1H3	InChI=1S/C6H10O3/c1-5(7)3-9-4-2-6(4,5)8/h4,7-8H,2-3H2,1H3/t4-,5+,6-/m0/s1
