16
gdb 45841	2.36653	1.73882	1.06241	4.7626	75.08	-0.2209	-0.0012	0.2197	1083.8767	0.127318	-434.11914	-434.1114	-434.110456	-434.151639	29.604	
N	-0.1264135988	 1.1510211228	-0.7629589974	-0.547767
C	 0.0374835484	 0.1036566451	-0.0474041381	 0.410394
N	 1.2399522177	-0.3070894815	 0.516352654	-0.348155
C	 1.5760531958	-1.5561916487	 1.0539583908	 0.008266
C	 0.7822239716	-2.2646865405	 1.8549275119	-0.108502
C	-0.5534143791	-1.7496397246	 2.3143635452	-0.380937
C	-1.5242856385	-1.5254536268	 1.1666440148	 0.400812
O	-2.6381551141	-1.9964340263	 1.1311100756	-0.341556
N	-1.0795722204	-0.7213964736	 0.1232760828	-0.32466
H	 0.7475395212	 1.6499251649	-0.9163451176	 0.206435
H	 2.0145630543	 0.2729278708	 0.2357787077	 0.251651
H	 2.5647828729	-1.9077030337	 0.7753706281	 0.114907
H	 1.1033755754	-3.2479419115	 2.175473875	 0.111034
H	-1.0401003443	-2.4347925691	 3.0074696109	 0.13843
H	-0.420534415	-0.7852457815	 2.8267142519	 0.138267
H	-1.8238861171	-0.4620878758	-0.5117368557	 0.271381
92.2228	122.6144	148.5326	320.9944	363.6041	423.04	473.7534	506.1264	548.7269	578.3422	646.0279	677.2121	734.769	742.2138	781.8322	825.5926	884.7155	935.8821	947.2965	978.7866	1007.4632	1115.9886	1161.658	1195.8599	1268.6162	1316.2811	1322.7391	1409.1904	1429.5796	1450.6887	1463.9452	1485.2748	1719.4249	1735.2606	1807.901	3007.0231	3140.4468	3172.6052	3212.7266	3504.6371	3593.7896	3632.617
N=C1NC=CCC(=O)N1	[NH][C]1NC=CCC(=O)N1	
InChI=1S/C5H7N3O/c6-5-7-3-1-2-4(9)8-5/h1,3H,2H2,(H3,6,7,8,9)	InChI=1S/C5H7N3O/c6-5-7-3-1-2-4(9)8-5/h1,3H,2H2,(H3,6,7,8,9)
