18
gdb 62780	3.01056	1.31768	1.12845	4.3883	76.18	-0.2574	-0.0021	0.2553	1132.0242	0.146304	-401.917645	-401.908988	-401.908044	-401.950617	32.719	
C	-0.0566936943	 1.5477162489	-0.0822246186	-0.468806
C	 0.0219192699	 0.0377001114	 0.0118341384	 0.290498
C	-1.1988433669	-0.6934297562	-0.5268384924	-0.45647
C	 1.3059379831	-0.704781678	-0.1955885129	 0.052261
O	 2.4435249995	 0.0424988174	 0.2718099215	-0.286552
C	 1.9675297162	-0.0681914082	 1.6346716677	-0.033807
C	 1.94689277	 1.1960305778	 2.3789620009	 0.284632
N	 1.9371747381	 2.1679078903	 3.0040209191	-0.323249
C	 0.6595963887	-0.7147321732	 1.1782401895	-0.185657
H	 0.8982793354	 2.0231846788	 0.1434202492	 0.150213
H	-0.340943571	 1.839784753	-1.0992870234	 0.116396
H	-0.8105475807	 1.9472790807	 0.6037693567	 0.126707
H	-1.3811575557	-0.4180549067	-1.5707991109	 0.126562
H	-1.078374493	-1.7809008481	-0.4812535953	 0.117171
H	-2.0922316798	-0.4324195772	 0.0504364052	 0.129551
H	 1.4941509592	-1.4838939804	-0.9254323897	 0.113243
H	 2.5958928516	-0.7775532421	 2.1873867972	 0.135801
H	 0.1529824098	-1.5012089982	 1.7207943879	 0.111506
107.9434	133.6529	194.6739	229.7309	260.6908	262.729	320.65	353.8238	423.9596	506.6855	544.2225	599.7246	662.4313	759.1686	831.7868	874.2195	929.9374	963.0917	973.2356	997.736	1010.8748	1034.2625	1044.9454	1048.2017	1108.895	1159.3065	1200.7507	1241.7657	1264.7209	1293.8318	1359.5851	1402.5265	1413.7256	1430.0112	1482.3974	1489.7624	1504.2174	1514.0696	2356.3992	3029.6785	3033.2028	3038.7399	3095.806	3098.3199	3101.2513	3145.6567	3180.5031	3206.6448
CC1(C)C2OC(C#N)C12	CC1(C)[C@H]2O[C@@H](C#N)[C@@H]12	
InChI=1S/C7H9NO/c1-7(2)5-4(3-8)9-6(5)7/h4-6H,1-2H3	InChI=1S/C7H9NO/c1-7(2)5-4(3-8)9-6(5)7/h4-6H,1-2H3/t4-,5+,6-/m0/s1
