17
gdb 50319	3.21959	1.31595	1.1559	2.9808	74.52	-0.2291	-0.0334	0.1957	1089.1781	0.135579	-421.814129	-421.806278	-421.805334	-421.847232	29.574	
O	-0.6545877666	 0.843495565	 0.3200831218	-0.241064
C	 0.0505776875	 1.6264414072	-0.2560791887	 0.136396
C	 1.5753079075	 1.7030717982	-0.0697824378	-0.011062
O	 2.1582666689	 2.3203551314	-1.2062707298	-0.282357
C	 2.5933001379	 3.6506323298	-1.1380096391	 0.129794
C	 1.7087703928	 4.8002848775	-0.7539582441	-0.326653
C	 2.8339499947	 4.3244031551	 0.1802328024	-0.113099
C	 2.4553118264	 3.5365437845	 1.3713494877	-0.074876
C	 1.8787379249	 2.3405805566	 1.2586871624	-0.102437
H	-0.3434557247	 2.3732744	-0.9828509745	 0.08822
H	 1.9333867877	 0.6643825728	-0.0611631882	 0.124759
H	 3.3080759307	 3.8169828173	-1.9363181108	 0.110318
H	 1.8368321086	 5.7393626971	-1.2823376081	 0.119991
H	 0.696860184	 4.5973347822	-0.4215756902	 0.122654
H	 3.7009447501	 4.9690685909	 0.2793062089	 0.097231
H	 2.6581131396	 3.9569663631	 2.3519129252	 0.10323
H	 1.57260879	 1.7635976512	 2.1244401128	 0.118955
50.2339	93.2401	172.7659	277.6819	312.9021	389.8978	449.3655	519.4876	574.9965	598.8143	726.7694	757.1644	807.9397	826.3573	877.2824	885.5347	974.7792	986.8724	1008.0794	1035.0622	1038.9211	1048.6114	1090.319	1109.1338	1125.5969	1183.5953	1193.4303	1252.6159	1262.9308	1332.5478	1360.8407	1389.8355	1411.0654	1417.1449	1475.3627	1710.6887	1835.8151	2876.7555	3017.0945	3131.0258	3156.6937	3169.2444	3174.1357	3198.5253	3225.1036
O=CC1OC2CC2C=C1	O=C[C@H]1O[C@H]2C[C@H]2C=C1	
InChI=1S/C7H8O2/c8-4-6-2-1-5-3-7(5)9-6/h1-2,4-7H,3H2	InChI=1S/C7H8O2/c8-4-6-2-1-5-3-7(5)9-6/h1-2,4-7H,3H2/t5-,6+,7+/m1/s1
