18
gdb 133843	3.02698	2.07351	1.90182	0.1098	82.67	-0.1982	-0.0488	0.1494	835.1474	0.147975	-364.687295	-364.68053	-364.679586	-364.717706	28.762	
C	 4.0938534548	-0.4674216542	-4.301781231	-0.510925
C	 4.8472277118	-0.118405327	-3.0467895481	 0.3631
C	 4.2742251818	 0.8109811767	-1.9765192684	-0.04537
N	 5.9797892009	 0.7759043617	-3.1738385745	-0.287285
C	 6.8021765625	 0.4108197996	-2.0408271659	-0.016663
C	 6.726360343	-1.1154532589	-1.8805629848	-0.22844
C	 5.2023112744	-1.1632066104	-1.9165788945	-0.130047
C	 4.7122999065	-0.0651319107	-0.9003316248	-0.138889
C	 5.7491546415	 0.9103788907	-1.0125428259	-0.025868
H	 3.914187005	 0.430879732	-4.8998063299	 0.133075
H	 3.1325691147	-0.9322434173	-4.0642008947	 0.1233
H	 4.6754625833	-1.167540083	-4.9096412078	 0.128745
H	 3.7744443011	 1.7610435093	-2.0922322166	 0.137507
H	 7.7654855303	 0.9151712018	-2.0225446203	 0.079019
H	 7.1568314047	-1.4744746413	-0.9410910367	 0.106744
H	 7.1892170807	-1.6391778041	-2.724087592	 0.10162
H	 4.6945292749	-2.1242828252	-1.9135589706	 0.074577
H	 5.7839582679	 1.9110491902	-0.6060425334	 0.135802
215.5639	226.8379	268.6015	381.2916	421.5355	469.7021	510.6872	595.7948	678.4957	691.7768	756.444	795.0374	809.1943	838.7958	870.0724	889.8953	928.5653	929.2332	956.1596	964.4774	988.0163	1038.7632	1053.5307	1103.4217	1124.4387	1147.0554	1164.4522	1177.3847	1192.0779	1205.5804	1212.8998	1276.9183	1310.0061	1340.2965	1351.5598	1411.5659	1471.2797	1486.7448	1490.9813	3039.244	3048.3348	3105.2299	3110.4579	3116.7215	3147.5818	3150.9356	3240.2969	3249.3914
CC12C3N1C1CC2C3=C1	C[C@]12[C@H]3[C]4[C@@H]2C[C@@H]([N]1)[C@@H]34	
InChI=1S/C8H9N/c1-8-6-3-4-2-5(6)7(8)9(4)8/h2,4,6-7H,3H2,1H3	InChI=1S/C8H9N/c1-8-3-2-4(9-8)6-5(3)7(6)8/h3-4,6-7H,2H2,1H3/t3-,4+,6+,7-,8-/m0/s1
