21
gdb 86009	2.73041	1.13423	1.07343	2.7741	84.65	-0.2379	-0.017	0.2209	1276.8719	0.180953	-387.119816	-387.110272	-387.109327	-387.154608	35.475	
C	 0.012344993	 1.6191897175	 0.0063248558	-0.398014
C	 0.019668684	 0.0861508674	 0.0380232073	-0.012115
C	 0.7532414934	-0.557880341	-1.1716136687	-0.288491
C	 1.5259632265	-1.7925983829	-0.6030283092	 0.164441
C	 0.7918614441	-3.1206043443	-0.9058793862	-0.440236
C	 2.905377863	-1.889475584	-1.2337656889	 0.128864
O	 3.9498007248	-1.9133131554	-0.6359780608	-0.253819
C	 1.571306517	-1.4972152455	 0.8803110955	-0.098049
C	 0.7532182922	-0.5062947799	 1.2214951922	-0.082403
H	 1.0345425973	 2.0129279831	 0.0009505501	 0.120635
H	-0.4997884492	 1.9928033736	-0.8867185951	 0.11437
H	-0.5018966846	 2.0303434812	 0.881445621	 0.114415
H	-1.0276511651	-0.2511796607	 0.0601734476	 0.080935
H	 0.0731200001	-0.8335033894	-1.9822454199	 0.100271
H	 1.4642833116	 0.16892419	-1.5831833608	 0.10534
H	 0.7978476462	-3.3402670175	-1.9797927419	 0.117834
H	 1.2628447462	-3.960027307	-0.384693299	 0.127907
H	-0.2497672303	-3.0579646305	-0.5778722137	 0.127787
H	 2.8840801975	-1.9498130466	-2.3492543441	 0.069246
H	 2.1927432699	-2.0746239364	 1.5536944693	 0.107241
H	 0.5927979625	-0.1492399716	 2.2339036894	 0.093842
43.9418	70.4407	169.5359	228.7406	239.1839	248.7494	278.4669	306.8852	363.5058	378.5464	496.0096	534.9183	684.0999	697.2321	787.4405	812.5186	847.5763	881.2821	917.6769	929.7356	967.5191	977.8333	1001.2789	1029.6223	1077.2641	1104.9709	1131.2906	1162.8663	1193.843	1233.1518	1255.0877	1303.1033	1320.0272	1340.7649	1381.0503	1397.9371	1410.0006	1429.3416	1487.3446	1492.6536	1496.2996	1498.002	1500.1283	1691.5358	1829.2685	2836.2838	2982.8012	3027.0574	3027.6935	3032.4608	3089.0751	3097.4598	3098.5682	3100.8455	3112.1728	3179.1688	3217.0148
CC1CC(C)(C=O)C=C1	C[C@H]1C[C@@](C)(C=O)C=C1	
InChI=1S/C8H12O/c1-7-3-4-8(2,5-7)6-9/h3-4,6-7H,5H2,1-2H3	InChI=1S/C8H12O/c1-7-3-4-8(2,5-7)6-9/h3-4,6-7H,5H2,1-2H3/t7-,8+/m1/s1
