14
gdb 48371	2.71998	1.2751	1.05252	2.4097	75.56	-0.2721	-0.0588	0.2133	1130.6457	0.098217	-399.521432	-399.512695	-399.511751	-399.554948	31.361	
O	-0.2880168983	 0.371553607	-0.7058026058	-0.243068
C	 0.0805183402	 1.0994654144	 0.1775817689	 0.099501
C	 1.3288963987	 1.9336292994	 0.0855551536	 0.056726
C	 2.3339746947	 1.5711388777	-0.9976842943	-0.304361
C	 1.52950819	 2.8122399635	-1.2052427455	-0.241352
C	 0.498627209	 2.9031698568	-2.191716982	 0.34605
C	-0.3514986785	 3.0198040311	-3.0326822289	-0.414427
C	 1.7920558733	 2.5065147543	 1.318342256	 0.22634
N	 2.1473977831	 2.9599016036	 2.3217112461	-0.326379
H	-0.4809191984	 1.214254262	 1.1256335095	 0.112715
H	 3.3834403633	 1.6762180408	-0.752517313	 0.153646
H	 2.0512785254	 0.7003426694	-1.5776352182	 0.168788
H	 2.0345419508	 3.7469799865	-0.9802906332	 0.153367
H	-1.1057067934	 3.1066379134	-3.7756668731	 0.212454
100.8526	118.7459	136.7551	167.9485	222.9804	273.9103	297.2967	465.5612	510.7914	533.4531	551.2286	578.8242	633.0591	671.6086	737.1778	751.5394	855.732	936.3227	985.7148	1039.942	1076.4758	1111.3986	1140.7027	1240.8531	1274.3299	1382.6029	1427.0411	1463.725	1819.0905	2244.882	2350.8505	2942.1162	3151.8185	3159.5638	3255.2024	3502.2952
O=CC1(CC1C#C)C#N	O=C[C@]1(C[C@H]1C#C)C#N	
InChI=1S/C7H5NO/c1-2-6-3-7(6,4-8)5-9/h1,5-6H,3H2	InChI=1S/C7H5NO/c1-2-6-3-7(6,4-8)5-9/h1,5-6H,3H2/t6-,7+/m1/s1
