24
gdb 17621	3.00116	1.43215	1.05113	0.1181	85.09	-0.2696	0.0903	0.3599	1224.1731	0.222236	-314.268593	-314.258771	-314.257827	-314.302859	37.192	
C	-0.072132471	 1.5404778999	 0.0339259123	-0.399525
C	-0.0349905781	 0.0059695344	-0.0495356121	 0.050954
C	-1.4711066115	-0.5391038496	-0.0791756484	-0.390245
C	 0.8212001217	-0.4998219765	-1.2410908894	 0.028146
C	 2.2620672436	 0.0388621754	-1.185972598	-0.401134
C	 0.8526029368	-2.0205558789	-1.3224758306	 0.039068
C	-0.1475315273	-2.8033503576	-2.1358951018	-0.270165
C	 1.2856140843	-2.7070350485	-2.5944002935	-0.282402
H	 0.9152851486	 1.9758649393	 0.2056093525	 0.113415
H	-0.4735325174	 1.9729447594	-0.8910630492	 0.108682
H	-0.7200439442	 1.8646758437	 0.8550250253	 0.107425
H	 0.444358508	-0.3666637594	 0.8689326607	 0.065626
H	-1.9943269088	-0.2165696302	-0.9878082099	 0.105639
H	-1.4987892925	-1.6301530969	-0.0492700232	 0.120183
H	-2.040919762	-0.1634210483	 0.7773675826	 0.103698
H	 0.3551683528	-0.1272955368	-2.1670099842	 0.059743
H	 2.3027532346	 1.1273967741	-1.2737263328	 0.111894
H	 2.7457955334	-0.2389303003	-0.241450844	 0.108218
H	 2.8604693735	-0.3827237111	-1.9987983784	 0.112861
H	 1.1851387419	-2.4988157704	-0.4023655872	 0.075382
H	-0.5055654209	-3.7516939161	-1.7492400947	 0.107385
H	-0.8929050803	-2.2457249963	-2.6933939935	 0.110023
H	 1.495871355	-2.0837684189	-3.4581358871	 0.107777
H	 1.9130613299	-3.5887250105	-2.5237444153	 0.107351
56.8718	102.5264	172.4973	206.6141	212.3434	237.2671	272.6098	312.0852	360.3259	378.7302	429.9588	458.7306	502.4073	754.6535	801.201	821.5663	830.5822	919.7408	927.2376	932.9676	961.6421	966.9898	978.2259	1024.0103	1057.649	1068.666	1081.0828	1136.8049	1142.3807	1181.3959	1193.8125	1199.3869	1217.5633	1227.4501	1286.2399	1319.7123	1348.1109	1371.0308	1399.2526	1405.2641	1415.7233	1422.8245	1469.0581	1487.4956	1490.8127	1497.536	1501.7498	1506.4279	1507.8984	1520.0016	2975.299	2989.5842	3025.1913	3029.9077	3031.2191	3084.8162	3091.824	3097.1271	3110.0008	3115.6172	3120.9202	3125.1367	3126.1913	3130.9087	3202.096	3217.4976
CC(C)C(C)C1CC1	CC(C)[C@@H](C)C1CC1	
InChI=1S/C8H16/c1-6(2)7(3)8-4-5-8/h6-8H,4-5H2,1-3H3	InChI=1S/C8H16/c1-6(2)7(3)8-4-5-8/h6-8H,4-5H2,1-3H3/t7-/m1/s1
