17
gdb 45454	2.61331	1.66284	1.1902	4.679	71.87	-0.2286	-0.0885	0.1402	1041.4736	0.136489	-421.852186	-421.844597	-421.843653	-421.884886	28.89	
O	-0.0224368075	-0.0483104491	-0.2476837613	-0.274854
C	-0.0734219742	 1.1311539025	-0.0297702135	 0.305533
C	-1.3076349034	 1.99850461	 0.181856892	-0.354794
C	-0.7925152256	 3.3118650431	 0.7868932566	-0.023324
C	-0.4551291829	 3.3143913131	 2.3099013125	-0.232334
C	 0.9937782961	 3.770917458	 1.9864361984	-0.221041
C	 0.737298347	 3.4413919008	 0.4828669839	-0.151008
C	 1.1892081905	 2.0524754561	 0.0779924162	 0.31175
O	 2.3108213652	 1.668652111	-0.1209811363	-0.286517
H	-1.7578594593	 2.1676614341	-0.8061055817	 0.139627
H	-2.0569353078	 1.4832577888	 0.7893116112	 0.137954
H	-1.3860848264	 4.1757017156	 0.4859222092	 0.082156
H	-1.0511827384	 3.9794579749	 2.937599358	 0.111301
H	-0.4949399608	 2.3107810697	 2.7457054237	 0.111472
H	 1.1432586245	 4.8420205471	 2.1376395103	 0.115742
H	 1.8153161931	 3.2336339884	 2.4649693081	 0.122634
H	 1.0813141899	 4.179993986	-0.2450871172	 0.105703
57.1946	97.0519	208.2168	314.4221	327.9299	388.7978	500.3734	568.4395	597.6836	671.687	678.6025	722.1463	782.3683	869.2093	880.406	924.663	956.4217	964.6094	984.838	1040.9443	1067.6921	1099.4729	1138.4858	1177.7133	1179.91	1223.5983	1239.5087	1257.5651	1271.0028	1290.7845	1310.6372	1343.4565	1437.8879	1483.9351	1499.1737	1834.9218	1854.0535	3025.6387	3053.4585	3070.2524	3082.5009	3095.1096	3097.5031	3112.5106	3128.7742
O=C1CC2CCC2C1=O	O=C1C[C@H]2CC[C@H]2C1=O	
InChI=1S/C7H8O2/c8-6-3-4-1-2-5(4)7(6)9/h4-5H,1-3H2	InChI=1S/C7H8O2/c8-6-3-4-1-2-5(4)7(6)9/h4-5H,1-3H2/t4-,5-/m1/s1
