14
gdb 24946	4.94197	1.31659	1.04638	5.2504	68.3	-0.2057	-0.0032	0.2025	1050.4791	0.103525	-436.747728	-436.741037	-436.740093	-436.778872	26.096	
O	 0.0108549908	 0.0464632113	 0.0038374085	-0.313231
C	-0.0388975316	 1.2362380938	 0.0104709288	 0.415712
C	-1.3076280867	 2.1387838111	 0.0332084653	-0.515425
C	-0.6663599357	 3.4772360774	 0.0306828424	 0.23349
C	 0.6886768437	 3.3413725863	 0.0105395143	 0.366227
O	 1.1043269393	 2.0203251021	-0.002023724	-0.245029
C	 1.3066333606	 4.6084243445	 0.0079589884	-0.322315
C	 0.2523458034	 5.5079771749	 0.0276387861	-0.063029
N	-0.9411589359	 4.8189247822	 0.0413042093	-0.372861
H	-1.9218526585	 1.8947878557	-0.8415146295	 0.153322
H	-1.8964988201	 1.8859741923	 0.9227402421	 0.153324
H	 2.3558693119	 4.8519395442	-0.0059058123	 0.114505
H	 0.2626972583	 6.5855447234	 0.0328996981	 0.127696
H	-1.8505906894	 5.2451948408	 0.0564623425	 0.267615
110.3427	180.8736	320.9499	349.6456	439.1753	544.1603	564.0802	569.8958	626.7572	682.6362	697.6347	725.5214	794.515	810.0411	851.6638	937.8839	971.1889	1036.525	1075.1819	1114.6924	1150.9589	1199.879	1223.3628	1284.8582	1369.9762	1452.1661	1464.3083	1475.4357	1544.2151	1631.4679	1905.4263	3035.7433	3066.5212	3264.734	3281.4126	3688.2913
O=C1CC2=C(O1)C=CN2	O=C1Cc2c(O1)cc[nH]2	
InChI=1S/C6H5NO2/c8-6-3-4-5(9-6)1-2-7-4/h1-2,7H,3H2	InChI=1S/C6H5NO2/c8-6-3-4-5(9-6)1-2-7-4/h1-2,7H,3H2
