19
gdb 115994	1.94408	1.57866	0.92373	2.9828	80.75	-0.2459	-0.0651	0.1808	1273.9709	0.158067	-423.049305	-423.040168	-423.039224	-423.083831	32.722	
C	-0.0244405633	 1.591994474	-0.1659343495	-0.384057
C	 0.0134813246	 0.0630283481	-0.1145053885	-0.188433
C	-1.3660166742	-0.5485013881	 0.1480107334	 0.032311
O	-2.2912257204	-0.1728333203	-0.8892891631	-0.282395
C	-2.8627497608	-1.3189354285	-1.501146767	-0.112999
C	-2.2421219969	-2.4898237878	-0.8061144927	-0.19546
C	-1.3980730205	-2.0606031393	 0.1375078153	 0.223795
C	-0.6477942191	-2.926452637	 1.0498383146	 0.071621
O	 0.095090635	-2.5277784593	 1.9200025225	-0.266984
H	 0.9692050057	 2.0014018277	-0.3705268708	 0.110636
H	-0.706045315	 1.9367487613	-0.9480583856	 0.13159
H	-0.3674354275	 2.0097344365	 0.7872850168	 0.114241
H	 0.397178762	-0.3390830347	-1.0604114447	 0.09034
H	 0.6829522323	-0.2804638058	 0.6809377005	 0.126249
H	-1.7434640307	-0.1627908161	 1.1085224298	 0.093122
H	-3.9592935455	-1.3122451355	-1.3852907179	 0.117227
H	-2.6579743366	-1.3207876639	-2.5838296564	 0.118136
H	-2.4691441924	-3.5227869258	-1.0435431849	 0.123992
H	-0.8162379667	-4.0147243455	 0.892243818	 0.077065
67.6434	103.5282	116.9129	157.1916	207.4335	228.725	282.4494	331.8114	429.9849	477.975	552.4227	705.5039	759.1294	790.3404	820.399	869.9599	918.8319	953.9157	972.979	1030.61	1041.1058	1055.9592	1090.6445	1119.0644	1140.5996	1197.0449	1215.4759	1277.9943	1290.0193	1328.3897	1371.5616	1381.503	1393.5408	1408.2075	1422.1883	1483.2021	1497.0066	1508.9112	1509.2326	1687.9519	1782.3503	2886.2857	2967.4485	2976.884	2984.4425	3032.4658	3037.2496	3085.0041	3103.4467	3122.6843	3207.8712
CCC1OCC=C1C=O	CC[C@H]1OCC=C1C=O	
InChI=1S/C7H10O2/c1-2-7-6(5-8)3-4-9-7/h3,5,7H,2,4H2,1H3	InChI=1S/C7H10O2/c1-2-7-6(5-8)3-4-9-7/h3,5,7H,2,4H2,1H3/t7-/m1/s1
