17
gdb 85839	2.86223	1.27251	1.16389	2.7452	69.18	-0.2732	0.0184	0.2916	1098.8096	0.136761	-455.137945	-455.129425	-455.128481	-455.170673	32.911	
N	-0.2752753768	 1.0470440909	 0.6895529373	-0.548882
C	 0.0490957029	-0.2329642161	 0.0552458131	 0.080381
C	 0.4602554832	-1.2819073749	 1.1349927311	-0.276398
C	-1.0391299156	-1.6329507555	 1.3180662962	 0.077941
O	-1.7091800464	-0.8656506755	 2.2991145721	-0.445507
C	-1.3007956596	-1.0512724329	-0.1047498322	 0.120933
O	-2.4749879334	-0.3333195387	-0.2811771925	-0.426619
C	 0.9045019947	-0.1083484048	-1.1240199719	 0.203496
N	 1.5814977643	 0.0010198427	-2.0558755819	-0.337022
H	 0.5600863997	 1.6095993389	 0.8197618735	 0.250865
H	-0.9142584385	 1.5616347022	 0.0886101674	 0.256662
H	 1.0283765644	-2.1100675892	 0.7063020417	 0.131774
H	 0.9855354862	-0.8857760712	 2.006144136	 0.12156
H	-1.3035785927	-2.6770316917	 1.4913835867	 0.097178
H	-1.3240493302	 0.0259115739	 2.2482136899	 0.293139
H	-1.1923233324	-1.7968892519	-0.8969982999	 0.107704
H	-2.8247714298	-0.1936554661	 0.6131664634	 0.292795
125.8258	135.8535	208.1145	243.7833	260.5273	325.4848	363.2687	415.6218	434.0764	493.8022	548.2665	588.0171	626.0604	657.1233	744.3025	802.3685	849.7111	872.1446	915.034	938.4733	962.9259	1023.0854	1127.228	1130.6495	1180.2776	1202.7749	1226.0119	1253.4894	1262.4095	1287.0038	1328.0453	1346.0963	1429.6501	1461.5206	1474.327	1634.5143	2339.6844	3074.5912	3080.8945	3106.707	3138.977	3489.4266	3575.9334	3648.707	3698.4328
NC1(CC(O)C1O)C#N	N[C@]1(C[C@@H](O)[C@H]1O)C#N	
InChI=1S/C5H8N2O2/c6-2-5(7)1-3(8)4(5)9/h3-4,8-9H,1,7H2	InChI=1S/C5H8N2O2/c6-2-5(7)1-3(8)4(5)9/h3-4,8-9H,1,7H2/t3-,4-,5-/m1/s1
