18
gdb 55287	2.37603	1.46458	1.17133	6.0952	68.05	-0.2543	0.0096	0.2639	1104.985	0.146638	-476.227302	-476.218235	-476.217291	-476.261129	33.803	
C	-0.1216551614	 1.5467750938	-0.0995729361	-0.429712
C	-0.0140175095	 0.0248527621	-0.0822988378	 0.211822
N	-1.32354502	-0.5709205739	-0.2422461392	-0.5697
H	-1.8508073045	-0.1279089529	-0.987951654	 0.23712
H	-1.2607677253	-1.5617516375	-0.4563317456	 0.234949
H	-1.1335921207	-0.0417522921	 2.3283888012	 0.310691
C	 1.2510195834	-0.4682568836	-0.85202334	-0.116717
O	 1.9858707945	-0.5717598899	 0.3891808383	-0.272579
C	 0.771241729	-0.5413508184	 1.1366405408	-0.01779
C	 0.7616518643	 0.2676102615	 2.4154461416	 0.398597
O	 1.703506812	 0.7784849185	 2.9439826489	-0.311064
O	-0.4943779822	 0.3730982464	 2.9294055586	-0.379245
H	 0.8433910173	 2.0001172278	 0.1394996536	 0.155992
H	-0.4221750249	 1.8908739608	-1.0957038265	 0.115166
H	-0.8608333559	 1.8997500011	 0.6245204096	 0.1349
H	 1.1164929631	-1.4509889258	-1.3281069871	 0.091773
H	 1.7288309815	 0.2212348588	-1.5551973407	 0.113782
H	 0.4239732793	-1.5618542268	 1.3759086046	 0.092014
77.8849	95.3893	149.8038	224.7806	260.0409	287.26	331.3364	363.7031	404.595	428.8134	484.2067	583.1941	632.3595	679.4943	727.6883	828.8136	838.2118	907.5501	931.773	983.9817	1001.1754	1019.0365	1067.8161	1090.9364	1152.6542	1157.2326	1182.8676	1215.3252	1283.9907	1329.4723	1340.676	1357.0353	1396.7843	1415.1841	1492.0489	1497.9447	1516.8872	1656.3544	1894.8356	2950.8748	2992.5927	3036.5935	3078.5181	3106.8049	3131.8846	3494.4009	3578.2501	3707.5435
CC1([NH3+])COC1C([O-])=O	C[C@@]1(N)CO[C@H]1C(=O)O	
InChI=1S/C5H9NO3/c1-5(6)2-9-3(5)4(7)8/h3H,2,6H2,1H3,(H,7,8)	InChI=1S/C5H9NO3/c1-5(6)2-9-3(5)4(7)8/h3H,2,6H2,1H3,(H,7,8)/t3-,5+/m0/s1
