15
gdb 26911	3.06817	1.44724	0.98586	3.2475	76.66	-0.1837	-0.0338	0.1499	1124.4067	0.113188	-453.97507	-453.966866	-453.965922	-454.007619	31.099	
N	 0.0323345393	 1.4737339764	 0.1386020021	-0.603839
C	 0.0127154953	 0.0570570557	 0.0411737927	 0.04809
C	-1.1278182277	-0.6711284092	 0.0175547048	 0.422408
O	-2.3566509062	-0.1197650109	 0.0293440375	-0.419019
O	-1.1597293664	-2.0188123625	 0.0208854328	-0.284013
C	 0.0137034253	-2.8054689906	-0.0241416247	 0.377268
N	-0.0773451229	-4.0716925074	-0.0653962602	-0.540611
C	 1.2419982083	-2.0498847344	-0.0062038729	-0.182548
C	 1.2316400596	-0.6972464949	 0.0387071096	-0.072873
H	 0.490497513	 1.8983350314	-0.6618492301	 0.242797
H	-0.9086169897	 1.8457226143	 0.190304165	 0.250466
H	-3.0046490344	-0.8349883069	 0.0292792152	 0.311022
H	-1.0510594218	-4.3725399757	-0.0643522975	 0.21565
H	 2.1561840522	-2.6270818703	-0.0177293349	 0.121237
H	 2.1641867062	-0.142499855	 0.0770737006	 0.113964
104.1422	166.1102	192.3946	277.5565	288.0452	319.4013	343.9562	424.3629	471.5051	509.89	587.3386	639.2103	713.6676	731.2217	782.4311	800.4789	831.9388	850.9543	899.2399	989.4334	1022.1653	1113.2153	1153.1217	1174.2595	1254.0987	1293.9284	1333.1152	1393.4341	1463.7337	1604.7998	1654.6515	1704.0767	1768.6058	3182.8386	3234.9065	3500.8391	3501.7326	3598.8166	3808.3407
NC1=C(O)OC(=N)C=C1	NC1=C(O)OC(=CC1)[NH]	
InChI=1S/C5H6N2O2/c6-3-1-2-4(7)9-5(3)8/h1-2,7-8H,6H2	InChI=1S/C5H7N2O2/c6-3-1-2-4(7)9-5(3)8/h2,7-8H,1,6H2
