19
gdb 41157	2.91811	1.85723	1.43425	0.8784	73.92	-0.2441	0.0793	0.3235	942.7775	0.16231	-422.977513	-422.970914	-422.96997	-423.008075	28.118	
C	 0.0249567011	 1.5316618243	-0.1434903559	-0.154472
O	 1.4721107944	 1.5257726645	 0.0531383515	-0.349504
C	 1.36186643	 0.2714533984	 0.7310732548	 0.464707
C	 2.1991871292	-1.0161075345	 0.715760936	-0.319927
C	 1.3150193685	-1.343060903	 1.9808614067	 0.128461
C	 1.314361566	 0.1768591546	 2.2753123921	-0.324117
O	 0.0073808971	-1.8152849361	 1.6441021192	-0.285123
C	-0.8594727533	-0.8211186008	 1.0708118645	-0.119049
C	-0.0161502827	 0.0110439948	 0.1139239754	-0.063411
H	-0.4758007835	 2.1442014423	 0.6180670237	 0.103084
H	-0.2498730192	 1.8860403516	-1.1403435791	 0.112554
H	 2.1132009251	-1.66754353	-0.1564672656	 0.101173
H	 3.2458033386	-0.8882653411	 1.0061623754	 0.104564
H	 1.7168346637	-2.0394099121	 2.7160852167	 0.08877
H	 2.2601318889	 0.4937868355	 2.7203028226	 0.107643
H	 0.481499607	 0.6115912041	 2.8303796231	 0.101761
H	-1.6633012734	-1.3753513682	 0.5803189353	 0.110698
H	-1.3119657109	-0.2025784617	 1.857935826	 0.098377
H	 0.1112515735	-0.5163366626	-0.8360849223	 0.093809
194.1947	268.0243	356.6883	387.0512	417.6402	458.3059	500.0308	539.4831	577.2432	753.3807	806.0118	820.2275	832.8033	913.9158	925.9464	955.3351	959.4202	972.0844	983.9328	1002.0245	1039.5877	1052.745	1116.7421	1140.8511	1161.5607	1164.6719	1174.7783	1182.4633	1225.9009	1249.8303	1256.081	1276.5022	1300.7554	1325.9261	1352.1424	1380.5413	1409.1519	1473.3044	1502.3544	1517.9408	1530.9142	3007.7209	3016.2131	3057.743	3060.302	3076.2419	3093.0998	3098.1728	3120.2481	3125.8807	3131.586
C1OC23CC(C2)OCC13	C1O[C@@]23C[C@@H](C2)OC[C@@H]13	
InChI=1S/C7H10O2/c1-6-2-7(1)5(3-8-6)4-9-7/h5-6H,1-4H2	InChI=1S/C7H10O2/c1-6-2-7(1)5(3-8-6)4-9-7/h5-6H,1-4H2/t5-,6-,7-/m0/s1
