21
gdb 61608	3.21927	0.86147	0.72682	4.2595	84.12	-0.241	0.0407	0.2817	1583.9065	0.18131	-383.261048	-383.250955	-383.25001	-383.29668	36.485	
C	-0.045731562	 1.6222527894	 0.1214405829	-0.391496
C	-0.0895999368	 0.084944583	 0.0528699307	-0.137479
C	 0.6301579196	-0.5954494127	 1.2418480378	-0.140673
N	 2.0441411918	-0.2502882927	 1.2154921336	-0.092412
C	 2.5640186043	 0.6589813471	 2.2370911103	-0.255358
C	 2.9323330655	-0.7833561995	 2.2547729924	 0.027405
C	 2.4490335085	-1.708680344	 3.3496230883	-0.414971
C	-1.4735519965	-0.3940691126	-0.0194818027	 0.25913
N	-2.5647664414	-0.7735445553	-0.0589321104	-0.324574
H	 0.9937420833	 1.9556010838	 0.1166033452	 0.142057
H	-0.5588029747	 2.0648947908	-0.73563387	 0.135679
H	-0.5295012885	 1.9859004731	 1.033062078	 0.129239
H	 0.4216041119	-0.2397885302	-0.8610949247	 0.135336
H	 0.1203835181	-0.3098185748	 2.1755547736	 0.103333
H	 0.5291117101	-1.680560422	 1.1344980218	 0.122585
H	 3.2643788289	 1.4159334757	 1.8936523591	 0.117059
H	 1.8719877818	 0.9988160468	 3.0074651166	 0.110435
H	 3.910394167	-1.051721215	 1.857003136	 0.095039
H	 1.5049625758	-1.3784003036	 3.790076545	 0.123881
H	 2.3108871832	-2.728698097	 2.9741127905	 0.128273
H	 3.1926550301	-1.7526825104	 4.1520419158	 0.127512
52.1301	77.363	102.1792	187.1384	203.1771	226.1233	245.2693	300.9105	308.2596	385.0588	436.9344	488.4214	552.2504	574.7698	756.7492	794.2254	847.2361	900.6333	919.5922	932.6663	952.8868	1036.6566	1055.0097	1080.7394	1116.4338	1122.4542	1148.7351	1150.1687	1181.157	1193.8182	1269.5736	1308.5102	1334.1779	1348.219	1386.9106	1402.9104	1412.0764	1421.2296	1483.9371	1491.5903	1497.1751	1499.1698	1500.8948	1514.5086	2355.428	2975.7878	3036.0889	3046.6651	3051.8642	3071.9009	3085.8001	3095.9833	3102.5849	3123.515	3124.4345	3141.8926	3173.8119
CC(CN1CC1C)C#N	C[C@@H](CN1C[C@H]1C)C#N	
InChI=1S/C7H12N2/c1-6(3-8)4-9-5-7(9)2/h6-7H,4-5H2,1-2H3	InChI=1S/C7H12N2/c1-6(3-8)4-9-5-7(9)2/h6-7H,4-5H2,1-2H3/t6-,7-,9?/m1/s1
