19
gdb 37618	2.81334	2.26858	2.01077	0.3386	80.61	-0.2316	0.0255	0.2571	817.6953	0.164368	-348.743865	-348.738243	-348.737299	-348.773281	26.012	
C	-0.0323333554	 1.564280631	 0.0256931402	-0.202334
C	 1.4627077657	 1.8721707664	 0.036868927	-0.061005
C	 2.0100195225	 0.9745329469	 1.1687044567	-0.088945
C	 2.6024777586	 0.0285631052	 0.1559313898	-0.062368
C	 1.2804523363	-0.3018333164	 0.8119886195	-0.044766
C	 0.021127659	 0.0034133071	-0.0616573508	-0.092207
C	 0.2758822776	-0.3171087564	-1.5153694048	-0.074494
C	 1.3811160287	 0.2357402135	-2.0270390157	-0.070458
C	 2.240486934	 0.9514993444	-1.0286948503	-0.078154
H	-0.4850537072	 1.8891745359	 0.970072116	 0.091306
H	-0.5857289513	 2.0056838041	-0.8074892841	 0.092132
H	 1.7444909294	 2.9240119934	 0.0176326184	 0.064829
H	 2.332693697	 1.2628176471	 2.1602660277	 0.079738
H	 3.4682117371	-0.6210005015	 0.2167369226	 0.07864
H	 1.2600195908	-1.1283903379	 1.5111763432	 0.082321
H	-0.8759894168	-0.4800340291	 0.327443657	 0.056493
H	-0.4317340571	-0.9012926931	-2.0942753599	 0.084187
H	 1.6758639902	 0.1429514403	-3.0672118997	 0.083999
H	 3.1002007509	 1.4668211689	-1.4574081727	 0.061085
347.3404	382.5534	436.3136	548.489	567.6059	657.3514	673.2233	709.6532	735.573	778.6692	803.841	816.805	856.7905	894.9963	916.8131	927.2096	950.7254	961.1262	972.7533	996.5652	1012.3035	1031.587	1043.4534	1050.8048	1062.757	1081.4279	1108.4453	1155.7089	1172.8446	1212.4391	1226.0641	1252.6192	1260.0473	1278.6014	1300.616	1323.9029	1335.8072	1387.7853	1391.3364	1479.8734	1668.6664	3034.6241	3095.4661	3097.799	3103.047	3123.7967	3167.3061	3170.0269	3189.6657	3192.0866	3203.7535
C1C2C3C4C3C1C=CC24	C1[C@H]2[C@@H]3[C@H]4[C@@H]3[C@@H]1C=C[C@@H]24	
InChI=1S/C9H10/c1-2-5-6-3-4(1)7-8(5)9(6)7/h1-2,4-9H,3H2	InChI=1S/C9H10/c1-2-5-6-3-4(1)7-8(5)9(6)7/h1-2,4-9H,3H2/t4-,5+,6-,7+,8-,9+/m1/s1
