16
gdb 52047	4.02482	0.86459	0.75463	3.7396	72.85	-0.2786	-0.0037	0.2749	1446.677	0.123848	-434.038613	-434.029502	-434.028558	-434.073956	31.381	
N	 0.4618774086	 0.2996592031	 1.4680439662	-0.427117
C	-0.0916322282	-0.1418753482	 0.4278054629	 0.131655
O	-0.9400206386	-1.1939364942	 0.5230509837	-0.20277
C	-1.4851596734	-1.6917057878	-0.6904544844	-0.166411
C	-2.6128407704	-2.6515983155	-0.330667645	 0.143887
C	-2.524514858	-3.4848737078	 0.9053995678	-0.255536
N	-3.4763745602	-2.3711670053	 0.8283569442	-0.328794
C	-3.284725947	-3.1752272698	-1.5017157895	 0.259563
N	-3.7766014167	-3.5876640288	-2.4628382047	-0.326114
H	 1.0578665835	 1.0930554303	 1.2421900083	 0.240034
H	 0.0233849479	 0.2352688401	-0.5965301591	 0.101616
H	-1.8819809996	-0.8699315398	-1.3010936531	 0.135531
H	-0.7192613995	-2.2180465425	-1.2743625788	 0.139783
H	-2.9719610213	-4.4733183282	 0.9073063177	 0.144694
H	-1.6296308567	-3.3622321034	 1.5066628207	 0.151326
H	-3.0861616503	-1.5676758922	 1.3186003729	 0.258653
38.4933	71.7653	105.3568	145.7833	191.5663	236.8843	317.6459	344.3165	417.8057	548.8838	581.2985	646.9982	712.5419	825.5054	846.8144	909.0027	975.9209	991.8925	1017.7641	1029.3704	1044.1234	1123.6436	1140.3615	1151.4052	1256.2263	1282.0785	1285.6029	1318.2619	1351.4293	1411.6488	1432.7486	1498.8876	1512.4577	1753.7512	2360.9081	3010.0118	3041.2716	3057.2028	3129.1052	3226.4215	3494.3099	3525.6575
N=COCC1(CN1)C#N	[NH][CH]OC[C@]1(CN1)C#N	
InChI=1S/C5H7N3O/c6-1-5(2-8-5)3-9-4-7/h4,7-8H,2-3H2	InChI=1S/C5H7N3O/c6-1-5(2-8-5)3-9-4-7/h4,7-8H,2-3H2/t5-/m1/s1
