18
gdb 62805	3.46088	1.14673	1.05345	3.3112	74.	-0.2296	0.021	0.2506	1176.7825	0.146218	-439.064291	-439.055566	-439.054622	-439.097677	32.849	
C	 0.2510077626	 1.5861273855	 0.0381832182	-0.474714
C	 0.1520114011	 0.0826287669	-0.0498942795	 0.383957
O	-1.0545190235	-0.4508622358	 0.435392556	-0.45931
C	 0.6197599007	-0.7520218851	-1.2141437379	-0.129692
C	 1.9447266596	-0.246037437	-1.8028182805	-0.202248
N	 2.5404165753	-0.3545488601	-0.4572340063	-0.038224
C	 3.5600018584	 0.3674552657	 0.0726844388	 0.132234
O	 4.3338302866	 1.0435758358	-0.5727466365	-0.329866
C	 1.3203607582	-0.8674210706	 0.145819697	-0.121162
H	 1.1977499378	 1.9663336321	-0.3509939055	 0.147186
H	-0.5663626531	 2.0486666897	-0.5234544297	 0.134152
H	 0.1710334962	 1.9119537797	 1.0826482318	 0.112759
H	-1.115123254	-0.2384086301	 1.3737702982	 0.286443
H	-0.0448681729	-1.4646601388	-1.6809550973	 0.114977
H	 2.4013095283	-0.9444838403	-2.5100808863	 0.130623
H	 1.9681211904	 0.7627901782	-2.2252396516	 0.131011
H	 3.6263932086	 0.2365240866	 1.1729945489	 0.068154
H	 1.3212099395	-1.6771163524	 0.8661567221	 0.113719
57.6521	159.0422	204.2251	236.2992	250.422	295.7509	325.575	380.6989	397.1461	448.416	481.2225	604.5272	679.911	764.196	833.6963	843.7911	921.6296	949.0527	975.6404	1005.8944	1033.4213	1037.6042	1079.2945	1093.5613	1145.328	1179.2937	1182.8215	1232.9255	1279.507	1299.2774	1309.0483	1386.3514	1418.2646	1432.3535	1439.8327	1487.0616	1500.0864	1512.6883	1790.1678	2918.0382	3030.481	3052.7812	3095.43	3100.5457	3132.8097	3181.2173	3224.8919	3792.4654
CC1(O)C2CN(C=O)C12	C[C@@]1(O)[C@H]2CN(C=O)[C@@H]12	
InChI=1S/C6H9NO2/c1-6(9)4-2-7(3-8)5(4)6/h3-5,9H,2H2,1H3	InChI=1S/C6H9NO2/c1-6(9)4-2-7(3-8)5(4)6/h3-5,9H,2H2,1H3/t4-,5+,6+/m0/s1
