19
gdb 49547	3.60014	1.31943	1.21053	2.4422	80.53	-0.2388	-0.0254	0.2134	1078.4068	0.160974	-385.895777	-385.888322	-385.887377	-385.927725	29.593	
O	-0.7734931946	 1.0349850802	-0.5034494714	-0.248272
C	 0.1435528705	 1.073947663	 0.2809063777	 0.118766
C	 1.3585656827	 1.9487736513	 0.1645575785	-0.071974
C	 1.4530831407	 2.8074181864	-1.1296296928	-0.02236
C	 0.5783976644	 3.8716345944	-0.4047493162	-0.225865
C	 1.1970548468	 3.3329512633	 0.9189673999	-0.069779
C	 2.583562814	 3.9233046572	 1.07099074	-0.07047
C	 3.3853620407	 3.9245064406	 0.0051136677	-0.057616
C	 2.89201204	 3.3270322862	-1.2955555488	-0.272322
H	 0.1303099938	 0.4377627645	 1.1969366216	 0.074743
H	 2.239746631	 1.3741721438	 0.4700853441	 0.081002
H	 1.0561176883	 2.3632151807	-2.0435343098	 0.080171
H	 0.7549742112	 4.9251437605	-0.6328976956	 0.095484
H	-0.4819262894	 3.6343319675	-0.4971212261	 0.123238
H	 0.6076518478	 3.3608231068	 1.8370627276	 0.06748
H	 2.8882725629	 4.3344538751	 2.0281776227	 0.089931
H	 4.3874227666	 4.3417632287	 0.0400359189	 0.0909
H	 3.5594784134	 2.5150382743	-1.6175933986	 0.107009
H	 2.9299554691	 4.0790480954	-2.0962438993	 0.109934
80.8733	177.7635	228.1214	277.4102	332.731	395.0525	478.3861	518.2264	636.4599	706.7112	732.6048	816.7154	846.9709	855.8911	876.4685	904.3919	934.5904	957.9065	976.0617	1007.4796	1030.5416	1055.2855	1069.3968	1095.4966	1106.7297	1133.9617	1171.2567	1191.6443	1219.1369	1252.1389	1276.8879	1293.2622	1314.2494	1347.2782	1374.5551	1394.1957	1425.762	1471.7844	1495.8822	1696.4637	1812.7715	2856.1363	3003.5337	3028.3244	3050.8486	3071.0624	3091.0761	3100.8137	3138.9588	3162.5085	3186.6301
O=CC1C2CC1C=CC2	O=C[C@H]1[C@H]2C[C@@H]1C=CC2	
InChI=1S/C8H10O/c9-5-8-6-2-1-3-7(8)4-6/h1-2,5-8H,3-4H2	InChI=1S/C8H10O/c9-5-8-6-2-1-3-7(8)4-6/h1-2,5-8H,3-4H2/t6-,7+,8+/m0/s1
