15
gdb 82686	2.91088	1.58707	1.24099	2.7324	70.51	-0.2447	0.008	0.2527	988.3155	0.113887	-416.746901	-416.739698	-416.738754	-416.778475	28.167	
N	 0.2044870134	 1.4559055717	 0.1221928173	-0.52243
C	 0.0124905051	 0.0415622646	 0.0458628839	-0.018245
C	 0.1536905091	-0.7362867812	 1.3757645219	 0.045456
O	-0.8483418978	-0.1064329352	 2.2359300865	-0.291509
C	-1.8253809112	-0.77005138	 1.4499700996	 0.05461
C	-0.9068736889	-1.7812468689	 0.8787066478	-0.19082
C	-1.3884664262	-0.6432636595	-0.0384784745	 0.152534
C	-2.2903546272	-0.6941637793	-1.1316893223	 0.149658
N	-3.0176817242	-0.7127943117	-2.0337153208	-0.350579
H	 0.0087927438	 1.916125697	-0.7594068313	 0.2418
H	-0.3947254102	 1.8519068393	 0.8383957953	 0.244428
H	 0.6604173674	-0.3963050399	-0.7182574695	 0.10716
H	 1.1071113373	-0.9036827514	 1.8685770819	 0.108095
H	-2.8568853757	-0.7962520162	 1.7732812085	 0.139668
H	-0.9338719347	-2.853280039	 0.7527669956	 0.130173
128.5762	155.9626	227.8289	308.5348	335.6921	479.9822	506.3369	544.5417	616.7832	644.1156	721.0292	771.971	795.9197	850.6291	855.1553	900.0125	927.5296	945.3902	976.0591	992.2794	1045.8558	1110.8707	1129.3962	1172.0466	1192.7215	1231.4002	1245.5642	1262.8237	1283.7408	1386.1159	1426.1307	1644.4539	2335.3747	3087.204	3171.324	3222.0544	3237.5832	3517.5503	3603.9238
NC1C2OC3C2C13C#N	N[C@H]1[C@H]2O[C@@H]3[C@H]2[C@]13C#N	
InChI=1S/C6H6N2O/c7-1-6-2-3(4(6)8)9-5(2)6/h2-5H,8H2	InChI=1S/C6H6N2O/c7-1-6-2-3(4(6)8)9-5(2)6/h2-5H,8H2/t2-,3-,4-,5+,6+/m0/s1
