22
gdb 92046	2.66621	1.43056	1.01861	1.5257	88.6	-0.2245	0.0204	0.2449	1238.1813	0.1958	-367.208336	-367.199671	-367.198727	-367.241344	34.439	
C	 0.1621892841	 1.6028374391	-0.0869236293	-0.402076
C	 0.038206116	 0.0754655914	 0.0312761265	-0.081158
C	 0.5316783599	-0.5805008827	-1.2784610913	-0.196738
C	 0.645056262	-2.0952128256	-1.1980635685	-0.061481
N	 2.0096778664	-2.6265873535	-0.9842703047	-0.339994
C	 1.0034378049	-2.686781638	 0.1113099277	-0.069339
C	 1.1778932663	-1.7716390297	 1.2629474524	-0.143822
C	 0.7391653579	-0.507617886	 1.2590748686	 0.327022
C	 0.8663873775	 0.3553313004	 2.4870412591	-0.483739
H	 1.2109854777	 1.9092867359	-0.1695490637	 0.119343
H	-0.355043223	 1.9521172757	-0.9866304288	 0.110554
H	-0.2756342534	 2.123611433	 0.7686420073	 0.112951
H	-1.03452101	-0.1517161715	 0.1431402449	 0.082052
H	-0.1382183225	-0.292305387	-2.0966295403	 0.089158
H	 1.5218981398	-0.1779060015	-1.518144558	 0.11217
H	-0.0138850563	-2.6675912056	-1.8460813152	 0.079324
H	 2.0833708881	-3.5473721557	-1.4131344771	 0.223042
H	 0.6117899285	-3.6736900862	 0.3519682531	 0.081838
H	 1.6595563637	-2.172871138	 2.1522729493	 0.075404
H	 1.3196302518	-0.2019105853	 3.3110049234	 0.116994
H	 1.4778966107	 1.2460589488	 2.3032729853	 0.127246
H	-0.1145315802	 0.7163446521	 2.8232285693	 0.121249
75.0934	136.4354	231.0088	251.407	309.2854	315.2954	352.0628	393.5772	437.5791	449.9868	511.5819	593.7339	705.4365	729.0662	795.8815	832.9514	865.2179	895.9152	925.8628	932.5574	984.0082	1002.8695	1027.5228	1042.5872	1075.9886	1111.0897	1119.368	1135.9716	1157.1676	1193.7887	1217.6838	1254.5382	1272.7275	1310.3723	1329.334	1355.4533	1380.2475	1400.3757	1408.83	1415.2516	1456.2414	1475.7392	1479.3252	1486.2594	1502.8529	1507.5992	1719.1835	2967.2561	3017.6371	3029.8856	3034.5087	3069.1745	3076.6452	3096.8882	3109.2092	3113.0904	3113.5758	3134.2334	3144.4212	3477.3321
CC1CC2NC2C=C1C	C[C@H]1C[C@H]2N[C@H]2C=C1C	
InChI=1S/C8H13N/c1-5-3-7-8(9-7)4-6(5)2/h3,6-9H,4H2,1-2H3	InChI=1S/C8H13N/c1-5-3-7-8(9-7)4-6(5)2/h3,6-9H,4H2,1-2H3/t6-,7-,8+/m0/s1
