18
gdb 86678	2.43994	1.37544	1.0445	3.1086	73.11	-0.2418	-0.0304	0.2114	1181.8051	0.145426	-439.045887	-439.036893	-439.035949	-439.080386	32.578	
C	-1.0309904254	 1.2510583566	 0.2129536126	-0.396202
C	-0.1696311787	 0.013490602	 0.0353466114	-0.026717
N	 0.9733557343	 0.165103851	-0.9133922939	-0.350379
C	 1.9195155209	-0.5146877604	-0.0008328375	-0.144263
C	 3.2169686567	 0.2298775696	 0.2251046932	 0.149462
O	 4.182581538	-0.2449457397	 0.7663840389	-0.250557
C	 0.8556024471	-0.362941864	 1.1127764582	 0.405306
C	 1.0051752542	 0.0649872428	 2.5031682874	-0.260352
O	 0.6457549849	-1.2840339689	 2.1460538214	-0.255929
H	-0.4116372972	 2.1200987649	 0.452093192	 0.122386
H	-1.5835617088	 1.4705146877	-0.7064036436	 0.122655
H	-1.7622507534	 1.1025237003	 1.0149475235	 0.121666
H	-0.7984839712	-0.8620502616	-0.1832653733	 0.085524
H	 0.8482459665	-0.2858868954	-1.8121648885	 0.22744
H	 2.1266585991	-1.5738059158	-0.2002982478	 0.1041
H	 3.1842603307	 1.2873064106	-0.1222791134	 0.083867
H	 2.0009127463	 0.1789053089	 2.9275322015	 0.138502
H	 0.216752806	 0.6442351415	 2.9800810378	 0.12349
44.5435	73.9476	177.3499	203.0768	215.4066	234.3063	321.295	405.0604	432.8731	463.0079	529.1998	585.9292	674.8757	820.3978	866.2611	890.5602	925.0711	955.9692	1008.3483	1021.3955	1073.6501	1084.5177	1108.9427	1123.8119	1145.5557	1163.6458	1174.9323	1187.3307	1272.409	1317.5487	1372.8497	1379.3238	1401.6989	1413.9246	1432.9007	1488.3956	1493.8185	1534.3714	1824.4521	2884.7201	2997.5352	3033.0786	3034.6667	3092.59	3102.7429	3117.9552	3184.6221	3543.6331
CC1NC(C=O)C11CO1	C[C@H]1N[C@@H](C=O)[C@]21CO2	
InChI=1S/C6H9NO2/c1-4-6(3-9-6)5(2-8)7-4/h2,4-5,7H,3H2,1H3	InChI=1S/C6H9NO2/c1-4-6(3-9-6)5(2-8)7-4/h2,4-5,7H,3H2,1H3/t4-,5+,6-/m1/s1
