17
gdb 67343	2.89873	1.94417	1.3501	2.5968	73.46	-0.2516	0.0143	0.2659	940.9406	0.137824	-417.958114	-417.951114	-417.95017	-417.989231	28.274	
C	-0.0520121624	 1.5418043998	 0.0300410898	-0.503237
C	-0.0316532518	 0.0381329942	 0.0280194052	 0.261266
C	 1.0882023325	-0.7991662721	-0.7036402405	-0.102956
N	 2.0476769423	-0.4683569429	 0.4100316129	-0.33797
C	 0.7542040524	-0.8061115536	 1.1051177856	-0.102953
C	 0.4620876207	-1.961622801	 0.1115096086	 0.085635
O	-0.9389107059	-2.0556300984	-0.1475541312	-0.257765
C	-1.3057565402	-0.724536615	-0.2101842299	 0.373964
N	-2.4607813677	-0.2711133107	-0.4217322831	-0.550572
H	 0.9512978901	 1.9306775352	 0.2166652084	 0.13939
H	-0.4123089894	 1.9205546297	-0.930732694	 0.133552
H	-0.7319715524	 1.9138995563	 0.8017626401	 0.133546
H	 1.3661482786	-0.7616831988	-1.7577507545	 0.094324
H	 2.7153251726	-1.2373524793	 0.5303630497	 0.212477
H	 0.6373186405	-0.7768394908	 2.1892253102	 0.094323
H	 0.9272608976	-2.9424249776	 0.1936410744	 0.1004
H	-3.1329508875	-1.030074285	-0.5487726716	 0.226576
150.4259	195.8634	254.3289	308.3765	372.6172	419.6711	537.6999	612.8185	658.4081	672.4327	718.1124	801.9965	840.1399	875.564	897.731	900.6403	908.3597	937.6591	1004.8565	1030.324	1032.6315	1086.7508	1132.6062	1137.7741	1150.7949	1162.4405	1193.0658	1232.4389	1242.6546	1289.6475	1294.4103	1329.0687	1394.6308	1413.7213	1488.2036	1491.1265	1803.1291	3049.7926	3110.6888	3112.8654	3115.133	3136.4206	3149.6694	3378.4131	3471.6532
CC12C3NC1C3OC2=N	C[C@@]12[C@H]3N[C@@H]1[C@H]3O[C]2[NH]	
InChI=1S/C6H8N2O/c1-6-3-2(4(6)8-3)9-5(6)7/h2-4,7-8H,1H3	InChI=1S/C6H8N2O/c1-6-3-2(4(6)8-3)9-5(6)7/h2-4,7-8H,1H3/t2-,3-,4+,6+
