16
gdb 49416	3.16696	1.6916	1.47522	2.1182	71.41	-0.2351	-0.0331	0.202	910.7739	0.124826	-400.700357	-400.693396	-400.692452	-400.732227	26.975	
O	-0.452504032	 0.5227426406	-0.6609317873	-0.253043
C	 0.0725998621	 1.0643253379	 0.2777736744	 0.150122
C	 1.2567755104	 2.0001545428	 0.1649256181	-0.036725
C	 1.3090180712	 3.1408906411	-0.9199064	-0.129682
C	-0.1029396375	 3.6528746363	-1.0670690294	-0.088978
C	-0.4737516817	 4.2302512319	 0.0836613295	-0.087716
C	 0.6780647298	 4.2494321207	 1.0189975688	-0.059378
C	 1.9093810359	 3.9640821229	 0.2600623529	-0.040367
N	 1.4861976071	 2.9538091057	 1.2849343943	-0.186373
H	-0.263528419	 0.8857867614	 1.3251001276	 0.088755
H	 2.1625432101	 1.3841310636	 0.1017293518	 0.123966
H	 1.8819072999	 2.9531178261	-1.8245183366	 0.085337
H	-0.7438256255	 3.402515658	-1.9020172908	 0.120848
H	-1.4624144019	 4.5839604488	 0.3453477819	 0.107273
H	 0.6946305515	 4.872662513	 1.903931799	 0.104379
H	 2.8548344196	 4.4944738193	 0.3061715958	 0.10158
56.1215	163.1705	174.5567	371.5916	447.052	509.4025	616.6662	642.2422	706.5748	755.4485	776.9921	818.9129	828.7608	854.9463	895.7022	927.8079	941.9393	987.0181	1001.1901	1031.6484	1049.3281	1075.8658	1103.0755	1125.8359	1165.1572	1180.9567	1233.2685	1265.1307	1279.601	1332.0665	1361.885	1373.8161	1403.7522	1635.846	1828.3379	2872.2939	3037.4939	3145.9809	3165.0166	3201.3037	3213.1361	3235.5234
O=CC1C2C=CC3C2N13	O=C[C@H]1[C@H]2C=C[C@@H]3[C@H]2N13	
InChI=1S/C7H7NO/c9-3-6-4-1-2-5-7(4)8(5)6/h1-7H	InChI=1S/C7H7NO/c9-3-6-4-1-2-5-7(4)8(5)6/h1-7H/t4-,5-,6+,7+,8?/m1/s1
