18
gdb 41218	2.301	1.88838	1.10448	3.3599	78.33	-0.2175	-0.0157	0.2019	1083.6893	0.149164	-401.943052	-401.935394	-401.93445	-401.975555	29.69	
C	 0.0151782628	 1.3201431144	-0.3942406672	-0.272018
C	 1.4409879696	 0.8190385771	-0.058478327	-0.301542
C	 1.6379180118	 0.1763758704	 1.3231151735	 0.391784
O	 2.7275112512	-0.1083355523	 1.7538914881	-0.311581
C	-0.8535748593	-0.2807565012	 1.1957448122	 0.341195
C	-1.2796829462	-1.4595484727	 2.0427286853	-0.267551
N	 0.096800898	-1.454250055	 2.6396831351	-0.32038
C	 0.3435211057	-0.0934603017	 2.0874512872	-0.152545
C	-1.0348185142	 0.3072950619	 0.0244964986	-0.249362
H	-0.1678658575	 2.2851399612	 0.0980653064	 0.116688
H	-0.0473350831	 1.5179849753	-1.4685110205	 0.111207
H	 1.7193561279	 0.0365014378	-0.776173189	 0.142343
H	 2.1867372904	 1.6121408951	-0.1702192741	 0.127525
H	-2.0807627512	-1.2180231022	 2.756898654	 0.105779
H	-1.5419886474	-2.3880888584	 1.5240771736	 0.121941
H	 0.1193141916	-1.5073193703	 3.6517878063	 0.224299
H	 0.2190966596	 0.7235801369	 2.8199071349	 0.096354
H	-1.8553681899	 0.0658489236	-0.6439967872	 0.095864
55.6345	157.7021	223.1397	267.3488	326.9269	419.2935	450.5091	491.5503	587.5177	621.9828	667.38	707.93	784.0136	857.0263	901.6439	911.4467	957.946	975.4938	995.5577	1023.6857	1051.5878	1057.5691	1105.7355	1120.7686	1159.0932	1180.8953	1212.8009	1237.8456	1278.1883	1315.4394	1328.9549	1343.4914	1356.6574	1376.7869	1441.6653	1488.0435	1500.9104	1785.8734	1822.3784	2944.1704	2991.915	3013.1887	3035.7328	3059.9974	3078.4139	3089.9744	3176.1283	3537.3256
C1CC23OC4(CNC24)C13	C1CC(=O)[C@H]2C(=C1)CN2	
InChI=1S/C7H9NO/c1-2-6-4(1)7(9-6)3-8-5(6)7/h4-5,8H,1-3H2	InChI=1S/C7H9NO/c9-6-3-1-2-5-4-8-7(5)6/h2,7-8H,1,3-4H2/t7-/m1/s1
