19
gdb 17668	3.85032	1.44823	1.26627	2.1258	71.28	-0.2381	0.075	0.3131	1020.7466	0.164707	-365.013863	-365.005321	-365.004377	-365.046694	32.256	
C	 0.0097353531	 1.7095036065	 0.3884532563	-0.452196
C	-0.0559130815	 0.2331144417	 0.0398655236	 0.307883
C	 0.9673131095	-0.3060477285	-0.9448203589	-0.396153
C	 1.0534262638	-0.6643055059	 0.5209395287	 0.078202
O	 2.0475531379	-0.0981899349	 1.3235195436	-0.422428
C	-1.4599412177	-0.3124409623	 0.0457413663	-0.05626
C	-2.2949602097	-0.3126989835	-1.1824291946	-0.237302
N	-1.8448186766	-1.5828994663	-0.5835513053	-0.330577
H	 1.0429199163	 2.0409355066	 0.5028793653	 0.129777
H	-0.4735367495	 2.3126355922	-0.3874579342	 0.114435
H	-0.5063605138	 1.9059881544	 1.335096791	 0.119114
H	 0.6944318772	-1.0782068411	-1.6582745357	 0.103442
H	 1.6943662661	 0.4066719497	-1.3200208692	 0.114998
H	 0.7697811429	-1.6805322641	 0.7964988919	 0.093234
H	 2.886440276	-0.5103298904	 1.0925839719	 0.288659
H	-1.9697632479	-0.1514227844	 0.9953779122	 0.092831
H	-3.3643538003	-0.1304509246	-1.1262983647	 0.116518
H	-1.8232081936	 0.0172698341	-2.1048666183	 0.110167
H	-1.0760027423	-1.9639911391	-1.1297275299	 0.225657
64.6689	158.7711	190.7758	228.9093	257.5064	285.8517	314.913	360.9384	473.262	477.3431	569.9369	664.5717	792.9473	835.5587	861.2839	908.5703	913.5166	949.0141	978.3498	1013.4888	1032.8783	1034.0917	1093.23	1111.3103	1118.9396	1156.4244	1166.597	1204.8873	1241.9507	1259.1221	1295.2225	1311.9935	1328.3545	1408.3363	1419.4798	1425.5218	1484.9719	1495.1568	1506.7688	1508.7985	3033.8078	3090.6857	3094.809	3104.7387	3107.1723	3121.1531	3137.2817	3191.7194	3207.6705	3497.8248	3807.0321
CC1(CC1O)C1CN1	C[C@]1(C[C@H]1O)[C@H]1CN1	
InChI=1S/C6H11NO/c1-6(2-5(6)8)4-3-7-4/h4-5,7-8H,2-3H2,1H3	InChI=1S/C6H11NO/c1-6(2-5(6)8)4-3-7-4/h4-5,7-8H,2-3H2,1H3/t4-,5-,6+/m1/s1
