19
gdb 98081	3.31029	1.0476	0.80789	0.5955	77.46	-0.235	-0.0282	0.2068	1433.7723	0.157919	-456.404837	-456.394093	-456.393149	-456.442263	36.063	
C	 0.789282089	 1.3086904544	 0.6528825963	-0.333395
N	 0.7294377837	-0.0856892873	 0.2784763995	-0.276286
C	 1.0573456084	-0.5344710194	-0.9493507759	 0.301399
O	 1.4361232376	 0.1775397929	-1.8681467226	-0.393991
C	 0.8727282526	-2.0850058046	-0.9898844396	 0.351091
O	 0.4798519248	-2.6289495779	 0.0403724388	-0.410491
N	 1.1412545838	-2.7767290953	-2.1243468625	-0.103784
C	 0.9520553939	-4.2222334785	-2.1073583481	-0.343916
C	 1.6089408761	-2.2449319778	-3.3997717063	-0.35847
H	 1.4868878154	 1.4653527647	 1.4831243187	 0.131027
H	 1.1339012339	 1.8737977806	-0.2143669461	 0.165618
H	-0.1967467418	 1.679882858	 0.9536973716	 0.131031
H	 0.4346593914	-0.8045969805	 0.925755989	 0.271594
H	 0.6040640428	-4.5251833559	-1.1227272458	 0.170596
H	 0.2160866964	-4.5128402151	-2.8665376883	 0.127258
H	 1.89795541	-4.726774712	-2.3379451497	 0.127267
H	 2.5668275514	-2.711951669	-3.6613809744	 0.121245
H	 0.8879225622	-2.4971696279	-4.1875570067	 0.121261
H	 1.7276951982	-1.1686587793	-3.339589088	 0.200947
27.863	68.699	83.1683	104.2253	136.2685	158.1973	196.0461	266.318	334.8588	353.6838	370.4644	448.2493	533.8751	534.0879	682.7133	688.5884	816.6119	821.1325	942.5754	1056.2461	1078.2373	1132.6605	1152.8549	1179.3919	1185.0561	1189.634	1232.7307	1271.6912	1431.3907	1435.2151	1440.9332	1462.3126	1493.432	1494.4295	1495.9708	1498.8713	1511.759	1544.5165	1563.9533	1718.959	1773.2417	3012.8203	3024.8655	3029.1775	3059.5062	3072.966	3081.0019	3148.3994	3182.7028	3207.2818	3588.7329
CNC(=O)C(=O)N(C)C	CNC(=O)C(=O)N(C)C	
InChI=1S/C5H10N2O2/c1-6-4(8)5(9)7(2)3/h1-3H3,(H,6,8)	InChI=1S/C5H10N2O2/c1-6-4(8)5(9)7(2)3/h1-3H3,(H,6,8)
