18
gdb 29799	3.20983	1.2067	0.88682	1.7308	92.89	-0.1948	0.0025	0.1973	1308.4744	0.146465	-364.82835	-364.818825	-364.817881	-364.863066	34.389	
C	-0.0488657029	 1.4302209454	 0.0539878147	-0.340328
N	-0.051615334	-0.0180944307	 0.030353041	-0.069193
C	-0.0490837179	-0.7954026758	-1.09456929	-0.189636
C	 0.033803262	-2.1271107395	-0.7341550585	 0.288508
C	 0.0470230292	-3.302559118	-1.6648290365	-0.502696
C	 0.0909846785	-2.1525559292	 0.6810449833	-0.372704
C	 0.0403852878	-0.8433834888	 1.1394577193	 0.190354
C	 0.0625567312	-0.3377172787	 2.453355468	 0.267
C	 0.0805819078	 0.0992358766	 3.5777825763	-0.475454
H	 0.9691663519	 1.8336856196	 0.0054754822	 0.138851
H	-0.6191545591	 1.8088293939	-0.7973370925	 0.137193
H	-0.5153956111	 1.7787105664	 0.9768023126	 0.155749
H	-0.1092502134	-0.3421111434	-2.0725187793	 0.114246
H	 0.9542885112	-3.9055576788	-1.5436020993	 0.126421
H	-0.8056020322	-3.9691688302	-1.4906299916	 0.126462
H	 0.0037074296	-2.9788734591	-2.7089510454	 0.117653
H	 0.1495258532	-3.0249154082	 1.314049071	 0.100358
H	 0.0984438381	 0.4720313285	 4.5714654246	 0.187215
63.5933	81.9397	130.1188	143.7927	166.7612	262.0422	281.9004	379.4841	455.6609	496.8413	525.9697	560.686	623.9521	637.8661	667.7164	676.6026	744.9011	791.0312	810.8422	996.0945	1014.1894	1062.5595	1080.7218	1149.7448	1164.8844	1182.1087	1232.0862	1382.4377	1401.0929	1417.8381	1429.4961	1462.5038	1483.4549	1487.1134	1499.7336	1507.751	1522.1986	1609.0421	2218.4738	3025.3127	3033.6319	3074.4645	3103.4984	3105.2905	3144.6356	3246.358	3249.3447	3503.0827
CN1C=C(C)C=C1C#C	Cn1cc(C)cc1C#C	
InChI=1S/C8H9N/c1-4-8-5-7(2)6-9(8)3/h1,5-6H,2-3H3	InChI=1S/C8H9N/c1-4-8-5-7(2)6-9(8)3/h1,5-6H,2-3H3
