20
gdb 126162	3.71113	0.99572	0.95395	0.7613	81.4	-0.2539	0.0043	0.2581	1348.9691	0.17226	-399.34778	-399.338721	-399.337777	-399.382647	32.8	
C	-0.1185315442	 1.5277214489	 0.0335690795	-0.39071
C	 0.0101981273	 0.0030313555	-0.0197223383	-0.176255
C	 0.793563114	-0.5088976907	-1.2414072275	 0.061816
C	 2.2667565888	-0.0944068656	-1.2553388013	-0.39533
N	 0.6839653217	-1.9700746906	-1.3194093862	 0.136582
N	 1.2491355379	-2.7731758225	-0.4269192515	-0.233851
C	 0.8878969926	-3.9952319588	-0.8278757462	-0.055646
C	 0.0959918062	-3.8706299279	-1.9746065512	-0.071537
N	-0.0226798	-2.5725716177	-2.2689948548	-0.223239
H	 0.8505019375	 2.019574238	 0.1603143265	 0.122817
H	-0.5769691114	 1.9211091892	-0.8807817503	 0.118563
H	-0.7497819951	 1.8280943389	 0.8749230968	 0.120912
H	 0.4948819847	-0.3723934312	 0.888358936	 0.120621
H	-0.9888790534	-0.4462953121	-0.0508116092	 0.111315
H	 0.3018149604	-0.1634534169	-2.1548466866	 0.113516
H	 2.3545036826	 0.994389289	-1.2803488127	 0.123589
H	 2.7785823445	-0.4684579535	-0.3650256351	 0.143351
H	 2.7712495475	-0.496824121	-2.1379072955	 0.128227
H	 1.2071167702	-4.8733772186	-0.2896392706	 0.122184
H	-0.3767483218	-4.6236758823	-2.584392292	 0.123076
32.5416	90.3156	110.2854	202.9718	214.7492	269.4517	293.9233	352.6715	401.8044	497.9693	681.5587	707.0046	728.6301	790.5435	843.7366	856.2403	890.8014	964.7731	979.9791	987.4972	999.4791	1036.2204	1086.5778	1104.2124	1153.4661	1175.2596	1206.8358	1268.0997	1292.0315	1296.0984	1351.8417	1370.9514	1377.205	1405.851	1414.7437	1419.1566	1448.3295	1485.4615	1489.8913	1500.2488	1502.2536	1508.335	1510.7257	3035.6601	3040.2771	3052.8149	3072.4768	3088.5799	3105.5448	3112.1977	3126.6804	3136.0893	3262.1738	3280.1806
CCC(C)N1N=CC=N1	CC[C@@H](C)n1nccn1	
InChI=1S/C6H11N3/c1-3-6(2)9-7-4-5-8-9/h4-6H,3H2,1-2H3	InChI=1S/C6H11N3/c1-3-6(2)9-7-4-5-8-9/h4-6H,3H2,1-2H3/t6-/m1/s1
