23
gdb 82985	3.38151	1.49005	1.39641	0.1042	87.85	-0.2747	0.0866	0.3613	1064.1858	0.210312	-351.165288	-351.158036	-351.157091	-351.196424	31.096	
C	-0.2248291063	 1.5984173414	-0.0010789533	-0.436551
C	 0.0449833664	 0.0999425212	 0.0018022532	 0.045449
C	 1.1258881183	-0.5658715247	-0.9103926248	-0.048405
C	 2.4022739741	 0.1981701843	-0.5142923604	-0.226509
C	 2.3293560626	-0.0484997821	 1.0277257263	-0.006203
C	 3.17324838	-1.2983038796	 1.3394212735	-0.210119
C	 2.4806423032	-2.3950526215	 0.4757826069	-0.250499
C	 1.131032689	-1.7508963979	 0.1271924303	 0.011809
C	 0.8654163678	-0.5812665496	 1.1230179866	-0.041557
H	 0.6716282258	 2.190445643	 0.2028815626	 0.115813
H	-0.6283988195	 1.9256971781	-0.9663628411	 0.111717
H	-0.9643949618	 1.8542268303	 0.7659955869	 0.112357
H	-0.9034161323	-0.4357456754	-0.1224578649	 0.063768
H	 0.9472849723	-0.7349442099	-1.9742161079	 0.048349
H	 3.3115091391	-0.221666626	-0.9555349869	 0.087976
H	 2.3611077432	 1.2533627702	-0.7950355144	 0.091594
H	 2.5678125586	 0.8206476317	 1.6435293128	 0.052705
H	 4.2314935684	-1.1610445369	 1.0956950723	 0.089569
H	 3.1120184094	-1.549974515	 2.4045752393	 0.089952
H	 3.0598976822	-2.6434776651	-0.4199474774	 0.097013
H	 2.3463224131	-3.3270118739	 1.0329550815	 0.093653
H	 0.2976135406	-2.4400018757	-0.0179802829	 0.058783
H	 0.4669763558	-0.7445718468	 2.1264653718	 0.049335
177.7889	198.4967	239.699	273.8988	401.2958	419.7689	507.5413	598.3695	669.4658	709.1554	746.1583	792.7028	810.6317	833.3351	874.1503	882.2213	916.4522	930.9691	960.4682	968.4825	988.4685	996.2829	1026.5886	1052.862	1070.5078	1082.4967	1094.3983	1134.3008	1142.4766	1163.7566	1192.2313	1208.4863	1213.7205	1237.8251	1254.8894	1274.2789	1283.8126	1302.1589	1312.8664	1329.1842	1342.331	1358.5231	1403.9391	1415.8789	1488.4793	1493.5008	1496.3559	1504.6364	1522.3339	3027.8729	3032.4055	3034.8826	3044.6383	3053.4848	3071.6075	3084.3493	3086.3164	3087.2697	3089.7068	3092.4171	3096.4555	3106.4173	3110.0481
CC1C2CC3CCC2C13	C[C@H]1[C@H]2C[C@@H]3CC[C@H]2[C@H]13	
InChI=1S/C9H14/c1-5-8-4-6-2-3-7(8)9(5)6/h5-9H,2-4H2,1H3	InChI=1S/C9H14/c1-5-8-4-6-2-3-7(8)9(5)6/h5-9H,2-4H2,1H3/t5-,6-,7+,8+,9+/m0/s1
