18
gdb 28880	2.26457	1.79675	1.00997	2.6738	83.7	-0.1956	0.0153	0.2108	1146.7584	0.148939	-402.023048	-402.014509	-402.013565	-402.055637	33.519	
C	 0.1169940051	 1.5222624815	 0.0479936806	-0.552946
C	 0.0495125637	 0.0138861399	 0.0245610617	 0.108062
C	 0.0748150483	-0.6800755155	-1.2013102273	 0.249514
N	 0.1595855058	 0.036624601	-2.4056523942	-0.593108
C	 0.0818753504	-2.0791540749	-1.2189760891	-0.206944
C	 0.053889421	-2.7907446032	-0.0259379101	-0.096109
C	-0.0021419172	-2.1302226135	 1.1932488137	-0.217328
C	-0.0121578108	-0.7351795088	 1.2084930006	 0.321445
O	-0.072583716	-0.1441708638	 2.4390661909	-0.442777
H	 0.7234366703	 1.8908225719	-0.7848606869	 0.145554
H	-0.868745556	 2.0031440573	-0.0242242759	 0.126629
H	 0.5962763043	 1.9012364842	 0.9584462543	 0.11877
H	-0.3923190497	 0.882206593	-2.434505921	 0.245091
H	-0.028738341	-0.5313267027	-3.219894482	 0.2431
H	 0.1061960327	-2.6007871263	-2.1707993073	 0.073581
H	 0.0594819857	-3.8756626544	-0.0488325818	 0.091161
H	-0.0435873153	-2.6636637188	 2.1348719353	 0.094547
H	-0.1669417914	 0.806756573	 2.3324685985	 0.291758
116.5228	146.2533	233.0729	267.7292	293.8074	327.1283	349.4842	384.6846	492.255	504.5357	509.5871	549.752	611.486	676.7445	694.4503	730.5533	793.634	825.886	846.8886	931.5057	938.	1050.4312	1063.6664	1088.1612	1157.9737	1171.3769	1202.3939	1240.0466	1316.334	1341.8515	1372.3441	1413.7785	1483.5074	1506.9638	1514.5393	1525.7864	1632.6998	1649.3031	1666.3853	3003.7185	3057.8543	3094.8483	3164.4848	3183.9848	3208.7678	3555.8694	3648.4108	3837.4332
CC1=C(N)C=CC=C1O	Cc1c(N)cccc1O	
InChI=1S/C7H9NO/c1-5-6(8)3-2-4-7(5)9/h2-4,9H,8H2,1H3	InChI=1S/C7H9NO/c1-5-6(8)3-2-4-7(5)9/h2-4,9H,8H2,1H3
