16
gdb 31581	3.36942	1.192	0.89063	1.049	69.47	-0.1831	0.0406	0.2237	1264.4078	0.125228	-471.226627	-471.217757	-471.216813	-471.260045	32.439	
C	 0.0072258212	 1.3197007719	-0.0146467353	-0.234431
O	-0.0719911001	-0.1090584435	-0.0137789752	-0.251219
C	-1.3044747921	-0.5979332216	-0.0111684203	 0.49873
N	-2.4269175378	 0.0541081714	 0.0023667262	-0.436328
C	-3.3820089147	-0.9603644562	 0.0093012752	 0.259853
N	-4.7333430863	-0.650033419	-0.0499626689	-0.597038
C	-2.783479596	-2.1772819221	 0.0088242378	 0.181934
N	-3.2761558807	-3.470356589	 0.0118847735	-0.605356
O	-1.3802823894	-1.9253470199	-0.0184110766	-0.224894
H	 1.071451167	 1.5546630971	-0.0267076995	 0.135832
H	-0.4880356635	 1.7319293542	-0.8980656057	 0.144229
H	-0.466912564	 1.7321576246	 0.8803232226	 0.140926
H	-4.9548980082	 0.200260289	 0.4505909016	 0.249569
H	-5.3198254433	-1.4202359053	 0.242427339	 0.250495
H	-3.0973623937	-3.9871495919	-0.8436437272	 0.244418
H	-2.9648333583	-4.0281919297	 0.8004291426	 0.24328
96.4486	143.7331	198.9269	207.8517	237.1248	253.8768	307.2807	319.0243	397.5151	410.8772	566.162	649.2678	672.2952	676.7125	735.0884	753.6542	773.8259	823.8716	994.3115	1045.6259	1099.439	1119.2533	1182.9694	1211.9366	1224.5635	1325.3447	1407.612	1432.5749	1477.7629	1478.7435	1502.017	1625.7844	1640.8038	1662.5368	1765.1566	3046.2018	3119.0776	3158.6385	3484.4369	3545.5513	3546.8357	3648.1794
COC1=NC(N)=C(N)O1	COc1nc(N)c(N)o1	
InChI=1S/C4H7N3O2/c1-8-4-7-2(5)3(6)9-4/h5-6H2,1H3	InChI=1S/C4H7N3O2/c1-8-4-7-2(5)3(6)9-4/h5-6H2,1H3
