19
gdb 17967	2.63553	2.40972	1.46485	2.2701	71.91	-0.2486	0.0098	0.2584	900.1474	0.167977	-365.06691	-365.059556	-365.058612	-365.098253	28.498	
C	-0.0032016037	 1.4798835932	-0.0482946307	-0.178746
C	 1.3729375412	 2.1744627255	 0.0289178672	-0.207779
C	 1.8433756491	 2.5017298108	 1.4483672126	-0.076993
O	 1.6980839728	 1.3961373662	 2.3463229426	-0.221717
C	 2.3813417507	 0.2714232383	 1.9688050499	 0.093293
N	 1.8434857258	-0.7721906366	 1.5174636537	-0.211229
C	 0.3913103033	-0.7508057626	 1.3067884822	-0.146274
C	-0.011063137	-0.0623725991	-0.0114340114	-0.186054
H	-0.6536990163	 1.8680398193	 0.7463161588	 0.099682
H	-0.4758905269	 1.77318821	-0.9929514747	 0.096977
H	 2.1249173378	 1.5600087287	-0.4807392197	 0.110325
H	 1.340182542	 3.1260949326	-0.5158437148	 0.098069
H	 2.8879335589	 2.8487539103	 1.4380727755	 0.098896
H	 1.2292166262	 3.2932255921	 1.8871754996	 0.117592
H	 3.4649945267	 0.3266019835	 2.107135181	 0.106247
H	 0.0629820223	-1.7936218102	 1.2641658207	 0.098214
H	-0.1282188089	-0.2701922484	 2.1447989022	 0.107882
H	-1.0301603102	-0.3913535574	-0.2493543388	 0.096413
H	 0.6300504563	-0.4486389962	-0.814185926	 0.105203
132.9462	179.4643	218.1299	277.2675	312.4232	345.7425	438.5995	508.6014	585.3082	698.3255	749.0939	802.3203	872.7883	881.6701	905.4397	950.3377	997.379	1014.5179	1028.6895	1056.455	1101.4103	1123.9452	1149.8018	1215.897	1241.5827	1281.167	1297.0938	1309.9251	1365.9144	1378.4626	1385.5276	1391.066	1394.0282	1413.9781	1472.7912	1481.859	1483.9443	1500.1333	1501.6442	1749.1358	2993.1878	3018.1468	3022.4886	3026.7781	3028.4079	3057.3222	3061.6518	3066.4009	3077.5631	3092.498	3093.9244
C1CCOC=NCC1	C1CCOC=NCC1	
InChI=1S/C6H11NO/c1-2-4-7-6-8-5-3-1/h6H,1-5H2/b7-6-	InChI=1S/C6H11NO/c1-2-4-7-6-8-5-3-1/h6H,1-5H2/b7-6-
