14
gdb 31388	3.09612	1.25703	0.90249	5.1595	66.17	-0.2523	-0.0458	0.2065	1191.3305	0.101396	-473.861377	-473.85363	-473.852686	-473.894261	27.997	
O	 0.5035595001	 0.6567426312	-0.8419238544	-0.393021
C	-0.1339287521	 0.2975281119	 0.3580804123	-0.152124
C	-1.4493636861	-0.4047717311	 0.1416409916	 0.338218
C	-1.9656264384	-0.8144094967	-1.0255531824	-0.325176
C	-3.2734466978	-1.4740743693	-1.0702954476	 0.396758
O	-3.8073696907	-1.8541552663	-2.0862563819	-0.335302
N	-3.906909931	-1.6508911757	 0.198595725	-0.297425
C	-3.3203713732	-1.2297694579	 1.2388867265	 0.123476
O	-2.1164942708	-0.5981958889	 1.317066672	-0.216741
H	-0.0095183191	 1.3564947748	-1.2601549217	 0.297005
H	 0.547768447	-0.3796291913	 0.8867610467	 0.151232
H	-0.3038519823	 1.1548916828	 1.0279957825	 0.124531
H	-1.4137571236	-0.668326384	-1.9440680782	 0.135392
H	-3.7460765722	-1.3347798995	 2.2334249197	 0.153177
83.9549	123.0742	169.0548	187.9905	328.4957	406.9957	436.572	490.529	539.9855	564.9551	612.6153	781.5627	793.1577	882.3238	906.4172	948.8438	973.4518	993.7322	1072.637	1111.8724	1169.4496	1210.8712	1224.7957	1327.8609	1395.7676	1412.8256	1423.2439	1482.5545	1643.3561	1724.3344	1802.9886	2991.4374	3060.9933	3181.171	3234.3618	3813.5313
OCC1=CC(=O)N=CO1	OCc1cc(=O)nco1	
InChI=1S/C5H5NO3/c7-2-4-1-5(8)6-3-9-4/h1,3,7H,2H2	InChI=1S/C5H5NO3/c7-2-4-1-5(8)6-3-9-4/h1,3,7H,2H2
