15
gdb 43097	3.25993	1.95874	1.68198	2.3384	62.74	-0.2409	-0.0187	0.2222	812.9926	0.115604	-457.759461	-457.753768	-457.752824	-457.789407	23.987	
O	-0.0140946208	 0.015005347	-0.023442942	-0.330247
C	-0.0261299345	 1.2094496832	 0.0056375552	 0.482219
C	-1.1676361043	 2.2430755822	 0.0569092109	-0.236475
C	-0.8014105987	 2.7595851665	 1.4792537746	-0.226636
C	 0.5125130395	 3.3945800657	 0.986785669	 0.032302
O	-0.0306682706	 4.3491488649	 0.0628774706	-0.236286
C	-0.5133484459	 3.3832888222	-0.8472431159	 0.183414
O	 0.707974547	 2.7901510242	-1.3001132733	-0.250657
C	 1.0936664691	 2.2670888384	-0.0137386041	-0.08793
H	-2.1811097121	 1.9219107141	-0.1605744806	 0.099063
H	-1.4784463595	 3.5181226532	 1.8737465442	 0.124935
H	-0.6847263881	 1.9460623151	 2.2019852388	 0.124354
H	 1.1978293771	 3.8640768997	 1.6871994009	 0.099945
H	-1.0763599118	 3.8216436536	-1.6659893807	 0.114057
H	 2.1402306738	 1.98202082	 0.0178688623	 0.107941
171.1101	336.2778	456.0375	505.292	538.3756	626.8137	677.795	747.1818	767.3702	791.4822	816.3803	866.6204	884.0885	907.255	919.0793	926.0606	974.533	980.7562	1016.6534	1041.8185	1111.829	1128.7004	1156.0342	1189.2308	1222.2062	1230.5916	1246.7516	1274.8129	1288.5706	1311.3886	1338.1541	1484.408	1896.8564	3064.0838	3133.9809	3166.7527	3177.1912	3183.5326	3188.0921
O=C1C2CC3OC2OC13	O=C1[C@H]2C[C@@H]3O[C@H]2O[C@H]13	
InChI=1S/C6H6O3/c7-4-2-1-3-5(4)9-6(2)8-3/h2-3,5-6H,1H2	InChI=1S/C6H6O3/c7-4-2-1-3-5(4)9-6(2)8-3/h2-3,5-6H,1H2/t2-,3+,5+,6+/m1/s1
