20
gdb 108554	3.27452	1.42091	1.24324	0.6057	77.35	-0.2303	0.0823	0.3126	1089.7174	0.172339	-403.10531	-403.097519	-403.096574	-403.137575	30.831	
C	-0.005378584	 1.4739037612	-0.2577657922	-0.385162
C	-0.0609452733	-0.0020983646	 0.1564128986	-0.274589
C	-1.4669706267	-0.5506126938	 0.1837003643	 0.326023
C	-2.4811726288	 0.0003717721	 1.186736602	-0.153184
O	-3.4289279218	-1.0499504009	 1.405792014	-0.261669
C	-3.2878257726	-1.9304812132	 0.3037165615	 0.06506
C	-3.4646185471	-1.1824801359	-1.0391951381	-0.183562
N	-1.9792262544	-0.9746873322	-1.1632016735	-0.192818
C	-1.7825072929	-1.9719402939	-0.0425232395	-0.126987
H	 1.0286784126	 1.8279118388	-0.3024480029	 0.114235
H	-0.4561949298	 1.6095863567	-1.2451818387	 0.135196
H	-0.5426098541	 2.113522671	 0.4509447327	 0.11554
H	 0.526811121	-0.6008511833	-0.546801273	 0.111627
H	 0.3926593361	-0.1334465123	 1.1473370257	 0.098843
H	-2.00034931	 0.2461035824	 2.1405387207	 0.109397
H	-2.9858852072	 0.904060458	 0.8181678493	 0.1042
H	-3.8549248773	-2.8394462581	 0.498927492	 0.088578
H	-3.7879354831	-1.8311297169	-1.8571959829	 0.112078
H	-4.0766686727	-0.2744245563	-1.0267125876	 0.104599
H	-1.0887181638	-2.802881709	-0.0886841826	 0.092594
80.8739	155.7791	211.5186	262.0084	336.5036	347.7685	420.7935	463.5301	599.5308	659.2912	690.7882	784.4777	803.2437	854.7265	862.9608	901.0796	907.7864	962.9593	980.2943	986.9639	1014.1398	1036.8732	1051.896	1080.9527	1112.665	1128.5272	1164.8225	1191.6611	1213.7064	1230.8792	1266.8066	1292.0896	1300.5017	1338.1977	1351.1934	1375.0616	1408.6325	1426.0785	1475.8792	1493.9955	1499.5163	1508.0252	1521.4627	3005.1298	3026.4388	3036.9582	3046.2546	3055.7987	3075.2515	3105.0144	3106.4159	3117.8001	3131.7275	3184.8197
CCC12COC3CN1C23	CC[C@@]12CO[C@H]3CN1[C@@H]23	
InChI=1S/C7H11NO/c1-2-7-4-9-5-3-8(7)6(5)7/h5-6H,2-4H2,1H3	InChI=1S/C7H11NO/c1-2-7-4-9-5-3-8(7)6(5)7/h5-6H,2-4H2,1H3/t5-,6+,7-,8?/m0/s1
