20
gdb 114270	4.09846	1.1977	1.12136	2.9351	81.67	-0.2065	0.0477	0.2542	1167.22	0.170927	-402.973157	-402.9652	-402.964256	-403.005523	31.368	
C	-0.0812246709	 1.6096171035	 0.2980957074	-0.240931
O	 0.3674093374	 0.332895401	-0.1091754645	-0.224593
C	 0.7630025675	-0.4819039113	 0.9537565202	 0.073794
C	-0.4066925556	-1.2178240027	 1.7909648192	-0.383758
C	-0.0149394782	-2.4789554232	 0.9819882763	 0.24195
C	 0.6178739636	-3.885467553	 0.718724491	-0.25084
N	 1.1473526943	-3.0348219384	-0.4853605042	-0.182475
C	-0.2899706878	-2.4986117297	-0.5432932223	-0.192172
C	 1.3333323516	-1.9282995935	 0.6286247213	 0.005292
H	 0.7001943104	 2.1487222053	 0.8552437463	 0.109788
H	-0.3235209684	 2.1690987153	-0.6079763459	 0.133133
H	-0.9785794443	 1.5491257059	 0.9305783395	 0.112196
H	 1.4624796592	 0.0663601748	 1.6034662018	 0.077645
H	-0.1581059464	-1.2583738758	 2.8548503611	 0.108335
H	-1.4228011994	-0.8327884012	 1.6662295947	 0.106911
H	 1.4039627637	-4.2203953937	 1.400439024	 0.10544
H	-0.0155311453	-4.7142775917	 0.3875293787	 0.103286
H	-1.0129405115	-3.2338650655	-0.909552187	 0.088369
H	-0.3772031971	-1.5509686288	-1.0709677849	 0.134497
H	 2.1996970275	-2.1500249875	 1.2569254872	 0.074131
99.7289	157.2096	166.2294	231.13	323.4255	359.7788	416.3036	447.8663	584.4842	615.3693	693.4348	756.1239	765.9576	823.0145	862.5266	888.7236	903.8526	939.7937	983.204	1004.0103	1014.404	1057.7996	1073.9111	1097.1645	1157.4363	1167.7042	1171.7071	1183.1944	1190.4486	1200.1439	1214.8957	1223.5525	1230.5621	1260.6448	1286.7392	1352.8846	1386.0632	1462.4003	1479.5369	1485.9395	1506.2146	1508.9918	1550.8555	2975.2042	2983.8031	3033.0301	3044.4504	3053.0912	3056.1465	3072.1806	3115.992	3120.7312	3122.554	3165.5402
COC1CC23CN(C2)C13	CO[C@H]1C[C@@]23CN(C2)[C@@H]13	
InChI=1S/C7H11NO/c1-9-5-2-7-3-8(4-7)6(5)7/h5-6H,2-4H2,1H3	InChI=1S/C7H11NO/c1-9-5-2-7-3-8(4-7)6(5)7/h5-6H,2-4H2,1H3/t5-,6-/m0/s1
