17
gdb 55577	3.78062	0.77298	0.68618	3.7032	73.28	-0.2529	-0.0421	0.2108	1614.5257	0.133792	-455.195528	-455.185712	-455.184768	-455.231916	33.714	
C	-0.1249112056	 1.5033986861	-0.3922231585	-0.468485
C	 0.1834852909	 0.0710060208	-0.0379101531	 0.376414
N	 1.3732647416	-0.3584285938	 0.0177267309	-0.480771
N	-0.9928689806	-0.6883579026	 0.2121576732	-0.378652
C	-1.0598127634	-2.0149527829	 0.5647717774	 0.415447
O	-0.0893447986	-2.7364377738	 0.6995944305	-0.35462
C	-2.4708708804	-2.5601327875	 0.7613372342	-0.396135
C	-2.7015656069	-3.784047918	-0.1197181699	 0.166249
O	-3.7249834712	-3.9873062739	-0.7149501745	-0.229933
H	 0.8115877845	 2.0293118819	-0.5712892548	 0.16272
H	-0.7472195041	 1.5620271497	-1.2929777136	 0.135274
H	-0.6676878291	 2.0029791817	 0.4188888284	 0.133685
H	 1.3908873765	-1.3471580988	 0.2700993356	 0.252557
H	-1.868953243	-0.1975205149	 0.1237440187	 0.257117
H	-2.5285202408	-2.903294934	 1.802690359	 0.167344
H	-3.270621405	-1.8365608835	 0.5880990359	 0.123705
H	-1.8388191849	-4.4791178166	-0.1577793595	 0.118085
29.6914	70.74	108.3551	114.3891	165.4927	187.4002	259.8359	340.188	388.2934	474.928	516.9444	546.2514	565.947	635.1934	737.5892	807.1517	900.7937	935.7959	971.2378	1027.27	1045.9046	1055.2484	1083.3615	1123.1197	1156.9083	1233.4047	1306.0755	1355.2316	1404.2116	1409.7438	1444.755	1471.1951	1484.8801	1510.643	1739.0317	1785.6265	1839.8481	2941.5671	3031.6264	3037.6823	3086.2471	3114.574	3167.7441	3487.4361	3628.2937
CC(=N)NC(=O)CC=O	CC(=N)NC(=O)CC=O	
InChI=1S/C5H8N2O2/c1-4(6)7-5(9)2-3-8/h3H,2H2,1H3,(H2,6,7,9)	InChI=1S/C5H8N2O2/c1-4(6)7-5(9)2-3-8/h3H,2H2,1H3,(H2,6,7,9)
