13
gdb 34906	2.02276	1.94501	1.21758	7.3182	66.17	-0.3011	-0.0136	0.2874	988.6357	0.089264	-415.580768	-415.573271	-415.572327	-415.61331	26.95	
N	-0.2901651618	-1.1944561025	 0.0139577373	-0.310726
C	-0.1596691945	-0.0467366776	 0.0238861243	 0.316293
C	-0.0234623335	 1.3993563593	 0.0302644813	-0.216805
C	-0.2654466754	 2.1228207516	 1.3741752768	 0.026531
O	 0.739032066	 1.6861358282	 2.2795780466	-0.206447
C	 1.0778710477	 2.7188356578	 1.3641545283	 0.026478
C	 1.4356249362	 2.0460311859	 0.0198210213	-0.216775
C	 2.5984590741	 1.1757307795	 0.0046321168	 0.316366
N	 3.5363470987	 0.5015982936	-0.0127393415	-0.31074
H	-0.6174446408	 1.8291675802	-0.7798735459	 0.146795
H	-1.20829936	 2.4694132929	 1.7766721218	 0.141143
H	 1.4586297223	 3.6526233657	 1.7567842215	 0.141132
H	 1.506462851	 2.7702674254	-0.7952440586	 0.146754
94.3424	99.7521	163.6378	216.9346	335.7642	412.3764	452.9501	525.5935	609.4705	666.4912	766.9204	775.1056	864.9269	886.4878	905.5964	927.9629	1039.1908	1039.5756	1060.7183	1071.1127	1156.4295	1224.0982	1231.46	1245.7542	1325.8129	1338.4793	1398.1027	2365.6324	2366.3253	3088.0093	3098.7881	3207.1888	3221.2811
N#CC1C2OC2C1C#N	N#C[C@H]1[C@H]2O[C@H]2[C@H]1C#N	
InChI=1S/C6H4N2O/c7-1-3-4(2-8)6-5(3)9-6/h3-6H	InChI=1S/C6H4N2O/c7-1-3-4(2-8)6-5(3)9-6/h3-6H/t3-,4+,5-,6+
