17
gdb 17476	3.51688	2.55755	2.01578	1.5816	71.33	-0.2118	0.0059	0.2177	742.5668	0.143756	-326.691805	-326.685488	-326.684544	-326.721645	26.205	
C	-0.0628460202	 1.5425267344	-0.0119418029	-0.484013
C	-0.0024459845	 0.0350236916	 0.0373639201	 0.293235
C	 0.3355152788	-0.7525016232	-1.2794343604	-0.274523
C	-0.8382923087	-1.6457022749	-0.9280757664	-0.047028
C	-0.9344207447	-1.9889160873	 0.5382201994	-0.072664
C	 0.2626596018	-1.8128859385	 1.4034097189	-0.083862
C	 0.7808956319	-0.6090668214	 1.1603782855	-0.125631
N	-1.3850204928	-0.6596995249	 0.0687200195	-0.162882
H	 0.9369991683	 1.9661246118	-0.1586363189	 0.114331
H	-0.7016374761	 1.8781566164	-0.8340301216	 0.122594
H	-0.4723118245	 1.94244892	 0.9212242951	 0.126792
H	 0.0975409565	-0.1507342526	-2.1604692639	 0.110296
H	 1.3344261823	-1.1859002519	-1.3861010416	 0.096425
H	-1.4819503287	-2.140342663	-1.6501820378	 0.091308
H	-1.7295985153	-2.6715621198	 0.8231608163	 0.090424
H	 0.6364982178	-2.5693836791	 2.080903412	 0.104484
H	 1.6933867981	-0.1910565675	 1.5677763868	 0.100713
205.4375	269.2806	284.5939	378.2512	414.207	540.8545	607.3141	705.0775	734.9062	761.9911	774.7028	793.818	827.348	871.1262	904.2767	939.9356	961.1485	981.9604	1022.9919	1038.8524	1071.6575	1096.2936	1123.0683	1149.667	1165.5724	1214.6063	1250.9757	1270.8983	1336.5276	1360.8936	1377.0554	1412.5461	1480.2353	1485.0386	1495.374	1659.2715	3032.4022	3048.4176	3101.875	3106.2156	3112.2257	3145.0979	3158.3673	3200.612	3228.5846
CC12CC3C(C=C1)N23	C[C@@]12C[C@H]3[C@@H](C=C1)N23	
InChI=1S/C7H9N/c1-7-3-2-5-6(4-7)8(5)7/h2-3,5-6H,4H2,1H3	InChI=1S/C7H9N/c1-7-3-2-5-6(4-7)8(5)7/h2-3,5-6H,4H2,1H3/t5-,6+,7+,8?/m1/s1
