16
gdb 69220	2.73446	1.62925	1.16677	1.8056	71.93	-0.2504	-0.0223	0.2281	1040.7091	0.125888	-434.09653	-434.088756	-434.087812	-434.12863	29.911	
C	-0.0551290385	 1.5334685224	-0.0001725692	-0.487672
C	 0.1058979247	 0.0401668912	-0.0002496752	 0.268608
N	-0.7529855363	-0.8379447831	 0.8336371088	-0.35688
C	 0.7126974344	-0.7791772189	 1.0827118239	-0.250514
C	 1.4076118823	-1.9485732944	 0.4291901127	 0.472284
O	 2.0894280249	-2.8050848183	 0.9317322694	-0.357653
N	 1.1221457017	-1.8312691804	-0.930435619	-0.387378
C	 0.4418832503	-0.6657647379	-1.2909509157	 0.390271
N	 0.160303759	-0.209223609	-2.4394172894	-0.539315
H	 0.8444898958	 2.0226893952	-0.3840725431	 0.140571
H	-0.889178401	 1.8232229799	-0.6448327007	 0.155601
H	-0.2447059232	 1.9025146772	 1.0126033571	 0.114875
H	-1.2119579679	-0.2542755657	 1.5328143127	 0.240265
H	 1.1006480155	-0.37937769	 2.0107832353	 0.1194
H	 1.4224231879	-2.534407824	-1.5889586236	 0.261318
H	 0.4765750104	-0.8269436341	-3.1890634539	 0.21622
138.1608	141.8902	193.2136	263.0023	312.5662	345.6595	416.3356	524.0329	550.5256	568.894	633.1452	692.2695	739.641	764.3588	840.6093	871.3589	887.1314	892.7058	978.2401	1022.0987	1052.4851	1080.4	1120.068	1131.0014	1211.5127	1295.7834	1326.2099	1365.2464	1388.893	1415.2877	1443.2086	1477.3027	1498.9158	1766.836	1859.3953	3043.5509	3115.6443	3122.5893	3206.7905	3459.6193	3472.3039	3629.4341
CC12NC1C(=O)NC2=N	C[C@]12N[C@H]1C(=O)N[C]2[NH]	
InChI=1S/C5H7N3O/c1-5-2(8-5)3(9)7-4(5)6/h2,8H,1H3,(H2,6,7,9)	InChI=1S/C5H7N3O/c1-5-2(8-5)3(9)7-4(5)6/h2,8H,1H3,(H2,6,7,9)/t2-,5-/m0/s1
