21
gdb 77690	2.5966	1.3263	1.17733	1.1637	79.01	-0.248	0.071	0.3191	1170.7122	0.180369	-424.20225	-424.192691	-424.191747	-424.23583	37.266	
C	 0.7157445267	 1.3347000254	-0.1292829584	-0.435702
C	-0.0810433025	 0.0392233101	-0.0638601078	 0.361029
O	-1.476818596	 0.2808063647	-0.0751786663	-0.488221
C	 0.452454037	-1.0764053029	-1.0268987368	-0.378694
C	 1.1845940515	-1.6849311935	 0.174655191	 0.363591
C	 1.769206944	-3.0477973671	 0.370991538	-0.34629
C	 2.671169835	-1.8346313329	 0.3231050862	-0.307554
C	 0.3154480593	-0.877438891	 1.1336411911	 0.024009
O	 0.9902833185	-0.3291152518	 2.2404458056	-0.43021
H	 1.7894814943	 1.1436507581	-0.0630733209	 0.134058
H	 0.5205666984	 1.8543735297	-1.0758528203	 0.098865
H	 0.4366274112	 1.9970108218	 0.6950344339	 0.115861
H	-1.6771016463	 0.8582996505	-0.8197959587	 0.273236
H	-0.3691115456	-1.7021679928	-1.3877775206	 0.101774
H	 1.0632407865	-0.7504411116	-1.8736838483	 0.093765
H	 1.6203900516	-3.5325166584	 1.3310810201	 0.112861
H	 1.7772073396	-3.7263792082	-0.4761764658	 0.108316
H	 3.2885692514	-1.6904491835	-0.5580845732	 0.105515
H	 3.1133635958	-1.4924097048	 1.2520324159	 0.129321
H	-0.5727514937	-1.4456700833	 1.4449732696	 0.075435
H	 0.3350117433	 0.0220194516	 2.8510429957	 0.289036
77.8962	213.2983	220.0642	229.2761	234.8104	260.6152	274.0522	293.7249	346.2061	356.0547	406.6189	515.5999	529.3919	589.7975	732.0951	785.6645	800.1546	849.8356	885.8967	910.922	931.5645	959.6353	968.315	996.8617	1054.1209	1077.0106	1090.0701	1111.4427	1151.2772	1177.7506	1186.1993	1191.626	1209.8851	1241.7997	1259.2123	1312.1636	1369.1868	1384.4549	1407.9785	1441.1613	1462.0125	1480.942	1488.9204	1495.1084	1506.2696	3002.0287	3026.0586	3047.4057	3098.7971	3102.6773	3120.7768	3128.4523	3128.8474	3201.4743	3221.6463	3801.0424	3826.6073
CC1(O)CC2(CC2)C1O	C[C@@]1(O)CC2(CC2)[C@H]1O	
InChI=1S/C7H12O2/c1-6(9)4-7(2-3-7)5(6)8/h5,8-9H,2-4H2,1H3	InChI=1S/C7H12O2/c1-6(9)4-7(2-3-7)5(6)8/h5,8-9H,2-4H2,1H3/t5-,6+/m0/s1
