18
gdb 45524	3.28397	1.46526	1.08788	3.7201	80.84	-0.215	-0.0027	0.2123	1099.6398	0.150459	-401.992619	-401.985319	-401.984375	-402.024382	28.852	
O	 0.0449885647	 0.0083486093	 0.3481928508	-0.351425
C	-0.0409484728	 1.1717494963	 0.0684220104	 0.407749
C	-1.1741572726	 2.2104609265	-0.1182713141	-0.421704
C	-0.0370712759	 3.2432196813	-0.3606483162	 0.056825
C	 0.2566243763	 4.3532623558	 0.6432838728	-0.235457
C	 1.7410291134	 4.7678344934	 0.5159533301	-0.266185
C	 2.6721190645	 3.575464703	 0.4878145234	-0.109704
C	 2.2474214391	 2.3411870579	 0.1941191162	-0.00736
N	 0.9240550366	 2.1419676024	-0.1883262031	-0.094299
H	-1.8536327313	 2.0277540474	-0.9526068247	 0.132246
H	-1.7524733653	 2.3701549859	 0.7950283887	 0.134359
H	-0.0128073305	 3.6359320213	-1.3840948599	 0.088448
H	-0.4012990902	 5.2130283146	 0.4840003483	 0.104951
H	 0.0708174273	 3.9779170204	 1.6568359555	 0.108576
H	 1.8803470889	 5.3815861106	-0.3857883663	 0.113756
H	 2.0086718099	 5.4190015694	 1.3562877529	 0.1117
H	 3.7152669717	 3.7297437276	 0.7391202002	 0.097497
H	 2.8690327462	 1.4545296569	 0.2305077951	 0.130026
103.269	171.4551	219.1894	282.6102	412.4105	439.8835	498.6632	523.905	553.1741	682.7632	726.5478	737.0451	787.274	819.7324	880.3989	932.0913	954.4284	985.6107	998.8425	1037.0571	1059.9957	1081.6895	1117.8309	1127.6982	1201.6057	1222.0506	1227.0137	1248.6437	1304.5027	1330.6095	1352.8262	1361.6091	1395.8802	1428.6951	1458.8608	1476.408	1490.3147	1695.9048	1879.0846	3002.5065	3028.627	3038.3839	3055.8594	3079.4222	3089.9194	3136.685	3190.26	3214.8155
O=C1CC2CCC=CN12	O=C1C[C@H]2CCC=CN12	
InChI=1S/C7H9NO/c9-7-5-6-3-1-2-4-8(6)7/h2,4,6H,1,3,5H2	InChI=1S/C7H9NO/c9-7-5-6-3-1-2-4-8(6)7/h2,4,6H,1,3,5H2/t6-/m1/s1
