21
gdb 70295	3.52763	1.28274	1.17053	1.3271	82.28	-0.2159	0.0927	0.3086	1159.0274	0.182506	-387.071097	-387.062861	-387.061917	-387.103384	33.419	
C	-0.5872755472	 1.4573079505	 0.1724271348	-0.481758
C	 0.070996973	 0.1115183496	-0.0057742033	 0.310386
C	-0.534907028	-1.1366456977	 0.6239506379	-0.371482
C	 0.8027591934	-0.615124556	 1.089498288	 0.072802
O	 1.9711343811	-1.2208976961	 0.5965194962	-0.292449
C	 1.8616188917	-1.258986144	-0.8151789091	 0.445101
C	 3.0785925486	-1.691833209	-1.5595602691	-0.347445
C	 1.8734518321	-2.6144647482	-1.4746774665	-0.316794
C	 0.9215316612	-0.1360121003	-1.2484743733	-0.363629
H	 0.1389372658	 2.271452717	 0.0632572462	 0.116543
H	-1.3798738175	 1.6169958429	-0.5683103856	 0.117922
H	-1.0438516971	 1.5471647406	 1.1633559116	 0.114943
H	-1.3807617949	-0.9876341	 1.2876400759	 0.106567
H	-0.5641760561	-2.0605516353	 0.0569065844	 0.120605
H	 0.9389637969	-0.2253894468	 2.0916598641	 0.096365
H	 3.3023214814	-1.2106910127	-2.5059180434	 0.113348
H	 3.9474211606	-1.9519004287	-0.9654163887	 0.125078
H	 1.9567609776	-3.4758508909	-0.821527847	 0.120276
H	 1.2730625432	-2.7672295983	-2.3661972452	 0.107358
H	 0.3402352119	-0.4102951807	-2.134565936	 0.10374
H	 1.4828514324	 0.7768971841	-1.4848948619	 0.102523
101.5853	189.8243	207.1474	254.9087	306.6793	352.1185	373.0741	430.9538	451.3967	526.5801	608.8129	719.4147	767.4571	781.2058	843.8322	861.1049	869.8087	912.4939	922.2567	938.9995	972.7852	986.708	1022.6184	1036.048	1042.576	1050.8154	1073.955	1095.8789	1119.8582	1158.9112	1190.0741	1205.5759	1227.3285	1248.6225	1306.7295	1321.8911	1371.7755	1405.4543	1421.957	1450.0692	1475.4639	1489.7339	1493.8213	1498.9593	1505.9196	3019.4654	3024.2615	3074.5386	3079.007	3095.6174	3125.1037	3128.7133	3132.5886	3180.1798	3212.9894	3217.7169	3227.3986
CC12CC1OC1(CC1)C2	C[C@]12C[C@H]1OC1(CC1)C2	
InChI=1S/C8H12O/c1-7-4-6(7)9-8(5-7)2-3-8/h6H,2-5H2,1H3	InChI=1S/C8H12O/c1-7-4-6(7)9-8(5-7)2-3-8/h6H,2-5H2,1H3/t6-,7-/m1/s1
