19
gdb 55629	2.71142	1.1318	0.97433	3.9961	77.56	-0.2785	0.0116	0.29	1295.4918	0.156076	-419.236341	-419.225973	-419.225028	-419.271554	37.282	
C	-0.0251920364	 1.4786256406	-0.2253372988	-0.456434
C	-0.0209060572	 0.0142284641	 0.1359066238	 0.403614
N	-0.0620947317	-0.5098659085	 1.2907189428	-0.516831
O	 0.0364425515	-0.7151441094	-1.0031407362	-0.285811
C	 0.0557090634	-2.1659719001	-0.9916257293	 0.212678
C	 1.3160753542	-2.7181447774	-0.3058748947	-0.419182
C	-1.2417287857	-2.7529682367	-0.4121827171	-0.419159
C	 0.1201273663	-2.4971292624	-2.4334712094	 0.286908
N	 0.1705301053	-2.802023801	-3.5460811407	-0.335117
H	 0.8765589459	 1.7278776605	-0.7922330606	 0.153646
H	-0.8822270608	 1.7044161272	-0.8665598633	 0.153643
H	-0.0712551351	 2.1001727553	 0.6701390093	 0.128966
H	-0.1015192454	 0.2118111329	 2.006362461	 0.225503
H	 1.2705953278	-2.5095489819	 0.7617935572	 0.163424
H	 1.3731652958	-3.7976646112	-0.4682427846	 0.135127
H	 2.2097832608	-2.2567234	-0.7326731564	 0.135241
H	-2.1091499345	-2.3148254543	-0.9115960392	 0.13524
H	-1.2562425303	-3.8333181298	-0.5783644277	 0.135118
H	-1.2903797138	-2.5451215278	 0.655488014	 0.163425
76.0807	107.114	123.7038	133.5787	194.8294	242.6039	249.2787	253.9329	309.5278	375.9236	394.1944	403.0848	565.8645	576.6613	592.0332	601.4735	740.9211	828.9573	845.9815	939.8566	950.7202	957.1665	1027.116	1048.7145	1068.1135	1105.5428	1187.4918	1192.5471	1261.9386	1370.5135	1389.1232	1406.4432	1416.2608	1469.5208	1470.1094	1480.6041	1490.5248	1495.0484	1514.0971	1726.0307	2365.3262	3051.6267	3057.9654	3061.5194	3117.7021	3129.7927	3132.7283	3145.6814	3172.2748	3174.5476	3517.0225
CC(=N)OC(C)(C)C#N	C[C]([NH])OC(C)(C)C#N	
InChI=1S/C6H10N2O/c1-5(8)9-6(2,3)4-7/h8H,1-3H3	InChI=1S/C6H10N2O/c1-5(8)9-6(2,3)4-7/h8H,1-3H3
