18
gdb 17845	4.55416	1.81109	1.56162	1.9049	71.57	-0.2306	0.0847	0.3153	863.8715	0.154498	-347.718879	-347.712202	-347.711257	-347.749671	26.753	
C	-0.0656986752	 1.5639075002	-0.1481725863	-0.213459
C	 1.4822070225	 1.5930543181	 0.0100855729	-0.324461
C	 1.4018775245	 0.1574846371	 0.580693111	 0.446827
C	-0.042524156	 0.0217976982	 0.0623708276	-0.305317
C	 2.4686152204	-0.9599985969	 0.5433768616	-0.034899
C	 3.2765822033	-0.2265194198	 1.6397060606	-0.233324
C	 1.7804999249	-0.2419779577	 2.0307069184	-0.01677
O	 1.712893965	-1.6630335911	 1.6125718155	-0.319713
H	-0.5719187513	 2.0850890578	 0.6685722896	 0.103717
H	-0.4709486481	 1.929961917	-1.0936174244	 0.099087
H	 1.9980197628	 1.6239600456	-0.9549555438	 0.103973
H	 1.9075700624	 2.3694088683	 0.6514383134	 0.099985
H	-0.7749734173	-0.4104281215	 0.7465022098	 0.109633
H	-0.0901138336	-0.5271842696	-0.8831922562	 0.101763
H	 2.8196042457	-1.5579153911	-0.2993694169	 0.087444
H	 3.9162796439	-0.8688076254	 2.2459430932	 0.10609
H	 3.7402679982	 0.7311137491	 1.3912775958	 0.099059
H	 1.3034261378	 0.0267372617	 2.9747274182	 0.090366
92.6892	218.6119	228.8064	329.2997	440.1044	540.1666	639.2872	694.2658	735.5283	768.1979	804.6204	856.5888	877.4349	882.1	918.5774	936.322	955.2988	1012.8429	1018.966	1045.3308	1088.85	1122.4139	1144.6813	1160.5307	1171.404	1185.63	1204.6006	1205.9854	1248.7043	1253.1989	1268.8085	1278.376	1282.6406	1345.2197	1472.258	1481.6831	1484.3101	1504.3791	3047.4147	3056.478	3063.8465	3065.546	3095.0103	3100.7295	3107.9747	3110.0238	3123.6247	3147.5762
C1CC2(C1)C1CC2O1	C1CC2(C1)[C@H]1C[C@@H]2O1	
InChI=1S/C7H10O/c1-2-7(3-1)5-4-6(7)8-5/h5-6H,1-4H2	InChI=1S/C7H10O/c1-2-7(3-1)5-4-6(7)8-5/h5-6H,1-4H2/t5-,6+
