17
gdb 31797	4.73462	0.99431	0.87643	1.7472	78.56	-0.2425	-0.0346	0.2079	1334.6922	0.136311	-418.057925	-418.048957	-418.048013	-418.093892	31.	
C	 0.0163219755	 1.5117849509	 0.0276453644	-0.500449
C	 0.0125572616	 0.008091589	-0.0065288817	 0.241263
C	-0.1352350848	-0.7195429218	-1.1842798717	-0.056404
N	-0.1151774548	-2.0532234541	-1.2307419081	-0.282369
C	 0.0489804126	-2.6864209517	-0.0671601519	 0.359818
C	 0.102419747	-4.1954017474	-0.0954948191	-0.153633
O	 1.4373289793	-4.5883041558	 0.1968953307	-0.417522
N	 0.1726101036	-2.1006387888	 1.1301847436	-0.262773
C	 0.1570997247	-0.7714858613	 1.1441553654	-0.052941
H	 1.0335390982	 1.9046356746	 0.1405520103	 0.144094
H	-0.3968901428	 1.9290491772	-0.8947760493	 0.132722
H	-0.572787302	 1.8939959778	 0.867102448	 0.136963
H	-0.2778951094	-0.2054525303	-2.1341075129	 0.109204
H	-0.5994238199	-4.5832622525	 0.6573930522	 0.099417
H	-0.2161260734	-4.5343426995	-1.0895509324	 0.103881
H	 1.4420546677	-5.5432395401	 0.3113302607	 0.289211
H	 0.2544095869	-0.2965694461	 2.1201739018	 0.109519
24.1533	29.0902	94.7499	178.1382	225.0371	285.4749	366.8621	396.9286	419.3365	493.5762	576.368	662.1853	746.1498	835.3353	870.0715	939.5406	994.7849	1003.6457	1031.7088	1061.117	1067.7347	1073.2515	1224.1544	1232.2461	1254.326	1264.806	1307.7332	1317.5577	1413.4927	1417.0706	1449.9074	1484.8213	1492.3146	1499.5759	1505.9912	1591.2767	1633.0064	2991.902	3032.8714	3044.9675	3090.4845	3115.1527	3131.0022	3135.8717	3827.7706	24.1511	29.0852	94.7496	178.1322	225.0369	285.4749	366.8621	396.9286	419.3364	493.5762	576.368	662.1852	746.1498	835.3352	870.0714	939.5402	994.7849	1003.6452	1031.7089	1061.1168	1067.7343	1073.2515	1224.1541	1232.2461	1254.3261	1264.8056	1307.7329	1317.5576	1413.4927	1417.0707	1449.9072	1484.8214	1492.3148	1499.5759	1505.9906	1591.2767	1633.0064	2991.9019	3032.8714	3044.9675	3090.4845	3115.1527	3131.0023	3135.8715	3827.7698
CC1=CN=C(CO)N=C1	Cc1cnc(CO)nc1	
InChI=1S/C6H8N2O/c1-5-2-7-6(4-9)8-3-5/h2-3,9H,4H2,1H3	InChI=1S/C6H8N2O/c1-5-2-7-6(4-9)8-3-5/h2-3,9H,4H2,1H3
