13
gdb 25166	3.05795	1.53558	1.02225	7.0078	76.35	-0.2418	-0.0799	0.1619	1056.8908	0.092653	-411.841117	-411.834046	-411.833102	-411.872858	26.353	
N	-0.060175986	 1.3460119554	 0.0106437602	-0.527649
C	-0.0256109932	 0.0730664253	 0.0036696647	 0.327229
N	 1.1463910978	-0.7215502612	-0.0076652214	-0.35349
C	 1.1467150667	-2.0766076814	-0.0148942249	 0.126252
N	 0.082561318	-2.8151542678	-0.0123755597	-0.286321
C	-1.1070042322	-2.1312368054	-0.0015078896	-0.053025
C	-1.2226564565	-0.7700352739	 0.0064466399	 0.065598
C	-2.5050248104	-0.1503986639	 0.0175336123	 0.260032
N	-3.5667475207	 0.3108316936	 0.0264385556	-0.331241
H	 0.8688097788	 1.7675492393	 0.00724649	 0.210007
H	 2.0317152678	-0.2337992017	-0.0104383727	 0.267629
H	 2.128161103	-2.5446800544	-0.0233468475	 0.14865
H	-2.0014994631	-2.7456490641	 0.0006504532	 0.146328
108.7822	154.3988	195.2711	349.1884	387.4059	469.0129	484.9666	578.1401	590.5255	590.5875	664.8313	741.5185	776.6872	813.0209	903.7116	953.8187	999.6956	1047.6558	1108.5957	1189.2298	1224.9552	1300.2748	1396.1759	1419.1528	1479.5831	1575.5148	1646.0862	1736.3004	2345.3935	3170.3942	3192.4918	3477.1887	3599.3348
N=C1NC=NC=C1C#N	[NH]C1=C(CN=CN1)C#N	
InChI=1S/C5H4N4/c6-1-4-2-8-3-9-5(4)7/h2-3H,(H2,7,8,9)	InChI=1S/C5H5N4/c6-1-4-2-8-3-9-5(4)7/h3,7H,2H2,(H,8,9)
