16
gdb 17488	3.6179	2.49703	1.98474	2.2362	62.75	-0.2153	0.0778	0.2931	729.0547	0.130908	-383.693962	-383.687627	-383.686683	-383.723994	25.533	
C	-0.0014160798	 1.4891031748	 0.0579022225	-0.490404
C	-0.0541793882	-0.008771241	-0.0722224108	 0.387289
C	 0.7578808795	-0.6732390471	-1.1816632569	-0.091183
O	 0.3687228034	-2.0508212782	-1.1387767449	-0.266712
C	-0.8167114698	-2.1241390236	-0.3838769294	 0.082951
C	-0.7858391545	-1.562858737	 1.0269078773	 0.056694
O	 0.3404990021	-0.7022042574	 1.1683236664	-0.331312
C	-1.4058298941	-0.7744614963	-0.1013108242	-0.256812
H	 1.0263687709	 1.8197338273	 0.2389545455	 0.133584
H	-0.3627859975	 1.9693246449	-0.8573891989	 0.123728
H	-0.6194381964	 1.8210004744	 0.8956851975	 0.135281
H	 0.5344871919	-0.2399128472	-2.1691228529	 0.089571
H	 1.8326231081	-0.603969877	-0.9880150313	 0.116939
H	-1.4317090946	-2.9857189225	-0.6141380675	 0.108514
H	-1.1955084323	-2.0268696428	 1.9171410146	 0.103816
H	-2.3956557386	-0.3926225914	-0.3124837069	 0.098054
200.1756	233.0204	269.7787	335.1549	414.4191	544.3768	612.3747	694.3615	738.6214	776.4773	796.8608	832.6018	865.1029	917.7526	946.9947	978.2668	996.0758	1033.4733	1038.2087	1080.0573	1086.8748	1117.316	1143.0018	1188.975	1221.3162	1233.2728	1281.7652	1306.0072	1373.216	1409.0076	1414.3632	1480.5707	1492.8565	1498.7216	2983.5406	3040.1698	3083.6326	3109.1781	3124.6896	3175.0758	3191.2968	3202.9267
CC12COC3C(O1)C23	C[C@@]12CO[C@H]3[C@@H](O1)[C@@H]23	
InChI=1S/C6H8O2/c1-6-2-7-4-3(6)5(4)8-6/h3-5H,2H2,1H3	InChI=1S/C6H8O2/c1-6-2-7-4-3(6)5(4)8-6/h3-5H,2H2,1H3/t3-,4+,5-,6-/m0/s1
