15
gdb 61347	3.19335	0.94039	0.80799	4.2943	75.6	-0.2852	-0.0469	0.2383	1393.2667	0.110068	-416.785998	-416.776624	-416.77568	-416.820814	33.089	
C	-0.0257044733	 1.5668501517	-0.017002851	-0.407054
C	 0.0001523557	 0.0373736004	-0.0063841051	-0.018235
O	 0.7366034345	-0.4603316333	 1.1274184157	-0.241331
C	 2.0690826567	-0.6166265196	 0.9540245615	 0.268894
N	 2.6513538779	-0.3130468609	-0.134261307	-0.537589
C	 2.6887431006	-1.1504558365	 2.1328183413	 0.277535
C	 3.253042712	-1.5947243562	 3.0963284405	-0.392091
C	-1.3493495123	-0.5329141859	 0.0984193233	 0.290596
N	-2.4232205057	-0.9546473345	 0.1438729585	-0.312476
H	 0.9922901009	 1.9380224799	-0.1453273557	 0.153824
H	-0.6405205059	 1.9229288206	-0.8477198055	 0.143829
H	-0.4422798831	 1.9462834264	 0.9186746215	 0.146299
H	 0.4740337042	-0.3335170575	-0.9202299444	 0.164553
H	 3.6467036302	-0.5133078457	-0.0836030588	 0.244788
H	 3.7467624576	-1.9894706289	 3.9508725052	 0.218457
63.5066	74.3952	120.0024	194.4086	215.1096	233.4683	280.8904	328.4657	393.5426	479.0845	557.0232	568.5884	615.1989	669.3138	675.4236	730.3149	836.3199	843.6633	884.9745	954.3415	1051.2512	1094.3054	1112.4346	1139.3996	1322.5349	1346.9416	1391.0087	1401.1543	1484.452	1495.4813	1684.3964	2240.0929	2370.0378	3058.6783	3077.4415	3137.8466	3153.7303	3496.8578	3538.3845
CC(OC(=N)C#C)C#N	C[C@@H](O[C]([NH])C#C)C#N	
InChI=1S/C6H6N2O/c1-3-6(8)9-5(2)4-7/h1,5,8H,2H3	InChI=1S/C6H6N2O/c1-3-6(8)9-5(2)4-7/h1,5,8H,2H3/t5-/m1/s1
