18
gdb 44444	2.96537	1.76701	1.57171	2.7034	73.83	-0.2201	-0.0125	0.2076	912.4602	0.151033	-401.967743	-401.961137	-401.960193	-401.998641	27.269	
O	 0.020862595	 0.0036791812	-0.4074113947	-0.330083
C	 0.0056359962	 1.1600713856	-0.0648769432	 0.397129
C	-1.2821234514	 1.9144670518	 0.2916424996	-0.268448
N	-1.1000457066	 3.3118321192	 0.6850566356	-0.108716
C	-0.0470938693	 4.0867472559	 0.0208181468	-0.028174
C	 0.9590476955	 3.3035257709	-0.8077959151	-0.255587
C	 1.2234847896	 2.0529691127	 0.0722045849	-0.133459
C	 1.2005555834	 2.6172740249	 1.5176348279	-0.255587
C	 0.10117401	 3.665549092	 1.448172206	-0.028168
H	-1.9605300651	 1.8716427308	-0.5684458984	 0.141104
H	-1.7866806046	 1.3781816306	 1.1038283758	 0.141119
H	-0.3201175258	 5.0951411344	-0.2754123854	 0.091666
H	 0.5933911077	 3.0417348873	-1.8069197445	 0.115313
H	 1.8767805253	 3.8885112574	-0.9382650567	 0.112613
H	 2.1289927626	 1.5024719119	-0.1842873974	 0.089674
H	 1.0164773397	 1.839478773	 2.2670597237	 0.115322
H	 2.1576061524	 3.0905367366	 1.7657087459	 0.112618
H	-0.0541152546	 4.3394853539	 2.2853385889	 0.091664
96.093	267.5886	322.8766	424.781	437.8238	456.1046	582.896	586.7458	663.5665	718.0884	759.3611	829.0719	836.2534	893.9951	922.2791	925.9524	928.9503	1015.9051	1020.5458	1038.5711	1048.7943	1075.674	1104.2074	1153.1294	1176.8624	1196.4348	1243.8776	1252.5306	1277.5358	1297.6621	1306.0683	1321.6404	1337.6871	1341.1641	1404.6671	1445.0999	1488.2382	1503.7257	1833.3929	3035.4433	3036.2143	3040.3917	3073.9538	3075.6953	3078.2962	3114.1952	3148.0312	3157.8662
O=C1CN2C3CC1CC23	O=C1CN2[C@@H]3C[C@H]1C[C@H]23	
InChI=1S/C7H9NO/c9-7-3-8-5-1-4(7)2-6(5)8/h4-6H,1-3H2	InChI=1S/C7H9NO/c9-7-3-8-5-1-4(7)2-6(5)8/h4-6H,1-3H2/t4-,5+,6-,8?
