19
gdb 122727	10.925	0.42161	0.41011	1.3916	96.12	-0.2424	-0.0118	0.2305	2585.3692	0.155843	-385.834129	-385.823446	-385.822502	-385.871101	36.979	
C	-0.1308738931	 1.5454045397	 0.0122150091	-0.385124
C	-0.023162873	 0.0302671507	 0.0028702024	-0.032363
O	-1.3292674328	-0.5139988797	 0.012146953	-0.23799
C	-1.3487790162	-1.9201938572	 0.004710494	-0.046138
C	-2.8207719865	-2.3553676592	 0.0162541465	-0.386813
C	-2.9763457383	-3.7998669424	 0.0098256859	 0.370402
C	-3.0866383439	-5.0050614117	 0.0044198277	-0.256674
C	-3.2118159634	-6.3600879061	-0.0016351604	 0.293548
C	-3.3227374473	-7.5626036899	-0.0070549146	-0.55424
H	 0.8652491239	 1.997636286	 0.0053202282	 0.116798
H	-0.6782424588	 1.8966663856	-0.8670090976	 0.127832
H	-0.6615551259	 1.8869246072	 0.9053964928	 0.127831
H	 0.5239886855	-0.3146746036	-0.890597325	 0.08901
H	 0.540637017	-0.3244274585	 0.882053908	 0.08901
H	-0.8451920026	-2.3205982704	-0.8898034002	 0.100797
H	-0.8284154158	-2.3302213657	 0.8851524732	 0.100797
H	-3.3043448765	-1.9253864951	 0.9020162306	 0.14675
H	-3.3209708307	-1.9157978309	-0.8554562774	 0.146748
H	-3.4204991715	-8.6196182989	-0.0118272061	 0.189818
40.9612	54.324	91.3629	122.3777	152.9337	173.2411	228.1521	250.4398	363.199	364.6754	408.1445	502.2229	542.9935	551.3113	594.563	601.4246	745.5805	794.9031	822.3575	901.5177	1043.8234	1048.1266	1084.9422	1148.034	1163.499	1181.4788	1185.923	1231.1378	1296.5474	1300.647	1308.3517	1387.8487	1407.4606	1448.6762	1470.4572	1483.9618	1499.7291	1516.6579	1538.5214	2183.0548	2366.4641	2955.4859	2972.2658	2982.9654	3000.5362	3030.237	3045.9519	3067.8606	3120.9485	3122.7049	3506.0891
CCOCCC#CC#C	CCOCCC#CC#C	
InChI=1S/C8H10O/c1-3-5-6-7-8-9-4-2/h1H,4,7-8H2,2H3	InChI=1S/C8H10O/c1-3-5-6-7-8-9-4-2/h1H,4,7-8H2,2H3
