17
gdb 61091	2.84057	1.18792	1.03371	4.6507	75.14	-0.2694	0.0031	0.2725	1218.9171	0.135588	-418.014106	-418.005181	-418.004237	-418.04846	31.602	
C	-0.4844663185	 0.9435569581	 1.1388648686	-0.392962
C	 0.2345444038	 0.453265612	-0.1326403138	-0.10907
N	 1.6121017834	 0.0227803518	 0.1306252372	-0.341
C	 1.8259081702	-1.0357566934	 0.7685616393	 0.486344
C	 3.0688800353	-1.7756393808	 1.212065875	-0.372105
C	 2.0539487664	-2.787968946	 1.7841875725	-0.078569
O	 0.9507431876	-1.9517144464	 1.307726662	-0.248828
C	-0.5629788246	-0.5760680191	-0.8271938771	 0.282833
N	-1.1895634412	-1.3639421921	-1.3948187526	-0.337811
H	 0.1232772397	 1.719158941	 1.6113680353	 0.131074
H	-1.4622648094	 1.3628754113	 0.8881047358	 0.134555
H	-0.6232246483	 0.1202506644	 1.8419863671	 0.149746
H	 0.3077336516	 1.2960311728	-0.8293189756	 0.134229
H	 3.7006531928	-2.1334713884	 0.3980222062	 0.149193
H	 3.680434711	-1.2450902274	 1.9434140852	 0.144686
H	 2.0263286543	-3.7695627156	 1.3074514435	 0.137329
H	 2.0220228859	-2.887689392	 2.8709771015	 0.130358
56.1498	96.6309	134.5371	166.2838	205.6352	237.7763	284.2224	373.2728	452.8636	550.2866	602.0615	642.9361	732.4845	790.6277	824.8132	903.5873	935.3494	961.5535	1008.7131	1058.0724	1070.524	1093.6739	1147.6662	1157.3916	1162.6205	1198.1238	1241.6388	1333.565	1348.9419	1362.2523	1401.7942	1465.0744	1488.4363	1501.0924	1518.8064	1824.9005	2353.7743	3043.9849	3054.2382	3075.6389	3092.7921	3131.1624	3132.0503	3147.023	3151.1543
CC(N=C1CCO1)C#N	C[C@@H](N=C1CCO1)C#N	
InChI=1S/C6H8N2O/c1-5(4-7)8-6-2-3-9-6/h5H,2-3H2,1H3	InChI=1S/C6H8N2O/c1-5(4-7)8-6-2-3-9-6/h5H,2-3H2,1H3/t5-/m1/s1
