21
gdb 59663	2.3765	1.28795	1.03525	1.2334	74.6	-0.2449	0.0593	0.3042	1255.0245	0.17949	-461.344432	-461.334174	-461.33323	-461.37932	38.173	
C	-0.1561797124	 1.5272147563	 0.0784914727	-0.414427
C	-0.0244924823	 0.0136222597	-0.0563942606	 0.102937
O	 0.6046505829	-0.3775666403	-1.2789309743	-0.436675
C	 0.7456893412	-0.5967447837	 1.1062370853	 0.091739
O	 0.1115656173	-0.4030670234	 2.3890880757	-0.303007
C	 0.3924267693	-1.7677777515	 2.773868579	-0.096614
C	 0.7876351901	-2.1390487539	 1.3300239561	 0.319632
C	-0.2408054823	-2.965912609	 0.5704014093	-0.466906
O	 2.0706886147	-2.7256359443	 1.2716995958	-0.469867
H	 0.8330634099	 2.0027080892	 0.0928026376	 0.10585
H	-0.7262403933	 1.9401043419	-0.7583038633	 0.121389
H	-0.6610176796	 1.7807830806	 1.0148273708	 0.144116
H	-1.024070256	-0.43057045	-0.0976693738	 0.091236
H	 1.4248282273	 0.1229572109	-1.3561002734	 0.28042
H	 1.7740450831	-0.1965798469	 1.1110935784	 0.057937
H	 1.237677671	-1.8355307212	 3.4694408904	 0.107856
H	-0.4851289804	-2.2641184608	 3.2018053624	 0.102363
H	-1.2542434082	-2.5834527737	 0.7211873935	 0.127782
H	-0.0337722092	-2.9505531001	-0.5049049472	 0.132973
H	-0.2093898972	-4.0007338313	 0.9250716456	 0.121179
H	 2.246508094	-2.9593482985	 0.3537270899	 0.280089
70.4313	89.0429	147.234	217.8724	246.6385	260.3494	267.0879	288.9591	327.4589	341.0568	371.9938	409.6355	464.8427	485.5914	534.2336	669.9333	819.0226	886.3754	918.8722	928.5205	971.6286	989.9441	1014.1944	1036.5031	1059.0876	1096.9954	1126.5802	1154.8347	1181.0083	1197.5729	1230.9755	1265.4823	1285.0295	1331.0301	1336.5887	1397.2402	1398.8457	1406.3582	1407.3722	1416.8014	1490.9977	1493.614	1495.4829	1500.7266	1516.5965	2957.7309	3023.3945	3024.8506	3035.4559	3066.2353	3078.3966	3100.684	3109.0467	3115.8802	3126.8131	3796.6475	3805.2932
CC(O)C1OCC1(C)O	C[C@@H](O)[C@H]1OC[C@]1(C)O	
InChI=1S/C6H12O3/c1-4(7)5-6(2,8)3-9-5/h4-5,7-8H,3H2,1-2H3	InChI=1S/C6H12O3/c1-4(7)5-6(2,8)3-9-5/h4-5,7-8H,3H2,1-2H3/t4-,5-,6+/m1/s1
