17
gdb 78946	3.46405	1.54062	1.34874	0.7985	70.14	-0.2311	0.0626	0.2936	962.9223	0.136041	-421.734505	-421.727394	-421.72645	-421.765551	29.41	
O	 0.2324530982	 1.3511119518	-0.1899915341	-0.448302
C	 0.0770496729	-0.0459622491	-0.0635906053	 0.150815
C	 0.2291108289	-0.5998507172	 1.3803424968	-0.100867
C	-0.1162659938	-2.0986676789	 1.3154503003	-0.162159
C	-1.5413952671	-1.9280861973	 1.8236629412	-0.159275
C	-1.3231164099	-0.3973469481	 1.6266903983	-0.076558
C	-1.3887957507	-0.5469813588	 0.049761663	-0.186788
C	-1.3168348012	-2.0620356275	 0.3456615962	 0.410323
O	-1.6942965334	-3.1160532111	-0.4530410689	-0.467756
H	-0.3283919867	 1.7793246551	 0.4666402369	 0.281668
H	 0.7062164859	-0.4887020656	-0.8430144816	 0.074157
H	 1.0151016592	-0.2469209345	 2.0480222751	 0.068539
H	 0.5265265106	-2.9662271524	 1.3899010796	 0.0882
H	-2.1215795226	-2.5176776661	 2.5194973377	 0.096626
H	-1.7837187803	 0.4033156429	 2.1999879208	 0.072993
H	-2.1941121488	-0.1611632447	-0.574342223	 0.072471
H	-0.9929250913	-3.2878434084	-1.091723853	 0.285912
172.7502	241.7517	265.9431	300.4243	340.9343	391.1302	504.1042	536.3074	612.1648	718.7336	772.1252	800.1524	818.0432	848.9239	874.9101	882.805	921.3841	935.0951	946.7197	953.8864	985.704	1030.4107	1061.308	1085.5483	1117.4243	1148.5234	1157.178	1169.3923	1190.096	1225.7647	1250.8993	1256.4413	1278.53	1293.0706	1309.6765	1425.1325	1454.0341	3055.9304	3115.1568	3126.8476	3143.1442	3198.6458	3215.917	3784.7902	3797.4136
OC1C2C3C4C2C1C34O	O[C@H]1[C@@H]2[C@H]3[C@H]4[C@@H]2[C@@H]1[C@@]34O	
InChI=1S/C7H8O2/c8-6-2-1-3-4(2)7(3,9)5(1)6/h1-6,8-9H	InChI=1S/C7H8O2/c8-6-2-1-3-4(2)7(3,9)5(1)6/h1-6,8-9H/t1-,2+,3-,4+,5+,6+,7+/m1/s1
