18
gdb 9205	7.64485	0.74011	0.6973	3.3773	70.81	-0.2513	-0.0233	0.2281	1587.2581	0.150021	-384.977637	-384.967952	-384.967008	-385.013823	32.401	
C	 0.1183274922	 1.5344246804	-0.2030682864	-0.376347
C	-0.0550952288	 0.0512305562	 0.1134693121	-0.279273
C	-1.486513915	-0.4426059006	-0.030610516	 0.38636
O	-2.4141780992	 0.3076197819	-0.2268906695	-0.295611
C	-1.6870198902	-1.9557879006	 0.0681806692	-0.318606
C	-3.1427870709	-2.3509102951	 0.3401626097	-0.267254
C	-3.4100248606	-3.7948224301	-0.0071484735	 0.158139
O	-3.8928920616	-4.611655698	 0.7329274163	-0.238319
H	 1.1551880941	 1.844162039	-0.0470971435	 0.113422
H	-0.1527247933	 1.7476252042	-1.2405716528	 0.129789
H	-0.5276815847	 2.1440563206	 0.4328971101	 0.13747
H	 0.5907663955	-0.5762380098	-0.5157607815	 0.120215
H	 0.2566233416	-0.1706183924	 1.144571823	 0.129151
H	-1.3502725822	-2.3743036175	-0.8932209731	 0.131554
H	-1.007668258	-2.3723904521	 0.8205456355	 0.12753
H	-3.4227493448	-2.1749512736	 1.3817203946	 0.127225
H	-3.78302006	-1.7189035464	-0.2899717308	 0.147319
H	-3.1173998642	-4.070254846	-1.0498622233	 0.067233
43.4426	59.8941	63.2062	93.837	158.7236	196.2372	273.6241	294.5806	389.8173	467.8557	525.5088	645.8701	718.3507	788.6429	825.3517	849.494	979.2708	1012.0702	1021.4891	1034.8034	1099.9522	1122.8267	1132.7878	1192.6626	1251.7379	1280.8719	1314.4832	1358.265	1380.9619	1414.7905	1430.4494	1447.814	1455.3322	1468.8705	1493.1342	1498.4076	1810.4144	1838.4722	2835.9492	3002.2084	3014.8179	3035.1074	3043.2506	3052.8352	3066.862	3112.5379	3122.5254	3131.2772
CCC(=O)CCC=O	CCC(=O)CCC=O	
InChI=1S/C6H10O2/c1-2-6(8)4-3-5-7/h5H,2-4H2,1H3	InChI=1S/C6H10O2/c1-2-6(8)4-3-5-7/h5H,2-4H2,1H3
