14
gdb 42486	4.65892	0.74854	0.67096	4.9191	65.11	-0.2933	-0.0726	0.2206	1569.9798	0.099119	-473.82057	-473.811864	-473.810919	-473.855845	29.281	
O	-0.0491008536	-0.0995178661	 0.1798648175	-0.329132
C	 0.0437545946	 1.0827071054	-0.0068789993	 0.36956
O	 1.1620623561	 1.805213116	-0.01497773	-0.227936
C	 2.3825370651	 1.061383274	 0.2300757978	-0.101308
C	 3.5166656305	 2.0408389543	 0.1970788541	 0.072141
C	 4.8606310499	 1.6054682048	-0.2024532023	-0.179243
O	 4.0400508532	 2.3648286899	-1.0879698986	-0.219131
C	-1.1154782398	 1.9467150118	-0.2624959067	 0.259811
N	-2.0626076367	 2.5782659223	-0.4555961365	-0.301878
H	 2.3016598815	 0.5687020162	 1.204195978	 0.141779
H	 2.4974596342	 0.298025449	-0.5436001288	 0.145281
H	 3.418572131	 2.8880847003	 0.8755514118	 0.115259
H	 5.7286059228	 2.1233009469	 0.2009762898	 0.129948
H	 5.030025911	 0.5695694852	-0.4935741567	 0.124848
37.2004	58.9896	106.02	158.0773	210.098	271.8056	340.8136	380.7336	451.2242	551.5621	617.6251	775.6978	802.0565	870.6943	918.2752	949.1453	992.4621	1000.2043	1101.6656	1152.4676	1164.9262	1173.4622	1265.4871	1269.2872	1293.0927	1370.3816	1458.3707	1484.07	1533.5977	1818.5573	2362.7849	3059.7312	3089.3578	3112.4237	3127.4012	3178.4076
O=C(OCC1CO1)C#N	O=C(OC[C@H]1CO1)C#N	
InChI=1S/C5H5NO3/c6-1-5(7)9-3-4-2-8-4/h4H,2-3H2	InChI=1S/C5H5NO3/c6-1-5(7)9-3-4-2-8-4/h4H,2-3H2/t4-/m1/s1
