23
gdb 113847	3.71975	0.8048	0.72054	2.0259	86.3	-0.2408	0.0834	0.3242	1655.0305	0.205658	-388.257324	-388.247609	-388.246665	-388.293066	35.424	
C	 0.4199260753	 1.6540062872	 0.1227180073	-0.373299
C	-0.121824266	 0.2343469423	-0.0837844411	-0.198795
C	 0.5052738771	-0.4536454533	-1.2808829444	 0.013378
C	 1.8114108217	-1.2008023096	-1.1580047512	-0.310022
C	 0.5361531914	-1.9570912376	-1.4628603486	-0.033907
C	-0.0551221262	-2.9199416313	-0.4703677557	-0.028618
C	-1.5100979789	-3.4024995724	-0.6907253288	-0.085792
O	-1.1052745104	-4.7857408614	-0.6669396683	-0.272821
C	 0.2893458727	-4.422215325	-0.6272466605	-0.089473
H	 1.5028279565	 1.6415195838	 0.2842042146	 0.118735
H	 0.2240759182	 2.2820184939	-0.7533871359	 0.114265
H	-0.0460680677	 2.135297701	 0.9881737729	 0.110476
H	 0.0557085723	-0.3535996669	 0.8239336289	 0.095935
H	-1.2116906942	 0.2757037718	-0.2124817684	 0.097466
H	 0.3798680995	 0.1049583703	-2.2064807124	 0.08072
H	 2.5594077206	-1.0985583384	-1.936532472	 0.11001
H	 2.2253803389	-1.3129479953	-0.1596990748	 0.10778
H	 0.4285552101	-2.2922350962	-2.493064333	 0.081517
H	 0.1083490995	-2.576195109	 0.5532670641	 0.075758
H	-2.2356031103	-3.1710925915	 0.0981750086	 0.099285
H	-1.9383943156	-3.1162376969	-1.6618609524	 0.093734
H	 0.8057217048	-4.6709174022	-1.5651801652	 0.094396
H	 0.8169084905	-4.9016087735	 0.2057314265	 0.099273
54.5545	67.1452	86.6096	125.006	179.9536	230.7235	281.8315	321.1459	356.3291	439.1768	559.1465	718.2068	760.2281	801.1203	847.572	862.276	893.463	920.1538	953.1006	956.4985	987.3634	1028.6395	1038.8781	1051.6572	1059.7614	1067.5732	1096.3736	1120.2385	1147.5722	1160.0369	1161.2541	1198.7992	1214.7882	1258.2362	1263.2809	1299.6134	1306.2016	1307.2393	1343.6472	1378.3813	1408.0969	1417.1013	1446.755	1484.1607	1496.9307	1497.905	1507.0465	1511.6055	1537.5459	2993.1798	3004.5176	3017.6771	3031.8168	3047.3701	3050.1793	3056.763	3085.5982	3099.8076	3105.3341	3114.3828	3122.0838	3126.6901	3207.144
CCC1CC1C1COC1	CC[C@H]1C[C@H]1C1COC1	
InChI=1S/C8H14O/c1-2-6-3-8(6)7-4-9-5-7/h6-8H,2-5H2,1H3	InChI=1S/C8H14O/c1-2-6-3-8(6)7-4-9-5-7/h6-8H,2-5H2,1H3/t6-,8+/m0/s1
