21
gdb 108801	3.17852	1.01559	0.82462	2.7663	86.06	-0.2367	-0.014	0.2227	1461.2212	0.181228	-387.138297	-387.12864	-387.127696	-387.173385	35.455	
C	-0.2727423177	 1.5622962199	-0.0425065973	-0.375862
C	 0.0824472372	 0.0668529814	 0.03687216	-0.283757
C	 0.7717880412	-0.453645623	-1.1896371959	 0.318944
C	 2.0143181975	-0.9449026919	-1.2584912606	-0.187999
C	 2.4199049489	-1.395460182	-2.6375129792	-0.14028
C	 2.929788071	-2.8399396974	-2.7552182941	-0.38978
C	 1.1271173409	-1.1701685844	-3.4472111538	 0.395415
O	 0.9524412869	-1.5067413912	-4.5891965838	-0.313613
C	 0.0980805205	-0.4781146865	-2.5427624951	-0.42454
H	 0.6261392343	 2.1707130916	-0.18339341	 0.121494
H	-0.952105731	 1.7702223992	-0.8751283426	 0.121015
H	-0.7652203727	 1.8918570034	 0.8771740727	 0.117332
H	 0.7197074454	-0.112766327	 0.9101356322	 0.102964
H	-0.8420766966	-0.50482856	 0.2013317824	 0.104727
H	 2.6822458118	-1.0256044349	-0.4062505156	 0.089883
H	 3.1884305004	-0.7302052265	-3.0617708691	 0.106034
H	 2.2171235623	-3.5436732171	-2.3136377156	 0.118408
H	 3.0625574498	-3.1021875755	-3.8081229	 0.13842
H	 3.8878175797	-2.9599094517	-2.2406881805	 0.114284
H	-0.8537781571	-1.0250498112	-2.556730851	 0.131517
H	-0.1239424927	 0.5221341448	-2.938816473	 0.135396
53.4267	74.434	115.8522	198.2462	209.709	227.3222	237.5446	320.6478	439.6843	470.1895	494.5371	558.4426	590.8967	670.1413	742.6964	787.0593	858.1673	878.3602	914.5944	923.8391	970.1726	1017.6011	1058.842	1061.7357	1101.2894	1102.9683	1136.6808	1170.4585	1192.0987	1259.1583	1279.3665	1288.8268	1313.924	1353.8658	1363.8266	1401.1843	1408.093	1443.0935	1479.5431	1493.9588	1498.3693	1499.9074	1507.2141	1707.269	1848.1348	2983.7006	3007.215	3020.8296	3037.7892	3039.2907	3049.3672	3060.0115	3108.8386	3109.0553	3110.6488	3123.9057	3175.9506
CCC1=CC(C)C(=O)C1	CCC1=C[C@@H](C)C(=O)C1	
InChI=1S/C8H12O/c1-3-7-4-6(2)8(9)5-7/h4,6H,3,5H2,1-2H3	InChI=1S/C8H12O/c1-3-7-4-6(2)8(9)5-7/h4,6H,3,5H2,1-2H3/t6-/m1/s1
