17
gdb 78190	2.18812	1.64923	1.4481	3.658	72.39	-0.2524	0.0034	0.2558	1001.8181	0.135841	-417.963915	-417.955455	-417.954511	-417.996712	31.742	
C	-0.3321742611	 1.5024172487	-0.0065462291	-0.429585
C	-0.0034251686	 0.029214819	-0.0990532336	 0.021928
C	 0.6128411108	-0.6941339335	-1.2309362187	-0.068073
C	 1.724313871	 0.0750916896	-1.9251565931	 0.086432
O	 1.3046338746	 1.2150573378	-2.6213275029	-0.410483
C	 2.4014494919	 0.2003476173	-0.5089975375	-0.179983
C	 2.7104724428	 1.5201779151	 0.0203085733	 0.309938
N	 3.0020133877	 2.5683158847	 0.4121992947	-0.334549
N	 1.3108942016	-0.613419477	 0.1418016134	-0.157868
H	 0.2908330537	 2.1267399408	-0.642450763	 0.1613
H	-1.3718686167	 1.6426310147	-0.320781917	 0.122468
H	-0.2451501437	 1.8468120884	 1.0284830847	 0.134483
H	-0.7452062515	-0.5887616631	 0.4060340858	 0.109405
H	 0.2178363414	-1.6332465933	-1.6032898749	 0.10496
H	 2.3332715257	-0.5794943419	-2.5595559342	 0.098947
H	 2.0673789052	 1.6186004406	-3.0497357742	 0.296784
H	 3.3175130653	-0.395343428	-0.4663812936	 0.133896
115.7179	125.5189	195.8101	221.4238	252.316	296.2058	323.2255	372.8301	444.7153	524.1289	593.0143	663.2591	711.9044	751.6372	788.1338	839.7906	905.0845	973.4746	987.2349	1029.0789	1059.2956	1082.7887	1114.6172	1147.9432	1166.8403	1215.6932	1238.1109	1267.4791	1311.4076	1345.8287	1368.4995	1420.0335	1436.8743	1451.2207	1490.7767	1506.9935	2349.0594	3033.3337	3047.325	3074.0894	3104.2774	3115.4864	3172.2876	3182.6845	3809.9976
CC1C2C(O)C(C#N)N12	C[C@H]1[C@H]2[C@@H](O)[C@@H](C#N)N12	
InChI=1S/C6H8N2O/c1-3-5-6(9)4(2-7)8(3)5/h3-6,9H,1H3	InChI=1S/C6H8N2O/c1-3-5-6(9)4(2-7)8(3)5/h3-6,9H,1H3/t3-,4+,5-,6-,8?/m0/s1
