22
gdb 106732	2.4713	1.49701	1.10374	1.643	87.07	-0.2208	0.0207	0.2415	1204.893	0.194157	-367.209485	-367.200379	-367.199435	-367.24285	35.577	
C	-0.2935473591	 1.5019499968	-0.1446772291	-0.374279
C	 0.1446620879	 0.0470831913	 0.0799629546	-0.291037
C	 0.8740894805	-0.5395587405	-1.1059489887	 0.29752
C	 2.2569022633	 0.014537864	-1.4728497569	-0.307786
C	 2.9559018988	-1.166764638	-2.1096928099	-0.085656
C	 2.191864527	-2.2587617914	-2.1129158854	-0.093215
C	 0.8482441199	-1.9816058475	-1.5088952806	 0.23708
C	 0.0950895494	-3.0899132696	-0.8199998716	-0.499514
N	 0.1082241186	-0.9546626578	-2.3109814915	-0.408703
H	 0.5683931773	 2.1541824596	-0.3176005922	 0.122424
H	-0.9504506191	 1.584586289	-1.0166601173	 0.12265
H	-0.8344755367	 1.8874031486	 0.7248642918	 0.111009
H	 0.7941659415	-0.0057388891	 0.9636342959	 0.099584
H	-0.7361617889	-0.564180863	 0.3105206856	 0.090481
H	 2.1802320482	 0.8619634085	-2.1644638736	 0.118128
H	 2.7940013167	 0.3749036932	-0.5841177531	 0.098866
H	 3.9509547735	-1.0934610632	-2.5340948655	 0.093236
H	 2.4637463998	-3.2265166255	-2.5192533846	 0.091932
H	 0.7151436273	-3.5725949014	-0.0565993551	 0.125063
H	-0.8146914126	-2.7257118392	-0.333753509	 0.115227
H	-0.2021390712	-3.8609677481	-1.5405872549	 0.125204
H	-0.8774678622	-1.0028542567	-2.046893119	 0.211786
84.7509	149.5739	187.7873	202.5005	235.4578	278.8388	285.2536	370.6477	428.5217	475.0776	514.1354	578.6176	674.0555	712.5553	753.3479	785.9681	792.0564	887.7069	916.4756	950.3291	953.6249	961.5722	987.0102	1011.0643	1049.8111	1072.5349	1097.1522	1112.2501	1124.7667	1154.7075	1195.6446	1254.0559	1278.5567	1308.7295	1343.039	1363.1119	1394.6213	1409.251	1415.1669	1428.1832	1463.2822	1479.8058	1486.6974	1497.7819	1500.7142	1508.1336	1675.8501	3008.6159	3018.224	3027.2535	3036.3751	3053.4445	3056.6448	3085.4775	3104.9412	3107.4762	3107.7925	3183.2235	3208.4299	3436.5667
CCC12CC=CC1(C)N2	CC[C@@]12CC=C[C@]1(C)N2	
InChI=1S/C8H13N/c1-3-8-6-4-5-7(8,2)9-8/h4-5,9H,3,6H2,1-2H3	InChI=1S/C8H13N/c1-3-8-6-4-5-7(8,2)9-8/h4-5,9H,3,6H2,1-2H3/t7-,8+/m0/s1
