18
gdb 8900	2.76385	1.63874	1.13633	2.4755	65.65	-0.2495	0.0053	0.2548	1090.4022	0.150708	-422.097621	-422.08777	-422.086825	-422.133206	33.108	
C	-0.5558914152	 0.9183373662	-1.1116712445	-0.23765
O	 0.1868716835	 0.1011402698	-0.2279844373	-0.250151
C	 1.1696584765	-0.7243364543	-0.8404248058	 0.023751
C	 2.2716938703	-0.9749374941	 0.1750328868	-0.391989
C	 0.5112654694	-2.04239279	-1.275498943	 0.448516
O	 0.5742066633	-3.0869394291	-0.6803718409	-0.356068
O	-0.1949172514	-1.8731602379	-2.4140791263	-0.234652
C	-0.9154044812	-3.0292156761	-2.8652868657	-0.244392
H	 0.1051039037	 1.5669209248	-1.7069424726	 0.105095
H	-1.1775681606	 0.3331512019	-1.7995130562	 0.120679
H	-1.199419648	 1.5453423988	-0.4896710817	 0.127405
H	 1.5673723662	-0.2262509217	-1.7370813161	 0.083465
H	 3.0578243877	-1.6013725904	-0.2549336377	 0.121681
H	 2.7042255384	-0.0219006748	 0.488000644	 0.11866
H	 1.864645781	-1.490032444	 1.0473758814	 0.14562
H	-1.4182346041	-2.7267326482	-3.7837511404	 0.133184
H	-0.2285503137	-3.8568893994	-3.0580301612	 0.143022
H	-1.6437519257	-3.3455369312	-2.114546443	 0.143824
30.2686	101.7613	112.7504	131.7386	201.091	205.928	215.0347	294.7868	315.7881	333.3706	381.6127	514.5639	649.1622	788.4617	844.9514	872.7809	999.2679	1044.0151	1095.0718	1127.048	1159.2697	1178.9102	1186.3199	1199.5378	1216.8532	1235.7837	1365.9771	1374.8776	1410.7587	1470.1802	1477.0613	1481.1487	1481.4934	1487.9103	1490.1228	1497.2102	1515.4232	1824.7103	2987.0158	2997.9173	3053.7713	3056.4018	3060.6818	3117.9776	3129.5838	3130.9714	3145.1123	3160.6469
COC(C)C(=O)OC	CO[C@@H](C)C(=O)OC	
InChI=1S/C5H10O3/c1-4(7-2)5(6)8-3/h4H,1-3H3	InChI=1S/C5H10O3/c1-4(7-2)5(6)8-3/h4H,1-3H3/t4-/m0/s1
