20
gdb 126548	3.21923	1.03623	0.84105	3.3745	81.3	-0.248	0.0148	0.2627	1421.4691	0.172213	-399.369739	-399.360282	-399.359338	-399.40544	33.108	
C	-0.0151769294	 1.585065686	-0.0135758485	-0.381568
C	-0.042237179	 0.0557246249	-0.0490963109	-0.164996
C	 0.754384524	-0.5205839994	-1.2367874232	-0.30811
C	 0.7859633392	-2.0146406852	-1.2586744954	 0.356523
N	 1.7504483676	-2.7663694067	-0.7441737428	-0.319524
C	 1.3111620055	-4.030475481	-0.9748162915	 0.021404
N	 0.1475125124	-4.119224314	-1.5949996632	-0.259709
N	-0.1819505835	-2.8130443982	-1.7742879059	-0.003854
C	-1.4382678075	-2.4756971515	-2.408894598	-0.325528
H	 1.0101550305	 1.9600708335	 0.0751600879	 0.122174
H	-0.4459884386	 2.0128409347	-0.9259730016	 0.11333
H	-0.585981041	 1.9705701543	 0.8364530218	 0.117909
H	 0.3749977335	-0.3507039452	 0.8789316554	 0.121489
H	-1.0805477226	-0.2958752118	-0.0990835624	 0.097526
H	 0.3469093717	-0.1300505455	-2.1775179692	 0.106207
H	 1.7929248156	-0.1822155681	-1.1766076552	 0.13583
H	 1.8655644333	-4.9110712344	-0.6854098567	 0.120947
H	-2.2750517104	-2.6098827593	-1.7163695915	 0.148262
H	-1.4129421002	-1.4370233969	-2.7408475248	 0.142627
H	-1.5862084909	-3.1279496661	-3.2712167942	 0.159059
43.371	65.4525	85.4633	116.2733	204.3706	247.4913	288.5866	319.1569	373.5241	429.3116	674.5602	687.0358	723.5715	745.9887	794.9404	876.2639	902.2515	907.9643	992.301	1030.1799	1044.0436	1078.1395	1109.948	1150.5385	1198.2016	1220.9183	1259.7744	1302.19	1306.6631	1314.6177	1330.685	1379.5004	1414.4887	1428.0142	1451.6148	1479.5298	1482.1934	1492.8076	1495.5127	1500.3252	1509.3493	1527.31	1560.8868	3026.7184	3030.5262	3034.3876	3051.0433	3065.7768	3093.1605	3103.2749	3107.7225	3123.0236	3155.8107	3255.8027
CCCC1=NC=NN1C	CCCc1ncnn1C	
InChI=1S/C6H11N3/c1-3-4-6-7-5-8-9(6)2/h5H,3-4H2,1-2H3	InChI=1S/C6H11N3/c1-3-4-6-7-5-8-9(6)2/h5H,3-4H2,1-2H3
