16
gdb 20206	3.43114	2.87207	2.23555	1.5716	66.66	-0.2292	0.0056	0.2348	678.9359	0.134158	-346.593345	-346.587902	-346.586958	-346.622512	23.097	
C	-0.0083577863	 1.54081031	-0.0332208889	-0.098912
O	 1.3544910057	 1.9692624554	 0.0652609114	-0.26047
C	 2.05054319	 0.9573167567	 0.8102582421	 0.026534
C	 1.6342229887	 1.0685700172	 2.2741365751	-0.091866
C	 0.6454825832	 0.2128920183	 2.5418632994	-0.082391
C	 0.3658832802	-0.6730551638	 1.3691624247	-0.087081
C	 0.0187462357	 0.0139282526	 0.0342831545	-0.076083
C	 1.4308296986	-0.3794573424	 0.3490250413	-0.076991
H	-0.6072875045	 1.9783054212	 0.7773231584	 0.096876
H	-0.4045423357	 1.8995002278	-0.9880429282	 0.105819
H	 3.1153577212	 1.086447714	 0.6090814928	 0.078941
H	 1.9836535471	 1.8681598866	 2.9157567962	 0.100727
H	 0.0737469369	 0.1699488296	 3.4619506807	 0.097817
H	-0.01190943	-1.6782522233	 1.5190304374	 0.085172
H	-0.5695336181	-0.5497385869	-0.680962839	 0.092027
H	 1.9940946673	-1.1299227732	-0.1892087979	 0.089881
244.0031	295.9211	432.9239	555.9613	641.0775	714.1522	735.3832	743.7721	790.797	811.5883	825.028	915.7348	925.0522	943.8956	950.0304	970.2456	985.3829	1019.2965	1022.005	1039.9142	1086.6003	1100.33	1125.9848	1142.8624	1234.2473	1275.5979	1281.0599	1307.48	1332.0546	1361.722	1369.0933	1396.0177	1510.7765	1658.3912	3008.2767	3076.1595	3100.9687	3169.6147	3177.0412	3191.524	3201.6404	3219.1592
C1OC2C=CC3C1C23	C1O[C@H]2C=C[C@H]3[C@@H]1[C@@H]23	
InChI=1S/C7H8O/c1-2-6-7-4(1)5(7)3-8-6/h1-2,4-7H,3H2	InChI=1S/C7H8O/c1-2-6-7-4(1)5(7)3-8-6/h1-2,4-7H,3H2/t4-,5+,6-,7-/m0/s1
