16
gdb 30576	6.69717	0.63916	0.60749	2.0677	90.29	-0.198	-0.0039	0.1941	1789.4825	0.125107	-400.751525	-400.742798	-400.741854	-400.786272	31.225	
O	 0.3467374224	 0.678968271	 1.0097019658	-0.409415
C	-0.0669555218	 0.1515046905	-0.247651374	-0.232193
C	-1.4268173212	-0.35401455	-0.1566943325	 0.21123
C	-2.5586903026	-0.7746936345	-0.1121318305	-0.057328
C	-3.8706014698	-1.2771980158	-0.0497714082	 0.164396
C	-5.0862470388	-0.7202252813	-0.4237973069	-0.25445
C	-6.0999164723	-1.665369668	-0.1430763175	-0.128584
C	-5.488525766	-2.7786835336	 0.3969626682	-0.09862
N	-4.146898611	-2.5381350849	 0.4479084637	-0.301771
H	 1.243582104	 1.0116755747	 0.8982969032	 0.287314
H	-0.0283776046	 0.9227469435	-1.0344496438	 0.11911
H	 0.6002031201	-0.6644338779	-0.572084143	 0.114336
H	-5.2082131061	 0.2625409683	-0.8510030192	 0.10023
H	-7.1586749739	-1.5482774672	-0.3142753288	 0.09889
H	-5.8997283564	-3.712462711	 0.7455269617	 0.120172
H	-3.4464541819	-3.165443384	 0.8034971219	 0.266683
37.3001	77.9224	98.0663	190.862	232.9702	308.2651	389.1925	464.9429	506.9194	528.5912	598.7237	626.8624	682.9586	730.9629	807.896	865.206	889.48	915.0035	1008.6532	1021.6103	1052.6477	1066.2936	1127.6122	1145.1984	1246.9708	1249.163	1270.7971	1307.7454	1428.1928	1441.4352	1459.907	1485.3347	1497.3328	1599.2103	2340.0712	2959.4284	2978.8179	3247.8561	3262.2913	3273.5438	3681.8832	3811.4492
OCC#CC1=CC=CN1	OCC#Cc1ccc[nH]1	
InChI=1S/C7H7NO/c9-6-2-4-7-3-1-5-8-7/h1,3,5,8-9H,6H2	InChI=1S/C7H7NO/c9-6-2-4-7-3-1-5-8-7/h1,3,5,8-9H,6H2
