23
gdb 93837	2.38445	1.43864	1.1735	3.078	80.81	-0.245	0.0552	0.3002	1182.5583	0.207471	-425.454118	-425.445074	-425.44413	-425.487043	36.46	
C	-0.0606494696	 1.5730651265	 0.0210858814	-0.406051
C	 0.031212826	 0.0457385341	 0.0026683957	 0.034539
C	 0.7256894629	-0.4744390204	-1.2668942111	-0.192746
C	 0.8036732024	-2.0074316631	-1.2838522167	-0.243789
C	 1.4780679553	-2.5679349582	-0.0251710676	 0.124331
O	 2.8664892843	-2.1922548014	 0.0390983589	-0.437635
C	 0.8213860003	-2.0261551091	 1.2487050149	-0.250103
C	 0.7501561096	-0.4895879131	 1.2645687759	 0.14037
O	 2.0390900938	 0.0911658051	 1.423446019	-0.453098
H	 0.9393413584	 2.011749588	 0.0766300654	 0.131979
H	-0.558907546	 1.9514891197	-0.8777983007	 0.099671
H	-0.6259194429	 1.9241760379	 0.8913456603	 0.105739
H	-0.9896956495	-0.366432102	 0.0222686632	 0.057887
H	 0.1974998371	-0.1180775774	-2.158120049	 0.089716
H	 1.7367367085	-0.0520555846	-1.3153789155	 0.097834
H	-0.2068340632	-2.4326614662	-1.3462396625	 0.099743
H	 1.3377796118	-2.3624049113	-2.1760862235	 0.082065
H	 1.40943425	-3.6657830368	-0.0322139277	 0.066541
H	 3.2728697194	-2.3812318248	-0.8129543671	 0.286614
H	-0.1911714359	-2.4406183065	 1.3178072914	 0.097324
H	 1.3811061376	-2.3753093845	 2.1224238828	 0.110908
H	 0.1730566339	-0.1750351826	 2.1441376506	 0.066909
H	 2.6595606957	-0.4709076291	 0.9394357118	 0.291252
108.8339	198.0946	218.4976	243.3678	272.9401	302.9253	330.8318	346.6232	397.5368	402.2672	481.403	522.355	566.3741	626.9535	708.4253	776.8059	818.0157	854.5404	898.7768	938.2365	950.961	979.0054	992.0494	1020.5411	1056.3439	1073.0366	1102.4386	1111.7364	1153.0315	1177.6608	1226.1168	1237.0021	1271.7762	1294.1203	1330.9491	1348.2307	1359.1158	1362.7711	1385.7012	1391.9723	1401.8436	1413.5485	1429.1555	1462.8464	1471.4752	1485.0369	1492.4699	1497.1502	1506.2973	2983.5211	2984.3018	3010.0967	3014.9921	3030.4797	3033.6363	3044.0316	3047.5273	3072.7398	3087.7218	3093.5631	3118.6737	3734.1533	3815.5709
CC1CCC(O)CC1O	C[C@H]1CC[C@@H](O)C[C@H]1O	
InChI=1S/C7H14O2/c1-5-2-3-6(8)4-7(5)9/h5-9H,2-4H2,1H3	InChI=1S/C7H14O2/c1-5-2-3-6(8)4-7(5)9/h5-9H,2-4H2,1H3/t5-,6+,7+/m0/s1
