19
gdb 120593	4.21312	0.76544	0.73144	0.855	80.71	-0.2441	0.033	0.2771	1605.6276	0.155431	-422.956842	-422.946596	-422.945652	-422.992426	36.947	
C	-0.1043552383	 1.3660564184	 0.2179290292	-0.223994
O	-0.1100782031	-0.0388350868	 0.2877669092	-0.234168
C	-1.2849211296	-0.6042734372	-0.2612775273	-0.077613
C	-1.1648861366	-2.1035668644	-0.173591869	-0.067115
C	-1.4921350166	-2.8211562735	 1.1117166912	-0.329466
C	-2.410036184	-2.9605326181	-0.0933591055	 0.176035
O	-3.6230424388	-2.2511120755	-0.0788523594	-0.449153
C	-2.4487281962	-4.2143306054	-0.8028301549	 0.305181
C	-2.5114661304	-5.269736362	-1.3766640476	-0.465662
H	 0.8332363414	 1.7124201936	 0.6598091164	 0.125458
H	-0.1611439451	 1.7260972442	-0.8221048421	 0.102599
H	-0.9451331609	 1.8083755405	 0.7764724662	 0.101927
H	-2.1774219817	-0.2583166134	 0.2795194135	 0.102906
H	-1.4017317797	-0.2929765956	-1.3132399079	 0.09149
H	-0.355561139	-2.521413085	-0.7631766667	 0.109338
H	-0.8913353796	-3.6730294248	 1.4069582548	 0.12379
H	-1.8835848188	-2.2186254498	 1.9243546223	 0.122452
H	-4.2699738577	-2.7914205938	 0.3885433164	 0.28873
H	-2.5609167154	-6.1950985515	-1.8951491787	 0.197265
55.1673	91.6582	105.8782	141.6575	193.231	232.36	267.9147	294.4782	320.5905	379.9972	423.5709	497.8554	554.584	579.8396	606.7573	676.7343	701.9577	864.4753	891.765	916.7695	938.3781	983.0769	1050.0906	1077.3435	1085.4403	1150.0395	1174.1185	1193.581	1223.8386	1239.8017	1246.0063	1277.9956	1336.1929	1394.5449	1437.2366	1479.0142	1483.432	1485.0468	1505.6596	1528.5028	2231.727	2959.1031	2969.6368	3007.7251	3019.6391	3111.9249	3137.4708	3167.9509	3233.4021	3502.2006	3798.8015
COCC1CC1(O)C#C	COC[C@H]1C[C@]1(O)C#C	
InChI=1S/C7H10O2/c1-3-7(8)4-6(7)5-9-2/h1,6,8H,4-5H2,2H3	InChI=1S/C7H10O2/c1-3-7(8)4-6(7)5-9-2/h1,6,8H,4-5H2,2H3/t6-,7-/m1/s1
