14
gdb 30609	4.80496	1.09322	0.89562	1.1735	67.57	-0.2608	-0.0537	0.2071	1230.4071	0.101222	-473.876736	-473.868777	-473.867833	-473.910256	27.39	
C	-0.0144062889	 1.3596623707	 0.0059988662	-0.243169
O	 0.0223768057	-0.073182635	-0.0341867077	-0.217992
C	 0.6345318147	-0.5911085866	-1.1057408194	 0.383978
O	 1.1349257316	 0.0435621461	-1.9999553142	-0.366375
C	 0.6197394638	-2.0720427499	-1.0541261858	 0.286097
N	 0.1192769931	-2.8681104553	-0.1569095278	-0.282252
C	 0.3982652997	-4.1352038735	-0.6279915799	-0.11222
C	 1.065763305	-4.0294922	-1.8071733316	-0.026883
O	 1.2139218079	-2.7130201901	-2.0917580933	-0.145157
H	 0.9985508529	 1.7699214021	 0.0139657226	 0.144932
H	-0.5477859991	 1.7548034435	-0.8622333369	 0.144935
H	-0.5386285258	 1.612988095	 0.9267910152	 0.141009
H	 0.1028529716	-5.0227007253	-0.091595976	 0.134588
H	 1.4753043978	-4.7268987417	-2.5177091113	 0.158509
63.611	107.2692	125.974	158.4276	236.7406	314.5228	395.9982	499.209	632.0231	676.3625	792.5751	805.0091	821.6682	877.3817	933.024	957.0405	1003.7693	1124.7668	1153.3307	1159.7742	1178.585	1192.1511	1223.9301	1313.878	1402.7184	1474.1666	1481.7654	1495.1121	1517.2294	1586.7066	1813.0641	3053.0958	3127.7272	3166.2202	3266.8439	3299.7421
COC(=O)C1=NC=CO1	COC(=O)c1ncco1	
InChI=1S/C5H5NO3/c1-8-5(7)4-6-2-3-9-4/h2-3H,1H3	InChI=1S/C5H5NO3/c1-8-5(7)4-6-2-3-9-4/h2-3H,1H3
