18
gdb 32637	5.03041	0.85503	0.78197	6.0329	84.21	-0.2259	-0.0238	0.2021	1470.8942	0.148081	-402.005821	-401.997088	-401.996144	-402.040337	31.596	
C	-0.0724448158	 1.5528822789	 0.0079182227	-0.370582
C	 0.0437062567	 0.026706195	 0.006363973	-0.161042
N	 0.6992667256	-0.4946785845	-1.1857718178	 0.018431
C	 0.0827642624	-0.7017976347	-2.4079469556	-0.07205
C	 1.0247682154	-1.1196072057	-3.3073193709	-0.277988
C	 2.2740426366	-1.1699091553	-2.6137243764	 0.1672
C	 3.568437239	-1.5661804803	-3.1434798777	 0.076147
O	 3.7801501129	-1.9132604357	-4.2867866415	-0.294767
C	 2.0248150606	-0.7728617074	-1.3075246259	-0.167797
H	 0.9161933352	 2.0181315596	-0.0389199164	 0.13451
H	-0.6537791608	 1.9014917315	-0.8501935539	 0.134841
H	-0.571189467	 1.8913444443	 0.9211486044	 0.125719
H	 0.61490082	-0.3152353833	 0.8742656954	 0.126189
H	-0.9475688638	-0.4326556851	 0.0739453996	 0.12703
H	-0.9779318026	-0.5355709386	-2.5143041925	 0.125016
H	 0.8688369169	-1.3794417168	-4.341950507	 0.125572
H	 4.397181245	-1.5290160275	-2.3980327868	 0.049462
H	 2.6941593138	-0.6742597643	-0.4663038926	 0.13411
32.4393	86.2482	162.5225	169.1155	224.4652	287.4848	352.036	381.6438	493.0861	638.0305	646.4649	672.3565	708.1261	761.2826	793.1276	793.7227	853.9174	949.7326	992.0415	1019.3728	1035.8296	1090.7327	1102.7665	1120.8908	1180.0307	1257.1303	1283.8569	1372.6751	1386.5516	1403.9659	1409.105	1434.4361	1447.9374	1484.5598	1488.6842	1506.3158	1548.4951	1576.9866	1783.6715	2850.9681	3044.5062	3054.0322	3094.3213	3120.1655	3127.9295	3248.7898	3252.3136	3275.2975
CCN1C=CC(C=O)=C1	CCn1ccc(C=O)c1	
InChI=1S/C7H9NO/c1-2-8-4-3-7(5-8)6-9/h3-6H,2H2,1H3	InChI=1S/C7H9NO/c1-2-8-4-3-7(5-8)6-9/h3-6H,2H2,1H3
