22
gdb 100771	2.80285	0.96859	0.9036	3.5946	78.61	-0.2352	0.0758	0.311	1421.9161	0.193095	-441.442528	-441.43245	-441.431506	-441.478113	37.532	
C	-0.1179321225	 1.5440646199	-0.2612672788	-0.426915
C	 0.0115840339	 0.0362030426	-0.0237597676	 0.050593
C	 0.7008343726	-0.6608834481	-1.2174228194	 0.105377
O	 2.117797459	-0.5014275016	-1.146331417	-0.451673
C	 0.3692087661	-2.1532323441	-1.3125537171	-0.074832
O	 1.116471422	-2.7651459467	-2.3433379207	-0.430215
N	 0.7530931776	-0.376341124	 1.1889811305	-0.1076
C	 1.4411404083	 0.5976958452	 2.0384390906	-0.222421
C	 0.1997751574	-0.0765253796	 2.5004851064	-0.221466
H	 0.8558478995	 1.9858168794	-0.4919956216	 0.138118
H	-0.7792539537	 1.7240954592	-1.114139383	 0.122438
H	-0.5478803345	 2.0671704665	 0.5991354452	 0.114619
H	-0.9947406213	-0.3910739365	 0.0761632058	 0.08562
H	 0.4014915257	-0.177253071	-2.1540360708	 0.085396
H	 2.3500069483	-0.7752547867	-0.2471126328	 0.290566
H	 0.5611111653	-2.623854463	-0.3339348753	 0.088952
H	-0.6927800523	-2.2916198847	-1.5479393559	 0.096424
H	 1.9959766333	-2.3689563205	-2.2813425921	 0.283071
H	 2.4108902363	 0.2816067171	 2.4135196426	 0.11808
H	 1.3767219617	 1.6532374176	 1.7932977384	 0.122048
H	-0.7027642762	 0.5312338004	 2.5454733914	 0.113287
H	 0.2381157534	-0.8827956812	 3.228218021	 0.120535
48.5043	62.6858	110.2777	184.4558	209.9889	284.6691	298.5244	307.0004	344.3187	354.1427	458.6833	511.1591	518.7023	590.9943	658.0845	734.0765	818.3779	856.5838	892.3797	941.73	960.9766	1002.7036	1029.3916	1036.6146	1083.3523	1098.6457	1115.8934	1127.5039	1140.9349	1156.9747	1176.5111	1180.6474	1205.0606	1287.6323	1297.0766	1321.7618	1349.3966	1362.09	1394.0834	1401.5436	1434.2005	1444.9249	1488.5748	1495.4122	1505.427	1512.6469	1524.56	2970.9984	3021.6541	3036.5396	3047.5954	3062.7868	3093.5079	3103.2216	3114.6212	3118.2232	3176.1829	3200.966	3734.9664	3757.9363
CC(C(O)CO)N1CC1	C[C@@H]([C@@H](O)CO)N1CC1	
InChI=1S/C6H13NO2/c1-5(6(9)4-8)7-2-3-7/h5-6,8-9H,2-4H2,1H3	InChI=1S/C6H13NO2/c1-5(6(9)4-8)7-2-3-7/h5-6,8-9H,2-4H2,1H3/t5-,6-/m0/s1
