19
gdb 90672	4.20388	1.02556	1.01834	2.0279	75.48	-0.243	0.0662	0.3092	1233.2613	0.15913	-422.958978	-422.950807	-422.949862	-422.991903	31.204	
O	-0.0215070728	 1.3255312587	-0.0991176996	-0.437921
C	-0.0402217717	-0.083967129	-0.0321476288	 0.129849
C	 0.2566740338	-0.6661085854	 1.3946915254	-0.27926
C	-1.1944629171	-1.1570032567	 1.4774539595	-0.131761
C	-1.4815226147	-0.5792666089	 0.0808990437	-0.140256
C	-1.5012658687	-2.0527398628	 0.3233159448	 0.298031
C	-0.718370168	-3.2053598961	-0.3088603567	-0.145886
O	-1.9208312351	-4.0035718746	-0.3800693091	-0.276885
C	-2.7269168451	-2.9556690105	 0.1991254217	-0.154271
H	 0.8970564904	 1.6131344043	-0.0756095523	 0.282623
H	 0.545366863	-0.5215749125	-0.8553393564	 0.062706
H	 1.0415450222	-1.4248990573	 1.4874695783	 0.092016
H	 0.4617320995	 0.1564009034	 2.0833495864	 0.110585
H	-1.8164917023	-1.1485136727	 2.3657292269	 0.087249
H	-2.3424105359	-0.0367221382	-0.2925933078	 0.095563
H	-0.2956838782	-3.0143617189	-1.3041693449	 0.10144
H	 0.0475353729	-3.6737165884	 0.323243475	 0.101399
H	-3.1921904537	-3.2684474777	 1.1433823541	 0.101913
H	-3.5101375583	-2.6119870066	-0.4895328604	 0.102867
84.7392	122.3314	171.807	223.5466	280.8918	311.6577	405.0366	421.7036	473.454	586.6926	734.06	827.4096	851.7094	862.417	874.1185	941.2076	956.2588	981.32	991.7098	1009.3943	1011.977	1032.5339	1053.4235	1112.3144	1117.63	1139.2524	1155.1531	1172.7087	1199.9121	1205.7369	1239.0796	1255.8861	1258.1438	1310.4959	1321.3064	1367.0098	1427.4053	1462.5233	1476.9259	1510.1054	1535.0028	2972.8579	2995.4358	3006.6886	3040.1818	3040.7035	3042.6804	3112.9995	3167.3205	3183.9265	3811.2924
OC1CC2C1C21COC1	O[C@H]1C[C@H]2[C@@H]1C12COC1	
InChI=1S/C7H10O2/c8-5-1-4-6(5)7(4)2-9-3-7/h4-6,8H,1-3H2	InChI=1S/C7H10O2/c8-5-1-4-6(5)7(4)2-9-3-7/h4-6,8H,1-3H2/t4-,5-,6-/m0/s1
