18
gdb 83213	2.68159	1.51076	1.25579	4.4918	75.88	-0.2339	0.0256	0.2596	1051.4868	0.149287	-398.103242	-398.095036	-398.094092	-398.135992	30.908	
C	-0.0966065955	 1.5209591924	-0.4712815324	-0.333164
N	 0.0628883638	 0.120182409	-0.0928406674	-0.082172
C	 1.2836806673	-0.6433893016	-0.2609899523	-0.032696
C	 2.6253559377	 0.0632218726	-0.3772843372	-0.197049
N	 2.6250119121	 1.0353670516	 0.7224147666	-0.303366
C	 1.7783150836	 0.5297922762	 1.8052026181	-0.151262
C	 1.2073179345	 1.6339461331	 2.5953509915	 0.294572
N	 0.7667039111	 2.4834897382	 3.2428051141	-0.328851
C	 0.7331351575	-0.3436815147	 1.0992917388	-0.038528
H	 0.7896509699	 2.1435597071	-0.307578244	 0.140896
H	-0.3695667241	 1.5548824429	-1.5305658842	 0.121387
H	-0.929594508	 1.9369535295	 0.1023577747	 0.138442
H	 1.1838368929	-1.6132438274	-0.7412768221	 0.098603
H	 3.4211105812	-0.6958313604	-0.2998318904	 0.098732
H	 2.7573667634	 0.5835508332	-1.3340067673	 0.117046
H	 3.5489395781	 1.3012898285	 1.0356197899	 0.237532
H	 2.3067949858	-0.1267388017	 2.5192617302	 0.112535
H	 0.1984231786	-1.0554976483	 1.7218308734	 0.107343
90.464	150.7788	173.6207	208.6354	261.4899	275.4281	423.8273	459.9795	499.9734	534.9008	624.0952	699.8249	736.1519	832.2677	843.099	876.9005	961.2989	985.8163	1004.4956	1038.8453	1062.639	1107.4043	1126.9826	1131.6657	1161.8924	1189.2694	1226.2432	1248.8634	1316.7034	1319.4879	1341.2848	1362.615	1411.1472	1446.133	1464.8359	1488.266	1511.3056	1520.517	2358.2866	2938.341	2967.7557	3028.6713	3040.3383	3097.7246	3112.1842	3140.1111	3151.3325	3575.6044
CN1C2CNC(C#N)C12	CN1[C@H]2CN[C@@H](C#N)[C@@H]12	
InChI=1S/C6H9N3/c1-9-5-3-8-4(2-7)6(5)9/h4-6,8H,3H2,1H3	InChI=1S/C6H9N3/c1-9-5-3-8-4(2-7)6(5)9/h4-6,8H,3H2,1H3/t4-,5-,6+,9?/m0/s1
