16
gdb 85355	2.9856	1.43641	0.97656	7.0188	85.47	-0.1711	-0.0628	0.1083	1157.7655	0.123287	-437.90986	-437.901204	-437.900259	-437.943666	31.864	
C	-0.8412571291	 1.2343924222	 0.0935771865	-0.483569
C	 0.4405394128	 0.4881036653	 0.1481387534	 0.203283
O	 1.1752344034	 0.5484059636	-0.9873498766	-0.18089
C	 2.3449526528	-0.0404394708	-1.1432698516	 0.402878
N	 2.9503168751	 0.2266074803	-2.3547488816	-0.571183
H	 2.3130779593	 0.5177633856	-3.0829385861	 0.266913
H	 3.6040854197	-0.4766956228	-2.6651631833	 0.268775
C	 2.8767970832	-0.7841582065	-0.0976913171	-0.202783
C	 2.1680452996	-0.8880991139	 1.0796172667	-0.15984
C	 0.8805504166	-0.2502013456	 1.2963685133	 0.254031
O	 0.2218732159	-0.3269046445	 2.3477377119	-0.462537
H	-0.6877857746	 2.3022278546	-0.1063964747	 0.131228
H	-1.5113956415	 0.8482961933	-0.6851764027	 0.129329
H	-1.3175789509	 1.1136302422	 1.0678395785	 0.175199
H	 3.8405462533	-1.2632234537	-0.2303727593	 0.108627
H	 2.5658985745	-1.4686015591	 1.9061539526	 0.120537
40.5684	102.9046	192.8494	239.256	271.4828	318.3811	335.2879	405.0979	465.2192	505.8277	570.0349	584.3397	603.1328	699.1734	715.7634	802.1534	849.8376	928.026	976.6955	985.8728	1046.3415	1116.2832	1124.238	1180.1955	1248.5527	1351.9714	1367.0291	1410.5512	1425.1209	1476.6248	1482.1326	1532.1356	1600.1491	1644.3705	1677.4246	3014.4964	3060.3201	3148.2957	3181.4125	3197.3616	3565.7488	3674.0012
C[C-]1OC(=[NH2+])C=CC1=O	C[C]1OC(=C[CH]C1=O)N	
InChI=1S/C6H6NO2/c1-4-5(8)2-3-6(7)9-4/h2-3,7H,1H3/q-1/p+1	InChI=1S/C6H7NO2/c1-4-5(8)2-3-6(7)9-4/h2-3H,7H2,1H3
