18
gdb 128835	5.83319	0.67606	0.65291	4.5522	74.95	-0.2531	-0.0001	0.253	1711.1622	0.148366	-435.254513	-435.245528	-435.244584	-435.290001	31.032	
C	 0.0293186619	 1.3901791751	 0.1103950664	-0.232647
O	-0.0045008905	-0.015667499	 0.0208520411	-0.227626
C	 0.6396233214	-0.5091706334	-1.1276111798	-0.042691
C	 0.5132481438	-2.0368525314	-1.1145788367	-0.336223
C	 1.1764305467	-2.6834287663	-2.2855854851	 0.324261
C	 0.7073264323	-3.1724140158	-3.48453771	-0.148939
N	 1.7523873319	-3.6388206097	-4.2237978543	-0.184099
N	 2.8548692987	-3.4693440766	-3.5546759881	-0.116876
N	 2.5154669892	-2.8904869535	-2.3847857999	-0.229655
H	 1.0616676953	 1.7710657734	 0.1577414598	 0.106767
H	-0.4728697905	 1.8657544825	-0.7464081107	 0.1095
H	-0.4934468284	 1.6709427961	 1.0275078999	 0.132264
H	 0.1835940266	-0.1014399367	-2.0449815434	 0.100763
H	 1.7029378174	-0.211381684	-1.1386926669	 0.084532
H	 0.9314946956	-2.4117235277	-0.1734220573	 0.123612
H	-0.5485888494	-2.2980358563	-1.1126579745	 0.136361
H	-0.3076374018	-3.2178174589	-3.8457572283	 0.122489
H	 3.23681299	-2.6873295077	-1.7107713024	 0.278207
36.4478	75.9677	91.5396	108.4788	223.4309	254.2057	320.6239	337.4463	450.6476	583.5717	689.96	729.974	759.362	796.3841	851.5391	994.4544	996.8724	1039.8264	1055.3	1070.8252	1077.3013	1138.7141	1163.777	1179.2918	1219.5847	1226.3828	1242.5681	1299.9965	1305.7349	1344.734	1384.4188	1419.4892	1440.1316	1480.9723	1485.3471	1489.2193	1504.9555	1531.8191	1609.8346	2948.4198	2974.5022	2984.7789	3019.3033	3046.9049	3101.6331	3119.41	3267.8001	3651.3327
COCCC1=CN=NN1	COCCc1cnn[nH]1	
InChI=1S/C5H9N3O/c1-9-3-2-5-4-6-8-7-5/h4H,2-3H2,1H3,(H,6,7,8)	InChI=1S/C5H9N3O/c1-9-3-2-5-4-6-8-7-5/h4H,2-3H2,1H3,(H,6,7,8)
