16
gdb 42267	3.31978	1.25215	1.02851	3.4648	75.29	-0.2336	-0.0531	0.1805	1148.2439	0.123092	-400.670913	-400.662693	-400.661749	-400.704505	30.495	
O	 0.196647174	-0.0922476349	 0.9102302047	-0.290897
C	-0.005791225	 0.9684229595	 0.3628554925	 0.26816
C	 1.0524331025	 1.6813143013	-0.3384701293	 0.25527
C	 1.9159425026	 2.2919131235	-0.9142074493	-0.429017
C	-1.3514424851	 1.6660897653	 0.3986237266	-0.112857
C	-1.9767808715	 2.268864639	-0.9175265512	-0.250988
C	-3.1905933385	 1.3607965074	-0.6848774152	-0.039779
N	-2.6603270349	-0.0210481893	-0.7070287098	-0.322482
C	-2.5859387981	 0.7722339779	 0.5420330008	-0.062971
H	 2.6914077001	 2.8139932194	-1.4201989487	 0.213262
H	-1.3026858754	 2.4374889688	 1.1755459456	 0.113792
H	-2.1919522946	 3.3344063224	-0.8234487862	 0.108286
H	-1.4290714128	 2.0806938099	-1.8431972517	 0.120084
H	-4.2265971256	 1.5688270201	-0.9198492243	 0.098262
H	-3.4501710067	-0.6579089191	-0.6078350732	 0.23213
H	-3.043050831	 0.4193295988	 1.4567177788	 0.099743
41.1468	116.611	134.7416	220.1386	249.3886	364.3869	424.4467	510.3492	572.5537	641.6561	659.695	703.3527	717.6887	790.6334	824.5278	838.3639	911.4141	942.1059	966.4347	991.1921	1011.6598	1046.1118	1092.6283	1114.9796	1141.3084	1156.9422	1193.2975	1241.4926	1271.6995	1321.021	1347.1674	1379.5165	1479.4663	1767.925	2207.3	3050.5264	3075.6788	3134.7144	3193.0411	3209.0253	3480.2371	3494.6972
O=C(C#C)C1CC2NC12	O=C(C#C)[C@H]1C[C@H]2N[C@@H]12	
InChI=1S/C7H7NO/c1-2-6(9)4-3-5-7(4)8-5/h1,4-5,7-8H,3H2	InChI=1S/C7H7NO/c1-2-6(9)4-3-5-7(4)8-5/h1,4-5,7-8H,3H2/t4-,5-,7+/m1/s1
