23
gdb 101631	2.95986	0.75001	0.70812	1.2127	88.79	-0.2631	0.033	0.2961	1742.278	0.202104	-388.261205	-388.249735	-388.248791	-388.298693	41.466	
C	-0.4062595477	 1.7671664195	 0.1653739945	-0.389252
C	-0.2233625771	 0.2459460007	 0.128620867	-0.170342
C	-1.5355650613	-0.5570756878	 0.0323653805	 0.052655
C	-2.2667604405	-0.30311358	-1.2939855762	-0.409894
C	-1.2918516189	-2.0677722749	 0.2110730445	-0.203747
C	-0.9255185308	-2.488490479	 1.6494884453	-0.076543
O	-1.9151996622	-2.0826655038	 2.5943620497	-0.412699
C	-0.6758300856	-3.9315654559	 1.7227411978	 0.300519
C	-0.5200436958	-5.1231242691	 1.764835452	-0.441966
H	 0.5553785976	 2.2719755582	 0.3013923155	 0.111336
H	-0.8483187084	 2.1515160356	-0.7586800254	 0.117166
H	-1.0571269909	 2.0649622028	 0.9950415342	 0.117474
H	 0.4230877596	-0.0273581407	-0.7174765618	 0.090596
H	 0.3198432343	-0.0541396161	 1.0325987005	 0.096577
H	-2.1897925743	-0.2366539225	 0.8535241634	 0.086153
H	-2.5079404413	 0.7547292798	-1.4298862835	 0.115567
H	-1.6539889022	-0.6174347395	-2.1479322262	 0.110693
H	-3.2070987698	-0.8626804483	-1.3379754291	 0.108534
H	-2.1949131344	-2.6236730279	-0.0733690604	 0.089726
H	-0.4975611758	-2.4078324983	-0.4658770395	 0.104259
H	-0.0179301351	-1.9610137183	 1.9641577138	 0.121135
H	-2.6849909589	-2.6483142977	 2.4650332474	 0.283981
H	-0.3641083803	-6.1724737968	 1.8157027161	 0.198072
31.2915	59.1761	96.7813	122.4458	189.314	214.5309	232.4677	240.479	283.2724	305.8155	344.631	389.9261	415.8752	495.2337	559.692	571.1293	629.3043	671.6957	768.4261	798.0365	850.7364	921.6205	947.0912	977.9064	991.4654	1014.8687	1046.7504	1078.8177	1130.4603	1151.4022	1177.6563	1222.9761	1277.3664	1290.6182	1308.5051	1348.4302	1350.2768	1388.9357	1392.7184	1407.2533	1414.2621	1420.0414	1474.037	1482.0377	1494.9099	1500.7659	1505.6841	1511.1958	2231.0092	3007.0998	3016.0822	3023.5616	3030.4534	3034.5166	3043.0816	3054.6372	3064.0325	3090.1505	3099.081	3104.3189	3112.6558	3503.1646	3801.3848
CCC(C)CC(O)C#C	CC[C@@H](C)C[C@@H](O)C#C	
InChI=1S/C8H14O/c1-4-7(3)6-8(9)5-2/h2,7-9H,4,6H2,1,3H3	InChI=1S/C8H14O/c1-4-7(3)6-8(9)5-2/h2,7-9H,4,6H2,1,3H3/t7-,8+/m1/s1
