23
gdb 103448	2.46255	1.43667	1.19956	0.1781	90.35	-0.2198	0.0223	0.2422	1190.0398	0.206238	-351.162369	-351.153302	-351.152358	-351.195885	35.707	
C	 0.1041103974	 1.4454242172	 0.3428684784	-0.380305
C	-0.039898293	 0.0299420249	-0.2319415321	-0.249051
C	-1.4303906389	-0.5657959871	-0.0711510447	 0.351298
C	-2.512647015	 0.1495258486	-0.8656311067	-0.459542
C	-1.6413718772	-2.0602554665	 0.0601814113	-0.107805
C	-0.4811334159	-2.9843612549	 0.4394787791	-0.290367
C	-0.0930635526	-2.5275345386	 1.8310960238	-0.077006
C	-0.8825699017	-1.5438253702	 2.2713742749	-0.080242
C	-1.9045911854	-1.1511387449	 1.2608479909	-0.120137
H	 1.1274864115	 1.8132043065	 0.2177585387	 0.107971
H	-0.5631833573	 2.1609816736	-0.1473384221	 0.114142
H	-0.1264567723	 1.4542447964	 1.4134854765	 0.116586
H	 0.2090948195	 0.0411248477	-1.302084487	 0.087915
H	 0.7020179037	-0.6135276283	 0.2468770592	 0.103403
H	-2.2809643626	 0.1416766532	-1.9376360306	 0.111709
H	-3.4860191959	-0.332878264	-0.7330361032	 0.110959
H	-2.6203696605	 1.1943280051	-0.5561815963	 0.116829
H	-2.4669192302	-2.4896133575	-0.4973496166	 0.07633
H	-0.7961255189	-4.0363933284	 0.4351621088	 0.104617
H	 0.360329013	-2.91818076	-0.2637691633	 0.107422
H	 0.749209679	-2.9475111207	 2.3700027425	 0.090127
H	-0.7993520858	-1.0614627553	 3.2391853249	 0.089415
H	-2.9087490606	-0.8995974768	 1.5892397937	 0.075733
56.2213	163.2519	197.7152	205.0209	244.2069	288.99	294.4235	362.9995	393.5475	481.656	538.5269	656.0454	714.4216	747.2881	786.3464	792.9128	826.4195	855.7516	920.4192	935.6136	960.3758	985.3961	996.565	1013.5032	1023.5948	1029.1189	1067.0554	1086.6567	1101.0856	1130.0991	1139.1151	1178.9141	1209.1879	1297.6004	1299.5463	1305.9531	1323.9211	1369.2915	1378.6176	1407.9797	1415.5139	1420.0393	1474.3132	1482.2226	1493.167	1500.1486	1504.6753	1509.3568	1665.6879	3011.4393	3015.5948	3024.1066	3033.623	3035.4091	3084.2857	3088.3895	3099.4432	3101.8452	3111.2151	3145.4547	3161.4253	3180.0883	3205.2131
CCC1(C)C2CC=CC12	CC[C@@]1(C)[C@H]2CC=C[C@@H]12	
InChI=1S/C9H14/c1-3-9(2)7-5-4-6-8(7)9/h4-5,7-8H,3,6H2,1-2H3	InChI=1S/C9H14/c1-3-9(2)7-5-4-6-8(7)9/h4-5,7-8H,3,6H2,1-2H3/t7-,8+,9-/m1/s1
