20
gdb 66095	2.53044	1.54105	1.34412	1.6936	83.69	-0.2341	0.054	0.2881	1071.3049	0.17079	-365.964694	-365.956209	-365.955265	-365.997123	34.02	
C	-0.0470098207	 1.5620332732	-0.0140553535	-0.425468
C	 0.0200651414	 0.0289664038	-0.0279408005	 0.070237
C	 0.7920410397	-0.5490924291	-1.2573914014	-0.269774
C	 1.3787261195	-1.8718935324	-0.7299641472	-0.231128
C	 1.5611989079	-1.6160751912	 0.7592504402	-0.000999
C	 2.1844311916	-0.3286681452	 1.1593324108	-0.258969
N	 0.7200571425	-0.4829259839	 1.1878407004	-0.099916
C	-1.3391665853	-0.5287614228	 0.0010494459	 0.377279
C	-2.4527400835	-0.9806820427	-0.0085291259	-0.484102
H	 0.960892469	 1.9874013038	-0.02468428	 0.112119
H	-0.5877749977	 1.9278983934	-0.890859272	 0.125011
H	-0.5643623694	 1.9099919523	 0.8829292852	 0.136587
H	 0.1366476906	-0.6853538304	-2.1186937508	 0.115559
H	 1.5824962694	 0.1454735024	-1.5561791058	 0.102154
H	 0.6656486777	-2.6905928231	-0.8707700619	 0.118316
H	 2.3085839621	-2.1529080058	-1.2337174242	 0.104316
H	 1.5995075372	-2.4694596083	 1.4300528354	 0.09007
H	 2.6350020366	-0.2229777921	 2.1416557683	 0.116899
H	 2.6475478581	 0.283318733	 0.3899484424	 0.109261
H	-3.4369092667	-1.3794752347	-0.0017540057	 0.192547
117.1285	154.7158	215.1324	233.5609	269.4911	318.7233	395.6898	446.0349	474.1415	526.4917	615.1936	626.2083	643.1089	661.6464	700.3882	781.6386	837.4882	848.6477	908.3024	922.87	959.8747	973.3909	1020.5133	1038.4998	1074.1296	1105.8241	1124.2492	1149.578	1170.1376	1171.9375	1224.673	1259.1678	1270.6795	1318.8947	1330.8149	1384.7325	1405.0695	1482.4896	1486.0808	1491.1748	1494.5589	1519.1009	2235.1071	3045.403	3050.9645	3061.3688	3091.6065	3111.827	3118.496	3124.2483	3132.0597	3149.9125	3193.6094	3501.5716
CC1(CCC2CN12)C#C	C[C@]1(CC[C@H]2CN12)C#C	
InChI=1S/C8H11N/c1-3-8(2)5-4-7-6-9(7)8/h1,7H,4-6H2,2H3	InChI=1S/C8H11N/c1-3-8(2)5-4-7-6-9(7)8/h1,7H,4-6H2,2H3/t7-,8+,9?/m0/s1
