19
gdb 38977	2.9375	1.79828	1.29787	0.4012	75.71	-0.2251	0.0923	0.3174	998.092	0.161346	-422.989821	-422.982772	-422.981827	-423.021022	28.99	
C	 0.0499800685	 1.4437328985	 0.0575423245	-0.352564
C	 1.3797366703	 0.7211499738	-0.0635106406	-0.148071
C	 1.7259316298	 0.0943297383	 1.2947488741	-0.247268
C	 0.410655702	-0.7369084138	 1.2408446929	 0.03451
O	 0.7232376529	-2.1039895251	 1.0114270249	-0.269336
C	-0.2372975859	-2.7246883381	 0.1700661387	-0.083519
C	-0.2851920122	-2.0350545166	-1.1886469735	-0.09473
O	-0.6861007228	-0.6708715077	-1.0501173774	-0.285976
C	 0.0384546251	-0.0351688873	-0.0646234771	 0.439163
H	-0.2354826044	 1.9432706936	 0.9823475151	 0.103905
H	-0.2711268281	 1.9526227667	-0.8463780981	 0.12194
H	 2.0735414053	 0.9432923716	-0.8644045822	 0.091054
H	 2.5877523543	-0.5741077733	 1.2755027879	 0.11776
H	 1.8195282583	 0.7931612575	 2.132296034	 0.095304
H	-0.2992023807	-0.6485618616	 2.0781047643	 0.061195
H	 0.0705071199	-3.768900619	 0.0593577248	 0.110719
H	-1.2378836144	-2.7017153141	 0.6321458238	 0.095775
H	 0.7075159862	-2.0884457797	-1.6596181752	 0.10168
H	-1.0199676342	-2.5084123937	-1.845880541	 0.108459
148.5692	161.0888	320.9987	386.5409	406.1495	413.1577	467.5653	479.6936	595.5741	638.4132	766.5257	824.1791	856.8084	884.2836	901.6686	933.4038	955.7732	959.4487	995.0613	1018.541	1030.5622	1087.9344	1097.773	1105.5186	1129.693	1147.0238	1187.3652	1226.9037	1241.4862	1260.4975	1277.3042	1288.3926	1329.9521	1355.64	1366.4137	1408.007	1418.0617	1473.1067	1485.186	1487.8961	1507.0994	2973.5142	2980.298	3002.4924	3050.9081	3087.2073	3092.8025	3096.0101	3127.2829	3189.2239	3197.7852
C1C2CC3OCCOC123	C1[C@H]2C[C@@H]3OCCO[C@]123	
InChI=1S/C7H10O2/c1-2-9-7-4-5(7)3-6(7)8-1/h5-6H,1-4H2	InChI=1S/C7H10O2/c1-2-9-7-4-5(7)3-6(7)8-1/h5-6H,1-4H2/t5-,6+,7-/m1/s1
