14
gdb 22027	2.68948	1.56491	0.98995	1.9741	72.92	-0.2075	-0.0345	0.173	1095.5587	0.101391	-469.944952	-469.937141	-469.936197	-469.977052	29.986	
N	 0.1141082748	 1.3238898626	-0.0041414224	-0.548899
C	 0.0367123638	-0.0365821201	 0.0311183794	 0.375095
N	-1.1455390153	-0.5740537053	 0.1056067916	-0.208218
O	-1.20886625	-1.9740668967	 0.219564637	-0.236338
C	-0.0878688074	-2.7023105462	 0.226847186	 0.106354
C	 1.1578211593	-2.205771923	 0.123172566	-0.277363
C	 1.3045018501	-0.7824720218	 0.0024977078	 0.331113
N	 2.381639981	-0.0826645118	-0.1352568114	-0.270993
O	 3.5166192451	-0.9039175379	-0.1697655484	-0.393537
H	 0.9852010265	 1.6992023783	-0.3444414872	 0.272584
H	-0.7344851438	 1.824461652	-0.2131256637	 0.264159
H	-0.3238171786	-3.7560787988	 0.3258422993	 0.143224
H	 2.0203724882	-2.8539477012	 0.1306358791	 0.134413
H	 4.2317067665	-0.2649351301	-0.255188363	 0.308407
110.2025	222.1952	231.6729	267.4056	343.5455	362.6242	413.1199	458.2287	473.3767	506.8606	572.8244	599.0389	608.1717	758.8336	798.1901	823.1953	868.7399	931.1032	945.3431	1017.3209	1064.3751	1156.9396	1250.5113	1278.9608	1365.7699	1426.2032	1477.9405	1603.1053	1630.3684	1651.0165	1696.7744	3204.1563	3259.3851	3587.9991	3715.3698	3824.839
NC1=NOC=CC1=NO	Nc1noccc1=NO	
InChI=1S/C4H5N3O2/c5-4-3(6-8)1-2-9-7-4/h1-2,8H,(H2,5,7)	InChI=1S/C4H5N3O2/c5-4-3(6-8)1-2-9-7-4/h1-2,8H,(H2,5,7)
