18
gdb 56956	2.1673	1.39759	1.15186	3.867	78.41	-0.2457	0.0085	0.2542	1161.4122	0.145064	-401.906483	-401.896961	-401.896017	-401.941042	34.384	
C	 0.3171131678	 1.5135856095	 0.0063245767	-0.390318
C	 0.1185637373	-0.0181556944	-0.013914858	-0.174673
C	 0.7123380754	-0.6128715761	-1.2082771701	 0.299802
C	 1.2121923077	-1.0832645885	-2.1949227245	-0.441014
C	 0.6124718637	-0.6544454922	 1.2881101127	-0.006268
C	 1.0149277212	-2.1013216128	 1.3863012001	-0.260411
N	 1.9854553592	-1.0441978853	 1.5179465208	-0.057264
C	 3.1247788186	-0.8692287009	 0.7562586434	 0.147467
O	 3.8708110142	-1.7576394374	 0.4259493321	-0.297539
H	 1.3800948484	 1.7686127787	 0.0249568876	 0.135555
H	-0.1264024253	 1.9692814204	-0.8820380722	 0.133918
H	-0.1578233218	 1.9457533092	 0.8924355102	 0.120841
H	-0.963928289	-0.2111307641	-0.0407975575	 0.121569
H	 1.661526102	-1.5064032326	-3.0596324509	 0.209074
H	 0.1327246997	-0.2113829394	 2.1610446212	 0.103986
H	 0.7846663411	-2.663710306	 2.2872605603	 0.126093
H	 1.0482456051	-2.6771212947	 0.4652241519	 0.148102
H	 3.3305381148	 0.2009473168	 0.5643293061	 0.081081
60.0371	97.8428	144.3808	190.6399	208.4106	219.6576	246.3782	313.4718	372.7216	432.9671	545.3553	572.8773	640.7298	659.8956	684.5631	736.4144	836.3278	899.4265	968.0831	1007.7357	1026.2189	1031.3252	1080.0452	1100.4205	1126.2226	1147.1391	1166.7573	1173.6001	1308.4447	1326.5619	1386.9576	1409.8446	1417.6994	1433.0686	1491.347	1498.9746	1509.2121	1799.9947	2236.6958	2952.3139	3001.7574	3044.5572	3104.5863	3111.2363	3119.0742	3129.7868	3202.8773	3500.9554
CC(C#C)C1CN1C=O	C[C@@H](C#C)[C@H]1CN1C=O	
InChI=1S/C7H9NO/c1-3-6(2)7-4-8(7)5-9/h1,5-7H,4H2,2H3	InChI=1S/C7H9NO/c1-3-6(2)7-4-8(7)5-9/h1,5-7H,4H2,2H3/t6-,7+,8?/m0/s1
