12
gdb 27617	3.52508	1.31038	0.95528	5.1175	70.4	-0.2867	-0.0778	0.2088	1106.7588	0.08019	-431.74211	-431.735326	-431.734382	-431.773572	25.228	
O	 0.1105633272	 1.3162827308	 0.0712126668	-0.400701
C	 0.0709112949	-0.0181682552	 0.0516041107	 0.43627
N	 0.0774568875	-0.62566438	-1.1299949469	-0.367522
C	 0.0367448299	-1.9619812586	-1.1008306097	 0.251611
N	-0.0093359185	-2.7483649372	-0.0299836385	-0.287126
C	-0.0147086219	-2.1047660309	 1.147291341	 0.011747
C	 0.0243127855	-0.7277708818	 1.2580313636	-0.197408
C	 0.043875049	-2.6225989954	-2.3886573571	 0.285905
N	 0.0497245975	-3.1461722757	-3.4186553644	-0.319971
H	 0.1387970681	 1.6126631684	-0.8508804551	 0.31346
H	-0.0521122734	-2.7311556677	 2.0342432365	 0.137605
H	 0.0197210842	-0.2153106766	 2.210739943	 0.13613
137.8555	159.2722	213.3041	382.1291	411.3063	490.2849	505.556	559.7189	577.8773	598.7457	725.8009	758.2476	820.7292	872.6733	990.6462	999.2159	1015.1153	1106.7297	1201.4103	1277.0315	1326.745	1385.042	1428.8612	1489.8402	1611.536	1634.0986	2364.2779	3176.2394	3227.859	3751.3116
OC1=NC(=NC=C1)C#N	Oc1nc(ncc1)C#N	
InChI=1S/C5H3N3O/c6-3-4-7-2-1-5(9)8-4/h1-2H,(H,7,8,9)	InChI=1S/C5H3N3O/c6-3-4-7-2-1-5(9)8-4/h1-2H,(H,7,8,9)
