16
gdb 110196	2.96363	1.1286	0.90738	2.6302	67.83	-0.2696	-0.0467	0.2228	1252.5419	0.12292	-475.016112	-475.00741	-475.006466	-475.050336	30.761	
O	-0.1029230059	 1.4368338653	 0.0835046445	-0.414868
C	-0.0559699237	 0.052069296	-0.160260825	-0.076239
C	-1.4520722667	-0.5563892442	 0.0002984486	-0.191732
C	-1.6188661075	-2.0945891075	 0.195412851	-0.001129
O	-2.1148113085	-1.8772883192	 1.5461043405	-0.239124
C	-1.9488354939	-0.5169633515	 1.4274796663	 0.46732
N	-2.0679426265	 0.4167609928	 2.2566488567	-0.556115
C	-2.6191180249	-2.7604724128	-0.7171859031	 0.145386
O	-3.7542478212	-3.0124913084	-0.4203536403	-0.224631
H	-0.524156149	 1.5624283862	 0.9468537276	 0.305076
H	 0.3100098723	-0.0835061211	-1.1833444808	 0.115912
H	 0.645074337	-0.4664088898	 0.5154535722	 0.093786
H	-2.1463800779	-0.113451647	-0.7178578368	 0.130336
H	-0.6764938048	-2.6554005481	 0.2083561598	 0.118154
H	-2.3631288322	 0.0910637657	 3.1777841851	 0.240535
H	-2.2045268265	-2.9818423564	-1.7280961663	 0.087331
73.2765	83.5622	126.726	168.1983	223.7937	252.0497	315.1672	398.6564	469.6923	528.5974	675.3912	693.6878	767.5128	825.5514	862.1062	875.7979	937.4498	1007.2127	1037.3596	1062.6289	1074.2423	1089.7782	1116.1297	1189.2252	1195.3197	1242.8139	1274.4049	1339.9386	1359.1595	1387.7798	1417.5631	1451.8789	1511.8165	1821.406	1847.4836	2867.777	2963.157	3047.326	3070.1887	3093.9274	3488.5238	3721.2553
OCC1C(OC1=N)C=O	OC[C@H]1[C@@H](O[C]1[NH])C=O	
InChI=1S/C5H7NO3/c6-5-3(1-7)4(2-8)9-5/h2-4,6-7H,1H2	InChI=1S/C5H7NO3/c6-5-3(1-7)4(2-8)9-5/h2-4,6-7H,1H2/t3-,4-/m0/s1
