20
gdb 47393	2.68745	1.53744	1.19119	2.8441	79.57	-0.2536	0.0269	0.2805	1103.5981	0.173266	-403.165355	-403.157358	-403.156414	-403.198069	31.058	
N	 0.3740200318	 1.1542018813	-0.4762315584	-0.553296
C	 0.1833351723	-0.0400499361	-0.1107167422	 0.360537
O	 1.1640131544	-0.8825353411	 0.3339826097	-0.245117
C	 0.5947468187	-2.15378572	 0.6970989904	-0.091821
C	-0.7433327831	-2.2180779013	-0.0452971585	-0.305072
C	-1.1548398461	-0.7406081267	-0.083311755	 0.26749
C	-2.1345852536	-0.2909336535	 1.0586167614	-0.262752
C	-3.2931423245	-0.2979598008	 0.0275052434	-0.214453
C	-2.2360220466	-0.3137490929	-1.1082740279	-0.280626
H	 1.357714156	 1.4111145687	-0.3816371241	 0.21994
H	 1.3043115243	-2.9326598178	 0.409209758	 0.119985
H	 0.4623856339	-2.1847396398	 1.7860729675	 0.112046
H	-0.5899604085	-2.5921440693	-1.0639206428	 0.113466
H	-1.4700606986	-2.8668006817	 0.449630615	 0.10887
H	-2.2151862192	-0.9544677757	 1.9242823484	 0.094016
H	-1.8946563286	 0.7174891286	 1.4023531875	 0.123634
H	-3.8763263434	-1.2222178841	 0.0660848952	 0.100092
H	-3.9843476938	 0.5466942168	 0.0545860574	 0.103995
H	-2.0156166678	 0.6859890232	-1.4886765006	 0.135883
H	-2.4031033176	-0.9917956778	-1.9496470943	 0.093183
91.0847	107.53	190.7639	208.8548	288.8797	349.6718	406.2941	540.4605	636.9938	674.0026	687.7864	711.8676	800.0529	840.639	872.9374	887.714	923.911	941.8421	945.2408	967.1965	976.7995	1013.8795	1058.1123	1068.2274	1144.926	1152.8338	1195.607	1209.0374	1225.1813	1243.6005	1259.546	1275.0873	1275.6215	1286.6081	1315.7073	1345.5153	1408.5309	1470.349	1481.665	1490.2267	1504.0641	1522.6851	1769.7471	3026.2414	3043.7838	3054.9454	3057.4675	3065.4213	3099.9019	3105.0051	3108.5018	3120.1624	3130.065	3476.1853
N=C1OCCC11CCC1	[NH][C]1OCCC21CCC2	
InChI=1S/C7H11NO/c8-6-7(2-1-3-7)4-5-9-6/h8H,1-5H2	InChI=1S/C7H11NO/c8-6-7(2-1-3-7)4-5-9-6/h8H,1-5H2
