19
gdb 17534	3.80577	1.81432	1.59625	1.0957	75.71	-0.2286	0.0896	0.3182	891.501	0.165734	-327.859563	-327.852139	-327.851195	-327.890813	29.378	
C	-0.1152040658	 1.5117444204	-0.0515173713	-0.313892
N	 0.0948752983	 0.0772828991	 0.0752009028	-0.076994
C	 1.3770231092	-0.5536213442	-0.1434031703	-0.037339
C	 2.5750674578	 0.2743716755	 0.3763437113	-0.340953
C	 1.9001932149	 0.2875092257	 1.7632547137	 0.380142
C	 2.586528679	 0.0462263796	 3.0737711152	-0.341003
C	 1.8844514325	 1.3606561722	 2.8146083656	-0.319913
C	 0.7320524228	-0.5290952321	 1.2252991918	-0.133684
H	 0.6987496559	 2.1381995822	 0.3361946202	 0.112978
H	-0.2620899393	 1.7509550629	-1.1095938214	 0.119086
H	-1.0312780113	 1.7784538602	 0.4849989483	 0.119969
H	 1.4399950138	-1.360995925	-0.8651444883	 0.091163
H	 3.504739067	-0.3007052952	 0.3702987241	 0.107319
H	 2.7522098556	 1.2376501677	-0.1130065203	 0.097971
H	 2.1271732268	-0.6497101223	 3.7695017552	 0.112347
H	 3.6717862526	 0.0396561756	 3.0908626846	 0.111043
H	 2.4994227591	 2.240416918	 2.6518315414	 0.111545
H	 0.9554075922	 1.5586495571	 3.3397035149	 0.112967
H	 0.2013808088	-1.3066794875	 1.7667052726	 0.087249
124.2091	179.8031	215.7633	286.8472	296.4214	356.61	466.2691	517.7091	620.4763	722.9934	775.247	824.5779	842.7403	862.9773	890.0529	924.1124	931.9653	978.8235	997.238	1027.5774	1054.0514	1056.7951	1075.1901	1086.7664	1144.2935	1172.6038	1183.3893	1188.457	1219.44	1231.7886	1255.1948	1280.6099	1366.4864	1388.1241	1453.9364	1464.3456	1478.0223	1493.336	1502.5482	1505.7398	3011.2767	3045.5178	3076.7482	3099.2909	3102.0721	3118.995	3123.3859	3151.433	3168.6243	3196.3842	3211.4465
CN1C2CC3(CC3)C12	CN1[C@H]2CC3(CC3)[C@@H]12	
InChI=1S/C7H11N/c1-8-5-4-7(2-3-7)6(5)8/h5-6H,2-4H2,1H3	InChI=1S/C7H11N/c1-8-5-4-7(2-3-7)6(5)8/h5-6H,2-4H2,1H3/t5-,6-,8?/m0/s1
