23
gdb 117771	2.48225	0.96159	0.83989	4.2199	86.38	-0.2582	0.0326	0.2909	1545.3167	0.20409	-384.492025	-384.480749	-384.479804	-384.528335	40.787	
C	-0.0582598653	 1.6261170441	 0.00475115	-0.384455
C	 0.0219612171	 0.0979627082	-0.0464494979	-0.18192
C	-1.3599247582	-0.5579430932	 0.0280162165	-0.181119
C	-1.358892355	-2.1083661681	 0.0563958673	 0.062671
N	-0.59072375	-2.5540736012	 1.2311544662	-0.518926
C	-2.8280318295	-2.6243742472	 0.0178493639	-0.193571
C	-2.9815007554	-4.146015047	 0.0531490063	-0.410212
C	-0.661647683	-2.616358739	-1.1443246227	 0.319668
N	-0.1534392579	-3.0260200701	-2.098063116	-0.357455
H	 0.938150186	 2.0742797502	-0.0533290423	 0.116859
H	-0.6502927149	 2.0246081623	-0.8269148219	 0.114418
H	-0.5233185792	 1.9707175861	 0.9355786634	 0.11044
H	 0.5195866324	-0.2138535739	-0.9721645238	 0.119327
H	 0.6388392896	-0.2772806732	 0.7755891455	 0.119335
H	-1.8792247276	-0.2276846128	 0.938555404	 0.09345
H	-1.977759807	-0.2282582153	-0.8153429864	 0.108846
H	-1.0895523257	-2.272946531	 2.0714773066	 0.231314
H	-0.5241127221	-3.5667911591	 1.2505131286	 0.242221
H	-3.342245937	-2.1748467955	 0.8769958741	 0.096434
H	-3.3134820262	-2.2260364951	-0.8805494798	 0.114467
H	-2.4802982627	-4.6162112197	-0.7985653454	 0.145513
H	-2.5664256576	-4.5740444482	 0.9714490823	 0.109168
H	-4.0387107009	-4.4230184013	 0.0143824215	 0.123527
74.7016	95.963	106.0678	129.4557	163.8796	199.4775	235.1389	246.0033	270.6973	291.8974	324.7877	381.9099	397.5902	454.036	588.0856	637.7832	705.1383	752.7249	791.3973	836.185	878.1485	904.7545	953.9666	980.3208	1026.0774	1047.2265	1072.5449	1096.1823	1105.9006	1152.6774	1209.1363	1258.5288	1285.3981	1312.6263	1325.5644	1357.7435	1380.4301	1397.4054	1413.4731	1415.7425	1471.4496	1483.8004	1495.1559	1500.4659	1500.7753	1506.9789	1512.7553	1651.0741	2354.2759	3011.9101	3024.6423	3027.6792	3039.5411	3045.0443	3058.462	3068.2766	3080.2975	3102.794	3106.1206	3107.487	3116.015	3487.0458	3576.2187
CCCC(N)(CC)C#N	CCC[C@@](N)(CC)C#N	
InChI=1S/C7H14N2/c1-3-5-7(9,4-2)6-8/h3-5,9H2,1-2H3	InChI=1S/C7H14N2/c1-3-5-7(9,4-2)6-8/h3-5,9H2,1-2H3/t7-/m0/s1
