21
gdb 100816	3.17767	0.85595	0.76918	2.892	81.76	-0.247	0.0565	0.3034	1565.0885	0.17843	-424.183731	-424.172646	-424.171702	-424.22035	39.654	
C	-0.2616809391	 1.3372698171	 0.0171130968	-0.236141
O	 0.0295469188	-0.0410521194	-0.0299516606	-0.267654
C	 0.693853727	-0.5731625468	 1.1157725605	 0.114079
C	-0.2407847232	-0.7071165997	 2.3176435985	-0.412637
C	 1.2291719605	-1.9414089605	 0.6540885544	 0.134179
O	 0.1688970021	-2.7463883377	 0.1778008934	-0.432751
C	 2.3435865579	-1.7751540595	-0.4061260044	-0.385473
C	 2.9291481019	-3.0407614845	-0.8243633715	 0.309615
C	 3.4217465006	-4.0864349873	-1.1529752472	-0.441318
H	 0.6439532206	 1.9337499909	 0.2053346216	 0.108386
H	-0.6677677068	 1.6128753312	-0.9593456552	 0.130986
H	-1.0059364204	 1.5852281289	 0.7862300603	 0.114305
H	 1.5442190805	 0.0791595744	 1.3753312689	 0.064323
H	 0.3124903949	-1.0847385538	 3.1834035985	 0.119337
H	-0.6782876459	 0.2543937785	 2.5991292432	 0.11389
H	-1.0434119161	-1.4112727216	 2.0860995964	 0.138433
H	 1.6447474873	-2.4682417894	 1.5197783035	 0.093461
H	-0.3197811077	-2.1980232741	-0.44931351	 0.289282
H	 1.920537443	-1.245351542	-1.2676519544	 0.134731
H	 3.1289156082	-1.1252665684	 0.0029515826	 0.12036
H	 3.8491442959	-5.0116809261	-1.4495599651	 0.190605
60.4839	63.6103	88.9711	126.1622	186.8037	213.4562	219.2557	266.8713	321.0894	342.801	348.5266	394.2819	443.4773	490.8492	545.6729	612.9763	633.0134	690.7968	817.3855	867.1406	931.8795	956.1534	1010.6299	1039.3652	1064.9412	1122.574	1136.5321	1161.993	1181.5004	1195.3499	1215.2466	1281.7591	1322.2539	1350.8052	1371.4767	1386.3526	1406.0297	1437.2324	1469.8267	1478.3713	1482.7287	1494.3773	1503.1443	1512.5174	2241.355	2966.9583	2985.7885	3019.1776	3038.7279	3047.7645	3054.4635	3071.7466	3112.3873	3114.0895	3135.8519	3508.5683	3777.9674
COC(C)C(O)CC#C	CO[C@@H](C)[C@@H](O)CC#C	
InChI=1S/C7H12O2/c1-4-5-7(8)6(2)9-3/h1,6-8H,5H2,2-3H3	InChI=1S/C7H12O2/c1-4-5-7(8)6(2)9-3/h1,6-8H,5H2,2-3H3/t6-,7-/m0/s1
