13
gdb 129487	4.71823	1.11274	0.90039	1.4899	62.31	-0.2412	-0.0439	0.1973	1175.4728	0.090206	-486.100619	-486.092829	-486.091884	-486.133226	28.521	
N	-0.1510322189	 1.3321338064	-0.0169529644	-0.565898
C	 0.0901282359	 0.0065793189	-0.0240953178	 0.530579
O	 1.160935111	-0.5479128881	-0.0652139561	-0.365549
N	-1.1220385623	-0.7670025241	 0.0244527094	-0.014456
C	-1.2152794337	-2.1285541612	 0.0294716943	-0.167719
C	-2.5693476419	-2.3438888157	 0.0831087787	 0.367904
O	-3.2251204857	-3.5147288645	 0.1100242098	-0.420169
N	-3.2208799603	-1.1484913474	 0.107825787	-0.271769
N	-2.3395025869	-0.1910408824	 0.0722490563	-0.157584
H	 0.6355384131	 1.9559176733	-0.0467587815	 0.280264
H	-1.0963032897	 1.6782068871	 0.0212086433	 0.293195
H	-0.3515038664	-2.7655762315	-0.0040694087	 0.179255
H	-4.1682573342	-3.3099842209	 0.1469186597	 0.311946
77.4599	133.5143	197.1811	256.7365	358.8439	380.2686	384.324	424.1842	540.1082	585.2534	648.2099	659.0256	722.3282	764.9359	768.3172	795.4136	1024.3039	1037.3196	1101.6834	1122.6274	1193.5426	1281.3864	1305.6545	1344.3776	1409.4021	1491.9219	1597.4704	1664.9993	1856.8092	3323.0243	3601.6019	3750.4327	3793.0416
NC(=O)N1C=C(O)N=N1	NC(=O)n1cc(O)nn1	
InChI=1S/C3H4N4O2/c4-3(9)7-1-2(8)5-6-7/h1,8H,(H2,4,9)	InChI=1S/C3H4N4O2/c4-3(9)7-1-2(8)5-6-7/h1,8H,(H2,4,9)
