19
gdb 63675	2.40121	1.23894	0.99912	0.6275	77.09	-0.2393	0.0307	0.27	1255.7074	0.154909	-422.957513	-422.947435	-422.946491	-422.992738	37.204	
C	 0.9619126169	 1.60021652	 0.4752903607	-0.4482
C	 0.2770840388	 0.2572064168	 0.4065547402	 0.358744
O	-1.1256738228	 0.3011703686	 0.3427866035	-0.462493
C	 0.962922571	-0.8970415272	-0.3099729114	-0.388238
C	 0.794673478	-0.9205606774	 1.1845012854	 0.103584
O	 1.9659942639	-0.8333474073	 1.942297061	-0.234965
C	 1.7520414814	-0.7728341731	 3.3443683091	-0.23353
C	 1.1519792639	 0.471188445	 3.8297017983	 0.326121
C	 0.6642543843	 1.4853819997	 4.2516267158	-0.463187
H	 2.0301804409	 1.4825357346	 0.6705417002	 0.13009
H	 0.8423027844	 2.1466534093	-0.4684206786	 0.100339
H	 0.5307515775	 2.1988075137	 1.2819707691	 0.131706
H	-1.3693189167	 0.6476806764	-0.5232596931	 0.279641
H	 0.3528432228	-1.5778295577	-0.8929997963	 0.113163
H	 1.9667688793	-0.7280466217	-0.6849777691	 0.121517
H	 0.0380035922	-1.5912872977	 1.5913745164	 0.097118
H	 1.1305493532	-1.6229994992	 3.66776355	 0.124951
H	 2.7416296379	-0.9036219308	 3.7944899653	 0.140133
H	 0.2287978133	 2.379945428	 4.6233122436	 0.203506
41.4368	81.2605	160.4831	176.2954	214.2527	251.2561	292.5175	327.8907	347.694	387.7135	413.4043	444.026	510.3279	607.8144	614.3306	678.9988	720.2134	802.2261	889.4763	907.7306	932.45	973.8891	1000.3902	1028.1961	1061.424	1074.7331	1097.9562	1126.6898	1176.0969	1237.9817	1297.6329	1299.7161	1352.5827	1388.6128	1411.9435	1414.7512	1471.8222	1477.954	1484.5189	1508.8189	2233.9639	2982.1219	3028.2405	3072.0521	3101.7092	3107.452	3132.3322	3135.1755	3227.6277	3503.5313	3785.5584
CC1(O)CC1OCC#C	C[C@@]1(O)C[C@H]1OCC#C	
InChI=1S/C7H10O2/c1-3-4-9-6-5-7(6,2)8/h1,6,8H,4-5H2,2H3	InChI=1S/C7H10O2/c1-3-4-9-6-5-7(6,2)8/h1,6,8H,4-5H2,2H3/t6-,7-/m1/s1
