19
gdb 69994	3.02247	1.70448	1.60701	2.9327	73.15	-0.2397	0.084	0.3237	937.2902	0.161128	-423.008505	-423.001506	-423.000562	-423.039437	29.138	
C	-0.0611175602	 1.5110990936	 0.0236221541	-0.496828
C	 0.0801771466	 0.0164134167	 0.0266031773	 0.413686
O	-0.7439980667	-0.7131999449	 0.9534399393	-0.278338
C	 0.6763320864	-0.817942339	 1.0846559079	-0.024156
C	 1.309111977	-2.0115368451	 0.3151354301	 0.053761
C	 1.8271239506	-1.2823947697	-0.9402275736	-0.234279
C	 0.4005627594	-0.7650823371	-1.2781933139	-0.136693
C	-0.3617262672	-2.1012594442	-1.2552279071	-0.065385
O	 0.2811027543	-2.8506178558	-0.2030160036	-0.261851
H	 0.7997393601	 1.983375604	-0.4619906531	 0.123132
H	-0.9608360797	 1.817448817	-0.5217655973	 0.129097
H	-0.137760134	 1.8899942738	 1.0460035511	 0.131724
H	 1.1006735973	-0.4413422824	 2.0124426568	 0.092065
H	 2.0080648897	-2.6214456187	 0.8872034	 0.076534
H	 2.5299750366	-0.475179655	-0.7165262622	 0.100103
H	 2.256781458	-1.9555196269	-1.6876412474	 0.103042
H	 0.2837260877	-0.1898492774	-2.1969131205	 0.068625
H	-1.4224227024	-1.9845114639	-1.021310765	 0.116062
H	-0.2522461435	-2.641031215	-2.2046882331	 0.089701
186.3863	201.7938	274.3176	322.1916	375.1958	447.7888	486.5696	548.5768	622.3061	688.8618	769.9326	816.5769	839.1616	865.3929	887.739	919.561	930.171	940.7255	951.3625	991.2261	1017.1568	1042.5391	1067.3506	1089.1506	1106.1343	1143.0413	1167.1618	1208.7917	1220.2082	1260.5249	1275.2205	1290.219	1306.5319	1323.827	1384.9606	1408.9133	1446.7737	1483.6487	1490.6863	1495.0204	1518.3512	3019.0858	3032.1857	3057.5747	3092.9501	3097.4039	3114.2942	3116.0206	3120.8435	3122.7687	3141.8684
CC12OC1C1CC2CO1	C[C@]12O[C@H]1[C@@H]1C[C@H]2CO1	
InChI=1S/C7H10O2/c1-7-4-2-5(8-3-4)6(7)9-7/h4-6H,2-3H2,1H3	InChI=1S/C7H10O2/c1-7-4-2-5(8-3-4)6(7)9-7/h4-6H,2-3H2,1H3/t4-,5-,6-,7+/m0/s1
