22
gdb 121744	5.20179	0.58672	0.56922	1.9079	80.47	-0.2231	0.0173	0.2405	2067.3153	0.192335	-441.515099	-441.503957	-441.503013	-441.553125	38.137	
C	 0.0006669155	 1.3097809751	 0.4243097998	-0.383992
C	-0.1113579927	-0.159965799	 0.0093360562	-0.189385
C	-1.5409126848	-0.6667061574	 0.1019901052	-0.04362
O	-1.5477554897	-2.050676267	-0.3042656242	-0.242014
C	-2.7386706556	-2.6730692047	-0.2676611139	 0.427613
O	-3.7656462071	-2.1526549004	 0.0938727938	-0.364041
C	-2.6314294766	-4.1091528034	-0.7840732247	-0.287291
N	-3.7853632018	-4.9370455975	-0.5068018492	-0.259689
C	-3.9051686688	-5.3169540512	 0.8999919203	-0.317729
H	 1.0344958698	 1.6582315134	 0.3505315209	 0.12105
H	-0.6138324434	 1.9531532176	-0.2147282021	 0.120952
H	-0.3278623312	 1.4587281575	 1.4585595184	 0.12111
H	 0.2464300181	-0.2918017527	-1.0182379481	 0.109558
H	 0.5275892093	-0.783126483	 0.6454981491	 0.109643
H	-1.9343645951	-0.5935765409	 1.121517981	 0.120568
H	-2.216474552	-0.1014609417	-0.5493887546	 0.118805
H	-2.4693330204	-4.0424747361	-1.8685420372	 0.130978
H	-1.7279016444	-4.5697253332	-0.3708264561	 0.130314
H	-4.6169203988	-4.4200363126	-0.7758572046	 0.227729
H	-4.817097817	-5.9053197286	 1.0355723449	 0.120136
H	-3.0566886699	-5.953901023	 1.1752661074	 0.11754
H	-3.9385747235	-4.4660991812	 1.5985232974	 0.111764
30.842	64.3044	71.2172	104.0596	118.8357	188.6651	199.2485	236.543	265.4572	300.6049	334.402	407.1397	513.3818	579.7907	697.063	760.16	786.5682	891.2382	896.044	937.5384	955.9728	990.1321	1021.4588	1054.783	1143.6558	1148.0156	1157.2045	1188.5198	1201.3582	1227.7783	1268.7594	1309.2209	1312.9676	1333.5427	1367.5159	1413.2965	1424.398	1446.6	1463.5329	1489.2696	1491.8914	1500.9535	1503.7332	1504.7364	1520.1207	1527.1785	1811.1639	2982.0098	3023.5552	3034.6536	3036.39	3045.8855	3060.8812	3065.5062	3082.1464	3089.1468	3105.2269	3106.146	3112.5932	3520.1719
CCCOC(=O)CNC	CCCOC(=O)CNC	
InChI=1S/C6H13NO2/c1-3-4-9-6(8)5-7-2/h7H,3-5H2,1-2H3	InChI=1S/C6H13NO2/c1-3-4-9-6(8)5-7-2/h7H,3-5H2,1-2H3
