18
gdb 8685	2.35928	1.76808	1.29089	2.0379	69.74	-0.2588	0.0236	0.2824	1024.8501	0.150516	-384.903619	-384.894059	-384.893115	-384.937273	35.258	
C	-0.2148812516	 1.5278143379	 0.0061860838	-0.394652
C	 0.0594108728	 0.0258870963	-0.0681494284	-0.182559
C	 0.7904831201	-0.5425809832	 1.163208169	 0.134291
O	-0.0365207343	-0.2451566437	 2.3083549525	-0.463261
C	 0.9038745819	-2.0876690492	 1.0754365698	-0.07745
O	-0.3719173274	-2.6819598552	 1.1044831552	-0.420181
C	 2.1245519553	 0.0381463361	 1.3276887101	 0.305562
C	 3.2344458894	 0.4701098797	 1.4950380723	-0.466558
H	 0.7165784964	 2.0982197763	 0.0764649612	 0.121948
H	-0.7491394901	 1.863356639	-0.8875764174	 0.110858
H	-0.8246923482	 1.7665067546	 0.8805899805	 0.131268
H	-0.8750464571	-0.5351155291	-0.1649295739	 0.117627
H	 0.6652863769	-0.2100604585	-0.9499611971	 0.103881
H	 0.52744361	-0.2612529261	 3.0894313524	 0.289776
H	 1.3884299723	-2.3798233313	 0.1389183554	 0.116331
H	 1.5372057929	-2.4367822357	 1.907169939	 0.083243
H	-0.8400994073	-2.2438971754	 1.8282103618	 0.286446
H	 4.211028348	 0.8658883975	 1.6308080738	 0.20343
99.6096	136.1582	146.948	166.7787	232.4866	236.277	285.4146	314.8647	368.8339	409.7692	490.1629	531.5791	565.2711	600.4642	635.6886	673.444	721.3444	791.4949	900.4844	974.8218	1004.8717	1038.0823	1085.4464	1102.6165	1148.4074	1164.5259	1227.2325	1304.0665	1338.1341	1363.3068	1395.8245	1410.8601	1433.1001	1480.915	1495.6743	1502.4387	1510.4215	2227.8874	2972.4365	3044.8823	3047.7919	3085.4947	3091.4082	3111.6625	3130.4126	3497.8888	3758.8433	3812.1451
CCC(O)(CO)C#C	CC[C@@](O)(CO)C#C	
InChI=1S/C6H10O2/c1-3-6(8,4-2)5-7/h1,7-8H,4-5H2,2H3	InChI=1S/C6H10O2/c1-3-6(8,4-2)5-7/h1,7-8H,4-5H2,2H3/t6-/m1/s1
