19
gdb 99318	5.69119	0.59625	0.56151	2.5763	72.96	-0.2682	-0.0269	0.2414	1920.7951	0.156438	-460.154254	-460.144336	-460.143392	-460.191501	34.31	
O	 0.2353016815	 1.2634346005	-0.2050194392	-0.419663
C	 0.0087870637	-0.1080106415	-0.3285190042	-0.125955
C	-1.4121643596	-0.4768821114	 0.0820985861	 0.345611
O	-2.18185217	 0.4090402625	 0.3920938181	-0.319011
C	-1.7935928619	-1.9417448279	 0.0876475515	-0.299247
C	-3.2954216681	-2.1858198913	 0.2649088728	-0.217672
C	-3.6170729264	-3.6586928772	 0.3116152839	 0.087394
C	-4.7963554858	-4.2289082736	-0.3490476843	-0.178505
O	-3.4957792102	-4.371449409	-0.9246643833	-0.239036
H	-0.6205289908	 1.6341760618	 0.0649092151	 0.293909
H	 0.1569197527	-0.4521649819	-1.3669310648	 0.116286
H	 0.7158441302	-0.68632637	 0.2883276299	 0.114296
H	-1.4346295516	-2.4110033851	-0.8366976529	 0.143755
H	-1.2228640358	-2.4217418287	 0.8965328441	 0.132074
H	-3.6413200876	-1.7010891581	 1.1840679685	 0.122901
H	-3.8407129984	-1.7192462091	-0.5615499763	 0.117545
H	-3.2083061412	-4.2008726483	 1.1675391359	 0.091616
H	-5.2430311991	-5.1463851183	 0.0314228779	 0.117017
H	-5.4765129217	-3.5712265032	-0.8888590188	 0.116685
21.3831	47.1208	87.0421	115.9767	122.3574	228.5344	288.5088	359.4857	396.0385	432.4766	480.3739	490.3574	692.165	734.7087	793.3141	859.0304	877.4435	930.7863	948.8262	1018.5066	1026.8968	1080.8944	1112.6264	1125.6446	1148.4918	1162.3563	1170.8341	1207.69	1253.9763	1288.0917	1298.2173	1315.7331	1319.8185	1390.1664	1447.9595	1451.23	1452.9685	1474.8458	1492.5313	1530.7485	1793.0033	2964.0627	2988.7153	3014.9329	3053.1191	3061.0744	3079.2478	3084.6482	3102.3227	3170.3133	3680.759
OCC(=O)CCC1CO1	OCC(=O)CC[C@H]1CO1	
InChI=1S/C6H10O3/c7-3-5(8)1-2-6-4-9-6/h6-7H,1-4H2	InChI=1S/C6H10O3/c7-3-5(8)1-2-6-4-9-6/h6-7H,1-4H2/t6-/m0/s1
