19
gdb 67762	2.57191	2.0466	1.67496	0.153	84.23	-0.2199	0.0131	0.233	914.9381	0.161132	-348.756465	-348.749497	-348.748553	-348.787106	29.828	
C	-0.0743074521	 1.5872756778	 0.0197268292	-0.479315
C	-0.032302095	 0.0654921387	 0.0025774622	 0.21676
C	 0.6911071181	-0.5883389062	-1.1778065251	-0.120411
C	 0.0651079707	-1.7099175475	-1.5689297959	-0.070989
C	-1.185359205	-1.9014521448	-0.8203220781	-0.096796
C	-1.1775631974	-1.9194319952	 0.7925336385	-0.096796
C	 0.0800984056	-1.7444886002	 1.5331067009	-0.070988
C	 0.7023903293	-0.6143841627	 1.1610738552	-0.120409
C	-1.408432726	-0.6675287047	 0.0010583369	-0.12366
H	 0.936284453	 2.0102808181	 0.0194417323	 0.111349
H	-0.5978243629	 1.9742246427	-0.8609003324	 0.116654
H	-0.589063267	 1.9544729334	 0.913871694	 0.116654
H	 1.6704735303	-0.2582900074	-1.5067499216	 0.090301
H	 0.4473646606	-2.4244458127	-2.288520548	 0.091202
H	-2.0133407571	-2.4560759598	-1.2468312467	 0.087773
H	-2.0014393049	-2.4835200991	 1.2145580088	 0.087774
H	 0.469215921	-2.4748333199	 2.2328681838	 0.091202
H	 1.6849145679	-0.2916324343	 1.4878327307	 0.0903
H	-2.3406497292	-0.1128072963	 0.0117468852	 0.079395
217.3705	228.6175	281.2444	325.7093	360.325	461.7727	568.6177	596.3276	667.0963	675.4806	747.4942	765.4965	782.9439	799.4293	811.8619	835.9019	891.4701	907.4445	931.2955	934.7647	950.2503	995.435	1036.3419	1043.6543	1090.1512	1097.8595	1123.9587	1130.872	1164.8436	1190.8079	1215.3948	1281.6671	1307.2966	1370.8479	1380.1204	1385.5326	1410.7159	1493.5145	1495.6394	1620.0748	1630.3233	3027.3898	3095.0204	3099.8797	3158.7837	3171.2902	3180.4181	3183.3491	3187.5218	3208.4194	3210.599
CC12C=CC3C(C=C1)C23	C[C@@]12C=C[C@H]3[C@@H](C=C1)[C@@H]23	
InChI=1S/C9H10/c1-9-4-2-6-7(3-5-9)8(6)9/h2-8H,1H3	InChI=1S/C9H10/c1-9-4-2-6-7(3-5-9)8(6)9/h2-8H,1H3/t6-,7+,8-,9+
