21
gdb 109434	2.1973	1.34281	1.03949	4.2077	78.52	-0.2627	0.0152	0.2779	1277.2667	0.180327	-424.277274	-424.267305	-424.26636	-424.311996	36.712	
C	-0.0327753517	 1.6483485184	 0.161812486	-0.388326
C	 0.2639727436	 0.1602639437	-0.059643081	-0.208721
C	 0.7648610534	-0.513027387	 1.2180291667	-0.235024
C	-0.2628524441	-0.765886491	 2.3205299846	 0.456934
O	-1.0611174674	-0.1330596718	 2.9395538785	-0.33752
O	-0.0116482316	-2.1059664943	 2.4100244531	-0.284118
C	 0.990701695	-2.0529344804	 1.3112052825	 0.392746
C	 0.5126161918	-2.9048314829	 0.1478588172	-0.431999
C	 2.3498473175	-2.4819683143	 1.8369201827	-0.433351
H	 0.8734626309	 2.1931562402	 0.4484264266	 0.115353
H	-0.4249384412	 2.1072320483	-0.7503338584	 0.114564
H	-0.7688788219	 1.7808367637	 0.9594187986	 0.152878
H	-0.6412715689	-0.3418847255	-0.417695612	 0.109175
H	 1.0189743609	 0.0402743792	-0.8466356407	 0.102514
H	 1.6243821129	 0.040033397	 1.6127301832	 0.103309
H	-0.5001111146	-2.6343717565	-0.1585127824	 0.13119
H	 1.1791385082	-2.7885240057	-0.7126688107	 0.124563
H	 0.5086181944	-3.9607518472	 0.4343866385	 0.131284
H	 2.3344203173	-3.5354642015	 2.1320418295	 0.13205
H	 3.11361494	-2.3557284882	 1.0624629063	 0.12437
H	 2.6379304456	-1.8861047542	 2.7073910512	 0.128131
81.0202	93.8623	147.8658	181.7264	210.1089	230.7714	262.5942	304.4257	326.3301	348.1944	402.6701	467.1886	561.1284	622.6884	700.8956	775.4811	823.396	839.4856	882.7386	939.87	968.9952	989.8307	1008.132	1063.6234	1087.2718	1103.6329	1140.704	1191.4731	1241.2037	1256.9661	1282.9459	1304.8645	1340.1906	1383.9534	1406.4606	1414.7656	1420.0438	1472.5458	1483.8426	1488.3768	1495.5349	1499.0103	1505.7874	1511.9561	1918.3564	3026.688	3037.7044	3038.0081	3045.007	3051.0705	3070.2894	3105.9276	3108.53	3114.5672	3119.213	3124.307	3130.3384
CCC1C(=O)OC1(C)C	CC[C@H]1C(=O)OC1(C)C	
InChI=1S/C7H12O2/c1-4-5-6(8)9-7(5,2)3/h5H,4H2,1-3H3	InChI=1S/C7H12O2/c1-4-5-6(8)9-7(5,2)3/h5H,4H2,1-3H3/t5-/m0/s1
