23
gdb 57780	3.35697	0.70598	0.6229	0.2347	97.78	-0.2243	0.054	0.2783	1912.9943	0.203792	-351.131966	-351.121079	-351.120135	-351.170078	39.403	
C	 0.0256701768	 1.5813135498	 0.0481920218	-0.371327
C	-0.0476393377	 0.04189738	-0.0038716712	-0.123387
C	-1.5084500289	-0.4489249898	 0.0471199988	-0.371216
C	 0.6489857	-0.4787817072	-1.1813745894	 0.096687
C	 1.2148297873	-0.8938604383	-2.1631346594	 0.044277
C	 1.8807976445	-1.3786521388	-3.3381468952	-0.186525
C	 3.2641114352	-2.0108566421	-3.2391618238	-0.28704
C	 2.0830436464	-2.8728188121	-3.5793255649	 0.017939
C	 1.5606973465	-3.8996938843	-2.6028269545	-0.405235
H	 1.0630192275	 1.9258391188	 0.0415724045	 0.122
H	-0.4820078925	 2.0196633725	-0.816746822	 0.121867
H	-0.4590580005	 1.9550534843	 0.9560718651	 0.108928
H	 0.4650207471	-0.3451776745	 0.8884284472	 0.100177
H	-2.0679398789	-0.0805244566	-0.8184543347	 0.121749
H	-1.5565538205	-1.5410218739	 0.0398970578	 0.120484
H	-2.0017212531	-0.085805973	 0.9548212453	 0.108408
H	 1.7035657251	-0.7865356956	-4.2319369748	 0.103679
H	 3.9841436685	-1.7678157417	-4.0128123846	 0.112291
H	 3.6838516378	-2.1028652809	-2.2433917405	 0.120095
H	 2.0014236589	-3.1616902921	-4.6240000063	 0.086756
H	 1.6184612751	-3.5298237944	-1.5754885136	 0.127245
H	 0.512548463	-4.1431843311	-2.8076085546	 0.118376
H	 2.1401816225	-4.8273301288	-2.6651602011	 0.11377
7.6197	71.6728	97.0605	148.9269	183.4289	216.3981	228.9712	266.2265	311.4819	347.4398	359.6199	485.007	493.4457	523.7834	582.8559	685.3864	763.4351	827.2858	859.0133	896.8916	929.6373	932.9337	961.4457	977.5763	1044.7255	1066.9451	1099.3405	1112.8728	1120.1866	1144.6611	1163.2764	1200.2222	1202.7835	1243.8873	1323.9575	1347.6016	1379.4836	1393.7527	1404.1657	1415.953	1424.4821	1483.8193	1485.2313	1488.8545	1493.9107	1497.9005	1501.6395	1509.7697	2352.9861	2999.203	3032.5539	3033.6352	3037.628	3092.1066	3103.8485	3109.4299	3112.7332	3117.4045	3119.6325	3133.4386	3134.5977	3145.2127	3223.118
CC(C)C#CC1CC1C	CC(C)C#C[C@H]1C[C@H]1C	
InChI=1S/C9H14/c1-7(2)4-5-9-6-8(9)3/h7-9H,6H2,1-3H3	InChI=1S/C9H14/c1-7(2)4-5-9-6-8(9)3/h7-9H,6H2,1-3H3/t8-,9+/m1/s1
