25
gdb 103421	2.10494	1.37108	1.27647	0.1924	91.84	-0.2481	0.0861	0.3341	1240.8379	0.228248	-352.338279	-352.328342	-352.327397	-352.372314	38.994	
C	 0.7145676633	-0.9714221178	 1.316093345	-0.391
C	-0.0104649192	-0.3262248112	 0.1284225333	-0.226109
C	 0.6705333697	-0.5553930927	-1.2295661513	 0.328193
C	 2.0237473965	 0.1575712726	-1.3037416384	-0.452955
C	 0.7961304556	-2.0197975505	-1.7045163807	-0.068571
C	-0.5427523194	-2.6634213684	-1.9277606891	-0.30463
C	-0.0115093131	-1.7138851139	-2.965157163	-0.05427
C	-0.1866811076	-0.2501270406	-2.5358949727	-0.038198
C	-1.5991369879	 0.3191748848	-2.4427697923	-0.413714
H	 0.8387957927	-2.0484200481	 1.1600600293	 0.121023
H	 1.7074279688	-0.5409841445	 1.4771462809	 0.115536
H	 0.1446485225	-0.8336033732	 2.2403074573	 0.109052
H	-1.0335322236	-0.715122509	 0.0971570795	 0.089987
H	-0.1080817516	 0.7542922704	 0.300026233	 0.088153
H	 2.7145308607	-0.1976591983	-0.5316568525	 0.111607
H	 2.5021136308	-0.0165997087	-2.2732828044	 0.112177
H	 1.9048375012	 1.2398518601	-1.1752962504	 0.107288
H	 1.7005082353	-2.611640306	-1.6143116925	 0.075965
H	-0.5058006379	-3.7121029112	-2.2065660813	 0.10756
H	-1.4028288969	-2.4089707628	-1.3150160551	 0.103526
H	 0.1757069697	-2.0421516331	-3.981149026	 0.077953
H	 0.4046729007	 0.402373434	-3.1865971168	 0.065929
H	-2.2674946474	-0.3104505853	-1.8482092337	 0.113131
H	-1.5986617067	 1.3194734431	-1.9957428012	 0.111354
H	-2.037911056	 0.4057633503	-3.443283707	 0.111015
81.3053	147.8938	175.8054	209.1797	222.3277	238.5329	282.5169	293.4832	318.8734	352.9037	457.6736	490.8399	531.3337	624.1425	704.1325	778.8722	787.5129	809.4947	876.0464	916.1716	928.8852	948.2177	989.5243	1007.9531	1011.3639	1019.6076	1046.8206	1067.0846	1071.8283	1085.1488	1102.7932	1130.0689	1172.3251	1183.9387	1212.6239	1237.6174	1273.9135	1286.1032	1332.1053	1362.6139	1367.2065	1381.2676	1405.6658	1411.3285	1414.8997	1480.1905	1489.3137	1492.5499	1495.8877	1498.859	1503.0998	1511.144	1512.6131	3019.0052	3023.7446	3029.176	3036.0101	3043.912	3064.1646	3088.8402	3090.0903	3093.848	3101.1479	3104.9723	3109.4008	3118.8701	3161.7102	3172.5188	3198.4403
CCC1(C)C2CC2C1C	CC[C@@]1(C)[C@H]2C[C@H]2[C@H]1C	
InChI=1S/C9H16/c1-4-9(3)6(2)7-5-8(7)9/h6-8H,4-5H2,1-3H3	InChI=1S/C9H16/c1-4-9(3)6(2)7-5-8(7)9/h6-8H,4-5H2,1-3H3/t6-,7+,8+,9-/m1/s1
