20
gdb 31128	1.93403	1.67269	0.96602	2.0227	83.13	-0.1789	0.05	0.2289	1259.3109	0.169859	-403.192917	-403.182698	-403.181753	-403.228636	36.81	
C	 0.0447855781	 1.5876535133	-0.2562094552	-0.364105
C	-0.013536477	 0.0696751341	-0.000194759	-0.331454
C	-1.4100571164	-0.4789365515	 0.0511811931	 0.082388
C	-2.1506799636	-0.8425875945	 1.1643188011	 0.234041
C	-1.8071547634	-0.8328600489	 2.6182416266	-0.506657
N	-3.3821643369	-1.2537450694	 0.7260466712	-0.305002
C	-3.4625292303	-1.1731247017	-0.6510296016	-0.183365
C	-2.2530784593	-0.6932059206	-1.0842884765	 0.245479
O	-1.9402540659	-0.4562305212	-2.3961495418	-0.452993
H	 1.0791961148	 1.9424183777	-0.3174323632	 0.105789
H	-0.4604824948	 1.8474341093	-1.1922908777	 0.11884
H	-0.4589980374	 2.1338791258	 0.5469854508	 0.119452
H	 0.5630505991	-0.4459110315	-0.7840318579	 0.088162
H	 0.5121079807	-0.1607318419	 0.9330797612	 0.102186
H	-2.4023704012	-0.1030364691	 3.182353219	 0.126861
H	-1.9670669217	-1.8132928179	 3.0844989296	 0.123762
H	-0.7560519615	-0.572312607	 2.7607001463	 0.135063
H	-4.1212577951	-1.5795214713	 1.3226527752	 0.253518
H	-4.3474748633	-1.4578266344	-1.1934759212	 0.11476
H	-0.9923193749	-0.3067315894	-2.45719227	 0.293273
42.9439	61.8916	127.1423	169.9353	198.69	211.2748	282.3794	291.9247	304.8862	378.3059	439.7567	493.2225	564.9998	623.7409	663.2355	689.1079	730.5541	742.8835	790.9264	962.6218	965.8353	994.4807	1055.498	1080.6416	1107.9283	1140.3902	1170.3103	1229.1369	1289.9849	1300.6565	1337.8048	1358.316	1406.0133	1414.7326	1456.8235	1479.7979	1481.011	1487.2683	1494.6631	1505.913	1514.8426	1576.8078	1665.1877	2983.0835	3012.8967	3031.4973	3055.1375	3055.3769	3101.1843	3108.8971	3121.0808	3280.4766	3689.1383	3836.4533
CCC1=C(C)NC=C1O	CCc1c(C)[nH]cc1O	
InChI=1S/C7H11NO/c1-3-6-5(2)8-4-7(6)9/h4,8-9H,3H2,1-2H3	InChI=1S/C7H11NO/c1-3-6-5(2)8-4-7(6)9/h4,8-9H,3H2,1-2H3
