18
gdb 106857	2.15502	1.60512	1.11302	1.4949	81.22	-0.2004	0.0272	0.2276	1141.7979	0.145866	-401.848856	-401.839879	-401.838935	-401.882648	33.796	
C	-0.6741324011	 0.6171427872	 0.1694030106	-0.262916
O	 0.702906557	 0.4935320569	-0.138196696	-0.269181
C	 1.0376136539	-0.3464096595	-1.1692291372	 0.349958
C	 0.1696867249	-0.8292880296	-2.2892215427	-0.379292
C	 0.9015571047	-1.8708097254	-1.4493587417	 0.134813
N	 2.3012305911	-1.9231121814	-1.9538179171	-0.360623
C	 2.507984557	-0.4913359365	-1.5320482665	-0.233664
C	 0.2784057316	-2.9445141922	-0.7690642404	 0.193487
C	-0.2188132761	-3.86400816	-0.1690816519	-0.44555
H	-1.2381308956	 1.0628544994	-0.6603557194	 0.119716
H	-1.1201961775	-0.352834344	 0.4253552556	 0.129987
H	-0.7363709519	 1.2769598679	 1.0367354766	 0.134126
H	-0.8978572215	-0.7956535277	-2.1026113824	 0.127605
H	 0.4614726134	-0.7029406859	-3.33040565	 0.118838
H	 2.8515839676	-2.5362254743	-1.3591924809	 0.227234
H	 2.8917678143	 0.1556484069	-2.327690399	 0.108697
H	 3.1377107957	-0.3941117748	-0.6432954263	 0.118034
H	-0.6662611374	-4.6763411669	 0.3475662685	 0.188732
58.4299	110.415	156.1149	211.4843	257.6357	269.3138	363.8988	405.1355	446.5863	524.2043	534.6509	579.1597	606.0944	670.332	677.5901	753.8887	818.1772	837.444	946.8268	953.9503	1002.483	1007.7977	1076.3511	1103.3492	1125.6249	1177.272	1178.4022	1205.9883	1255.5458	1283.7273	1295.9322	1366.3847	1399.3691	1472.8852	1490.5827	1491.9113	1507.4524	1513.8265	2220.2487	3003.2674	3043.8379	3062.9764	3099.6124	3102.2051	3130.2417	3216.3945	3502.3417	3510.2308
COC12CC1(NC2)C#C	CO[C@]12C[C@]1(NC2)C#C	
InChI=1S/C7H9NO/c1-3-6-4-7(6,9-2)5-8-6/h1,8H,4-5H2,2H3	InChI=1S/C7H9NO/c1-3-6-4-7(6,9-2)5-8-6/h1,8H,4-5H2,2H3/t6-,7+/m1/s1
