17
gdb 85579	2.8023	1.42766	1.11269	1.6885	70.48	-0.2513	0.0104	0.2618	1102.7488	0.137192	-455.193759	-455.185362	-455.184418	-455.227089	31.12	
C	 0.5327382014	 1.3346344289	-0.2844847925	-0.407678
C	-0.088241099	 0.0082566562	 0.1563384812	 0.002339
O	-0.1357489249	-0.9330804354	-0.936198949	-0.253996
C	 0.9075385702	-1.7644741431	-1.1784782205	 0.407465
N	 0.9616204316	-2.5211643321	-2.1900266131	-0.514362
C	 2.0377195954	-1.7618473679	-0.1722860201	-0.26067
N	 1.549575929	-1.4739448668	 1.165133387	-0.323687
C	 0.5984820892	-0.5347371391	 1.4106247288	 0.397545
O	 0.3013386041	-0.1314818844	 2.5176498692	-0.372913
H	 1.5874312586	 1.2168627928	-0.5526699589	 0.125994
H	-0.0026384036	 1.7258942703	-1.153023919	 0.136547
H	 0.4634527577	 2.0561887056	 0.5335676493	 0.151858
H	-1.1340527684	 0.1661099619	 0.426116345	 0.131776
H	 0.1451730808	-2.3748318716	-2.7868771083	 0.225212
H	 2.5016644966	-2.7476302677	-0.1971684675	 0.159058
H	 2.7992125979	-1.0345657371	-0.4935253193	 0.136634
H	 2.0719891434	-1.7983873605	 1.9657724877	 0.25888
70.9714	94.1388	185.5769	229.8274	239.7132	367.2948	402.7671	433.384	445.0401	523.2164	576.1078	601.1162	738.3131	751.6973	784.7746	852.8403	911.0396	927.5654	1010.9984	1048.6784	1064.9087	1105.2931	1130.9661	1159.4933	1253.4762	1296.4917	1330.3919	1342.5691	1382.9785	1400.5794	1413.1573	1469.2091	1488.9963	1494.2296	1513.2128	1757.8214	1807.6552	2988.3992	3045.9521	3100.6358	3124.1583	3133.2542	3135.9691	3470.453	3614.9787
CC1OC(=N)CNC1=O	C[C@H]1O[C]([NH])CNC1=O	
InChI=1S/C5H8N2O2/c1-3-5(8)7-2-4(6)9-3/h3,6H,2H2,1H3,(H,7,8)	InChI=1S/C5H8N2O2/c1-3-5(8)7-2-4(6)9-3/h3,6H,2H2,1H3,(H,7,8)/t3-/m1/s1
