18
gdb 15076	2.7381	1.49157	1.04839	3.0352	68.44	-0.243	-0.018	0.225	1125.7961	0.151872	-384.926774	-384.917785	-384.916841	-384.96125	31.615	
O	 0.1259523527	 1.3689289261	-0.0753654088	-0.414708
C	-0.0053389464	-0.0301206296	 0.1073016386	-0.07516
C	-1.4560262752	-0.5133461948	-0.0365347964	-0.127365
C	-2.0318762104	-0.032926699	-1.3585378378	 0.183105
O	-3.059441213	 0.5807504529	-1.4782693694	-0.254271
C	-1.5464117689	-2.0304328249	 0.0368984562	 0.00695
C	-1.6862742488	-2.7201353561	 1.3731286938	-0.272513
C	-2.8455294935	-2.6989780044	 0.409998072	-0.269739
H	-0.4166313843	 1.811094721	 0.5858902329	 0.287778
H	 0.6159207031	-0.4871895262	-0.6720082196	 0.114062
H	 0.3953845931	-0.3624040038	 1.0764123995	 0.100791
H	-2.0743985387	-0.0754966206	 0.7579220468	 0.080875
H	-1.4246520149	-0.3218362484	-2.2491433833	 0.071241
H	-0.9396256255	-2.5464076547	-0.7036862383	 0.090059
H	-1.1569594967	-3.6539515213	 1.5261355545	 0.118402
H	-1.7516519364	-2.0973181405	 2.2593527479	 0.11511
H	-3.6895312821	-2.0584735071	 0.6424607781	 0.12716
H	-3.1127448041	-3.6191571186	-0.0969335264	 0.118223
53.6171	75.8688	111.0532	157.4349	210.654	250.801	326.7485	373.1784	405.7746	470.9371	539.745	777.3406	829.0148	845.7839	877.6178	924.8389	966.6891	980.2455	1054.411	1060.9254	1080.0021	1094.1704	1121.2895	1137.4419	1155.2076	1198.1675	1213.3097	1224.5192	1269.7982	1329.876	1373.0489	1409.2968	1413.918	1430.079	1472.4291	1505.6774	1506.3981	1837.4438	2851.7321	2996.8836	3029.6129	3064.9179	3131.2241	3132.7016	3139.6517	3211.654	3227.3545	3813.7152
OCC(C=O)C1CC1	OC[C@@H](C=O)C1CC1	
InChI=1S/C6H10O2/c7-3-6(4-8)5-1-2-5/h3,5-6,8H,1-2,4H2	InChI=1S/C6H10O2/c7-3-6(4-8)5-1-2-5/h3,5-6,8H,1-2,4H2/t6-/m1/s1
