25
gdb 123267	10.36576	0.33712	0.33118	2.676	87.4	-0.2616	0.08	0.3416	3197.5687	0.226953	-426.62325	-426.611217	-426.610273	-426.662064	41.446	
O	-0.0609473418	 1.4859292915	 0.0105957968	-0.421738
C	 0.0380259193	 0.0690698095	 0.0020210947	-0.073493
C	-1.3727370887	-0.5034944169	 0.0124138075	-0.164698
C	-1.3984502993	-2.0346881943	 0.0044319271	-0.185813
C	-2.8170510445	-2.6142890947	 0.0148634301	-0.175295
C	-2.8490010991	-4.1464083634	 0.0069403276	-0.185813
C	-4.268975132	-4.719856069	 0.0174212018	-0.164698
C	-4.297168887	-6.2421352358	 0.0095129914	-0.073493
O	-5.6551671754	-6.6581713862	 0.020200524	-0.421738
H	 0.8291701843	 1.8493951599	 0.0039619736	 0.284036
H	 0.5770698766	-0.2869576319	-0.8918128657	 0.08154
H	 0.5940092471	-0.296503117	 0.8815113822	 0.08154
H	-1.8953970251	-0.1215908246	 0.8981467048	 0.103748
H	-1.9121745295	-0.1121469477	-0.8590221952	 0.103747
H	-0.8624102769	-2.4065530182	-0.8801601549	 0.091686
H	-0.8456597224	-2.4159785062	 0.8745845308	 0.091686
H	-3.3540753424	-2.2443517616	 0.8989577899	 0.095405
H	-3.3708267872	-2.2349310041	-0.8547867333	 0.095405
H	-2.3105278613	-4.5147309532	-0.8776558367	 0.091686
H	-2.2937748094	-4.5241517811	 0.8770892135	 0.091686
H	-4.812015498	-4.3676223034	 0.9031889963	 0.103747
H	-4.8287967623	-4.3581864127	-0.8539805822	 0.103749
H	-3.7723717871	-6.6189604479	-0.8842741247	 0.08154
H	-3.7554962496	-6.6284853547	 0.8890509094	 0.08154
H	-5.6750160085	-7.6194430962	 0.0153613513	 0.284036
44.4709	62.955	70.119	102.4234	122.312	160.2097	165.9772	166.8746	241.6248	267.1329	267.6612	303.2345	438.2718	452.1724	526.9982	736.6869	750.3638	784.4476	844.9048	931.0738	980.1273	1003.0704	1022.1237	1024.4149	1059.6469	1062.2654	1068.4623	1082.2893	1101.8016	1189.46	1203.4377	1208.6623	1244.5944	1248.4296	1281.8153	1290.9846	1313.6221	1314.9987	1316.1702	1334.7473	1338.3105	1356.2644	1395.4786	1405.3067	1463.6386	1463.7339	1485.7406	1486.8561	1493.6311	1502.6635	1513.6736	1529.6583	1530.3837	2955.2244	2955.3696	2979.5372	2979.6243	3000.8871	3002.8461	3013.3056	3023.4015	3029.5181	3030.0862	3031.2949	3053.7147	3073.4491	3077.4362	3829.4083	3829.424
OCCCCCCCO	OCCCCCCCO	
InChI=1S/C7H16O2/c8-6-4-2-1-3-5-7-9/h8-9H,1-7H2	InChI=1S/C7H16O2/c8-6-4-2-1-3-5-7-9/h8-9H,1-7H2
