18
gdb 68821	2.90455	1.26666	1.04336	4.1934	74.74	-0.2306	0.0232	0.2538	1176.1911	0.145866	-439.070562	-439.061532	-439.060587	-439.104284	33.395	
C	-0.0337909862	 1.6207911015	 0.1459642439	-0.488254
C	-0.0570538877	 0.1233532237	 0.1375940141	 0.281812
C	 1.0502541823	-0.775997713	-0.3887197013	-0.38915
C	 0.5894765893	-0.9123713012	 1.0435585874	 0.317016
O	 1.4005737869	-0.6681697576	 2.1298388986	-0.456381
C	-0.7554016154	-1.656372315	 1.122881366	-0.242234
N	-1.3038918383	-0.6454391419	 0.198471597	-0.078483
C	-2.274287921	-0.8240999964	-0.7345694575	 0.121998
O	-3.0582847538	-1.7504093937	-0.7460531826	-0.326762
H	 0.9697821488	 1.9743431332	 0.3993486756	 0.136506
H	-0.2983954927	 2.0383513237	-0.8314708219	 0.129976
H	-0.7347132009	 2.0139265199	 0.8885317188	 0.135692
H	 0.8404489047	-1.5423326642	-1.1305620899	 0.118235
H	 2.011536309	-0.2811201815	-0.4908185056	 0.12273
H	 2.1068573405	-1.3234132395	 2.141325045	 0.293363
H	-0.8036734777	-2.6832861257	 0.7480271914	 0.124771
H	-1.2102390612	-1.5981287611	 2.1161729375	 0.129819
H	-2.2974609168	 0.0043623689	-1.4719674466	 0.069343
66.7539	160.1403	170.6086	185.9359	217.3586	270.379	326.3774	343.3688	389.361	448.0975	485.0257	589.4773	602.5813	733.0678	766.8425	849.608	855.8329	953.6489	971.3338	1026.5542	1034.5784	1055.5902	1096.3289	1103.3622	1140.3934	1172.4696	1225.8525	1254.8815	1303.6016	1344.6316	1386.0088	1415.3408	1421.5654	1437.3712	1478.5066	1490.9828	1500.3508	1519.4754	1789.5351	2923.6353	3035.6271	3049.6555	3099.4586	3104.3926	3109.8061	3118.1488	3206.2666	3797.556
CC12CC1(O)CN2C=O	C[C@@]12C[C@]1(O)CN2C=O	
InChI=1S/C6H9NO2/c1-5-2-6(5,9)3-7(5)4-8/h4,9H,2-3H2,1H3	InChI=1S/C6H9NO2/c1-5-2-6(5,9)3-7(5)4-8/h4,9H,2-3H2,1H3/t5-,6+/m1/s1
