18
gdb 73431	3.02146	2.00402	1.47589	0.8475	73.83	-0.2142	0.0602	0.2744	915.1214	0.148964	-401.869039	-401.86207	-401.861126	-401.900027	28.523	
C	 0.1260434853	 1.4658857596	-0.0170129218	-0.463026
C	 0.1424533426	-0.0456166782	-0.025461539	 0.265722
C	-0.0830427214	-0.6457239206	-1.3973848469	-0.120648
O	 0.1243768322	-2.0453048584	-1.4624959562	-0.267619
C	 0.0556370065	-2.6727167728	-0.2218743296	 0.119538
C	 0.8840037567	-2.2628697542	 0.9579677093	-0.155813
C	-0.6395903928	-2.1259251113	 0.9890087445	-0.085581
N	-0.5712724673	-0.6197035777	 1.1468377103	-0.191324
C	 0.9291735311	-0.7295122292	 1.0321345085	-0.08976
H	 0.9766711094	 1.8690588549	-0.5769271082	 0.119573
H	-0.7960304523	 1.8433671443	-0.4726630191	 0.125262
H	 0.170374319	 1.8412342238	 1.0082606466	 0.134019
H	-1.1132627524	-0.4051725717	-1.7110400122	 0.098567
H	 0.5980172257	-0.1828849719	-2.1218787278	 0.110462
H	-0.0487412846	-3.7451125092	-0.3543245335	 0.111088
H	 1.5479796186	-2.919176416	 1.5048275469	 0.094473
H	-1.4011655071	-2.6522539881	 1.5519561456	 0.101208
H	 1.5745157707	-0.1883153836	 1.7175991724	 0.093859
144.7191	198.1837	265.9898	309.3008	400.2217	489.0197	520.632	563.5303	649.5883	690.5458	725.6736	766.289	827.6424	859.3543	906.0233	930.9153	953.6169	989.6039	1000.3837	1022.4129	1035.0704	1061.7944	1073.2507	1084.0864	1092.2509	1130.9045	1198.4279	1213.9496	1256.7438	1278.737	1310.608	1322.8932	1377.1642	1413.2758	1428.2449	1456.4765	1488.1154	1493.64	1514.1934	2957.5118	3032.541	3042.2873	3097.4307	3122.7988	3149.4609	3165.2986	3177.4529	3199.1856
CC12COC3C4C3N1C24	C[C@]12CO[C@H]3[C@@H]4[C@H]3N1[C@H]24	
InChI=1S/C7H9NO/c1-7-2-9-5-3-4(5)8(7)6(3)7/h3-6H,2H2,1H3	InChI=1S/C7H9NO/c1-7-2-9-5-3-4(5)8(7)6(3)7/h3-6H,2H2,1H3/t3-,4+,5-,6-,7+,8?/m0/s1
