19
gdb 109900	2.66372	1.52663	1.25536	2.1079	70.9	-0.2323	0.052	0.2843	1069.4931	0.159479	-460.108524	-460.100203	-460.099259	-460.141515	31.516	
C	 0.2614155215	 1.5451909208	-0.1376437406	-0.244273
O	-0.2574184416	 0.2434228056	-0.3503444842	-0.236396
C	 0.4969813474	-0.5146520948	-1.250584878	 0.067749
C	 1.8553419196	-1.1363487331	-0.7112976737	 0.116511
O	 2.2432827825	-0.8301727709	 0.5939739432	-0.430976
C	 1.2448443044	-2.5478546656	-0.8993525596	 0.06148
O	 0.5709517087	-2.9478808515	 0.3171292755	-0.309411
C	-0.7221053597	-2.5370425698	-0.2158245811	-0.08128
C	-0.0713788631	-1.9399293252	-1.470305917	-0.132018
H	 1.2662955951	 1.5084121322	 0.2966463535	 0.136847
H	 0.2936530927	 2.117229065	-1.0780459864	 0.101153
H	-0.4158720331	 2.0481735722	 0.5566703386	 0.124717
H	 0.64492125	 0.0335706862	-2.1939830204	 0.060452
H	 2.6972808558	-0.93050755	-1.3794975755	 0.081112
H	 1.651754007	-1.3480580257	 1.1608230142	 0.292074
H	 1.8360448486	-3.3553251277	-1.337101068	 0.076808
H	-1.35090624	-3.4131360043	-0.4114468148	 0.104712
H	-1.2416348011	-1.8395704624	 0.4447023234	 0.13037
H	-0.5034130246	-2.1741190411	-2.4409530791	 0.080369
83.056	138.8592	180.5798	207.6696	251.6881	274.047	343.036	487.4274	510.5514	581.7872	596.3416	694.7612	773.381	828.9179	849.7116	913.2502	936.9046	988.3413	1004.1677	1025.6429	1061.6547	1087.9044	1129.217	1150.2239	1168.4781	1181.1073	1184.0097	1202.3928	1238.6358	1249.0341	1273.0122	1288.8321	1312.0625	1331.0373	1347.7805	1383.5126	1447.0006	1479.6986	1485.9317	1514.4844	1518.0881	2974.151	2985.8436	3034.3759	3061.8241	3072.3209	3085.4315	3112.5959	3121.9786	3133.8488	3716.7493
COC1C(O)C2OCC12	CO[C@H]1[C@@H](O)[C@H]2OC[C@@H]12	
InChI=1S/C6H10O3/c1-8-5-3-2-9-6(3)4(5)7/h3-7H,2H2,1H3	InChI=1S/C6H10O3/c1-8-5-3-2-9-6(3)4(5)7/h3-7H,2H2,1H3/t3-,4+,5+,6-/m0/s1
