24
gdb 87127	2.38549	1.2543	1.17754	1.8325	85.32	-0.2222	0.0685	0.2907	1257.2692	0.213985	-405.523981	-405.513094	-405.51215	-405.558796	41.945	
C	-0.2310992804	 1.5895972578	 0.2889076465	-0.316235
N	-0.1144349602	 0.140863401	 0.2594898817	-0.103804
C	 1.0562566383	-0.455043972	-0.3720607902	-0.303397
C	 0.847261578	-0.5723425032	 1.1052134908	 0.32321
C	 1.8139911072	 0.1883666892	 2.0005489593	-0.500882
C	 0.2683324609	-1.8621881481	 1.7455195005	 0.307847
C	-0.7763159552	-1.4815755562	 2.8060199325	-0.436173
C	-0.3564478548	-2.8013124086	 0.7135699218	-0.416531
O	 1.3293893825	-2.6215202742	 2.3432908367	-0.464222
H	 0.7274483937	 2.1296272938	 0.3270614249	 0.099408
H	-0.7586672602	 1.9142572396	-0.614062102	 0.124436
H	-0.8298770762	 1.8919978768	 1.1543929964	 0.120519
H	 0.8713062791	-1.2823238671	-1.0500815203	 0.112257
H	 1.8530382093	 0.2163176913	-0.694491805	 0.096542
H	 2.2018813416	 1.0841758876	 1.5127517247	 0.12013
H	 1.3474439046	 0.5013972197	 2.9415975563	 0.115174
H	 2.6699537964	-0.4479812541	 2.2404169292	 0.131561
H	-1.601145236	-0.9308646835	 2.3462426955	 0.133728
H	-1.1740849588	-2.3832823896	 3.2804012233	 0.117728
H	-0.3471582442	-0.8486170685	 3.5916296991	 0.100082
H	 0.4194150727	-3.2320016825	 0.0756230864	 0.119769
H	-0.8629096954	-3.6240770254	 1.2250853516	 0.109777
H	-1.0800558028	-2.2665980569	 0.0949919115	 0.132922
H	 1.5478422199	-2.217704077	 3.1887338987	 0.276154
62.7653	161.5432	174.7796	189.0548	246.8502	250.2503	287.3992	294.4463	303.9004	332.2116	342.8867	365.4516	397.2036	459.8523	477.8556	484.2435	542.5638	650.0571	777.7067	814.4012	886.7075	927.8046	941.211	964.1925	988.8625	1010.2531	1062.6005	1085.615	1111.5564	1124.8727	1150.6652	1166.1588	1194.2431	1206.3587	1221.6608	1285.4937	1359.037	1375.8348	1394.5666	1402.2996	1416.097	1448.8601	1481.512	1485.5388	1489.9826	1492.5686	1502.1192	1505.167	1509.5314	1519.4277	1527.596	2981.1112	3028.7533	3040.4351	3051.4331	3063.6754	3085.2328	3096.6851	3096.8103	3105.8907	3119.8079	3125.5087	3132.3597	3141.5893	3181.9628	3823.3864
CN1CC1(C)C(C)(C)O	CN1C[C@]1(C)C(C)(C)O	
InChI=1S/C7H15NO/c1-6(2,9)7(3)5-8(7)4/h9H,5H2,1-4H3	InChI=1S/C7H15NO/c1-6(2,9)7(3)5-8(7)4/h9H,5H2,1-4H3/t7-,8?/m1/s1
