21
gdb 113246	4.41457	0.79386	0.75521	1.9744	85.52	-0.2538	0.0499	0.3037	1597.4073	0.178605	-387.050343	-387.039772	-387.038828	-387.086266	38.477	
C	 0.672217739	 1.4765917836	 0.0729807162	-0.371856
C	-0.1855728512	 0.2209300771	-0.1304065902	-0.223217
C	 0.2603009448	-0.5665746854	-1.3393854206	 0.025183
O	 1.498468421	-1.2889675346	-1.2429726997	-0.292282
C	 0.2944141191	-2.0366248118	-1.459142841	 0.376172
C	-0.127497506	-2.9638181728	-0.3417541548	-0.46528
C	 0.1741727079	-2.6251124057	-2.8693698896	-0.418611
C	 0.9330230021	-3.8574705374	-3.0559306332	 0.314964
C	 1.5573644213	-4.8744728109	-3.1982765771	-0.448255
H	 1.7211803324	 1.2031198406	 0.2196705921	 0.136401
H	 0.6173342189	 2.1405101386	-0.7966840464	 0.11529
H	 0.3398829242	 2.0427679985	 0.9478921521	 0.113505
H	-0.1414898146	-0.4037132468	 0.7657807238	 0.10492
H	-1.2370219476	 0.5040437573	-0.2713972521	 0.100432
H	 0.1653265919	-0.008995007	-2.2766326677	 0.077939
H	 0.0561857222	-2.519371596	 0.6366644852	 0.129126
H	-1.1925838255	-3.2078217226	-0.423215038	 0.118298
H	 0.4362801674	-3.8990461546	-0.404783206	 0.143556
H	-0.8864800902	-2.8135673157	-3.0847950545	 0.130295
H	 0.5146615994	-1.8733711028	-3.5898814655	 0.136685
H	 2.1148349633	-5.7680996716	-3.3322336931	 0.196736
49.2301	68.5924	120.2151	141.1729	187.6951	209.1119	259.17	307.9781	338.6124	360.3281	392.1595	422.2998	482.4939	617.816	623.7269	642.509	720.2695	769.6119	833.4063	890.8212	914.0554	927.3961	973.5984	1002.287	1038.5971	1086.7981	1106.0116	1147.9322	1158.7802	1211.7473	1263.1936	1289.616	1318.571	1344.6624	1379.2485	1407.0258	1416.9635	1453.7592	1467.4412	1474.5238	1493.3104	1498.3248	1505.5864	1516.9421	2238.5879	3018.2849	3028.0873	3036.5806	3043.7578	3052.6334	3068.333	3088.2734	3108.2028	3109.704	3118.1962	3147.8314	3506.3625
CCC1OC1(C)CC#C	CC[C@H]1O[C@]1(C)CC#C	
InChI=1S/C8H12O/c1-4-6-8(3)7(5-2)9-8/h1,7H,5-6H2,2-3H3	InChI=1S/C8H12O/c1-4-6-8(3)7(5-2)9-8/h1,7H,5-6H2,2-3H3/t7-,8-/m1/s1
