16
gdb 32253	2.68376	1.55688	0.99153	4.5408	75.2	-0.2209	-0.005	0.216	1139.3513	0.125911	-437.936793	-437.928963	-437.928019	-437.969196	29.601	
C	 0.1176199633	 1.3338169055	-0.0147469532	-0.253138
O	-0.0101704281	-0.0786660348	-0.0399513562	-0.29017
C	-1.2621447912	-0.6120586086	-0.0095870677	 0.305406
C	-2.4614674344	 0.0852724058	 0.043313895	-0.267991
C	-3.6491493805	-0.6498665609	 0.0674912627	-0.004209
N	-3.7017866766	-1.9790200215	 0.042739108	-0.276649
C	-2.5400447352	-2.6410089994	-0.0083788113	-0.060055
C	-1.3006402477	-2.0165075979	-0.0362502455	 0.246174
O	-0.1576774397	-2.7463388465	-0.0878271731	-0.441129
H	 1.1873873895	 1.5443693033	-0.0444618218	 0.142996
H	-0.3682249811	 1.7919506055	-0.8844550583	 0.135934
H	-0.311252184	 1.7548955316	 0.9023523349	 0.135949
H	-2.4905404253	 1.1670954048	 0.065586681	 0.101487
H	-4.6011471511	-0.1267838273	 0.1089166954	 0.103683
H	-2.5791968646	-3.7269986801	-0.0286486387	 0.115343
H	 0.5806650569	-2.1236422096	-0.1000339612	 0.306371
87.8318	180.3124	220.1853	237.4058	312.5965	334.6917	437.2201	468.1313	511.2537	535.2966	611.4584	621.8423	767.8328	784.8446	828.6572	855.8525	932.3833	962.0926	1068.0376	1081.7275	1178.7033	1191.0081	1209.664	1245.4527	1261.9551	1306.5099	1337.1468	1375.7531	1476.3529	1484.4226	1490.1013	1506.9066	1544.2817	1626.4459	1636.5516	3017.5094	3082.225	3143.3106	3157.8125	3166.0532	3210.0454	3780.5507
COC1=CC=NC=C1O	COc1ccncc1O	
InChI=1S/C6H7NO2/c1-9-6-2-3-7-4-5(6)8/h2-4,8H,1H3	InChI=1S/C6H7NO2/c1-9-6-2-3-7-4-5(6)8/h2-4,8H,1H3
