16
gdb 32296	2.73753	1.52482	0.9863	0.395	78.39	-0.1951	-0.0215	0.1736	1147.7333	0.126918	-434.13653	-434.128451	-434.127507	-434.169423	29.829	
C	 0.0054734819	 1.4263971247	 0.1312928361	-0.322851
N	-0.0503991824	 0.0047823134	-0.096023731	-0.357195
C	 0.59959506	-0.6151129223	-1.1202330465	 0.197626
C	 1.2312174219	-0.015379817	-2.1832684002	-0.117862
N	 1.8384411832	-0.7094535337	-3.2011754531	-0.263996
C	 1.8178108174	-1.9967915664	-3.1346560684	 0.075967
N	 1.22791198	-2.6843248505	-2.104278776	-0.347852
C	 0.5903972644	-2.0773089449	-1.0332667224	 0.399939
O	 0.0864678029	-2.714426038	-0.1176596077	-0.412649
H	 1.0356548447	 1.7932760036	 0.2574813055	 0.124138
H	-0.4449296351	 1.9773839422	-0.7043876516	 0.133694
H	-0.5593491873	 1.666352041	 1.0338313259	 0.133506
H	-0.3159766008	-0.6178172322	 0.6521584274	 0.26075
H	 1.2721205912	 1.0650982114	-2.2684063228	 0.102456
H	 2.2779409472	-2.6038018283	-3.9078551955	 0.128993
H	 1.2443304307	-3.6954667131	-2.0841744697	 0.265337
81.7726	136.0518	179.1277	194.3132	279.0775	354.1313	437.7985	456.1042	528.6955	570.6708	604.0871	608.7686	722.6483	778.7296	799.7162	868.2596	900.8081	913.5804	1058.2576	1111.6466	1146.2073	1159.2738	1207.7662	1267.9947	1302.4982	1402.8363	1416.9098	1452.3296	1465.7706	1479.8373	1518.0539	1541.5157	1609.1113	1653.553	1766.0262	2985.9524	3040.6296	3129.0363	3181.6586	3186.5409	3596.3451	3616.5712
CNC1=CN=CNC1=O	CNc1cnc[nH]c1=O	
InChI=1S/C5H7N3O/c1-6-4-2-7-3-8-5(4)9/h2-3,6H,1H3,(H,7,8,9)	InChI=1S/C5H7N3O/c1-6-4-2-7-3-8-5(4)9/h2-3,6H,1H3,(H,7,8,9)
