17
gdb 53850	4.311	0.73238	0.63322	0.7242	75.61	-0.2442	-0.0876	0.1566	1700.2989	0.130869	-421.828637	-421.818201	-421.817257	-421.865915	35.548	
C	 0.0124763823	 1.5045246079	 0.0097911864	-0.47449
C	 0.0480631871	-0.0026826522	 0.0011301148	 0.310024
O	 1.0602836828	-0.6629719826	-0.0119238165	-0.271561
C	-1.3283129211	-0.7163834182	 0.0108152413	 0.266156
O	-2.3446794188	-0.0601180116	 0.0239649157	-0.283664
C	-1.2976356638	-2.2275057469	 0.0023538233	-0.290864
C	-2.7051260163	-2.8432541199	 0.012799435	-0.366475
C	-2.6703895057	-4.2999415924	 0.0045092794	 0.284059
C	-2.6172128391	-5.5005125035	-0.0025079931	-0.423623
H	 1.0294412895	 1.89674025	 0.0021187794	 0.143512
H	-0.5460424302	 1.8713232355	-0.8573120869	 0.157546
H	-0.5291131164	 1.861685729	 0.8915372988	 0.15756
H	-0.7227812021	-2.5577293233	-0.8709690703	 0.153171
H	-0.7057951416	-2.5670977805	 0.8606027523	 0.153164
H	-3.251887067	-2.4843466405	 0.8923380587	 0.144904
H	-3.2689959517	-2.47482133	-0.8518703896	 0.144912
H	-2.5849800679	-6.5617087411	-0.0086337086	 0.195668
35.0548	60.899	71.3086	94.1381	101.3247	207.0768	267.3468	329.6546	336.5393	362.982	480.3	549.5652	581.7137	600.6896	623.0815	644.9267	767.0837	783.5128	912.0612	969.472	977.4848	1039.7952	1055.0727	1078.0731	1166.8767	1232.6535	1292.5281	1311.0693	1382.6277	1389.6591	1434.5569	1451.7863	1459.4862	1469.424	1798.9713	1809.435	2242.0401	3039.8868	3049.8063	3052.9645	3064.9027	3085.4773	3110.7624	3163.2538	3507.6234
CC(=O)C(=O)CCC#C	CC(=O)C(=O)CCC#C	
InChI=1S/C7H8O2/c1-3-4-5-7(9)6(2)8/h1H,4-5H2,2H3	InChI=1S/C7H8O2/c1-3-4-5-7(9)6(2)8/h1H,4-5H2,2H3
