18
gdb 80444	2.5458	1.58517	1.30466	2.5333	72.23	-0.2208	0.0478	0.2686	1049.9608	0.148602	-435.267689	-435.258946	-435.258002	-435.300654	33.469	
C	-0.0254307069	 1.5064603074	-0.0366017853	-0.469089
C	 0.0001753017	 0.00486001	 0.0595793752	 0.291585
N	-1.2419004843	-0.6822902811	-0.2185872481	-0.384423
C	-1.2544609421	-1.7123976881	 0.5421146267	 0.442135
N	-2.1773579735	-2.7221202245	 0.5529654515	-0.580245
O	-0.2204850573	-1.8904123353	 1.4146403589	-0.245576
C	 0.6711555822	-0.8160131808	 1.1489390832	-0.016033
C	 1.2713275777	-0.7941839528	-0.2450502078	-0.07636
N	 1.2796033984	-1.941746323	-1.105518448	-0.53295
H	 0.9457319866	 1.9340509569	 0.2293821561	 0.112773
H	-0.2662534357	 1.8180802266	-1.0581460416	 0.13026
H	-0.783707504	 1.9273657439	 0.6316227379	 0.119743
H	-3.046920573	-2.4783682696	 0.1038949492	 0.270115
H	-2.2803355468	-3.1971968209	 1.437265692	 0.264101
H	 1.1852895579	-0.4671176397	 2.0356464355	 0.105079
H	 2.1617403861	-0.1685992165	-0.3048090088	 0.090703
H	 1.327615629	-2.8029725699	-0.5711122331	 0.235036
H	 0.424413834	-1.9803742926	-1.6507534235	 0.243147
99.962	145.9109	188.552	228.5854	242.9738	275.8275	318.3846	378.0517	448.34	540.0447	581.3085	605.3267	634.7839	705.4039	743.6655	770.8141	811.3435	837.5881	898.6885	946.9298	959.4126	991.419	1043.6118	1110.2411	1115.0034	1147.2667	1186.8673	1259.9909	1262.4091	1275.441	1332.4345	1411.8227	1419.5307	1431.8289	1480.9727	1498.7405	1613.9724	1664.147	1729.3567	3034.8831	3101.2561	3101.5641	3112.8994	3191.1561	3502.102	3572.6292	3581.292	3694.1654
CC12N=C(N)OC1C2N	C[C@]12N=C(N)O[C@H]1[C@H]2N	
InChI=1S/C5H9N3O/c1-5-2(6)3(5)9-4(7)8-5/h2-3H,6H2,1H3,(H2,7,8)	InChI=1S/C5H9N3O/c1-5-2(6)3(5)9-4(7)8-5/h2-3H,6H2,1H3,(H2,7,8)/t2-,3+,5-/m1/s1
