18
gdb 83895	2.59674	1.43715	1.20913	3.5092	76.98	-0.2689	0.0246	0.2935	1090.9486	0.148912	-401.959404	-401.951197	-401.950253	-401.992009	30.953	
C	-0.1769994309	 1.5519131388	-0.0156913014	-0.434504
C	 0.0336210706	 0.0526779833	 0.0190636399	-0.054858
C	 1.3423939931	-0.6471250821	-0.2291273661	-0.123489
C	 2.6339142332	 0.1347900844	-0.0746571849	-0.099284
O	 2.5215406017	 0.8569129669	 1.1491037562	-0.252219
C	 1.6890968168	 0.135379041	 2.0452264565	-0.150929
C	 0.7287809753	-0.6734369424	 1.1711391376	 0.149784
C	 0.139215422	-1.8535716795	 1.7284681477	 0.201712
N	-0.3398944068	-2.7995897296	 2.1924763036	-0.345769
H	 0.6862246775	 2.0976261913	 0.3662213791	 0.15172
H	-0.3609482454	 1.8771855628	-1.0451957644	 0.126039
H	-1.0544628004	 1.8281272023	 0.577809928	 0.12891
H	-0.8159923281	-0.5115221308	-0.3571856622	 0.112775
H	 1.3547038264	-1.545186103	-0.8351953891	 0.116509
H	 3.4875910309	-0.5597463084	-0.051776235	 0.109548
H	 2.8079578987	 0.8695691223	-0.8674319752	 0.120723
H	 2.2700816694	-0.5517202276	 2.6779660937	 0.117285
H	 1.1899199061	 0.8647222903	 2.6904168459	 0.126047
134.0966	161.9721	183.4132	200.1845	235.298	238.7146	399.5017	465.6808	524.0599	550.6737	566.6068	685.5659	720.5981	812.8324	864.5397	938.2269	941.8157	993.893	1022.8543	1063.8829	1077.1141	1090.6494	1115.5098	1123.9589	1146.0758	1220.6163	1241.864	1251.802	1266.068	1351.2193	1365.3678	1379.4837	1417.8349	1455.4742	1499.5212	1504.9663	1515.1151	1523.956	2348.0887	2990.4997	2999.8362	3041.695	3073.2116	3080.8216	3098.1135	3137.1615	3154.5226	3189.8285
CC1C2COCC12C#N	C[C@H]1[C@H]2COC[C@@]12C#N	
InChI=1S/C7H9NO/c1-5-6-2-9-4-7(5,6)3-8/h5-6H,2,4H2,1H3	InChI=1S/C7H9NO/c1-5-6-2-9-4-7(5,6)3-8/h5-6H,2,4H2,1H3/t5-,6+,7-/m0/s1
