14
gdb 62423	2.45968	1.57237	1.35285	4.2166	67.01	-0.2588	-0.0486	0.2102	982.4814	0.099639	-436.674083	-436.666031	-436.665087	-436.706726	29.597	
O	-0.1387448361	 1.4353079936	 0.1300759205	-0.452477
C	-0.0477904939	 0.0367828254	 0.0378021959	 0.12746
C	 0.8919553075	-0.5218475803	 1.0185011559	 0.234438
N	 1.6524273425	-0.9491088317	 1.7770513678	-0.32119
C	-1.4021027098	-0.6858254227	 0.0291237439	-0.055206
C	-2.1985581415	-0.2143421306	-1.1305501304	-0.300027
C	-1.1311378023	-1.2743145205	-1.3860954103	-0.16709
C	 0.203184957	-0.6126818675	-1.3973250558	 0.37076
O	 1.1671041735	-0.6292500083	-2.1008095083	-0.2991
H	 0.7266025149	 1.808191284	-0.0790230271	 0.305936
H	-1.8169024181	-1.2043310173	 0.8816160417	 0.13328
H	-3.2113071387	-0.5972075248	-1.1923063061	 0.141238
H	-2.0706251431	 0.7950078771	-1.503158361	 0.151657
H	-1.376298882	-2.2428810264	-1.8007473666	 0.130321
104.7091	129.7093	175.3897	203.7288	271.4626	312.6437	395.4435	465.1004	508.9582	584.3896	652.1815	685.6434	751.4745	788.0767	866.9732	895.5926	938.9115	948.0251	1040.9777	1047.0457	1086.436	1108.6086	1111.1152	1155.5644	1193.5927	1285.2445	1314.8573	1365.7471	1490.8978	1897.4164	2348.278	3144.5284	3212.9903	3225.8991	3234.9016	3793.7684
OC1(C#N)C2CC2C1=O	O[C@@]1(C#N)[C@H]2C[C@H]2C1=O	
InChI=1S/C6H5NO2/c7-2-6(9)4-1-3(4)5(6)8/h3-4,9H,1H2	InChI=1S/C6H5NO2/c7-2-6(9)4-1-3(4)5(6)8/h3-4,9H,1H2/t3-,4+,6+/m1/s1
