19
gdb 84580	2.51473	1.87814	1.35868	1.5173	80.12	-0.2416	0.0073	0.2489	990.3314	0.162119	-385.910094	-385.902763	-385.901819	-385.941921	29.786	
O	-0.1124166254	 1.4205792601	 0.7773981622	-0.425884
C	-0.0181373443	 0.145546193	 0.1407424944	 0.081274
C	 0.8392520566	-0.798314712	 0.9517514021	-0.106521
C	 0.1331502226	-1.7930564191	 1.4858913524	-0.077561
C	-1.319177669	-1.7594874053	 1.0646818243	-0.093123
C	-2.2955028838	-1.2826229733	 2.1220800836	-0.082289
C	-2.9903687966	-0.2193143814	 1.7175009452	-0.070639
C	-2.6359183131	 0.210550484	 0.3124901992	-0.273304
C	-1.375912527	-0.6265461813	-0.0103415945	-0.066742
H	-0.3575103658	 1.2581664324	 1.6960366172	 0.277994
H	 0.4098877283	 0.3748107895	-0.8403572175	 0.085526
H	 1.8915569796	-0.6005832893	 1.1241562137	 0.097354
H	 0.5256311856	-2.5511340974	 2.1562354709	 0.095779
H	-1.6306684874	-2.7374461001	 0.6704500747	 0.079707
H	-2.4032185762	-1.7763396766	 3.0821973278	 0.090417
H	-3.7530720126	 0.2831621597	 2.3039339104	 0.09117
H	-3.4582791283	-0.0110355325	-0.3801508194	 0.101066
H	-2.4356860681	 1.284235355	 0.2385273903	 0.122253
H	-1.4168665751	-1.0480784157	-1.0170912569	 0.073523
66.2459	179.078	270.6734	336.4028	388.2437	416.6984	484.7835	557.0291	609.0354	704.2117	754.2306	763.9652	781.4595	808.9704	859.6875	884.6363	936.8607	967.8588	977.2209	984.6282	993.3062	1027.7215	1047.6547	1051.4963	1092.4165	1125.8976	1135.5087	1188.8793	1216.9124	1249.1946	1271.1601	1285.0021	1307.3666	1322.118	1331.774	1362.2365	1377.2182	1434.9778	1479.2382	1672.0837	1685.9252	2996.2566	3020.6095	3054.5893	3074.8317	3083.8357	3173.0596	3176.312	3199.3489	3204.3312	3788.8889
OC1C=CC2C=CCC12	O[C@H]1C=C[C@H]2C=CC[C@@H]12	
InChI=1S/C8H10O/c9-8-5-4-6-2-1-3-7(6)8/h1-2,4-9H,3H2	InChI=1S/C8H10O/c9-8-5-4-6-2-1-3-7(6)8/h1-2,4-9H,3H2/t6-,7-,8+/m1/s1
