18
gdb 80186	2.45098	1.63237	1.36349	4.6803	71.68	-0.2352	0.0564	0.2916	1031.4447	0.14793	-439.119123	-439.110574	-439.109629	-439.152524	31.225	
C	-0.1048250879	 1.5730389331	 0.0163868224	-0.425544
C	 0.0230536397	 0.0685030638	 0.0581951123	-0.076736
C	 1.3265454029	-0.6629168615	-0.1678763318	 0.0553
O	 2.5340515499	 0.0587519024	-0.0484161311	-0.243201
C	 2.7042676705	 0.4703499943	 1.256462188	 0.473125
O	 3.6327261714	 1.1385708379	 1.6223820439	-0.404772
N	 1.6420607103	 0.0095871761	 1.9980852173	-0.117125
C	 1.4433567361	 0.3825020408	 3.379524376	-0.345179
C	 0.6943796227	-0.696964413	 1.1963308309	-0.064294
H	 0.744421747	 2.0737967464	 0.4863157478	 0.147133
H	-0.1606109379	 1.9259230546	-1.018219743	 0.131466
H	-1.0133079866	 1.8983626602	 0.5332413726	 0.122422
H	-0.8211860705	-0.4735647033	-0.3626519467	 0.098069
H	 1.4097672496	-1.5090259502	-0.838009112	 0.117381
H	 2.3395991752	 0.911225853	 3.7078908307	 0.16933
H	 0.5739359765	 1.0403168069	 3.4999643857	 0.128068
H	 1.2983518294	-0.5042435485	 4.007301902	 0.127009
H	 0.2405944916	-1.5779494429	 1.6383732551	 0.10755
88.2311	126.0684	141.5819	155.1214	216.9569	270.2018	296.3064	454.3618	541.0696	607.1584	653.1949	718.8419	753.6284	765.092	806.0499	830.0305	902.889	1000.1747	1024.7061	1051.4015	1075.1202	1105.2032	1117.5305	1136.6104	1151.6306	1164.5831	1215.1621	1267.4425	1335.0378	1363.1499	1406.7806	1425.91	1433.4588	1457.6376	1491.1456	1492.5964	1501.3196	1521.9918	1872.8956	3018.7487	3042.8604	3070.4472	3102.3128	3123.8512	3139.2354	3146.2217	3158.2992	3193.4342
CC1C2OC(=O)N(C)C12	C[C@H]1[C@H]2OC(=O)N(C)[C@@H]12	
InChI=1S/C6H9NO2/c1-3-4-5(3)9-6(8)7(4)2/h3-5H,1-2H3	InChI=1S/C6H9NO2/c1-3-4-5(3)9-6(8)7(4)2/h3-5H,1-2H3/t3-,4+,5-/m1/s1
