21
gdb 56667	2.41677	1.24534	1.10448	1.7187	83.34	-0.2457	0.0481	0.2938	1232.8849	0.180015	-387.039187	-387.029176	-387.028232	-387.074237	37.078	
C	-0.226005165	 1.4784411345	-0.0029224013	-0.408697
C	 0.058670851	-0.0372086991	 0.015676284	-0.218731
C	 0.7249401183	-0.4591665378	-1.2170212911	 0.331739
C	 1.2864644719	-0.7999399333	-2.2245549929	-0.467986
C	 0.8569624043	-0.4987331068	 1.2644029216	 0.302161
C	 2.2216599401	 0.1678520434	 1.3938266048	-0.47638
C	-0.016606111	-0.5240841943	 2.5469631454	-0.122312
O	-0.1077628863	-1.9601024131	 2.5176761728	-0.276097
C	 0.8354931961	-2.0409346867	 1.4292115379	-0.115994
H	 0.6947216956	 2.0536765122	-0.1257677469	 0.131605
H	-0.8900959052	 1.729495233	-0.8336638195	 0.129553
H	-0.7098905269	 1.7910724014	 0.9276619762	 0.118131
H	-0.9092840307	-0.5561519427	 0.0614035439	 0.113448
H	 1.7710049382	-1.1045642927	-3.1190706878	 0.196277
H	 2.1303574159	 1.2461054137	 1.5596745119	 0.119126
H	 2.7731160641	-0.2495599354	 2.2418542939	 0.117975
H	 2.8195595168	 0.0145987124	 0.4899224305	 0.13353
H	 0.492963201	-0.1617410349	 3.4502521162	 0.092694
H	-1.0034040386	-0.0481198494	 2.482766127	 0.097465
H	 0.4442312898	-2.6157698422	 0.5820997936	 0.108239
H	 1.7909932308	-2.4790167617	 1.7469623398	 0.094252
49.603	82.2637	134.1251	200.4953	215.6497	232.0604	266.9663	317.8166	339.9564	375.7572	435.0616	502.293	553.056	626.9299	642.0791	698.1558	797.6146	865.6103	901.4472	913.1639	975.1514	986.4055	996.2934	1037.8227	1039.6261	1084.2286	1115.2016	1156.9685	1165.8627	1183.9075	1206.8677	1283.3988	1310.2424	1337.2123	1344.4559	1385.2877	1406.0418	1415.8575	1489.5422	1492.5733	1497.661	1508.2724	1514.6385	1537.0259	2230.1982	2997.5405	3004.7633	3011.0007	3036.6966	3043.5903	3046.5179	3062.0436	3103.952	3110.0193	3117.5193	3129.5475	3503.2371
CC(C#C)C1(C)COC1	C[C@@H](C#C)C1(C)COC1	
InChI=1S/C8H12O/c1-4-7(2)8(3)5-9-6-8/h1,7H,5-6H2,2-3H3	InChI=1S/C8H12O/c1-4-7(2)8(3)5-9-6-8/h1,7H,5-6H2,2-3H3/t7-/m0/s1
