19
gdb 77121	3.10482	1.14027	0.96954	1.5003	77.35	-0.2447	-0.0242	0.2204	1255.3006	0.157416	-423.00637	-422.99728	-422.996336	-423.040818	33.537	
O	 0.3193295949	 0.8756512047	-0.4554348346	-0.434806
C	 0.0137150907	-0.4199623738	-0.0031611968	 0.052369
C	-0.0652708194	-0.6773062941	 1.5267134688	-0.107083
C	-1.4123825149	-1.4530873033	 1.2967617934	-0.344766
C	-1.4618245664	-0.8048504481	-0.0935210166	 0.348716
C	-2.5310451251	 0.1292197478	-0.5781517637	-0.307668
C	-2.2626360562	-1.1717808911	-1.3026441725	-0.339846
C	 1.0579111713	-1.4161871682	 2.192147898	 0.130129
O	 2.0911460242	-1.7208684053	 1.6472543974	-0.250731
H	 1.2749270878	 0.945452691	-0.5430058433	 0.291748
H	 0.66375286	-1.1699499846	-0.4724292672	 0.08697
H	-0.2626351713	 0.2549220101	 2.0677928834	 0.105349
H	-1.2682292354	-2.5378499455	 1.2609334156	 0.112029
H	-2.2296677451	-1.2264307693	 1.9844566413	 0.112636
H	-3.4420770985	 0.2104361104	 0.0065067269	 0.108145
H	-2.2050443266	 1.0507812215	-1.0467450216	 0.133703
H	-1.7719737154	-1.1245815653	-2.2699152313	 0.116336
H	-2.99226709	-1.9699900121	-1.209344958	 0.110414
H	 0.8732897753	-1.6954776147	 3.2557715807	 0.076355
46.1643	80.8475	161.836	214.936	226.5713	263.3656	277.9887	334.6689	431.6779	496.9241	552.0656	633.4362	763.6643	783.7392	813.3181	861.5154	896.0526	914.5422	934.5966	981.9468	1007.5068	1053.356	1067.894	1077.6199	1104.6251	1119.3481	1140.3537	1190.2094	1203.9351	1221.0621	1238.967	1251.6414	1265.3989	1349.1321	1385.4183	1421.3308	1450.9955	1459.4261	1493.4925	1503.8967	1815.3736	2860.3023	3021.1236	3049.5265	3058.0098	3110.0883	3122.5276	3130.4905	3203.7779	3224.1617	3826.8329
OC1C(CC11CC1)C=O	O[C@H]1[C@@H](CC21CC2)C=O	
InChI=1S/C7H10O2/c8-4-5-3-7(1-2-7)6(5)9/h4-6,9H,1-3H2	InChI=1S/C7H10O2/c8-4-5-3-7(1-2-7)6(5)9/h4-6,9H,1-3H2/t5-,6-/m0/s1
