20
gdb 108625	2.41597	1.40375	1.02161	2.4161	82.4	-0.2099	0.0135	0.2234	1224.1064	0.170836	-403.126842	-403.117829	-403.116884	-403.160747	33.711	
C	 0.215813897	 1.5251612945	 0.170208413	-0.507099
C	 0.0951580421	 0.0422956835	 0.0158979225	 0.214672
C	-0.0594528067	-0.6954264943	-1.0923456563	 0.218183
C	-0.1286074306	-0.2506269355	-2.5160430481	-0.199146
O	 0.9103313127	-0.9090821432	-3.2422104395	-0.419693
C	-0.1625858504	-2.1668423067	-0.7376154724	-0.251301
N	-0.0026887738	-2.2549987573	 0.7304294405	-0.102817
C	 1.3077756605	-1.817094902	 1.218551784	-0.238211
C	 0.1598830212	-0.8636564338	 1.2047162855	-0.114318
H	 1.161979179	 1.7916570181	 0.6573043879	 0.132675
H	 0.1665155804	 2.050354663	-0.7863507037	 0.126191
H	-0.5851410672	 1.9177154127	 0.8096048207	 0.129678
H	-1.1138641017	-0.5208419361	-2.9343277334	 0.09136
H	-0.0339531697	 0.8425336951	-2.5898499232	 0.090235
H	 0.7640052903	-0.7460803669	-4.1790300499	 0.287293
H	-1.1427044327	-2.5795846708	-1.0183029267	 0.102267
H	 0.5941259172	-2.7732468375	-1.2475593254	 0.127255
H	 1.6205184413	-2.2890508923	 2.1466111339	 0.11129
H	 2.1025500705	-1.641525034	 0.4958703573	 0.114088
H	-0.3370958092	-0.5796052465	 2.1302041235	 0.087399
62.0927	119.3597	166.9804	195.9147	238.2387	261.388	281.6855	375.65	401.2724	471.3232	597.0727	612.818	655.3524	736.0014	816.0485	839.798	897.1557	968.8802	985.1648	1024.4142	1029.6497	1046.6716	1071.6291	1079.3588	1107.6168	1130.9104	1153.3519	1184.6246	1207.8828	1236.6371	1245.9727	1267.686	1284.7888	1347.3747	1373.7727	1416.1409	1454.5311	1478.7498	1486.7282	1489.2404	1502.3829	1511.6092	1736.6334	2948.092	2996.1434	3003.6723	3021.0089	3063.9669	3065.8945	3091.79	3118.6499	3124.5323	3181.6491	3822.586
CC1=C(CO)CN2CC12	CC1=C(CO)CN2C[C@@H]12	
InChI=1S/C7H11NO/c1-5-6(4-9)2-8-3-7(5)8/h7,9H,2-4H2,1H3	InChI=1S/C7H11NO/c1-5-6(4-9)2-8-3-7(5)8/h7,9H,2-4H2,1H3/t7-,8?/m0/s1
