18
gdb 86161	3.03316	1.33275	0.95839	5.3838	78.79	-0.2172	-0.0373	0.1799	1203.7821	0.148643	-439.120071	-439.111642	-439.110697	-439.153113	31.728	
C	-0.0499537234	 1.3993438908	-0.3935568678	-0.337421
N	-0.0052159921	 0.0863059797	 0.2220146756	-0.056455
C	-1.2522875138	-0.6773892791	 0.248101195	-0.189264
C	-1.159033293	-1.8108072373	 1.2671481697	 0.019318
O	-2.3104377492	-2.6023152466	 1.2265990913	-0.439288
C	 0.0901185042	-2.6693757529	 1.0020065554	 0.344904
O	 0.0053803592	-3.8798631293	 1.1698090042	-0.391005
C	 1.2635471276	-1.9283535412	 0.6190026651	-0.271013
C	 1.1572610851	-0.6071862262	 0.2945389971	 0.057571
H	 0.9349355092	 1.8677256123	-0.3379059228	 0.139458
H	-0.352043902	 1.3465141109	-1.4498871759	 0.131952
H	-0.7656206977	 2.0383014988	 0.1334129906	 0.13992
H	-2.0781996858	-0.0066171337	 0.5002576659	 0.124418
H	-1.4566599851	-1.1049514515	-0.7473897653	 0.116996
H	-1.0186386619	-1.3619135691	 2.2688512077	 0.090001
H	-1.9665078732	-3.5125197257	 1.2748898943	 0.29198
H	 2.2287450303	-2.4168638179	 0.6074425052	 0.104856
H	 2.0453879716	-0.0265621221	 0.0600719147	 0.12307
91.2278	142.4361	148.4725	244.1297	293.6724	318.8479	367.7403	426.6398	459.2746	463.0583	548.8909	590.0205	679.4734	749.014	785.7857	813.3817	906.4961	976.4593	1031.1243	1062.9505	1091.5248	1147.1288	1149.3503	1169.9287	1195.5059	1228.011	1264.3879	1293.0566	1325.0933	1372.7404	1414.0847	1454.8897	1456.961	1472.2402	1480.4308	1497.349	1525.3941	1651.3225	1744.5095	2923.9632	2980.6446	2998.3792	3074.7616	3087.8208	3128.2762	3170.5202	3221.6797	3627.6411
CN1CC(O)C(=O)C=C1	CN1C[C@@H](O)C(=O)C=C1	
InChI=1S/C6H9NO2/c1-7-3-2-5(8)6(9)4-7/h2-3,6,9H,4H2,1H3	InChI=1S/C6H9NO2/c1-7-3-2-5(8)6(9)4-7/h2-3,6,9H,4H2,1H3/t6-/m1/s1
