18
gdb 89660	2.96938	1.25683	1.06038	4.6446	78.76	-0.2478	0.0192	0.267	1177.058	0.147133	-401.941768	-401.933052	-401.932108	-401.974866	33.187	
C	-0.1321850512	 1.5957882303	 0.0394087337	-0.414518
C	 0.0777820285	 0.0870458608	 0.0310973586	-0.040069
C	 1.157854852	-0.5461575905	-0.9145921649	-0.311296
C	 1.7861885155	-1.2829056062	 0.278241092	 0.12355
C	 2.2122464563	-0.2574217483	 1.3213762796	-0.356195
C	 0.7649138322	-0.5707370424	 1.2342039001	 0.361059
O	 0.1279596688	-1.0310655368	 2.3561954468	-0.438479
C	 2.252690007	-2.62390407	 0.2800551675	 0.178658
N	 2.6020726337	-3.7289128495	 0.2759392498	-0.356054
H	 0.8103165579	 2.1312602901	 0.1920029053	 0.121175
H	-0.5582035181	 1.9361329008	-0.9100200302	 0.123538
H	-0.8185188968	 1.8903410683	 0.8399542537	 0.128439
H	-0.8795393457	-0.4181642392	-0.1458066393	 0.078653
H	 0.7365705555	-1.2135338231	-1.6671495474	 0.125929
H	 1.8257657364	 0.1688183634	-1.4051937751	 0.11074
H	 2.6930237305	-0.681644034	 2.1961417702	 0.148634
H	 2.6235729438	 0.6926824028	 0.9884020033	 0.120848
H	-0.6258242661	-1.5699226764	 2.0883436862	 0.295388
101.9013	124.2455	183.1202	214.78	252.1271	327.5548	352.8705	395.3378	443.3935	461.8803	539.9713	567.4878	639.5433	706.9042	726.0219	787.5476	846.1277	894.4037	947.9402	971.784	1025.9558	1087.7465	1095.646	1115.8228	1129.9465	1176.9979	1199.5827	1239.9705	1249.2242	1311.2179	1343.636	1373.3124	1409.2552	1433.4607	1486.3179	1495.5256	1497.8179	1512.0206	2335.6783	3030.5892	3035.155	3055.9452	3103.6733	3106.1084	3113.1903	3128.1268	3217.3494	3789.6206
CC1CC2(CC12O)C#N	C[C@H]1C[C@]2(C[C@@]12O)C#N	
InChI=1S/C7H9NO/c1-5-2-6(4-8)3-7(5,6)9/h5,9H,2-3H2,1H3	InChI=1S/C7H9NO/c1-5-2-6(4-8)3-7(5,6)9/h5,9H,2-3H2,1H3/t5-,6-,7+/m0/s1
