16
gdb 22711	4.1896	0.9817	0.88283	0.5743	83.14	-0.2323	-0.0004	0.2319	1296.1543	0.122387	-400.644118	-400.635732	-400.634788	-400.677018	32.288	
O	-0.1467053021	 1.3013047286	-0.0136686233	-0.392962
N	 0.0147936081	-0.0957327846	 0.0673036513	-0.264202
C	-1.1022526075	-0.6826957582	-0.0426339136	 0.455359
C	-2.5606325576	-0.2443632906	-0.1023645849	-0.384709
C	-2.9464451708	-1.7387538969	 0.0457689181	 0.183413
C	-2.3347070547	-2.5237543829	-1.0827296243	-0.317284
C	-1.4257212248	-2.1282686592	 0.0568226522	-0.194992
C	-3.9928902924	-2.2311995868	 0.8707002044	 0.167774
C	-4.8872056788	-2.6274505519	 1.5722588922	-0.393107
H	 0.7559802317	 1.6155140616	 0.1040541865	 0.30767
H	-2.8276133586	 0.359239856	 0.768464175	 0.143825
H	-2.9084210145	 0.2586286959	-1.0090332185	 0.122649
H	-2.5971571197	-3.5758880993	-1.1041279339	 0.135463
H	-2.2212833328	-2.0637264426	-2.0608020201	 0.122778
H	-0.9163037112	-2.8622989043	 0.6671084618	 0.118946
H	-5.6743530543	-2.9812001548	 2.190637597	 0.18938
77.4607	140.161	201.1808	219.9297	303.1948	373.8723	430.3849	446.1333	507.386	515.5035	557.2886	577.0847	596.2188	650.9822	706.7988	787.4338	838.6736	917.6387	950.6336	978.4679	984.8906	998.0687	1071.6487	1093.9231	1106.0619	1161.5679	1223.1778	1230.0158	1265.1729	1368.7574	1413.3247	1466.7742	1492.0337	1789.1022	2233.9473	3062.2819	3117.4567	3118.5477	3207.7835	3217.3011	3503.8623	3819.7611
ON=C1CC2(CC12)C#C	ON=C1C[C@]2(C[C@@H]12)C#C	
InChI=1S/C7H7NO/c1-2-7-3-5(7)6(4-7)8-9/h1,5,9H,3-4H2	InChI=1S/C7H7NO/c1-2-7-3-5(7)6(4-7)8-9/h1,5,9H,3-4H2/t5-,7+/m0/s1
