20
gdb 111620	2.61783	1.58078	1.30603	2.144	77.16	-0.2286	0.0684	0.2971	1050.9204	0.173153	-403.089119	-403.081323	-403.080379	-403.121213	31.394	
O	 0.3569530055	 0.9449123744	 1.0400114723	-0.423007
C	 0.1122649937	 0.0492484093	-0.0340916994	-0.100664
C	-1.2890239794	-0.5225686399	-0.0269988606	-0.01889
C	-1.6304413958	-1.952644237	-0.2832425825	-0.051397
C	-0.6013753164	-3.0783081585	-0.1003177534	-0.271799
C	-0.4177520946	-3.2227878824	 1.418262028	-0.030823
C	 0.3232253481	-2.1514285964	 2.1818472985	-0.322861
C	-1.1880813152	-2.0867676886	 2.0479637587	-0.010063
N	-1.927930573	-1.3485351798	 1.029056201	-0.124708
H	 0.0366936752	 0.5232234508	 1.8441398079	 0.295158
H	 0.2203496608	 0.6435184528	-0.9483168458	 0.111501
H	 0.8766574383	-0.7365474569	-0.0859022447	 0.090217
H	-2.0133970473	 0.2047679524	-0.393074164	 0.099752
H	-2.4860909053	-2.1742681317	-0.9185465518	 0.089909
H	-1.0072581996	-4.0061193125	-0.5129915919	 0.112016
H	 0.3409414201	-2.8885495968	-0.6248759935	 0.114286
H	-0.4391530214	-4.2231236152	 1.8361624182	 0.090874
H	 0.6813953033	-2.4310946145	 3.1683472327	 0.114539
H	 0.9778185607	-1.4593840197	 1.6751296159	 0.134782
H	-1.7700269177	-2.2280925598	 2.9520923042	 0.10118
110.1749	140.3906	235.798	258.0544	318.5369	364.4092	424.3009	511.1589	615.8034	636.0275	685.3007	714.5834	780.465	809.2725	815.3934	844.8542	894.5478	937.7169	974.8842	997.4564	1027.5894	1058.6758	1064.4826	1077.4691	1100.8031	1120.2427	1128.8582	1141.6755	1153.6415	1193.8356	1219.2111	1233.4383	1296.532	1317.3717	1331.7007	1353.5255	1371.1534	1381.3046	1418.2131	1447.8748	1479.5242	1495.3109	1532.5863	3015.6472	3050.5519	3060.1456	3088.8269	3102.4074	3118.8311	3142.3269	3161.8241	3171.9595	3258.7436	3819.9333
OCC1C2CC3CC3N12	OC[C@H]1[C@H]2C[C@H]3C[C@H]3N12	
InChI=1S/C7H11NO/c9-3-7-6-2-4-1-5(4)8(6)7/h4-7,9H,1-3H2	InChI=1S/C7H11NO/c9-3-7-6-2-4-1-5(4)8(6)7/h4-7,9H,1-3H2/t4-,5-,6-,7+,8?/m1/s1
