20
gdb 113904	2.71014	0.96822	0.80683	3.1207	78.87	-0.2255	0.0361	0.2616	1486.9574	0.168456	-440.290296	-440.279871	-440.278927	-440.327894	36.237	
C	 0.3917987511	 0.8818180057	-0.4481594603	-0.243822
O	-0.2918105297	-0.1235965865	 0.283618057	-0.246646
C	 0.481100021	-0.6431129471	 1.3246282455	 0.090263
C	 0.0181662173	-1.951989831	 1.8932174529	-0.351454
C	 1.2747384651	-1.8974438187	 1.044622845	 0.025325
N	 1.2424196261	-2.4142815596	-0.2872984577	-0.32319
C	 2.2204061894	-3.2282126784	-0.7835031568	 0.41071
C	 2.0378549444	-3.6385327135	-2.2371189289	-0.485279
O	 3.1705395944	-3.6011267931	-0.118259273	-0.37841
H	 1.3136923902	 0.4975779241	-0.905125899	 0.118313
H	-0.2871793416	 1.2237825022	-1.2325266764	 0.130196
H	 0.6505288754	 1.7347759486	 0.1957350708	 0.116277
H	 0.9004590537	 0.1093760373	 1.9930699369	 0.092357
H	 0.1104655618	-2.1193939737	 2.9603909109	 0.1239
H	-0.8636342326	-2.3864259811	 1.4342034217	 0.125031
H	 2.2381097474	-2.0546306629	 1.5119811723	 0.134012
H	 0.4951220183	-2.0929882782	-0.8814267664	 0.249875
H	 1.1340973298	-3.2341848139	-2.7005963799	 0.109488
H	 2.9100450144	-3.3087717892	-2.8080040565	 0.150389
H	 2.007584094	-4.729936261	-2.2914791078	 0.152663
23.6306	39.0423	84.7472	119.4891	136.4252	194.2129	236.1508	276.9309	358.2283	424.8392	474.641	497.6233	600.2372	624.2188	644.9824	766.529	811.4341	881.5291	948.2484	989.4118	1005.083	1045.2059	1051.1668	1079.4887	1097.4658	1124.6627	1156.7589	1180.4158	1183.7118	1225.2816	1248.1955	1267.9541	1355.0161	1390.4806	1398.4728	1465.6951	1470.4941	1485.1324	1486.3593	1489.6635	1508.177	1542.6088	1776.717	2993.0753	3048.7659	3049.0792	3096.2624	3122.2823	3126.4826	3128.0521	3135.0713	3208.9584	3227.6249	3641.3794
COC1CC1NC(C)=O	CO[C@H]1C[C@H]1NC(=O)C	
InChI=1S/C6H11NO2/c1-4(8)7-5-3-6(5)9-2/h5-6H,3H2,1-2H3,(H,7,8)	InChI=1S/C6H11NO2/c1-4(8)7-5-3-6(5)9-2/h5-6H,3H2,1-2H3,(H,7,8)/t5-,6+/m1/s1
