20
gdb 62687	2.42161	1.74443	1.30772	2.4554	79.22	-0.2141	0.0619	0.276	1053.2217	0.168791	-403.049711	-403.04074	-403.039796	-403.082685	35.211	
C	-0.0602175659	 1.6305235095	 0.0600461796	-0.489404
C	 0.0719683653	 0.1073588102	 0.0507776553	 0.331001
O	-1.1016039317	-0.4997926319	-0.4660564463	-0.456024
C	 1.2830449431	-0.7363113556	-0.3080174165	-0.208876
C	 2.5845796109	-0.3564107543	 0.4054982354	-0.044784
C	 2.5326459965	 0.778919073	 1.3510317985	-0.262419
N	 1.9642792756	-0.51895972	 1.7715173103	-0.19102
C	 0.6499561086	-0.8536076921	 1.0760762588	 0.313001
C	-0.1339914506	-1.9322822978	 1.7572048961	-0.469102
H	 0.7900539308	 2.1316929187	-0.4083525898	 0.131042
H	-0.9580976235	 1.8930721192	-0.5066828126	 0.115064
H	-0.1922177518	 2.0330635451	 1.0689282561	 0.137395
H	-1.1116410135	-0.340958049	-1.4166162304	 0.28242
H	 1.2439263049	-1.4355726851	-1.1349551288	 0.087849
H	 3.5192260513	-0.8582129301	 0.1717032894	 0.100129
H	 3.4564678207	 0.9830193276	 1.8877286871	 0.120098
H	 1.9141615884	 1.6497999249	 1.2055525148	 0.123163
H	-0.4698624269	-1.5824591866	 2.7410295332	 0.119457
H	-1.0059078051	-2.2126952855	 1.1665423767	 0.139741
H	 0.4934753729	-2.8141331603	 1.9205729332	 0.121269
88.3607	169.4215	190.7622	229.7796	278.9533	291.5914	315.0251	373.2959	386.3518	445.1379	503.2768	600.3052	634.6855	682.633	683.778	768.7745	830.1393	895.1274	909.0191	919.1313	973.0338	987.3112	1000.675	1054.0923	1064.1463	1099.3456	1112.3891	1116.6492	1160.0799	1177.1731	1187.7641	1236.119	1259.089	1304.9033	1363.7059	1398.454	1408.0209	1443.9112	1484.1196	1492.2554	1494.3558	1501.8671	1518.071	3031.9807	3039.9869	3089.2616	3105.3695	3119.4018	3128.5102	3146.9291	3154.8632	3180.0792	3269.3439	3791.8617
CC1(O)C2C3CN3C12C	C[C@@]1(O)[C@H]2[C@H]3CN3[C@@]12C	
InChI=1S/C7H11NO/c1-6-5(7(6,2)9)4-3-8(4)6/h4-5,9H,3H2,1-2H3	InChI=1S/C7H11NO/c1-6-5(7(6,2)9)4-3-8(4)6/h4-5,9H,3H2,1-2H3/t4-,5+,6-,7-,8?/m1/s1
