20
gdb 16964	3.20018	2.1274	1.96266	1.474	73.28	-0.2327	0.083	0.3157	827.774	0.180334	-349.026661	-349.019886	-349.018942	-349.057186	27.98	
C	-0.233747407	 1.542574945	-0.0385092789	-0.412289
C	 0.0328996412	 0.0464913149	 0.0312842941	 0.165451
O	 0.7061854956	-0.3943961463	-1.1723327101	-0.302685
C	 1.8236658086	-1.19240497	-0.7489007276	 0.121047
C	 2.9191347948	-0.2387481311	-0.2344999163	-0.209271
C	 2.3106055752	 0.2408674534	 1.12468474	-0.217529
C	 0.9439999441	-0.4849604557	 1.1599248951	-0.044796
C	 1.314964362	-1.8507221944	 0.5412800331	-0.233022
H	 0.6902041879	 2.1184880146	-0.1358784401	 0.120163
H	-0.8580977602	 1.7660368749	-0.9085192268	 0.124902
H	-0.7658043237	 1.8814045692	 0.8572061062	 0.109086
H	-0.9377047752	-0.4717804732	 0.0905678757	 0.066011
H	 2.1119933319	-1.8433570468	-1.5754092029	 0.068211
H	 3.8746780182	-0.7553874097	-0.0982161156	 0.091828
H	 3.0733629558	 0.577723957	-0.9436556387	 0.10426
H	 2.9254217869	-0.0797850946	 1.9709733378	 0.09541
H	 2.218879375	 1.326787302	 1.1902313304	 0.100207
H	 0.4587960426	-0.500809608	 2.1372794437	 0.060578
H	 0.4587391118	-2.5092105651	 0.3738310078	 0.099608
H	 2.0901595546	-2.3864875262	 1.0959192031	 0.092831
136.0502	223.3328	295.5464	333.091	417.5644	462.033	505.6568	562.9672	750.165	782.5603	813.0637	819.5648	840.5077	890.1679	915.8111	945.8089	948.9397	963.5625	988.766	1016.8696	1041.0916	1073.1771	1104.8562	1135.7878	1149.4037	1166.7437	1202.8967	1235.085	1255.3488	1277.1513	1312.7291	1319.2162	1337.5993	1345.3674	1366.5077	1396.5701	1413.003	1478.5375	1484.2156	1488.0517	1498.455	1518.8517	2964.1802	3038.7206	3048.5747	3059.1365	3062.8387	3097.8986	3102.284	3107.8233	3111.0683	3112.913	3116.8494	3122.2968
CC1OC2CCC1C2	C[C@H]1O[C@H]2CC[C@@H]1C2	
InChI=1S/C7H12O/c1-5-6-2-3-7(4-6)8-5/h5-7H,2-4H2,1H3	InChI=1S/C7H12O/c1-5-6-2-3-7(4-6)8-5/h5-7H,2-4H2,1H3/t5-,6-,7+/m1/s1
