17
gdb 67267	2.7133	2.18094	1.73787	0.7823	69.6	-0.2274	0.0717	0.2992	837.2196	0.138012	-421.761615	-421.755412	-421.754467	-421.791743	26.665	
O	-0.0362423101	 1.3814157122	-0.0547170218	-0.492312
C	 0.0037761836	 0.0012083635	-0.0715887736	 0.423644
C	 0.4447095703	-0.846210816	 1.204936771	-0.138547
C	-1.0530426707	-1.0085212941	 1.5740964491	-0.256257
C	-1.2880953674	-0.8642534557	 0.0582712705	-0.105749
C	-0.4053411891	-1.9434531541	-0.6390757402	-0.089719
C	 0.8128389993	-2.0695361848	 0.35027363	 0.091937
O	 1.7452093507	-1.5821833557	-0.6569786771	-0.304682
C	 0.6007466902	-0.9065154161	-1.2074871788	-0.00673
H	 0.8602086046	 1.7103485836	 0.0793972651	 0.285967
H	 1.1911313755	-0.4859168717	 1.9130892552	 0.06779
H	-1.3611828464	-1.9351985353	 2.0697465006	 0.09193
H	-1.4349749375	-0.1483270759	 2.1296485909	 0.112917
H	-2.2434468091	-0.5993812911	-0.3908951259	 0.075323
H	-0.7829403507	-2.8099569633	-1.1752190237	 0.079677
H	 1.1329271886	-2.9942960826	 0.8296595753	 0.08172
H	 0.7049621985	-0.5536602429	-2.2331294265	 0.08309
248.2312	268.9182	325.0272	387.601	471.1605	542.6855	607.6411	684.6213	717.0702	800.3237	824.0888	836.0338	861.73	880.6523	925.1353	934.3508	942.5074	961.294	987.5979	1001.7864	1021.824	1062.3239	1085.5959	1121.531	1134.3157	1147.1195	1181.6189	1203.7896	1226.9231	1230.9093	1250.2984	1281.4848	1286.1329	1308.0903	1341.6615	1396.1106	1493.2865	3044.5123	3107.2773	3114.2127	3123.3805	3127.7956	3134.8688	3156.239	3790.4322
OC12C3CC1C1C3OC21	O[C@@]12[C@H]3C[C@@H]1[C@@H]1[C@H]3O[C@H]21	
InChI=1S/C7H8O2/c8-7-2-1-3(7)5-4(2)6(7)9-5/h2-6,8H,1H2	InChI=1S/C7H8O2/c8-7-2-1-3(7)5-4(2)6(7)9-5/h2-6,8H,1H2/t2-,3+,4-,5+,6+,7-/m1/s1
