16
gdb 16465	3.24454	2.76222	1.81948	1.5287	63.32	-0.2375	0.0699	0.3074	744.1444	0.13101	-383.673432	-383.667188	-383.666244	-383.703385	25.283	
C	 0.0084050555	 1.5169132664	-0.0170889891	-0.510222
C	 0.0439373295	 0.0114065928	-0.0378546651	 0.29549
C	 0.4674578556	-0.7430070468	-1.2907804643	-0.143248
O	 0.3563054348	-2.1202125895	-0.8698639813	-0.274889
C	-0.0792450442	-1.9995402271	 0.4569787945	 0.10294
C	 0.6092487969	-0.8061534616	 1.1788547136	-0.020035
O	-0.5997562014	-0.5524038611	 1.9664685941	-0.317147
C	-1.101682438	-0.8388114988	 0.6201912911	-0.020029
H	 0.9974895006	 1.9411919169	-0.221928372	 0.120561
H	-0.6835455444	 1.9090768275	-0.7705296535	 0.120564
H	-0.31939718	 1.8622145483	 0.967128974	 0.142899
H	-0.1934183579	-0.5624690507	-2.1477339501	 0.10825
H	 1.4999222928	-0.5301378935	-1.5947957032	 0.10825
H	-0.2199677584	-2.9613990288	 0.9441802241	 0.103959
H	 1.5760844512	-0.7319751215	 1.677634251	 0.091329
H	-2.1784483726	-0.8036486027	 0.4516867462	 0.091328
237.9193	247.9926	266.9721	342.7859	424.4108	484.4195	666.4731	689.6058	716.6421	741.9761	808.4195	880.9465	884.4692	934.6497	944.2645	969.0918	996.6247	1043.0045	1080.1983	1102.6715	1137.3992	1155.646	1173.806	1199.3976	1220.9815	1244.1879	1251.889	1295.1237	1331.3832	1399.5621	1409.3323	1492.7546	1498.112	1517.5561	3018.5515	3032.3352	3057.5352	3091.8447	3113.1739	3118.1284	3118.5319	3165.8932
CC12COC3C1OC23	C[C@@]12CO[C@H]3[C@@H]1O[C@@H]23	
InChI=1S/C6H8O2/c1-6-2-7-3-4(6)8-5(3)6/h3-5H,2H2,1H3	InChI=1S/C6H8O2/c1-6-2-7-3-4(6)8-5(3)6/h3-5H,2H2,1H3/t3-,4-,5+,6+
