21
gdb 59590	2.4927	1.40136	0.94058	3.3386	84.89	-0.2332	-0.0437	0.1895	1278.3392	0.182324	-387.137187	-387.128024	-387.12708	-387.171452	34.638	
C	-0.0393098027	 1.5614291601	 0.0216498467	-0.389314
C	-0.0870821528	 0.0247887838	 0.023557752	 0.024423
C	-1.5483066304	-0.4462323306	-0.0216591805	-0.39679
C	 0.7541203477	-0.5606104466	-1.135079741	-0.09788
C	 2.2261706443	-0.0827739369	-1.1912371363	-0.294148
C	 3.0305895637	-1.3332952393	-1.4286230773	-0.058189
C	 2.287917554	-2.4439016858	-1.395840945	-0.160656
C	 0.867619593	-2.1057646278	-1.1520802208	 0.370293
O	-0.0364118333	-2.8999405646	-1.010748516	-0.338645
H	 0.9764713668	 1.9547134773	 0.1226532003	 0.108686
H	-0.4614439101	 1.9604447062	-0.9087261809	 0.111676
H	-0.6324516674	 1.9622246324	 0.8500003958	 0.113436
H	 0.3603178351	-0.3285811677	 0.9644458465	 0.073673
H	-2.0392535113	-0.0826779234	-0.9330667075	 0.1042
H	-1.6218655168	-1.5332389187	-0.0141198443	 0.153059
H	-2.1013762836	-0.0432308084	 0.833360083	 0.101157
H	 0.2562110974	-0.2909770531	-2.0777749034	 0.10202
H	 2.4055988562	 0.6692159538	-1.9679101569	 0.118643
H	 2.5384528511	 0.3813571066	-0.2464956882	 0.123877
H	 4.1041873265	-1.3012465371	-1.5841023106	 0.114921
H	 2.6250258026	-3.4663131102	-1.5080366055	 0.115558
44.3317	88.9812	197.4501	234.8352	243.588	268.6457	319.7009	348.9415	361.8144	442.6579	521.1646	595.952	662.2495	757.489	773.932	820.5713	872.7863	929.2397	938.8039	963.8383	967.3603	973.8789	1007.5628	1044.6587	1108.8416	1128.1495	1140.7086	1176.0291	1189.5182	1208.877	1249.8039	1287.1848	1324.9379	1343.7125	1364.8428	1369.3854	1401.3584	1422.5262	1471.6971	1489.0724	1492.31	1505.2912	1517.4659	1657.7405	1798.806	2991.5998	3010.6477	3024.4729	3026.3114	3030.9933	3061.2338	3086.041	3094.4647	3105.3656	3157.9552	3185.6373	3227.5209
CC(C)C1CC=CC1=O	CC(C)[C@H]1CC=CC1=O	
InChI=1S/C8H12O/c1-6(2)7-4-3-5-8(7)9/h3,5-7H,4H2,1-2H3	InChI=1S/C8H12O/c1-6(2)7-4-3-5-8(7)9/h3,5-7H,4H2,1-2H3/t7-/m1/s1
