20
gdb 97232	3.00688	1.26825	0.97566	2.1934	84.08	-0.2379	0.01	0.2479	1258.8038	0.171321	-403.154711	-403.14566	-403.144716	-403.18951	33.14	
C	-0.1613732218	 1.5344547193	 0.1059106704	-0.328018
N	-0.0983391441	 0.0870739961	 0.0146075106	-0.256693
C	 0.573786547	-0.5817654534	 0.8496120494	 0.36392
C	 0.5856552137	-2.0927137573	 0.7742441749	-0.31431
C	 1.9366401591	-2.7513982388	 0.5818356945	-0.064082
C	 3.0208383597	-2.5323025912	 1.3225415199	-0.060171
C	 3.0966959964	-1.5414705147	 2.4590389223	-0.255582
C	 2.6098073936	-0.137304795	 2.097479692	-0.074693
O	 1.1925497019	-0.010137498	 1.9403798433	-0.265545
H	 0.4604500234	 1.9691052854	 0.8955994436	 0.116638
H	 0.1307861541	 1.9594259228	-0.8610587636	 0.12237
H	-1.2028000578	 1.8321982029	 0.2757245596	 0.126056
H	 0.13754081	-2.4691975616	 1.7067230348	 0.126332
H	-0.0855371033	-2.3659745558	-0.0401069052	 0.130026
H	 1.9876930967	-3.4894926067	-0.2140518205	 0.096659
H	 3.9224204484	-3.0995060483	 1.1060443669	 0.090439
H	 2.5174029804	-1.8965344065	 3.3234087395	 0.120954
H	 4.1334562433	-1.4492644312	 2.8013402303	 0.106193
H	 2.850285624	 0.5571501366	 2.9079367357	 0.112526
H	 3.1138727653	 0.2116619754	 1.1865196615	 0.10698
39.386	60.1741	114.4299	222.217	262.2217	277.7537	330.5638	344.2141	429.5653	491.7998	582.5135	633.3179	708.3223	716.9622	825.5966	869.2942	915.3194	923.5156	986.9184	994.9522	1035.0047	1065.2269	1072.9263	1090.5158	1132.2675	1144.6853	1193.378	1226.8695	1249.2701	1257.1045	1314.7773	1344.0965	1365.9734	1405.8253	1425.7724	1431.8506	1461.4124	1468.568	1487.7145	1496.8421	1498.5128	1726.8983	1758.8626	2995.3881	3009.5615	3018.3623	3019.9805	3068.2534	3076.3571	3086.5182	3093.0794	3126.9562	3149.7381	3173.4802
CN=C1CC=CCCO1	CN=C1CC=CCCO1	
InChI=1S/C7H11NO/c1-8-7-5-3-2-4-6-9-7/h2-3H,4-6H2,1H3	InChI=1S/C7H11NO/c1-8-7-5-3-2-4-6-9-7/h2-3H,4-6H2,1H3
