20
gdb 31137	1.86886	1.70892	0.9613	0.6697	82.45	-0.1745	0.0554	0.2299	1263.7768	0.169954	-403.194574	-403.184501	-403.183556	-403.229545	36.778	
C	 0.0301450801	 1.6142466369	 0.0798757418	-0.360795
C	-0.0519423989	 0.0833608612	-0.0654328119	-0.319416
C	 0.6796726836	-0.4642810095	-1.2568465015	 0.054546
C	 0.1291096481	-0.7830995222	-2.4778222708	 0.306084
O	-1.142623654	-0.7362223178	-2.9584859578	-0.438127
N	 1.1039235828	-1.2367891088	-3.3141928566	-0.30592
C	 2.3142666679	-1.220239925	-2.6408237369	-0.191222
C	 2.0885248454	-0.7490108463	-1.3733964093	 0.21155
C	 3.118248254	-0.5755061854	-0.298476278	-0.508407
H	 1.0701235375	 1.9424093214	 0.1707023412	 0.123259
H	-0.3939433659	 2.1142658528	-0.7970780723	 0.111353
H	-0.5122484864	 1.9598337087	 0.9667943532	 0.104543
H	 0.3345682993	-0.382545953	 0.849963017	 0.105619
H	-1.1110725782	-0.2129979084	-0.1070712025	 0.073778
H	-1.7148779049	-0.4121713077	-2.2561149465	 0.304041
H	 0.9438098681	-1.5413343762	-4.2577602938	 0.261996
H	 3.2215497104	-1.545685199	-3.122840559	 0.110259
H	 3.2334482511	 0.4733817609	 0.0018304883	 0.12044
H	 2.8615748435	-1.137201913	 0.6085107578	 0.11937
H	 4.0974389164	-0.9286328095	-0.6354527825	 0.117048
53.5735	120.0813	145.2896	185.2925	192.7032	203.1569	264.2012	290.3399	297.4204	401.9815	423.3325	498.7219	560.7821	630.5715	661.5578	681.4312	717.2985	747.9913	792.6047	961.3739	985.4784	1005.3482	1061.4548	1078.2029	1088.3958	1137.5109	1170.1295	1228.7831	1279.2614	1293.626	1348.849	1375.024	1406.4686	1410.2916	1420.9665	1480.0072	1482.5792	1495.4276	1496.7313	1505.5136	1558.4001	1585.2964	1647.7725	2987.8811	3015.4596	3030.1582	3035.721	3058.4372	3098.7646	3099.9523	3107.4004	3265.2138	3692.2309	3838.8283
CCC1=C(O)NC=C1C	CCc1c(O)[nH]cc1C	
InChI=1S/C7H11NO/c1-3-6-5(2)4-8-7(6)9/h4,8-9H,3H2,1-2H3	InChI=1S/C7H11NO/c1-3-6-5(2)4-8-7(6)9/h4,8-9H,3H2,1-2H3
