23
gdb 38369	2.03928	1.95784	1.26094	1.0967	84.44	-0.2398	0.0745	0.3143	1101.8768	0.20922	-388.278746	-388.270832	-388.269888	-388.310675	32.556	
C	-0.0386061631	 1.5860260614	 0.1174323072	-0.246027
C	 1.5145487318	 1.5874031366	 0.0045979664	 0.032521
C	 1.5011198744	 0.0395506236	 0.2273928422	-0.249905
C	-0.0477177492	 0.0340910139	 0.0403632756	 0.006494
C	-0.5478010769	-0.5834238946	-1.27112559	-0.093301
O	 0.3437783747	-0.5231380582	-2.3663910102	-0.245258
C	 0.5828270682	 0.7360185001	-2.9802334984	-0.070091
C	 1.9525455746	 1.3209038946	-2.604923803	-0.194
C	 2.0903271681	 2.142478716	-1.307332973	-0.217467
H	-0.3894543993	 1.9595195888	 1.0834429654	 0.091917
H	-0.5881385516	 2.121003547	-0.6638721425	 0.088209
H	 1.9932700057	 2.1325780095	 0.8235233235	 0.06478
H	 2.0594929498	-0.5639446297	-0.4901452955	 0.110806
H	 1.8093852608	-0.2414541001	 1.2371311299	 0.090615
H	-0.6067542314	-0.4419623741	 0.8523447799	 0.065134
H	-0.7170076966	-1.6560885577	-1.1225295739	 0.10276
H	-1.5191852638	-0.1320686178	-1.5377606693	 0.083709
H	 0.578068807	 0.545521288	-4.0610145952	 0.099298
H	-0.2365771548	 1.4391597567	-2.7752553745	 0.091106
H	 2.6524515291	 0.4770801918	-2.5933829115	 0.111184
H	 2.2781105119	 1.9665094262	-3.4309236838	 0.090804
H	 1.6373312772	 3.1317947865	-1.4641572521	 0.092813
H	 3.1628688134	 2.3307602516	-1.1682329474	 0.0939
142.6705	181.5427	246.3685	265.3471	307.7173	333.1257	389.1735	433.8644	520.0836	568.7619	682.813	760.4022	774.9794	794.2219	846.9489	865.6466	897.807	923.6198	940.9468	973.9226	1008.8771	1036.008	1068.9829	1080.7398	1103.4995	1122.4438	1138.8746	1165.04	1181.6682	1211.8107	1238.4592	1260.1316	1267.4491	1284.3119	1288.496	1327.0345	1337.0946	1353.542	1360.2813	1391.213	1401.4827	1410.5031	1420.5085	1464.0196	1477.4985	1485.3458	1486.8738	1494.2879	1506.6207	2956.9971	3000.6906	3001.6125	3021.4178	3034.2736	3038.643	3043.5478	3048.0937	3050.2375	3059.7907	3067.6619	3072.0057	3092.5968	3126.1387
C1C2CC1COCCC2	C1[C@H]2C[C@@H]1COCCC2	
InChI=1S/C8H14O/c1-2-7-4-8(5-7)6-9-3-1/h7-8H,1-6H2	InChI=1S/C8H14O/c1-2-7-4-8(5-7)6-9-3-1/h7-8H,1-6H2/t7-,8+
