17
gdb 43103	2.60249	2.10376	1.58602	3.4146	71.77	-0.2377	-0.0056	0.2321	882.4682	0.139191	-417.964181	-417.957598	-417.956654	-417.995281	26.322	
N	-0.1015052983	 1.275436318	-0.1260577795	-0.51535
C	-0.0349243659	 0.0250889212	-0.0165445793	 0.327312
C	-1.1074707302	-1.0881982892	 0.0064128711	 0.021621
O	-1.7802383374	-1.3122169112	-1.2087352586	-0.249046
C	-0.8449904232	-1.7995001798	-2.1782014935	-0.093003
C	 0.3962807184	-2.3388971236	-1.4221019752	-0.074418
C	 1.5720499769	-1.3314659431	-1.2710592834	-0.194392
N	 1.0757147352	-0.8979567943	 0.0878498575	-0.16963
C	 0.0918015038	-2.0572429025	 0.0700196579	-0.01389
H	 0.8355939006	 1.6891961459	-0.1460746152	 0.223086
H	-1.8419482129	-1.0565983996	 0.8126162963	 0.105027
H	-1.3527620743	-2.5781613138	-2.7551384804	 0.114605
H	-0.563784576	-0.9920140415	-2.8681111608	 0.108885
H	 0.6622860853	-3.3537945767	-1.717688948	 0.086889
H	 2.5475612992	-1.813199813	-1.1719213862	 0.11998
H	 1.6405729393	-0.5206809033	-2.0035068772	 0.115767
H	 0.1801497495	-2.8295181135	 0.8314868847	 0.086557
92.8546	189.8961	257.1168	368.4478	458.3786	586.879	630.5818	679.1788	715.3627	802.6469	830.3968	845.2734	880.5784	908.0749	923.5589	944.8137	946.2829	955.3625	999.3892	1025.3368	1058.0855	1109.4564	1131.6517	1175.6213	1190.6948	1199.4217	1229.4627	1242.7918	1258.5204	1281.4607	1302.3506	1317.7391	1332.0456	1391.309	1495.0768	1522.2756	1793.0534	3010.309	3048.3192	3075.4122	3104.2272	3108.4474	3114.1018	3137.8694	3427.8576
N=C1C2OCC3CN1C23	[NH][C]1[C@H]2OC[C@H]3CN1[C@@H]23	
InChI=1S/C6H8N2O/c7-6-5-4-3(2-9-5)1-8(4)6/h3-5,7H,1-2H2	InChI=1S/C6H8N2O/c7-6-5-4-3(2-9-5)1-8(4)6/h3-5,7H,1-2H2/t3-,4-,5+/m1/s1
