16
gdb 25873	3.97477	1.09198	0.86254	5.3754	74.96	-0.2103	-0.0229	0.1874	1283.6395	0.125198	-434.135168	-434.126507	-434.125563	-434.168742	31.641	
C	-0.0766178926	 1.4953772405	-0.0060023283	-0.47835
C	 0.0211751475	-0.0166188278	 0.027514319	 0.291573
O	 1.0894527222	-0.6000446831	 0.0655331502	-0.327437
C	-1.248066357	-0.7642433817	 0.0109103029	 0.186046
C	-1.3768638945	-2.1298582183	 0.0197090971	-0.159151
N	-2.7321191905	-2.3677771882	-0.0028229625	-0.284842
C	-3.3593674957	-1.1464801762	-0.0192886384	 0.388837
N	-4.7416808091	-1.0375925725	-0.1225638755	-0.600096
N	-2.5005941742	-0.1605766762	-0.0063421663	-0.369711
H	 0.9263744192	 1.923063887	 0.0075990403	 0.127083
H	-0.6170590563	 1.8206867922	-0.9007283849	 0.14219
H	-0.6564304433	 1.8567479107	 0.8492971312	 0.141486
H	-0.6443682605	-2.9176498427	 0.046459612	 0.156138
H	-3.1786993984	-3.2664552017	-0.079586747	 0.269388
H	-5.2503798895	-1.5733799952	 0.5707278713	 0.251144
H	-5.0125515572	-0.063489417	-0.073125101	 0.2657
76.4661	119.4941	154.5881	161.0293	244.4047	320.6288	364.3672	380.4327	504.2213	526.0765	565.5825	625.9175	672.6721	717.1717	741.4023	783.766	797.121	938.0293	993.4684	1006.5948	1044.6822	1099.1578	1125.7138	1161.695	1274.5531	1341.5738	1384.275	1385.4414	1457.6436	1468.1251	1478.1518	1578.4361	1608.442	1661.0086	1767.8882	3046.4423	3108.3979	3155.7082	3294.6164	3531.0769	3628.3686	3660.7115
CC(=O)C1=CNC(N)=N1	CC(=O)c1c[nH]c(N)n1	
InChI=1S/C5H7N3O/c1-3(9)4-2-7-5(6)8-4/h2H,1H3,(H3,6,7,8)	InChI=1S/C5H7N3O/c1-3(9)4-2-7-5(6)8-4/h2H,1H3,(H3,6,7,8)
