19
gdb 124523	3.86919	1.0515	0.87482	2.2276	78.06	-0.207	0.0263	0.2333	1353.2553	0.161044	-415.43236	-415.4232	-415.422255	-415.466664	34.218	
C	 0.1571009748	 1.4782575575	 0.0698994045	-0.381013
C	-0.0639062481	-0.0411089025	-0.04896512	-0.08843
C	-1.5558725584	-0.3966952231	-0.0906665739	-0.414515
C	 0.6941473559	-0.5854725419	-1.226509688	 0.389673
N	 2.0046051267	-0.4942106278	-1.4080762895	-0.372288
C	 2.1974161319	-1.1211514959	-2.6041110357	 0.383123
N	 3.445123093	-1.1925743236	-3.1935127794	-0.583861
N	 1.1021804522	-1.6025390445	-3.1775937866	-0.306853
N	 0.1467944714	-1.237004708	-2.2688597521	-0.254134
H	 1.2242993215	 1.7080361478	 0.087891373	 0.146015
H	-0.2895394455	 2.0037915217	-0.7811081209	 0.118086
H	-0.3030376176	 1.8605351069	 0.9865247174	 0.11042
H	 0.3758629629	-0.5081428211	 0.841999436	 0.108119
H	-2.0499964054	 0.0598877439	-0.9564849293	 0.119147
H	-1.7167769636	-1.4791814021	-0.1303485073	 0.118847
H	-2.0585560959	-0.0207566732	 0.804508321	 0.125948
H	 4.1971587204	-1.1757889481	-2.5204438148	 0.255561
H	 3.5332642696	-1.9450359191	-3.8608823732	 0.254461
H	-0.8150379458	-1.4735505171	-2.4389954013	 0.271696
30.683	136.2621	180.5545	239.4231	265.9725	293.6044	311.9924	327.5746	387.0187	425.2984	509.7648	513.4653	610.8955	634.471	729.0555	772.4234	796.1856	890.7275	931.8702	969.9194	1026.2575	1052.4042	1091.7326	1102.7802	1131.4762	1183.7149	1191.7865	1294.811	1331.3651	1335.2009	1395.5293	1414.3955	1424.3544	1483.0979	1490.1757	1493.3588	1504.4928	1515.819	1567.1269	1590.8134	1647.8539	3020.2891	3028.2846	3037.1023	3093.2956	3103.54	3112.4129	3134.6149	3571.9015	3677.6479	3685.4488
CC(C)C1=NC(N)=NN1	CC(C)c1nc(N)n[nH]1	
InChI=1S/C5H10N4/c1-3(2)4-7-5(6)9-8-4/h3H,1-2H3,(H3,6,7,8,9)	InChI=1S/C5H10N4/c1-3(2)4-7-5(6)9-8-4/h3H,1-2H3,(H3,6,7,8,9)
