20
gdb 84806	2.98324	1.29574	0.98831	1.9446	79.03	-0.2429	0.0265	0.2693	1228.9539	0.172084	-403.153706	-403.145186	-403.144242	-403.187651	32.075	
C	 0.0858045057	 1.5178513612	-0.1723457697	-0.388446
C	 0.0127980118	 0.0214989211	 0.1388651832	 0.002941
N	 0.306991602	-0.7604313127	-1.0824914821	-0.27236
C	 1.3453089892	-1.4368833106	-0.821509496	 0.111766
O	 1.913471768	-1.3735183656	 0.4027167625	-0.235476
C	 1.0316166599	-0.5221610803	 1.1990239615	 0.078534
C	 1.8519900328	 0.4688856545	 1.9726242921	 0.019438
C	 1.3394376538	 0.9712224949	 3.302495266	-0.269797
C	 2.5219226684	 0.0404396061	 3.2535755628	-0.277778
H	 1.0760221552	 1.7988811027	-0.5435814973	 0.119623
H	-0.6412774921	 1.759938736	-0.9515626202	 0.128348
H	-0.1379738109	 2.1189564816	 0.7137405287	 0.117524
H	-1.0069784071	-0.2129691471	 0.4620063798	 0.087427
H	 1.8575858112	-2.0926251228	-1.5180409151	 0.135489
H	 0.5195859396	-1.1889732212	 1.9042148738	 0.082608
H	 2.3940983201	 1.1828859438	 1.3614506028	 0.091624
H	 1.5070713474	 2.0127268855	 3.5516010652	 0.117336
H	 0.3966948204	 0.5758911107	 3.6666929345	 0.114711
H	 2.3777913146	-0.9841745983	 3.5796693717	 0.119281
H	 3.50470298	 0.4422270005	 3.4714851659	 0.117208
44.1188	79.1534	168.8342	237.4814	256.8383	297.9176	344.5963	433.1895	470.3937	575.5612	730.7991	760.7478	814.1158	832.0972	857.7097	880.508	919.2974	928.5418	966.3235	970.5824	1007.5113	1059.0775	1062.0227	1079.9247	1092.8955	1128.2751	1141.7731	1149.0629	1196.8231	1213.0668	1231.1634	1294.8484	1313.924	1325.2118	1347.1849	1370.6711	1406.4011	1444.3353	1471.5588	1488.9665	1500.0323	1507.6248	1706.4865	3016.4013	3043.4496	3046.4166	3116.0996	3124.0724	3133.0398	3138.3995	3165.1454	3206.1281	3212.0824	3227.4374
CC1N=COC1C1CC1	C[C@H]1N=CO[C@H]1C1CC1	
InChI=1S/C7H11NO/c1-5-7(6-2-3-6)9-4-8-5/h4-7H,2-3H2,1H3	InChI=1S/C7H11NO/c1-5-7(6-2-3-6)9-4-8-5/h4-7H,2-3H2,1H3/t5-,7-/m1/s1
