13
gdb 27017	2.90954	1.37909	0.9411	2.2705	70.62	-0.2447	-0.0533	0.1914	1149.3237	0.088872	-452.782721	-452.774867	-452.773923	-452.815393	28.228	
C	 0.1647302786	 1.5013922061	 0.0722284119	-0.499173
C	-0.0062909869	 0.0348930031	 0.029568927	 0.251006
C	-1.0774659867	-0.7636787403	-0.1053546636	 0.129855
O	-0.660011706	-2.0917319674	-0.0780777638	-0.247602
C	 0.7033393604	-2.0689928583	 0.0790642959	 0.498673
N	 1.5056347921	-3.0247671392	 0.1561556343	-0.568199
O	 1.1050278203	-0.7544847139	 0.1452334123	-0.210362
C	-2.4421524717	-0.4618238344	-0.2580043407	 0.226997
N	-3.5622435615	-0.1915670981	-0.3822168602	-0.331267
H	 0.8244136746	 1.8346792898	-0.7358164863	 0.166716
H	-0.8032785411	 1.9942808761	-0.0322914095	 0.167452
H	 0.6208153616	 1.807013995	 1.0197333602	 0.166733
H	 1.0251804461	-3.9176855787	 0.0869597425	 0.24917
122.4723	136.5139	160.536	191.046	279.6311	297.0773	447.7048	503.4292	553.742	594.9402	658.2135	659.9766	726.1943	783.468	805.7983	929.5554	986.933	1017.1791	1063.2916	1095.9657	1256.938	1284.8152	1341.4588	1423.6017	1465.5395	1479.139	1727.829	1827.6389	2341.8653	3043.4763	3101.6867	3147.6955	3554.7302
CC1=C(OC(=N)O1)C#N	CC1=C(O[C@@H]([NH])O1)C#N	
InChI=1S/C5H4N2O2/c1-3-4(2-6)9-5(7)8-3/h7H,1H3	InChI=1S/C5H5N2O2/c1-3-4(2-6)9-5(7)8-3/h5,7H,1H3/t5-/m0/s1
