16
gdb 34607	3.88773	1.23944	1.03173	5.3727	76.26	-0.2416	-0.0362	0.2054	1129.4761	0.127003	-396.937012	-396.929513	-396.928569	-396.969149	28.654	
N	 0.1055672989	-1.1458578816	-0.3783365311	-0.32122
C	 0.0057937976	-0.0081066385	-0.2020077728	 0.264174
C	-0.0711591054	 1.4211549396	 0.0436854411	 0.265454
N	-1.2173963294	 1.9778833796	-0.0270609448	-0.292828
C	-1.313299746	 3.4128234839	 0.192632181	-0.190287
C	-0.0917838414	 4.1046041167	 0.7831659458	-0.041848
C	 0.4865238401	 3.6757619177	 2.1117429876	-0.304756
C	 1.1982852107	 3.3423723916	 0.8138982415	 0.001594
N	 1.1544545215	 2.0003011919	 0.306477053	-0.350859
H	-1.5328860228	 3.8725587979	-0.7808870396	 0.12815
H	-2.2010373691	 3.5938860184	 0.8121682747	 0.120936
H	-0.0184454919	 5.1611903603	 0.5455782758	 0.100117
H	 0.919044888	 4.4317284155	 2.7577501755	 0.122231
H	 0.0040384914	 2.8539690076	 2.6314142327	 0.129983
H	 2.1227511881	 3.8564663993	 0.5751069943	 0.109357
H	 1.8716722996	 1.3686212103	 0.6335837052	 0.259802
86.0884	163.7704	171.8939	287.0279	361.1724	440.4938	475.1487	512.3013	559.5798	595.435	690.3506	713.0336	753.8053	832.8168	843.8083	925.8428	945.3478	1015.6442	1032.9753	1058.5323	1064.3492	1126.5629	1145.9446	1186.1738	1222.8687	1265.7994	1271.1747	1343.2017	1368.8433	1419.0512	1475.5016	1486.3186	1517.8308	1709.5679	2360.189	3013.0794	3037.3443	3131.7771	3154.4792	3167.9802	3222.3234	3592.4826
N#CC1=NCC2CC2N1	N#CC1=NC[C@H]2C[C@H]2N1	
InChI=1S/C6H7N3/c7-2-6-8-3-4-1-5(4)9-6/h4-5H,1,3H2,(H,8,9)	InChI=1S/C6H7N3/c7-2-6-8-3-4-1-5(4)9-6/h4-5H,1,3H2,(H,8,9)/t4-,5-/m1/s1
