16
gdb 25705	4.38353	0.79249	0.73967	2.083	78.65	-0.2396	0.003	0.2426	1552.5017	0.124213	-400.756842	-400.748014	-400.74707	-400.793032	30.125	
C	-0.0046401247	 1.5291375398	 0.1399278642	-0.495785
C	-0.0022424913	 0.0743839355	 0.0870811048	 0.059373
C	-0.0008441807	-1.1278180036	 0.0424415203	 0.079711
C	-0.0081203823	-2.5903063793	-0.0078248767	-0.468176
C	-1.3737795845	-3.1839353954	-0.1387064377	 0.351821
C	-2.0003700207	-3.9351750676	-1.0761212371	-0.193259
N	-3.2958039287	-4.2203080759	-0.6562398895	-0.256284
C	-3.3835752384	-3.6366762808	 0.4920972718	 0.07356
O	-2.2637078138	-2.9859508158	 0.8848836256	-0.170203
H	 0.5309203176	 1.9598033774	-0.7132226012	 0.148775
H	-1.0265948822	 1.9233787725	 0.122651481	 0.151282
H	 0.4764991935	 1.8954801292	 1.0533916721	 0.14893
H	 0.5852431484	-2.9421958227	-0.8600611266	 0.147493
H	 0.4807597471	-2.9925411168	 0.8904656912	 0.147909
H	-1.6179251927	-4.2894146844	-2.0202461822	 0.125095
H	-4.2240124265	-3.6039118119	 1.1673991199	 0.149758
18.931	44.7381	66.5093	197.6573	210.6485	294.2462	328.6017	377.1403	448.1332	639.5612	669.0579	745.8362	782.404	837.373	860.6229	914.3686	941.1549	989.0806	1052.9714	1054.0229	1122.6563	1136.2261	1161.8627	1196.84	1240.3893	1272.3129	1342.4112	1361.2255	1415.4416	1455.1365	1478.2022	1478.7666	1551.032	1637.4288	2379.8237	3011.0719	3028.4568	3059.3028	3089.4177	3090.1186	3264.6931	3277.211
CC#CCC1=CN=CO1	CC#CCc1cnco1	
InChI=1S/C7H7NO/c1-2-3-4-7-5-8-6-9-7/h5-6H,4H2,1H3	InChI=1S/C7H7NO/c1-2-3-4-7-5-8-6-9-7/h5-6H,4H2,1H3
