14
gdb 50396	2.93982	1.27075	1.00737	4.4264	65.33	-0.266	-0.0813	0.1847	1141.3872	0.099486	-473.84029	-473.832196	-473.831251	-473.874166	27.717	
O	 0.0219241205	 0.0957699335	-0.4927255303	-0.217684
C	 0.2111645574	 1.2797238344	-0.4767299045	 0.147452
C	 1.465302397	 1.9500844408	 0.0625457187	-0.025294
C	 1.2095050526	 2.5808140717	 1.4734269298	-0.212532
N	 1.9625492646	 1.7152167145	 2.3861148423	-0.280241
C	 2.6153056038	 0.9063402156	 1.6506556897	 0.32715
O	 2.4926005625	 0.9792050484	 0.306252939	-0.220181
C	 3.5481771241	-0.1130314077	 2.2177303346	 0.104805
O	 4.221556528	-0.8510277755	 1.5502497767	-0.228517
H	-0.5546312131	 2.0097828829	-0.8287058892	 0.086277
H	 1.8312461606	 2.6779662807	-0.6682744269	 0.122348
H	 1.5802719129	 3.6083114759	 1.5483188695	 0.139643
H	 0.1495063403	 2.5946570837	 1.7477404644	 0.138075
H	 3.5548303487	-0.1036454789	 3.3241949961	 0.118701
59.3621	84.8157	119.4019	185.5703	258.0513	283.1127	334.0021	493.5617	596.5468	682.4157	739.0162	773.3651	846.0132	900.6316	949.7346	979.752	1015.8916	1027.3518	1072.0519	1097.5205	1193.6066	1260.3083	1286.2134	1337.4454	1386.1996	1392.5961	1417.021	1493.4698	1700.443	1825.728	1850.9464	2865.379	2964.0554	3045.8037	3067.8503	3083.8947
O=CC1CN=C(O1)C=O	O=C[C@H]1CN=C(O1)C=O	
InChI=1S/C5H5NO3/c7-2-4-1-6-5(3-8)9-4/h2-4H,1H2	InChI=1S/C5H5NO3/c7-2-4-1-6-5(3-8)9-4/h2-4H,1H2/t4-/m1/s1
