17
gdb 32758	2.9544	1.3128	0.96771	2.5617	71.56	-0.1906	0.0339	0.2245	1205.6134	0.136231	-455.169753	-455.160938	-455.159993	-455.204323	32.208	
C	 0.8450634933	 1.1573782346	-0.6178827571	-0.380902
C	 0.07510253	 0.0656220116	 0.1098756266	-0.072361
O	-0.5191743013	-0.8823244511	-0.8029895881	-0.282866
C	 0.2514887775	-1.9264092732	-1.1733169323	 0.256987
C	 1.2912227415	-2.1051015822	-2.0536853726	 0.240543
O	 1.9051648448	-1.1538453489	-2.8014574744	-0.440948
N	 1.6767802131	-3.412627693	-2.1016075757	-0.333673
C	 0.8807409529	-4.0502538957	-1.2644081891	 0.005481
N	 0.0075857704	-3.2006555671	-0.6695121709	-0.29331
H	 1.6772145283	 0.7387033121	-1.1879415755	 0.154891
H	 0.1867714102	 1.6879691936	-1.3117890844	 0.127331
H	 1.2394509157	 1.879361745	 0.1054388742	 0.109932
H	 0.7183596099	-0.4714843508	 0.8177928342	 0.100691
H	-0.7678064289	 0.4891747276	 0.6654838676	 0.108501
H	 2.5887388834	-1.6134656333	-3.3038736772	 0.299878
H	 0.8961141296	-5.1101399943	-1.0636240815	 0.13164
H	-0.7299287704	-3.4261705148	-0.0231011139	 0.268185
23.7835	97.8716	155.0324	250.5465	261.0181	297.1008	338.285	378.2385	464.5778	496.6085	503.3743	641.0634	683.937	722.0245	746.828	767.7511	819.0674	896.3501	949.1773	1040.8521	1099.7385	1111.219	1125.4998	1196.6305	1222.8708	1295.2027	1321.4939	1346.6184	1388.4795	1407.3317	1420.7213	1482.5487	1488.9334	1495.4575	1513.9408	1515.5216	1700.8656	3025.123	3042.6577	3079.9662	3112.8686	3142.5697	3258.1456	3666.7948	3803.7391
CCOC1=C(O)N=CN1	CCOc1c(O)nc[nH]1	
InChI=1S/C5H8N2O2/c1-2-9-5-4(8)6-3-7-5/h3,8H,2H2,1H3,(H,6,7)	InChI=1S/C5H8N2O2/c1-2-9-5-4(8)6-3-7-5/h3,8H,2H2,1H3,(H,6,7)
