12
gdb 133582	2.78702	1.31104	1.10859	2.1137	53.77	-0.2799	0.0013	0.2812	1045.1736	0.071659	-566.926327	-566.918191	-566.917247	-566.96002	29.014	
F	 0.3827843256	 0.2197869069	-0.0509141419	-0.059756
C	-0.0576955059	 1.4731362778	-0.0575807585	 0.290528
F	 0.950697326	 2.2808745918	-0.4186888975	-0.072299
F	-1.0110227882	 1.5741336341	-0.9959742891	-0.075834
C	-0.6093259697	 1.912291254	 1.2833659897	-0.123046
O	-1.3068024387	 0.9419823244	 2.0342569529	-0.223547
C	-0.066708642	 1.4433983872	 2.574580306	-0.150963
C	 1.0396593292	 0.538761323	 2.7150222731	 0.34567
C	 1.9788387137	-0.1839351556	 2.9093285701	-0.405122
H	-1.0629305425	 2.9023622162	 1.2340817942	 0.130033
H	-0.2080920826	 2.1192040818	 3.4178163105	 0.132768
H	 2.8074545649	-0.8324316717	 3.0566555105	 0.211567
40.0327	114.0552	176.8306	231.0725	243.5277	350.4894	415.3897	515.3438	527.963	536.6081	623.0729	648.0564	683.537	706.3151	789.8089	855.1311	909.3015	1028.034	1094.5305	1134.8898	1190.2462	1197.9923	1266.0117	1322.3411	1394.4169	1473.9228	2248.1346	3112.4533	3124.0575	3500.9244
FC(F)(F)C1OC1C#C	FC(F)(F)[C@H]1O[C@H]1C#C	
InChI=1S/C5H3F3O/c1-2-3-4(9-3)5(6,7)8/h1,3-4H	InChI=1S/C5H3F3O/c1-2-3-4(9-3)5(6,7)8/h1,3-4H/t3-,4-/m0/s1
