23
gdb 102637	2.40283	0.91966	0.76044	4.0044	78.6	-0.2412	0.0616	0.3028	1588.9202	0.203391	-462.553149	-462.541853	-462.540909	-462.58964	40.96	
C	 0.0707639369	 1.4441944097	 0.7319897496	-0.400791
C	 0.0661002807	 0.0411653858	 0.1302665167	 0.116793
O	 0.9431437696	-0.8310214294	 0.8595532879	-0.432425
C	-1.3557548231	-0.5379034327	 0.0249510803	-0.224779
C	-1.4459225207	-2.0413462005	-0.300770951	-0.019617
C	-2.9141183177	-2.4737054866	-0.338606668	-0.090297
O	-2.9677175013	-3.8927730903	-0.3573431991	-0.420601
C	-0.7390857732	-2.4581529457	-1.598949392	-0.039745
O	 0.6671832124	-2.2694765673	-1.5935595076	-0.443421
H	 1.0908932752	 1.833447116	 0.7850013605	 0.126797
H	-0.5315807154	 2.1306486412	 0.1278717772	 0.118922
H	-0.3488940169	 1.4387517581	 1.7460724225	 0.104609
H	 0.5111511853	 0.0692055443	-0.8671046355	 0.119393
H	 0.5986927398	-0.9276167233	 1.7547352159	 0.280656
H	-1.8795560828	-0.357746578	 0.9761913482	 0.08323
H	-1.901515408	 0.0403346292	-0.7333627777	 0.100423
H	-0.9807208257	-2.6020559068	 0.5216773209	 0.080538
H	-3.4370858248	-2.0720517744	 0.5443534259	 0.082016
H	-3.4031574024	-2.0446430262	-1.2292267597	 0.086845
H	-3.8815079746	-4.1598416534	-0.490952206	 0.287755
H	-0.9812230579	-3.5115077055	-1.7923543426	 0.107543
H	-1.1454940134	-1.8720775513	-2.4375735972	 0.082671
H	 0.960933298	-2.1970084832	-0.6760456792	 0.293483
65.1383	93.4805	104.0148	146.2441	162.4043	228.1556	243.7794	251.7463	269.3807	309.0645	314.3818	369.8755	435.3341	470.3795	477.282	524.0664	575.0932	831.4472	837.3789	887.5079	923.2447	952.1434	1017.2487	1029.8552	1069.4909	1087.9264	1105.3918	1116.1645	1138.0587	1167.1812	1197.7717	1228.6093	1258.77	1286.2579	1304.4342	1322.0203	1328.7163	1371.4326	1392.1731	1402.5599	1405.3228	1432.5573	1445.3503	1463.7497	1479.6809	1492.3335	1494.7059	1518.9895	1528.5889	2955.5911	2982.1961	2987.641	2991.5704	3016.9976	3022.9361	3033.7838	3042.7282	3082.4634	3104.6365	3120.1274	3751.5097	3795.9088	3833.5588
CC(O)CC(CO)CO	C[C@@H](O)CC(CO)CO	
InChI=1S/C6H14O3/c1-5(9)2-6(3-7)4-8/h5-9H,2-4H2,1H3	InChI=1S/C6H14O3/c1-5(9)2-6(3-7)4-8/h5-9H,2-4H2,1H3/t5-/m1/s1
