20
gdb 113727	3.54239	0.85628	0.75457	2.2477	82.43	-0.2475	0.0295	0.277	1557.0073	0.168362	-403.081891	-403.07147	-403.070526	-403.118279	37.515	
C	 0.4642681674	 1.5488217911	 0.1789655326	-0.38719
C	-0.1990495845	 0.1957928915	-0.1012453189	-0.171451
C	 0.3880251094	-0.4783150103	-1.321277809	-0.001018
N	 1.6442994773	-1.2312143942	-1.1463976082	-0.335008
C	 0.4258426607	-1.9458254319	-1.5522868386	-0.054384
C	-0.1376675637	-2.954649045	-0.5595604914	-0.048624
O	-1.5638499334	-2.9785943444	-0.5887673183	-0.419304
C	 0.4297325909	-4.2858677862	-0.7951862331	 0.291449
C	 0.8664091921	-5.3780591202	-1.0444194747	-0.441615
H	 1.538146917	 1.4233165433	 0.3494764348	 0.127787
H	 0.3364958824	 2.2369059836	-0.6645732033	 0.109204
H	 0.0330814942	 2.0254428698	 1.0643679421	 0.112831
H	-0.0812272656	-0.4543006554	 0.7705853836	 0.105495
H	-1.2774107087	 0.3249261622	-0.2541266984	 0.106245
H	 0.3052858399	 0.1191982575	-2.2305185382	 0.078661
H	 2.2685836581	-1.1047387147	-1.9374961072	 0.233386
H	 0.3540726778	-2.2765348407	-2.5882196514	 0.082144
H	 0.1296495335	-2.6278638484	 0.4493922771	 0.12767
H	-1.8306771246	-3.4598003845	-1.379652362	 0.284532
H	 1.2606849298	-6.3452522129	-1.2372135074	 0.199189
30.1837	72.3027	98.9782	151.1089	198.7784	218.0982	241.4176	259.3223	316.9653	386.7872	461.7147	489.736	573.6202	604.8334	634.0668	669.9448	758.9137	814.2315	865.8356	903.1345	941.9599	960.3401	994.7754	1040.1222	1063.142	1071.7906	1109.6169	1153.5229	1193.8464	1240.6034	1261.229	1273.4038	1299.0408	1306.7047	1344.5762	1402.5747	1407.1754	1424.0008	1472.9091	1482.7981	1498.7797	1508.0965	2231.3576	3031.5665	3039.3535	3073.1842	3081.8149	3090.6259	3104.549	3110.5384	3112.9054	3502.5969	3514.0284	3808.7992
CCC1NC1C(O)C#C	CC[C@H]1N[C@H]1[C@@H](O)C#C	
InChI=1S/C7H11NO/c1-3-5-7(8-5)6(9)4-2/h2,5-9H,3H2,1H3	InChI=1S/C7H11NO/c1-3-5-7(8-5)6(9)4-2/h2,5-9H,3H2,1H3/t5-,6+,7-/m1/s1
