18
gdb 112203	2.58699	1.33584	0.97356	4.4104	74.59	-0.2351	-0.0286	0.2065	1223.1696	0.145922	-439.047195	-439.038259	-439.037315	-439.08126	32.46	
C	 0.1464659427	 1.4921095495	-0.1728066652	-0.240019
O	-0.328106742	 0.2073666822	-0.5194001543	-0.24403
C	 0.6229277226	-0.5822180656	-1.1767105239	 0.035499
C	 1.7323861564	-1.2808277579	-0.3170755218	-0.397635
C	 1.3061428422	-2.6241157007	-0.9534448203	 0.360994
O	 1.7658957685	-3.7283228231	-0.9600058342	-0.29952
C	 0.0955532467	-1.9674507377	-1.5754086992	 0.200353
C	-1.3242845633	-2.4092836315	-1.4501169696	-0.274606
N	-0.6574940394	-2.3930975307	-2.7521294748	-0.365788
H	 0.9867250133	 1.4405381124	 0.5347069242	 0.114636
H	 0.4749161933	 2.0545218937	-1.0602952713	 0.109882
H	-0.681268733	 2.0254741068	 0.2996928154	 0.133423
H	 1.056962494	-0.0361466005	-2.0293075841	 0.077288
H	 2.7706039312	-0.9840916583	-0.4788277609	 0.130245
H	 1.502494915	-1.246543706	 0.7525843144	 0.139862
H	-1.5305005379	-3.3993526812	-1.0544466883	 0.139253
H	-2.045345272	-1.635095447	-1.2058509731	 0.139325
H	-0.9406654583	-1.5698167946	-3.2809461129	 0.240838
70.8342	100.473	153.086	193.3747	200.4671	232.0891	308.9894	362.6907	449.4604	502.6817	566.0141	623.1572	718.5611	783.6965	824.8771	918.8539	949.745	977.8232	997.5657	1000.8976	1036.2864	1083.2808	1106.8373	1124.3393	1159.4428	1172.6059	1184.2047	1235.1635	1255.9965	1267.6506	1288.5953	1382.8329	1395.2746	1430.7464	1482.0959	1488.1677	1500.4971	1508.7551	1894.6787	2975.2327	2983.5838	3032.693	3062.751	3117.9219	3121.9018	3128.0747	3214.4238	3483.1747
COC1CC(=O)C11CN1	CO[C@H]1CC(=O)[C@]21CN2	
InChI=1S/C6H9NO2/c1-9-5-2-4(8)6(5)3-7-6/h5,7H,2-3H2,1H3	InChI=1S/C6H9NO2/c1-9-5-2-4(8)6(5)3-7-6/h5,7H,2-3H2,1H3/t5-,6-/m0/s1
