23
gdb 105374	3.07471	0.92445	0.84436	1.5549	85.75	-0.2523	0.0751	0.3274	1490.6079	0.205026	-388.257332	-388.247403	-388.246458	-388.292814	37.309	
O	-0.1972004069	 1.5936823745	 0.0105497577	-0.421886
C	 0.0132999206	 0.1938965011	-0.1093867064	-0.149066
C	-1.3169224881	-0.5338763812	-0.0316565294	 0.375379
C	-1.2164265689	-2.0381033021	-0.2538957768	-0.312786
C	-0.3656451682	-2.7916530203	 0.7532769709	 0.041267
C	-0.9425842211	-3.2388626442	 2.0729180349	-0.251429
C	-0.6151656062	-4.2569864251	 1.0078122824	-0.280069
C	-2.3615894818	-0.0069248406	 0.9200715902	-0.291681
C	-2.5366974793	 0.1713902672	-0.5714630037	-0.312587
H	 0.6614818683	 2.0237592925	 0.0366655722	 0.289115
H	 0.4999819755	-0.0483032999	-1.0702566465	 0.082414
H	 0.6773096366	-0.1643201999	 0.6929281007	 0.087544
H	-2.229803186	-2.4588424676	-0.242001421	 0.089042
H	-0.8240419273	-2.2250495431	-1.2646383338	 0.094067
H	 0.6795691726	-2.4948462778	 0.7791464615	 0.080464
H	-0.3155183229	-3.1955913536	 2.9566598563	 0.107861
H	-1.9891240456	-3.0278105899	 2.2646790715	 0.110894
H	-1.4424511915	-4.726756548	 0.4851375074	 0.108316
H	 0.2375800163	-4.9092837492	 1.1610430909	 0.108018
H	-2.9953986952	-0.7228407892	 1.4322880926	 0.099895
H	-2.1151575876	 0.8772629323	 1.4957710629	 0.121055
H	-2.4054106736	 1.1702198691	-0.9688003585	 0.125919
H	-3.2846501297	-0.429492545	-1.0788121262	 0.098254
39.5607	83.0063	117.7303	150.5036	220.5394	252.1654	290.5405	331.058	337.4877	364.3381	440.9647	557.7009	706.775	773.5853	791.9123	802.5412	834.781	865.2287	888.9064	914.6286	926.6271	978.2295	992.8952	1023.0618	1051.0309	1062.2017	1077.1924	1078.0678	1081.3689	1105.7599	1132.0027	1142.9599	1193.2366	1199.047	1214.7361	1228.8326	1255.4575	1279.3099	1304.439	1341.4888	1375.6288	1421.5764	1456.4784	1461.1579	1469.0124	1477.2429	1502.9687	1509.5094	1520.9741	2947.5644	2985.4853	2995.866	3042.4734	3127.7294	3133.0385	3134.1192	3137.759	3139.4493	3205.6838	3220.1444	3222.0202	3233.6519	3844.5001
OCC1(CC2CC2)CC1	OCC1(CC2CC2)CC1	
InChI=1S/C8H14O/c9-6-8(3-4-8)5-7-1-2-7/h7,9H,1-6H2	InChI=1S/C8H14O/c9-6-8(3-4-8)5-7-1-2-7/h7,9H,1-6H2
