19
gdb 108186	3.25564	1.45717	1.33952	1.3695	74.82	-0.2401	0.0057	0.2459	1031.8263	0.160306	-423.005574	-422.997916	-422.996972	-423.037548	30.525	
C	 0.018677704	 1.3718009642	-0.0442576101	-0.263719
O	-0.0434686589	-0.0381637132	 0.0389687421	-0.311255
C	-1.3279111038	-0.5849430701	 0.0564163006	 0.367144
C	-2.2383013184	-0.3009846038	-1.1939874582	-0.11913
O	-3.2142776149	-1.3418836522	-1.1471652213	-0.276737
C	-2.8851029058	-2.1465590639	 0.0293178073	 0.04921
C	-1.3525965892	-2.1308711146	-0.0039170947	-0.271933
C	-3.165879856	-1.2899640979	 1.2545293649	-0.076758
C	-2.2246860029	-0.3398924677	 1.2668640715	-0.149643
H	 1.0765354824	 1.6419957449	-0.0128682788	 0.131804
H	-0.4123652201	 1.7512103979	-0.9812439803	 0.115418
H	-0.4922252314	 1.8619995322	 0.7964459312	 0.110197
H	-2.7296419717	 0.6777402398	-1.1564274433	 0.094369
H	-1.6473023503	-0.374779707	-2.1164302614	 0.101996
H	-3.4085549932	-3.0957121467	-0.0631886569	 0.077668
H	-0.9368096464	-2.5359230582	-0.9298658117	 0.105113
H	-0.8804953113	-2.5836183027	 0.8681435742	 0.109916
H	-4.035027194	-1.3741398004	 1.894089915	 0.103953
H	-2.1531698382	 0.5167751093	 1.9246721098	 0.102384
88.5765	185.4058	213.1688	280.3627	361.9719	391.7047	427.7904	497.3362	521.2009	618.4759	669.0837	736.9028	799.2631	801.9041	868.34	919.6179	938.8768	945.3775	961.7897	983.2896	1024.3132	1053.8242	1076.3892	1106.9567	1133.5639	1171.5007	1180.4551	1217.3062	1232.2098	1239.8012	1261.9996	1283.6904	1294.456	1348.6994	1373.1672	1485.3446	1492.6397	1493.8015	1505.7755	1522.3762	1633.6748	2992.9375	3010.9754	3044.4786	3059.8502	3075.3044	3119.7419	3145.1901	3146.4879	3202.1134	3226.9432
COC12COC(C1)C=C2	CO[C@@]12CO[C@@H](C1)C=C2	
InChI=1S/C7H10O2/c1-8-7-3-2-6(4-7)9-5-7/h2-3,6H,4-5H2,1H3	InChI=1S/C7H10O2/c1-8-7-3-2-6(4-7)9-5-7/h2-3,6H,4-5H2,1H3/t6-,7-/m1/s1
