17
gdb 29839	3.88219	1.09826	0.86537	4.5722	86.94	-0.2057	0.0116	0.2174	1317.8356	0.135019	-380.888511	-380.879239	-380.878295	-380.923435	33.149	
C	 0.0130525938	 1.459885951	 0.0248085152	-0.341453
N	 0.0033930998	 0.0099606087	 0.0008313842	-0.015651
C	-0.0027490199	-0.7844166702	-1.1195184473	-0.222983
C	 0.0158211699	-2.0834801916	-0.6644422313	 0.12748
N	 0.0355724381	-2.0929392724	 0.7209086877	-0.35274
C	 0.0291843354	-0.831827927	 1.0875771774	 0.324931
C	 0.047017293	-0.3406978042	 2.4959122821	-0.51103
C	 0.0136437119	-3.2642185057	-1.4450587576	 0.236262
C	 0.0119516238	-4.2602521814	-2.1217708322	-0.428537
H	 0.9710948426	 1.8451419897	 0.3893306195	 0.146427
H	-0.1506737645	 1.8346909815	-0.9863642995	 0.149716
H	-0.7844356808	 1.8412776153	 0.6688233953	 0.14738
H	-0.0213798102	-0.3707444268	-2.1139190692	 0.133875
H	 0.9272247762	 0.278751354	 2.7050267275	 0.131297
H	-0.8396239155	 0.2588548127	 2.7344427493	 0.131631
H	 0.0672290992	-1.2051912272	 3.1599825698	 0.161846
H	 0.010329807	-5.1433044464	-2.7105525209	 0.181549
26.98	119.905	137.1834	141.7989	206.408	264.0412	272.0113	394.3638	467.3688	533.1554	542.2164	574.3171	645.9563	654.8767	657.0938	714.5051	759.5353	790.4897	1004.8907	1023.2349	1061.7521	1072.875	1149.8148	1182.2225	1222.449	1290.7927	1382.6792	1405.3392	1433.4006	1470.1852	1479.0279	1489.0982	1490.4982	1511.7963	1565.9996	1572.6575	2235.1012	3026.806	3040.2836	3074.3784	3101.7442	3144.637	3152.0888	3274.1652	3506.5077
CN1C=C(N=C1C)C#C	Cn1cc(nc1C)C#C	
InChI=1S/C7H8N2/c1-4-7-5-9(3)6(2)8-7/h1,5H,2-3H3	InChI=1S/C7H8N2/c1-4-7-5-9(3)6(2)8-7/h1,5H,2-3H3
