15
gdb 26638	3.36013	1.27487	0.92958	5.4555	76.89	-0.2096	-0.0085	0.2011	1187.9393	0.113276	-416.868737	-416.860072	-416.859128	-416.902135	31.367	
C	-0.004879171	 1.5207253722	 0.0706109909	-0.511822
C	 0.018956591	 0.0328365578	-0.0067071996	 0.237112
C	 0.0357013172	-0.8038940959	-1.0961728649	 0.16908
O	 0.0331985987	-0.3876811531	-2.3876928165	-0.444694
C	 0.0557492797	-2.1583469186	-0.6228572305	 0.066512
C	 0.0502844108	-2.0997737329	 0.7633916318	-0.171801
N	 0.0284883099	-0.7900230505	 1.1113711072	-0.300863
C	 0.0765225644	-3.2973524623	-1.4543830406	 0.179192
N	 0.0929312111	-4.1856574038	-2.2006133	-0.37385
H	 0.8727471017	 1.924968011	 0.590242323	 0.130295
H	-0.0086793773	 1.9294745118	-0.9419032015	 0.15977
H	-0.8976596425	 1.8968204116	 0.585534065	 0.130276
H	 0.0472750743	-1.1600615409	-2.9646458342	 0.311371
H	 0.0604580049	-2.8914067234	 1.4932408749	 0.148798
H	 0.0201175671	-0.4522131129	 2.0583885248	 0.270622
96.877	112.0939	123.6372	243.0558	248.6106	280.9091	319.1832	420.6436	476.1734	509.473	549.2625	589.0994	633.1363	698.5323	723.0331	743.3245	756.689	970.1062	1020.9448	1064.4848	1132.0936	1223.6737	1254.8736	1299.6486	1354.9463	1413.5441	1436.9696	1483.8002	1490.2559	1510.5642	1552.4641	1683.4909	2330.4446	3017.5456	3062.4658	3132.4085	3281.9336	3677.9157	3804.2615
CC1=C(O)C(=CN1)C#N	Cc1c(O)c(c[nH]1)C#N	
InChI=1S/C6H6N2O/c1-4-6(9)5(2-7)3-8-4/h3,8-9H,1H3	InChI=1S/C6H6N2O/c1-4-6(9)5(2-7)3-8-4/h3,8-9H,1H3
