16
gdb 64944	3.99515	0.66575	0.64061	2.7539	78.78	-0.27	0.0028	0.2728	1743.1366	0.121828	-400.710403	-400.700904	-400.69996	-400.746831	32.942	
C	-0.4508739703	 1.3353917769	-0.5727160147	-0.468852
C	-0.0017204078	-0.0212350349	-0.0719703531	 0.217026
C	 1.0884419598	-0.750630696	-0.7544876542	-0.207031
O	 1.3319808922	-0.0681881296	 0.4707436728	-0.254637
C	-0.9880229598	-0.7813399916	 0.663149037	 0.068338
C	-1.8318142249	-1.3858803429	 1.2705915588	 0.115492
C	-2.841224324	-2.1301365312	 2.0189604959	-0.47899
C	-3.3733732314	-3.28336115	 1.2799494125	 0.280012
N	-3.7998841381	-4.1909698833	 0.7080298403	-0.298129
H	 0.3666603544	 1.825720139	-1.1063707558	 0.132809
H	-1.3068948139	 1.232403376	-1.2461843152	 0.135808
H	-0.7509412741	 1.9703853412	 0.2658771455	 0.138257
H	 1.1203243391	-1.8370938064	-0.7033947242	 0.127218
H	 1.5384426372	-0.3053841858	-1.641215084	 0.120155
H	-2.4212307838	-2.4927164865	 2.9660759455	 0.188116
H	-3.6815029947	-1.4769589549	 2.2871794228	 0.184407
14.6322	67.5286	105.1193	169.1089	210.8135	286.9521	328.4126	338.1427	371.5145	374.143	499.2579	555.0731	561.9326	663.9247	799.0262	865.0297	922.7792	928.0304	934.9117	1027.9127	1071.5031	1099.1337	1137.3377	1169.6339	1234.3551	1286.5421	1337.0129	1369.97	1411.5026	1445.5728	1479.13	1494.7661	1521.4195	2369.9457	2378.8888	3027.487	3045.9565	3058.3337	3084.8961	3117.5097	3132.3071	3178.9488
CC1(CO1)C#CCC#N	C[C@]1(CO1)C#CCC#N	
InChI=1S/C7H7NO/c1-7(6-9-7)4-2-3-5-8/h3,6H2,1H3	InChI=1S/C7H7NO/c1-7(6-9-7)4-2-3-5-8/h3,6H2,1H3/t7-/m1/s1
