17
gdb 17882	3.92684	2.02665	1.83678	2.0576	66.9	-0.243	0.0178	0.2608	794.0906	0.144767	-363.858162	-363.851683	-363.850739	-363.888395	25.919	
C	-0.1040473683	 1.5105141576	-0.0015227292	-0.42812
C	 0.0215096465	-0.007562643	 0.0168126058	 0.014053
C	 1.1875159165	-0.5985463303	-0.8255526118	 0.110763
C	 2.1015654358	-0.423754062	 0.4105982719	-0.257138
C	 0.791895889	-0.6365516364	 1.2282200855	-0.001947
N	 0.5010421546	-2.0764101173	 1.2659461852	-0.258381
C	 0.6034325998	-2.6306450707	 0.130138142	 0.102526
O	 0.9416988142	-2.0091262213	-1.0285530987	-0.240815
H	 0.8460167741	 2.0178269929	 0.190527522	 0.119379
H	-0.4735143591	 1.8580474671	-0.9726068891	 0.120914
H	-0.8142888024	 1.8430664071	 0.7625688033	 0.125913
H	-0.9511777753	-0.4684329201	-0.1791545484	 0.084182
H	 1.4517883338	-0.1879345652	-1.8002865598	 0.084529
H	 2.9052507742	-1.1482589794	 0.553181775	 0.111794
H	 2.4917656941	 0.5914295489	 0.4826907716	 0.111466
H	 0.689195136	-0.1980982597	 2.2212917477	 0.072539
H	 0.4271668867	-3.6921371582	-0.0229080729	 0.128341
184.8804	249.6183	251.5041	331.8159	417.4716	476.5429	495.5823	603.5406	759.1326	817.0894	853.8096	867.7397	878.2272	919.9761	942.9559	963.2866	1005.9904	1060.649	1066.3759	1095.4582	1129.4213	1143.6189	1148.9014	1175.2542	1234.4094	1263.0382	1278.4682	1308.9281	1332.0224	1372.4395	1393.7469	1417.109	1482.5438	1497.4085	1503.8129	1699.3339	3033.8268	3062.1536	3081.5539	3096.07	3102.4357	3109.3725	3113.4257	3145.5355	3178.9241
CC1C2CC1N=CO2	C[C@H]1[C@H]2C[C@@H]1[N][CH]O2	
InChI=1S/C6H9NO/c1-4-5-2-6(4)8-3-7-5/h3-6H,2H2,1H3	InChI=1S/C6H9NO/c1-4-5-2-6(4)8-3-7-5/h3-6H,2H2,1H3/t4-,5+,6-/m1/s1
