15
gdb 132495	3.11751	1.33591	0.94058	4.0962	71.72	-0.2267	-0.0267	0.1999	1157.5644	0.112326	-461.981483	-461.973551	-461.972607	-462.014073	29.664	
C	-0.0130548777	 1.5196967683	-0.0018759696	-0.498306
C	 0.0182024798	 0.0162539354	-0.026602293	 0.144111
C	 0.0417244378	-0.7309339895	-1.1991665452	-0.301925
C	 0.0701332306	-2.1262870134	-1.141015187	 0.34827
O	 0.0942598195	-2.926216406	-2.2432523289	-0.439982
C	 0.0740348971	-2.7338089583	 0.1123584569	-0.065304
N	 0.0516959151	-2.031015906	 1.2479667927	-0.314117
C	 0.0253549846	-0.7258542892	 1.1585847741	 0.27079
F	 0.0034076751	-0.0488704069	 2.3132734674	-0.07804
H	 0.8531044532	 1.9226818179	 0.5329808535	 0.146159
H	-0.0137058737	 1.9298732213	-1.0145560003	 0.121835
H	-0.9033124519	 1.8864032278	 0.5193644953	 0.146154
H	 0.0378846543	-0.2228060507	-2.1609543685	 0.09641
H	 0.0884385237	-2.3798232544	-3.0357263418	 0.300265
H	 0.0958695425	-3.8165540962	 0.1890656043	 0.123681
88.2719	144.8228	211.9571	268.1705	317.9706	346.7074	399.1756	472.4521	486.268	498.563	593.7902	602.4076	726.2629	772.0513	796.3277	893.4647	931.5661	992.2696	1020.0983	1062.7894	1160.1461	1194.2886	1257.7453	1307.3788	1327.0103	1361.8603	1415.4356	1467.3036	1478.2051	1487.4793	1517.1439	1637.9524	1650.8088	3040.1281	3096.7269	3123.3811	3151.4869	3179.4421	3826.2829
CC1=CC(O)=CN=C1F	Cc1cc(O)cnc1F	
InChI=1S/C6H6FNO/c1-4-2-5(9)3-8-6(4)7/h2-3,9H,1H3	InChI=1S/C6H6FNO/c1-4-2-5(9)3-8-6(4)7/h2-3,9H,1H3
