19
gdb 51902	4.73233	0.69153	0.63029	1.8824	84.4	-0.2478	-0.0195	0.2283	1757.5131	0.159837	-419.226566	-419.217642	-419.216697	-419.261234	32.339	
O	-0.8431044496	 1.0778379792	 1.0009268686	-0.298758
C	-0.1749950959	 1.8757266842	 0.3863997312	 0.159268
N	 1.1092925632	 1.6555812088	-0.0499938396	-0.305335
C	 1.815347606	 0.4750061758	 0.1630840536	 0.109984
N	 2.9929320457	 0.3500069474	-0.2808021532	-0.269242
C	 3.7093088313	-0.8775320076	-0.0426666517	 0.085715
C	 3.0373406129	-2.2106529184	 0.4109699028	-0.241947
C	 4.0404715758	-2.9547723925	-0.5114723212	-0.220268
C	 4.2641089653	-1.6273070164	-1.2839614989	-0.215957
H	-0.5322508577	 2.8846494625	 0.1060606343	 0.089791
H	 1.5941033997	 2.3808224101	-0.5598680037	 0.263555
H	 1.2439432291	-0.2636205502	 0.7275573612	 0.140785
H	 4.5455140157	-0.6438666691	 0.6288287339	 0.089048
H	 3.0303836663	-2.4514967983	 1.4764983388	 0.099281
H	 2.016953083	-2.2946961022	 0.023452554	 0.105748
H	 4.9372858012	-3.264295503	 0.0323595947	 0.104764
H	 3.6640140569	-3.8095454266	-1.0763227627	 0.101371
H	 3.5710265499	-1.5308503147	-2.1248084985	 0.103994
H	 5.2721375912	-1.379471669	-1.6233292336	 0.098202
51.534	97.6957	116.9395	175.2897	197.6468	255.9579	341.8939	379.7222	443.2025	539.6879	654.9445	656.2941	752.2819	791.1071	817.4323	901.4211	928.1764	954.4631	980.6817	1007.3037	1030.4632	1043.1901	1099.0114	1122.2005	1145.9792	1192.2887	1236.85	1244.1921	1251.851	1257.4175	1273.3387	1288.2279	1351.2726	1366.2503	1438.0046	1475.6397	1488.1196	1501.6874	1510.1113	1749.4223	1817.2652	2957.4555	3020.5284	3052.285	3060.1271	3064.4091	3104.9956	3112.2988	3125.0915	3126.8172	3610.0447
O=CNC=NC1CCC1	O=CNC=NC1CCC1	
InChI=1S/C6H10N2O/c9-5-7-4-8-6-2-1-3-6/h4-6H,1-3H2,(H,7,8,9)	InChI=1S/C6H10N2O/c9-5-7-4-8-6-2-1-3-6/h4-6H,1-3H2,(H,7,8,9)
