16
gdb 7910	3.44823	1.71172	1.20373	4.6352	68.85	-0.2351	-0.0422	0.1929	974.7239	0.129695	-383.780514	-383.772534	-383.771589	-383.812944	29.196	
C	 0.0617715658	 1.4876581627	 0.0230836239	-0.508997
C	 0.0062634791	-0.0012064045	-0.055759864	 0.326927
C	-0.1035175274	-0.767525086	-1.1502910146	-0.289449
C	-0.0870183747	-2.2038060737	-0.7990722086	 0.386163
O	-0.2467932629	-3.141823081	-1.5450723825	-0.33302
C	 0.1791612328	-2.2856419855	 0.7102900149	-0.343201
C	 0.0686905999	-0.8431722495	 1.2169910636	 0.013829
O	 1.1894883014	-0.5266118017	 2.037412002	-0.42578
H	 0.9931861174	 1.8043040144	 0.5076178378	 0.143112
H	 0.0110305158	 1.9539889596	-0.9629954934	 0.13969
H	-0.7629640454	 1.8791051358	 0.6332000369	 0.133466
H	-0.19448953	-0.4233807164	-2.1737865384	 0.11081
H	-0.5010985012	-2.9896405324	 1.1938259122	 0.126858
H	 1.2006731508	-2.6433046651	 0.8745901397	 0.149184
H	-0.8629306794	-0.6989784713	 1.7874028366	 0.082657
H	 0.988840728	 0.2719171146	 2.5348569738	 0.28775
79.3116	143.7914	177.2652	228.5689	263.5116	326.1913	363.7576	508.2257	539.7824	565.6711	574.199	670.148	811.0542	851.8234	882.7982	956.0559	988.2458	1026.4334	1058.0175	1080.4834	1152.6096	1174.3908	1190.7169	1251.1129	1265.4392	1306.6869	1340.1451	1402.0332	1414.4423	1453.0475	1478.042	1485.8579	1687.0001	1817.2168	2969.6834	3020.9595	3068.7937	3072.7864	3121.8658	3126.6372	3207.1353	3827.3814
CC1=CC(=O)CC1O	CC1=CC(=O)C[C@H]1O	
InChI=1S/C6H8O2/c1-4-2-5(7)3-6(4)8/h2,6,8H,3H2,1H3	InChI=1S/C6H8O2/c1-4-2-5(7)3-6(4)8/h2,6,8H,3H2,1H3/t6-/m1/s1
