20
gdb 56225	4.12457	0.59377	0.56224	3.9525	77.	-0.2379	-0.0092	0.2287	1968.4198	0.167766	-440.347749	-440.336495	-440.335551	-440.387104	37.777	
C	 0.8678431358	 0.772281191	 0.4076855124	-0.478666
C	-0.449729624	 0.1902661556	-0.0721181883	 0.380012
O	-1.4857412868	 0.3645252899	 0.5270917783	-0.301165
C	-0.403697612	-0.655545451	-1.3409669941	-0.291206
C	-0.1266123691	-2.1317150099	-0.9985602745	-0.167702
C	-0.1320557253	-3.0350485986	-2.2345422409	-0.312096
C	 0.3658392168	-4.443892977	-1.9084493279	 0.408697
N	-0.1848898639	-5.4394092981	-2.661304881	-0.52158
O	 1.2116708363	-4.6602000052	-1.062034515	-0.359314
H	 1.6464341449	 0.0025557622	 0.4427288834	 0.141958
H	 1.2105243794	 1.5356043403	-0.3014951129	 0.140008
H	 0.7427736172	 1.223804192	 1.3924185818	 0.141713
H	-1.3752324637	-0.56270724	-1.8364943682	 0.116473
H	 0.3717056878	-0.2842359345	-2.022172741	 0.098596
H	 0.8428366934	-2.2438057924	-0.5039857886	 0.132954
H	-0.8822011696	-2.4795787022	-0.285352723	 0.122198
H	-1.1280395584	-3.0675818663	-2.691907185	 0.100434
H	 0.5456345641	-2.6263404811	-2.9966664146	 0.12902
H	-0.9141147838	-5.2711486326	-3.3308510798	 0.258241
H	 0.120467201	-6.3853290222	-2.5006969911	 0.261425
24.5701	30.472	76.9399	90.0141	109.6762	113.8487	142.6476	230.3962	284.8281	381.7302	433.2287	523.3913	531.1992	587.462	612.408	684.7782	750.2621	791.4862	857.6624	869.3187	946.7253	981.4291	1049.7997	1064.4178	1084.9638	1105.239	1151.6638	1223.867	1245.8301	1287.1894	1310.8518	1321.5891	1366.8261	1381.2193	1404.5593	1460.9351	1465.1866	1476.1206	1479.4144	1503.647	1616.0555	1796.488	1814.0472	3018.8544	3028.3537	3034.5827	3050.859	3059.2215	3083.1678	3094.0029	3107.4373	3152.6203	3604.2124	3742.9649
CC(=O)CCCC(N)=O	CC(=O)CCCC(=O)N	
InChI=1S/C6H11NO2/c1-5(8)3-2-4-6(7)9/h2-4H2,1H3,(H2,7,9)	InChI=1S/C6H11NO2/c1-5(8)3-2-4-6(7)9/h2-4H2,1H3,(H2,7,9)
