15
gdb 28128	5.2236	1.28802	1.03457	2.3598	76.56	-0.1593	0.0379	0.1972	1085.7431	0.115618	-416.842757	-416.835451	-416.834507	-416.874158	28.751	
N	 0.1109694596	 1.3528699005	 0.165821675	-0.592856
C	-0.0651496728	-0.0198297119	 0.0523376389	 0.382033
C	-1.1843434136	-0.8103771106	 0.017856484	-0.463727
C	-0.6593928861	-2.1457109494	 0.0076917636	 0.318156
C	 0.7141594173	-2.0550356396	 0.0269806632	 0.324066
O	 1.100284035	-0.7368861441	 0.0579033368	-0.238059
C	 1.2936764955	-3.3416900716	-0.0073356447	-0.32898
C	 0.2134801419	-4.2061104683	-0.0430924694	-0.076424
N	-0.9698857628	-3.4790476223	-0.0359249383	-0.401409
H	 0.9455344877	 1.6730536552	-0.3104945098	 0.255477
H	-0.6968801788	 1.8748285809	-0.1449147363	 0.25352
H	-2.2051955881	-0.4655975304	 0.0031508473	 0.096156
H	 2.3336886452	-3.6237128129	-0.0027834809	 0.100386
H	 0.1913034036	-5.2832181134	-0.0661295151	 0.113761
H	-1.8893968237	-3.8809139622	-0.0508808846	 0.257899
143.7217	162.4729	270.5439	314.7412	329.6963	392.2367	521.1668	568.797	607.5944	636.1324	652.7799	687.161	731.1173	734.7666	756.3474	788.2138	828.6887	936.4683	970.5122	1062.0254	1092.7445	1098.1703	1170.252	1192.032	1285.4758	1370.3044	1391.7911	1475.4759	1478.2358	1563.8771	1592.6003	1611.9527	1658.5117	3259.345	3261.1977	3277.4237	3538.2374	3641.7022	3696.0559
NC1=CC2=C(O1)C=CN2	Nc1cc2c(o1)cc[nH]2	
InChI=1S/C6H6N2O/c7-6-3-4-5(9-6)1-2-8-4/h1-3,8H,7H2	InChI=1S/C6H6N2O/c7-6-3-4-5(9-6)1-2-8-4/h1-3,8H,7H2
