21
gdb 88427	2.94109	1.12932	1.00942	1.5496	79.94	-0.2337	0.0865	0.3202	1301.9949	0.180198	-424.196372	-424.18669	-424.185746	-424.23062	36.826	
C	-1.6163015171	 0.2412926735	 0.5861431137	-0.43991
C	-0.5831184811	-0.8551618506	 0.5619542606	 0.08356
O	 0.7276500576	-0.5635686349	 0.0309732551	-0.281364
C	 0.6143657538	-0.9285280609	 1.4179414546	-0.038909
C	 1.0530156867	 0.1380402054	 2.3815026939	 0.39775
O	 0.9384790694	 1.439155909	 1.8711684304	-0.46867
C	 0.7795196957	 0.014297085	 3.852194182	-0.342874
C	 2.2041895907	-0.1038770653	 3.3438196096	-0.04927
C	 2.971367375	-1.4022017701	 3.4580297031	-0.416614
H	-1.2165367194	 1.1591825032	 1.015574202	 0.152432
H	-1.9769849269	 0.4415156606	-0.4286388916	 0.123676
H	-2.4756401167	-0.0822721097	 1.1838682287	 0.121267
H	-0.9606111336	-1.8156443259	 0.2034500802	 0.090201
H	 0.9944890281	-1.924620562	 1.6430386578	 0.091071
H	 1.1850771302	 1.3705278567	 0.9381501279	 0.288447
H	 0.4831171914	 0.9223520635	 4.3651909506	 0.125273
H	 0.2918240297	-0.8889169351	 4.2071529229	 0.109749
H	 2.8030308324	 0.7918418453	 3.4836380819	 0.096483
H	 2.3170139282	-2.2755761312	 3.3735476325	 0.114758
H	 3.7434769227	-1.4870489929	 2.6853054859	 0.122605
H	 3.4670625131	-1.4690928137	 4.4329245083	 0.120335
60.1638	135.6485	190.41	198.3841	218.8757	234.4084	265.4999	343.3439	382.5521	433.922	439.6992	467.0394	513.8798	586.3522	737.9335	787.4005	811.7236	844.4027	888.1516	920.4421	934.8533	972.5416	1008.8772	1046.8865	1057.0595	1098.6627	1102.6068	1124.8879	1158.7483	1177.1016	1184.6465	1235.4941	1277.4882	1315.0614	1358.912	1394.1443	1408.8623	1416.4019	1441.7753	1463.1888	1490.9114	1496.3523	1502.9562	1504.901	1515.6364	3027.8792	3038.2703	3079.3056	3087.5857	3095.5721	3096.0773	3117.6715	3126.2863	3151.2117	3161.3445	3218.2253	3749.2709
CC1OC1C1(O)CC1C	C[C@H]1O[C@H]1[C@@]1(O)C[C@H]1C	
InChI=1S/C7H12O2/c1-4-3-7(4,8)6-5(2)9-6/h4-6,8H,3H2,1-2H3	InChI=1S/C7H12O2/c1-4-3-7(4,8)6-5(2)9-6/h4-6,8H,3H2,1-2H3/t4-,5-,6-,7-/m1/s1
