14
gdb 19031	4.40043	2.28395	1.93855	3.0154	62.06	-0.2498	0.0058	0.2556	702.75	0.110023	-378.682095	-378.676583	-378.675639	-378.711569	22.304	
N	-0.0733819662	 1.2907541608	-0.2116298535	-0.553116
C	-0.0092695593	 0.0490640213	 0.0031974424	 0.43147
O	 1.1452286171	-0.6749565534	 0.1967758017	-0.24819
C	 0.7566187631	-2.0010288665	 0.5792625999	 0.04499
C	-0.02054632	-1.9276907301	 1.9096010088	-0.168003
N	-1.3303641302	-1.8571775016	 1.1758124327	-0.152125
C	-0.6193205782	-2.2695784317	-0.0793263616	-0.059747
C	-1.1596588332	-0.8997303281	 0.023026102	-0.112882
H	 0.861004069	 1.7039259382	-0.2194800741	 0.226842
H	 1.6045136403	-2.670018289	 0.4535442626	 0.103512
H	-0.001889429	-2.8629401089	 2.4736621454	 0.124066
H	 0.207140889	-1.0814395034	 2.5649161857	 0.122843
H	-0.9472660265	-3.0650828521	-0.7362781954	 0.111316
H	-2.0956530059	-0.5946816455	-0.4232041165	 0.129025
156.6166	352.1398	423.5849	448.9593	628.3034	668.1439	691.8893	772.9199	802.9489	857.084	884.5495	893.2218	901.2227	917.8317	966.8015	997.7213	1025.8663	1053.4272	1083.5079	1107.4489	1176.9948	1186.4597	1228.9066	1250.647	1280.3236	1313.7426	1347.5585	1373.0956	1491.7463	1780.2111	3056.1757	3121.4419	3151.8745	3198.0345	3229.6586	3473.3414
N=C1OC2CN3C2C13	[NH][C]1O[C@H]2CN3[C@H]2[C@H]13	
InChI=1S/C5H6N2O/c6-5-4-3-2(8-5)1-7(3)4/h2-4,6H,1H2	InChI=1S/C5H6N2O/c6-5-4-3-2(8-5)1-7(3)4/h2-4,6H,1H2/t2-,3+,4+,7?/m0/s1
