19
gdb 68221	3.58072	1.31824	1.23337	2.3101	74.9	-0.2577	0.0731	0.3308	1069.4295	0.160021	-422.995062	-422.987589	-422.986645	-423.026542	30.953	
O	-0.0939178	 1.3749913296	 0.064487202	-0.480839
C	 0.0330066592	-0.0082054544	 0.0276397527	 0.411555
C	 0.9484699379	-0.7739108084	-0.9813924324	-0.296442
C	 0.7198027504	-1.9379267331	 0.0290224137	-0.106745
C	 0.7198447717	-0.853805332	 1.1475609021	-0.296817
C	-0.7756681364	-2.1752715323	-0.1381432912	 0.509346
C	-1.3907361839	-3.3427201301	-0.766669804	-0.2891
O	-1.4158486473	-3.1651298321	 0.6591407199	-0.296215
C	-1.3138386097	-0.7335977464	-0.1496026259	-0.341881
H	 0.7804109173	 1.7576700434	 0.1909160128	 0.278842
H	 0.5996430732	-0.8966151805	-2.0106634358	 0.096196
H	 1.9809853106	-0.4135618596	-0.967426037	 0.091118
H	 1.3659939662	-2.8125829458	 0.0685623707	 0.071529
H	 1.7278418139	-0.4976514803	 1.378588289	 0.088313
H	 0.1621986463	-1.0568340122	 2.0651360433	 0.109995
H	-2.3554172744	-3.2473710571	-1.2641840605	 0.112978
H	-0.7672215549	-4.1628245137	-1.122460677	 0.110679
H	-1.9978954305	-0.5526231975	 0.6834644324	 0.119988
H	-1.8103453796	-0.4550012077	-1.0832396948	 0.1075
121.1952	259.7935	273.0806	303.0909	377.1494	408.9166	439.6845	448.4572	521.7119	530.6469	653.6611	735.8535	826.8422	830.7984	848.2195	896.6279	914.342	940.8402	953.9031	971.8846	1002.4728	1030.0469	1061.9643	1098.2844	1120.8213	1127.919	1136.4566	1152.0325	1183.4094	1200.2673	1224.1424	1236.1822	1239.8044	1277.6528	1330.9189	1395.6811	1440.7173	1480.9065	1487.0318	1521.6026	1540.6343	3048.2145	3056.1394	3061.9046	3074.8414	3109.8571	3112.9897	3119.2213	3138.734	3159.7515	3813.8283
OC12CC(C1)C1(CO1)C2	O[C@@]12C[C@@H](C1)[C@]1(CO1)C2	
InChI=1S/C7H10O2/c8-6-1-5(2-6)7(3-6)4-9-7/h5,8H,1-4H2	InChI=1S/C7H10O2/c8-6-1-5(2-6)7(3-6)4-9-7/h5,8H,1-4H2/t5-,6-,7-/m1/s1
