17
gdb 65700	4.12946	0.92035	0.84991	4.5747	74.68	-0.2704	-0.0547	0.2156	1340.5975	0.133868	-418.003265	-417.99383	-417.992885	-418.038303	33.128	
C	-0.0529806189	 1.7185195163	 0.2315780673	-0.451539
C	-0.0861518304	 0.2128583243	 0.0794280696	 0.314434
C	-1.3857508062	-0.3693268084	-0.4897938822	-0.360294
C	-1.3940450639	-0.2485876061	-2.0066035844	 0.156202
O	-0.7570658177	-0.9911537605	-2.7112363487	-0.234064
N	 1.170061152	-0.4054797671	-0.3390092192	-0.329247
C	 0.679719911	-0.6710008278	 1.0279071587	-0.248407
C	 1.4577231669	-0.1312584583	 2.1169667905	 0.3302
N	 2.0491775737	 0.3031472899	 3.0104343184	-0.335153
H	 0.9130974581	 2.0449523972	 0.6199212601	 0.159046
H	-0.208222967	 2.2038396101	-0.7380288708	 0.128051
H	-0.8382491975	 2.0586623151	 0.9142835851	 0.129251
H	-1.4522120435	-1.4361495621	-0.2543570789	 0.133392
H	-2.250405443	 0.1404008963	-0.0538756362	 0.122233
H	-1.9993434072	 0.5743791656	-2.4429627453	 0.09899
H	 0.9986708247	-1.2064017879	-0.9445162431	 0.256539
H	 0.247215329	-1.6438531767	 1.2464715391	 0.130367
57.4817	69.7459	121.6585	140.5594	195.6578	220.6119	323.7087	341.1549	395.8862	413.2974	530.4038	573.1727	605.6031	705.9742	818.6218	883.6093	902.7092	945.6403	979.5602	987.1775	1007.7921	1078.5761	1093.5377	1123.149	1201.7518	1206.2458	1263.2794	1316.6954	1364.2741	1419.4133	1423.743	1436.1657	1469.5851	1487.852	1493.3102	1818.015	2358.5576	2904.4487	3039.4326	3049.9023	3102.9833	3106.5038	3142.4893	3145.2282	3496.1124
CC1(CC=O)NC1C#N	C[C@@]1(CC=O)N[C@H]1C#N	
InChI=1S/C6H8N2O/c1-6(2-3-9)5(4-7)8-6/h3,5,8H,2H2,1H3	InChI=1S/C6H8N2O/c1-6(2-3-9)5(4-7)8-6/h3,5,8H,2H2,1H3/t5-,6-/m0/s1
