23
gdb 121008	3.8049	0.80281	0.76014	1.0663	89.07	-0.2239	0.0361	0.26	1639.4531	0.20518	-388.303389	-388.293424	-388.292479	-388.338825	36.411	
C	-0.0534396161	 1.3671685822	 0.0713343543	-0.227411
O	-0.0480162661	-0.0374504495	 0.0117529149	-0.230202
C	 0.7046644585	-0.5410842095	-1.0711938236	-0.055953
C	 0.6144445844	-2.0651953652	-1.0809201139	-0.008589
C	-0.8470641257	-2.5437597675	-1.3146404529	-0.258442
C	-0.8551825785	-2.9574777994	-2.7640483104	-0.162385
C	 0.3674051356	-3.0207792926	-3.2950543942	 0.34646
C	 0.7388130299	-3.4329955073	-4.6844828515	-0.492604
C	 1.4222987695	-2.6453147923	-2.2735116615	-0.325588
H	 0.9615327473	 1.7763693689	 0.2015005732	 0.101044
H	-0.4858647955	 1.8145361778	-0.8381909568	 0.10188
H	-0.6623494796	 1.6581269927	 0.9310846025	 0.124777
H	 0.3230039028	-0.1358204341	-2.0256665664	 0.085168
H	 1.7583900332	-0.2245818291	-0.981468615	 0.081236
H	 0.9987904835	-2.4229966313	-0.1217423689	 0.075202
H	-1.1033831337	-3.3897488412	-0.6619559882	 0.098498
H	-1.5666499828	-1.752473718	-1.0787638467	 0.111522
H	-1.7685744377	-3.2042109757	-3.2964867876	 0.078622
H	-0.1421242341	-3.6833420796	-5.2820089072	 0.121242
H	 1.288024025	-2.6367631187	-5.2037504078	 0.120966
H	 1.4018118647	-4.3082261083	-4.6748333104	 0.122211
H	 2.1486431677	-1.9234111384	-2.6726889761	 0.092022
H	 2.0094919577	-3.5269502737	-1.9803826456	 0.100323
48.4881	92.8385	116.8309	160.8333	195.399	231.8091	241.1906	298.973	328.8805	398.9798	434.8254	479.1673	614.6209	735.1097	806.8939	848.0618	877.137	913.3266	934.3475	951.4626	998.2152	1021.514	1033.457	1044.3074	1093.0942	1108.5267	1159.2157	1173.03	1179.0108	1188.3794	1216.1411	1238.0333	1255.5704	1285.4298	1290.2551	1326.9135	1344.3008	1370.4038	1413.8751	1418.7108	1479.3724	1479.4499	1485.0701	1485.6223	1490.4308	1498.8828	1503.1661	1526.5425	1726.6508	2938.6409	2966.7117	2969.3795	3001.0163	3007.7177	3009.5763	3013.4274	3024.6252	3056.4186	3065.0104	3071.7917	3107.6951	3110.2502	3178.4941
COCC1CC=C(C)C1	COC[C@H]1CC=C(C)C1	
InChI=1S/C8H14O/c1-7-3-4-8(5-7)6-9-2/h3,8H,4-6H2,1-2H3	InChI=1S/C8H14O/c1-7-3-4-8(5-7)6-9-2/h3,8H,4-6H2,1-2H3/t8-/m0/s1
