23
gdb 118992	2.67067	1.00406	0.93326	0.924	81.62	-0.2411	0.0772	0.3182	1414.2417	0.205272	-425.43571	-425.425657	-425.424713	-425.471192	37.227	
C	 0.0200763182	 1.740025651	 0.016423197	-0.431323
C	 0.0329123406	 0.2090902745	-0.0357976159	 0.390395
C	-1.3864507429	-0.3884055831	-0.0663986023	-0.195349
C	-2.1954912312	-0.1872368987	 1.2097172918	-0.085686
O	-3.4312794658	-0.8718684667	 1.0347271182	-0.425641
C	 0.8780317258	-0.3243018547	-1.2219455016	-0.27178
C	 1.6527460866	-1.5008778995	-0.6116876079	-0.221729
C	 1.8741981333	-0.9994730993	 0.8156035752	-0.067223
O	 0.6963530966	-0.2799926584	 1.1545383651	-0.30355
H	 1.0439685989	 2.1229224801	 0.0604638912	 0.112516
H	-0.4639467086	 2.1563755517	-0.8736087835	 0.112042
H	-0.5121881001	 2.104784196	 0.8985794197	 0.122416
H	-1.9406428215	 0.0367714758	-0.911925823	 0.097988
H	-1.3146546256	-1.4677513643	-0.2446469944	 0.099349
H	-1.6289281782	-0.5852421535	 2.061845538	 0.104636
H	-2.3675088768	 0.8844104941	 1.3949363541	 0.080539
H	-3.9301858943	-0.7958358053	 1.8530528751	 0.283089
H	 0.2552231078	-0.6100132633	-2.0729516025	 0.104464
H	 1.5748906768	 0.4480506055	-1.5652957559	 0.096841
H	 1.0414492278	-2.4090901724	-0.603909413	 0.109733
H	 2.5843656943	-1.7245713527	-1.1375247808	 0.099544
H	 2.0103876159	-1.8000120559	 1.549808508	 0.103175
H	 2.7579282624	-0.342021821	 0.8645107576	 0.085556
51.3646	79.1033	108.5732	159.2053	221.463	242.6081	264.0581	332.4888	335.8966	347.025	422.65	495.7463	592.3088	652.6181	768.9389	795.1911	862.1136	887.8926	915.1473	934.1627	941.5569	987.4204	1014.4288	1019.989	1061.3527	1068.5274	1089.8733	1147.9095	1178.1098	1197.2494	1211.3933	1237.1257	1249.6566	1265.8947	1282.3905	1319.9088	1331.0045	1349.7569	1355.3122	1390.4996	1407.7945	1456.2114	1476.9279	1488.9721	1490.9732	1495.5313	1502.6373	1528.776	1531.7406	2965.9432	2977.5762	3028.958	3032.3854	3037.3402	3046.861	3052.363	3071.8108	3076.4405	3100.4402	3106.1439	3110.6932	3119.6986	3829.9193
CC1(CCO)CCCO1	C[C@@]1(CCO)CCCO1	
InChI=1S/C7H14O2/c1-7(4-5-8)3-2-6-9-7/h8H,2-6H2,1H3	InChI=1S/C7H14O2/c1-7(4-5-8)3-2-6-9-7/h8H,2-6H2,1H3/t7-/m0/s1
