17
gdb 86375	2.16809	1.33911	0.92524	2.3105	65.86	-0.266	-0.0089	0.257	1241.2638	0.134101	-496.098933	-496.089845	-496.088901	-496.134586	32.687	
O	 0.5940749466	 0.709560301	-0.9138721471	-0.430756
C	 0.1992748915	-0.2575375438	 0.011868118	 0.147822
C	 0.0421334057	 0.1047010037	 1.5179612722	-0.325994
C	-1.2214466114	-0.8055806657	 1.5553429642	 0.149351
O	-2.3490635509	-0.4256629822	 2.2835329192	-0.430603
C	-1.2902488723	-0.7151951858	 0.0018349963	 0.012889
O	-2.1114976242	 0.4102211835	-0.3395051319	-0.226159
C	-2.9661619483	 0.3059607459	-1.3848273045	 0.17575
O	-3.656453077	 1.212238295	-1.7339445018	-0.265547
H	-0.05110913	 1.4258342393	-0.8778291344	 0.291733
H	 0.8617759328	-1.1159173675	-0.1285203398	 0.10322
H	 0.8663898646	-0.1235914392	 2.1952497099	 0.112871
H	-0.2382571291	 1.1565905518	 1.6357875687	 0.109425
H	-0.9715755672	-1.8238442622	 1.8657953112	 0.102794
H	-2.6886716226	 0.3843895232	 1.8840926861	 0.292185
H	-1.5873702144	-1.5908022109	-0.582511832	 0.086
H	-2.9433787338	-0.6946750563	-1.8533626643	 0.095018
13.2583	101.4232	133.1471	171.6748	249.1836	285.0422	372.6167	382.4315	424.9261	435.4889	480.9193	606.0957	630.7657	700.0948	767.9576	881.9336	916.2465	981.0372	1041.8207	1053.0078	1057.2289	1092.3794	1118.8774	1166.7641	1173.0467	1184.4022	1234.6598	1256.6291	1289.3104	1322.1226	1337.5238	1359.5654	1429.6144	1430.3978	1453.9257	1479.6184	1870.5282	2978.2736	3058.4485	3064.9338	3077.1266	3085.7091	3130.1092	3789.771	3793.3792
OC1CC(O)C1OC=O	O[C@H]1C[C@@H](O)[C@H]1OC=O	
InChI=1S/C5H8O4/c6-2-9-5-3(7)1-4(5)8/h2-5,7-8H,1H2	InChI=1S/C5H8O4/c6-2-9-5-3(7)1-4(5)8/h2-5,7-8H,1H2/t3-,4+,5-
