17
gdb 88309	4.31469	0.85174	0.80317	4.7066	75.89	-0.2475	-0.0483	0.1992	1432.6899	0.134112	-418.000818	-417.991536	-417.990592	-418.035882	32.719	
C	-0.7189986126	 1.135783847	 0.1917944957	-0.330558
N	 0.0086994304	-0.1307862732	 0.1256055699	-0.076534
C	 1.3127488032	-0.1508786666	-0.4807292953	-0.233436
C	 1.1733302364	-0.3748064913	 1.0010053364	-0.110962
C	 1.7051849931	 0.6755189699	 1.9217523564	 0.389943
O	 1.8236912135	 1.8413201522	 1.6286561061	-0.295802
C	 2.0823422231	 0.1439833703	 3.3191268765	-0.471675
C	 2.6467048012	 1.1574967919	 4.1997421617	 0.288419
N	 3.0971783375	 1.9446402765	 4.9138661526	-0.292856
H	-0.0830794363	 2.0156279803	 0.3374607919	 0.150636
H	-1.2714003519	 1.2421133769	-0.7463912536	 0.131841
H	-1.4453751754	 1.0828379674	 1.0082551581	 0.126299
H	 1.5396696704	-1.0038648675	-1.1151387705	 0.127763
H	 1.7644870377	 0.7960019729	-0.7716136495	 0.140772
H	 1.2117607316	-1.3908807509	 1.3872349888	 0.098479
H	 1.1870008763	-0.2920053294	 3.780612624	 0.180645
H	 2.7923052818	-0.6848756364	 3.2039606507	 0.177026
37.5632	76.157	121.2681	182.4126	236.4726	247.8376	306.636	372.7582	385.9533	398.5894	441.3501	584.5107	706.722	733.2659	829.3105	870.3022	942.4977	952.1285	1005.9001	1029.1156	1061.0605	1099.1708	1128.3295	1140.0774	1168.7852	1211.8387	1217.7469	1316.7307	1334.3519	1401.2549	1435.6303	1446.5277	1487.033	1497.2194	1509.7377	1802.9597	2376.4122	3030.6647	3036.1527	3070.3178	3096.7073	3104.4704	3112.3294	3131.8472	3190.4633
CN1CC1C(=O)CC#N	CN1C[C@H]1C(=O)CC#N	
InChI=1S/C6H8N2O/c1-8-4-5(8)6(9)2-3-7/h5H,2,4H2,1H3	InChI=1S/C6H8N2O/c1-8-4-5(8)6(9)2-3-7/h5H,2,4H2,1H3/t5-,8?/m0/s1
