18
gdb 86129	2.38547	1.52784	0.9899	4.4923	73.24	-0.2317	-0.0913	0.1404	1197.6147	0.146032	-439.115524	-439.106365	-439.105421	-439.149568	33.408	
C	-0.1651810887	 1.652895297	 0.1163543546	-0.39579
C	 0.1135870292	 0.1590215026	 0.0053901017	-0.076501
N	 1.135464436	-0.1729636148	-0.9974859619	-0.336586
C	 1.6830056114	-1.508149648	-0.7187618063	-0.076502
C	 3.0416865197	-1.7536576438	-1.3632848842	-0.395789
C	 1.7153809114	-1.5297483273	 0.8044636189	 0.329468
O	 2.3706508001	-2.2338548504	 1.5220225157	-0.283812
C	 0.6990944124	-0.450113405	 1.2734115104	 0.329465
O	 0.4385801749	-0.181321232	 2.4135493166	-0.283807
H	 0.768484901	 2.2001648327	 0.2695637281	 0.133598
H	-0.6418843484	 2.0309842824	-0.7929704185	 0.115688
H	-0.8295563256	 1.8437488773	 0.963229748	 0.140008
H	-0.8429752442	-0.3772722868	-0.1665433748	 0.091566
H	 0.7832675927	-0.0934763774	-1.9437885791	 0.228134
H	 0.9891661713	-2.3235080727	-1.0119381342	 0.091567
H	 3.7347596022	-0.9508177251	-1.0990730509	 0.133598
H	 3.4518179806	-2.7041998779	-1.0121706778	 0.140008
H	 2.9569014239	-1.7918768608	-2.4534313862	 0.115689
65.7624	105.1583	192.4475	196.2357	216.2563	240.4597	310.7719	315.3847	410.5851	470.8585	516.9589	520.7585	587.903	693.1956	772.2949	791.6654	918.4872	928.7285	999.9681	1001.2851	1047.2064	1065.61	1121.863	1139.2783	1153.2181	1185.711	1235.5527	1325.5453	1346.6162	1373.5519	1400.9176	1404.5292	1441.3543	1486.3439	1491.3898	1497.7547	1498.8803	1850.3531	1870.3687	2880.9392	2887.3573	3045.8802	3046.2045	3118.2812	3118.3855	3132.8763	3132.9122	3546.55
CC1NC(C)C(=O)C1=O	C[C@H]1N[C@@H](C)C(=O)C1=O	
InChI=1S/C6H9NO2/c1-3-5(8)6(9)4(2)7-3/h3-4,7H,1-2H3	InChI=1S/C6H9NO2/c1-3-5(8)6(9)4(2)7-3/h3-4,7H,1-2H3/t3-,4+
