16
gdb 24647	4.4688	1.24686	1.01761	1.7847	80.74	-0.2288	-0.0407	0.1881	1135.6923	0.127098	-396.947554	-396.940441	-396.939497	-396.979694	26.799	
C	-0.1486685541	 1.2521493959	-0.3728748569	-0.233415
C	 1.2734043468	 1.0074282238	 0.0168785412	-0.212753
N	 0.2853519108	-0.0461828143	 0.1330709901	-0.117516
C	-0.114239308	-0.5151490856	 1.3840531112	 0.330492
C	-1.4619170235	-0.8569764528	 1.6127806584	-0.055279
N	-1.8712675143	-1.3707636469	 2.7626611889	-0.227447
C	-0.9347780614	-1.5600422751	 3.7030275303	-0.026088
C	 0.3923470862	-1.2226066028	 3.4787503874	-0.016336
N	 0.8122491413	-0.6934727337	 2.3250293176	-0.300653
H	-0.7490135303	 1.8735966197	 0.2878930835	 0.127885
H	-0.4388004623	 1.2763864597	-1.4190404481	 0.128418
H	 2.0289777986	 0.8581627651	-0.7484574404	 0.1274
H	 1.6319938951	 1.4514285288	 0.9410350838	 0.136716
H	-2.204041139	-0.7033640136	 0.8332744218	 0.113335
H	-1.2574823522	-1.9858087026	 4.6482287719	 0.112048
H	 1.1452716062	-1.3739603555	 4.2484631293	 0.113194
63.8769	133.8653	201.5273	276.8937	432.0746	466.8524	524.5724	577.1727	632.1322	776.95	789.725	815.3784	871.972	939.9511	942.3026	954.7158	982.1838	1020.979	1038.3507	1081.8609	1122.2645	1131.3872	1167.8269	1171.0221	1200.9951	1218.4316	1257.2474	1323.5764	1387.8244	1449.9403	1494.5821	1507.3477	1520.4061	1573.3046	1613.8676	3106.9968	3120.0122	3154.818	3158.3635	3181.2996	3193.9722	3210.8559
C1CN1C1=CN=CC=N1	C1CN1c1cnccn1	
InChI=1S/C6H7N3/c1-2-8-6(5-7-1)9-3-4-9/h1-2,5H,3-4H2	InChI=1S/C6H7N3/c1-2-8-6(5-7-1)9-3-4-9/h1-2,5H,3-4H2
