22
gdb 102815	2.29193	1.03843	0.76337	3.1281	83.86	-0.2412	-0.022	0.2193	1522.3088	0.191593	-404.327804	-404.317504	-404.31656	-404.364219	36.778	
C	-0.0746129881	 1.8583297952	-0.1867439939	-0.394687
C	 0.104326144	 0.3426740739	-0.06688587	-0.170001
C	-1.1973023402	-0.4657032289	 0.0511177786	 0.030256
C	-0.8998350559	-1.9782203347	 0.0229205597	-0.277561
C	-0.4349576304	-2.4541940917	-1.3330239904	 0.159226
O	 0.5707885961	-3.0816458378	-1.5437138395	-0.241299
N	-1.8875028877	-0.1527685236	 1.3038854128	-0.061475
C	-2.8704567546	 0.9264854562	 1.2807855248	-0.22127
C	-3.305991826	-0.4920436251	 1.3720167426	-0.229869
H	 0.8932159746	 2.3462933925	-0.3372613198	 0.116687
H	-0.7117127879	 2.1207826549	-1.0391581906	 0.109823
H	-0.5228603173	 2.2853711174	 0.7140051028	 0.13046
H	 0.6547230947	-0.0246585083	-0.9420604179	 0.106646
H	 0.724077999	 0.1104210594	 0.8073034205	 0.112553
H	-1.844091458	-0.2259325406	-0.8176412116	 0.054481
H	-0.1565696757	-2.2471687919	 0.7780102483	 0.128268
H	-1.8287554272	-2.5202463604	 0.2498302775	 0.118147
H	-1.1216736834	-2.1823652335	-2.1709388191	 0.068175
H	-2.8869001836	 1.5711651409	 2.1548870053	 0.119871
H	-3.0510606233	 1.4359014688	 0.3358274816	 0.114074
H	-3.7745701866	-0.9183901116	 0.4854183908	 0.107548
H	-3.6497364125	-0.910998111	 2.3131734176	 0.119948
47.2016	66.1531	89.6408	118.8739	175.7142	211.8716	242.3192	274.1607	334.9496	392.4826	432.6104	475.2281	564.4477	713.8785	784.3357	798.871	863.8019	886.4883	909.7893	991.5693	1003.2903	1013.7827	1032.9558	1051.1492	1104.2971	1111.7958	1121.5816	1132.1947	1149.241	1177.0534	1189.7108	1219.8838	1278.84	1302.0878	1318.2403	1344.1116	1385.2493	1395.0203	1412.4783	1431.6055	1461.2718	1476.1269	1489.6247	1500.4635	1508.1756	1518.6874	1834.4769	2838.774	2888.7422	3020.4745	3028.9062	3035.209	3066.762	3089.8645	3098.4496	3100.2877	3107.3257	3119.66	3176.3683	3190.8288
CCC(CC=O)N1CC1	CC[C@@H](CC=O)N1CC1	
InChI=1S/C7H13NO/c1-2-7(3-6-9)8-4-5-8/h6-7H,2-5H2,1H3	InChI=1S/C7H13NO/c1-2-7(3-6-9)8-4-5-8/h6-7H,2-5H2,1H3/t7-/m0/s1
