19
gdb 82766	2.82614	1.87371	1.50176	1.1949	72.95	-0.2308	0.0828	0.3136	941.5378	0.162025	-423.00431	-422.997514	-422.99657	-423.035148	28.25	
C	 0.0634858134	 1.5894145953	-0.0042841665	-0.425728
C	 0.0291456934	 0.0640904083	-0.0143313967	 0.018498
C	 0.921439038	-0.5753475954	-1.1057055225	 0.044661
O	 2.2503297059	-0.1520092215	-0.6660778388	-0.297964
C	 2.0362750835	-1.1013798336	 0.4029642489	 0.071208
C	 1.2217556119	-2.0088189634	-0.5435120079	-0.067784
C	 0.155815953	-2.6810837578	 0.3098264688	-0.117945
O	 0.0797868603	-1.8617965073	 1.49232311	-0.273925
C	 0.7522045708	-0.6467394665	 1.1731210568	 0.062641
H	 1.0932412114	 1.9526219877	 0.0279494575	 0.136998
H	-0.4133677361	 2.0000702287	-0.9013131378	 0.111349
H	-0.4714621569	 1.9833575141	 0.8659688748	 0.114465
H	-1.0049613844	-0.291718776	-0.0617468504	 0.080526
H	 0.7170534101	-0.3709847597	-2.1572597123	 0.077668
H	 2.9279751624	-1.3915531235	 0.9558928068	 0.086698
H	 1.7957241944	-2.6394726541	-1.2197493164	 0.088921
H	-0.8240343496	-2.7375087643	-0.1842111847	 0.100896
H	 0.443618337	-3.6955866853	 0.6074118886	 0.109848
H	 0.8744435516	-0.0680412157	 2.0878814819	 0.078968
194.9455	215.7558	266.7133	296.0878	384.2245	456.6615	547.5993	612.0638	716.774	739.977	792.2582	844.8166	857.1631	872.6509	915.1392	930.1099	949.6564	971.3083	998.6762	1032.9153	1036.9108	1048.0712	1075.8532	1106.4941	1122.557	1153.9159	1188.3279	1200.4564	1232.7148	1241.6944	1264.2519	1290.3339	1295.0135	1318.9721	1339.5453	1374.864	1390.7497	1405.8824	1495.3556	1509.2555	1524.0209	3006.4244	3034.3422	3057.0082	3060.7073	3094.8801	3115.7245	3127.2397	3129.1669	3137.3373	3147.0184
CC1C2OC3C2COC13	C[C@H]1[C@H]2O[C@@H]3[C@H]2CO[C@H]13	
InChI=1S/C7H10O2/c1-3-5-4-2-8-6(3)7(4)9-5/h3-7H,2H2,1H3	InChI=1S/C7H10O2/c1-3-5-4-2-8-6(3)7(4)9-5/h3-7H,2H2,1H3/t3-,4-,5+,6+,7+/m0/s1
