16
gdb 19943	3.55017	1.8441	1.45133	2.8089	64.94	-0.2427	0.0155	0.2582	876.256	0.132279	-379.886891	-379.879732	-379.878787	-379.91871	26.41	
N	-0.5930552251	 0.7696361065	-1.031304611	-0.549004
C	-0.2933697519	-0.2041553304	-0.2973846838	 0.436687
O	 0.7819186377	-0.4152932481	 0.5319974625	-0.250712
C	 0.2333474376	-1.6976814245	 0.9832161352	-0.098033
C	-0.9724611897	-1.5201317599	 0.0265555058	-0.16424
C	-2.3687915359	-1.4546108965	 0.6031380921	-0.005327
C	-2.8482948217	-0.261247982	 1.3454314375	-0.242805
N	-3.371700909	-0.5654635593	 0.0029375674	-0.323253
H	 0.1038688709	 1.514451516	-0.9824367341	 0.232484
H	 0.9234713311	-2.5148259725	 0.7637730549	 0.125067
H	-0.0012403418	-1.6618099603	 2.0493539607	 0.128064
H	-0.9466269145	-2.2116811198	-0.821258026	 0.117923
H	-2.7673597898	-2.4267793615	 0.889110857	 0.095902
H	-3.5589536761	-0.3824139658	 2.1580796182	 0.117006
H	-2.1741512467	 0.5843572948	 1.4519701145	 0.122376
H	-2.911194045	 0.0474562532	-0.6705071507	 0.257865
84.8824	124.765	160.6936	245.456	388.4783	439.1269	470.1638	679.82	728.0035	771.8669	849.31	865.1104	893.0265	928.8635	952.7398	974.0762	999.0483	1035.1668	1055.6822	1084.6359	1120.7255	1157.4299	1161.7061	1203.9029	1232.4251	1263.6583	1280.6853	1319.2438	1332.3944	1373.7914	1417.173	1507.1882	1514.2041	1813.9109	3065.6814	3069.8643	3109.973	3115.7289	3132.4869	3195.5362	3465.9398	3479.043
N=C1OCC1C1CN1	[NH][C]1OC[C@H]1[C@H]1CN1	
InChI=1S/C5H8N2O/c6-5-3(2-8-5)4-1-7-4/h3-4,6-7H,1-2H2	InChI=1S/C5H8N2O/c6-5-3(2-8-5)4-1-7-4/h3-4,6-7H,1-2H2/t3-,4+/m0/s1
