21
gdb 69499	3.05897	1.50311	1.24595	1.2872	81.54	-0.2329	0.0834	0.3164	1098.3032	0.183458	-383.239663	-383.231258	-383.230314	-383.271965	33.564	
C	-0.050385963	 1.5147399083	 0.0263608379	-0.471458
C	-0.0398477311	 0.0102824035	 0.1140074588	 0.345957
C	-1.2889909806	-0.7768129382	-0.2926691896	-0.251262
N	-1.3179259774	-2.0321128876	 0.4932180687	-0.135166
C	-1.5281840407	-1.7921007463	 1.9315585138	-0.286
C	-0.1536480655	-2.0290262821	 1.4203139249	 0.314162
C	 0.567938278	-3.3336060552	 1.6600716986	-0.471509
C	 0.6506481923	-0.7831600582	 1.1659034224	-0.144249
N	 1.2435648144	-0.6576058806	-0.1800706973	-0.383958
H	 0.9124199877	 1.9240245035	 0.3414031527	 0.131206
H	-0.2307114182	 1.8434040047	-1.0038120535	 0.121482
H	-0.8383381703	 1.9420538705	 0.6565249716	 0.113374
H	-2.2027663359	-0.1980221705	-0.113428403	 0.105329
H	-1.2694895491	-1.0286430637	-1.3610285544	 0.105596
H	-1.7928459189	-0.7852601732	 2.2500848417	 0.107231
H	-2.0554327952	-2.5868980172	 2.4527477192	 0.113297
H	-0.139968835	-4.1655653919	 1.6869795862	 0.12921
H	 1.2988712401	-3.5340796322	 0.869111411	 0.119782
H	 1.1071223675	-3.3074661615	 2.6135747402	 0.119888
H	 1.2247419573	-0.3348633324	 1.9728010731	 0.088051
H	 1.0883584236	-1.5124086998	-0.713182033	 0.229038
145.6449	179.6295	198.9912	205.0657	264.8844	347.6409	373.6671	394.4402	447.1288	502.1945	565.9772	611.0727	739.3273	772.302	787.6203	838.1529	889.5956	916.8716	937.589	975.7276	987.4044	1021.6909	1046.1738	1057.5681	1102.8993	1106.3072	1116.8691	1139.2821	1162.7243	1188.8984	1231.6896	1255.8711	1296.2805	1325.5099	1354.3039	1360.4811	1409.8918	1415.7892	1442.8868	1486.1663	1487.5041	1492.9768	1494.6001	1500.5887	1509.6746	3016.4072	3029.4492	3032.3372	3056.8879	3087.9501	3092.8584	3093.3941	3121.8848	3122.5442	3140.3558	3180.6357	3466.5028
CC12CN3CC3(C)C1N2	C[C@]12CN3C[C@]3(C)[C@H]1N2	
InChI=1S/C7H12N2/c1-6-3-9-4-7(9,2)5(6)8-6/h5,8H,3-4H2,1-2H3	InChI=1S/C7H12N2/c1-6-3-9-4-7(9,2)5(6)8-6/h5,8H,3-4H2,1-2H3/t5-,6-,7+,9?/m0/s1
