14
gdb 42757	2.90534	1.35105	1.12882	5.9825	66.61	-0.272	-0.026	0.2461	1069.2111	0.099463	-436.636588	-436.628767	-436.627822	-436.66974	28.283	
O	-0.0641946018	-0.0721888975	-0.0165473029	-0.293806
C	-0.0438127766	 1.1073981185	 0.0686764842	 0.450684
C	-0.9378576471	 2.3762164699	 0.0712996626	-0.070369
C	-0.0043098559	 2.9728681846	 1.1523132247	-0.278286
C	 0.9222308285	 2.3373548006	 0.0835550228	 0.27869
C	 2.4073447075	 2.4891175009	-0.1072428146	-0.479804
C	 2.901841696	 1.8190872123	-1.3099297556	 0.277813
N	 3.3068917504	 1.2975296313	-2.2568276543	-0.294854
O	 0.0106947872	 2.8793129685	-0.9598651014	-0.318916
H	-1.99914395	 2.5303860586	-0.1015475359	 0.129188
H	 0.0145939262	 4.0639070639	 1.1368071498	 0.129879
H	-0.0194039414	 2.5500681248	 2.1600276051	 0.123261
H	 2.6649289025	 3.5531931043	-0.160412606	 0.173025
H	 2.9193285946	 2.0758472392	 0.7695212517	 0.173496
52.4597	101.1616	184.3599	208.7534	313.1735	378.427	438.9288	496.1912	523.2065	649.0422	701.7816	786.3147	810.924	836.6455	885.4091	937.6888	957.4593	963.4336	1006.8421	1037.189	1111.2087	1170.1027	1199.8995	1209.6024	1255.1251	1305.581	1372.8156	1445.2558	1475.6316	1946.1294	2374.0181	3044.827	3067.2115	3085.4806	3151.5054	3175.6383
O=C1C2CC1(CC#N)O2	O=C1[C@H]2C[C@]1(CC#N)O2	
InChI=1S/C6H5NO2/c7-2-1-6-3-4(9-6)5(6)8/h4H,1,3H2	InChI=1S/C6H5NO2/c7-2-1-6-3-4(9-6)5(6)8/h4H,1,3H2/t4-,6+/m1/s1
