13
gdb 43262	3.21011	1.52977	1.16149	0.4131	66.5	-0.2727	-0.1105	0.1621	986.2364	0.089408	-456.581715	-456.574784	-456.573839	-456.613356	25.969	
O	 0.0342296151	 0.0246945584	 0.4722297335	-0.311382
C	-0.0080959665	 1.187397092	 0.1330004637	 0.406966
C	-1.2925737283	 1.9061532976	-0.0691055322	-0.156717
C	-1.3765722411	 3.0428758925	-0.7756518874	-0.156742
C	-0.1918543743	 3.6737766794	-1.4126309272	 0.406947
O	-0.2957516069	 4.4896739524	-2.3027219156	-0.311391
C	 1.15697653	 3.2318941263	-0.9083483355	-0.094726
O	 1.3051242607	 3.2496273137	 0.5107697056	-0.227225
C	 1.2499255536	 1.9741183065	-0.126549026	-0.094813
H	-2.1714173725	 1.4088434755	 0.329470445	 0.140653
H	-2.3276317783	 3.5228849784	-0.9845159609	 0.140651
H	 2.0103096732	 3.5879147626	-1.4809035601	 0.12889
H	 2.1721615052	 1.3977683347	-0.1196006229	 0.128889
84.1284	184.9362	286.1864	289.8921	404.5444	437.7315	481.6046	504.3276	615.9359	705.6094	749.3827	793.0992	857.8875	877.0434	917.7678	931.6913	1023.8585	1028.7977	1110.4561	1135.9847	1234.095	1240.7509	1306.6225	1333.292	1383.0787	1405.923	1661.8189	1785.9599	1786.4234	3149.1278	3158.398	3180.4969	3198.5786
O=C1C=CC(=O)C2OC12	O=C1C=CC(=O)[C@H]2O[C@@H]12	
InChI=1S/C6H4O3/c7-3-1-2-4(8)6-5(3)9-6/h1-2,5-6H	InChI=1S/C6H4O3/c7-3-1-2-4(8)6-5(3)9-6/h1-2,5-6H/t5-,6+
