17
gdb 9790	3.13331	1.76469	1.34342	2.8208	69.55	-0.2564	0.0411	0.2975	950.6588	0.140554	-363.79932	-363.790851	-363.789907	-363.831858	32.113	
C	-0.0704632278	 1.5338727556	-0.2482656662	-0.479408
C	-0.0144094746	 0.0370085341	-0.0468722263	 0.307167
C	 0.8262946367	-0.7902653696	-0.9470869487	-0.278399
N	 1.2128633049	-0.5901486043	 0.4663721032	-0.363028
C	-1.2739006833	-0.616424991	 0.5561502738	-0.095796
O	-1.0625990992	-1.993843537	 0.791092828	-0.418755
C	-1.6955596112	 0.0808425654	 1.7827661781	 0.324838
C	-2.029847973	 0.6407662445	 2.792795828	-0.468136
H	 0.8491713805	 1.8977633402	-0.7171786874	 0.112518
H	-0.9078443019	 1.8082377736	-0.899872595	 0.12816
H	-0.2078098172	 2.0529911936	 0.7045478365	 0.14208
H	 0.5271608483	-1.8045087771	-1.1884966933	 0.134028
H	 1.3961082085	-0.2754652211	-1.7159012626	 0.11245
H	 1.9633921394	 0.0891179056	 0.552736028	 0.23469
H	-2.0849639651	-0.5502416135	-0.1806624866	 0.115684
H	-0.1863314332	-2.0413306372	 1.2062182944	 0.294549
H	-2.3376071819	 1.1248939881	 3.686680466	 0.197357
75.3086	147.6061	214.0145	228.997	276.7591	334.9631	352.7767	382.8556	455.3838	537.7021	552.8668	607.1416	628.5468	660.5757	756.1571	849.625	875.7396	941.9596	970.8102	985.6497	997.2995	1053.3622	1086.3952	1123.3978	1152.857	1254.6769	1261.7589	1323.1886	1332.9914	1375.5803	1419.461	1442.6184	1484.3689	1499.2111	1507.3281	2229.0707	3028.9332	3033.5153	3097.4489	3114.9186	3118.8307	3212.3686	3501.2017	3514.5467	3695.4931
CC1(CN1)C(O)C#C	C[C@]1(CN1)[C@@H](O)C#C	
InChI=1S/C6H9NO/c1-3-5(8)6(2)4-7-6/h1,5,7-8H,4H2,2H3	InChI=1S/C6H9NO/c1-3-5(8)6(2)4-7-6/h1,5,7-8H,4H2,2H3/t5-,6-/m0/s1
