18
gdb 93361	3.27237	1.37936	1.08601	4.1651	72.12	-0.245	0.0076	0.2526	1119.9569	0.149267	-439.114671	-439.106665	-439.10572	-439.147136	30.755	
C	 0.1156442285	 1.5787715787	 0.032179324	-0.404154
C	 0.0015083307	 0.0496223276	 0.0068487556	-0.025858
C	 0.6372902703	-0.5280022252	-1.2692995715	-0.165088
N	 0.6754040835	-1.9831703146	-1.2393113133	-0.345062
C	 0.9923708304	-2.7379010391	-0.1473801693	 0.427073
O	 1.0885721202	-3.9509022873	-0.174812735	-0.37659
C	 1.1568497747	-1.960759124	 1.1355768914	-0.086854
O	 2.0523408046	-0.834326629	 1.1193481688	-0.250788
C	 0.6518196489	-0.5804946426	 1.2222820841	 0.054896
H	 1.1653051044	 1.889694429	 0.0475060923	 0.13541
H	-0.3589734691	 2.0254473034	-0.8472138376	 0.119271
H	-0.3708879099	 1.9931986729	 0.9203410028	 0.121626
H	-1.0599918656	-0.2335841871	 0.0260607138	 0.092691
H	 0.0512331303	-0.2201161646	-2.1398818928	 0.112444
H	 1.645602412	-0.1098760643	-1.3824494572	 0.125941
H	 0.6303599331	-2.4950501277	-2.1075606839	 0.25016
H	 1.225708301	-2.5926927694	 2.016780914	 0.11671
H	 0.3289601221	-0.2101104367	 2.1958440238	 0.098172
85.8994	181.0129	220.8722	240.5043	271.8922	324.797	413.4923	441.7757	503.0819	545.2032	595.0067	692.8821	749.7357	791.8246	853.8604	884.5854	899.5215	962.4779	968.536	1034.147	1081.5716	1108.3021	1123.08	1142.9356	1174.6367	1255.0542	1277.6959	1313.1769	1320.7834	1370.3237	1375.4561	1397.2958	1410.8698	1452.6605	1474.323	1496.5036	1501.8983	1516.0834	1795.6348	3014.3571	3025.8714	3036.8364	3084.5535	3106.5918	3108.1934	3111.2907	3162.1947	3621.3438
CC1CNC(=O)C2OC12	C[C@H]1CNC(=O)[C@H]2O[C@@H]12	
InChI=1S/C6H9NO2/c1-3-2-7-6(8)5-4(3)9-5/h3-5H,2H2,1H3,(H,7,8)	InChI=1S/C6H9NO2/c1-3-2-7-6(8)5-4(3)9-5/h3-5H,2H2,1H3,(H,7,8)/t3-,4-,5-/m0/s1
