20
gdb 81073	2.83681	1.41164	1.1637	1.4974	79.68	-0.2176	0.0782	0.2959	1128.2523	0.170557	-403.042755	-403.034485	-403.033541	-403.075882	31.968	
C	-0.1226190361	 1.4204395584	-0.3823865775	-0.336198
N	-0.0429206945	 0.0029119025	-0.0408146441	-0.136784
C	-1.0125438031	-0.5517794032	 0.9924020932	-0.021143
C	-0.0262666217	-1.7358114779	 1.134142172	-0.253268
C	 0.8036552139	-0.4196793584	 1.1606779533	 0.386684
C	-0.2526454285	 0.1590728612	 2.1492572852	-0.293311
C	 2.2857296613	-0.276149023	 1.1687338201	-0.098453
C	 2.9625404639	 0.8474971032	 1.8326860281	-0.177128
O	 2.9241759914	-0.4434550531	 2.4388514308	-0.229662
H	 0.7937710485	 1.7038525679	-0.9104060526	 0.120849
H	-0.9575277485	 1.5568108272	-1.0778621641	 0.122742
H	-0.2628255138	 2.1256392357	 0.4510127041	 0.095432
H	-2.0866352165	-0.5861616482	 0.8048953809	 0.08142
H	-0.0638606622	-2.3086721578	 2.0613562119	 0.101022
H	 0.1006947024	-2.350023561	 0.242342935	 0.10243
H	-0.3402647423	 1.2430651788	 2.2189021823	 0.099588
H	-0.3045442734	-0.2985475563	 3.1397623954	 0.105361
H	 2.796062264	-0.7666113306	 0.338373255	 0.098572
H	 3.9397299342	 1.1701444574	 1.4762051552	 0.117495
H	 2.3694116409	 1.6131683673	 2.3296627359	 0.114352
59.1289	142.1528	168.1857	189.6977	281.6848	341.6067	405.1073	461.6227	546.2582	601.6102	622.9518	748.9904	791.3267	815.9175	862.6574	890.4981	923.3439	934.447	954.5087	991.3257	1010.33	1069.9293	1083.0934	1095.1136	1129.4253	1140.3931	1155.6792	1158.275	1170.515	1175.7737	1185.006	1218.7502	1234.1348	1237.6665	1273.6372	1321.3149	1439.0271	1443.7996	1470.5878	1495.0086	1499.773	1524.5684	1534.3878	2982.036	3062.7693	3074.0481	3081.0867	3085.9514	3096.7685	3100.9014	3108.2395	3138.7088	3161.5681	3174.6943
CN1C2CC1(C2)C1CO1	CN1[C@H]2C[C@@]1(C2)[C@H]1CO1	
InChI=1S/C7H11NO/c1-8-5-2-7(8,3-5)6-4-9-6/h5-6H,2-4H2,1H3	InChI=1S/C7H11NO/c1-8-5-2-7(8,3-5)6-4-9-6/h5-6H,2-4H2,1H3/t5-,6-,7+/m1/s1
