20
gdb 70023	3.13831	1.54483	1.33864	2.3677	78.07	-0.2149	0.0745	0.2894	1041.0005	0.173051	-403.111205	-403.103497	-403.102553	-403.143115	30.744	
C	-0.1482573843	 1.4959505555	 0.0054046164	-0.521124
C	 0.0987634095	 0.0207897588	-0.0377181203	 0.332251
N	-0.8343702235	-0.9487279046	 0.5893403813	-0.377418
C	 0.5950996458	-0.9451398707	 0.9899247025	-0.124103
C	 1.3465693367	-1.7803852787	-0.0613355138	-0.051539
C	 0.7619764592	-3.1209406678	-0.5310147922	-0.24309
C	-0.2169681738	-2.7327269039	-1.6682741935	-0.0647
O	 0.1750242133	-1.4388344548	-2.148310993	-0.267932
C	 0.8692246263	-0.7574773005	-1.1396052196	 0.068696
H	 0.7552777296	 2.0546327106	-0.2621053026	 0.124568
H	-0.9378194849	 1.7841821649	-0.6985788706	 0.135003
H	-0.4569667038	 1.8187567596	 1.0064559891	 0.114172
H	-1.349024276	-0.4354326604	 1.3051055727	 0.2234
H	 0.878971606	-0.7737074111	 2.0217041837	 0.088123
H	 2.4249306447	-1.8035450299	 0.1000276477	 0.073293
H	 1.56150918	-3.7626111355	-0.9125613627	 0.099418
H	 0.2454061172	-3.6597658295	 0.2666481749	 0.108223
H	-0.1690965431	-3.4187039158	-2.5208348443	 0.090482
H	-1.2434612601	-2.6959436623	-1.2943254382	 0.117366
H	 1.6482946712	-0.1402599838	-1.5979632075	 0.074909
120.3232	194.2868	206.974	231.904	259.7232	334.4646	483.1159	535.4716	602.9533	678.7321	706.0175	778.8232	790.5547	833.6642	885.629	900.5306	914.1678	939.3307	960.3119	973.6346	1012.9463	1062.8728	1071.3967	1084.4676	1101.4708	1127.6584	1137.5416	1182.6161	1223.3679	1228.773	1254.0851	1275.3554	1304.5792	1322.587	1333.6865	1366.1597	1400.7605	1411.8713	1446.1335	1480.9045	1481.8392	1498.1191	1515.3551	3020.5258	3040.8157	3057.8175	3060.897	3084.1483	3088.5565	3090.7513	3102.8925	3115.3519	3181.3329	3462.5388
CC12NC1C1CCOC21	C[C@]12N[C@H]1[C@H]1CCO[C@@H]21	
InChI=1S/C7H11NO/c1-7-5(8-7)4-2-3-9-6(4)7/h4-6,8H,2-3H2,1H3	InChI=1S/C7H11NO/c1-7-5(8-7)4-2-3-9-6(4)7/h4-6,8H,2-3H2,1H3/t4-,5+,6-,7+/m1/s1
