18
gdb 88894	3.3475	0.80975	0.75071	0.818	93.83	-0.2304	-0.0214	0.2089	1558.2213	0.145061	-364.722696	-364.71303	-364.712086	-364.757687	35.284	
C	 1.8120135367	 1.0368806988	 0.4408273415	-0.425974
C	 0.5998360888	 0.2066977815	 0.0814080469	 0.038248
C	 0.4769923927	-1.2264111036	 0.477432204	-0.25407
N	-0.4094741531	-0.2206317166	 1.0549754321	-0.091471
C	-0.3201094796	 0.1425380654	 2.4749395047	-0.32229
C	 0.8403033463	-0.3056540808	 3.2462299892	 0.406943
C	 1.7781105524	-0.7135880901	 3.8961817247	-0.297261
C	 2.83182227	-1.1630358727	 4.6307560847	 0.288786
C	 3.7672276579	-1.5619139876	 5.2821444965	-0.541285
H	 2.3117694515	 0.6769503621	 1.3418737443	 0.141777
H	 2.5346077874	 1.0092731308	-0.3818221506	 0.124001
H	 1.5370825317	 2.0864671974	 0.5971631579	 0.119888
H	 0.1404665607	 0.5001228006	-0.8625746133	 0.091316
H	-0.0000888318	-1.9531606079	-0.1753914141	 0.113053
H	 1.2687267177	-1.6280968508	 1.1067042562	 0.124198
H	-0.4065928468	 1.2338775887	 2.5490314177	 0.142906
H	-1.2168659861	-0.2648753621	 2.9607886373	 0.148095
H	 4.5881716635	-1.912274313	 5.8570031901	 0.19314
54.1269	72.6282	152.7951	183.6903	197.9445	238.6199	315.6654	339.5323	393.867	456.6568	516.2465	526.3204	546.6454	585.9992	602.8731	730.3237	751.4883	774.92	905.6307	934.5768	987.4585	1041.2717	1074.803	1122.7077	1140.6519	1165.5748	1167.2674	1193.5369	1278.6315	1325.6706	1361.3244	1404.708	1423.2252	1459.327	1493.8285	1501.6482	1512.3126	2177.2084	2351.8173	3015.339	3034.4111	3048.5007	3089.4068	3097.0664	3099.055	3139.4981	3182.0775	3505.3318
CC1CN1CC#CC#C	C[C@H]1CN1CC#CC#C	
InChI=1S/C8H9N/c1-3-4-5-6-9-7-8(9)2/h1,8H,6-7H2,2H3	InChI=1S/C8H9N/c1-3-4-5-6-9-7-8(9)2/h1,8H,6-7H2,2H3/t8-,9?/m0/s1
