22
gdb 69486	2.8875	1.4069	1.3022	1.4166	85.21	-0.2153	0.0837	0.299	1128.331	0.194723	-367.188468	-367.17997	-367.179026	-367.22077	34.487	
C	-0.0385575867	 1.5012686913	 0.0423502787	-0.482146
C	 0.0191899613	-0.0085494882	 0.0001144975	 0.358147
C	-0.8500562848	-0.8159611195	 0.9313426325	-0.354641
C	 0.6530774669	-0.8486008877	 1.093434873	-0.136699
C	 1.4852563255	-1.9285716151	 0.4267528287	 0.349788
C	 2.8571962164	-2.1785399316	 1.0073955781	-0.479847
C	 0.7982657579	-2.9654056884	-0.3888639969	-0.299376
N	 1.3755062241	-1.7815581632	-1.0458762666	-0.131637
C	 0.4366700911	-0.6719099485	-1.3240451347	-0.247083
H	 0.9075440321	 1.9464291775	-0.2870949309	 0.117906
H	-0.8312139214	 1.8888459332	-0.6089762169	 0.118753
H	-0.2445094917	 1.8604861857	 1.0557383149	 0.114421
H	-1.4039970485	-0.2608635389	 1.683096721	 0.106008
H	-1.3781564029	-1.6898293457	 0.5687487543	 0.110056
H	 1.0804480276	-0.3834314969	 1.975518975	 0.079667
H	 2.7846549412	-2.6382517754	 1.9995880989	 0.115791
H	 3.4314431714	-2.8455850022	 0.3597350524	 0.125563
H	 3.4165574989	-1.2416164494	 1.1095905049	 0.117118
H	 1.310686831	-3.8975918959	-0.6184453206	 0.105747
H	-0.2813881807	-3.0659799937	-0.3309659928	 0.105448
H	-0.4165757461	-1.0289369807	-1.9133638353	 0.102118
H	 0.9679531673	 0.0625524534	-1.9398813153	 0.104897
139.0815	197.597	206.3411	215.2742	294.1771	320.562	345.012	387.2925	455.9055	489.6407	568.6271	603.341	712.5117	746.6223	769.9915	846.4685	851.7994	909.0514	922.0339	955.2752	967.9336	978.7148	1009.7455	1052.082	1063.2333	1069.303	1094.6106	1106.8028	1117.3707	1129.2826	1165.4365	1220.6566	1248.4322	1267.6001	1301.917	1352.6031	1360.0889	1406.1123	1414.9269	1420.8789	1485.5021	1486.9458	1490.0922	1496.626	1497.3757	1504.0831	1530.8848	3019.1601	3027.034	3028.4071	3061.8549	3078.528	3088.8874	3096.3708	3098.8021	3119.779	3125.3617	3162.9809	3180.882	3209.7714
CC12CC1C1(C)CN1C2	C[C@]12C[C@H]1[C@@]1(C)CN1C2	
InChI=1S/C8H13N/c1-7-3-6(7)8(2)5-9(8)4-7/h6H,3-5H2,1-2H3	InChI=1S/C8H13N/c1-7-3-6(7)8(2)5-9(8)4-7/h6H,3-5H2,1-2H3/t6-,7-,8-,9?/m1/s1
