22
gdb 59631	3.30522	1.04277	0.83909	1.0242	84.21	-0.2389	0.0301	0.269	1448.0167	0.193548	-404.387781	-404.377884	-404.376939	-404.422761	36.274	
C	-1.3422976117	-0.6258649859	-0.3461624744	-0.396161
C	-0.0068207662	 0.0299368583	 0.0327657274	 0.02959
C	-0.1410169618	 1.5564860244	 0.080529104	-0.387207
C	 0.516506873	-0.5223766631	 1.3706789448	 0.027779
C	 0.8210986437	-2.0464842744	 1.3605479161	-0.131737
O	 2.163403482	-2.1457315391	 1.8807852686	-0.256181
C	 2.6038760087	-0.8629790118	 2.0175538322	 0.403682
C	 4.017459309	-0.7332549178	 2.4718894902	-0.472567
N	 1.7998983594	 0.0869389278	 1.7639197981	-0.320254
H	-2.1099176195	-0.4073358924	 0.4061064481	 0.113587
H	-1.7034511306	-0.2436068551	-1.306093149	 0.115422
H	-1.2636292862	-1.7146627069	-0.4351652983	 0.111036
H	 0.7391737314	-0.2270702642	-0.7333619865	 0.070472
H	-0.8888727681	 1.8575709928	 0.8244074628	 0.106924
H	 0.8078431643	 2.0225450453	 0.3525456716	 0.138365
H	-0.463024521	 1.9487882903	-0.8897635976	 0.102973
H	-0.2252190367	-0.2805367892	 2.1458557541	 0.078337
H	 0.1607490667	-2.6396123868	 1.9973142563	 0.11722
H	 0.8159713975	-2.4732656268	 0.350903945	 0.109847
H	 4.1492518842	-1.2243914653	 3.4412375297	 0.144649
H	 4.6906902212	-1.2270667839	 1.7641877997	 0.143694
H	 4.2812622807	 0.3202228734	 2.5567134972	 0.150532
64.3477	86.145	144.9818	166.4285	216.5591	220.1555	244.5884	313.2043	333.6086	370.1218	446.4049	457.6025	612.7928	678.2862	733.3716	830.82	900.2632	922.4544	932.3028	962.699	986.1282	1002.3117	1019.6112	1024.6666	1066.7332	1093.253	1142.1062	1180.193	1196.9716	1235.1841	1256.7495	1302.0924	1326.5953	1347.4006	1378.6575	1391.0283	1399.0171	1415.3049	1421.3212	1475.9124	1477.058	1488.7778	1489.3409	1503.8151	1513.3661	1520.8386	1741.8739	2987.9231	3004.9489	3024.5011	3030.5491	3038.1431	3050.6513	3087.7049	3091.9871	3099.5678	3100.592	3107.6151	3134.0632	3166.1836
CC(C)C1COC(C)=N1	CC(C)[C@H]1COC(=N1)C	
InChI=1S/C7H13NO/c1-5(2)7-4-9-6(3)8-7/h5,7H,4H2,1-3H3	InChI=1S/C7H13NO/c1-5(2)7-4-9-6(3)8-7/h5,7H,4H2,1-3H3/t7-/m1/s1
