14
gdb 132591	3.13666	1.4156	0.98131	0.4819	68.89	-0.24	-0.0458	0.1942	1111.3108	0.100823	-478.041205	-478.033557	-478.032613	-478.073758	28.281	
C	-0.0776897679	 1.5166473231	 0.0180457065	-0.486005
C	-0.0183228626	 0.0163207585	-0.0160659827	 0.176037
N	-0.0672439255	-0.6266230045	-1.1875822262	-0.272564
C	-0.0133438324	-1.9541198286	-1.197048372	-0.098209
C	 0.0930174341	-2.6739568046	-0.0022787008	 0.405548
O	 0.1463595085	-4.0171340664	-0.029956051	-0.411806
N	 0.1436763577	-2.0615108159	 1.1770728213	-0.390248
C	 0.0879345684	-0.7493785502	 1.1478937379	 0.279442
F	 0.1379827156	-0.1288954463	 2.3222768008	-0.058634
H	 0.8177234771	 1.9412141769	 0.4845264503	 0.139202
H	-0.159893254	 1.8954648442	-1.0015321255	 0.143837
H	-0.9364420666	 1.8691905636	 0.5992995268	 0.13919
H	-0.0535993006	-2.4682962218	-2.1513232685	 0.127833
H	 0.2175227281	-4.315225388	 0.8869884231	 0.306377
73.0838	123.7397	246.8041	273.9109	342.9211	346.8852	477.3468	504.5704	520.647	543.3662	582.0316	700.4158	742.5584	789.1437	790.0823	910.0883	984.0301	1040.2411	1060.7939	1195.1147	1196.7166	1284.1589	1297.2094	1385.2115	1408.0943	1458.4373	1480.8346	1489.7839	1513.3376	1603.8479	1644.8595	3039.53	3092.165	3146.9082	3189.0245	3778.1165
CC1=NC=C(O)N=C1F	Cc1ncc(O)nc1F	
InChI=1S/C5H5FN2O/c1-3-5(6)8-4(9)2-7-3/h2H,1H3,(H,8,9)	InChI=1S/C5H5FN2O/c1-3-5(6)8-4(9)2-7-3/h2H,1H3,(H,8,9)
