23
gdb 72434	2.23892	2.07571	1.46205	0.1432	87.47	-0.2565	0.0864	0.3429	1024.1863	0.209605	-351.168774	-351.161341	-351.160397	-351.199863	32.275	
C	-0.0311181044	 1.5058666703	 0.0251199844	-0.483037
C	 0.0069250916	-0.0141990208	 0.0299031878	 0.332903
C	 0.7496136554	-0.6634225523	-1.1767234643	-0.224281
C	 1.0589053404	-2.1169113143	-0.6857133896	-0.205575
C	 0.449857097	-2.1384163754	 0.7439511927	-0.030281
C	 0.7604842954	-0.6974565231	 1.1972118075	-0.271867
C	-1.0671129046	-2.1235173144	 0.5459520316	-0.016087
C	-1.9365420794	-1.2046120226	 1.3686690789	-0.343523
C	-1.3611507004	-0.7135583358	 0.0634066964	-0.03921
H	 0.9797226808	 1.9293142213	 0.0188833989	 0.107082
H	-0.5546245816	 1.8879686588	-0.8589937419	 0.109013
H	-0.5530051911	 1.8905331697	 0.9080937066	 0.11204
H	 0.136426272	-0.645414003	-2.0831172909	 0.088759
H	 1.6711286427	-0.1144987362	-1.3985501201	 0.086669
H	 0.617941067	-2.8830095377	-1.3304096748	 0.090248
H	 2.1372082722	-2.3022249614	-0.6526041331	 0.0892
H	 0.831662084	-2.9390404272	 1.3814973569	 0.053436
H	 1.8326129927	-0.4780377699	 1.1732988956	 0.085863
H	 0.3882339062	-0.4366916262	 2.1894718621	 0.092511
H	-1.5253452062	-2.9884164957	 0.0772067979	 0.077713
H	-2.9975596441	-1.4319590579	 1.3537536562	 0.10566
H	-1.5981424103	-0.8089177926	 2.3194486841	 0.108542
H	-2.0370148154	-0.5260955536	-0.765505573	 0.074221
204.4878	230.8737	264.8006	296.598	356.7626	374.7288	489.7464	523.6962	553.4281	591.4998	731.8149	756.1595	812.8548	822.8513	839.9638	880.8942	892.6582	901.7838	922.4074	954.4711	972.4213	996.3337	1007.8554	1026.4806	1036.4007	1073.4283	1079.7692	1100.5729	1118.743	1148.8661	1157.3799	1199.9118	1203.4541	1223.7823	1243.8931	1262.5606	1280.2397	1308.9762	1317.4813	1328.6612	1359.9373	1386.5471	1411.965	1480.9692	1489.6485	1494.4196	1498.1475	1506.6811	1532.7074	3021.361	3036.0347	3048.8431	3058.2465	3072.5635	3083.8619	3084.5687	3091.2723	3094.9574	3110.1998	3133.7834	3148.4282	3161.0397	3209.8699
CC12CCC(C1)C1CC21	C[C@@]12CC[C@@H](C1)[C@H]1C[C@@H]21	
InChI=1S/C9H14/c1-9-3-2-6(5-9)7-4-8(7)9/h6-8H,2-5H2,1H3	InChI=1S/C9H14/c1-9-3-2-6(5-9)7-4-8(7)9/h6-8H,2-5H2,1H3/t6-,7+,8+,9+/m0/s1
