19
gdb 77575	2.8362	1.43052	1.23308	2.2924	75.78	-0.2523	0.0763	0.3286	1095.245	0.158004	-422.976785	-422.968218	-422.967274	-423.009614	33.196	
C	-0.1373127698	 1.5558948782	 0.0528106642	-0.505638
C	 0.0285079038	 0.0648133437	 0.0112270675	 0.348236
C	-0.7905658065	-0.888092692	 0.8252571852	-0.334702
C	 0.7069075808	-0.8850440311	 1.0324545709	-0.206512
C	 1.3317156587	-1.6432567211	-0.101904129	 0.417897
C	 2.5308764593	-2.4633017602	-0.2198685194	-0.275019
O	 1.2206805175	-3.0592528549	-0.2820098777	-0.287144
C	 0.7084525596	-0.7002084406	-1.1463448715	-0.016706
O	-0.0892894989	-1.3181803372	-2.1232015235	-0.445777
H	 0.7851450677	 2.0698912824	-0.2405949125	 0.117519
H	-0.9302971415	 1.880040687	-0.6311278258	 0.132192
H	-0.4074744181	 1.8978990822	 1.057252083	 0.118334
H	-1.3634783449	-0.434887429	 1.6282913271	 0.113393
H	-1.2729628315	-1.7431744223	 0.3613283044	 0.120659
H	 1.1664672048	-0.65532677	 1.9859764504	 0.091573
H	 3.0928575541	-2.4683029631	-1.1532262827	 0.120389
H	 3.1060643864	-2.7189507779	 0.6689977184	 0.12143
H	 1.4615325228	-0.0654476418	-1.6334794049	 0.074932
H	-0.0162099342	-2.2689748124	-1.9640152139	 0.294945
83.1818	198.1656	209.3872	227.7378	237.3483	282.2744	332.0857	370.9802	484.9714	496.7614	536.3132	614.6098	703.0709	770.0918	792.8876	866.6552	896.5561	937.8741	949.4645	972.249	994.8169	1013.8262	1074.1049	1092.6675	1113.2614	1115.6104	1130.5319	1161.7035	1195.5153	1201.5109	1239.931	1283.548	1327.6692	1400.9931	1405.537	1427.6693	1456.1785	1486.7848	1498.1976	1502.0355	1538.6682	3009.2828	3024.0206	3081.1796	3084.2516	3096.7153	3123.3295	3167.8904	3187.6159	3207.17	3751.0463
CC12CC1C1(CO1)C2O	C[C@]12C[C@H]1[C@]1(CO1)[C@H]2O	
InChI=1S/C7H10O2/c1-6-2-4(6)7(3-9-7)5(6)8/h4-5,8H,2-3H2,1H3	InChI=1S/C7H10O2/c1-6-2-4(6)7(3-9-7)5(6)8/h4-5,8H,2-3H2,1H3/t4-,5+,6+,7-/m1/s1
