15
gdb 30473	3.2522	1.15118	0.85472	4.7734	78.41	-0.2113	-0.0559	0.1553	1284.3399	0.111867	-453.974738	-453.966052	-453.965108	-454.010682	30.	
C	-0.0682832453	 1.4417918279	-0.0025402841	-0.336302
N	-0.089852587	-0.0091398939	-0.0677923147	-0.376335
C	 0.5022944359	-0.599854336	-1.0043050931	 0.51291
N	 0.5589187195	-1.9847681134	-1.1826036934	-0.351259
C	 1.2879733127	-2.2790811887	-2.2998462091	-0.133286
C	 1.6953916001	-1.1047817796	-2.8375902483	 0.235502
O	 1.2205216739	-0.0628208711	-2.0549502364	-0.240155
C	 2.4896334029	-0.8616993506	-4.0189941185	 0.060911
O	 2.8174404361	 0.225524667	-4.4418664433	-0.286037
H	 0.5352301631	 1.9168389751	-0.784340373	 0.133346
H	-1.092662032	 1.8256886454	-0.0752845929	 0.126152
H	 0.3192107086	 1.7541152329	 0.9737855816	 0.125812
H	 0.113796711	-2.6244789061	-0.5483381969	 0.28444
H	 1.4671250047	-3.2871786645	-2.635407724	 0.173443
H	 2.7842225558	-1.8085577144	-4.5250835539	 0.070861
7.0747	123.2903	130.0226	139.929	247.5204	248.5058	338.5663	444.2344	475.4094	538.5803	608.9944	669.296	718.0127	807.4458	817.1086	911.0398	970.2554	1000.9599	1075.4856	1099.9974	1137.0445	1139.2985	1185.7734	1318.5092	1354.7882	1425.0537	1436.8946	1448.2801	1494.8825	1503.5856	1656.8774	1779.5015	1828.8287	2875.1801	3014.9809	3072.1123	3085.9218	3281.1897	3693.5056
CN=C1NC=C(O1)C=O	CN=c1[nH]cc(o1)C=O	
InChI=1S/C5H6N2O2/c1-6-5-7-2-4(3-8)9-5/h2-3H,1H3,(H,6,7)	InChI=1S/C5H6N2O2/c1-6-5-7-2-4(3-8)9-5/h2-3H,1H3,(H,6,7)
