18
gdb 127392	4.75435	1.21434	0.99223	2.4055	78.8	-0.2083	0.0245	0.2328	1176.9943	0.151212	-398.132929	-398.125377	-398.124433	-398.164865	29.015	
C	-0.0561396779	 1.4404290284	 0.0381542968	-0.313487
N	-0.0781851887	 3.4078*^-6	 0.1522616447	-0.072166
C	-1.4263396565	-0.6015267656	 0.1690988738	-0.294291
C	-1.1524454635	-1.8639263786	 0.9165834238	 0.362749
C	 0.0731144814	-1.8575142308	 1.5286000299	 0.214738
C	 0.7613738671	-0.5592000674	 1.2391480303	-0.303264
C	 0.1435021598	-3.0885968137	 2.2087899287	-0.16304
N	-0.9684764475	-3.8039486145	 2.0218326461	-0.227485
N	-1.7532092228	-3.0297666748	 1.2290071625	-0.331349
H	 0.9767836004	 1.7876814617	-0.0682501871	 0.122208
H	-0.6044257512	 1.7541373138	-0.8566980241	 0.118698
H	-0.5010321167	 1.9612311055	 0.9088931116	 0.090894
H	-2.1698863239	 0.0264888159	 0.6984977061	 0.095372
H	-1.7977635436	-0.7448075005	-0.8547263939	 0.114952
H	 1.798285547	-0.6596109785	 0.8939151146	 0.113402
H	 0.7799279863	 0.0984252187	 2.1288168797	 0.091236
H	 0.9346652604	-3.4992813434	 2.8186858694	 0.109626
H	-2.6501165203	-3.3849752441	 0.945840897	 0.271207
96.5647	217.4793	230.644	262.8098	288.6079	305.6112	459.5391	493.6227	510.5536	668.1302	682.6657	729.1073	784.5337	851.4418	881.9889	983.7979	1015.773	1023.8844	1058.7418	1097.4256	1136.3009	1139.7553	1188.1165	1195.5206	1197.8956	1228.0621	1240.7414	1311.4257	1344.6362	1367.3705	1417.8147	1452.8371	1466.1415	1489.3961	1502.5276	1515.127	1527.4346	1559.247	1609.8389	2898.4794	2911.0358	2920.4453	3012.3218	3024.8335	3053.6797	3097.2368	3245.2893	3678.1415
CN1CC2=C(C1)C=NN2	CN1Cc2c(C1)cn[nH]2	
InChI=1S/C6H9N3/c1-9-3-5-2-7-8-6(5)4-9/h2H,3-4H2,1H3,(H,7,8)	InChI=1S/C6H9N3/c1-9-3-5-2-7-8-6(5)4-9/h2H,3-4H2,1H3,(H,7,8)
