20
gdb 50100	3.4853	0.84829	0.75881	3.667	81.44	-0.2489	0.0039	0.2528	1540.6095	0.170493	-403.127752	-403.118679	-403.117735	-403.162582	33.115	
O	-0.1522559148	 0.5755104316	-0.2193751491	-0.291903
C	 0.0989808603	 1.70828549	 0.1154739719	 0.134333
N	 1.3339300445	 2.1521765427	 0.5457892854	-0.061032
C	 2.5942383506	 1.7242687788	-0.0120098794	-0.254851
C	 2.1798757875	 3.1690111169	-0.0661460147	 0.002614
C	 1.8018790055	 3.8161888512	-1.3837225582	-0.246807
C	 0.8961196937	 5.0214055885	-1.2257150998	 0.033601
C	 1.4811715733	 6.3734460625	-0.8960648164	-0.257328
C	 0.8961360486	 6.1141777861	-2.2626209302	-0.275576
H	-0.6699502979	 2.5016247008	 0.1868993865	 0.083494
H	 3.348790525	 1.4016042262	 0.6999165859	 0.127254
H	 2.5493272901	 1.1479922628	-0.933179473	 0.135643
H	 2.633286435	 3.8470994117	 0.6557783844	 0.104604
H	 2.727222092	 4.1278460924	-1.8863468429	 0.105976
H	 1.331369322	 3.0658416762	-2.0325328096	 0.113789
H	-0.0668797122	 4.8024546663	-0.7713298241	 0.088637
H	 0.9393536493	 7.0211134299	-0.2161110133	 0.116561
H	 2.5608415755	 6.453312225	-0.8165376917	 0.111069
H	 1.5825891091	 6.0193038877	-3.0979068836	 0.113256
H	-0.047573047	 6.5829798528	-2.517417708	 0.116667
64.444	69.2001	110.5745	147.3713	212.7901	278.2623	309.1302	381.0803	430.4804	498.3	620.3411	771.1827	797.808	806.8458	837.2818	871.4538	914.6545	930.5934	963.3928	1003.8083	1037.7334	1057.6476	1080.2952	1084.0413	1099.7085	1130.3017	1137.1635	1138.7845	1159.6187	1193.1315	1199.2521	1230.096	1273.644	1314.8746	1377.8441	1412.4949	1420.3887	1434.2112	1468.9329	1475.6997	1508.5027	1512.3726	1795.4864	2947.7078	3014.6314	3053.5783	3109.1159	3119.5513	3129.4985	3134.3671	3138.9688	3197.5528	3208.2655	3223.2891
O=CN1CC1CC1CC1	O=CN1C[C@H]1CC1CC1	
InChI=1S/C7H11NO/c9-5-8-4-7(8)3-6-1-2-6/h5-7H,1-4H2	InChI=1S/C7H11NO/c9-5-8-4-7(8)3-6-1-2-6/h5-7H,1-4H2/t7-,8?/m1/s1
