23
gdb 73695	2.55546	1.87903	1.29627	0.1939	89.09	-0.275	0.0906	0.3656	1070.7223	0.209018	-351.1279	-351.120288	-351.119344	-351.159338	32.28	
C	 0.0185598923	 1.5624343731	-0.1224231784	-0.486829
C	-0.0221235383	 0.0401630055	 0.0121934909	 0.384882
C	 0.2213767081	-0.5842637471	-1.3762672237	-0.269496
C	-0.3186016516	-2.0110793692	-1.4824467141	-0.207315
C	 0.0274996285	-2.7828556126	-0.2070698433	-0.24648
C	-0.1727578782	-1.8904003979	 1.0121966387	 0.034271
C	 0.738528295	-0.6372357343	 1.2099688735	-0.084024
C	-0.3596291053	-0.1053306681	 2.1713534288	-0.250588
C	-1.1196582203	-0.6391617604	 0.9271831072	-0.106371
H	 0.9449568087	 1.8668307151	-0.6243317842	 0.112829
H	-0.8119600741	 1.9115269077	-0.7472624883	 0.112806
H	-0.0305951717	 2.1030385515	 0.8237775688	 0.113248
H	-0.2356350285	 0.046243006	-2.148264582	 0.087951
H	 1.3025578861	-0.5674543381	-1.5758575002	 0.091906
H	-1.4103894263	-1.9680302692	-1.5820870868	 0.097007
H	 0.0572530508	-2.515361886	-2.3788766842	 0.086558
H	-0.592137831	-3.6831063219	-0.1231097532	 0.090745
H	 1.070264773	-3.1284410784	-0.2329639976	 0.092865
H	-0.3019399708	-2.4777977751	 1.9270121738	 0.056711
H	 1.8199807008	-0.6394836747	 1.374235619	 0.055657
H	-0.4991552706	-0.6783396539	 3.0923388846	 0.084931
H	-0.3950304385	 0.9631826097	 2.3777031456	 0.089271
H	-2.2015533878	-0.6389625114	 0.7717864451	 0.059465
170.272	190.1883	212.1391	326.3617	361.235	388.0365	448.4398	472.8879	547.7859	637.5997	666.4703	746.7124	789.5772	811.1212	872.2103	888.0479	893.7118	900.0548	934.4755	947.6505	1016.5753	1032.3538	1042.0218	1049.7103	1062.0132	1073.5263	1100.2415	1120.5295	1167.2446	1180.4813	1185.1845	1211.0757	1212.3578	1224.1937	1233.4059	1249.3989	1295.7198	1309.1257	1356.2782	1370.994	1378.5918	1411.8538	1416.0201	1482.7611	1486.9233	1494.7682	1497.8755	1504.3736	1535.4219	3003.4156	3010.611	3022.6067	3027.6855	3043.8741	3048.6128	3057.6764	3058.8659	3067.7912	3072.8978	3078.3298	3080.9569	3123.5417	3145.2266
CC12CCCC3C1CC23	C[C@@]12CCC[C@H]3[C@@H]1C[C@@H]23	
InChI=1S/C9H14/c1-9-4-2-3-6-7(9)5-8(6)9/h6-8H,2-5H2,1H3	InChI=1S/C9H14/c1-9-4-2-3-6-7(9)5-8(6)9/h6-8H,2-5H2,1H3/t6-,7-,8+,9+
