20
gdb 39726	3.12852	1.70807	1.66466	1.5742	81.29	-0.2374	0.0988	0.3362	935.5425	0.174667	-365.997568	-365.990987	-365.990043	-366.028078	28.523	
C	-0.0203349621	 1.4910222468	-0.0141491072	-0.35158
C	 1.3010158981	 0.7388670644	-0.0308842968	-0.35158
C	 0.0054739738	-0.0019861946	 0.0506085246	 0.455752
C	-0.4705567374	-0.8641145602	 1.212820666	-0.146022
C	-1.9559110825	-1.0350875216	 0.8152927432	-0.235239
C	-1.6895242004	-1.4576041739	-0.6266653431	-0.036438
C	-0.3938742088	-2.1951251005	-0.6430760817	-0.036438
C	 0.1329132287	-2.2241153315	 0.7888382187	-0.235239
N	-0.4523755583	-0.7805640983	-1.1066483094	-0.164652
H	-0.2836746403	 2.0438404556	 0.8818938842	 0.10831
H	-0.3504829663	 1.9431751898	-0.9425326909	 0.121194
H	 1.8404886049	 0.696004062	-0.9702820428	 0.121194
H	 1.927839498	 0.7849765288	 0.8538840412	 0.10831
H	-0.2593439471	-0.5155200732	 2.2220286381	 0.066489
H	-2.470829423	-1.8105086744	 1.3915299551	 0.09596
H	-2.5228175151	-0.1023211321	 0.8883373349	 0.104028
H	-2.4782083065	-1.6141922043	-1.3521943988	 0.087979
H	-0.1398600811	-2.9452453459	-1.3818124362	 0.087979
H	 1.225580682	-2.2360335803	 0.8408675598	 0.104028
H	-0.2599378168	-3.0690235667	 1.3635266912	 0.09596
167.4591	256.3052	280.6858	406.4848	453.742	505.2154	588.6611	693.6195	720.4296	772.9071	806.6321	842.1252	846.0394	901.4645	909.3669	922.7096	924.4603	935.8881	949.2152	980.5654	992.6123	1019.5314	1029.1638	1048.8289	1067.3959	1073.5443	1078.1201	1146.2665	1150.3432	1183.8634	1187.9836	1212.2065	1235.3997	1267.6107	1275.8283	1289.8267	1321.0902	1376.4878	1390.4748	1454.6972	1482.7866	1496.5091	1510.8017	3049.085	3052.5542	3097.2138	3099.5123	3128.8354	3131.8882	3137.4445	3184.354	3194.7693	3212.8922	3226.0894
C1CC11C2CC3C(C2)N13	C1CC21[C@H]1C[C@@H]3[C@H](C1)N23	
InChI=1S/C8H11N/c1-2-8(1)5-3-6-7(4-5)9(6)8/h5-7H,1-4H2	InChI=1S/C8H11N/c1-2-8(1)5-3-6-7(4-5)9(6)8/h5-7H,1-4H2/t5-,6+,7-,9?
