15
gdb 108712	3.43307	1.07285	0.82575	6.8289	71.32	-0.2286	-0.0859	0.1427	1299.2268	0.111083	-457.798035	-457.78952	-457.788576	-457.831841	30.298	
O	-0.0004558434	 1.4075308499	 0.0063066727	-0.406697
C	-0.0285029939	-0.0010408218	 0.0023757751	-0.161337
C	-1.4383294589	-0.4854726433	 0.0124257423	 0.276553
C	-2.5425296697	 0.285594718	 0.0236308684	-0.27394
C	-3.7614613954	-0.5328024313	 0.030945179	 0.29647
O	-4.9198042254	-0.1940270711	 0.0425991977	-0.306416
C	-3.2683993848	-2.0112974124	 0.0232460992	 0.315105
O	-3.9687772852	-2.9841832038	 0.0275439571	-0.273435
C	-1.7385801085	-1.9671091447	 0.0108936352	-0.432462
H	 0.9164271859	 1.6962079722	-0.0003215062	 0.299116
H	 0.4766155292	-0.4246209518	-0.8847504834	 0.11449
H	 0.4909818932	-0.4298395624	 0.878625924	 0.114482
H	-2.5440840911	 1.3662995775	 0.0269015777	 0.143181
H	-1.3427075656	-2.4829126264	-0.8728970103	 0.147428
H	-1.3282728063	-2.4876368887	 0.8852795116	 0.147464
65.8993	113.7242	145.4842	177.8522	220.2127	312.4834	384.4329	396.988	428.3492	546.5196	609.3045	650.1352	724.6129	728.2201	853.2296	894.7978	962.2665	1027.7892	1059.0726	1077.4346	1145.7993	1151.3715	1192.401	1213.8828	1253.7616	1269.9916	1334.0547	1440.6568	1462.801	1491.1032	1661.708	1817.5884	1865.3416	2941.2387	2955.3574	3032.2538	3064.6246	3244.395	3842.6033
OCC1=CC(=O)C(=O)C1	OCC1=CC(=O)C(=O)C1	
InChI=1S/C6H6O3/c7-3-4-1-5(8)6(9)2-4/h1,7H,2-3H2	InChI=1S/C6H6O3/c7-3-4-1-5(8)6(9)2-4/h1,7H,2-3H2
