14
gdb 75664	2.98978	1.30377	1.10503	1.4433	68.19	-0.269	-0.0604	0.2086	1086.061	0.098981	-436.667262	-436.65917	-436.658226	-436.700153	29.269	
C	-0.0527849164	 1.5938879467	 0.0725161385	-0.419757
C	 0.0237039522	 0.0775834593	-0.0179483	-0.199671
C	 1.1095913961	-0.5932051311	-0.9217933173	 0.430033
O	 1.3140962602	-0.6017822807	-2.0948800584	-0.280944
C	 1.7110772004	-1.3335519403	 0.279057073	-0.181375
O	 2.0366330121	-0.2885310867	 1.2155395762	-0.258033
C	 0.6738182194	-0.7028551774	 1.1483672092	 0.316311
C	 0.0435115492	-1.2347171964	 2.3157130318	 0.207397
N	-0.509877058	-1.6444007162	 3.2444325415	-0.325366
H	 0.8972874903	 2.0078609366	 0.4180475692	 0.145728
H	-0.2728291668	 2.012379693	-0.9136599115	 0.145852
H	-0.8440023799	 1.9079513208	 0.7594620922	 0.138515
H	-0.9431026135	-0.3625903163	-0.2914936818	 0.129954
H	 2.2336022846	-2.2780902814	 0.3734799372	 0.151356
88.6421	136.0219	188.9965	204.7949	222.3425	280.4044	428.3752	505.3891	524.9782	561.8117	601.128	664.8079	708.7939	778.8652	866.3787	872.3777	1001.3668	1016.7057	1054.1889	1080.0528	1113.6163	1174.3817	1205.4069	1213.8044	1325.97	1394.179	1408.7623	1491.7738	1500.9532	1915.2228	2361.2615	3048.2666	3051.943	3118.5478	3134.1391	3203.1964
CC1C(=O)C2OC12C#N	C[C@H]1C(=O)[C@H]2O[C@@]12C#N	
InChI=1S/C6H5NO2/c1-3-4(8)5-6(3,2-7)9-5/h3,5H,1H3	InChI=1S/C6H5NO2/c1-3-4(8)5-6(3,2-7)9-5/h3,5H,1H3/t3-,5+,6-/m0/s1
