19
gdb 71409	3.79215	1.29919	1.2563	1.0356	79.41	-0.2302	0.08	0.3102	1075.4492	0.15933	-385.814535	-385.807019	-385.806074	-385.845973	31.227	
O	-0.0319385928	 1.319958345	 0.1352729307	-0.462878
C	 0.0252004501	-0.0516424353	-0.0012669719	 0.385727
C	-0.6231908115	-0.9084256497	-1.0883130852	-0.297775
C	-0.3860426904	-2.0975229906	-0.1078864654	-0.169988
C	-0.2842286741	-1.0465018261	 1.0758104472	-0.117044
C	 1.1637355366	-0.887431651	 0.6337580324	-0.249537
C	 1.1453057862	-2.2316191956	-0.0522348525	 0.449748
C	 1.9078639321	-3.4499244952	 0.359129859	-0.350715
C	 2.0854113137	-2.8594609611	-1.032851289	-0.343392
H	 0.6697711454	 1.7075150624	-0.3996017705	 0.284739
H	-1.6854676538	-0.6674833872	-1.18719094	 0.100295
H	-0.1538340472	-0.9718843981	-2.0770995214	 0.085539
H	-1.0296213094	-2.9746804228	-0.1296442675	 0.071785
H	-0.7559113938	-0.9603215582	 2.0431690859	 0.09624
H	 1.9664005745	-0.3998334123	 1.1736839919	 0.082965
H	 2.7228727492	-3.3381489402	 1.0674667964	 0.109957
H	 1.3722108449	-4.3904859385	 0.4455782622	 0.108824
H	 1.6688991034	-3.4076858838	-1.8726211544	 0.108182
H	 3.0204490667	-2.3539882919	-1.253509818	 0.107326
143.637	217.423	234.8606	294.4051	359.6196	380.5057	445.0756	471.2649	593.4509	633.7937	735.2979	766.0309	780.8992	828.2057	862.3653	884.9231	902.9179	919.0096	936.3329	960.7863	964.2741	993.6165	1019.7391	1045.8156	1050.7574	1073.6756	1110.2395	1122.8893	1131.1053	1171.3254	1182.9482	1214.2337	1217.5614	1262.687	1289.5951	1305.5057	1397.8514	1440.7564	1461.6678	1501.1688	1510.1553	3031.1583	3098.3713	3117.6309	3121.7516	3134.6069	3189.2238	3194.7349	3209.601	3230.6266	3791.6625
OC12CC3C1C2C31CC1	O[C@]12C[C@@H]3[C@H]1[C@H]2C13CC1	
InChI=1S/C8H10O/c9-8-3-4-5(8)6(8)7(4)1-2-7/h4-6,9H,1-3H2	InChI=1S/C8H10O/c9-8-3-4-5(8)6(8)7(4)1-2-7/h4-6,9H,1-3H2/t4-,5+,6+,8-/m1/s1
