20
gdb 6931	4.63104	0.92726	0.87253	1.6262	72.07	-0.2472	0.0761	0.3233	1365.7066	0.174552	-386.121007	-386.111337	-386.110393	-386.155416	35.263	
C	 0.0230371523	 1.5625954963	-0.1708725302	-0.447441
C	 0.0128583706	 0.0624714981	 0.0175778525	 0.386211
O	-1.14747318	-0.5582215073	-0.4850189478	-0.467196
C	 1.2936241646	-0.738211295	-0.0513972949	-0.352824
C	 0.530516111	-0.6022996263	 1.2596846647	-0.026658
C	 1.1083540079	 0.1478756265	 2.4393770948	-0.211272
C	 2.0156090632	-0.7333228665	 3.2919653249	-0.062895
O	 2.5126935222	 0.0591868861	 4.3602971967	-0.423123
H	 0.9201771698	 2.0231270237	 0.2495323834	 0.12062
H	-0.0038350245	 1.812858915	-1.238942916	 0.105175
H	-0.8544388456	 2.0149810326	 0.3022982985	 0.12651
H	-1.1418991283	-0.4546983387	-1.4434572873	 0.27706
H	 1.2592641761	-1.6937315525	-0.5628769804	 0.108345
H	 2.2313502029	-0.1988442949	-0.1497840785	 0.105246
H	-0.0499326606	-1.4821913997	 1.5268097709	 0.09392
H	 1.6924483864	 1.0125670196	 2.1061443381	 0.102956
H	 0.3061047147	 0.5384741434	 3.0774994273	 0.109046
H	 1.4450767657	-1.5983534066	 3.6682198544	 0.08391
H	 2.8345708975	-1.1298788262	 2.6707369984	 0.087862
H	 3.0801672542	-0.4931590677	 4.9054789304	 0.284549
74.4265	93.0168	118.084	203.908	221.666	260.1861	279.1366	313.0733	329.556	385.6462	425.3639	484.763	521.8611	703.0143	796.0552	855.5415	894.1573	921.2653	927.9479	992.6075	1012.9447	1041.3169	1069.7693	1084.6226	1098.3152	1127.2684	1177.9362	1223.3375	1240.0098	1255.2807	1292.8567	1313.6403	1324.9227	1365.9236	1414.8792	1423.309	1461.7656	1476.8231	1486.772	1492.456	1511.9522	1528.2145	2963.0915	2990.3945	3024.676	3033.83	3077.5264	3087.2473	3120.4774	3123.9846	3139.9215	3214.333	3786.861	3831.5037
CC1(O)CC1CCO	C[C@@]1(O)C[C@H]1CCO	
InChI=1S/C6H12O2/c1-6(8)4-5(6)2-3-7/h5,7-8H,2-4H2,1H3	InChI=1S/C6H12O2/c1-6(8)4-5(6)2-3-7/h5,7-8H,2-4H2,1H3/t5-,6-/m1/s1
