17
gdb 132506	3.06918	1.30055	0.91943	2.1859	81.3	-0.1995	0.0078	0.2074	1224.2967	0.136276	-426.050942	-426.042573	-426.041629	-426.083771	32.108	
C	-0.0050868569	 1.5382171746	 0.0299252227	-0.497775
C	-0.0090381505	 0.0333032137	-0.0126153093	 0.130361
C	-0.0485534666	-0.7014073359	-1.198728261	-0.164911
C	-0.0492166787	-2.0916302772	-1.2121229275	-0.191201
C	-0.0111706901	-2.8130287865	-0.0119247123	 0.331908
N	-0.0743280795	-4.2077269131	-0.0077110654	-0.59196
C	 0.0299532443	-2.0985740236	 1.1927570577	-0.336055
C	 0.0295193128	-0.7155807184	 1.1618809633	 0.258503
F	 0.0718501482	-0.056830497	 2.3320547935	-0.084082
H	 0.8906725061	 1.9269760183	 0.5270473539	 0.132166
H	-0.0370993495	 1.9531196788	-0.9807615147	 0.118681
H	-0.865891923	 1.9295512424	 0.5835049048	 0.133125
H	-0.0769984478	-0.1651774484	-2.1428530731	 0.093288
H	-0.0836800559	-2.6251706331	-2.1568897347	 0.080503
H	 0.2555563371	-4.6452559796	-0.8557112998	 0.246744
H	 0.3217594633	-4.6475788197	 0.8102226529	 0.247069
H	 0.0575857067	-2.6058171656	 2.150873749	 0.093635
86.2943	139.8594	232.929	268.3127	295.7603	320.734	322.1386	449.9686	463.2944	507.3263	570.1293	594.7465	655.7576	717.1907	751.3401	771.2641	816.8008	852.7304	927.0504	964.0519	1013.5156	1062.3265	1105.9248	1150.815	1195.4515	1222.9896	1300.3362	1345.8898	1352.7268	1415.7366	1473.8655	1480.3876	1504.6803	1547.5996	1622.2088	1654.2845	1674.4758	3030.9126	3081.2671	3114.9726	3163.1789	3180.5961	3189.9687	3563.9272	3662.321
CC1=CC=C(N)C=C1F	Cc1ccc(N)cc1F	
InChI=1S/C7H8FN/c1-5-2-3-6(9)4-7(5)8/h2-4H,9H2,1H3	InChI=1S/C7H8FN/c1-5-2-3-6(9)4-7(5)8/h2-4H,9H2,1H3
