17
gdb 47641	2.68785	1.51684	1.05187	4.0094	81.47	-0.2379	-0.0678	0.1701	1119.4594	0.136872	-421.83209	-421.824261	-421.823317	-421.864723	29.587	
O	-0.2643039178	-0.0080662287	 0.9368327993	-0.32373
C	-0.0357753838	 0.8952529752	 0.1555467037	 0.352787
C	-1.1776822554	 1.5984852189	-0.5663186242	-0.191971
O	-0.8649308475	 1.765862578	-1.9381036131	-0.239717
C	-0.8941647352	 3.0942183866	-2.3890485736	-0.133799
C	 0.1572025831	 3.996332475	-1.8173410407	-0.068283
C	 1.2573262419	 3.7111736671	-1.104800741	-0.089869
C	 1.8473329504	 2.4688060062	-0.6035034764	-0.059845
C	 1.3561962577	 1.318549721	-0.1032432827	-0.154297
H	-2.0746383419	 0.9795322549	-0.4572666158	 0.127414
H	-1.3607572299	 2.5652411305	-0.0746627471	 0.117398
H	-0.7665656368	 3.0446841035	-3.4795291965	 0.132481
H	-1.8847134915	 3.5534119701	-2.2197424052	 0.104083
H	 0.003741775	 5.0431114382	-2.0771117704	 0.101763
H	 1.8954309158	 4.5675991613	-0.889823809	 0.103445
H	 2.933996888	 2.5459160261	-0.5535727305	 0.110213
H	 2.070519508	 0.593576556	 0.2777776232	 0.111924
72.8563	130.4983	213.5168	274.9148	290.7329	369.7877	425.281	466.2736	489.7071	622.2391	658.0524	721.3856	773.9371	824.1524	864.4627	874.0312	946.9359	1002.414	1017.9847	1021.7691	1035.782	1059.0121	1171.3882	1216.1486	1271.5049	1287.8635	1298.9817	1314.5759	1377.2816	1407.918	1431.8689	1453.2669	1471.5159	1479.0566	1668.0355	1703.2697	1765.224	2945.3237	3001.4604	3027.0599	3076.775	3111.5962	3125.7883	3146.4161	3171.7425
O=C1COCC=CC=C1	O=C1COCC=CC=C1	
InChI=1S/C7H8O2/c8-7-4-2-1-3-5-9-6-7/h1-4H,5-6H2/b3-1-,4-2-	InChI=1S/C7H8O2/c8-7-4-2-1-3-5-9-6-7/h1-4H,5-6H2/b3-1-,4-2-
