16
gdb 96721	2.5959	1.28283	0.91331	2.1029	72.79	-0.2444	-0.0471	0.1974	1243.8146	0.123753	-471.25701	-471.247696	-471.246752	-471.292173	32.813	
C	-0.1094485342	 1.9708837322	-0.2191649024	-0.30812
N	 0.1173988225	 0.5514573447	-0.4015080692	-0.262052
C	-0.7268155037	-0.3418930323	-0.1021317675	 0.285146
N	-0.304622039	-1.6600033257	-0.4657458184	-0.332876
C	-0.5190235804	-2.9006755091	 0.0555293487	 0.174453
O	-1.2592641099	-3.2183216772	 0.9677162221	-0.325191
C	-2.1505006123	-0.0655201571	 0.4100335492	 0.321082
N	-2.6543746915	-0.9041931485	 1.3357132185	-0.528546
O	-2.723437821	 0.9262764408	-0.0077032037	-0.356644
H	 0.8593205538	 2.4434223208	-0.0312759112	 0.119384
H	-0.5103369766	 2.3911119636	-1.1484893537	 0.145462
H	-0.8107777728	 2.2237645763	 0.5798999376	 0.138289
H	 0.4862480676	-1.5952965925	-1.0954874978	 0.264139
H	 0.0913959238	-3.6518562917	-0.4755489837	 0.109425
H	-2.2320682041	-1.8188127752	 1.4907554787	 0.296447
H	-3.6067928424	-0.7321049791	 1.6193170228	 0.259603
45.1932	50.7489	121.7642	215.9637	258.6112	270.5493	289.1032	320.3295	393.4819	450.0847	506.9222	559.1554	609.3444	684.5518	712.3823	734.5211	813.2749	846.9727	1025.7483	1032.8299	1103.4746	1128.4488	1166.3059	1179.5771	1265.5326	1380.8333	1440.4472	1450.9963	1469.02	1494.1514	1511.9175	1641.301	1728.1649	1775.8319	1796.0562	2985.6489	3031.9534	3092.7933	3114.6884	3394.8318	3570.7873	3656.8005
CN=C(NC=O)C(N)=O	CN=C(NC=O)C(=O)N	
InChI=1S/C4H7N3O2/c1-6-4(3(5)9)7-2-8/h2H,1H3,(H2,5,9)(H,6,7,8)	InChI=1S/C4H7N3O2/c1-6-4(3(5)9)7-2-8/h2H,1H3,(H2,5,9)(H,6,7,8)
