17
gdb 68087	2.51964	1.70419	1.42146	2.0538	74.01	-0.2482	-0.0088	0.2394	1000.8873	0.133361	-421.816866	-421.808323	-421.807379	-421.849662	32.205	
C	 0.0636225608	 1.5234574685	-0.1238460566	-0.51438
C	-0.0099571933	 0.0338717075	 0.0273511303	 0.252293
O	 0.2981680234	-0.7535864945	-1.1676069193	-0.334083
C	-0.3018160875	-1.9088460495	-0.4979940255	 0.252331
C	-0.6285108845	-3.0837881403	-1.3697296436	-0.514376
C	 0.5324663301	-2.0148016694	 0.7636858178	-0.132176
C	 0.7255924366	-0.7302273718	 1.1109620926	-0.132118
C	-1.3528870028	-0.826262643	 0.0183349011	 0.35983
O	-2.5214089979	-0.6815924766	 0.1325061681	-0.306766
H	 1.0833692528	 1.8382744676	-0.3653103799	 0.138607
H	-0.6044502616	 1.8648382692	-0.9182231754	 0.141425
H	-0.2343841701	 2.0092863796	 0.8099532801	 0.134864
H	 0.2808237676	-3.5041771759	-1.8098228973	 0.138606
H	-1.1168818131	-3.8638831376	-0.77832041	 0.134866
H	-1.3036190711	-2.7901957434	-2.1771511833	 0.141426
H	 0.7932875758	-2.9245597767	 1.2854315126	 0.119828
H	 1.1865830148	-0.3084201037	 1.9927049083	 0.119824
125.4118	151.1921	152.9143	201.6349	217.7681	252.9317	361.7488	406.4051	534.002	586.9432	609.951	610.6805	698.0196	739.6951	783.441	809.7412	868.7713	876.902	892.6168	893.0941	917.7205	1056.4907	1080.268	1122.442	1142.0057	1177.845	1215.6106	1350.094	1366.4228	1412.0781	1426.5542	1477.5955	1478.4097	1491.0022	1491.7955	1584.3439	1916.7178	3046.3644	3046.4933	3116.9043	3117.0859	3127.9116	3127.999	3225.1133	3249.7972
CC12OC(C)(C=C1)C2=O	C[C@@]12O[C@@](C)(C=C1)C2=O	
InChI=1S/C7H8O2/c1-6-3-4-7(2,9-6)5(6)8/h3-4H,1-2H3	InChI=1S/C7H8O2/c1-6-3-4-7(2,9-6)5(6)8/h3-4H,1-2H3/t6-,7+
