18
gdb 123745	5.03087	1.01108	0.97172	4.7391	78.06	-0.2545	0.0021	0.2566	1254.5041	0.150474	-398.11874	-398.111283	-398.110338	-398.151543	28.174	
C	-0.1325563404	 1.5258067711	 0.0353016375	-0.212488
C	 1.3991266806	 1.5113380862	-0.2265317527	-0.243664
C	 1.450782332	 0.1429681686	 0.5027334956	 0.094781
C	-0.0728503159	-0.0114652253	 0.2545045665	-0.24367
N	 2.3606044701	-0.8821414738	 0.0416323248	 0.050977
C	 2.512430223	-1.4192386332	-1.1936607239	-0.102766
C	 3.5173838708	-2.3430052264	-1.0422599805	-0.068482
N	 3.9287698157	-2.3301560725	 0.2551946534	-0.192711
N	 3.2298258601	-1.4479598914	 0.9091769177	-0.147225
H	-0.3824520712	 2.0583187745	 0.9563752791	 0.115672
H	-0.7751915094	 1.8939867598	-0.7656267814	 0.10916
H	 1.6226380935	 1.4010593014	-1.2914601277	 0.111479
H	 2.0109503932	 2.3185609692	 0.1803461228	 0.116349
H	 1.6725658032	 0.2637182327	 1.5636395074	 0.119138
H	-0.6681254742	-0.4530252383	 1.0558526773	 0.116347
H	-0.2695842719	-0.5564838504	-0.6730953643	 0.111478
H	 1.9206317419	-1.1146720607	-2.0398314947	 0.14147
H	 3.9591610986	-3.0011033515	-1.7728259571	 0.124157
53.9049	120.4331	132.5936	257.0414	386.6274	390.2691	561.1181	663.3262	718.6379	728.1269	785.2847	786.3616	860.1195	871.9699	917.0959	927.1861	952.5836	962.0027	1011.5296	1047.457	1047.777	1091.345	1123.5708	1141.9369	1197.7373	1202.6497	1246.3168	1250.9055	1259.6194	1278.0384	1290.9689	1297.2563	1340.3669	1399.7736	1476.7529	1487.3378	1497.6279	1507.6699	1525.2162	3063.8438	3067.4021	3072.5725	3108.5059	3121.855	3123.0089	3137.6035	3267.6712	3291.3538
C1CC(C1)N1C=CN=N1	C1CC(C1)n1ccnn1	
InChI=1S/C6H9N3/c1-2-6(3-1)9-5-4-7-8-9/h4-6H,1-3H2	InChI=1S/C6H9N3/c1-2-6(3-1)9-5-4-7-8-9/h4-6H,1-3H2
