21
gdb 106264	2.94261	1.23644	1.07193	2.8152	83.67	-0.2294	0.0178	0.2472	1249.3957	0.181281	-387.078531	-387.069114	-387.06817	-387.112666	35.237	
C	 0.025828318	 1.5341581504	 0.0303636436	-0.388189
C	-0.0328297813	 0.0013263693	-0.0107199944	-0.31406
C	-1.4423880627	-0.5237825712	 0.0118455084	 0.20902
C	-2.6076333321	-0.2751937996	-1.0179148425	-0.302963
C	-3.2856273299	-1.2103541832	 0.0482511664	 0.186245
C	-4.6909641577	-1.7372455422	 0.0726676678	-0.512717
C	-1.935172212	-2.0156287271	 0.0198012911	-0.319398
C	-2.5475132886	-0.3216591029	 1.0617835416	 0.404653
O	-2.7329472461	 0.2307213617	 2.1053469766	-0.345969
H	 1.0614509258	 1.885995252	 0.041883054	 0.113775
H	-0.4659104147	 1.9723088006	-0.844463048	 0.116715
H	-0.4747123657	 1.9173228419	 0.9245366476	 0.142527
H	 0.4851248309	-0.3723484041	-0.9032401689	 0.100409
H	 0.5054478608	-0.4107839284	 0.8522514588	 0.109443
H	-2.9947707125	 0.7413693127	-1.1178142534	 0.108021
H	-2.4512997043	-0.7475585917	-1.9921008941	 0.100374
H	-4.9061150773	-2.3469946035	-0.8109741739	 0.122095
H	-4.8578666976	-2.356689037	 0.9598582658	 0.131473
H	-5.4133802042	-0.9150244484	 0.1005239609	 0.131394
H	-1.7537464935	-2.5528309991	-0.9157025473	 0.100527
H	-1.6897231055	-2.6263900402	 0.8920356596	 0.106625
67.5472	133.7765	159.7201	178.5801	201.0248	208.2187	263.953	303.657	408.5523	514.2863	519.8244	595.2607	659.4369	723.2772	768.7906	802.6437	818.5395	842.1272	922.0532	937.6705	981.4904	1004.4593	1033.9434	1039.6549	1074.6957	1082.0368	1113.0956	1147.9027	1166.9453	1187.1496	1196.8554	1300.3945	1325.7508	1349.7247	1393.4788	1411.875	1420.7294	1483.1551	1487.8412	1489.4252	1494.0174	1499.9655	1509.9277	1535.4727	1897.7178	3020.4223	3033.4108	3038.7938	3048.983	3051.482	3052.3667	3100.8544	3103.8704	3106.5967	3117.2665	3119.7854	3122.7943
CCC12CC(C)(C1)C2=O	CC[C@@]12C[C@@](C)(C1)C2=O	
InChI=1S/C8H12O/c1-3-8-4-7(2,5-8)6(8)9/h3-5H2,1-2H3	InChI=1S/C8H12O/c1-3-8-4-7(2,5-8)6(8)9/h3-5H2,1-2H3/t7-,8+
