21
gdb 91654	2.55325	1.67263	1.37666	1.5554	77.7	-0.2345	0.0837	0.3181	1049.9967	0.182854	-424.211743	-424.203398	-424.202454	-424.243864	34.092	
C	-0.0746992399	 1.6122373765	-0.0804199818	-0.442435
C	 0.125967134	 0.1073236433	 0.0197148742	 0.148566
O	 0.9806279735	-0.419684378	-1.0531819714	-0.324871
C	 1.8867317908	-1.2828855045	-0.323917245	 0.033821
C	 0.9961386385	-1.946597296	 0.7432063884	-0.262109
C	 0.8798615571	-0.466558663	 1.2301312466	-0.144865
C	 2.4004979207	-0.3082815516	 0.7717453286	 0.460099
C	 3.4429292938	-0.7884205615	 1.7693734032	-0.453658
O	 2.8609211818	 0.926726136	 0.2857461465	-0.49326
H	-0.4026106419	 1.8764615399	-1.0908483387	 0.125309
H	-0.8634679233	 1.9174718322	 0.6154994792	 0.116419
H	 0.827656872	 2.1737769279	 0.1630548068	 0.139451
H	-0.8559730007	-0.3743480231	-0.0794196002	 0.077666
H	 2.5300026003	-1.8117033665	-1.0269966877	 0.078421
H	 0.0820549306	-2.4227952891	 0.3839894712	 0.104893
H	 1.5300279147	-2.6123884005	 1.4175413648	 0.108054
H	 0.5301871138	-0.193097328	 2.2251775072	 0.070162
H	 3.1596044661	-1.7005736115	 2.2954127323	 0.116063
H	 4.3958987869	-0.9576229038	 1.2588748383	 0.124082
H	 3.6038350067	-0.0027265617	 2.5139516508	 0.130709
H	 2.4460093246	 1.0370903528	-0.5808124031	 0.287482
168.0284	176.3515	200.342	250.4277	283.3418	327.67	400.1818	407.6292	494.2235	499.1953	580.4444	599.2926	655.4219	714.4286	803.2393	811.0559	837.473	861.3921	914.6295	938.8835	977.6043	1000.7301	1024.5425	1038.2359	1082.3041	1094.7282	1119.2141	1121.2166	1147.143	1166.4258	1211.8504	1229.7285	1260.1189	1262.2978	1290.1167	1341.508	1395.3027	1400.9249	1417.0398	1425.501	1482.4051	1489.035	1494.1321	1509.5782	1512.8923	3004.0313	3043.0311	3048.2296	3088.111	3103.703	3108.5391	3123.785	3128.1087	3140.1979	3148.1924	3165.3826	3743.9892
CC1OC2CC1C2(C)O	C[C@H]1O[C@@H]2C[C@H]1[C@]2(C)O	
InChI=1S/C7H12O2/c1-4-5-3-6(9-4)7(5,2)8/h4-6,8H,3H2,1-2H3	InChI=1S/C7H12O2/c1-4-5-3-6(9-4)7(5,2)8/h4-6,8H,3H2,1-2H3/t4-,5-,6-,7+/m1/s1
