20
gdb 88024	2.25072	1.37242	1.08687	3.9924	83.75	-0.2784	0.0268	0.3052	1215.5625	0.170906	-366.011439	-366.002441	-366.001497	-366.045316	33.769	
C	-0.1027237526	 1.4782462913	-0.0599630445	-0.410235
C	 0.0650849352	-0.0233673419	-0.007598777	-0.053634
C	 1.428915351	-0.6551595018	-0.1821636937	-0.357494
C	 0.7499279971	-0.6904638372	 1.1542224078	 0.342547
C	 1.1545263815	-0.0401916584	 2.4841608414	-0.304254
C	 0.2946343113	-1.1023915158	 3.2255489885	-0.22723
C	 0.2233416466	-1.9388843379	 1.9040851159	-0.218824
C	-1.0645500645	-2.4820655051	 1.5073566532	 0.283401
N	-2.094989098	-2.8898500298	 1.175493939	-0.34157
H	 0.7637535689	 1.9929651912	 0.3677697572	 0.115247
H	-0.2110307351	 1.8210191979	-1.0943947781	 0.124229
H	-0.9917425597	 1.802110946	 0.4925107094	 0.122209
H	-0.7653519942	-0.5851375259	-0.4294123055	 0.109998
H	 1.505313723	-1.5804427281	-0.7450333249	 0.117481
H	 2.2843981106	 0.0058755818	-0.2914612579	 0.112656
H	 2.2232790526	-0.1378483721	 2.6981800447	 0.108845
H	 0.8652928181	 1.002736277	 2.6314009707	 0.112472
H	 0.7437012409	-1.6080258265	 4.0813533084	 0.115553
H	-0.6870778226	-0.7209245853	 3.5104452069	 0.128484
H	 0.9629189099	-2.7465265396	 1.9045920984	 0.120121
71.0001	108.2487	154.8238	182.122	217.2785	245.5918	343.174	404.1317	440.9784	501.5712	557.7911	576.4034	702.9941	780.6926	791.1145	864.4775	895.872	908.949	939.1885	952.3372	1014.8949	1043.2738	1051.9941	1090.2434	1104.1752	1113.6258	1131.7929	1185.2227	1195.4702	1230.4786	1234.4726	1265.9086	1271.2932	1335.9154	1341.1421	1409.6846	1428.0382	1480.7405	1488.3482	1492.2745	1500.2732	1505.9789	2349.0194	3029.5887	3052.5538	3055.1194	3083.1523	3092.8966	3098.219	3105.6359	3116.5927	3138.413	3142.7288	3201.1368
CC1CC11CCC1C#N	C[C@H]1C[C@]21CC[C@H]2C#N	
InChI=1S/C8H11N/c1-6-4-8(6)3-2-7(8)5-9/h6-7H,2-4H2,1H3	InChI=1S/C8H11N/c1-6-4-8(6)3-2-7(8)5-9/h6-7H,2-4H2,1H3/t6-,7-,8-/m0/s1
