17
gdb 46569	3.07309	1.70879	1.35285	1.9106	72.18	-0.2412	-0.0312	0.21	956.774	0.136978	-421.764375	-421.757645	-421.756701	-421.79543	27.476	
O	-0.2078343208	-0.0608812411	-0.1731217239	-0.296231
C	-0.0464160059	 1.1200585816	-0.0402558117	 0.304363
C	-1.2237162738	 2.1654679646	-0.017037509	-0.197157
O	-0.6956528445	 3.4675606922	 0.2944106881	-0.315274
C	 0.579774942	 3.1872956968	 0.7784338357	 0.429206
C	 1.9715458622	 3.8588480325	 0.8343669604	-0.298622
C	 2.1571801511	 2.3437332367	 1.2619100369	-0.095262
C	 0.902382406	 2.5110665934	 2.1544953025	-0.298424
C	 1.2021341349	 1.9865207641	 0.070447614	-0.13147
H	-1.7245862643	 2.2024208406	-0.9898377906	 0.140714
H	-1.954852331	 1.8476864478	 0.7368315048	 0.137822
H	 2.413702775	 4.1543235665	-0.1197592321	 0.106128
H	 2.145953044	 4.5995606363	 1.6181114625	 0.105268
H	 3.096135672	 1.8640610817	 1.5252950683	 0.097879
H	 0.9930149459	 3.1762477093	 3.0154161677	 0.100601
H	 0.3622188332	 1.5956096479	 2.4077416286	 0.112067
H	 1.6002678241	 2.185429559	-0.9320154723	 0.098393
117.8344	185.1876	304.6887	403.5676	463.9608	493.6155	545.7622	595.512	615.7054	703.0783	759.9089	777.9249	848.2612	887.6167	947.2743	956.4684	965.3798	990.2131	999.0266	1022.1024	1051.7427	1088.6303	1109.5812	1118.5356	1150.382	1159.1199	1191.1108	1202.2162	1218.8835	1233.5272	1263.1835	1333.1021	1344.1897	1474.4938	1497.3195	1540.6838	1860.9897	3032.4896	3040.0156	3061.006	3065.4692	3086.568	3130.5345	3135.1853	3154.4658
O=C1COC23CC(C2)C13	O=C1CO[C@@]23C[C@@H](C2)[C@@H]13	
InChI=1S/C7H8O2/c8-5-3-9-7-1-4(2-7)6(5)7/h4,6H,1-3H2	InChI=1S/C7H8O2/c8-5-3-9-7-1-4(2-7)6(5)7/h4,6H,1-3H2/t4-,6-,7-/m0/s1
