18
gdb 123737	4.94103	0.99923	0.95639	2.4202	77.59	-0.2507	0.0088	0.2596	1273.1632	0.151257	-398.14816	-398.140539	-398.139595	-398.182503	28.389	
C	-0.0498976354	 1.53601445	-0.0451030857	-0.215254
C	 1.5010015947	 1.5132523989	-0.0527955162	-0.223956
C	 1.448504339	 0.0768889316	 0.5563477971	-0.055811
C	-0.0296323376	-0.0112252903	 0.0620477502	-0.223934
C	 2.4312695896	-0.94416272	 0.101713422	 0.327533
N	 2.6248376901	-1.2343869623	-1.179965987	-0.276414
N	 3.5810968691	-2.1904695858	-1.1210314293	-0.173701
C	 3.9197977792	-2.43496502	 0.1592778219	 0.010267
N	 3.2144896967	-1.6663636118	 0.9642248021	-0.304607
H	-0.4439586631	 2.000140688	 0.8638370604	 0.100305
H	-0.5547424348	 1.9779293642	-0.9069463927	 0.096123
H	 1.8996088378	 1.4817596909	-1.0699576514	 0.1171
H	 2.0343302536	 2.2785099778	 0.516262509	 0.09667
H	 1.4896606818	 0.1177466153	 1.6469080501	 0.087341
H	-0.7506450073	-0.4953276115	 0.7251168171	 0.096673
H	-0.0750438928	-0.4849265228	-0.9218570199	 0.11708
H	 3.9307300721	-2.6050260605	-1.9691388049	 0.280492
H	 4.6647292071	-3.1616457918	 0.447297257	 0.144092
9.9945	116.7869	144.2357	241.5981	389.0911	394.66	540.1491	572.7629	682.178	724.4676	759.7918	809.0431	851.5747	872.2308	917.447	935.3789	945.2452	988.5347	998.1974	1035.7613	1043.5231	1099.7655	1121.1527	1182.2283	1205.0584	1232.7809	1255.0575	1255.3892	1262.5633	1285.1611	1287.5882	1314.72	1395.2252	1471.0998	1476.2191	1487.5431	1491.2517	1509.6565	1549.2394	3056.3842	3060.2851	3065.5272	3086.2389	3103.4087	3117.2836	3128.6761	3257.0964	3664.8549
C1CC(C1)C1=NNC=N1	C1CC(C1)c1n[nH]cn1	
InChI=1S/C6H9N3/c1-2-5(3-1)6-7-4-8-9-6/h4-5H,1-3H2,(H,7,8,9)	InChI=1S/C6H9N3/c1-2-5(3-1)6-7-4-8-9-6/h4-5H,1-3H2,(H,7,8,9)
