22
gdb 17793	5.24622	1.16193	1.01348	0.0001	82.51	-0.2697	0.0892	0.3589	1226.6488	0.202138	-313.05164	-313.043657	-313.042712	-313.08442	30.681	
C	-0.0594583272	 1.5750490576	-0.0888127047	-0.207966
C	 1.4897278325	 1.5398306064	 0.0042130208	-0.230771
C	 1.3860835527	 0.0977437952	 0.585457302	 0.044202
C	-0.0608506698	 0.0259175392	 0.0115084745	-0.230764
C	 2.4001964832	-0.9429751991	 0.1698246677	 0.044315
C	 3.8471717765	-0.8714191519	 0.7436565751	-0.230758
C	 3.8458521596	-2.4206137455	 0.8426555482	-0.207969
C	 2.296619668	-2.3851469147	 0.7508302903	-0.230754
H	-0.5079548415	 2.0386677991	 0.7948533066	 0.099434
H	-0.5047594894	 2.02685139	-0.9783203702	 0.093183
H	 1.9526172252	 1.5319256389	-0.988607726	 0.094839
H	 1.9854506632	 2.3024653871	 0.6100339528	 0.092338
H	 1.343372884	 0.1467763795	 1.6815704724	 0.058272
H	-0.8321979658	-0.4485537601	 0.6232857848	 0.092338
H	-0.0687914483	-0.4416922438	-0.9790979284	 0.094839
H	 2.4429552015	-0.9919732609	-0.9263080315	 0.058289
H	 4.6184593549	-0.3962571922	 0.1323535036	 0.092325
H	 3.8549976414	-0.4047767609	 1.7347431976	 0.09484
H	 4.2935146741	-2.8833631897	-0.0419122679	 0.099434
H	 4.2919101977	-2.8733128118	 1.7313147209	 0.093168
H	 1.8346203772	-2.3771747881	 1.7440877117	 0.09484
H	 1.8001795802	-3.1476035544	 0.1453868094	 0.092325
75.8362	102.954	153.1216	155.4536	332.7278	346.8751	417.8033	588.2254	668.6994	745.0496	777.242	788.7467	844.0052	893.9765	904.7095	931.1094	934.0778	950.3285	955.0556	973.2151	1006.1223	1008.4773	1060.1113	1082.38	1132.4486	1197.8512	1204.8096	1207.2166	1228.9803	1254.1764	1255.6604	1256.5078	1260.2501	1264.6774	1274.5966	1287.1604	1290.1295	1292.9881	1332.2808	1409.2197	1478.0973	1478.5612	1485.7327	1486.2765	1509.7066	1510.794	3008.6618	3021.8116	3041.9134	3043.3106	3047.1436	3047.3677	3055.3659	3055.9472	3093.0072	3093.6164	3098.0162	3098.7646	3113.7456	3115.069
C1CC(C1)C1CCC1	C1CC(C1)C1CCC1	
InChI=1S/C8H14/c1-3-7(4-1)8-5-2-6-8/h7-8H,1-6H2	InChI=1S/C8H14/c1-3-7(4-1)8-5-2-6-8/h7-8H,1-6H2
