19
gdb 46073	3.74716	1.05475	0.91484	4.1024	75.81	-0.2439	0.0638	0.3076	1298.2979	0.162197	-419.246357	-419.238206	-419.237262	-419.279506	31.265	
O	-0.1139028768	-0.0024810274	-0.2657591696	-0.409323
C	-0.0526031167	 1.195361832	-0.1054450452	 0.421898
N	-1.0882477029	 2.1103346917	-0.2582910232	-0.339086
C	-0.706590976	 3.4192755064	 0.2469749208	-0.178862
C	 0.8385286946	 3.3668799646	 0.1106794408	-0.006509
N	 1.0681514366	 1.9324290039	 0.266102152	-0.333333
C	 1.3424615485	 3.9160234471	-1.2090700221	 0.028255
C	 1.7075546842	 5.3735066909	-1.3274809395	-0.271693
C	 2.7887277878	 4.3218779529	-1.3491400387	-0.280422
H	-2.0254576926	 1.759174882	-0.1442236052	 0.251754
H	-1.1340902707	 4.2314533048	-0.3475055546	 0.117606
H	-0.9970705202	 3.5635941016	 1.2971766381	 0.10579
H	 1.3114774351	 3.9221887354	 0.9292394379	 0.08071
H	 1.9643475857	 1.538866503	 0.0227445772	 0.249244
H	 0.8809443767	 3.4567214716	-2.0793331369	 0.100142
H	 1.4689960412	 5.8904479737	-2.2499011757	 0.117964
H	 1.6244351051	 5.9923546716	-0.4393984947	 0.112847
H	 3.4275655329	 4.2409192396	-0.4748635506	 0.113539
H	 3.2936086075	 4.1173155745	-2.2863315507	 0.11948
80.2601	95.6895	157.9822	231.7067	294.5246	364.24	426.1289	493.2677	525.0135	567.1593	719.3962	760.2043	771.1448	774.2337	835.6073	840.45	917.2997	940.0456	971.7251	1001.3721	1006.9102	1057.2894	1079.7935	1082.4736	1122.5865	1143.1605	1177.0841	1198.4364	1220.8537	1234.0381	1258.2547	1280.1716	1333.2328	1367.0413	1410.5846	1429.9471	1441.8305	1470.1201	1505.9855	1528.8573	1851.0278	2998.2234	3032.7106	3081.388	3128.1455	3132.6472	3146.2778	3207.8506	3222.5273	3631.902	3647.4197
O=C1NCC(N1)C1CC1	O=C1NC[C@@H](N1)C1CC1	
InChI=1S/C6H10N2O/c9-6-7-3-5(8-6)4-1-2-4/h4-5H,1-3H2,(H2,7,8,9)	InChI=1S/C6H10N2O/c9-6-7-3-5(8-6)4-1-2-4/h4-5H,1-3H2,(H2,7,8,9)/t5-/m1/s1
