16
gdb 54921	4.76491	0.89373	0.79652	2.4507	70.05	-0.2582	-0.0375	0.2207	1380.275	0.12205	-437.89293	-437.883788	-437.882844	-437.928868	31.308	
C	-1.2024171659	 0.6702105773	-0.1913220906	-0.481332
C	 0.2813928412	 0.4221440637	-0.0582529323	 0.351646
O	 0.9708050451	 0.9009575501	 0.8114058885	-0.287345
C	 0.9095995501	-0.479889605	-1.1212589433	 0.04995
C	 2.1033798325	-1.3429326593	-0.6823066015	-0.309944
C	 1.1847583685	-2.5391686943	-1.0484026239	-0.000267
O	 0.1002242339	-1.6550793736	-1.4068849673	-0.29386
C	 1.6243406922	-3.3658895724	-2.1753103252	 0.278187
N	 1.9854153202	-4.0184078574	-3.0579001593	-0.311271
H	-1.4173844541	 1.1466193035	-1.1551349999	 0.147383
H	-1.7376088055	-0.2840886524	-0.1895110105	 0.163636
H	-1.5483533812	 1.308078285	 0.6222600811	 0.146701
H	 1.0709019063	 0.1135587816	-2.03246601	 0.118446
H	 3.0075506363	-1.2513208883	-1.2811586487	 0.142396
H	 2.3438419002	-1.2560241118	 0.3763041733	 0.149204
H	 0.9086914601	-3.1948535468	-0.2151684403	 0.136471
25.7874	44.6413	110.8125	125.2636	199.7292	242.2795	304.0081	398.9655	484.282	531.9317	577.8214	613.1786	714.4356	768.1506	875.5372	939.327	950.2808	982.2768	1006.2749	1035.6781	1066.4298	1083.2763	1146.2228	1206.411	1246.0958	1254.5802	1287.3166	1347.6578	1370.7066	1382.6845	1461.6815	1467.1881	1493.254	1815.7456	2358.3855	3010.0061	3042.4136	3050.6519	3107.5835	3110.8396	3160.8888	3173.0999
CC(=O)C1CC(O1)C#N	CC(=O)[C@H]1C[C@@H](O1)C#N	
InChI=1S/C6H7NO2/c1-4(8)6-2-5(3-7)9-6/h5-6H,2H2,1H3	InChI=1S/C6H7NO2/c1-4(8)6-2-5(3-7)9-6/h5-6H,2H2,1H3/t5-,6-/m1/s1
