25
gdb 101028	2.46488	0.96064	0.91928	1.4439	88.48	-0.2613	0.0797	0.341	1493.0121	0.227253	-389.478472	-389.467419	-389.466475	-389.514609	41.147	
C	-0.2648953094	 1.631515075	 0.0789759974	-0.402705
C	-0.1104786855	 0.1069346131	 0.1052085354	-0.256253
C	 0.7377299857	-0.4895589002	 1.2307751933	 0.379088
C	 2.0685102998	 0.1442700069	 1.5676702581	-0.317232
C	 0.9131555093	 0.2546969723	 2.534444179	-0.314397
C	 0.6827139686	-2.0173389324	 1.3545942853	-0.023387
C	-0.69134104	-2.5471110485	 1.7910704243	-0.406479
C	 1.1658114049	-2.7143770943	 0.0791753947	-0.089694
O	 1.3561458485	-4.0919402794	 0.3799568577	-0.42499
H	 0.6990771217	 2.1470400901	 0.0235932424	 0.118408
H	-0.8439623766	 1.9324958668	-0.799519759	 0.112973
H	-0.7953682395	 2.0023380646	 0.9610420938	 0.121083
H	-1.1136072944	-0.334443251	 0.1490826177	 0.100164
H	 0.3142897248	-0.2141267219	-0.8551712735	 0.098083
H	 2.8931500331	-0.5120765527	 1.8267311758	 0.107992
H	 2.3735043141	 1.0408594376	 1.0388652485	 0.106402
H	 0.4481547247	 1.225609319	 2.6572155788	 0.107719
H	 0.9534272466	-0.3303461871	 3.4475959323	 0.106501
H	 1.4041123915	-2.2990288103	 2.1334323144	 0.076578
H	-1.4653503419	-2.3324733329	 1.0460649097	 0.108436
H	-0.6491278446	-3.6311022681	 1.9195197829	 0.13001
H	-1.0029826045	-2.0949691534	 2.737663677	 0.109191
H	 0.4249351664	-2.5902953111	-0.7261800923	 0.082849
H	 2.1056725229	-2.2507279312	-0.2599207656	 0.084955
H	 1.5782703838	-4.5496864907	-0.435604818	 0.284706
56.5299	75.9306	109.1045	172.011	214.1369	223.9842	242.648	271.5375	281.7919	299.3282	337.4664	350.6369	465.127	491.4631	528.463	691.356	778.7261	785.7799	851.684	901.4332	915.6769	926.4049	945.0159	955.7565	1026.2308	1040.071	1056.2777	1068.9027	1083.3292	1090.6892	1117.4638	1148.2128	1167.1523	1190.6084	1233.261	1258.9351	1278.5766	1300.5053	1317.7222	1360.9325	1386.238	1391.2939	1399.2201	1415.8798	1455.3169	1469.3493	1488.4144	1494.1088	1501.9728	1506.7504	1509.1942	1516.8479	1522.0488	2965.6748	2993.8786	3015.3443	3019.0905	3038.4311	3040.557	3049.1637	3101.9774	3104.3631	3110.3715	3126.3165	3127.1935	3134.7566	3203.7025	3220.9186	3833.1889
CCC1(CC1)C(C)CO	CCC1(CC1)[C@@H](C)CO	
InChI=1S/C8H16O/c1-3-8(4-5-8)7(2)6-9/h7,9H,3-6H2,1-2H3	InChI=1S/C8H16O/c1-3-8(4-5-8)7(2)6-9/h7,9H,3-6H2,1-2H3/t7-/m0/s1
