23
gdb 117329	4.26739	0.61148	0.58166	1.0133	82.93	-0.2441	-0.0104	0.2337	2005.3048	0.202045	-425.452788	-425.441261	-425.440317	-425.490961	40.387	
C	 0.3457968659	 1.7253249198	-0.065819273	-0.388957
C	 0.0746301044	 0.2151288072	-0.0279976941	 0.053325
C	 0.6963187262	-0.4897450629	-1.2402179992	-0.396637
C	 0.5776793113	-0.4111174604	 1.2800573912	-0.292477
C	-0.213554546	-0.0230234804	 2.5237670941	 0.366218
O	-1.298656457	 0.5139315047	 2.4599070903	-0.310123
C	 0.4257618085	-0.3699638661	 3.8582242779	-0.279635
C	-0.4892585351	-0.12933979	 5.0494202372	-0.074915
O	 0.2418751465	-0.4768330937	 6.2167727753	-0.425084
H	 1.4227750615	 1.9314265231	-0.0252534185	 0.103788
H	-0.039707869	 2.1677061335	-0.9901325085	 0.111021
H	-0.1342202498	 2.2333917956	 0.7741790314	 0.129946
H	-1.0115084134	 0.0692725479	-0.0559181692	 0.09443
H	 1.7881898799	-0.3847005871	-1.2431486397	 0.109804
H	 0.4659886845	-1.5607490075	-1.2456995353	 0.108064
H	 0.3221167828	-0.0621585946	-2.1761025861	 0.112749
H	 0.52955275	-1.5092101751	 1.2199806803	 0.119842
H	 1.6397864067	-0.1826777023	 1.4458616505	 0.109761
H	 0.762397083	-1.4145303364	 3.8430025492	 0.12614
H	 1.3416808879	 0.2265781592	 3.9690416136	 0.132672
H	-0.8056460656	 0.9226258506	 5.0625942771	 0.104288
H	-1.4001119442	-0.7366982407	 4.9444410238	 0.098552
H	-0.3208588192	-0.3144889745	 6.9792795618	 0.287227
30.8384	52.744	88.0118	97.0045	121.6842	216.2234	229.0599	254.4958	272.5516	281.1752	347.3136	379.8918	415.1319	440.0357	477.9	694.6297	741.8812	831.8862	868.7363	878.3923	931.2492	959.6864	970.9648	1009.4065	1029.0817	1053.8229	1098.2736	1137.3502	1163.1679	1195.4121	1207.0293	1252.2019	1258.1828	1304.1799	1308.2043	1349.7242	1364.9512	1392.0962	1401.109	1421.2666	1443.9413	1450.4247	1469.9304	1488.9269	1494.4396	1506.2833	1513.209	1522.6116	1795.4041	2995.2489	3001.7976	3021.8024	3025.2541	3026.2742	3028.5025	3033.2661	3048.3831	3064.3378	3085.7701	3093.0048	3098.6311	3121.7428	3831.4762
CC(C)CC(=O)CCO	CC(C)CC(=O)CCO	
InChI=1S/C7H14O2/c1-6(2)5-7(9)3-4-8/h6,8H,3-5H2,1-2H3	InChI=1S/C7H14O2/c1-6(2)5-7(9)3-4-8/h6,8H,3-5H2,1-2H3
