16
gdb 15916	3.58738	1.87101	1.51862	1.3202	70.9	-0.2476	0.0293	0.2769	865.9848	0.130068	-346.534445	-346.527215	-346.526271	-346.565952	27.636	
C	 0.0453941899	-1.2015333886	-0.2136874625	-0.410036
C	 0.0234334002	-0.0050020146	-0.0862273329	 0.1775
C	-0.0032776347	 1.422490398	 0.0610887944	 0.139326
C	-0.5275070593	 2.2940579507	-1.13115973	-0.288759
C	 0.7700831261	 3.1573302129	-1.0886725298	-0.227043
C	 1.2530883565	 2.3692321651	 0.1432189822	 0.073257
O	 0.7875754845	 2.9328356631	 1.3817318614	-0.287375
C	-0.3341164195	 2.0279123388	 1.44645192	-0.116846
H	 0.0670830136	-2.2574806925	-0.3230742573	 0.190221
H	-0.6479126455	 1.721793361	-2.0516674695	 0.12024
H	-1.463042173	 2.8177352388	-0.9198119737	 0.107173
H	 1.4057730688	 3.0138508338	-1.9663633993	 0.10833
H	 0.6466448513	 4.2267049018	-0.9070766429	 0.11489
H	 2.2896589806	 2.0278329348	 0.1983776902	 0.084271
H	-1.2951720619	 2.5506027765	 1.5274780776	 0.103111
H	-0.2311235377	 1.3169511504	 2.2744410819	 0.111741
84.2004	154.8214	173.7042	332.1218	366.6591	488.9863	513.9335	572.386	619.9985	626.5274	668.1181	741.7239	858.8705	877.1736	911.5331	938.1059	955.1259	1008.6852	1037.0674	1075.1151	1108.3691	1136.1597	1172.1115	1190.6259	1224.8807	1249.8436	1272.6008	1282.9613	1324.2078	1366.0598	1462.6824	1485.426	1523.6957	2230.5889	3015.6048	3063.7644	3066.576	3070.2368	3084.1352	3119.1321	3136.8994	3501.7826
C#CC12CCC1OC2	C#C[C@]12CC[C@H]1OC2	
InChI=1S/C7H8O/c1-2-7-4-3-6(7)8-5-7/h1,6H,3-5H2	InChI=1S/C7H8O/c1-2-7-4-3-6(7)8-5-7/h1,6H,3-5H2/t6-,7-/m1/s1
