17
gdb 70806	3.02565	1.58826	1.24979	2.0057	74.2	-0.2549	0.0182	0.2731	1026.0294	0.135349	-417.952988	-417.945019	-417.944074	-417.984965	31.297	
C	 0.0237979172	 1.4920226342	 0.0795267684	-0.494814
C	-0.0369981767	-0.0018177874	 0.0431558603	 0.343627
C	-1.2723264838	-0.8833122281	-0.1899449397	-0.329538
C	-0.3590336431	-2.0814288613	 0.1570210703	 0.326374
O	-0.8933740219	-3.2556330684	 0.6062518652	-0.46758
C	 0.6320425122	-1.0157464843	 0.8681551429	-0.194099
N	 1.1811345562	-0.7211409241	-0.5270011435	-0.238877
C	 0.6863623578	-2.0274063688	-0.918719623	 0.347807
N	 1.1321921214	-2.9209738789	-1.6814298059	-0.574721
H	 1.027923586	 1.8301674485	 0.34700009	 0.138907
H	-0.2288520801	 1.9141700643	-0.8986953999	 0.132454
H	-0.6864148427	 1.8859750718	 0.8138751851	 0.126029
H	-2.0186591761	-0.7113311394	 0.5901473437	 0.119415
H	-1.7458049466	-0.8881557111	-1.1774242447	 0.110228
H	-0.3314705558	-3.9718959003	 0.281644519	 0.303815
H	 1.2693762593	-1.0169856407	 1.7413465679	 0.120273
H	 1.9478917267	-2.5897806362	-2.2012584861	 0.230701
145.0135	195.5025	203.723	235.7838	258.6841	367.9268	404.0647	443.53	494.4499	548.1996	658.2458	671.2912	712.5239	781.7062	812.7804	848.8751	867.6495	909.5735	950.0613	991.3414	1007.761	1017.9168	1035.5008	1081.8868	1114.725	1145.3217	1203.6718	1238.1681	1273.0142	1374.9707	1399.1448	1412.9268	1437.8233	1484.22	1491.2619	1503.3345	1814.304	3038.3946	3047.8369	3102.6872	3113.1114	3125.1416	3221.1985	3458.6039	3767.4256
CC12CC3(O)C1N2C3=N	C[C@]12C[C@]3(O)[C@H]1N2[C]3[NH]	
InChI=1S/C6H8N2O/c1-5-2-6(9)3(5)8(5)4(6)7/h3,7,9H,2H2,1H3	InChI=1S/C6H8N2O/c1-5-2-6(9)3(5)8(5)4(6)7/h3,7,9H,2H2,1H3/t3-,5-,6-,8?/m0/s1
