12
gdb 131960	4.70202	1.14271	0.92458	3.4679	60.99	-0.3171	-0.1208	0.1963	1163.1075	0.076305	-505.848706	-505.841165	-505.840221	-505.881891	25.871	
C	 0.0126986165	 1.4647014173	 0.0162015722	-0.488903
C	 0.0033862379	-0.0221236348	 0.0067957717	 0.376339
N	-0.0726826471	-0.7225292015	-1.1015608824	-0.140052
O	-0.0520955923	-2.051838727	-0.6642551018	-0.164128
C	 0.0338935798	-1.9764388209	 0.654464285	 0.539873
N	 0.0733266757	-0.7907367746	 1.1533335122	-0.321339
N	 0.0746333622	-3.242173455	 1.3966073675	 0.346489
O	 0.0258841267	-4.2588514963	 0.7251514516	-0.323511
O	 0.1529629954	-3.15168503	 2.6065646273	-0.314318
H	 0.9301737786	 1.8315129493	 0.4851138237	 0.163743
H	-0.0520753472	 1.8484761265	-1.0025608614	 0.162063
H	-0.8310445762	 1.841823127	 0.6010520944	 0.163744
42.6186	136.7408	160.1596	190.0558	323.6944	348.0291	415.5338	542.5862	634.5393	695.6002	699.9072	802.6722	846.2972	921.3827	995.3364	1041.9603	1052.7049	1071.5408	1295.4745	1355.9971	1389.2845	1417.733	1469.6163	1473.274	1538.6713	1624.9052	1671.6991	3057.2591	3120.8161	3157.9677
CC1=NOC(=N1)N(=O)=O	Cc1noc(n1)N(=O)=O	
InChI=1S/C3H3N3O3/c1-2-4-3(6(7)8)9-5-2/h1H3	InChI=1S/C3H3N3O3/c1-2-4-3(6(7)8)9-5-2/h1H3
