18
gdb 90696	3.36583	1.39077	1.06663	7.6586	81.29	-0.1669	-0.0232	0.1437	1129.8284	0.148593	-401.894018	-401.886236	-401.885292	-401.926254	30.398	
C	-0.2421508528	 1.5186245885	-0.0055178011	-0.430907
C	 0.1137993775	 0.0504196894	-0.1192684975	 0.078894
C	 1.3397766441	-0.4014845453	-0.9396434485	-0.286398
C	 1.7755795904	-1.2211219706	 0.2749141152	-0.171534
N	 0.7416195049	-0.5438944159	 1.1699290338	-0.114983
H	 1.1280350896	 0.1943463157	 1.7611925366	 0.272234
C	 0.1137925766	-1.5794573348	 1.9817032594	-0.114821
C	 0.6054574368	-2.7614635035	 1.6112720142	-0.164699
C	 1.5294077986	-2.6210785987	 0.4104496202	 0.341142
O	 1.8973300356	-3.5655644105	-0.2835976957	-0.423664
H	 0.6361075067	 2.1219402195	 0.2495560632	 0.133408
H	-0.6142830054	 1.8736687847	-0.971322536	 0.150158
H	-1.0230034806	 1.6960788921	 0.7418107362	 0.128975
H	-0.762009807	-0.5669295089	-0.3250969698	 0.123414
H	 1.1035246388	-0.9841576579	-1.834300909	 0.124693
H	 1.9994324024	 0.4277183859	-1.225842386	 0.09501
H	-0.5495317187	-1.286262522	 2.7835785233	 0.134124
H	 0.3328273925	-3.7186315175	 2.0368093712	 0.124955
90.0524	167.0028	216.9003	255.9788	280.5299	369.2523	417.4009	498.325	599.4494	644.4162	687.858	726.2551	774.2247	796.3721	824.8501	864.3621	894.5864	948.5018	951.862	1002.8997	1020.8861	1055.5203	1070.4889	1090.1764	1127.534	1158.9614	1190.8926	1245.8756	1297.0916	1308.7653	1318.9982	1344.1135	1381.0556	1410.3814	1488.8305	1492.2936	1510.7911	1636.715	1735.8755	3010.8118	3031.7871	3081.7914	3095.5384	3112.0065	3118.9635	3216.1068	3241.9923	3419.6492
CC1C[C-]2[NH+]1C=CC2=O	C[C@H]1C[C]2[NH]1C=CC2=O	
InChI=1S/C7H9NO/c1-5-4-6-7(9)2-3-8(5)6/h2-3,5,8H,4H2,1H3	InChI=1S/C7H9NO/c1-5-4-6-7(9)2-3-8(5)6/h2-3,5,8H,4H2,1H3/t5-/m0/s1
