14
gdb 131360	5.49439	0.87755	0.76442	1.529	67.81	-0.2262	-0.0053	0.2209	1382.4063	0.101731	-470.014144	-470.006084	-470.00514	-470.047438	29.176	
O	 0.5990561754	 1.1128774769	 0.4191115606	-0.426267
C	 0.2022294416	-0.1415770238	 0.1318405316	 0.445131
N	-0.3192987345	-0.454397688	-1.0423966963	-0.330943
N	-0.5786885721	-1.7911130517	-0.9331614832	-0.284017
C	-0.2369659596	-2.2756440937	 0.2769408093	 0.493741
O	-0.4772653615	-3.5831538421	 0.5370467886	-0.212802
C	 0.3850751154	-4.2361816734	 1.3738765792	 0.111464
N	 0.0787140609	-5.3856196554	 1.7767752451	-0.420214
C	 0.2840066916	-1.2380673809	 1.0234245679	-0.449465
H	 0.4155753798	 1.6527530327	-0.3605783188	 0.305044
H	-0.9966694613	-2.2945941016	-1.6958922355	 0.283528
H	 1.2883309125	-3.6560656779	 1.5873043872	 0.120403
H	 0.8208820159	-5.7610319276	 2.3637663946	 0.242685
H	 0.6264063759	-1.2466718533	 2.0429450596	 0.121712
65.2396	100.6444	145.2688	253.2301	319.3205	378.4424	420.672	434.9337	471.7051	518.5744	671.7445	700.1416	712.5663	762.3469	817.508	837.8525	996.9346	1021.5338	1051.465	1072.8306	1142.1143	1194.0667	1235.7471	1264.5255	1335.4191	1402.6372	1453.9286	1559.8755	1568.794	1619.4053	1752.8637	3079.614	3288.5974	3523.9604	3689.9409	3790.1172
OC1=NNC(OC=N)=C1	Oc1n[nH]c(O[CH][NH])c1	
InChI=1S/C4H5N3O2/c5-2-9-4-1-3(8)6-7-4/h1-2,5H,(H2,6,7,8)	InChI=1S/C4H5N3O2/c5-2-9-4-1-3(8)6-7-4/h1-2,5H,(H2,6,7,8)
