15
gdb 43887	2.96363	1.43237	1.12555	2.6432	72.96	-0.2485	-0.0065	0.242	1060.2328	0.113956	-412.952672	-412.944986	-412.944042	-412.984919	29.146	
N	-0.0880859731	 1.100584647	-0.6328396151	-0.545104
C	-0.0282323511	-0.0780850327	-0.1973186428	 0.446844
N	 0.9792408931	-0.9549912174	 0.2377195618	-0.385966
C	 0.0746806425	-2.0400971215	 0.6047526445	 0.207365
C	-0.6220142589	-1.9662688635	 1.9991535176	-0.216033
N	-1.60057234	-0.9758612846	 1.4845497189	-0.308953
C	-1.1094956074	-1.1222413076	 0.0950968393	-0.171889
C	 0.425285285	-3.3501045793	 0.0945896039	 0.234424
N	 0.6886620775	-4.4084066172	-0.2897358287	-0.334754
H	 0.8229953004	 1.5617741539	-0.6417786658	 0.218512
H	 1.8562283751	-0.7261891924	 0.685806138	 0.250593
H	-1.0592862298	-2.9304360575	 2.2793208796	 0.128405
H	 0.0039343749	-1.6022521475	 2.8202755062	 0.119547
H	-2.564401475	-1.260692277	 1.6013532347	 0.239274
H	-1.8208785532	-1.3976049027	-0.6814206122	 0.117736
97.1262	149.2039	189.6821	246.7011	350.1388	405.8835	427.0538	482.6072	543.3301	584.0366	652.9587	672.8859	773.2754	826.489	846.8459	895.254	965.3791	994.2029	1021.2162	1035.1717	1038.8655	1104.5281	1135.1678	1155.3142	1235.431	1255.8347	1302.2199	1334.3846	1354.0242	1389.1914	1499.7977	1814.4506	2352.6235	3036.3498	3088.057	3141.846	3467.1135	3567.3943	3588.7736
N=C1NC2(CNC12)C#N	[NH][C]1N[C@]2(CN[C@@H]12)C#N	
InChI=1S/C5H6N4/c6-1-5-2-8-3(5)4(7)9-5/h3,8H,2H2,(H2,7,9)	InChI=1S/C5H6N4/c6-1-5-2-8-3(5)4(7)9-5/h3,8H,2H2,(H2,7,9)/t3-,5-/m0/s1
