14
gdb 48296	3.18605	0.86057	0.70402	4.3923	69.77	-0.2857	-0.059	0.2266	1500.1262	0.096202	-436.638929	-436.629226	-436.628282	-436.675176	32.276	
O	-0.4650489384	 0.5036088384	 0.7838171654	-0.211117
C	-0.0390632807	 1.126633662	-0.1428469602	 0.14805
C	 1.3184352176	 1.8638539838	-0.1326580131	-0.093379
O	 1.2843097879	 2.7771177164	-1.1962215571	-0.245542
C	 2.5477745602	 3.3818399933	-1.487027563	-0.229239
C	 2.41916022	 4.2142299631	-2.670572145	 0.284611
C	 2.339970614	 4.9090236888	-3.6460018749	-0.399789
C	 1.5879940599	 2.498090956	 1.17008174	 0.288661
N	 1.823112797	 3.0273299283	 2.1693472307	-0.312075
H	-0.5537374562	 1.2233203407	-1.1201608305	 0.124105
H	 2.0934605094	 1.0912380311	-0.2933336327	 0.144748
H	 2.8821679275	 3.9847341238	-0.6304925826	 0.156687
H	 3.3036158715	 2.5973049352	-1.6526034186	 0.132027
H	 2.2660298902	 5.525280909	-4.5082171885	 0.212251
46.8522	54.1295	91.9267	114.3483	154.2854	224.7373	259.0633	332.1637	366.0073	416.4698	511.5768	583.9402	622.9001	694.0421	698.1822	782.3532	968.7014	1003.3779	1022.2965	1031.7793	1085.3375	1141.9086	1258.7435	1276.1461	1320.9485	1384.6403	1424.0926	1498.5245	1858.8377	2252.3763	2360.4321	2940.9196	2942.5376	2977.8922	3021.7095	3503.7726
O=CC(OCC#C)C#N	O=C[C@@H](OCC#C)C#N	
InChI=1S/C6H5NO2/c1-2-3-9-6(4-7)5-8/h1,5-6H,3H2	InChI=1S/C6H5NO2/c1-2-3-9-6(4-7)5-8/h1,5-6H,3H2/t6-/m0/s1
