18
gdb 66327	2.48342	1.40515	1.29899	4.7501	78.03	-0.2655	-0.0083	0.2571	1088.4665	0.148157	-401.967595	-401.959175	-401.958231	-402.000446	31.867	
C	-0.0551062452	 1.5506492198	-0.0086371105	-0.428631
C	-0.0114653882	 0.0072972865	 0.0063684644	 0.038799
C	 0.7360913237	-0.5157858945	-1.2460069358	-0.102415
O	 1.0043600934	-1.8938789327	-1.1568537056	-0.244392
C	 1.9076775414	-2.2111532802	-0.1149722204	-0.123458
C	 1.6114289681	-1.4848551725	 1.1653945423	-0.079511
C	 0.7220301329	-0.5000278983	 1.2391260827	-0.075865
C	-1.3914005881	-0.509123869	 0.0143893241	 0.276541
N	-2.4817020335	-0.8932388402	 0.0276764492	-0.343094
H	 0.9635726803	 1.948188819	 0.0145111042	 0.129144
H	-0.5578348165	 1.9192740205	-0.907307535	 0.13762
H	-0.5949785587	 1.9302536221	 0.862597459	 0.139892
H	 0.1330783242	-0.3701812631	-2.1455138987	 0.127822
H	 1.6667638761	 0.0657159123	-1.348822815	 0.095538
H	 1.8315046012	-3.2939921787	 0.0349465956	 0.132244
H	 2.947801284	-2.0041536716	-0.4279251458	 0.105667
H	 2.1656648434	-1.8018932358	 2.0446816421	 0.107938
H	 0.4976561314	-0.0057416137	 2.1796687631	 0.106161
87.6747	149.1606	188.3422	237.9394	279.6558	293.2496	332.1696	430.5464	461.825	494.5475	572.3609	609.7622	681.9501	733.3826	820.6906	905.4512	907.2012	933.8313	991.7217	1010.7131	1021.9063	1060.3335	1109.6887	1128.765	1189.1585	1211.6205	1248.4854	1268.8091	1325.405	1367.2738	1397.4378	1408.1347	1425.6679	1480.8835	1488.9533	1493.2503	1497.6686	1722.9592	2349.9967	2939.21	2976.8042	3044.1206	3062.0391	3101.6723	3122.0204	3125.8068	3160.7675	3182.3319
CC1(COCC=C1)C#N	C[C@]1(COCC=C1)C#N	
InChI=1S/C7H9NO/c1-7(5-8)3-2-4-9-6-7/h2-3H,4,6H2,1H3	InChI=1S/C7H9NO/c1-7(5-8)3-2-4-9-6-7/h2-3H,4,6H2,1H3/t7-/m1/s1
