16
gdb 33057	6.39596	0.80691	0.72304	3.9354	69.32	-0.2176	0.0214	0.239	1516.4024	0.123194	-475.022753	-475.014108	-475.013164	-475.057156	30.316	
C	 0.5438420391	 1.4721874976	 0.1750198223	-0.227185
O	 0.7658815507	 0.0815723755	 0.0894343936	-0.233747
C	-0.0200118363	-0.6508984147	 0.9934484795	-0.171406
C	 0.3004031099	-2.0896350577	 0.8098583373	 0.293081
C	 1.1282539318	-2.7511562697	 0.0100438059	-0.131056
O	 1.0138051865	-4.1093810356	 0.2746913368	-0.219878
C	 0.0795853089	-4.2429631603	 1.270753479	 0.494792
N	-0.3378051381	-5.291633073	 1.820866644	-0.579938
O	-0.3697825192	-2.9967103657	 1.6105866931	-0.232164
H	 0.7881597505	 1.8609179581	 1.1753174241	 0.113877
H	 1.1954614761	 1.94815239	-0.5604258696	 0.136384
H	-0.5017037224	 1.7305030669	-0.0519244778	 0.113878
H	 0.1800316236	-0.3537553838	 2.0383988497	 0.117803
H	-1.0983379475	-0.4833070053	 0.8220827568	 0.117809
H	 1.8209340392	-2.4435481474	-0.7504626023	 0.170946
H	 0.1204370073	-6.1085104847	 1.4260728077	 0.236803
57.4106	67.9202	120.9365	174.1047	223.5435	286.5313	341.0659	351.1261	513.8742	582.1257	723.9154	727.5149	756.5145	775.2036	776.5106	917.1975	983.9778	1008.5107	1018.4871	1052.6078	1092.8108	1166.1201	1183.8754	1201.2802	1229.0504	1235.9798	1256.1061	1335.664	1439.9101	1483.3794	1485.5475	1501.8366	1522.6263	1750.8052	1814.191	2944.7659	2962.6091	2980.5575	3028.5621	3126.5875	3325.9041	3548.8662
COCC1=COC(=N)O1	COCC1=CO[C@H]([NH])O1	
InChI=1S/C5H7NO3/c1-7-2-4-3-8-5(6)9-4/h3,6H,2H2,1H3	InChI=1S/C5H8NO3/c1-7-2-4-3-8-5(6)9-4/h3,5-6H,2H2,1H3/t5-/m0/s1
