19
gdb 106542	2.14542	1.65063	1.17003	2.4097	76.29	-0.2256	0.0082	0.2338	1132.2185	0.157829	-422.984043	-422.975002	-422.974058	-423.017933	33.32	
C	 0.539374464	 1.6354399039	-0.4394055528	-0.273371
O	 0.5978092473	 0.2258397092	-0.2461019586	-0.291985
C	 0.9673996947	-0.4692886126	-1.3598652329	 0.305875
C	 2.3681066623	-0.5184977973	-2.1057278215	-0.320667
C	 1.4919454371	-1.5664775139	-2.865185913	-0.197852
C	 0.927407535	-2.0331584317	-1.4665217396	-0.020384
C	 1.7636078166	-2.8891471843	-0.5254536825	-0.443106
C	 0.3894961166	-0.4961539616	-2.7920181622	 0.386498
O	-0.4359305173	 0.032023507	-3.4730485376	-0.339968
H	 1.5338208384	 2.0494609477	-0.6551457766	 0.115881
H	-0.1422549568	 1.8942162668	-1.2577720197	 0.145175
H	 0.170399401	 2.0652714905	 0.493409318	 0.133487
H	 2.6776093959	 0.3652496011	-2.6662296718	 0.113023
H	 3.1893655967	-0.925759735	-1.5198426608	 0.115224
H	 1.7860466666	-2.1889038554	-3.7036231152	 0.099407
H	-0.089468608	-2.4350665314	-1.5179713264	 0.090002
H	 2.8047971592	-2.5720218578	-0.4415123487	 0.123464
H	 1.3281802116	-2.86394313	 0.4785881097	 0.135336
H	 1.7593855293	-3.9304020153	-0.8633366776	 0.12396
69.4827	143.6959	156.7663	168.9941	181.1297	226.8498	301.9972	377.751	434.4557	517.5519	531.2425	656.522	725.5059	741.6926	768.9763	816.7883	883.8676	927.3118	971.6174	1017.8073	1032.2683	1062.7248	1088.9436	1103.0935	1120.5755	1147.4286	1167.6007	1180.6767	1204.7314	1223.5382	1238.3579	1350.4474	1410.1704	1425.7419	1485.2524	1490.2089	1493.2865	1501.959	1507.4722	1528.0085	1907.3159	3006.7412	3043.5939	3056.3975	3075.245	3088.2792	3103.5355	3128.552	3134.9596	3168.4632	3183.2149
COC12CC(C1C)C2=O	CO[C@@]12C[C@@H]([C@H]1C)C2=O	
InChI=1S/C7H10O2/c1-4-5-3-7(4,9-2)6(5)8/h4-5H,3H2,1-2H3	InChI=1S/C7H10O2/c1-4-5-3-7(4,9-2)6(5)8/h4-5H,3H2,1-2H3/t4-,5+,7+/m1/s1
