13
gdb 33312	8.08515	0.6743	0.62729	5.4995	83.47	-0.2686	-0.0852	0.1834	1651.942	0.090316	-415.602325	-415.594397	-415.593453	-415.636021	27.13	
N	 0.0953539337	-3.6919423663	-0.08627285	-0.321815
C	 0.0524066796	-2.5318062184	-0.0484263386	 0.182359
C	 0.0047697074	-1.1688275146	-0.0041136888	 0.364188
C	-0.0398806751	 0.0372581616	 0.0345828162	-0.060794
C	-0.0903134556	 1.4599596909	 0.0806319574	 0.18406
N	-1.1512835767	 2.1481212069	-0.0671554829	-0.304459
C	-0.736944499	 3.5544653955	 0.0544955094	-0.205502
C	 0.7935458136	 3.5005305062	 0.3035224199	-0.123069
O	 1.0971862698	 2.0826147955	 0.2991974819	-0.251537
H	-0.9995620159	 4.09198439	-0.8622812247	 0.135191
H	-1.2848692411	 4.0256081928	 0.8767952012	 0.13519
H	 1.3840166158	 3.9736164372	-0.4848862644	 0.133094
H	 1.0957950135	 3.9065370828	 1.2719536734	 0.133094
75.8243	77.0009	92.7032	213.322	229.5603	397.9214	426.0501	503.9313	578.2363	583.3508	713.478	757.5077	826.0516	893.2808	950.4519	979.057	1008.6173	1058.2518	1114.2627	1212.27	1246.1719	1274.8039	1350.1937	1391.2955	1495.3585	1525.2572	1686.1134	2272.3304	2398.8772	3049.3621	3066.0312	3080.0282	3117.3242
N#CC#CC1=NCCO1	N#CC#CC1=NCCO1	
InChI=1S/C6H4N2O/c7-3-1-2-6-8-4-5-9-6/h4-5H2	InChI=1S/C6H4N2O/c7-3-1-2-6-8-4-5-9-6/h4-5H2
