21
gdb 120075	5.51419	0.85147	0.84321	0.9404	84.38	-0.2497	0.0888	0.3385	1469.0635	0.182648	-386.99827	-386.989975	-386.989031	-387.031775	31.575	
C	 0.0576447074	 1.4001322425	-0.1068285237	-0.222213
O	 0.1574330799	-0.001810342	-0.0832007906	-0.233279
C	 0.5113576247	-0.5078894407	 1.1889664716	-0.089981
C	 0.5667656278	-2.0183888543	 1.1023112656	-0.019051
C	 1.7702364996	-2.6941259959	 0.4103003424	-0.030733
C	 2.7066188739	-2.5234633248	 1.6613790616	-0.043647
C	 3.0892089115	-4.0161528942	 1.670087868	-0.267284
C	 1.604867116	-4.0012817914	 1.260630629	-0.042724
C	 1.2687531521	-2.8118461683	 2.2264934723	-0.060473
H	 1.0132221804	 1.8848662249	 0.1517479974	 0.100392
H	-0.2220163437	 1.6935811276	-1.121887447	 0.124478
H	-0.7097591878	 1.7688745872	 0.5932415131	 0.1005
H	 1.4844646691	-0.0959998243	 1.5069720378	 0.080594
H	-0.2317790172	-0.1944865253	 1.9441449332	 0.079486
H	-0.4110517304	-2.4122403889	 0.7995630572	 0.067513
H	 2.0778098842	-2.6420981544	-0.6348667075	 0.072517
H	 3.3327724081	-1.6605648355	 1.8909155031	 0.070033
H	 3.8068598798	-4.3455487647	 0.9114085962	 0.090922
H	 3.3296284659	-4.4582326605	 2.6427652712	 0.089391
H	 0.9406928432	-4.8346135649	 1.0247922931	 0.068076
H	 0.9986649157	-2.9001953422	 3.281003276	 0.065484
65.1772	96.8787	125.9178	222.8648	259.638	333.6213	353.4891	447.5325	576.5179	730.0369	757.9514	843.1194	849.6161	854.7602	877.3756	905.9599	926.9902	965.0729	995.562	1002.1959	1028.8031	1037.549	1075.7035	1101.5058	1132.7804	1141.5864	1147.7401	1158.0982	1164.0863	1177.8198	1190.4072	1192.0244	1216.7143	1237.2779	1242.986	1265.6577	1281.9926	1317.3011	1379.4692	1435.0331	1481.3064	1485.9766	1502.9348	1510.9836	1525.1649	2939.9484	2964.6793	2971.1119	3005.2588	3033.8923	3039.0401	3085.8946	3090.0245	3097.1743	3100.8712	3109.6572	3114.302
COCC1C2C3CC2C13	COC[C@H]1[C@H]2[C@@H]3C[C@H]2[C@H]13	
InChI=1S/C8H12O/c1-9-3-6-7-4-2-5(7)8(4)6/h4-8H,2-3H2,1H3	InChI=1S/C8H12O/c1-9-3-6-7-4-2-5(7)8(4)6/h4-8H,2-3H2,1H3/t4-,5+,6-,7-,8+
