21
gdb 91748	2.31323	1.85048	1.61154	1.6095	81.46	-0.2293	0.0145	0.2438	987.1272	0.185577	-387.113398	-387.105895	-387.104951	-387.144958	31.065	
C	-0.3166700077	 1.5120413151	-0.0816430162	-0.409059
C	 0.0033280497	 0.0265619783	 0.0149790488	 0.16157
O	 0.7560099834	-0.3892018735	-1.1456352125	-0.291659
C	 1.9428460638	-1.0563334409	-0.688269506	 0.069103
C	 1.4988279834	-1.6983755878	 0.6310510677	-0.235553
C	 0.8188638808	-0.4601626784	 1.2437310107	-0.063068
C	 1.907381571	 0.5240479137	 1.722626194	-0.262165
C	 3.017780235	 0.6722634026	 0.7094063138	-0.052168
C	 3.0497506109	-0.0508600731	-0.4095192107	-0.060411
H	 0.5947175931	 2.1133109846	-0.1234749924	 0.126075
H	-0.8886820091	 1.7067440424	-0.9932687514	 0.122924
H	-0.9203626999	 1.8370045251	 0.7730619543	 0.106403
H	-0.9448080026	-0.5330809265	 0.0018478385	 0.070695
H	 2.2315016216	-1.7694337946	-1.4639835237	 0.069048
H	 0.77811808	-2.5006663814	 0.4451789381	 0.097869
H	 2.3254409393	-2.0898166487	 1.2286360013	 0.098576
H	 0.1476713956	-0.7027740124	 2.0722789586	 0.065159
H	 1.4710184523	 1.5055959913	 1.9457726897	 0.10846
H	 2.3248514667	 0.1703273188	 2.6771498627	 0.103798
H	 3.7983059647	 1.3975194618	 0.927674066	 0.08771
H	 3.8401513979	 0.0765240538	-1.1430774114	 0.086692
99.064	228.6063	258.1248	305.4131	359.0841	421.0621	459.5732	481.7135	508.0426	632.1897	712.2385	760.5699	764.1736	835.0428	854.5248	883.0059	923.3252	929.0425	958.924	985.7305	995.9728	1010.1109	1045.4421	1065.1182	1081.4485	1115.5649	1131.8245	1150.4762	1189.6862	1204.9088	1258.2251	1310.5864	1321.065	1326.6555	1349.2787	1366.5718	1377.7251	1391.3427	1403.7431	1408.7988	1473.0461	1483.7171	1495.7345	1504.5644	1708.908	2974.0766	2999.6713	3036.5712	3042.2778	3052.6433	3071.1197	3084.7179	3107.0164	3110.8685	3124.922	3147.246	3177.7414
CC1OC2CC1CC=C2	C[C@H]1O[C@@H]2C[C@H]1CC=C2	
InChI=1S/C8H12O/c1-6-7-3-2-4-8(5-7)9-6/h2,4,6-8H,3,5H2,1H3	InChI=1S/C8H12O/c1-6-7-3-2-4-8(5-7)9-6/h2,4,6-8H,3,5H2,1H3/t6-,7-,8+/m1/s1
