16
gdb 5332	6.39103	1.59322	1.30713	3.3798	72.94	-0.2068	0.0468	0.2536	935.3847	0.132359	-342.795786	-342.788605	-342.78766	-342.827983	26.027	
C	-0.2602608692	 1.5034520785	 0.1249450831	-0.48385
C	 0.0589345701	 0.0517426766	-0.0383089516	 0.27287
C	-0.024034962	-0.7015380575	-1.1989550407	-0.257856
N	 0.4044291044	-1.9495457284	-0.8036841088	 0.023302
C	 0.6542879469	-3.3995294145	-0.9213548124	-0.170274
C	 1.0239651131	-3.3662753357	 0.6167591128	-0.370287
C	 0.6875186954	-1.887934577	 0.5110382538	 0.372241
N	 0.5024943545	-0.7065669632	 1.0441691221	-0.416286
H	 0.6223532333	 2.0699523347	 0.441875973	 0.130818
H	-0.622782995	 1.9342515037	-0.8125624254	 0.113467
H	-1.0290184825	 1.6528727819	 0.8907486052	 0.131395
H	-0.3163412216	-0.445914574	-2.2029883885	 0.126974
H	-0.2364129319	-3.9814386063	-1.1724343799	 0.131753
H	 1.470726289	-3.6545855593	-1.6019664562	 0.130164
H	 0.3669044615	-3.9639310245	 1.2530213808	 0.13331
H	 2.0645341339	-3.612045885	 0.8419189427	 0.13226
37.4782	113.272	219.9685	259.9262	286.1399	496.2316	582.1518	647.9749	684.8491	707.8789	809.8863	812.7811	830.9386	914.885	977.6926	1016.3593	1055.0441	1061.5437	1104.3057	1135.0945	1173.6867	1174.2436	1225.2833	1263.2778	1282.7795	1396.6289	1416.3705	1445.1207	1474.6971	1482.4626	1488.3058	1510.7246	1549.8824	1587.8875	3032.2	3058.9215	3070.707	3086.067	3108.7584	3113.181	3123.7319	3279.5444
CC1=CN2CCC2=N1	Cc1cn2CCc2n1	
InChI=1S/C6H8N2/c1-5-4-8-3-2-6(8)7-5/h4H,2-3H2,1H3	InChI=1S/C6H8N2/c1-5-4-8-3-2-6(8)7-5/h4H,2-3H2,1H3
