14
gdb 132629	3.23297	1.34678	0.95159	2.9544	69.06	-0.2089	-0.0178	0.1911	1125.8639	0.101969	-478.032219	-478.024732	-478.023787	-478.063895	29.284	
N	-0.0412710984	 1.4190205838	-0.1151935091	-0.594218
C	 0.0071461926	 0.0266091357	-0.0466612264	 0.294978
C	-1.1641082751	-0.7381808567	 0.0001416132	-0.081538
N	-1.1591883896	-2.0762294246	 0.0031789091	-0.303403
C	-0.0108080128	-2.6827554285	-0.036532071	 0.204124
F	 0.0072568919	-4.0324805295	-0.0308292499	-0.101333
C	 1.2330186336	-2.0421218695	-0.0809501861	 0.246182
O	 2.3945054223	-2.7395679883	-0.1155438732	-0.436975
C	 1.2314825385	-0.6575739625	-0.0861389375	-0.24533
H	 0.7715648287	 1.8908986999	 0.2536518134	 0.250747
H	-0.8936275432	 1.8260344199	 0.2422023259	 0.251478
H	-2.1368139925	-0.2545086189	 0.0325719217	 0.100087
H	 2.1690660485	-3.6782737663	-0.1063091886	 0.306431
H	 2.1758845755	-0.1254270747	-0.1261451515	 0.10877
147.7784	230.7878	279.424	297.8572	330.1871	393.4754	455.6888	481.2022	487.5278	512.7834	598.9395	612.5135	659.5853	737.224	747.9189	799.7679	881.2737	894.6672	1004.8321	1105.1497	1176.2174	1211.0762	1301.3528	1306.485	1350.1333	1400.0238	1502.6054	1529.9475	1634.564	1654.4038	1666.4708	3158.5856	3190.149	3563.5495	3660.6005	3794.316
NC1=CN=C(F)C(O)=C1	Nc1cnc(F)c(O)c1	
InChI=1S/C5H5FN2O/c6-5-4(9)1-3(7)2-8-5/h1-2,9H,7H2	InChI=1S/C5H5FN2O/c6-5-4(9)1-3(7)2-8-5/h1-2,9H,7H2
