17
gdb 12269	3.3763	1.46114	1.20041	2.6317	66.56	-0.2423	0.0246	0.2669	1049.1738	0.141409	-401.016868	-401.008121	-401.007176	-401.050919	30.344	
C	 0.1583448728	 1.5512979934	-0.0763835108	-0.379237
C	-0.0662853024	 0.0536957118	 0.151443006	-0.159055
N	 0.6864596511	-0.4751900838	 1.2669318093	-0.080137
C	 2.1299619796	-0.5997310768	 1.5196809289	-0.189967
C	 1.7646864599	-1.2073559458	 2.9019177654	-0.007063
O	 2.2464262167	-0.4690560715	 3.996105702	-0.432404
C	 0.2930044674	-0.9283136111	 2.4975666661	 0.372788
O	-0.7817204742	-1.0224473036	 3.0368525343	-0.385725
H	 1.2091937643	 1.7675809422	-0.2935358744	 0.123073
H	-0.4367410482	 1.8975203617	-0.9268528807	 0.123348
H	-0.1337501238	 2.1262694026	 0.8069304981	 0.13515
H	-1.1182001547	-0.1468661425	 0.3770581377	 0.141819
H	 0.1875665617	-0.5084139077	-0.7573961148	 0.110581
H	 2.6526870567	-1.2622826425	 0.8218855909	 0.109536
H	 2.6577517231	 0.35477686	 1.6049862702	 0.124065
H	 1.9977232794	-2.2776460922	 2.9864844352	 0.093019
H	 1.6086759305	-0.5717090144	 4.7118968666	 0.300208
55.8539	77.0859	135.1793	174.7764	194.9188	277.4834	287.362	392.2662	408.7464	532.4062	635.3053	760.0407	791.6317	807.7895	880.2024	935.8488	1002.5311	1029.8648	1084.5874	1109.8681	1146.1535	1171.774	1186.9269	1232.2939	1270.7615	1318.0383	1340.5488	1386.9806	1403.6419	1412.1878	1430.4006	1479.8769	1492.9361	1503.5459	1520.8962	1870.2907	3012.8825	3016.0689	3039.3475	3042.3043	3087.6143	3095.318	3113.5092	3122.0594	3801.1908
CCN1CC(O)C1=O	CCN1C[C@@H](O)C1=O	
InChI=1S/C5H9NO2/c1-2-6-3-4(7)5(6)8/h4,7H,2-3H2,1H3	InChI=1S/C5H9NO2/c1-2-6-3-4(7)5(6)8/h4,7H,2-3H2,1H3/t4-/m1/s1
