17
gdb 131825	5.21072	0.77649	0.72104	0.7222	71.77	-0.2099	0.0204	0.2303	1530.1863	0.136536	-455.146109	-455.13715	-455.136206	-455.180756	32.111	
O	 0.1541398922	 1.3398359996	 0.2267654868	-0.407778
C	 0.0510488204	-0.0705182427	 0.2842776679	-0.06775
C	-1.3427806162	-0.5483220168	-0.1516290045	-0.178514
N	-1.4752784718	-1.989155004	-0.0868281595	 0.063887
C	-1.9952540114	-2.7324227007	 0.9317352398	-0.117386
C	-1.8096803303	-4.0531074361	 0.5748722657	 0.216395
O	-2.2036836906	-5.1261392159	 1.3153946176	-0.443296
C	-1.1606634994	-4.0060687435	-0.6758008934	-0.115509
N	-0.9583378073	-2.7457954511	-1.0665396061	-0.264327
H	 0.2035389952	 1.5982675335	-0.6989957758	 0.288859
H	 0.8112871487	-0.5733438107	-0.3283867668	 0.117799
H	 0.2254422293	-0.3522797336	 1.3277115124	 0.120257
H	-2.1058111748	-0.0960934008	 0.4871195086	 0.12813
H	-1.5354156351	-0.2432117807	-1.1848567354	 0.12228
H	-2.4527685739	-2.2860042163	 1.7987610554	 0.133028
H	-1.962217298	-5.9293402559	 0.8449903026	 0.300245
H	-0.8455764769	-4.8273374543	-1.3040395755	 0.103681
46.6682	89.5679	92.5196	224.4233	272.89	293.44	309.1883	343.7132	390.4022	450.3463	637.3862	659.8335	679.7769	758.2985	788.0901	796.6769	830.6848	1002.3637	1029.9843	1035.1497	1060.0653	1086.6176	1142.0181	1170.5185	1206.5749	1262.5605	1299.9544	1342.0194	1380.9373	1399.1992	1402.0944	1418.7303	1442.1773	1479.3415	1501.3283	1511.4776	1646.8484	3020.5842	3058.4803	3082.9801	3119.6745	3231.9847	3273.8268	3819.0761	3841.6889
OCCN1C=C(O)C=N1	OCCn1cc(O)cn1	
InChI=1S/C5H8N2O2/c8-2-1-7-4-5(9)3-6-7/h3-4,8-9H,1-2H2	InChI=1S/C5H8N2O2/c8-2-1-7-4-5(9)3-6-7/h3-4,8-9H,1-2H2
