17
gdb 21211	3.20652	1.89782	1.21289	1.5907	71.6	-0.1873	0.0415	0.2288	992.6093	0.143542	-360.064582	-360.056204	-360.05526	-360.097327	30.188	
C	 0.0262258559	 1.433224995	-0.0532182763	-0.310593
N	 0.1672738461	-0.0092629337	 0.0699009746	-0.37521
C	 0.6488863304	-0.7113623342	-1.0268311243	 0.345336
N	 1.2115483493	-0.0928778719	-2.0619505628	-0.318058
N	 1.6073655279	-1.1085688341	-2.8724370408	-0.208884
C	 1.294731538	-2.3282216242	-2.3779522571	-0.106589
C	 0.6656023982	-2.1302719936	-1.1678892986	 0.133844
C	 0.1342377661	-3.1439513084	-0.2049795969	-0.524323
H	 1.0057267164	 1.8759706406	-0.2500571804	 0.144911
H	-0.6426569939	 1.7398355442	-0.8712850227	 0.112591
H	-0.3547450825	 1.833087858	 0.8899320692	 0.11029
H	-0.6282233839	-0.457824823	 0.5006486701	 0.232235
H	 2.075097543	-0.8879698363	-3.7326735211	 0.26758
H	 1.5414391465	-3.237229221	-2.9053535376	 0.125713
H	 0.5690037059	-3.0174068972	 0.7940245528	 0.130365
H	-0.9560803482	-3.0765808492	-0.0893327942	 0.11783
H	 0.3591709448	-4.1612233911	-0.5372738239	 0.122964
94.4764	130.6539	165.7158	184.7201	242.6516	279.4566	321.7705	384.3656	493.4483	562.501	634.9905	643.027	739.9713	785.2141	788.7935	938.7572	1002.9782	1065.7972	1073.0627	1078.2556	1130.7251	1158.6715	1200.4452	1254.0503	1324.0726	1382.5067	1421.5526	1449.7744	1475.9882	1480.6112	1483.0351	1491.9799	1504.0498	1516.7327	1571.7124	1636.9983	2992.8371	3009.7195	3055.8414	3083.7784	3105.6728	3126.1764	3249.6078	3590.9477	3699.6854
CNC1=NNC=C1C	CNc1n[nH]cc1C	
InChI=1S/C5H9N3/c1-4-3-7-8-5(4)6-2/h3H,1-2H3,(H2,6,7,8)	InChI=1S/C5H9N3/c1-4-3-7-8-5(4)6-2/h3H,1-2H3,(H2,6,7,8)
