15
gdb 28044	4.01503	0.9461	0.86715	3.6027	72.94	-0.203	0.0083	0.2114	1306.3078	0.1131	-416.837759	-416.829418	-416.828474	-416.871683	30.313	
O	 0.1050817416	 1.385239207	-0.0991972366	-0.442873
C	 0.0784792146	 0.0250726948	-0.0319385119	 0.31199
C	 0.0380594331	-0.7964128173	-1.1332113905	-0.186484
N	-0.0126875835	-2.1006514654	-0.667991152	 0.027719
C	 0.0475918763	-3.2750989806	-1.5023033278	-0.310648
C	 1.4164236054	-3.6483369001	-1.9028744267	 0.277412
N	 2.4856622853	-3.9484406757	-2.2195934672	-0.2945
C	 0.0177874645	-2.1002596879	 0.7018013939	-0.068744
C	 0.0655983245	-0.7950018573	 1.132749886	-0.307438
H	 0.1677581577	 1.7350992432	 0.7939823426	 0.29896
H	 0.0391006096	-0.5691911363	-2.1856077334	 0.128336
H	-0.4015459849	-4.11736686	-0.9671672093	 0.16878
H	-0.548866153	-3.1142694891	-2.4066276285	 0.170327
H	 0.0028842876	-3.0260198255	 1.2546764881	 0.128086
H	 0.0704771711	-0.4629283799	 2.1602640733	 0.099078
41.1054	70.4183	217.5656	227.6073	282.2677	327.6122	370.0662	441.7662	478.9953	602.5285	613.1671	663.2768	667.1256	742.3567	762.0871	778.7287	916.0288	968.4548	1004.0571	1009.4401	1090.7035	1169.8835	1217.6234	1225.7791	1310.1328	1375.7063	1383.3688	1441.6832	1452.7497	1458.8104	1537.7125	1650.9134	2364.3282	3054.2333	3098.1275	3238.6959	3265.176	3279.128	3845.795
OC1=CN(CC#N)C=C1	Oc1cn(CC#N)cc1	
InChI=1S/C6H6N2O/c7-2-4-8-3-1-6(9)5-8/h1,3,5,9H,4H2	InChI=1S/C6H6N2O/c7-2-4-8-3-1-6(9)5-8/h1,3,5,9H,4H2
