16
gdb 36057	2.41261	1.37946	1.07906	4.2721	74.49	-0.2697	0.0024	0.2721	1152.0847	0.122268	-400.702359	-400.693397	-400.692453	-400.736717	32.08	
C	-0.0370967659	-1.1887265147	 0.2344435239	-0.420325
C	-0.0033920523	 0.0055854409	 0.1165174922	 0.310922
C	 0.0507525086	 1.4524296951	-0.029822327	-0.409662
C	 1.4852414708	 2.0053762627	-0.1170730723	 0.262607
C	 1.6301274203	 3.5497224001	 0.0037358914	-0.334858
C	 2.4862044069	 3.2259011068	 1.2429462082	-0.068269
O	 2.2197897222	 1.8078778649	 1.106186103	-0.291572
C	 2.2047553284	 1.4373445285	-1.270998053	 0.277645
N	 2.7744318673	 1.03238243	-2.1909948072	-0.333133
H	-0.063797837	-2.2456202889	 0.3354672695	 0.205927
H	-0.4949608387	 1.767309813	-0.928764802	 0.148038
H	-0.4284584967	 1.9393370189	 0.8273757273	 0.140208
H	 2.1383899395	 4.0422329478	-0.8238131206	 0.141081
H	 0.6851986125	 4.0549144056	 0.2094544912	 0.126359
H	 3.5539754515	 3.4460676196	 1.1404094301	 0.125175
H	 2.1257757226	 3.6116215497	 2.2013926353	 0.119857
60.4832	78.5274	110.5218	189.2781	198.3288	306.1249	338.0061	367.5044	452.1964	534.8471	571.8692	632.464	660.2854	705.9476	774.066	851.1579	877.3482	944.8274	977.0152	985.1282	1016.1265	1051.7109	1130.5261	1158.3044	1189.5105	1218.4561	1264.3155	1282.9871	1334.3408	1354.591	1453.2286	1486.7383	1529.4639	2247.7714	2355.32	3026.1809	3041.7021	3068.9074	3087.177	3093.2792	3157.0385	3505.6297
C#CCC1(CCO1)C#N	C#CC[C@]1(CCO1)C#N	
InChI=1S/C7H7NO/c1-2-3-7(6-8)4-5-9-7/h1H,3-5H2	InChI=1S/C7H7NO/c1-2-3-7(6-8)4-5-9-7/h1H,3-5H2/t7-/m0/s1
