15
gdb 52377	3.51138	0.75627	0.67818	5.3357	68.24	-0.2696	-0.0889	0.1807	1579.1566	0.110771	-453.987567	-453.97799	-453.977045	-454.023776	31.876	
O	 0.8471408254	 1.3977077491	 1.697530085	-0.321226
C	 0.3838403053	 1.6932697925	 0.6148887788	 0.150105
N	 1.0575611726	 1.5809838702	-0.5591700883	-0.276074
C	 2.3993268606	 1.0216640155	-0.6205678878	-0.17412
C	 3.4415978598	 1.9525472664	 0.0116326221	-0.304635
C	 4.840985098	 1.4076232898	-0.1039748055	 0.293132
O	 5.1380612075	 0.3610176403	-0.6237574216	-0.268146
C	 5.8923762955	 2.2727032384	 0.4788686874	 0.235313
N	 6.7039978433	 2.9618403684	 0.9296674695	-0.291345
H	-0.6406821507	 2.0902738752	 0.4779184268	 0.086407
H	 0.589629205	 1.8353781031	-1.4133279083	 0.256942
H	 2.4156257696	 0.0614375369	-0.0970937774	 0.153585
H	 2.6454053647	 0.8285816669	-1.666407913	 0.130293
H	 3.4212758635	 2.951477717	-0.4445268198	 0.144218
H	 3.2083714798	 2.1030009002	 1.073026252	 0.185552
39.3935	61.488	94.2596	113.2264	196.5314	223.5056	263.0167	277.5883	381.4382	459.1898	500.843	576.1608	614.0812	736.9311	811.9187	854.4737	975.1559	1030.6988	1038.6833	1073.1635	1099.6731	1201.4964	1236.0536	1322.0557	1333.9174	1412.2025	1426.1295	1444.5446	1474.5732	1521.8879	1794.3056	1797.4198	2338.5852	2949.5319	3032.043	3070.1357	3072.2299	3125.6238	3648.6664
O=CNCCC(=O)C#N	O=CNCCC(=O)C#N	
InChI=1S/C5H6N2O2/c6-3-5(9)1-2-7-4-8/h4H,1-2H2,(H,7,8)	InChI=1S/C5H6N2O2/c6-3-5(9)1-2-7-4-8/h4H,1-2H2,(H,7,8)
