17
gdb 51593	2.66879	0.92398	0.7426	4.2779	73.89	-0.2565	-0.0326	0.2239	1478.0647	0.133931	-417.989824	-417.980556	-417.979612	-418.025501	32.145	
O	-0.847667472	 0.7881553096	 0.8422236366	-0.233567
C	-0.2999484601	 1.2394061786	-0.1278367208	 0.16181
C	 1.1677312765	 1.6442513183	-0.1633912449	-0.248384
N	 1.3511126999	 2.7309825819	-1.1125931294	-0.081574
C	 1.4470461895	 4.0963449238	-0.6058949329	-0.270101
C	 2.6281038478	 3.4239030847	-1.2183478171	 0.022766
C	 3.8328625624	 3.0680755412	-0.3536874139	-0.373062
C	 4.526900108	 1.8704188566	-0.8315459893	 0.269073
N	 5.0595422782	 0.9212407693	-1.219242375	-0.302239
H	-0.8256581943	 1.3859369541	-1.0965226315	 0.094921
H	 1.4895234602	 1.8528318155	 0.8675927559	 0.11376
H	 1.7322501744	 0.7704504162	-0.5192404056	 0.15703
H	 0.8927192397	 4.853492958	-1.1530438937	 0.13156
H	 1.4640547167	 4.2371024112	 0.4750256864	 0.119363
H	 2.8980934184	 3.6717187034	-2.2428898095	 0.118477
H	 4.5393433838	 3.9061678189	-0.362955741	 0.163378
H	 3.5449188909	 2.9135335686	 0.6902557455	 0.156789
41.7499	72.2488	83.0956	138.9255	164.9243	285.2622	326.1545	387.7615	414.5084	466.8898	501.1876	576.0419	729.968	796.5215	827.8541	896.587	958.7999	963.0334	1033.8408	1055.9265	1084.6508	1112.0633	1130.1255	1146.8309	1167.725	1236.0152	1256.9965	1311.0011	1336.2792	1343.9318	1404.2809	1419.3152	1457.047	1459.9381	1512.7169	1841.8199	2363.0935	2903.7493	2988.679	3043.1491	3051.3756	3088.8296	3094.9852	3129.9809	3183.0061
O=CCN1CC1CC#N	O=CCN1C[C@H]1CC#N	
InChI=1S/C6H8N2O/c7-2-1-6-5-8(6)3-4-9/h4,6H,1,3,5H2	InChI=1S/C6H8N2O/c7-2-1-6-5-8(6)3-4-9/h4,6H,1,3,5H2/t6-,8?/m1/s1
