22
gdb 120816	2.38045	0.92413	0.74269	3.4223	83.73	-0.2455	0.0276	0.2731	1616.9128	0.193359	-404.367363	-404.357079	-404.356134	-404.403827	36.812	
C	-0.0979698012	 1.4936365386	 0.2167226551	-0.379942
C	 0.1300631549	-0.0158145567	 0.1019896028	-0.163672
C	 0.5543255681	-0.6571798654	 1.429627041	-0.189191
C	 0.7661060106	-2.1513426348	 1.3214825015	 0.020234
C	 2.1002740692	-2.7223968034	 0.8988705265	-0.336169
C	 1.6124838606	-2.9156981362	 2.3114250537	 0.021135
N	 2.297982413	-2.2251181305	 3.3661852424	-0.279225
C	 1.6722824508	-1.8149540914	 4.5053389582	 0.152262
O	 0.4796342356	-1.876614772	 4.7077826033	-0.319258
H	 0.8139929987	 2.0083103802	 0.5399052026	 0.111102
H	-0.4024337486	 1.926563039	-0.7413179387	 0.109813
H	-0.8802498353	 1.7207787096	 0.9493677176	 0.11756
H	-0.7886515144	-0.49919214	-0.2557405166	 0.094548
H	 0.8945536907	-0.2187864628	-0.6592260306	 0.093681
H	 1.4759991492	-0.1813077852	 1.7860659594	 0.086389
H	-0.2049055792	-0.4623639193	 2.1970769827	 0.119987
H	-0.1080599664	-2.6999026335	 0.9792551123	 0.089187
H	 2.1371678936	-3.586759571	 0.245613064	 0.117408
H	 2.9119516717	-2.0155671051	 0.7520181281	 0.110889
H	 1.2545252033	-3.9046672558	 2.5872058464	 0.105538
H	 3.3064658508	-2.2242203917	 3.3618951551	 0.247023
H	 2.3928012144	-1.3983967626	 5.239166163	 0.070704
41.1257	78.0716	90.4734	115.0479	161.023	230.984	245.9222	281.7923	319.3186	375.7706	448.1652	504.277	583.9401	744.8345	762.2957	818.8579	847.9312	866.1544	868.6965	911.7277	971.4314	1032.1248	1040.8402	1044.0799	1060.9919	1083.2022	1119.8374	1139.8976	1151.8763	1193.961	1209.5229	1264.6983	1277.2793	1301.8395	1323.7156	1377.7496	1398.2484	1411.8851	1424.6514	1431.6789	1481.9594	1488.8208	1495.8962	1499.5293	1504.4779	1511.6141	1810.9221	2922.2449	3014.5723	3027.0396	3031.1413	3040.7752	3069.4655	3095.8117	3101.4844	3125.3935	3126.8664	3140.5699	3214.2713	3615.8033
CCCC1CC1NC=O	CCC[C@H]1C[C@H]1NC=O	
InChI=1S/C7H13NO/c1-2-3-6-4-7(6)8-5-9/h5-7H,2-4H2,1H3,(H,8,9)	InChI=1S/C7H13NO/c1-2-3-6-4-7(6)8-5-9/h5-7H,2-4H2,1H3,(H,8,9)/t6-,7+/m0/s1
