18
gdb 9248	5.02713	0.77308	0.71664	3.9045	80.82	-0.2617	-0.0566	0.2051	1589.0334	0.150999	-347.793323	-347.783443	-347.782499	-347.829891	33.224	
C	-0.029218491	 1.5155224867	 0.1804101719	-0.39552
C	 0.0893099026	-0.0067429954	 0.0717476174	-0.162965
C	 0.7060017159	-0.491268719	-1.2672375922	-0.155899
C	 2.173196511	-0.0481049544	-1.4507907687	-0.387254
C	 0.6041917852	-1.9445158967	-1.3599904909	 0.113001
C	 0.5419105857	-3.1512683181	-1.3990316714	 0.014357
C	 0.4340970997	-4.5832829992	-1.4860187611	 0.021988
O	 1.0440584928	-5.3644581942	-0.7911771454	-0.231753
H	 0.947837581	 2.0072561628	 0.175994062	 0.124273
H	-0.6166841749	 1.9286670448	-0.6472587006	 0.118064
H	-0.5304958331	 1.7924819399	 1.1125238233	 0.121584
H	 0.6944176063	-0.4010272742	 0.8964441245	 0.114775
H	-0.9035744117	-0.4573283109	 0.1748061158	 0.112562
H	 0.1123503608	-0.0566461486	-2.0842151909	 0.109643
H	 2.7946603654	-0.4306420115	-0.635708997	 0.133551
H	 2.5783197543	-0.4263617629	-2.3926568774	 0.130824
H	 2.245981846	 1.0421445371	-1.4631542431	 0.123887
H	-0.273973456	-4.9374510863	-2.2635063061	 0.094882
18.8025	70.7395	87.6133	111.1963	217.4385	218.9453	248.4742	282.1082	318.8992	355.9647	467.56	560.5613	631.1882	763.7347	801.4275	851.1172	962.0613	981.6107	1023.3693	1030.3312	1076.0073	1123.6662	1149.8662	1196.4921	1283.9748	1317.5699	1342.6507	1376.1986	1407.0716	1416.3568	1424.2092	1483.8135	1492.3867	1498.3852	1505.0838	1509.7774	1766.2107	2323.6896	2912.1839	3003.949	3035.7918	3040.2201	3048.0871	3075.1423	3104.642	3112.7105	3123.0448	3128.6663
CCC(C)C#CC=O	CC[C@@H](C)C#CC=O	
InChI=1S/C7H10O/c1-3-7(2)5-4-6-8/h6-7H,3H2,1-2H3	InChI=1S/C7H10O/c1-3-7(2)5-4-6-8/h6-7H,3H2,1-2H3/t7-/m1/s1
