19
gdb 66359	2.3147	1.48319	1.37035	0.2597	77.11	-0.2396	0.0397	0.2792	1079.7202	0.158308	-422.988613	-422.979897	-422.978953	-423.021413	33.836	
C	 0.0113872301	 1.5024604792	 0.0422541564	-0.426696
C	-0.0318168269	-0.0268253249	-0.0058578213	 0.141741
C	 0.7111879168	-0.5588361872	-1.2517666432	-0.094862
O	 0.8681817286	-1.9613122201	-1.2108593878	-0.248643
C	 1.5746174156	-2.362941469	-0.0463751155	-0.078619
C	 0.8450238654	-1.8875478617	 1.2026619959	-0.089835
O	 0.6667327854	-0.4752357062	 1.1646166348	-0.275863
C	-1.4261482337	-0.5014152682	 0.0039331487	 0.373304
C	-2.5716596343	-0.8654044351	 0.0100298487	-0.516804
H	 1.0512933982	 1.8394646647	 0.0592803403	 0.124125
H	-0.4941758197	 1.9293133161	-0.8277566871	 0.126685
H	-0.4870066928	 1.857024644	 0.9466892136	 0.13915
H	 0.1530074129	-0.3264619407	-2.1622079973	 0.116657
H	 1.6943457999	-0.0611196817	-1.2932804666	 0.089566
H	 1.6377641635	-3.4547694961	-0.0751960648	 0.109662
H	 2.5960565958	-1.9478031424	-0.0614026453	 0.092064
H	-0.1284190353	-2.3916039141	 1.2812860364	 0.111009
H	 1.4272739115	-2.0979548686	 2.1046557725	 0.10785
H	-3.5821832809	-1.192566408	 0.0142655815	 0.199509
117.9229	149.378	195.0459	218.8175	278.0265	299.8308	346.7468	407.6983	435.3901	458.0475	554.8884	583.7298	629.8853	639.6728	669.9266	729.7259	848.7817	886.0307	902.2825	931.943	1004.0961	1032.9976	1107.8846	1128.2618	1146.9257	1153.4299	1196.5558	1215.1871	1270.7791	1300.9408	1332.8157	1375.3571	1399.0943	1409.0827	1419.4023	1473.7122	1480.3248	1485.7101	1489.6649	1494.5404	2229.2174	2968.1648	2974.5497	3014.6488	3051.4072	3088.8917	3091.961	3100.0165	3130.4164	3138.9663	3500.5763
CC1(COCCO1)C#C	C[C@]1(COCCO1)C#C	
InChI=1S/C7H10O2/c1-3-7(2)6-8-4-5-9-7/h1H,4-6H2,2H3	InChI=1S/C7H10O2/c1-3-7(2)6-8-4-5-9-7/h1H,4-6H2,2H3/t7-/m1/s1
