20
gdb 11830	3.64573	1.60421	1.31119	1.82	74.88	-0.2547	0.0736	0.3284	1012.0067	0.175959	-348.980654	-348.972223	-348.971279	-349.013245	32.034	
C	-0.7547325173	 1.1946493012	-0.0781226339	-0.411299
C	 0.1607353178	-0.019008975	-0.0130386977	 0.040948
C	 1.5433030307	 0.0513337727	-0.7342661335	-0.339059
C	 2.1365674295	-0.6783715425	 0.4687924633	 0.478173
C	 3.0107595052	-1.8509533795	 0.4965576449	-0.269961
O	 3.4753399406	-0.5588106255	 0.9171358582	-0.275921
C	 0.8985036162	-0.3827222155	 1.3290648785	-0.111746
C	 1.1118152212	 0.7543991721	 2.3264790181	-0.390565
H	-0.2468598193	 2.1060648507	 0.2525060619	 0.117225
H	-1.0978035925	 1.3634625232	-1.1048833043	 0.115104
H	-1.6431524775	 1.0608942733	 0.5489784699	 0.114634
H	-0.3853633099	-0.9013825419	-0.3626029668	 0.07354
H	 1.6344512905	-0.4198759491	-1.7160246392	 0.101196
H	 1.9193630793	 1.0778161433	-0.8012153908	 0.110512
H	 2.9055659385	-2.5896460167	 1.2909909501	 0.111545
H	 3.4501928792	-2.2244289446	-0.428159991	 0.111795
H	 0.4816766268	-1.2513057974	 1.8494451845	 0.067195
H	 1.5445816393	 1.6401534953	 1.8510452274	 0.118981
H	 0.169410948	 1.0492766322	 2.798591324	 0.111798
H	 1.8046322437	 0.4395960637	 3.1124026262	 0.125904
68.6037	193.8464	210.5028	218.5228	247.2293	257.0036	342.1004	376.85	447.1379	516.443	562.8136	718.5186	777.1764	847.2588	867.1195	886.7446	913.0141	944.3881	988.7985	1032.471	1039.1897	1104.2611	1110.4167	1131.9627	1148.5323	1168.2964	1184.0594	1208.9295	1239.8765	1257.4797	1288.8165	1345.7161	1371.7734	1407.7573	1414.8449	1437.2483	1484.6094	1488.7043	1491.3039	1501.5589	1503.5565	1536.5636	3028.4681	3037.0187	3038.3208	3049.8105	3052.171	3073.5044	3091.2352	3100.5411	3104.3883	3108.9877	3111.5172	3159.0697
CC1CC2(CO2)C1C	C[C@H]1C[C@]2(CO2)[C@H]1C	
InChI=1S/C7H12O/c1-5-3-7(4-8-7)6(5)2/h5-6H,3-4H2,1-2H3	InChI=1S/C7H12O/c1-5-3-7(4-8-7)6(5)2/h5-6H,3-4H2,1-2H3/t5-,6-,7-/m0/s1
