15
gdb 125035	3.32475	1.30798	0.94579	5.9065	72.71	-0.2255	-0.0635	0.162	1167.2585	0.112485	-450.138789	-450.130184	-450.12924	-450.172155	30.488	
C	-0.0626043306	 1.5642281247	 0.0974991351	-0.515724
C	-0.0236098919	 0.0792708686	-0.0232508029	 0.291024
C	-0.0413517559	-0.7403881066	-1.1217053178	 0.229392
N	-0.1341358948	-0.4248548073	-2.4731420967	-0.595461
N	-0.0243499447	-2.0519046488	-0.704031974	-0.222916
N	 0.0057582521	-2.1023492227	 0.58277664	-0.112345
N	 0.0185256572	-0.8140818062	 1.0349756329	-0.079155
C	 0.0767281008	-0.5201434624	 2.4095513954	 0.188795
O	 0.101700913	-1.3376985296	 3.2816625749	-0.247202
H	 0.8798691994	 1.9862604935	 0.4664597314	 0.145167
H	-0.2586018981	 1.9968673492	-0.886809905	 0.14772
H	-0.8622976334	 1.9040077862	 0.7646250275	 0.148914
H	 0.5132941812	 0.2899164142	-2.7773349861	 0.252525
H	-0.0305245501	-1.2553710896	-3.0426219172	 0.262
H	 0.0977395958	 0.5706000669	 2.5780486724	 0.107267
102.9461	128.1136	169.0622	201.7857	206.8644	258.0174	283.5734	347.0493	403.9491	532.789	649.9811	655.8569	705.3673	759.0041	799.0231	818.3956	965.8815	1027.0046	1064.1068	1079.6248	1128.9579	1175.5384	1291.9897	1324.68	1413.0543	1420.0485	1437.6302	1472.6846	1487.3463	1496.6525	1643.3973	1679.3653	1850.2027	2989.0528	3027.4383	3079.9207	3118.9976	3544.5187	3635.5468
CC1=C(N)N=NN1C=O	Cc1c(N)nnn1C=O	
InChI=1S/C4H6N4O/c1-3-4(5)6-7-8(3)2-9/h2H,5H2,1H3	InChI=1S/C4H6N4O/c1-3-4(5)6-7-8(3)2-9/h2H,5H2,1H3
