15
gdb 6754	7.50477	0.67075	0.62047	2.5183	68.54	-0.2518	-0.0168	0.2351	1693.9304	0.116679	-399.79763	-399.787774	-399.786829	-399.834912	31.994	
N	-0.0539021559	 1.3410832729	 0.0299353417	-0.520397
C	 0.0552644589	-0.0197946014	 0.0060866207	 0.262306
O	 1.1217731733	-0.604007698	-0.0142248775	-0.336239
C	-1.2252333702	-0.7116966733	 0.0141993681	 0.066931
C	-2.2573381454	-1.3350290346	 0.0186622749	 0.012491
C	-3.4808349181	-2.1214171949	 0.0237879456	-0.333941
C	-3.2127829438	-3.6315368022	 0.0133417525	-0.064164
O	-4.478763245	-4.2662601231	 0.0192584822	-0.414848
H	 0.7901910484	 1.8884290445	-0.0063249457	 0.265128
H	-0.9475320752	 1.7993748393	 0.0049514058	 0.265334
H	-4.0830855241	-1.8784167493	 0.9077606865	 0.14592
H	-4.0965376667	-1.8687876878	-0.8481523309	 0.14578
H	-2.6266325845	-3.8917679086	-0.8800028392	 0.106735
H	-2.6133740905	-3.9016725065	 0.894862617	 0.106803
H	-4.3404097713	-5.217697917	 0.0135478983	 0.29216
17.5532	57.9704	67.5165	79.799	169.0811	174.9401	240.7416	330.5733	393.4613	434.0516	507.1276	569.3637	617.4021	730.9109	773.5529	790.2865	995.8185	1082.2542	1084.9197	1086.3409	1088.6456	1219.9594	1238.6635	1303.606	1324.9587	1353.7118	1456.1236	1469.4811	1528.0333	1607.0507	1772.7052	2349.7346	2989.5908	3021.6359	3032.2418	3070.2649	3603.7344	3746.7735	3835.6576
NC(=O)C#CCCO	NC(=O)C#CCCO	
InChI=1S/C5H7NO2/c6-5(8)3-1-2-4-7/h7H,2,4H2,(H2,6,8)	InChI=1S/C5H7NO2/c6-5(8)3-1-2-4-7/h7H,2,4H2,(H2,6,8)
