21
gdb 101405	2.84201	1.04619	0.82407	1.0585	79.89	-0.2546	-0.0314	0.2232	1443.905	0.180018	-424.231808	-424.221835	-424.22089	-424.267195	35.992	
C	 0.0378398351	 1.4995534421	 0.2469110762	-0.393969
C	-0.0594427198	-0.0184903727	 0.0673695185	-0.176528
C	-1.496083699	-0.5401534485	-0.1182372775	 0.017875
C	-2.1589838561	-0.0686773883	-1.4208831947	-0.412458
C	-1.5035505911	-2.069504876	-0.0755993485	 0.004826
O	-0.9921520281	-2.6371317925	 1.1611247521	-0.295458
C	-2.2133103883	-3.3362785229	 1.4709928544	-0.188487
C	-2.8470073732	-2.7612195812	 0.1990456149	 0.338823
O	-3.9178088516	-2.8010662288	-0.3265703398	-0.278344
H	 1.0740687011	 1.8028383373	 0.4250690823	 0.115769
H	-0.3154464692	 2.0417145779	-0.635553427	 0.118389
H	-0.5569784038	 1.8349520619	 1.1040186899	 0.11557
H	 0.5441490038	-0.3285076017	-0.7971012657	 0.091546
H	 0.3733082194	-0.5161253133	 0.9417704863	 0.119734
H	-2.0981339681	-0.1868434318	 0.7314165223	 0.074269
H	-3.1540534807	-0.5072420044	-1.5378766879	 0.143134
H	-2.265351626	 1.0188972263	-1.4374124573	 0.121337
H	-1.5586011206	-0.3590192391	-2.291358347	 0.114801
H	-0.9711098769	-2.4799809082	-0.9472777084	 0.102487
H	-2.0952936567	-4.4276134101	 1.4766381598	 0.132405
H	-2.6677545502	-3.015660086	 2.4168894173	 0.13428
68.9671	79.1185	115.8784	126.0797	219.7955	228.8461	240.8993	284.1588	360.8825	368.6861	442.7867	512.3743	555.0949	718.0276	769.4651	810.4737	846.7519	911.399	956.5943	987.7319	990.4075	1009.0789	1035.9041	1051.1769	1089.749	1129.4351	1146.2815	1161.9037	1182.7816	1244.3144	1271.1523	1297.9437	1303.3477	1351.3226	1363.7764	1389.2128	1410.0852	1416.4501	1481.0348	1486.6221	1496.5883	1501.1345	1508.4452	1513.2376	1915.5338	2990.1767	3003.2738	3017.1636	3018.8985	3033.6419	3035.364	3063.3432	3071.1101	3100.2755	3102.9941	3108.5746	3123.0596
CCC(C)C1OCC1=O	CC[C@@H](C)[C@H]1OCC1=O	
InChI=1S/C7H12O2/c1-3-5(2)7-6(8)4-9-7/h5,7H,3-4H2,1-2H3	InChI=1S/C7H12O2/c1-3-5(2)7-6(8)4-9-7/h5,7H,3-4H2,1-2H3/t5-,7-/m1/s1
