20
gdb 109729	1.94376	1.58375	1.05957	6.2924	75.42	-0.2397	0.029	0.2687	1200.3204	0.171593	-440.307734	-440.298426	-440.297481	-440.342051	34.614	
C	-0.1453935024	 1.6226598543	 0.0856956124	-0.408735
C	-0.080699835	 0.1163750962	-0.0481933526	-0.026333
C	 0.4699802952	-0.5931720871	-1.2722004382	-0.041674
C	 0.9885164321	 0.1330268805	-2.4930932699	-0.210654
N	 2.2164033409	-0.5317839665	-2.980505268	-0.507349
H	 2.5687345989	-0.075455107	-3.8167485635	 0.24613
H	 3.1087062963	-0.2177706317	-1.4926803005	 0.3234
H	 2.0223544816	-1.4980850586	-3.2265561036	 0.242094
C	 1.2342081019	-0.6226677963	 0.0379168994	-0.179006
C	 2.5199414858	 0.1329901994	 0.3274409847	 0.388819
O	 2.7210402795	 0.6195913795	 1.4119068514	-0.344769
O	 3.4319383336	 0.1989849073	-0.6477635826	-0.389576
H	 0.7136851293	 2.1242337753	-0.3669774429	 0.130317
H	-1.0546720903	 2.0211906933	-0.3770815571	 0.1112
H	-0.1479185188	 1.9023793854	 1.1432625476	 0.142619
H	-0.9201010545	-0.3895883887	 0.4215169853	 0.091108
H	-0.0278883322	-1.528775123	-1.5217079329	 0.08447
H	 0.1986954213	 0.1791652845	-3.2566235756	 0.105005
H	 1.2607668875	 1.1635964394	-2.2511420018	 0.125934
H	 1.2159104992	-1.5613547261	 0.5847546885	 0.116999
53.3601	130.9739	153.3399	183.4967	219.3824	238.41	277.4299	362.3635	402.5767	437.9612	537.676	548.7473	625.2845	759.2229	775.7854	804.9036	839.6142	886.4788	944.7414	973.6702	1001.0239	1020.6594	1034.8787	1078.6369	1089.7999	1102.5671	1143.6349	1155.1744	1212.8935	1253.6157	1275.926	1305.7803	1367.3611	1376.7178	1422.4889	1426.8407	1448.7055	1463.1173	1491.3903	1501.0834	1513.8016	1648.292	1835.9551	2998.5221	3039.4469	3091.5996	3105.4208	3114.7835	3115.2361	3138.2212	3151.2051	3173.6095	3492.963	3573.8604
CC1C(C[NH3+])C1C([O-])=O	C[C@H]1[C@@H](CN)[C@H]1C(=O)O	
InChI=1S/C6H11NO2/c1-3-4(2-7)5(3)6(8)9/h3-5H,2,7H2,1H3,(H,8,9)	InChI=1S/C6H11NO2/c1-3-4(2-7)5(3)6(8)9/h3-5H,2,7H2,1H3,(H,8,9)/t3-,4+,5-/m0/s1
