18
gdb 66762	2.47786	2.3227	1.82287	1.8247	77.99	-0.2269	0.0025	0.2295	856.0553	0.149602	-364.754998	-364.748451	-364.747507	-364.785367	27.848	
C	 0.0128049723	 1.5431001673	 0.0166460002	-0.528465
C	 0.0134178959	 0.0414932402	-0.0289271261	 0.31882
C	 0.5073967987	-0.9184523418	-1.1651337884	-0.128849
C	 0.8510385298	-1.8882721735	-0.1098267608	-0.047803
C	 0.784547879	-0.8263924738	 1.0355128609	-0.129664
C	-0.2256990462	-1.1743500318	 2.0897274669	-0.088918
C	-1.4394125867	-1.1808561808	 1.5179294924	-0.080288
C	-1.2666516903	-0.8291603426	 0.0738960468	-0.057292
N	-0.5045639993	-1.9215254887	-0.7314073484	-0.155261
H	 1.0280556622	 1.9453605968	-0.0716635218	 0.119963
H	-0.5857130622	 1.9650472341	-0.7984871556	 0.120966
H	-0.40948258	 1.8974333741	 0.9636192939	 0.128335
H	 0.8249373774	-0.7803910167	-2.189994211	 0.093725
H	 1.4336077283	-2.7995133194	-0.1419012638	 0.096488
H	 1.7604818724	-0.4552694785	 1.3492539366	 0.068778
H	 0.0128030822	-1.4591628355	 3.1075843705	 0.100024
H	-2.3743791969	-1.4741611923	 1.9788627378	 0.099426
H	-2.1437614768	-0.5251325471	-0.4969534701	 0.070014
217.4089	221.375	269.6954	396.0861	407.0908	551.2494	603.2378	681.2167	727.8075	738.6232	783.0443	813.9696	828.6341	851.4403	868.0752	883.703	927.7527	942.6079	950.0367	979.5977	990.5993	1005.1799	1016.7444	1119.0139	1126.3408	1127.8024	1167.1646	1181.9074	1198.1523	1218.9929	1256.9506	1286.8459	1329.2821	1359.6785	1365.7462	1409.1358	1486.1285	1491.6741	1629.075	3024.4318	3089.6522	3095.0965	3113.8115	3118.4213	3193.6375	3194.7534	3209.7604	3219.1318
CC12C3C4C1C=CC2N34	C[C@@]12[C@H]3[C@H]4[C@@H]1C=C[C@@H]2N34	
InChI=1S/C8H9N/c1-8-4-2-3-5(8)9-6(4)7(8)9/h2-7H,1H3	InChI=1S/C8H9N/c1-8-4-2-3-5(8)9-6(4)7(8)9/h2-7H,1H3/t4-,5-,6+,7+,8+,9?/m0/s1
