19
gdb 62048	2.68463	0.98614	0.87222	1.3527	77.8	-0.2555	0.0393	0.2948	1418.203	0.155884	-422.954954	-422.945039	-422.944095	-422.990868	35.508	
C	-0.7703758265	 1.3093602093	 1.7331186677	-0.39287
C	 0.2262591186	 0.3875763827	 1.0301186184	-0.041945
O	 0.5128493964	-0.6734878617	 1.9457101709	-0.252166
C	 1.5853735867	-1.5193659364	 1.5672033264	-0.107684
C	 2.9358099357	-0.9074280737	 1.8491638027	 0.078424
C	 4.117535122	-1.2566543873	 1.0510013982	-0.178684
O	 3.4596251964	-0.0039813397	 0.8663070346	-0.228436
C	-0.3102707096	-0.1282261382	-0.2373626692	 0.352968
C	-0.7554085796	-0.5500428005	-1.2714989232	-0.499879
H	-0.3283054259	 1.6857158772	 2.658966211	 0.123518
H	-1.0273516705	 2.1531938922	 1.0883886666	 0.127102
H	-1.682648485	 0.7586569273	 1.9749183066	 0.134604
H	 1.1469405017	 0.9447834128	 0.8107283011	 0.128748
H	 1.4708869347	-2.4296932329	 2.1670261672	 0.110984
H	 1.516013365	-1.7952608142	 0.5058383309	 0.109064
H	 3.0842770318	-0.5743403877	 2.8772084474	 0.100345
H	 5.1066620125	-1.2052949501	 1.5029793993	 0.118592
H	 4.0206671517	-1.9608554345	 0.2254391144	 0.117919
H	-1.1465205262	-0.9191707645	-2.1873693009	 0.199395
33.5085	73.238	97.1885	162.7849	212.3868	232.3937	273.2569	274.8304	368.4941	402.2652	510.5078	572.2794	592.3071	623.6149	674.086	784.8765	809.9422	861.1861	884.412	948.3459	995.4465	1042.3804	1093.0227	1097.1964	1116.0564	1138.1762	1156.4235	1159.9499	1181.4011	1287.9524	1301.0966	1353.4335	1366.6132	1378.4533	1403.6101	1449.0021	1476.9005	1482.2723	1495.3736	1528.6885	2229.5587	3012.796	3024.9571	3052.8163	3070.0757	3084.8731	3109.9675	3133.834	3136.8255	3171.6888	3502.2229
CC(OCC1CO1)C#C	C[C@@H](OC[C@H]1CO1)C#C	
InChI=1S/C7H10O2/c1-3-6(2)8-4-7-5-9-7/h1,6-7H,4-5H2,2H3	InChI=1S/C7H10O2/c1-3-6(2)8-4-7-5-9-7/h1,6-7H,4-5H2,2H3/t6-,7+/m1/s1
