17
gdb 66035	2.29302	1.38497	1.117	2.9768	79.49	-0.264	0.0105	0.2745	1147.4609	0.135469	-380.834746	-380.825769	-380.824824	-380.868197	33.814	
N	-0.0387733472	 1.4865646133	 0.0806430103	-0.538185
C	 0.0195643991	 0.0370362994	-0.0245054773	 0.134793
C	 0.2307543989	-0.6045978899	 1.3823353602	-0.245816
C	-1.3072485235	-0.6932544398	 1.5429087703	-0.237632
C	-1.4392743375	-0.5718896856	-0.0073516884	-0.18391
C	-2.5077547341	 0.2042408012	-0.5941688803	 0.316398
C	-3.3852738362	 0.8643776899	-1.0849393378	-0.437893
C	 0.8919805937	-0.4432659795	-1.1039899215	 0.221657
N	 1.5899351384	-0.8004227392	-1.9549087402	-0.341354
H	 0.8984449787	 1.8743405283	 0.1313227073	 0.242409
H	-0.4931481422	 1.8793220412	-0.7392482897	 0.247678
H	 0.70147613	-1.5872487274	 1.3093279302	 0.124249
H	 0.7821641797	 0.0156840527	 2.0897119108	 0.118704
H	-1.7186087551	-1.5974829622	 1.9921404404	 0.114662
H	-1.7166182997	 0.1856209357	 2.0398931647	 0.136733
H	-1.402354151	-1.5674948911	-0.4595828768	 0.124216
H	-4.170324972	 1.436533973	-1.5145524021	 0.203292
88.5632	135.44	151.8617	196.2492	238.4408	278.9303	348.1236	386.8095	458.3049	497.6446	544.2653	588.6668	618.2146	623.7874	657.4313	725.0305	795.3211	857.1908	925.6719	934.852	955.0912	975.7145	1070.3446	1099.8725	1141.9953	1183.0639	1222.7277	1261.6956	1268.8798	1286.8549	1294.8415	1358.83	1474.1969	1490.0197	1650.1307	2233.4927	2337.096	3065.8661	3079.7165	3094.7318	3138.4255	3159.6654	3492.2244	3500.7677	3576.8234
NC1(CCC1C#C)C#N	N[C@]1(CC[C@H]1C#C)C#N	
InChI=1S/C7H8N2/c1-2-6-3-4-7(6,9)5-8/h1,6H,3-4,9H2	InChI=1S/C7H8N2/c1-2-6-3-4-7(6,9)5-8/h1,6H,3-4,9H2/t6-,7-/m1/s1
