23
gdb 100141	3.01361	0.80533	0.75882	1.932	88.77	-0.2487	0.0622	0.3109	1642.4648	0.201205	-388.256581	-388.245109	-388.244165	-388.29346	41.722	
C	-0.1302138185	 1.3168531929	 0.1381862568	-0.242516
O	-0.0048114158	-0.0716274393	-0.0661548743	-0.275432
C	 0.6842751461	-0.5231994698	-1.2421939189	 0.355758
C	 0.0286277488	 0.0191912798	-2.5241575764	-0.429054
C	 2.1678207154	-0.1221995044	-1.1927546341	-0.425681
C	 0.5828545405	-2.0590481106	-1.1591594681	-0.187312
C	-0.8599038705	-2.6018575033	-1.1038281918	-0.373894
C	-0.8999351988	-4.0480145832	-0.9265047091	 0.294606
C	-0.9054849832	-5.2416301706	-0.7821766597	-0.439568
H	 0.8407573861	 1.8266371196	 0.2091586741	 0.105626
H	-0.7235313318	 1.8100843517	-0.6444578182	 0.105741
H	-0.650813455	 1.4418461018	 1.0913769486	 0.127401
H	 0.2156929144	 1.089449717	-2.6505470181	 0.114541
H	 0.4394876319	-0.4885683654	-3.4022034954	 0.118502
H	-1.0535877151	-0.1354191328	-2.5131662375	 0.124653
H	 2.6210535841	-0.4578626091	-0.2555586886	 0.121939
H	 2.71427022	-0.5790963847	-2.0235950987	 0.116567
H	 2.299406233	 0.9608376166	-1.2726806305	 0.113056
H	 1.1081736653	-2.4996516634	-2.0129452759	 0.102023
H	 1.1093728156	-2.3847529373	-0.2563957667	 0.112592
H	-1.387350545	-2.1073546764	-0.2816788519	 0.147402
H	-1.4000761903	-2.3401850107	-2.0217196174	 0.123864
H	-0.9257001174	-6.2948942686	-0.6517768682	 0.189186
53.1123	64.7734	99.7212	121.2657	175.3834	221.4328	246.0773	252.8456	297.4463	333.9952	348.6657	363.4607	414.1313	442.5631	500.3103	572.7363	610.7018	631.9896	739.6651	761.2115	882.4188	917.2187	928.0414	958.303	997.0945	1036.5064	1050.117	1117.5331	1159.7038	1178.8248	1184.6078	1210.7726	1239.2133	1278.5272	1299.6334	1329.6087	1383.8524	1392.702	1412.534	1467.9819	1474.7137	1481.0195	1484.8242	1488.144	1496.2619	1505.0336	1509.7114	1518.1819	2237.6647	2991.7859	3034.3183	3036.2007	3043.1999	3044.9606	3050.6651	3075.4518	3097.5539	3105.4781	3106.69	3113.1005	3118.4581	3120.3126	3508.3983
COC(C)(C)CCC#C	COC(C)(C)CCC#C	
InChI=1S/C8H14O/c1-5-6-7-8(2,3)9-4/h1H,6-7H2,2-4H3	InChI=1S/C8H14O/c1-5-6-7-8(2,3)9-4/h1H,6-7H2,2-4H3
