18
gdb 99804	2.0045	1.44252	1.10042	1.0356	72.53	-0.2672	-0.0395	0.2277	1179.4889	0.144139	-439.116701	-439.106295	-439.105351	-439.152771	36.678	
C	-0.6709172069	 1.2721297723	 0.1685272284	-0.496762
C	 0.3326242105	 0.1759385567	-0.0911242558	 0.387023
O	 1.215498303	-0.1041663933	 0.6827586382	-0.298964
C	 0.2176697404	-0.6615266925	-1.3978964809	-0.057057
C	 1.5704661104	-0.658831736	-2.1437054815	-0.412793
C	-0.1464348939	-2.1240752275	-0.9646814932	-0.073069
O	-0.2586431223	-3.0005056384	-2.0568695738	-0.414343
C	-0.8489308908	-0.1883558212	-2.2843346973	 0.258756
N	-1.7064446425	 0.1308123142	-2.992203599	-0.35057
H	-0.6158028754	 2.0297756776	-0.6209456685	 0.162941
H	-1.6911287234	 0.8740722579	 0.1380774201	 0.158673
H	-0.4723194089	 1.7264771186	 1.1392593663	 0.148313
H	 2.357126049	-0.911815336	-1.430380227	 0.151058
H	 1.5474402926	-1.4031775516	-2.9411947576	 0.150232
H	 1.7852045804	 0.3215877097	-2.5757635702	 0.132343
H	 0.6731524469	-2.4853259267	-0.3398574802	 0.145712
H	-1.0623756988	-2.1064748732	-0.3567458781	 0.107205
H	-1.0521607403	-2.7697997905	-2.5539730699	 0.301304
22.5795	113.6771	155.2116	161.7923	169.9114	207.5178	236.3251	270.0137	306.5588	360.9897	397.0838	432.0157	507.9599	570.4263	588.3358	612.2069	699.8839	845.1551	919.6717	949.4309	985.1673	1024.487	1085.4527	1124.829	1135.3289	1161.3084	1218.8991	1281.388	1383.0379	1387.8557	1403.4244	1412.1003	1453.2166	1469.7841	1490.1859	1498.4068	1503.8166	1810.8887	2342.2661	3001.8238	3041.5758	3058.8707	3101.2479	3117.5939	3138.5732	3154.1967	3160.0223	3797.2544
CC(=O)C(C)(CO)C#N	CC(=O)[C@@](C)(CO)C#N	
InChI=1S/C6H9NO2/c1-5(9)6(2,3-7)4-8/h8H,4H2,1-2H3	InChI=1S/C6H9NO2/c1-5(9)6(2,3-7)4-8/h8H,4H2,1-2H3/t6-/m1/s1
