19
gdb 117578	2.93711	1.06845	0.8868	2.2713	76.33	-0.2593	0.0192	0.2785	1357.8039	0.157775	-419.167096	-419.15716	-419.156216	-419.203119	34.287	
C	 0.6580802071	 0.940937288	 0.6513150328	-0.249044
O	 0.875951662	 0.5041451035	-0.6789185245	-0.236598
C	-0.0706740081	-0.4133200352	-1.1701263136	-0.076556
C	 0.5413867016	-1.826029424	-1.3034337487	-0.101581
C	 0.9795904578	-2.3392259552	 0.0122135149	 0.274672
N	 1.276956512	-2.7901996794	 1.0350651081	-0.346705
N	-0.4018587613	-2.6876383499	-2.0103218442	-0.081935
C	-0.2448262192	-4.1372911917	-1.9464340391	-0.229636
C	-1.3787464672	-3.4675408882	-1.2508182544	-0.232144
H	-0.3028252265	 1.4671047554	 0.7485498425	 0.109562
H	 0.6841610677	 0.110974241	 1.3685341323	 0.133556
H	 1.4653030611	 1.6373838503	 0.8892588136	 0.133755
H	-0.9680421936	-0.456857158	-0.5391107677	 0.10653
H	-0.3781355856	-0.1081669084	-2.1761264028	 0.125586
H	 1.4377863939	-1.7318250042	-1.9271969861	 0.14242
H	-0.3995664339	-4.6579962421	-2.8864912221	 0.126213
H	 0.5419195538	-4.5440747816	-1.3148904346	 0.138295
H	-1.3328562199	-3.4363555412	-0.1645328089	 0.138396
H	-2.3787921419	-3.4882809093	-1.6726383374	 0.125215
51.2954	63.9286	92.911	132.8712	157.3049	191.501	212.4539	329.4267	372.3006	381.7221	456.8278	576.0753	601.5602	789.8543	801.5955	836.0289	902.1797	964.3305	1025.7682	1052.0039	1055.1929	1093.6801	1123.1812	1132.3684	1155.0268	1176.7025	1183.377	1190.6847	1219.6128	1282.002	1304.2831	1323.9514	1356.1352	1391.6379	1479.778	1488.5708	1490.7079	1504.71	1509.7021	1518.1942	2339.1427	2992.1034	3019.284	3052.6675	3059.1164	3080.7255	3108.09	3111.0138	3123.2788	3192.6088	3205.9672
COCC(C#N)N1CC1	COC[C@@H](C#N)N1CC1	
InChI=1S/C6H10N2O/c1-9-5-6(4-7)8-2-3-8/h6H,2-3,5H2,1H3	InChI=1S/C6H10N2O/c1-9-5-6(4-7)8-2-3-8/h6H,2-3,5H2,1H3/t6-/m1/s1
