19
gdb 62816	2.28409	1.54534	1.34703	1.838	83.2	-0.2486	0.0466	0.2952	1075.3894	0.15755	-385.80799	-385.799198	-385.798253	-385.840792	34.819	
C	-0.1447476147	 1.5538245212	-0.0283070195	-0.493094
C	 0.0133245495	 0.0395941451	-0.0153530863	 0.439031
O	-1.2596993294	-0.5564728496	-0.1686368539	-0.483853
C	 1.2113454272	-0.6589739702	-0.7547768499	-0.148889
C	 2.1401373369	-0.1478627346	 0.382090057	-0.278924
C	 0.8550814899	-0.6655658826	 1.1111325016	 0.224294
C	 0.9433957225	-1.9023699266	 0.1451210089	-0.266066
C	 0.582378257	-0.6587584646	 2.5186884379	 0.059557
C	 0.3466333232	-0.638915848	 3.6985220926	-0.370991
H	 0.7898589525	 2.0996230873	 0.1003024836	 0.127455
H	-0.5771949348	 1.873758465	-0.9853543454	 0.10867
H	-0.8328976962	 1.8543391706	 0.7674366696	 0.13892
H	-1.7291493829	-0.0837480519	-0.8626881889	 0.278934
H	 1.4200565702	-0.6535783061	-1.8250082336	 0.070909
H	 3.0345454237	-0.7469906979	 0.5623024531	 0.1032
H	 2.3668359996	 0.9160223599	 0.4427380435	 0.098063
H	 0.0213939271	-2.4523094569	-0.0223189779	 0.124191
H	 1.7980161595	-2.5602305476	 0.3163107508	 0.09269
H	 0.1377361493	-0.6275454225	 4.7393786369	 0.175905
119.1858	131.1575	191.1759	220.7515	245.0444	352.7973	355.1586	426.9874	486.9924	519.2512	562.7989	584.5396	605.2082	626.2379	632.4786	703.2593	766.4058	823.6172	913.8307	943.4848	948.7559	966.5173	1004.6504	1040.1487	1056.7819	1105.5399	1138.9173	1149.8431	1155.9441	1200.7654	1207.9265	1217.2251	1241.0529	1278.3334	1373.0761	1411.9336	1484.7842	1493.7607	1505.4056	1542.2214	2231.3958	3026.4195	3078.7493	3081.7462	3095.6369	3112.7358	3137.8915	3152.9974	3179.536	3502.8301	3822.4718
CC1(O)C2CC1(C2)C#C	C[C@@]1(O)[C@H]2C[C@@]1(C2)C#C	
InChI=1S/C8H10O/c1-3-8-4-6(5-8)7(8,2)9/h1,6,9H,4-5H2,2H3	InChI=1S/C8H10O/c1-3-8-4-6(5-8)7(8,2)9/h1,6,9H,4-5H2,2H3/t6-,7-,8+/m1/s1
