16
gdb 65843	2.66962	1.3297	1.19546	4.8055	70.56	-0.269	0.0191	0.2882	1097.5098	0.123747	-437.903046	-437.894603	-437.893659	-437.936071	31.722	
C	-0.1362471519	 1.6220146572	-0.08237711	-0.431625
C	 0.0328313529	 0.0983438643	-0.0094963718	 0.054598
C	 0.9096081698	-0.4541194332	-1.1730593106	-0.099983
O	 1.676903246	-1.5125365728	-0.6035779801	-0.236341
C	 1.6795631512	-1.3982959505	 0.7594002309	 0.479068
O	 2.2945251168	-2.1223477258	 1.4870192578	-0.38229
N	 0.888014316	-0.3141297116	 1.1052092092	-0.376575
C	-1.2801878278	-0.561931582	 0.0412459662	 0.346565
C	-2.3569089425	-1.0925121313	 0.1004496537	-0.485637
H	 0.8445099602	 2.1039158163	-0.0718410386	 0.1318
H	-0.6680437417	 1.9013488205	-0.9965441807	 0.135906
H	-0.7181112026	 1.9855731353	 0.768429391	 0.13486
H	 0.3151304108	-0.8478303014	-1.9975967846	 0.138255
H	 1.5852871203	 0.3267055586	-1.5401690795	 0.118455
H	 0.5207435761	-0.3177716911	 2.0449077874	 0.262806
H	-3.3038194633	-1.5718272126	 0.1509564895	 0.210138
80.6746	141.6953	188.8728	216.3345	240.8009	302.0189	397.9306	458.5972	491.7117	558.0495	595.1137	616.9959	647.2017	663.7516	718.6244	772.0992	804.9243	915.478	944.3754	964.7272	1015.361	1088.0695	1148.7255	1184.7338	1195.686	1247.697	1276.7827	1385.8327	1400.8648	1418.8514	1485.1845	1495.3304	1514.3585	1898.4391	2232.1736	3041.4159	3047.4694	3124.0912	3131.5393	3135.2407	3498.4773	3632.2784
CC1(COC(=O)N1)C#C	C[C@]1(COC(=O)N1)C#C	
InChI=1S/C6H7NO2/c1-3-6(2)4-9-5(8)7-6/h1H,4H2,2H3,(H,7,8)	InChI=1S/C6H7NO2/c1-3-6(2)4-9-5(8)7-6/h1H,4H2,2H3,(H,7,8)/t6-/m1/s1
