20
gdb 38958	2.98403	1.7376	1.43926	0.8021	76.9	-0.2235	0.0821	0.3056	975.4812	0.174863	-403.138886	-403.131934	-403.13099	-403.170118	28.594	
C	 0.173735232	 1.2937800244	-0.4597779627	-0.255848
C	 1.387979362	 0.5210053082	-0.1005959481	-0.016895
C	 1.9197296454	 0.6778504486	 1.3195483299	-0.259709
C	 0.7116534631	 0.3926007945	 2.2170386168	 0.084903
O	 0.0343108671	 1.5929786206	 2.5857393639	-0.254622
C	-1.3192742907	 1.2272118922	 2.828664489	-0.07876
C	-1.6757501449	 0.1759974097	 1.7534871935	-0.248052
C	-0.2993354749	-0.3794478557	 1.327109438	 0.011888
N	 0.0607363658	-0.1297473937	-0.0860698621	-0.109447
H	-0.1556579609	 2.0531306804	 0.2424196174	 0.130903
H	-0.0538222562	 1.4963923611	-1.5027623014	 0.109698
H	 2.0788287793	 0.1973174189	-0.874310793	 0.086225
H	 2.7079456606	-0.0580250665	 1.508357926	 0.1057
H	 2.3342000437	 1.6693855441	 1.5220896761	 0.121828
H	 0.9837563238	-0.1674169451	 3.1244271438	 0.065973
H	-1.4210720398	 0.7983146688	 3.8386377699	 0.091654
H	-1.9240872031	 2.136363139	 2.7812370259	 0.108987
H	-2.3338653382	-0.6016078282	 2.1474609092	 0.104692
H	-2.1759949538	 0.6309686569	 0.8956818731	 0.121114
H	-0.2274889302	-1.4597421882	 1.4808500848	 0.079768
111.8521	197.2226	258.7921	332.5952	373.757	463.4787	577.2812	638.0458	707.1046	732.4311	795.1999	819.932	851.6248	862.6699	877.18	918.4523	937.9125	961.4839	997.1853	1031.566	1042.013	1077.6341	1096.0374	1112.9568	1119.0496	1141.7938	1170.3558	1205.4606	1224.3423	1238.4459	1259.4782	1283.2938	1288.8273	1311.4237	1337.1174	1348.4604	1357.9393	1392.6712	1401.7039	1474.4992	1490.8858	1495.6996	1517.5357	2972.6732	2984.2617	3055.1143	3063.8338	3074.3908	3092.4754	3101.1675	3111.5503	3120.3101	3143.0064	3203.8678
C1C2CC3OCCC3N12	C1[C@H]2C[C@H]3OCC[C@H]3N12	
InChI=1S/C7H11NO/c1-2-9-7-3-5-4-8(5)6(1)7/h5-7H,1-4H2	InChI=1S/C7H11NO/c1-2-9-7-3-5-4-8(5)6(1)7/h5-7H,1-4H2/t5-,6-,7-,8?/m1/s1
