23
gdb 89379	2.49199	1.46908	1.15405	1.2737	85.67	-0.2198	0.0825	0.3023	1205.956	0.204385	-388.300534	-388.290854	-388.28991	-388.334647	37.354	
C	 0.5437860611	 1.4673126225	 0.1224306035	-0.39284
C	-0.0775335656	 0.0826229588	-0.0375245288	 0.130165
C	 0.4222507356	-0.7071586464	-1.2778774491	-0.320007
C	 1.1349423665	-1.9328139188	-0.7176596163	 0.278557
C	 1.1103530397	-3.2025933166	-1.5351981798	-0.482119
C	 2.3164753915	-1.6386266993	 0.200251037	-0.399368
C	 0.9359734201	-1.8743302445	 0.7736702068	 0.413828
C	 0.6203250106	-3.0320320925	 1.679516591	-0.463325
O	 0.2039522749	-0.7224215592	 1.1193604459	-0.315407
H	 1.6371621816	 1.4170323214	 0.128753739	 0.117853
H	 0.2362550715	 2.1188967741	-0.7028930692	 0.110129
H	 0.2174682127	 1.9236562071	 1.0612352327	 0.123634
H	-1.1687385238	 0.1992739986	-0.0804664545	 0.077044
H	-0.4202648782	-1.0251713813	-1.9009815396	 0.099887
H	 1.0745897819	-0.0917766298	-1.9077690207	 0.100492
H	 1.6553187192	-3.0735402359	-2.4779331631	 0.118264
H	 1.5783347225	-4.0354494001	-1.0016058939	 0.115389
H	 0.0842450094	-3.4981708589	-1.7841378525	 0.114658
H	 3.0531830852	-2.4282922077	 0.3167337128	 0.103293
H	 2.7260281158	-0.634840796	 0.2356279801	 0.108366
H	 1.1981861301	-3.9176186161	 1.4025497885	 0.114268
H	 0.8650260483	-2.7808687383	 2.7167939741	 0.127735
H	-0.4449732104	-3.2811062411	 1.6352265459	 0.119504
53.0108	159.4451	186.5732	201.3278	216.9113	236.2841	267.435	334.1135	397.5143	425.7632	438.4345	461.1537	551.6394	651.5598	708.9755	735.3573	825.1188	879.4923	897.7456	908.5722	931.6307	960.2428	987.8708	997.114	1032.5769	1062.1999	1081.4854	1111.6261	1128.369	1146.1309	1186.1488	1235.9375	1241.8763	1261.0218	1330.7238	1358.2692	1387.0664	1398.2108	1408.1066	1415.8698	1426.0271	1474.9721	1480.2719	1488.3153	1491.327	1493.923	1496.9278	1501.3312	1515.0277	3003.0272	3020.358	3032.5929	3035.7674	3037.66	3073.6974	3078.0909	3097.9518	3099.5854	3104.5893	3116.4346	3117.0601	3121.3177	3209.4892
CC1CC2(C)CC2(C)O1	C[C@H]1C[C@@]2(C)C[C@@]2(C)O1	
InChI=1S/C8H14O/c1-6-4-7(2)5-8(7,3)9-6/h6H,4-5H2,1-3H3	InChI=1S/C8H14O/c1-6-4-7(2)5-8(7,3)9-6/h6H,4-5H2,1-3H3/t6-,7-,8+/m0/s1
