16
gdb 125088	3.30786	1.27984	0.92936	1.3651	83.33	-0.2043	-0.0115	0.1928	1206.0284	0.124412	-396.92873	-396.919656	-396.918712	-396.962241	33.481	
C	-0.0474692291	 1.5870953272	 0.0620490574	-0.532954
C	-0.0097951883	 0.0947029434	 0.0171879611	 0.029185
C	 0.0019511812	-0.7324191164	-1.1015610888	 0.196851
N	 0.0142262248	-2.0133131606	-0.6346535301	-0.310989
N	 0.0255632285	-2.0820416456	 0.7119298171	-0.288837
C	 0.0035811161	-0.8102664977	 1.1079454415	 0.306741
N	-0.07332065	-0.4773704023	 2.460614547	-0.598994
C	-0.0103685737	-0.4246224277	-2.4769482552	 0.279652
C	-0.019840473	-0.163812784	-3.6533165921	-0.44117
H	 0.8762493116	 2.0119495485	 0.4766758138	 0.122012
H	-0.1751314768	 2.0020690807	-0.9409543397	 0.137029
H	-0.8742345905	 1.9450487135	 0.6865296196	 0.135984
H	 0.0210620166	-2.8583262595	-1.1783045359	 0.27425
H	 0.1307893385	-1.2745255736	 3.0501585164	 0.25048
H	 0.5137544968	 0.3067416981	 2.713314394	 0.245798
H	-0.0293376525	 0.0684386458	-4.6894167961	 0.194963
104.2757	117.8652	132.4806	228.1248	235.9786	276.1777	313.4393	387.2684	397.582	495.5513	524.2766	548.6561	580.7356	679.6105	681.5558	692.7302	707.4935	766.4382	801.6581	960.1561	1064.5577	1089.2313	1145.5181	1209.2751	1256.2478	1290.5135	1417.6987	1437.4258	1483.6578	1492.1564	1502.0969	1545.7079	1610.2224	1647.1668	2229.0402	3015.4267	3064.999	3116.4279	3501.1577	3538.228	3633.5293	3688.0107
CC1=C(NN=C1N)C#C	Cc1c([nH]nc1N)C#C	
InChI=1S/C6H7N3/c1-3-5-4(2)6(7)9-8-5/h1H,2H3,(H3,7,8,9)	InChI=1S/C6H7N3/c1-3-5-4(2)6(7)9-8-5/h1H,2H3,(H3,7,8,9)
