18
gdb 33036	4.36535	0.83469	0.73375	4.6427	75.57	-0.2108	0.0279	0.2387	1551.0205	0.147719	-439.153588	-439.144648	-439.143703	-439.18801	32.42	
C	 0.1012525503	 1.5576937656	 0.1131258511	-0.383477
C	 0.0273381436	 0.0313511341	 0.0431949939	-0.161857
C	 0.5920805427	-0.5253950297	-1.2784513864	-0.302206
C	 0.5691536646	-2.0074409322	-1.3573328115	 0.369358
C	-0.0588617376	-2.8836520403	-2.1538126898	-0.216723
N	 0.314020982	-4.1593617352	-1.7226383633	-0.360862
C	 1.1761532027	-4.066682866	-0.6550743973	 0.475031
O	 1.7118210932	-4.9287980909	-0.014062154	-0.401649
O	 1.3296259792	-2.7082413495	-0.4330096157	-0.247148
H	 1.1360982659	 1.9086019414	 0.0330845979	 0.118649
H	-0.4691892526	 2.0224985162	-0.6990392621	 0.113591
H	-0.3035606439	 1.9295526333	 1.0590124696	 0.117935
H	 0.5830121438	-0.4103025295	 0.8773868649	 0.123222
H	-1.011813987	-0.3012910153	 0.1528129947	 0.101233
H	 0.020847935	-0.1318243394	-2.1271199385	 0.110737
H	 1.6246309454	-0.1709719294	-1.4029885865	 0.120475
H	-0.7285471623	-2.7215080276	-2.9804643757	 0.147518
H	 0.029121835	-5.0424134157	-2.1060792713	 0.276174
68.8162	85.1156	98.2979	198.5748	241.263	287.5179	299.8048	353.4492	442.7688	530.3439	621.4579	687.8415	728.1348	749.0519	771.223	789.8247	870.7035	896.7709	946.5064	967.5078	1043.3442	1074.3243	1105.2865	1111.8884	1142.0953	1251.1724	1262.3103	1312.1846	1326.7133	1364.6847	1389.2211	1402.1188	1413.1066	1469.7505	1492.8861	1499.0767	1509.7155	1718.881	1897.7112	3013.3357	3029.72	3038.2475	3060.8344	3078.7664	3101.1489	3106.9274	3288.18	3702.4283
CCCC1=CNC(=O)O1	CCCc1c[nH]c(=O)o1	
InChI=1S/C6H9NO2/c1-2-3-5-4-7-6(8)9-5/h4H,2-3H2,1H3,(H,7,8)	InChI=1S/C6H9NO2/c1-2-3-5-4-7-6(8)9-5/h4H,2-3H2,1H3,(H,7,8)
