18
gdb 14022	5.5605	1.15542	1.08035	2.0148	68.46	-0.2523	0.0704	0.3227	1144.6994	0.152434	-384.899816	-384.891607	-384.890663	-384.932894	29.605	
C	 0.3785806291	 1.4712427924	 0.2412763634	-0.375388
C	-0.2928075257	 0.1556629358	-0.1704367226	-0.211752
C	 0.3338454653	-0.4436796135	-1.4051155138	-0.020507
O	 1.6342113916	-1.0545923471	-1.238583355	-0.280819
C	 0.5423760461	-1.879398382	-1.5785064932	 0.353127
C	 0.066294541	-3.0864529973	-0.7747340543	-0.151674
O	-0.0664694847	-3.8515762512	-1.9939483839	-0.27622
C	 0.4768991023	-2.7847682846	-2.8045827265	-0.155082
H	 1.4415384423	 1.3114457321	 0.4439644558	 0.136395
H	 0.2967011257	 2.2227457724	-0.5514342458	 0.117342
H	-0.0837732374	 1.8836776265	 1.142540335	 0.1166
H	-0.2299840495	-0.569126909	 0.6490229102	 0.105328
H	-1.3598579532	 0.3217000158	-0.368290858	 0.104799
H	 0.2602523383	 0.1657125153	-2.3093194697	 0.091806
H	 0.8231924409	-3.5030836721	-0.0980233222	 0.11425
H	-0.887476739	-2.9868721692	-0.2423326809	 0.108321
H	-0.2056975344	-2.4862349582	-3.6093589687	 0.108662
H	 1.4574688611	-3.0371302361	-3.2282141299	 0.11481
70.1961	104.3717	143.5538	183.9837	251.6443	292.9021	380.8754	444.422	487.091	600.7654	757.748	828.6167	850.7466	908.6724	932.2613	948.7596	1000.2987	1022.1071	1024.9084	1075.0141	1114.2566	1131.4147	1143.6671	1155.346	1170.0531	1195.2947	1288.882	1300.6955	1325.5681	1348.2709	1388.5264	1409.8911	1472.2832	1498.625	1499.3048	1506.3998	1523.0214	1537.2822	3008.9095	3020.1014	3026.4141	3038.3624	3060.6451	3062.0117	3065.0483	3084.6127	3107.7894	3119.0902
CCC1OC11COC1	CC[C@H]1OC21COC2	
InChI=1S/C6H10O2/c1-2-5-6(8-5)3-7-4-6/h5H,2-4H2,1H3	InChI=1S/C6H10O2/c1-2-5-6(8-5)3-7-4-6/h5H,2-4H2,1H3/t5-/m1/s1
