14
gdb 43597	3.27448	1.38756	1.11207	4.6465	65.78	-0.2885	-0.0156	0.2729	1041.5765	0.10211	-436.722004	-436.714834	-436.71389	-436.754028	26.737	
O	-0.0474704297	 0.066324276	 0.2781060945	-0.3212
C	 0.0158388411	 1.2295830759	 0.0278015045	 0.450081
O	-1.1187901833	 1.9708686761	-0.2516914233	-0.232823
C	-0.7827801197	 3.2553725033	-0.7916661346	-0.046315
C	-1.6263061292	 4.2836141387	-0.1663948142	 0.292084
N	-2.2687035328	 5.1179332538	 0.3072346641	-0.309718
C	 0.7130811052	 3.4590554295	-0.5451289789	-0.06401
C	 1.1554701316	 3.3261765488	 0.8759040246	-0.289666
C	 1.2102545738	 2.1234791278	-0.0507642005	-0.185842
H	-0.9968631029	 3.2422295978	-1.8672033901	 0.147386
H	 1.2648231875	 4.067035101	-1.2494072631	 0.127406
H	 2.1095280542	 3.7659072661	 1.1402807865	 0.142088
H	 0.4110084262	 3.3429043035	 1.6650461633	 0.155757
H	 2.1573896181	 1.6807198519	-0.3249471029	 0.134773
90.5191	136.6636	200.9606	274.9995	363.1896	449.1168	511.0116	563.5996	611.2619	735.7927	765.5488	807.2295	836.9046	847.5103	931.3957	973.3153	1002.9346	1017.397	1042.7621	1082.5925	1102.3302	1108.8331	1180.5704	1195.9122	1316.144	1325.6604	1359.9736	1376.3244	1489.5114	1902.7671	2368.7644	3042.1425	3141.8353	3207.6121	3222.3277	3235.5316
O=C1OC(C#N)C2CC12	O=C1O[C@@H](C#N)[C@H]2C[C@@H]12	
InChI=1S/C6H5NO2/c7-2-5-3-1-4(3)6(8)9-5/h3-5H,1H2	InChI=1S/C6H5NO2/c7-2-5-3-1-4(3)6(8)9-5/h3-5H,1H2/t3-,4+,5-/m0/s1
