13
gdb 132270	2.03014	1.84553	0.9725	3.1915	64.33	-0.2657	-0.0646	0.2011	1104.7486	0.08822	-497.924186	-497.916701	-497.915757	-497.956486	27.269	
C	 0.0278469855	 1.510463577	 0.0223655561	-0.466113
C	-0.0234060512	 0.015298148	 0.0135153263	 0.330893
C	-1.1763148236	-0.6869113598	-0.1488506688	-0.311791
C	-1.1851745582	-2.1228679246	-0.1514871294	 0.443819
O	-2.0753364214	-2.9042291154	-0.2766212001	-0.311758
O	 0.1452697147	-2.6860776653	 0.0338198504	-0.230004
C	 1.1720960464	-1.8800128238	 0.1781601261	 0.416356
F	 2.2765007949	-2.5611340525	 0.3312815095	-0.029769
N	 1.2041984524	-0.6052354951	 0.1842827463	-0.420589
H	 0.6968959306	 1.8617284598	-0.7703203889	 0.15623
H	-0.9598246338	 1.9529504835	-0.1156425874	 0.134664
H	 0.4529376646	 1.8595589445	 0.9693258196	 0.156224
H	-2.1329671709	-0.2008805464	-0.2823924698	 0.131837
133.8305	158.5577	181.5511	203.1597	300.8692	364.207	468.8531	558.7933	580.288	594.8124	627.8233	730.4564	780.0127	831.9231	858.8892	970.2433	1015.5052	1041.525	1062.1274	1146.9735	1226.7941	1392.2426	1398.1189	1424.464	1468.5484	1475.8524	1616.3716	1691.0948	1897.4202	3043.9519	3102.1713	3144.8971	3231.7219
CC1=CC(=O)OC(F)=N1	Cc1cc(=O)oc(F)n1	
InChI=1S/C5H4FNO2/c1-3-2-4(8)9-5(6)7-3/h2H,1H3	InChI=1S/C5H4FNO2/c1-3-2-4(8)9-5(6)7-3/h2H,1H3
