18
gdb 52317	2.61381	1.37023	1.16785	2.4358	69.12	-0.249	0.0253	0.2743	1116.906	0.148035	-476.212366	-476.203737	-476.202793	-476.246908	30.522	
N	-1.0266520305	 1.0204285236	 0.2943777085	-0.454973
C	-0.7085821425	-0.1666771821	 0.0069573274	 0.144937
O	-0.9140328282	-1.1508127885	 0.9092421139	-0.18424
C	-0.8906379882	-2.4830845343	 0.4217175941	-0.12708
C	-2.2694200113	-2.9074891185	-0.0921176733	 0.226615
O	-3.2564799881	-2.8571402976	 0.9098197947	-0.261145
C	-4.0085616498	-1.6603126888	 0.708381696	-0.109816
C	-3.93471349	-1.4812534669	-0.8070923114	-0.088554
O	-2.6587971759	-2.0323300052	-1.1360475127	-0.277166
H	-0.7569891422	 1.6428260679	-0.4647439698	 0.227999
H	-0.2390729262	-0.5158862529	-0.9212000854	 0.096027
H	-0.1509470222	-2.5990686035	-0.382552435	 0.10931
H	-0.6045186826	-3.1216334429	 1.2610087352	 0.130032
H	-2.2132373388	-3.9456469038	-0.4566735525	 0.084154
H	-5.0213196464	-1.828791602	 1.0814655821	 0.114769
H	-3.5514943146	-0.816093058	 1.2364272258	 0.139291
H	-4.7302696996	-2.0348580511	-1.3235611165	 0.105337
H	-3.9524318631	-0.4354688054	-1.122672381	 0.124504
49.2169	67.342	118.8924	162.1798	227.4779	256.9661	313.1585	397.8407	586.7236	658.1527	665.9815	798.4757	822.7836	861.1005	888.0519	909.0881	956.2967	988.2056	1017.6674	1036.0864	1049.3747	1081.3337	1135.7759	1158.1526	1197.021	1228.6089	1249.1444	1249.9663	1320.1608	1339.0485	1376.8731	1384.5208	1398.2832	1404.4274	1421.0184	1483.2105	1513.0564	1522.1146	1740.5146	2979.504	3014.7763	3018.4738	3041.676	3046.4411	3102.5802	3110.7091	3115.1078	3516.494
N=COCC1OCCO1	[NH][CH]OCC1OCCO1	
InChI=1S/C5H9NO3/c6-4-7-3-5-8-1-2-9-5/h4-6H,1-3H2	InChI=1S/C5H9NO3/c6-4-7-3-5-8-1-2-9-5/h4-6H,1-3H2
