14
gdb 49145	4.54949	0.96673	0.86847	2.8957	71.31	-0.2738	-0.0795	0.1943	1278.4971	0.09963	-436.661593	-436.653323	-436.652379	-436.695653	29.004	
O	-0.9444767241	 1.2256673214	-0.3292323609	-0.231468
C	 0.1226721056	 0.8728122799	 0.0963424494	 0.105617
C	 1.367470055	 1.6971391257	 0.0146399618	 0.322279
N	 2.4810051969	 1.2763774695	 0.4687787949	-0.283683
C	 3.4630895875	 2.3551604596	 0.1952561359	-0.175185
C	 2.606741754	 3.4849761827	-0.4679595111	-0.124776
O	 1.284243352	 2.9105989101	-0.5636478796	-0.236819
C	 4.1583167619	 2.7849719254	 1.4021138721	 0.339757
C	 4.7293808331	 3.1725215436	 2.3849784724	-0.451506
H	 0.2967432883	-0.1003135268	 0.5931546972	 0.119588
H	 4.2006666338	 1.9587026015	-0.5134918371	 0.131509
H	 2.5514859236	 4.3855437035	 0.1466289361	 0.141478
H	 2.9430272406	 3.7436748626	-1.4737564255	 0.134658
H	 5.2366780016	 3.5021692412	 3.2581230944	 0.208552
34.8551	106.242	138.9075	197.5518	216.3535	288.8327	430.7563	492.6898	558.1329	621.4572	635.7137	664.6569	736.4687	757.5442	849.1154	939.6678	986.4787	1021.7442	1028.134	1046.3294	1079.8859	1217.0986	1256.7276	1308.7377	1347.0143	1389.0389	1397.7274	1517.4601	1694.6169	1824.7751	2244.1736	2966.1872	3027.2291	3075.7287	3131.8924	3502.5109
O=CC1=NC(CO1)C#C	O=CC1=N[C@@H](CO1)C#C	
InChI=1S/C6H5NO2/c1-2-5-4-9-6(3-8)7-5/h1,3,5H,4H2	InChI=1S/C6H5NO2/c1-2-5-4-9-6(3-8)7-5/h1,3,5H,4H2/t5-/m1/s1
