15
gdb 75686	3.07555	1.30376	1.07785	4.4934	69.09	-0.2631	-0.0595	0.2036	1099.5906	0.110834	-453.894843	-453.886437	-453.885493	-453.928166	30.302	
O	 0.2582234628	 1.5031177415	 0.1742684331	-0.415654
C	 0.0352966327	 0.1251847799	 0.0498529591	-0.0831
C	 0.1192618038	-0.6566345383	 1.3625316627	 0.367728
N	 0.9096300605	-0.8027527559	 2.3229267205	-0.495501
N	-1.1565169707	-1.3319850577	 1.1884837159	-0.152046
C	-2.1552375655	-0.2439363385	 1.1834783503	-0.27304
C	-1.3907472653	-0.4290350385	-0.0690157398	 0.185751
C	-2.0000593258	-1.0218585467	-1.2858126839	 0.079678
O	-3.1036421393	-1.5049523977	-1.3200444806	-0.244182
H	 0.3033741619	 1.8968659666	-0.7032146139	 0.295984
H	 0.6863348718	-0.3353461962	-0.7089805913	 0.106946
H	 1.7310247664	-0.2063776945	 2.2043955741	 0.240578
H	-3.174101503	-0.6151216436	 1.172004936	 0.162019
H	-1.9684752491	 0.6389794048	 1.7882600017	 0.149077
H	-1.3527541112	-0.990863475	-2.1912295037	 0.075761
82.3352	110.2807	176.7545	219.4874	224.4812	257.8437	313.7201	396.7178	510.6046	597.283	659.5928	689.5842	711.9306	770.6571	848.0931	909.931	944.9109	978.8075	984.8727	1045.2566	1115.0615	1141.3514	1147.6681	1176.5992	1222.1347	1274.6629	1284.8025	1370.4847	1422.8533	1431.3166	1486.7152	1813.7185	1818.8521	2876.2047	2995.5301	3125.9352	3229.7946	3469.268	3814.5908
OC1C(=N)N2CC12C=O	O[C@H]1[C]([NH])N2C[C@@]12C=O	
InChI=1S/C5H6N2O2/c6-4-3(9)5(2-8)1-7(4)5/h2-3,6,9H,1H2	InChI=1S/C5H6N2O2/c6-4-3(9)5(2-8)1-7(4)5/h2-3,6,9H,1H2/t3-,5+,7?/m0/s1
