25
gdb 87115	2.00212	1.47625	1.21301	1.372	88.34	-0.2517	0.0756	0.3273	1233.0848	0.2262	-389.479807	-389.46905	-389.468106	-389.514058	42.588	
C	-0.053258435	 1.5462372211	 0.2036228402	-0.427959
C	-0.0376780958	 0.0117179241	 0.039996667	 0.210124
C	 0.6147705657	-0.610813068	 1.2938019728	-0.410907
C	-1.5099163937	-0.4461139351	-0.0473997795	-0.413258
C	 0.7395062568	-0.4675573046	-1.2175381924	 0.325649
C	 0.4417971046	-1.8959423567	-1.6630895555	-0.464773
C	 1.0727904759	 0.4857277956	-2.3577992667	-0.388139
C	 2.1696023264	-0.0494976292	-1.4685692241	 0.063415
O	 2.8195316623	 0.7938195741	-0.5567211715	-0.415554
H	 0.9537262302	 1.9630157427	 0.2279905524	 0.128443
H	-0.6154553859	 2.0291926606	-0.6026099882	 0.102796
H	-0.5528025238	 1.8031653082	 1.1440818343	 0.101035
H	 0.0417385035	-0.3541647004	 2.1917731905	 0.099768
H	 0.6502431658	-1.703273254	 1.23123483	 0.102995
H	 1.6360412226	-0.2436738094	 1.4199378806	 0.136463
H	-1.982378705	-0.09276702	-0.9706724869	 0.108371
H	-1.6129944671	-1.5339676386	-0.0083865557	 0.109083
H	-2.0765828554	-0.0338085699	 0.79416617	 0.105283
H	-0.5750431343	-1.9929094702	-2.0553365294	 0.11954
H	 1.1260016379	-2.2017617332	-2.4605447877	 0.107626
H	 0.5560199348	-2.6129156274	-0.8432259553	 0.118783
H	 0.9978256078	 0.1232846783	-3.3784857623	 0.101331
H	 0.8259270515	 1.5336336131	-2.2357561447	 0.11249
H	 2.8240672565	-0.8154373596	-1.8861266142	 0.080121
H	 3.3678769539	 1.4057510184	-1.0589313139	 0.287274
84.1895	193.3112	204.276	237.0675	257.3017	272.5662	279.2606	286.3697	293.0252	335.0718	360.1247	363.9299	398.2601	424.1268	457.6497	479.2513	580.1508	613.0634	794.7563	817.3516	884.2742	921.2344	929.4473	935.2106	956.588	962.8635	1031.2018	1041.8576	1046.9468	1058.0289	1106.0763	1123.5741	1176.0354	1203.6333	1227.0439	1240.1361	1283.7383	1293.0564	1339.4117	1393.3006	1395.6901	1415.826	1421.4746	1431.0255	1480.8264	1484.1509	1487.0851	1494.4893	1497.2058	1509.0117	1509.7849	1513.6844	1531.0903	3027.4779	3030.9111	3034.1727	3039.1124	3084.6988	3088.5622	3090.9465	3097.1776	3099.0238	3102.8265	3108.9141	3125.3794	3129.6582	3150.7075	3221.9152	3802.5986
CC(C)(C)C1(C)CC1O	CC(C)(C)[C@@]1(C)C[C@H]1O	
InChI=1S/C8H16O/c1-7(2,3)8(4)5-6(8)9/h6,9H,5H2,1-4H3	InChI=1S/C8H16O/c1-7(2,3)8(4)5-6(8)9/h6,9H,5H2,1-4H3/t6-,8+/m1/s1
