16
gdb 42437	3.36426	0.81279	0.68998	4.1802	70.21	-0.2715	-0.0469	0.2246	1552.5195	0.122264	-437.892054	-437.882927	-437.881983	-437.927567	31.34	
O	 0.4335034275	 0.7488391773	-2.1435546187	-0.304747
C	 0.1169766556	 1.4101514426	-1.1806132715	 0.356592
C	 1.0987319184	 1.7795310007	-0.0806480654	-0.31062
C	 2.4713137079	 1.133803184	-0.3220414893	-0.342892
C	 3.4312287172	 1.4806454929	 0.7219408018	 0.254331
N	 4.1801887965	 1.7607478326	 1.5560479418	-0.30214
C	-1.2901244603	 1.9238195082	-1.0513918085	-0.009276
C	-2.0925715226	 1.66553391	 0.1634889754	-0.176754
O	-1.5369013978	 2.9472116115	-0.08685069	-0.213256
H	 1.1737814548	 2.8721858889	-0.0408906673	 0.166284
H	 0.6947851451	 1.4882880528	 0.895460098	 0.148177
H	 2.3726105698	 0.0448713567	-0.3722170145	 0.166034
H	 2.8647623308	 1.4447081853	-1.2945415407	 0.170385
H	-1.8101938295	 2.0241012287	-2.0024648307	 0.127539
H	-3.1732640492	 1.5879402898	 0.0609331288	 0.140261
H	-1.6590710142	 1.1147602181	 0.9962562406	 0.13008
49.2297	72.45	96.3254	100.8553	219.3489	252.2148	269.3469	391.9395	475.8186	521.9372	565.0944	577.59	776.5419	803.1521	875.1042	906.385	934.4682	965.6351	1026.4397	1055.5529	1086.7448	1147.3699	1162.728	1173.7602	1193.9616	1261.8264	1298.4858	1306.0966	1384.1495	1396.4948	1441.4684	1462.0988	1523.6005	1801.6946	2364.8198	3053.4024	3067.4189	3081.9612	3093.5273	3106.7528	3138.8911	3185.0836
O=C(CCC#N)C1CO1	O=C(CCC#N)[C@H]1CO1	
InChI=1S/C6H7NO2/c7-3-1-2-5(8)6-4-9-6/h6H,1-2,4H2	InChI=1S/C6H7NO2/c7-3-1-2-5(8)6-4-9-6/h6H,1-2,4H2/t6-/m1/s1
