21
gdb 119599	4.05548	0.91008	0.83441	1.2006	83.94	-0.2251	0.0227	0.2478	1439.8574	0.18304	-387.083683	-387.074842	-387.073898	-387.117457	33.916	
O	-0.1473829253	 1.5087036478	-0.1306977186	-0.420144
C	-0.0321393266	 0.096951852	-0.234107341	-0.068897
C	-1.3437326953	-0.512935729	 0.2533882661	-0.286814
C	-1.3638196717	-2.0241624648	 0.1828284483	 0.341047
C	-1.6379945041	-2.727723661	-1.1378444651	-0.318017
C	-2.6341039858	-2.8445923671	-0.0121162593	-0.104434
C	-2.5564282433	-4.0678737385	 0.8999681002	-0.277268
C	-1.1726808887	-3.962422864	 1.5077328802	-0.080761
C	-0.5467504026	-2.8441394485	 1.1352658724	-0.140103
H	 0.6779347685	 1.9004903123	-0.4302369526	 0.284327
H	 0.1551582688	-0.2159406707	-1.2736727536	 0.087721
H	 0.8076842504	-0.2770844951	 0.3735955096	 0.084138
H	-1.5234302943	-0.1762207655	 1.2817534818	 0.105436
H	-2.1555752809	-0.1018116869	-0.3578002374	 0.102572
H	-1.9287195093	-2.1080270226	-1.9812212934	 0.105582
H	-1.03080418	-3.5892593919	-1.397436056	 0.107063
H	-3.5882261497	-2.3444965302	-0.1348446448	 0.083747
H	-3.3351977282	-4.0450383639	 1.6745261795	 0.106303
H	-2.6971624866	-5.0089352795	 0.3520140542	 0.107823
H	-0.7565542767	-4.7305268401	 2.1500628519	 0.090925
H	 0.4485229216	-2.550902643	 1.4515849876	 0.089755
79.8846	93.8062	125.389	260.8779	265.7712	272.9087	330.2031	366.693	423.5129	491.1413	679.6065	729.5608	746.8241	768.2541	800.3625	847.4788	892.1411	921.1709	941.4508	956.7343	972.6807	992.6471	1016.7453	1044.1345	1066.308	1079.4437	1086.4559	1105.0535	1137.1267	1192.252	1212.845	1238.3072	1260.867	1275.8896	1313.8936	1316.1243	1346.8755	1365.4313	1407.2261	1461.1074	1472.669	1483.081	1492.4999	1527.5716	1670.2073	2965.6963	2991.8426	3011.3771	3029.7254	3038.2573	3072.7686	3115.3795	3168.9441	3179.5583	3203.6624	3205.6274	3831.0851
OCCC12CC1CC=C2	OCC[C@]12C[C@H]1CC=C2	
InChI=1S/C8H12O/c9-5-4-8-3-1-2-7(8)6-8/h1,3,7,9H,2,4-6H2	InChI=1S/C8H12O/c9-5-4-8-3-1-2-7(8)6-8/h1,3,7,9H,2,4-6H2/t7-,8-/m1/s1
