12
gdb 124170	6.63098	0.78651	0.70622	5.7639	70.25	-0.2717	-0.0616	0.2101	1502.0148	0.075869	-472.615617	-472.607517	-472.606572	-472.651067	27.251	
C	-0.1135411987	 1.4367756088	 0.0438040657	-0.513286
C	-0.0281597915	-0.0099544008	-0.0145747685	 0.297056
C	 0.0456295735	-1.2116059092	-0.0643130464	-0.073922
C	 0.1226100168	-2.6124850627	-0.1183155755	 0.270257
N	 1.1158938283	-3.3053358374	-0.5652458418	-0.182377
O	 0.7054080619	-4.6460905254	-0.4039256131	-0.220597
C	-0.5400520417	-4.6792671545	 0.1435157707	 0.475743
O	-1.1811932682	-5.6374602568	 0.411809471	-0.35215
O	-0.9215612036	-3.3646586751	 0.330240531	-0.218568
H	 0.6871852567	 1.8485784428	 0.6670146226	 0.172736
H	-0.0219403547	 1.8722393982	-0.9567490954	 0.172742
H	-1.0723826187	 1.7523380022	 0.4671627096	 0.172367
9.536	83.2772	92.6358	211.0271	310.2762	326.7707	446.6318	464.3688	479.4559	596.5834	714.0268	760.4779	776.2445	885.4176	933.3297	979.3376	1039.6837	1046.3389	1050.2272	1162.9352	1383.3592	1410.2209	1466.896	1467.6912	1634.3163	1954.0372	2371.7961	3036.0762	3102.3886	3107.2373
CC#CC1=NOC(=O)O1	CC#Cc1noc(=O)o1	
InChI=1S/C5H3NO3/c1-2-3-4-6-9-5(7)8-4/h1H3	InChI=1S/C5H3NO3/c1-2-3-4-6-9-5(7)8-4/h1H3
