21
gdb 59835	4.61205	0.57269	0.54822	1.5497	90.12	-0.2297	0.0546	0.2843	2075.696	0.180548	-387.054673	-387.044215	-387.043271	-387.091883	37.591	
C	-0.8527170156	 0.0756116797	-0.133684813	-0.402783
C	 0.6567742864	-0.0338080793	-0.3323897709	 0.145362
O	 1.2333558422	 1.2160151928	-0.6986060813	-0.434679
C	 1.3969868926	-0.4544287807	 0.9502838732	-0.339511
C	 1.0585149457	-1.7945951807	 1.4107191602	 0.034075
C	 0.7721193222	-2.9074380927	 1.7774146541	 0.093729
C	 0.4331653201	-4.2277150211	 2.2249687222	-0.156402
C	 0.5201089151	-5.4084915808	 1.2697602563	-0.252085
C	 1.5145050542	-5.2853091365	 2.3856573208	-0.250829
H	-1.0819547093	 0.8339731729	 0.6224041895	 0.120856
H	-1.349365047	 0.3613041669	-1.0683321304	 0.102439
H	-1.2697716775	-0.8817092183	 0.1908048221	 0.133905
H	 0.8640906636	-0.7898136596	-1.1066414426	 0.07238
H	 0.7414022532	 1.5610553159	-1.4500074713	 0.280914
H	 2.4730551464	-0.3813407455	 0.7518626133	 0.13351
H	 1.1786709524	 0.2857186064	 1.731363967	 0.128868
H	-0.3746353413	-4.2727428958	 2.9501043208	 0.106858
H	-0.2529128401	-6.1651597299	 1.3434378868	 0.116397
H	 0.8572731617	-5.2006213897	 0.2613755013	 0.124279
H	 2.5274780855	-4.9933081841	 2.1362344862	 0.125822
H	 1.4306675496	-5.9564541399	 3.2330153257	 0.116894
22.1354	58.8795	72.1301	137.8534	185.7757	251.3247	262.7264	307.488	333.2919	368.2886	440.666	461.1665	510.5891	548.3643	718.0677	797.1814	821.8825	836.551	892.0781	897.3895	913.5411	953.032	1056.2134	1062.1526	1079.3869	1079.7902	1099.3399	1119.4295	1126.2799	1183.9286	1201.1681	1225.4077	1230.5569	1272.5435	1327.2323	1381.3469	1393.1993	1404.4554	1419.6447	1466.9258	1469.8419	1493.7652	1497.4974	1498.1188	2360.6253	2971.5713	3022.7044	3028.7662	3060.1418	3095.4791	3121.4049	3139.6956	3140.1126	3145.8629	3224.6426	3239.8121	3821.8367
CC(O)CC#CC1CC1	C[C@@H](O)CC#CC1CC1	
InChI=1S/C8H12O/c1-7(9)3-2-4-8-5-6-8/h7-9H,3,5-6H2,1H3	InChI=1S/C8H12O/c1-7(9)3-2-4-8-5-6-8/h7-9H,3,5-6H2,1H3/t7-/m1/s1
