19
gdb 85864	2.17555	1.56193	1.23103	3.858	71.24	-0.2477	0.0601	0.3079	1103.84	0.15632	-460.121838	-460.112524	-460.11158	-460.155314	35.631	
C	-0.7710493814	 1.4045260355	 0.0296828725	-0.46293
C	-0.0432348886	 0.0719539715	-0.0273546188	 0.307301
O	-0.924608287	-0.9873065272	-0.3789329614	-0.476364
C	 1.3038978874	-0.0182862462	-0.8176428168	-0.332367
C	 1.8798232453	-0.9310883588	 0.3109201462	 0.060788
O	 3.2161420434	-0.80073349	 0.7158651923	-0.425555
C	 0.7504162704	-0.4067687392	 1.2029422561	 0.413706
C	 0.8882143191	 0.2385140195	 2.5111189993	-0.279549
O	 0.2171869776	-1.019069675	 2.3507067366	-0.268383
H	-0.1035370566	 2.2146322075	 0.3382641439	 0.1129
H	-1.1767833604	 1.6652698466	-0.9556235166	 0.110244
H	-1.6068419534	 1.3476765176	 0.733886597	 0.136298
H	-1.2784501207	-0.7943405588	-1.2542312517	 0.277659
H	 1.2459793231	-0.4428292959	-1.8216326954	 0.10383
H	 1.8243247478	 0.944515452	-0.8576723267	 0.092178
H	 1.7297569921	-1.988182564	 0.0798391373	 0.119073
H	 3.3808947781	 0.1289754253	 0.9068524983	 0.277036
H	 1.8450107122	 0.1886057605	 3.0298200464	 0.117879
H	 0.2498562817	 1.0789222991	 2.7791710515	 0.116255
81.0014	180.5828	209.3314	229.7188	248.3055	276.4906	292.5828	321.905	349.503	370.5625	438.7874	509.0271	566.8132	607.6734	660.0858	784.5792	858.7237	891.9601	926.7328	941.8959	957.7145	1002.9858	1051.65	1086.1925	1114.4094	1125.6155	1158.5307	1168.7297	1196.4352	1200.2863	1253.1131	1269.1278	1312.6165	1372.6079	1405.3302	1421.5986	1435.0757	1469.0478	1487.0162	1496.8194	1531.0879	3025.3317	3050.2421	3081.4799	3091.2771	3095.3974	3114.1906	3122.8889	3170.2559	3799.151	3804.1921
CC1(O)CC(O)C11CO1	C[C@@]1(O)C[C@@H](O)[C@]21CO2	
InChI=1S/C6H10O3/c1-5(8)2-4(7)6(5)3-9-6/h4,7-8H,2-3H2,1H3	InChI=1S/C6H10O3/c1-5(8)2-4(7)6(5)3-9-6/h4,7-8H,2-3H2,1H3/t4-,5-,6+/m1/s1
