17
gdb 9485	2.94147	1.70773	1.49925	3.4074	68.88	-0.2899	0.0172	0.3072	932.5554	0.141208	-363.86848	-363.860132	-363.859188	-363.900939	30.965	
C	 0.003837095	 1.5974477017	-0.0282513009	-0.413398
C	 0.075956337	 0.0812764631	 0.0098571892	 0.017514
C	 1.0636312198	-0.6815335824	-0.9177130969	-0.243286
C	 1.3480136194	-1.6662936226	 0.2461852024	-0.266215
C	 0.7743087069	-0.6026502789	 1.2339951377	 0.249046
O	 1.7639169495	 0.2683176455	 1.7448749103	-0.458624
C	-0.0924095471	-1.095428309	 2.3124229142	 0.224196
N	-0.7647620179	-1.5013195345	 3.1612359968	-0.339762
H	 0.9898696352	 2.0409460691	 0.1268277089	 0.136861
H	-0.3766809188	 1.9299705483	-0.9998198789	 0.117719
H	-0.6676750678	 1.983525419	 0.7453373621	 0.128215
H	-0.9237956839	-0.352412577	-0.0903725053	 0.096397
H	 0.6560917049	-1.1020403875	-1.8383816135	 0.107278
H	 1.9382352728	-0.0734877626	-1.1604471601	 0.117786
H	 0.7223952234	-2.5606645646	 0.2045496246	 0.124343
H	 2.3835505831	-1.9573812484	 0.4362238336	 0.108977
H	 2.2982212883	-0.2191345294	 2.3821659957	 0.292952
98.8054	141.9144	189.1857	217.1812	254.1818	298.4388	342.8831	385.1421	477.9203	530.6867	570.3225	614.09	702.4712	779.9433	892.3958	911.638	944.4751	963.1546	985.55	1046.1951	1115.6378	1137.9404	1169.0647	1191.0135	1226.2627	1261.1898	1269.1079	1307.3011	1339.8258	1378.4483	1408.2738	1467.7482	1489.426	1492.5867	1499.9856	2345.4702	3039.4146	3061.2523	3068.7595	3074.6146	3102.8681	3120.703	3130.1761	3136.749	3802.7192
CC1CCC1(O)C#N	C[C@H]1CC[C@]1(O)C#N	
InChI=1S/C6H9NO/c1-5-2-3-6(5,8)4-7/h5,8H,2-3H2,1H3	InChI=1S/C6H9NO/c1-5-2-3-6(5,8)4-7/h5,8H,2-3H2,1H3/t5-,6-/m0/s1
