21
gdb 104239	2.583	1.16466	0.99297	1.3058	84.85	-0.2527	0.046	0.2987	1289.9547	0.180158	-387.045805	-387.035743	-387.034799	-387.080446	37.81	
C	-0.1135127647	 1.5815210729	-0.0149827003	-0.448674
C	-0.0508825205	 0.0552695112	-0.017145006	 0.335467
C	-1.4238713171	-0.5527714289	-0.2668379243	-0.138751
O	-1.8681047921	-0.1406940372	-1.5518816281	-0.425001
C	 1.1091123604	-0.4960021908	-0.9027378742	-0.2521
C	 1.9860083406	-0.6576076975	 0.3642919027	-0.238532
C	 0.6945014773	-0.5525669216	 1.2365093427	-0.221846
C	 0.7383122484	 0.1875620733	 2.4796359965	 0.327216
C	 0.7828262779	 0.8140648091	 3.5061547842	-0.463078
H	 0.8777313838	 2.0242043325	 0.1205783949	 0.112777
H	-0.5242573693	 1.9325097508	-0.9649394698	 0.131845
H	-0.7512239434	 1.9472770532	 0.7963109978	 0.117768
H	-1.3537060287	-1.6516183449	-0.2108506184	 0.077189
H	-2.1202725866	-0.2249578151	 0.523066141	 0.08972
H	-2.7507029228	-0.4939782157	-1.6948834696	 0.288741
H	 0.8534240248	-1.4561383647	-1.3596296452	 0.099664
H	 1.4802202034	 0.1699339894	-1.6841954687	 0.10339
H	 2.5676564313	-1.5753570529	 0.4707121443	 0.103169
H	 2.6468622926	 0.1955663491	 0.5301707751	 0.115112
H	 0.303417212	-1.5591869446	 1.4279677726	 0.094154
H	 0.8231447226	 1.3623663625	 4.4143539229	 0.19177
75.9997	103.6471	148.3021	174.3828	229.2667	233.94	250.1293	312.9665	357.2638	375.6489	394.2882	511.5156	565.5905	611.8721	623.6343	636.7335	729.3353	792.1197	891.1267	907.0613	950.1073	970.4607	977.2118	994.1898	1052.8818	1080.7495	1096.1641	1146.4144	1183.4895	1206.9216	1223.4127	1244.1481	1255.5297	1268.4002	1303.138	1315.0446	1358.6528	1406.3801	1457.4045	1480.6591	1487.281	1497.6974	1499.7454	1519.6484	2228.4371	2953.6061	2984.8267	3028.1783	3038.9651	3061.7919	3073.6636	3104.5859	3111.6302	3124.484	3131.285	3504.4289	3833.6374
CC1(CO)CCC1C#C	C[C@@]1(CO)CC[C@H]1C#C	
InChI=1S/C8H12O/c1-3-7-4-5-8(7,2)6-9/h1,7,9H,4-6H2,2H3	InChI=1S/C8H12O/c1-3-7-4-5-8(7,2)6-9/h1,7,9H,4-6H2,2H3/t7-,8+/m1/s1
