16
gdb 56786	2.7309	1.31363	1.09657	2.3526	68.55	-0.2742	-0.0001	0.2741	1123.5665	0.123065	-437.84728	-437.838804	-437.83786	-437.88088	30.935	
O	-0.3104792693	 1.3148807931	 0.0947997029	-0.398756
C	 0.0528100988	-0.0467339903	-0.0324128337	-0.148492
C	 0.7562253485	-0.2977786768	-1.3104131213	 0.2582
N	 1.3355151481	-0.4715454639	-2.2949200055	-0.31972
C	 0.8841962007	-0.5466841657	 1.1190871424	 0.431529
C	 2.3266748559	-0.1681826255	 1.509893548	-0.317755
C	 2.469747365	-1.596796271	 2.1459145668	-0.234388
C	 1.0244852314	-1.8861177521	 1.7193976507	-0.044896
O	 0.1939980269	-0.8818159715	 2.321302493	-0.286664
H	 0.4936002109	 1.8474206695	 0.0859085408	 0.299427
H	-0.8889059275	-0.6049684781	-0.0367323717	 0.153482
H	 2.9857936495	-0.028024534	 0.6503203584	 0.130311
H	 2.4087197023	 0.6838663832	 2.1877564274	 0.118769
H	 3.204148492	-2.2134285907	 1.623998163	 0.120998
H	 2.6472694558	-1.6421369552	 3.2221671806	 0.121845
H	 0.5525543908	-2.8289580909	 1.4678105783	 0.116108
59.5222	103.6609	170.5207	204.7069	248.4169	297.6971	348.3051	408.7385	488.275	522.9195	604.1912	708.8516	756.2	780.2216	889.8126	914.8903	926.7104	934.9501	969.117	1012.55	1053.5023	1075.4413	1148.9467	1184.4843	1216.8378	1223.4191	1258.8125	1269.4522	1282.0534	1301.3213	1412.2677	1446.0934	1463.7407	1490.0972	2356.288	3071.6402	3076.6499	3079.054	3126.2843	3141.8027	3189.9593	3800.8901
OC(C#N)C12CCC1O2	O[C@@H](C#N)[C@]12CC[C@H]1O2	
InChI=1S/C6H7NO2/c7-3-4(8)6-2-1-5(6)9-6/h4-5,8H,1-2H2	InChI=1S/C6H7NO2/c7-3-4(8)6-2-1-5(6)9-6/h4-5,8H,1-2H2/t4-,5+,6+/m0/s1
