18
gdb 51009	2.81933	1.25739	1.01008	2.7633	73.45	-0.2409	0.0232	0.264	1196.1827	0.14716	-439.067431	-439.058819	-439.057875	-439.101512	31.924	
O	-0.328727893	 0.2234255261	 0.5162358864	-0.333992
C	-0.0319788127	 1.333100387	 0.1213129502	 0.151942
N	 1.2197840741	 1.8050939831	-0.1116478185	-0.370635
C	 2.4676499498	 1.08954367	-0.053523025	 0.358419
C	 2.623751136	-0.2075717865	 0.7007768737	-0.308257
C	 2.6588113011	-0.2093584956	-0.8093975027	-0.308933
C	 3.6250818938	 2.0451561002	 0.0015116484	 0.035356
O	 3.4418452139	 3.3108292917	-0.6450976683	-0.25109
C	 3.5999767014	 3.2854475526	 0.7843952973	-0.19471
H	-0.791253347	 2.1121931123	-0.09248618	 0.078103
H	 1.3017335352	 2.7058107662	-0.5650654355	 0.258099
H	 3.5550802203	-0.3492683421	 1.2402888953	 0.110844
H	 1.7397469858	-0.6101997407	 1.1727469005	 0.167956
H	 1.7900682783	-0.6110502609	-1.3168569679	 0.139036
H	 3.6037892202	-0.3692295699	-1.3180927688	 0.115612
H	 4.591914253	 1.5795425938	-0.1894007829	 0.102326
H	 2.707865027	 3.5403390318	 1.3521778806	 0.124184
H	 4.5312435528	 3.7116395408	 1.1519401371	 0.125739
35.0707	106.924	185.8259	218.0222	249.6268	269.4132	334.0843	391.5182	474.6687	551.1692	659.307	679.5399	772.5241	836.5235	840.5666	859.9132	903.3481	949.865	960.7255	998.2782	1027.4547	1032.9642	1063.6754	1094.6159	1103.3216	1153.0273	1171.4397	1196.1132	1201.0909	1274.1265	1299.6573	1341.6792	1431.0736	1447.6816	1452.4724	1490.5404	1524.9941	1536.5337	1796.9773	2929.6218	3097.0339	3114.7268	3135.3925	3140.1807	3188.8113	3230.3662	3264.0356	3579.2884
O=CNC1(CC1)C1OC1	O=CNC1(CC1)[C@H]1OC1	
InChI=1S/C6H9NO2/c8-4-7-6(1-2-6)5-3-9-5/h4-5H,1-3H2,(H,7,8)	InChI=1S/C6H9NO2/c8-4-7-6(1-2-6)5-3-9-5/h4-5H,1-3H2,(H,7,8)/t5-/m0/s1
