23
gdb 119745	2.68528	0.94715	0.75406	1.3138	89.72	-0.2175	0.0344	0.2519	1579.6593	0.205416	-388.31311	-388.302841	-388.301897	-388.349126	37.246	
C	 0.1778843583	 1.5399884001	 0.1396615934	-0.499756
C	 0.0459179202	 0.0534906129	 0.0188595393	 0.224399
C	-1.0729625934	-0.6785138757	-0.0846826248	 0.221516
C	-2.4939200923	-0.1937047083	-0.1147147306	-0.301285
C	-3.1197479688	-0.2557529445	-1.5109155552	-0.061911
O	-4.4733710979	 0.156921056	-1.3944637608	-0.419282
C	-0.7587668442	-2.164046149	-0.1162273237	-0.294952
C	 0.7646755404	-2.2119894746	-0.3700824715	-0.207071
C	 1.2820039364	-0.8231450033	 0.0682472716	-0.284066
H	 0.7846665218	 1.9487575907	-0.6789414528	 0.121774
H	-0.7869915011	 2.052549847	 0.1275317034	 0.123291
H	 0.6936246729	 1.8136685047	 1.069784214	 0.122472
H	-3.113955711	-0.8065685983	 0.5528754407	 0.107162
H	-2.5734409224	 0.8370787644	 0.2442236254	 0.107197
H	-2.5558853615	 0.4004282037	-2.1924180607	 0.087297
H	-3.0494369372	-1.2795870745	-1.9106995085	 0.086165
H	-4.8735619181	 0.1246218503	-2.2681421876	 0.284566
H	-1.0291705868	-2.6253370715	 0.8459003165	 0.100049
H	-1.3271499449	-2.7094932436	-0.8790069855	 0.095996
H	 1.2591360003	-3.0371188938	 0.1491370409	 0.093179
H	 0.9505282627	-2.3470963338	-1.4405794456	 0.100379
H	 2.088615027	-0.4507561347	-0.5754528334	 0.094184
H	 1.6943920398	-0.8400039742	 1.0886644555	 0.098698
47.7614	80.6657	102.332	144.7727	166.9359	212.4411	257.7666	284.9292	335.8445	342.1996	402.494	555.4681	592.2722	630.5988	747.2238	794.0888	850.4017	892.8135	916.3107	927.246	985.0143	1012.853	1020.3871	1029.1644	1072.2226	1092.5132	1109.4575	1156.847	1184.9867	1211.9724	1227.1218	1240.8173	1246.2368	1261.9023	1311.8271	1325.1652	1327.8188	1339.266	1361.9841	1414.6676	1452.4712	1480.2351	1480.9207	1483.7482	1488.6393	1497.2493	1506.5269	1525.8239	1735.4047	2969.2778	2991.4072	2991.7686	2996.2121	3013.5883	3025.5103	3034.0483	3041.0143	3054.6403	3056.7674	3083.0911	3096.9095	3114.6914	3830.314
CC1=C(CCO)CCC1	CC1=C(CCO)CCC1	
InChI=1S/C8H14O/c1-7-3-2-4-8(7)5-6-9/h9H,2-6H2,1H3	InChI=1S/C8H14O/c1-7-3-2-4-8(7)5-6-9/h9H,2-6H2,1H3
