17
gdb 93308	2.12386	1.92608	1.25344	4.992	68.56	-0.265	0.0122	0.2772	1021.6969	0.136405	-458.992457	-458.984411	-458.983467	-459.02527	30.389	
O	-0.105256224	 1.5001548671	 0.0625911297	-0.425018
C	-0.0050861584	 0.0836286216	 0.0185727336	-0.033111
C	 0.5468376548	-0.5137833844	 1.3328713468	-0.103789
O	-0.5822874153	-0.8348813172	 2.1559639311	-0.230539
C	-1.7194714416	-0.9014480596	 1.4069096465	 0.421414
O	-2.7720637066	-1.2530539266	 1.8592314137	-0.364495
C	-1.4026282629	-0.488879957	 0.0053249579	 0.195686
C	-2.5153954608	 0.0335014565	-0.8677023388	-0.288553
C	-1.9731362635	-1.3340843559	-1.1233925699	-0.311527
H	 0.7852210582	 1.8659243939	 0.0902668684	 0.286852
H	 0.5986027525	-0.2370734694	-0.8407256104	 0.078294
H	 1.1215647201	-1.4293693043	 1.1496562535	 0.116136
H	 1.171412231	 0.2000883128	 1.8760581034	 0.117044
H	-3.4860397075	 0.1126653686	-0.3916193909	 0.145152
H	-2.2542064334	 0.8376221994	-1.544738568	 0.133949
H	-1.3379314175	-1.4914761709	-1.9884589653	 0.121256
H	-2.5744390153	-2.1857861845	-0.8263953713	 0.141248
61.2992	172.7893	209.334	239.9011	248.6489	307.0393	359.6324	476.592	520.4591	581.8975	720.5335	745.5698	771.3074	792.3497	864.2769	913.8748	936.5254	970.8587	993.6089	1010.1804	1062.3948	1077.3044	1093.786	1122.8473	1124.5467	1201.1353	1207.1246	1247.1666	1294.4046	1313.6621	1360.413	1388.3961	1443.3108	1458.3006	1492.5482	1502.5442	1874.0193	3009.5011	3038.0206	3100.531	3136.1554	3148.1493	3225.98	3245.2157	3810.9207
OC1COC(=O)C11CC1	O[C@H]1COC(=O)C21CC2	
InChI=1S/C6H8O3/c7-4-3-9-5(8)6(4)1-2-6/h4,7H,1-3H2	InChI=1S/C6H8O3/c7-4-3-9-5(8)6(4)1-2-6/h4,7H,1-3H2/t4-/m0/s1
