17
gdb 53081	4.66616	0.90844	0.80261	1.3909	86.86	-0.2361	-0.0282	0.2078	1450.0498	0.136284	-380.832179	-380.823677	-380.822733	-380.867782	30.415	
C	-0.0742264226	 1.4206558422	 0.0296704065	-0.509865
C	-0.0020038984	-0.0302035017	 0.0117340856	 0.269973
C	 0.0662298882	-1.2333953806	-0.005807242	-0.054006
C	 0.1093443956	-2.6536687237	-0.0213461491	 0.149436
N	 1.1856317365	-3.3459229068	 0.0326273639	-0.279869
C	 0.8012615157	-4.763818638	-0.0095103454	-0.199329
C	-0.7260680843	-4.7684417418	 0.0061864159	-0.044862
C	-1.4154557071	-4.1018860746	 1.1355014342	-0.250636
N	-1.1496162523	-3.3534113777	-0.1224959169	-0.154533
H	 0.924599731	 1.8674790703	 0.0707857884	 0.158421
H	-0.5769597239	 1.7988914481	-0.8672136421	 0.158788
H	-0.6383021981	 1.7748430273	 0.899569687	 0.156872
H	 1.1908248424	-5.2192326817	-0.9283857965	 0.121761
H	 1.259440833	-5.2989088355	 0.8303870637	 0.119852
H	-1.2667314315	-5.4826584545	-0.6058450866	 0.102699
H	-2.4650343615	-4.3017010945	 1.3263945094	 0.125201
H	-0.8287533628	-3.8267260168	 2.0084023842	 0.130097
8.5611	85.5148	98.9665	244.1997	280.5203	314.0654	369.2323	435.8733	461.8011	525.0965	718.7854	746.2682	790.4212	825.5512	867.5026	930.7677	964.9079	989.6016	1018.3254	1047.8383	1053.4208	1081.321	1086.1954	1110.0711	1163.3266	1202.3157	1237.9368	1285.583	1345.5815	1371.5609	1411.3786	1472.4491	1473.9844	1483.6527	1502.2655	1659.0104	2364.9817	3029.698	3030.2394	3059.7982	3091.6179	3097.2642	3112.2266	3166.5547	3205.4379
CC#CC1=NCC2CN12	CC#CC1=NC[C@H]2CN12	
InChI=1S/C7H8N2/c1-2-3-7-8-4-6-5-9(6)7/h6H,4-5H2,1H3	InChI=1S/C7H8N2/c1-2-3-7-8-4-6-5-9(6)7/h6H,4-5H2,1H3/t6-,9?/m0/s1
