12
gdb 129324	2.65808	1.83238	1.15585	3.6276	68.66	-0.2758	-0.128	0.1478	963.2164	0.075561	-468.737768	-468.730231	-468.729287	-468.770605	27.144	
N	 0.0874536967	 1.2109301592	-0.5930757202	-0.430338
C	-0.0171290213	 0.1097920849	 0.0187735102	 0.2764
O	 1.0344031434	-0.7266676255	 0.2535856757	-0.302922
N	 1.3252128438	-1.0558425389	 1.7550753853	-0.007057
N	 0.5550878909	-1.8185041935	 2.2773917079	-0.020017
C	-0.6164088982	-2.3933313375	 1.7553436762	 0.017797
C	-1.4949949067	-1.788533164	 0.9470602959	-0.123855
C	-1.4004748111	-0.417289271	 0.3757113026	 0.301789
O	-2.4057685264	 0.2141639365	 0.1542904185	-0.269379
H	 1.0737227684	 1.4157110073	-0.7728315338	 0.245338
H	-0.8283325342	-3.3541816771	 2.2094006413	 0.158831
H	-2.4425559752	-2.2831909903	 0.7561544804	 0.153412
37.2922	140.1239	224.8169	297.568	311.3831	393.0581	431.2847	467.1435	564.3264	618.6436	684.2559	718.7833	783.5908	839.0595	879.4878	937.5987	949.8317	996.5365	1041.0726	1169.52	1239.8962	1318.4613	1399.6609	1647.6846	1688.7575	1736.967	1785.5184	3186.8239	3213.1412	3465.3174
N=C1ON=NC=CC1=O	[NH][C]1ON=NC=CC1=O	
InChI=1S/C4H3N3O2/c5-4-3(8)1-2-6-7-9-4/h1-2,5H	InChI=1S/C4H3N3O2/c5-4-3(8)1-2-6-7-9-4/h1-2,5H
