19
gdb 38171	2.57336	1.89758	1.29975	2.1171	79.73	-0.242	0.004	0.246	1010.3224	0.161344	-385.874343	-385.867111	-385.866167	-385.906032	29.334	
C	 0.3370643132	 1.5567466143	 0.4718364529	-0.237346
C	 1.5742907272	 1.5762421773	-0.4792579055	-0.331399
C	 1.4834362951	 0.0542300566	-0.4630342532	 0.457445
O	 2.0298296516	-0.8922557223	-1.3500141599	-0.311925
C	 2.4314978835	-0.9239443557	 0.0564522263	-0.10788
C	 1.9033246204	-2.0108169533	 0.9159490087	-0.063449
C	 0.6440033195	-2.0121525672	 1.3591146277	-0.051563
C	-0.4118060274	-0.9877962472	 1.0215435794	-0.304491
C	 0.0326357889	 0.0909430651	 0.0179226674	-0.066985
H	 0.6363959565	 1.596230856	 1.5229497077	 0.10616
H	-0.4412685511	 2.300707018	 0.2949307939	 0.102987
H	 1.3220486598	 1.9827026868	-1.4634495977	 0.112998
H	 2.4959463107	 2.0429739587	-0.1248287023	 0.104405
H	 3.4720806846	-0.6377112195	 0.2010746111	 0.092508
H	 2.5850517605	-2.8052032587	 1.2063245104	 0.08993
H	 0.315865361	-2.8190501218	 2.0114027436	 0.093174
H	-1.2861999686	-1.5262808549	 0.6342247393	 0.118038
H	-0.7631269052	-0.5225792784	 1.9540190168	 0.113567
H	-0.64075256	 0.1159848464	-0.8448787269	 0.083826
72.6719	192.4161	273.7465	327.6737	387.6422	481.3051	490.684	530.5634	570.9739	682.4898	727.6228	776.8213	834.0251	857.849	880.7158	907.9437	912.8101	937.1181	977.1377	992.1248	1006.6715	1072.6937	1090.3809	1100.564	1114.5244	1160.746	1205.5356	1215.362	1230.2604	1246.3192	1265.4728	1273.1535	1323.5847	1352.2643	1373.6649	1419.6043	1470.0012	1480.1723	1487.5685	1521.2056	1709.8212	3005.517	3030.7179	3054.232	3058.953	3064.4821	3109.9496	3121.5936	3126.7951	3143.0651	3172.5415
C1CC23OC2C=CCC13	C1C[C@@]23O[C@@H]2C=CC[C@@H]13	
InChI=1S/C8H10O/c1-2-6-4-5-8(6)7(3-1)9-8/h1,3,6-7H,2,4-5H2	InChI=1S/C8H10O/c1-2-6-4-5-8(6)7(3-1)9-8/h1,3,6-7H,2,4-5H2/t6-,7+,8-/m0/s1
