17
gdb 6743	5.78399	0.92773	0.83355	2.5671	70.09	-0.2388	-0.0134	0.2254	1382.5982	0.138398	-401.008246	-400.998497	-400.997553	-401.044207	32.108	
C	 0.2531067644	 1.0907353005	 0.281592374	-0.251232
O	-0.1840937649	-0.2124014338	-0.0873749321	-0.190186
C	 0.5774690636	-0.8431750118	-0.9976145312	 0.155
N	 0.2864639469	-2.0148347378	-1.3620332979	-0.216019
C	 1.1796183443	-2.6505609809	-2.2959407543	-0.275836
C	 2.5350281396	-3.0501569431	-1.6830689207	 0.385878
C	 3.2424132482	-4.2079318333	-2.3591277628	-0.475694
O	 3.0070753751	-2.4554803284	-0.7450728445	-0.287776
H	 1.2325764276	 1.0580422908	 0.7727815815	 0.136481
H	 0.3046331885	 1.7588021361	-0.5868695183	 0.12464
H	-0.4875713164	 1.475407915	 0.9834742334	 0.145561
H	 1.420200594	-0.2478627934	-1.3758488583	 0.081948
H	 0.6981325475	-3.5403838886	-2.7151484129	 0.118259
H	 1.4392417518	-2.0128424298	-3.1614684426	 0.118047
H	 3.2005634665	-4.1119446642	-3.4495712822	 0.13555
H	 4.278817741	-4.2640883897	-2.0244258769	 0.144025
H	 2.7293479322	-5.1424715676	-2.1023517242	 0.151356
45.82	57.9375	78.2918	135.4946	152.0217	162.0993	232.5287	315.952	358.9427	442.6368	473.0954	543.2132	663.834	790.6638	867.5771	961.9804	993.3345	1047.4535	1074.9042	1098.1417	1176.8971	1180.9226	1185.7096	1230.8177	1294.9402	1346.4648	1380.7043	1418.6666	1462.7212	1472.2402	1476.7313	1486.6499	1494.3263	1501.6864	1765.712	1823.3675	2940.7576	3011.9842	3026.1627	3034.9632	3065.3901	3081.6999	3096.2093	3145.8817	3152.2485
COC=NCC(C)=O	COC=NCC(=O)C	
InChI=1S/C5H9NO2/c1-5(7)3-6-4-8-2/h4H,3H2,1-2H3	InChI=1S/C5H9NO2/c1-5(7)3-6-4-8-2/h4H,3H2,1-2H3
