21
gdb 82190	2.39066	1.76118	1.31979	1.5331	80.37	-0.2376	0.0681	0.3057	1058.7026	0.183472	-387.069488	-387.061108	-387.060164	-387.101836	33.754	
C	-0.1754796263	 1.4610187503	 0.002122466	-0.489865
C	 0.0059937866	-0.0386814465	 0.0033286861	 0.342841
C	-0.7718370976	-0.8700638015	 0.9961753837	-0.353108
C	 0.7354128193	-0.7970550426	 1.0914342575	-0.082284
C	 1.5763331224	-1.8921145498	 0.4497472104	-0.035918
C	 0.8904701323	-3.0407312842	-0.2464736688	-0.313595
C	 1.3449268031	-1.8406328536	-1.0435955504	-0.058119
C	 0.3736870311	-0.6923228916	-1.346498498	 0.038523
O	-0.7354190339	-1.0272714624	-2.1680229066	-0.432816
H	 0.7249697661	 1.9726701723	-0.3582542796	 0.113518
H	-1.0065183906	 1.7506458367	-0.6514982945	 0.127889
H	-0.3941389524	 1.8373969843	 1.0066232657	 0.109974
H	-1.3400277959	-0.3178740264	 1.7385470327	 0.107834
H	-1.2550397696	-1.795131343	 0.7024029594	 0.098197
H	 1.16658853	-0.279453464	 1.94177555	 0.080832
H	 2.56410532	-2.0591582187	 0.8636801313	 0.083496
H	 1.4663183844	-3.9496670039	-0.3864739211	 0.111624
H	-0.1624467048	-3.2317045218	-0.0726321021	 0.103481
H	 2.1531117214	-1.9958339087	-1.7496056849	 0.08581
H	 0.9170309426	 0.055915337	-1.9348530301	 0.085984
H	-1.2316912582	-1.7198985218	-1.7196659467	 0.2757
129.9463	172.2153	207.456	219.8564	255.1759	290.6007	401.6441	422.5198	494.9233	554.9387	613.4973	662.1144	698.4819	783.1518	804.6685	831.3204	856.8392	924.029	956.7928	968.4553	975.3188	1014.9235	1027.1856	1047.6886	1062.7547	1073.9171	1080.6	1097.4211	1109.6836	1121.4267	1131.4575	1203.3536	1236.084	1281.3463	1290.3451	1324.2825	1348.9338	1379.2627	1405.3532	1417.2645	1436.3674	1486.0324	1488.3412	1502.3525	1514.1125	3020.1789	3045.0451	3081.3576	3095.8749	3126.2086	3136.7784	3157.9132	3165.0102	3176.926	3201.8047	3213.2471	3809.9719
CC12CC1C1CC1C2O	C[C@]12C[C@H]1[C@H]1C[C@H]1[C@H]2O	
InChI=1S/C8H12O/c1-8-3-6(8)4-2-5(4)7(8)9/h4-7,9H,2-3H2,1H3	InChI=1S/C8H12O/c1-8-3-6(8)4-2-5(4)7(8)9/h4-7,9H,2-3H2,1H3/t4-,5+,6-,7+,8-/m0/s1
