21
gdb 68990	2.81524	1.26684	1.13992	1.5106	83.73	-0.2377	0.0846	0.3223	1199.2496	0.182056	-387.046618	-387.037871	-387.036926	-387.080017	33.666	
C	 0.0887636007	 1.5415239626	 0.0743066457	-0.492399
C	 0.0740771917	 0.0406792789	 0.0182570648	 0.306226
C	-0.8927217838	-0.8012245177	 0.8050191268	-0.390805
C	 0.5850513362	-1.0090155568	 1.0295731183	 0.35221
C	 1.16456084	-1.8536570631	-0.1104350451	-0.303125
C	 0.6442622554	-0.7957974628	-1.1368937336	-0.279354
C	 1.2200380461	-0.8191784734	 2.3529082922	-0.048883
C	 2.0205102384	-1.8669167057	 3.0044429335	-0.183979
O	 2.6543638071	-0.7483414127	 2.3824823459	-0.240292
H	 1.0793156328	 1.9402640156	-0.1717681281	 0.122123
H	-0.6277808761	 1.969407221	-0.6380068172	 0.119508
H	-0.1816910659	 1.9093606448	 1.0696401776	 0.115495
H	-1.4138173707	-0.2779956114	 1.6024496913	 0.107555
H	-1.4858245984	-1.5794288979	 0.3274127446	 0.101514
H	 2.2548691333	-1.8946629312	-0.0758042158	 0.119484
H	 0.7697798802	-2.8709876974	-0.2053285876	 0.089622
H	-0.0816751212	-1.1435669812	-1.8798206766	 0.092546
H	 1.4615338306	-0.2922109604	-1.6591746033	 0.103977
H	 0.7328893113	-0.0880897658	 3.0009688285	 0.084088
H	 2.0879053677	-1.9021445204	 4.0913010587	 0.112214
H	 2.1616620045	-2.8223684649	 2.5007664793	 0.112276
74.3718	133.3697	161.627	202.3449	226.0736	292.5912	344.9133	410.2718	436.7257	537.5663	578.5218	695.4516	736.557	792.7537	838.5001	839.0136	895.8148	927.0253	942.8358	966.8641	987.9271	1001.8668	1025.8905	1067.4007	1088.9498	1103.4972	1142.1124	1154.7284	1168.1613	1172.7169	1224.2403	1242.3535	1244.8053	1264.3945	1296.5446	1351.5762	1368.4283	1417.8204	1455.3806	1481.4719	1486.1489	1487.6435	1498.6479	1518.4162	1530.3112	3019.1046	3037.6712	3045.8977	3077.4187	3079.1561	3089.2225	3092.993	3094.8078	3096.3282	3118.5637	3165.5274	3182.0042
CC12CC1(CC2)C1CO1	C[C@]12C[C@]1(CC2)[C@H]1CO1	
InChI=1S/C8H12O/c1-7-2-3-8(7,5-7)6-4-9-6/h6H,2-5H2,1H3	InChI=1S/C8H12O/c1-7-2-3-8(7,5-7)6-4-9-6/h6H,2-5H2,1H3/t6-,7+,8-/m1/s1
