20
gdb 121869	2.49732	1.12905	0.88772	5.7442	72.79	-0.2373	0.0296	0.2669	1363.8937	0.169895	-477.450719	-477.440712	-477.439768	-477.486049	36.112	
C	 0.3328144295	 1.7034334761	 0.2679615868	-0.396885
C	-0.0939369683	 0.3078423547	-0.183570466	-0.010038
O	 0.2763937838	 0.156382393	-1.5424515225	-0.256356
C	-0.414421149	-0.8402382073	-2.2748699708	-0.068677
C	 0.5703155384	-1.4290894761	-3.2785168604	-0.16266
N	 1.6520170874	-2.1190576918	-2.5598519093	-0.499369
H	 2.5020913065	-2.1450155853	-3.1108481087	 0.246522
H	 1.6045579644	-1.4131262099	-0.7646081315	 0.324302
H	 1.399247907	-3.081824724	-2.3600787706	 0.246986
C	 0.5495113426	-0.7497343263	 0.7393823791	 0.374944
O	 0.2282843548	-0.8257980599	 1.898178335	-0.341664
O	 1.4861581533	-1.5377131176	 0.2089410627	-0.385382
H	 1.4084393666	 1.8358288683	 0.1180766469	 0.12936
H	-0.1943029823	 2.4639050188	-0.3134065609	 0.119693
H	 0.1052564942	 1.8302974613	 1.3277311409	 0.147738
H	-1.1810337187	 0.2043774912	-0.0622104245	 0.098769
H	-0.788486525	-1.6335736507	-1.610812698	 0.103884
H	-1.2810939162	-0.404760414	-2.7943436974	 0.103479
H	 0.0338870589	-2.0730393545	-3.9899857167	 0.098084
H	 1.008502052	-0.6031730059	-3.8469576544	 0.127269
54.6415	88.034	132.575	181.271	205.0256	234.388	257.4731	281.4867	312.6111	340.6496	447.2809	466.8417	561.7508	627.1438	737.427	812.1036	839.3446	876.9071	907.7689	918.5468	972.8786	1013.1902	1047.8573	1085.2761	1104.977	1142.8007	1149.345	1229.4116	1254.1968	1292.5406	1318.3847	1338.185	1342.6502	1363.961	1397.8328	1414.7844	1427.4019	1487.3904	1487.977	1498.66	1511.2808	1659.481	1843.2575	2984.1437	3006.2104	3015.1568	3026.0598	3050.8522	3090.3503	3123.6064	3148.877	3357.6655	3511.8397	3593.4806
CC(OCC[NH3+])C([O-])=O	C[C@@H](OCCN)C(=O)O	
InChI=1S/C5H11NO3/c1-4(5(7)8)9-3-2-6/h4H,2-3,6H2,1H3,(H,7,8)	InChI=1S/C5H11NO3/c1-4(5(7)8)9-3-2-6/h4H,2-3,6H2,1H3,(H,7,8)/t4-/m1/s1
