16
gdb 30069	3.13813	1.29847	1.02158	3.9359	74.83	-0.2323	0.0088	0.241	1145.5016	0.125765	-396.982944	-396.974475	-396.973531	-397.017248	29.759	
C	 0.2920445322	 1.3807622486	 0.1679061224	-0.358123
N	 0.0959900036	-0.0554994836	 0.0578885079	-0.025283
C	-0.0436329385	-0.7702793971	-1.112431628	-0.1262
C	-0.201928362	-2.0777609626	-0.7389061022	-0.099129
N	-0.161205566	-2.1915325017	 0.6287101291	-0.299882
C	 0.0170290422	-0.9670818147	 1.0755552651	 0.335158
C	 0.0994826122	-0.6150148199	 2.5332682992	-0.441123
C	 1.3627994746	 0.0250502767	 2.914376269	 0.264023
N	 2.352499753	 0.5529798281	 3.1920205088	-0.314197
H	 1.2521321316	 1.6111520143	 0.6369196521	 0.175551
H	 0.2728564892	 1.8149927869	-0.8321379022	 0.149718
H	-0.5079368469	 1.8391964578	 0.757731013	 0.144571
H	-0.0141770374	-0.2822356424	-2.0728248038	 0.130835
H	-0.3416338609	-2.9397433788	-1.3727332907	 0.11387
H	-0.7219215554	 0.0461570351	 2.8397051219	 0.160166
H	-0.0143313015	-1.5493733767	 3.0891040583	 0.190044
41.1731	71.1	112.0074	205.9144	252.6924	288.089	381.2734	417.3222	482.4103	634.3669	669.781	705.6455	744.4711	784.818	850.3668	923.206	933.3028	945.9386	1063.1168	1109.2432	1151.9894	1161.3043	1209.605	1235.4243	1315.0776	1324.7288	1391.7477	1443.1156	1447.2612	1476.0466	1488.8609	1512.0117	1532.5203	1562.5176	2360.9443	3027.4508	3046.5443	3109.8402	3112.9683	3150.3343	3251.5328	3276.5657
CN1C=CN=C1CC#N	Cn1ccnc1CC#N	
InChI=1S/C6H7N3/c1-9-5-4-8-6(9)2-3-7/h4-5H,2H2,1H3	InChI=1S/C6H7N3/c1-9-5-4-8-6(9)2-3-7/h4-5H,2H2,1H3
