16
gdb 63366	2.73611	1.25774	1.12577	4.2116	70.73	-0.2767	-0.0575	0.2192	1142.1291	0.121027	-437.899012	-437.889762	-437.888818	-437.933353	32.788	
C	-0.5070732618	 1.5597633161	 0.0662465494	-0.424295
C	-0.1120972003	 0.0884437701	 0.0202097745	 0.279308
C	-1.252618155	-0.8362738544	-0.3796237807	-0.430129
O	 1.0726602918	-0.1197683314	-0.8266888332	-0.321972
C	 1.9245254367	-0.5374337421	 0.248161503	-0.13127
C	 3.0612191264	 0.3470487915	 0.4840088385	 0.288876
N	 3.9484254448	 1.0587012795	 0.6901465053	-0.312722
C	 0.7156262577	-0.380830051	 1.2272064962	 0.312983
O	 0.5295693733	-0.5720798669	 2.3829534816	-0.256102
H	 0.3419888281	 2.1892538605	 0.3441334149	 0.14459
H	-0.8612744114	 1.8741918687	-0.9200045484	 0.14095
H	-1.3104226866	 1.7125587298	 0.792677779	 0.140557
H	-1.6210042006	-0.5584612998	-1.3717516977	 0.141417
H	-0.9254297161	-1.8786373068	-0.4122886079	 0.131197
H	-2.0762466561	-0.7501886102	 0.3348618174	 0.142449
H	 2.272235919	-1.5724981035	 0.1379167482	 0.154164
51.1927	126.707	153.2917	178.7343	210.3242	225.3757	276.0509	334.4788	390.2289	425.5414	490.6473	567.469	635.836	697.8942	768.9246	845.9521	918.7689	945.1702	974.1684	1005.1232	1021.647	1047.1645	1169.0041	1178.5648	1219.6388	1274.0695	1326.9626	1394.6882	1412.2292	1469.8326	1477.623	1493.9069	1501.7063	1937.7438	2353.6555	3035.5507	3042.9838	3046.5015	3119.4527	3123.5796	3126.6265	3129.8477
CC1(C)OC(C#N)C1=O	CC1(C)O[C@@H](C#N)C1=O	
InChI=1S/C6H7NO2/c1-6(2)5(8)4(3-7)9-6/h4H,1-2H3	InChI=1S/C6H7NO2/c1-6(2)5(8)4(3-7)9-6/h4H,1-2H3/t4-/m0/s1
