15
gdb 130025	5.05176	1.03999	0.87077	1.2322	72.66	-0.2229	-0.0559	0.167	1259.8317	0.113543	-450.139447	-450.13114	-450.130196	-450.173267	30.154	
N	 0.0130307831	 1.3291145627	 0.1085916566	-0.545891
C	-0.0111525804	-0.0300305761	 0.0335222909	 0.468857
N	-1.2083474206	-0.6372467298	 0.1288076175	-0.300434
C	-1.1601609289	-1.9587249714	 0.1105331977	-0.042482
C	 0.055423825	-2.6418735287	-0.0073802648	 0.291689
C	 0.1602279706	-4.1451599564	-0.0034207876	-0.154366
O	-1.119573582	-4.6873760538	-0.2848871757	-0.41909
N	 1.1957848399	-1.9637002096	-0.1296218975	-0.236184
N	 1.1805489442	-0.6441138646	-0.1098595119	-0.262987
H	 0.8627013982	 1.7846277939	-0.1800944978	 0.268477
H	-0.8578361511	 1.8113640283	-0.035724539	 0.266149
H	-2.0970225063	-2.5022628745	 0.1772225593	 0.141056
H	 0.9130948654	-4.4456068548	-0.7461604766	 0.11797
H	 0.5271378518	-4.4806874378	 0.9801330402	 0.111515
H	-1.0752706189	-5.6398725975	-0.1659014315	 0.29572
29.2043	104.6549	200.1761	226.9315	325.0308	372.3658	376.5941	410.3938	447.6229	503.4152	559.7544	586.6923	670.17	783.6228	834.2551	891.8132	978.6424	1042.192	1057.93	1062.344	1092.6468	1167.6282	1211.225	1240.2237	1270.3918	1361.6255	1400.3227	1449.414	1494.8811	1511.8681	1560.9681	1611.6996	1637.0566	2970.5957	3014.617	3189.7407	3608.6448	3737.2503	3844.8104
NC1=NC=C(CO)N=N1	Nc1ncc(CO)nn1	
InChI=1S/C4H6N4O/c5-4-6-1-3(2-9)7-8-4/h1,9H,2H2,(H2,5,6,8)	InChI=1S/C4H6N4O/c5-4-6-1-3(2-9)7-8-4/h1,9H,2H2,(H2,5,6,8)
