13
gdb 132796	2.48704	1.84688	1.06094	2.8327	64.47	-0.2204	-0.015	0.2054	1006.9119	0.090955	-494.099752	-494.092534	-494.09159	-494.131262	27.753	
N	-0.0463445513	 1.4512402624	-0.147400907	-0.60563
C	-0.0066040258	 0.0667438343	-0.0658171362	 0.060374
C	-1.1382194203	-0.7392434954	 0.0059597814	 0.302191
F	-2.3201903404	-0.1227479977	 0.071210079	-0.075203
N	-1.1410503571	-2.0539356307	 0.0215812672	-0.313177
C	 0.0575621274	-2.6306264743	-0.0315435992	 0.045114
N	 1.2289505402	-1.995708527	-0.0899352441	-0.346405
C	 1.1855736531	-0.6714914841	-0.1042914568	 0.397667
O	 2.3431998197	 0.0191453788	-0.1515232514	-0.42314
H	 0.7966669153	 1.9069920469	 0.1705901288	 0.26579
H	-0.8859988903	 1.8635404454	 0.232221465	 0.260761
H	 0.0850064309	-3.7153950912	-0.0241227212	 0.125368
H	 3.0533366885	-0.6376411373	-0.1614112554	 0.306289
137.7247	261.4502	269.2321	316.7703	324.8673	342.5301	517.2474	523.9056	558.7735	568.7856	572.8785	632.0329	670.6428	743.0405	799.3268	888.1494	951.7139	993.8661	1145.9529	1221.2968	1307.4375	1335.7449	1350.1304	1360.0643	1492.7557	1512.4201	1624.1347	1635.3988	1665.7965	3188.8172	3566.4513	3673.1412	3771.9901
NC1=C(F)N=CN=C1O	Nc1c(F)ncnc1O	
InChI=1S/C4H4FN3O/c5-3-2(6)4(9)8-1-7-3/h1H,6H2,(H,7,8,9)	InChI=1S/C4H4FN3O/c5-3-2(6)4(9)8-1-7-3/h1H,6H2,(H,7,8,9)
