22
gdb 98589	2.59647	1.14526	0.92428	3.3738	84.39	-0.2367	0.0205	0.2572	1388.7017	0.191712	-404.366119	-404.355442	-404.354498	-404.40237	38.101	
C	-0.2247282138	 1.383893549	-0.1022866599	-0.37029
C	-0.0871524775	-0.1373154479	-0.1528436566	-0.284386
C	 0.6437971667	-0.6162169909	-1.4036233939	 0.383645
O	 0.7941403648	 0.0763788326	-2.3905194215	-0.36045
N	 1.21145019	-1.8733972288	-1.2935722269	-0.096095
C	 0.6410987915	-3.1739106391	-0.9908768721	-0.021698
C	-0.84930039	-3.3979853714	-0.8726112562	-0.414829
C	 1.3320578837	-2.8916954076	-2.3098365055	-0.008029
C	 0.6050434388	-2.7871173893	-3.630923442	-0.406147
H	 0.755534972	 1.8637743378	-0.033151563	 0.126389
H	-0.7058730165	 1.7552711945	-1.0094589124	 0.1374
H	-0.8184696627	 1.689581581	 0.7639258413	 0.104978
H	 0.4294041641	-0.525672339	 0.7315689812	 0.116507
H	-1.0806916321	-0.6060804903	-0.1497530011	 0.119613
H	 1.2206682107	-3.7368554	-0.2581860807	 0.095938
H	-1.4169048294	-2.8343512571	-1.6163042277	 0.130452
H	-1.0761969308	-4.4613515877	-1.0042380089	 0.128534
H	-1.2096778964	-3.1051796335	 0.1189655492	 0.130492
H	 2.345416126	-3.2837939246	-2.4027434866	 0.096232
H	-0.4277607851	-2.4531214327	-3.5169486672	 0.124629
H	 1.1080156772	-2.0643501874	-4.277943463	 0.151248
H	 0.601685019	-3.7610380176	-4.1314823964	 0.115866
41.1043	84.5206	127.0752	135.0631	162.7539	196.0899	208.1788	256.3376	276.9999	329.0965	443.2356	462.0247	493.9776	589.6648	617.2136	724.2998	786.0531	814.7287	846.152	948.0908	970.7572	1014.9519	1034.0776	1078.1836	1088.7585	1096.7758	1127.6747	1139.4321	1169.3703	1196.4157	1201.2285	1283.1718	1349.4042	1380.7022	1409.6531	1410.93	1416.5742	1420.8134	1457.3938	1463.7397	1480.4946	1485.0812	1491.34	1496.5175	1501.9494	1511.6514	1768.2688	3026.0921	3039.5884	3048.5842	3049.8013	3071.1588	3088.9939	3098.4658	3099.8258	3117.2159	3119.1019	3128.3153	3135.0565	3141.501
CCC(=O)N1C(C)C1C	CCC(=O)N1[C@@H](C)[C@H]1C	
InChI=1S/C7H13NO/c1-4-7(9)8-5(2)6(8)3/h5-6H,4H2,1-3H3	InChI=1S/C7H13NO/c1-4-7(9)8-5(2)6(8)3/h5-6H,4H2,1-3H3/t5-,6+,8?
