23
gdb 118338	2.0467	0.98846	0.7034	1.4413	83.15	-0.2462	-0.0201	0.2261	1646.8157	0.202084	-425.436792	-425.425231	-425.424287	-425.474728	40.357	
C	-0.0899482636	 1.5540697735	-0.0659369099	-0.400849
C	 0.0235264373	 0.0235148415	-0.0310959726	 0.019941
C	 0.72031275	-0.4827305385	-1.3044162071	-0.400417
C	 0.7547734655	-0.4934478565	 1.2386948135	-0.059264
C	 0.1031873233	-0.0212852218	 2.5547516038	-0.209018
C	 0.8618043475	-0.4650294773	 3.8020588711	-0.084231
O	 0.1936425417	 0.0939620182	 4.9222262759	-0.421705
C	 0.7593375014	-2.0109448148	 1.2265513962	 0.162062
O	 1.7359036049	-2.7153883056	 1.2422371854	-0.263217
H	 0.8991434117	 2.0227916023	-0.00191672	 0.116458
H	-0.5469624665	 1.8756343772	-1.0073135143	 0.115117
H	-0.7039838398	 1.9486210712	 0.7469788274	 0.122473
H	-0.9959225874	-0.3898751731	-0.0130043252	 0.077516
H	 1.741435305	-0.0896780262	-1.3712022719	 0.12099
H	 0.7881157568	-1.5744777621	-1.3349803577	 0.126519
H	 0.1782188534	-0.156646236	-2.1973957464	 0.113895
H	 1.8023385379	-0.1677566925	 1.2070730129	 0.087024
H	 0.0455715613	 1.0701705829	 2.5720557196	 0.119805
H	-0.9287907758	-0.3904603297	 2.6181499376	 0.108079
H	 0.8936853862	-1.5638998149	 3.8650042014	 0.099052
H	 1.9058833125	-0.117012433	 3.7418208429	 0.092994
H	 0.6468006295	-0.1973343554	 5.7187394533	 0.28783
H	-0.2663209428	-2.4566840893	 1.2130767642	 0.068948
43.3589	60.5375	77.7067	92.9844	134.5423	206.5296	228.9071	255.5067	265.4785	316.6097	317.5957	343.5101	385.0004	445.236	491.6698	568.3627	780.7449	838.2809	917.3244	931.0977	956.1375	966.0477	992.2444	1016.316	1054.3427	1080.6422	1122.1577	1151.6668	1173.4364	1188.8342	1223.9641	1244.8045	1275.7621	1306.9512	1327.6807	1349.202	1354.0268	1376.2522	1404.6125	1422.8104	1427.2746	1466.1475	1485.7287	1490.9118	1495.6348	1506.627	1512.7521	1526.5574	1829.8654	2824.9452	2967.9169	2994.3675	2997.3559	3030.0009	3030.6141	3034.9024	3042.2691	3094.6959	3097.9904	3100.3015	3107.7675	3119.9818	3831.1554
CC(C)C(CCO)C=O	CC(C)[C@@H](CCO)C=O	
InChI=1S/C7H14O2/c1-6(2)7(5-9)3-4-8/h5-8H,3-4H2,1-2H3	InChI=1S/C7H14O2/c1-6(2)7(5-9)3-4-8/h5-8H,3-4H2,1-2H3/t7-/m0/s1
