15
gdb 31329	2.95937	1.30175	0.90925	2.6724	74.35	-0.2228	-0.0436	0.1792	1211.9588	0.11373	-453.995848	-453.987687	-453.986743	-454.029135	28.839	
C	-0.0608676951	 1.4463841233	 0.0092776325	-0.241528
O	-0.012886348	 0.0175546796	 0.0054547238	-0.26116
C	-1.1874600774	-0.6135920529	 0.0124769979	 0.339546
C	-1.3450433275	-1.9997971081	 0.0103055168	 0.106909
N	-2.7240484664	-2.1694143315	 0.0199346561	-0.293059
C	-3.288715678	-0.9522166352	 0.0268748977	 0.03761
N	-2.3857481695	 0.022834074	 0.0226836137	-0.358696
C	-0.4464662322	-3.11932899	 0.0011393569	 0.06422
O	-0.8241028794	-4.2806330668	 0.0011683545	-0.332578
H	 0.9790671344	 1.7738691383	 0.0022946051	 0.134722
H	-0.583534286	 1.8217104604	-0.8750617307	 0.140581
H	-0.5702158344	 1.8173926565	 0.9031643321	 0.140565
H	-3.163702483	-3.0766067342	 0.0209933292	 0.287083
H	-4.357897641	-0.802025022	 0.0349724401	 0.149308
H	 0.6286538236	-2.8525941316	-0.0059953457	 0.086478
83.3357	141.8443	153.0873	168.4771	255.6267	256.089	373.69	397.2319	584.9596	592.6767	680.7134	698.8279	755.3189	820.9734	845.3379	953.6357	1027.822	1041.6887	1118.2719	1175.585	1178.9683	1206.9335	1279.6544	1329.2761	1379.2506	1423.4886	1461.6189	1481.0495	1497.8976	1498.6118	1542.097	1615.6443	1742.4951	2938.4124	3043.7954	3115.972	3153.8665	3255.9467	3651.4944
COC1=C(NC=N1)C=O	COc1c([nH]cn1)C=O	
InChI=1S/C5H6N2O2/c1-9-5-4(2-8)6-3-7-5/h2-3H,1H3,(H,6,7)	InChI=1S/C5H6N2O2/c1-9-5-4(2-8)6-3-7-5/h2-3H,1H3,(H,6,7)
