19
gdb 79689	2.63167	1.74538	1.36047	2.7832	78.46	-0.2301	0.0077	0.2378	1004.8053	0.160867	-385.860514	-385.852995	-385.852051	-385.892272	30.286	
C	-0.044864988	 1.6473477037	-0.0142052878	-0.458677
C	 0.0152952679	 0.1098021274	-0.0186917517	 0.027503
C	 0.8828103124	-0.7407914684	-1.0116119427	-0.180866
C	 2.3478531012	-0.5401226572	-0.6083508341	-0.041237
C	 2.7977738715	 0.6402779883	 0.2123129783	-0.315155
C	 2.2215562861	-0.5495510605	 0.9344966151	-0.041238
C	 0.7106371139	-0.7536524389	 1.0916779432	-0.180866
C	 0.5680841679	-1.8814176384	 0.0143819524	 0.431567
O	 0.2938921094	-3.0393667344	-0.0151437627	-0.320132
H	 0.4996342685	 2.0866407224	-0.8542505672	 0.134029
H	-1.0836873133	 1.9782354685	-0.0971722051	 0.117128
H	 0.3554172949	 2.0758566775	 0.9084466111	 0.134031
H	-1.0107692986	-0.2628216749	-0.1049678956	 0.097775
H	 0.6356948446	-0.8175022274	-2.0684317106	 0.079895
H	 3.0907114525	-1.1447144411	-1.1146865331	 0.101503
H	 3.8771625801	 0.7221474351	 0.3011735158	 0.115885
H	 2.3012008836	 1.5965915645	 0.1775029908	 0.117457
H	 2.872788848	-1.1609797593	 1.5475190345	 0.101503
H	 0.2950303375	-0.8429522569	 2.0932341995	 0.079895
124.6609	138.4613	243.1516	276.1805	304.9998	398.0122	531.7155	546.0016	652.6602	665.2692	701.804	729.6514	770.2884	810.1025	824.3932	873.5668	911.4306	986.9388	993.7374	1017.5509	1040.3505	1061.3759	1067.2979	1089.4579	1098.1751	1099.5945	1107.2561	1123.1322	1173.5598	1188.1563	1199.4504	1264.5158	1281.7391	1332.3555	1360.3164	1411.4584	1436.5436	1481.8981	1508.1622	1511.6387	1906.2704	3040.0164	3047.2745	3110.0822	3116.7808	3140.4055	3142.7143	3144.8456	3179.3316	3187.6274	3259.9595
CC1C2C3CC3C1C2=O	C[C@H]1[C@H]2[C@H]3C[C@H]3[C@@H]1C2=O	
InChI=1S/C8H10O/c1-3-6-4-2-5(4)7(3)8(6)9/h3-7H,2H2,1H3	InChI=1S/C8H10O/c1-3-6-4-2-5(4)7(3)8(6)9/h3-7H,2H2,1H3/t3-,4-,5+,6-,7+
