18
gdb 5568	3.11274	1.75368	1.21765	0.6884	74.79	-0.2069	0.0266	0.2335	1028.1823	0.153648	-347.848779	-347.840463	-347.839519	-347.882066	30.178	
C	 0.1878642013	 1.4743935226	 0.3762695819	-0.362724
C	 0.0265831747	 0.0135438361	-0.0781413932	-0.305794
C	-1.3985290752	-0.4584131947	-0.0677046372	 0.172992
C	-2.2048242603	-0.7259787579	-1.1366136458	 0.264959
C	-2.0119951587	-0.6812703881	-2.6107170294	-0.49257
O	-3.44321546	-1.1171438679	-0.7061749765	-0.181298
C	-3.4227360228	-1.0964635968	 0.6530121051	-0.019753
C	-2.206287068	-0.7029907112	 1.1005123718	-0.26609
H	 1.2412038524	 1.7727524956	 0.3721785406	 0.109326
H	-0.3625279176	 2.1514709656	-0.2843702533	 0.118301
H	-0.1988261245	 1.6166089483	 1.3904234354	 0.118875
H	 0.4466659046	-0.1008249724	-1.0835255076	 0.09943
H	 0.6284728663	-0.6314660419	 0.5749527217	 0.105896
H	-0.9861911146	-0.3932378984	-2.8499371421	 0.133359
H	-2.2077771712	-1.656922663	-3.0702315983	 0.136503
H	-2.6857009293	 0.042735887	-3.0838885464	 0.13623
H	-4.3388430855	-1.3879214101	 1.1398060046	 0.128306
H	-1.9030912115	-0.600221093	 2.1314996588	 0.104053
46.6916	112.3892	157.7136	205.4024	232.4296	284.6883	367.7542	428.0823	608.5812	621.3798	678.7068	713.5653	744.7262	787.8764	821.1221	910.6895	951.1056	973.5402	1039.7031	1061.4378	1070.6202	1087.4077	1163.591	1182.6152	1238.5101	1272.3319	1303.802	1358.4999	1406.3982	1410.298	1438.9608	1472.7308	1483.1219	1491.9476	1496.113	1507.1635	1553.1476	1664.9153	3022.3732	3028.377	3034.6852	3062.2757	3076.4449	3105.3744	3109.922	3128.5921	3245.1031	3280.5565
CCC1=C(C)OC=C1	CCc1c(C)occ1	
InChI=1S/C7H10O/c1-3-7-4-5-8-6(7)2/h4-5H,3H2,1-2H3	InChI=1S/C7H10O/c1-3-7-4-5-8-6(7)2/h4-5H,3H2,1-2H3
