19
gdb 9885	4.49677	1.11515	1.05081	3.6597	73.18	-0.2478	0.0331	0.2809	1180.8223	0.164897	-365.082004	-365.073098	-365.072154	-365.116439	32.191	
C	-0.3299401745	 1.3500467454	-0.4910453477	-0.456702
C	-0.0367566065	-0.0590048611	-0.0138354265	 0.366576
C	-1.1653404174	-1.056670261	-0.2128202572	-0.228508
N	-2.349893618	-0.7265769546	 0.5675176835	-0.268194
C	-3.5815582695	-0.5370989901	 0.0234360833	 0.154106
O	-3.8559301877	-0.6405424419	-1.153492757	-0.323256
C	 1.3676208116	-0.5877471913	-0.1610514041	-0.306326
C	 0.8368026056	-0.2397938862	 1.2098435181	-0.307258
H	 0.5171701867	 2.0153561765	-0.2989986379	 0.11224
H	-0.533476242	 1.3654429292	-1.567687967	 0.12643
H	-1.205985323	 1.7668141011	 0.016878569	 0.118947
H	-1.4908584998	-1.0802153611	-1.2562954435	 0.147564
H	-0.8179945933	-2.0647571227	 0.0492460028	 0.101227
H	-2.2444278174	-0.5944003361	 1.5612726915	 0.245921
H	-4.3312335755	-0.2715893656	 0.7960457927	 0.070937
H	 1.502954535	-1.6368037284	-0.403232023	 0.112649
H	 2.1105760914	 0.0670314914	-0.6031947078	 0.1152
H	 1.2234108012	 0.6480277612	 1.6988032371	 0.113279
H	 0.6192093832	-1.0586992044	 1.8889789839	 0.105169
27.8973	74.2133	168.1217	211.8943	231.398	287.9206	325.0776	366.5576	371.9045	491.3679	546.798	702.9916	780.6406	787.7126	869.2213	914.7597	929.0553	956.7337	982.1476	1028.5785	1037.7266	1050.092	1081.553	1082.0776	1130.2194	1187.6608	1207.3447	1251.3943	1323.3206	1351.6936	1395.1677	1421.9605	1431.4773	1469.107	1483.3813	1492.405	1501.0263	1511.0738	1529.5078	1806.2517	2928.3718	3016.0569	3030.0316	3093.2587	3104.1563	3105.6581	3123.4264	3131.6222	3202.6814	3218.1786	3628.6386
CC1(CNC=O)CC1	CC1(CNC=O)CC1	
InChI=1S/C6H11NO/c1-6(2-3-6)4-7-5-8/h5H,2-4H2,1H3,(H,7,8)	InChI=1S/C6H11NO/c1-6(2-3-6)4-7-5-8/h5H,2-4H2,1H3,(H,7,8)
