19
gdb 68549	2.39318	1.89282	1.51537	1.9851	79.55	-0.2234	0.0084	0.2318	970.9731	0.16021	-381.987029	-381.979325	-381.978381	-382.018625	31.399	
C	-0.0080142352	 1.5290751619	-0.0076095141	-0.527746
C	-0.027230784	 0.0245494993	 0.0248019617	 0.176972
N	 0.4045364922	-0.7537779259	-1.2235158412	-0.341444
C	-0.3074646175	-1.8936604177	-0.5029182625	-0.155705
C	 0.5950476616	-2.0222780028	 0.7228572283	-0.059597
C	 0.7793873064	-0.7479581268	 1.0768543703	-0.092906
C	-1.326351377	-0.8441429401	 0.0181512565	 0.4022
C	-2.5477001251	-0.8642678973	 0.8322088625	-0.339898
N	-2.5835691082	-0.5334983873	-0.6251513438	-0.398571
H	 0.9976494997	 1.8910031034	-0.2427774223	 0.140975
H	-0.6903100393	 1.9236827279	-0.7691204978	 0.113906
H	-0.3026495254	 1.9471313417	 0.9607647867	 0.124481
H	-0.2251045811	-0.4590727828	-1.9785734334	 0.209237
H	-0.5930115387	-2.7730365148	-1.0771559786	 0.075589
H	 0.949403684	-2.9370284675	 1.1741458128	 0.107446
H	 1.3295709375	-0.3146707726	 1.8998428931	 0.103244
H	-3.0302457509	-1.8020098967	 1.0940950065	 0.121138
H	-2.7054706147	-0.0591843901	 1.546303799	 0.11142
H	-2.6970424244	 0.470509558	-0.7532784138	 0.229257
169.5369	178.726	209.1339	244.6924	319.7272	364.2862	457.1359	540.3833	570.053	619.157	640.2313	728.9489	736.365	811.9505	845.4002	877.9498	903.7785	905.8282	920.2875	930.3587	953.2894	973.0915	1042.5213	1068.2632	1100.4275	1105.3193	1118.102	1163.8238	1192.7641	1222.2623	1245.9099	1255.8576	1280.0597	1314.4253	1371.8957	1411.2787	1416.8118	1485.6149	1492.0408	1517.0612	1622.4659	3029.0003	3092.4989	3102.8643	3108.6214	3142.7685	3187.1459	3224.887	3253.079	3378.4181	3477.5521
CC12NC(C=C1)C21CN1	C[C@@]12N[C@@H](C=C1)[C@]12CN1	
InChI=1S/C7H10N2/c1-6-3-2-5(9-6)7(6)4-8-7/h2-3,5,8-9H,4H2,1H3	InChI=1S/C7H10N2/c1-6-3-2-5(9-6)7(6)4-8-7/h2-3,5,8-9H,4H2,1H3/t5-,6+,7-/m0/s1
