16
gdb 47234	2.4945	1.81523	1.30725	3.4155	70.09	-0.248	-0.0222	0.2258	976.3448	0.126581	-437.895498	-437.888243	-437.887299	-437.927107	28.364	
O	 0.0351709057	-0.0661430885	-0.2569278412	-0.369043
C	-0.002294727	 1.1335303198	-0.0419301741	 0.387051
N	-1.1777778646	 1.8015502564	 0.1402336645	-0.323113
C	-1.4046915253	 3.2491525622	 0.2070144162	-0.22273
C	-0.8544736877	 3.9890725006	-0.9943751671	-0.100346
C	 0.4263262591	 3.9463681541	-1.3634341231	-0.023604
C	 1.4982365751	 3.2198592497	-0.6408716412	-0.00533
O	 1.3966038047	 3.098050682	 0.7832390721	-0.242696
C	 1.2959816599	 1.8997419423	 0.0211525304	-0.059435
H	-1.9812090042	 1.2080270237	-0.0054675948	 0.250238
H	-2.4862497862	 3.3879030652	 0.2639899116	 0.114583
H	-0.9760598188	 3.6494677518	 1.1287131498	 0.154416
H	-1.5569012396	 4.5597761294	-1.5944420184	 0.107099
H	 0.7463810274	 4.4715454101	-2.2588173304	 0.100297
H	 2.5113666082	 3.4227952256	-0.9852739467	 0.109779
H	 2.1457097732	 1.2240019257	 0.0933589923	 0.122834
100.9328	219.7013	257.1102	296.6099	341.1597	403.3874	448.7059	526.3598	589.0846	640.9884	696.1305	748.1004	788.1752	800.3254	878.9275	881.7102	921.7888	984.0624	991.557	1040.5511	1091.4347	1113.2722	1142.9292	1225.7134	1274.8342	1298.0312	1338.4878	1372.4243	1413.2113	1422.5344	1443.8969	1465.5223	1498.7995	1716.3867	1774.4195	3072.7409	3113.6774	3120.9799	3146.4538	3162.7814	3183.8413	3614.8556
O=C1NCC=CC2OC12	O=C1NCC=C[C@H]2O[C@@H]12	
InChI=1S/C6H7NO2/c8-6-5-4(9-5)2-1-3-7-6/h1-2,4-5H,3H2,(H,7,8)	InChI=1S/C6H7NO2/c8-6-5-4(9-5)2-1-3-7-6/h1-2,4-5H,3H2,(H,7,8)/t4-,5-/m1/s1
