16
gdb 34616	3.14149	1.51053	1.11833	5.3357	75.57	-0.246	-0.0522	0.1938	1057.4158	0.127026	-396.928726	-396.921422	-396.920478	-396.960886	27.336	
N	 0.013339172	-0.9136953735	 0.6874581524	-0.321807
C	-0.0685638943	 0.1971061524	 0.3791283431	 0.286815
C	-0.1201884841	 1.5904391746	 0.0216146665	 0.228447
N	-1.2202045496	 2.2398895355	-0.05135841	-0.280094
C	-0.8695017965	 3.6343287262	-0.3729973979	-0.199849
C	 0.6747909123	 3.6880233417	-0.3560628899	 0.007937
C	 1.4445758341	 3.9795429109	 0.9596192617	-0.250575
C	 2.0131767866	 2.5362629515	 0.8679735574	-0.186098
N	 1.0835058642	 2.243917233	-0.2774068802	-0.141567
H	-1.2747899113	 3.8867970666	-1.359098045	 0.130439
H	-1.3415575255	 4.3078548442	 0.3519071577	 0.124061
H	 1.094400236	 4.1856909376	-1.2327063032	 0.096742
H	 2.1746306153	 4.7896477887	 0.9254688272	 0.118601
H	 0.7840911401	 4.129396545	 1.8175171338	 0.122601
H	 3.054545599	 2.4807866374	 0.5440958915	 0.129165
H	 1.8724189717	 1.8852020483	 1.7340892249	 0.135181
83.9143	141.5332	174.3615	255.5953	339.6258	424.019	538.8322	551.2628	684.8182	716.798	731.4351	791.4886	803.4751	899.3304	915.3604	951.1251	996.2115	1014.9808	1061.1984	1076.2615	1119.2921	1160.3408	1210.5949	1221.9054	1247.8717	1264.2742	1282.7807	1312.4463	1349.1843	1357.2224	1480.1358	1488.8268	1512.265	1654.9489	2363.2547	3036.2481	3066.3362	3067.7211	3071.3363	3086.7494	3116.8941	3135.8776
N#CC1=NCC2CCN12	N#C[C]1[N]C[C@H]2CCN12	
InChI=1S/C6H7N3/c7-3-6-8-4-5-1-2-9(5)6/h5H,1-2,4H2	InChI=1S/C6H7N3/c7-3-6-8-4-5-1-2-9(5)6/h5H,1-2,4H2/t5-/m1/s1
