21
gdb 88855	3.59473	1.02311	0.87266	1.3522	84.84	-0.2298	0.0332	0.263	1374.9108	0.183297	-387.082341	-387.073614	-387.07267	-387.116276	33.517	
O	-0.0053274734	 1.4887707843	 0.4411410437	-0.41668
C	 0.0477646521	 0.1177022993	 0.1626701985	 0.090535
C	-0.528617513	-0.8662719302	 1.1505992567	-0.348312
C	-1.2555736895	-0.5608042265	-0.1473400887	-0.018665
C	-2.5561604994	 0.2185926929	-0.140149671	-0.009915
C	-2.8687743695	 0.9186548785	-1.4929395446	-0.22438
C	-4.4047770966	 0.8244350648	-1.6728969045	-0.256208
C	-4.7835169808	-0.3094028576	-0.747789606	-0.073591
C	-3.7910676906	-0.6327501399	 0.0785802466	-0.074129
H	 0.6154377758	 1.6711039838	 1.1539075353	 0.287646
H	 0.9236592478	-0.1929001851	-0.4070991535	 0.083371
H	-0.0468978181	-1.8297397283	 1.2783232792	 0.108026
H	-0.9537147753	-0.4462961739	 2.0571029708	 0.111557
H	-1.2088657554	-1.3332409464	-0.9117240281	 0.083136
H	-2.4842948745	 0.9699819518	 0.6575654251	 0.082107
H	-2.4880910972	 1.941802494	-1.5254008219	 0.106278
H	-2.3752333273	 0.3649583096	-2.2997420291	 0.09564
H	-4.9095731036	 1.7530750581	-1.3696050083	 0.102761
H	-4.6977463178	 0.6459664645	-2.713982536	 0.097936
H	-5.7705653077	-0.7597085705	-0.7466455983	 0.086408
H	-3.8379197658	-1.3896880233	 0.854520094	 0.086479
57.1589	88.3518	135.2162	208.0548	277.1793	302.2573	358.3578	431.5021	466.1874	557.6372	627.9879	745.8734	776.3542	785.6268	840.7036	852.4754	862.3341	918.826	935.211	970.7918	978.555	1005.0479	1018.059	1038.1924	1058.1655	1082.5086	1121.6173	1135.3414	1153.2406	1176.1066	1194.1255	1224.9072	1237.1864	1272.2085	1290.6121	1306.2771	1317.3651	1327.6626	1377.1941	1403.3281	1427.5084	1483.8903	1486.994	1500.4323	1685.0185	3003.1977	3012.6792	3037.778	3054.2201	3093.5848	3106.0417	3124.3209	3131.5885	3173.9844	3200.0965	3213.0691	3808.0557	57.1582	88.3518	135.2161	208.0546	277.1784	302.2551	358.3577	431.502	466.1875	557.6372	627.9879	745.8733	776.3543	785.6268	840.7038	852.4754	862.3342	918.8259	935.211	970.792	978.5551	1005.0479	1018.059	1038.1925	1058.1658	1082.5084	1121.6173	1135.3418	1153.2408	1176.107	1194.1255	1224.9069	1237.1866	1272.2087	1290.6124	1306.2774	1317.3645	1327.6628	1377.1945	1403.3284	1427.5086	1483.8899	1486.9941	1500.432	1685.0185	3003.1977	3012.6793	3037.7781	3054.2201	3093.5847	3106.0417	3124.3208	3131.5885	3173.9845	3200.0965	3213.069	3808.0549
OC1CC1C1CCC=C1	O[C@H]1C[C@H]1[C@H]1CCC=C1	
InChI=1S/C8H12O/c9-8-5-7(8)6-3-1-2-4-6/h1,3,6-9H,2,4-5H2	InChI=1S/C8H12O/c9-8-5-7(8)6-3-1-2-4-6/h1,3,6-9H,2,4-5H2/t6-,7+,8+/m1/s1
