17
gdb 34760	3.40144	1.48648	1.43523	0.6182	81.59	-0.2251	-0.0127	0.2124	972.5717	0.137088	-347.504211	-347.49722	-347.496276	-347.535186	29.337	
C	-0.0840289135	-1.2132522889	-0.1261142222	-0.44252
C	-0.0055656536	-0.0190243323	-0.0077038187	 0.321507
C	 0.0420363477	 1.4309274512	 0.0799025383	-0.169958
C	-0.2550409971	 2.0704563245	 1.4887478002	-0.116367
C	 0.9891311752	 1.5681311218	 2.2471803679	-0.067172
C	 2.0087079225	 1.5863539265	 1.3917532312	-0.067173
C	 1.4673342801	 2.1012248116	 0.0436650458	-0.116354
C	 1.017009397	 3.5597683289	 0.2504662108	-0.089578
C	-0.0038373181	 3.541533942	 1.1069949662	-0.089565
H	-0.1420206663	-2.2694172048	-0.2175252489	 0.18951
H	-0.6084257484	 1.8639850493	-0.6861561197	 0.101595
H	-1.219922166	 1.8433782245	 1.93945656	 0.07005
H	 0.994731106	 1.3032998182	 3.2953320292	 0.100983
H	 3.0453067933	 1.3399641285	 1.5748987325	 0.100983
H	 2.0833102212	 1.9023827547	-0.8319682793	 0.070049
H	 1.4980474867	 4.4143732202	-0.2052687535	 0.102004
H	-0.5539368266	 4.377721064	 1.5164132602	 0.102007
146.9207	148.138	378.8021	414.1273	451.801	468.8748	518.9544	570.5278	623.442	635.7876	676.9664	732.6269	758.7577	805.9699	817.9773	871.7472	889.2278	913.8817	925.3472	930.1503	942.8093	949.1593	992.9961	1044.1918	1080.4108	1134.0407	1150.8864	1225.8983	1233.5644	1253.196	1266.2743	1293.1831	1331.7186	1348.3392	1619.9852	1660.0699	2231.7758	3063.6784	3128.3941	3130.4255	3212.3881	3216.0031	3238.1194	3242.292	3504.7584
C#CC1C2C=CC1C=C2	C#C[C@H]1[C@H]2C=C[C@@H]1C=C2	
InChI=1S/C9H8/c1-2-9-7-3-4-8(9)6-5-7/h1,3-9H	InChI=1S/C9H8/c1-2-9-7-3-4-8(9)6-5-7/h1,3-9H/t7-,8+,9-
