18
gdb 27884	1.81304	1.78149	0.90437	1.2418	84.96	-0.1943	0.0168	0.211	1265.5627	0.148421	-402.026769	-402.017971	-402.017027	-402.060504	33.906	
C	-0.0109518795	 1.5011567733	-0.0099717984	-0.490276
C	 0.0167648111	-0.0085405272	-0.0018879175	 0.359289
C	 0.0584629206	-0.7146501964	-1.2074733434	-0.38868
C	 0.1108865588	-2.1079488748	-1.1921751651	 0.423792
O	 0.1487057776	-2.8466658621	-2.3395770717	-0.44522
C	 0.1197381886	-2.809164184	 0.0103993444	-0.300077
C	 0.0776014737	-2.1102550129	 1.2192403169	 0.351704
N	 0.1451596351	-2.7965573074	 2.433139877	-0.591619
C	 0.0223850341	-0.7078464385	 1.2013219083	-0.301628
H	 0.9891055549	 1.91391755	-0.1907851782	 0.132344
H	-0.6650744324	 1.8853590294	-0.799157786	 0.122922
H	-0.3617966978	 1.8997187654	 0.9458058828	 0.12055
H	 0.0478423272	-0.1809673053	-2.1546004279	 0.067246
H	 0.1385365458	-2.2468170421	-3.0923645103	 0.294293
H	 0.1606440527	-3.8927769175	-0.0109816461	 0.08603
H	-0.1783261181	-3.7522442402	 2.3971386299	 0.245346
H	-0.2522754358	-2.3020341439	 3.2184260659	 0.244315
H	-0.0100217867	-0.1644685957	 2.1413491594	 0.069669
34.3148	190.2517	225.3094	235.8118	282.3412	311.491	324.5952	370.5989	510.8927	514.9213	525.8177	556.827	579.9702	608.9722	653.6565	708.6184	788.6578	825.5823	849.0307	980.3738	990.426	1006.8104	1055.0423	1056.1947	1121.0825	1185.6355	1189.0295	1227.8001	1324.9187	1368.3671	1384.7821	1410.2597	1472.5968	1487.9376	1514.9827	1543.1131	1638.586	1652.0133	1666.2325	3027.9177	3084.1362	3113.0182	3150.35	3162.1194	3186.8166	3564.1688	3663.1921	3823.7111
CC1=CC(O)=CC(N)=C1	Cc1cc(O)cc(N)c1	
InChI=1S/C7H9NO/c1-5-2-6(8)4-7(9)3-5/h2-4,9H,8H2,1H3	InChI=1S/C7H9NO/c1-5-2-6(8)4-7(9)3-5/h2-4,9H,8H2,1H3
