16
gdb 131867	5.59301	0.81562	0.7456	2.0232	68.54	-0.2351	0.0027	0.2378	1471.9028	0.124065	-475.001272	-474.992892	-474.991948	-475.035694	29.813	
O	-0.0351673715	 1.4196127174	-0.000932845	-0.415412
C	-0.0187319134	 0.0080029055	 0.0096148659	-0.06806
C	-1.4164989492	-0.5823860304	 0.0356965822	-0.091106
O	-2.043812283	-0.1702202643	-1.1998852659	-0.291122
C	-3.3117682818	-0.5087837963	-1.3974548847	 0.549082
C	-4.1445923111	-0.2235379737	-2.4412916833	-0.404356
C	-5.3427427388	-0.8723503511	-2.057839208	 0.060353
N	-5.2591335696	-1.4897103017	-0.9039435008	-0.161824
O	-3.9309728473	-1.25134507	-0.4744616205	-0.219834
H	-0.5415581961	 1.6883047525	-0.7753014537	 0.293457
H	 0.5303713655	-0.4016701678	-0.8523880877	 0.10323
H	 0.5084140923	-0.298906687	 0.9185874954	 0.122501
H	-1.3939757758	-1.6759753334	 0.0905567004	 0.127619
H	-1.9922761069	-0.1907610711	 0.8797710794	 0.138161
H	-3.9276688858	 0.3503555236	-3.3243226917	 0.122143
H	-6.2821285775	-0.9113270821	-2.5926069418	 0.135166
45.2616	58.1612	132.8601	174.5658	285.9732	301.9467	387.1083	471.3078	488.1424	632.603	709.8303	719.9065	763.7242	882.3516	887.6442	905.442	926.0521	929.4168	1014.699	1045.9102	1064.0956	1095.4057	1126.0911	1226.7007	1232.2095	1265.2851	1322.5244	1381.8904	1387.4809	1395.6772	1433.4425	1492.2443	1495.5501	1544.348	1656.143	2991.4703	3046.6722	3086.9561	3105.3878	3237.8992	3296.2271	3811.6487
OCCOC1=CC=NO1	OCCOc1ccno1	
InChI=1S/C5H7NO3/c7-3-4-8-5-1-2-6-9-5/h1-2,7H,3-4H2	InChI=1S/C5H7NO3/c7-3-4-8-5-1-2-6-9-5/h1-2,7H,3-4H2
