19
gdb 93364	2.74742	1.61923	1.23213	2.7148	76.97	-0.234	0.0119	0.2459	1058.0411	0.161029	-419.189663	-419.181688	-419.180744	-419.222532	31.089	
C	-0.2003414042	 1.6336397131	-0.0752663858	-0.404755
C	 0.0049457884	 0.1180749377	-0.0124240698	 0.040134
C	 0.5721746459	-0.4441632431	-1.311597822	-0.102869
O	 1.9540555553	-0.0885399522	-1.4801337724	-0.25065
C	 2.7979335068	-0.5902037778	-0.5254806919	 0.373615
N	 4.0066242463	-0.873323213	-0.7633934725	-0.520114
C	 2.2224118408	-0.7434326765	 0.8445301115	-0.083885
C	 1.9224148823	 0.4989757164	 1.6180747534	-0.238071
N	 0.8386691799	-0.3387795816	 1.1266393131	-0.111914
H	 0.6954052547	 2.154257547	-0.4247153586	 0.133307
H	-1.012106782	 1.8655558474	-0.7719177997	 0.11846
H	-0.4743470331	 2.0293254965	 0.9065022087	 0.129786
H	-0.9783742734	-0.3472739636	 0.1357134445	 0.09228
H	 0.4786607166	-1.5374041574	-1.33003542	 0.115781
H	 0.0530531894	-0.0387766089	-2.1834424473	 0.120013
H	 4.2174183349	-0.7055590926	-1.7495841549	 0.221563
H	 2.573758623	-1.6237451734	 1.3731362149	 0.119631
H	 2.0564825119	 0.5031993507	 2.6965609629	 0.122828
H	 2.1354877166	 1.4459376613	 1.130522906	 0.124858
38.5862	180.887	236.3701	263.3567	322.3221	360.326	385.8481	441.276	504.6804	577.8674	687.0627	691.9645	760.2614	782.8023	858.4526	905.5213	914.3922	935.3773	976.74	996.7848	1014.9303	1067.2895	1096.7365	1108.4446	1132.3525	1151.008	1154.6852	1173.6662	1277.8107	1306.8791	1317.6404	1340.6774	1380.4267	1383.0718	1404.396	1426.0136	1490.9157	1500.7606	1504.2178	1519.154	1755.1039	3010.0778	3030.3775	3043.5576	3104.9327	3109.1868	3112.9298	3124.4733	3161.4514	3196.2772	3463.4551
CC1COC(=N)C2CN12	C[C@H]1CO[C]([NH])[C@H]2CN12	
InChI=1S/C6H10N2O/c1-4-3-9-6(7)5-2-8(4)5/h4-5,7H,2-3H2,1H3	InChI=1S/C6H10N2O/c1-4-3-9-6(7)5-2-8(4)5/h4-5,7H,2-3H2,1H3/t4-,5+,8?/m0/s1
