16
gdb 127724	3.32802	1.3991	0.99717	1.127	76.36	-0.2509	-0.0694	0.1815	1156.0723	0.124087	-434.08598	-434.077632	-434.076688	-434.119056	30.263	
C	-0.0978221902	 1.4201359672	-0.0171070154	-0.316486
N	-0.0472773155	-0.0368754507	 0.026194164	-0.068491
N	-0.2525137679	-0.6605580793	-1.1402304539	-0.065341
N	-0.2270557562	-1.9343318984	-1.1995933455	-0.270347
C	 0.0136606212	-2.6768870279	-0.0544569546	 0.37947
C	 0.0139474887	-4.1593083526	-0.2769484755	-0.45651
C	 0.2278873322	-2.0925434682	 1.1530181642	-0.326292
C	 0.209406667	-0.6581812218	 1.273418566	 0.479978
O	 0.3806670642	 0.0184318107	 2.2706108694	-0.392671
H	 0.8551131384	 1.8323785916	 0.3221965892	 0.158671
H	-0.302711959	 1.7097495776	-1.0462095824	 0.15461
H	-0.8803902827	 1.7820968148	 0.6535246636	 0.158651
H	 0.775502467	-4.4285320618	-1.0158334083	 0.152772
H	 0.2069812928	-4.7033777585	 0.6493440071	 0.131057
H	-0.9501602431	-4.4784253612	-0.6856497949	 0.152774
H	 0.4165667831	-2.6670813515	 2.0519436368	 0.128154
114.2636	119.2087	135.99	181.3258	286.1687	300.7968	328.1311	440.5409	466.8141	528.3303	598.571	651.6848	747.1483	774.3345	786.3906	904.7447	953.1417	1023.0956	1043.2648	1066.1102	1139.8198	1151.5406	1215.47	1255.7974	1319.8479	1364.764	1414.8683	1431.3967	1471.3247	1471.6365	1478.1996	1492.4507	1502.2837	1641.3563	1788.0681	3045.9553	3064.401	3105.4075	3131.6502	3140.4949	3181.0183	3210.0371
CN1N=NC(C)=CC1=O	CN1[N]N=C(C)[CH]C1=O	
InChI=1S/C5H7N3O/c1-4-3-5(9)8(2)7-6-4/h3H,1-2H3	InChI=1S/C5H7N3O/c1-4-3-5(9)8(2)7-6-4/h3H,1-2H3
