18
gdb 72801	2.59047	1.77731	1.3151	2.3631	72.43	-0.2414	0.0111	0.2525	1001.3831	0.149455	-439.077518	-439.069858	-439.068914	-439.109312	30.255	
O	-0.2158175038	 1.3629743374	-0.0094885229	-0.476486
C	-0.061167283	-0.0443912556	-0.0348430175	 0.296639
C	 1.0770623203	-0.523114923	-0.9773811165	-0.17488
O	 1.9254898825	-0.8098199216	 0.1953308852	-0.272484
C	 0.8366612911	-0.6489855011	 1.0261350046	 0.364269
N	 0.6345813672	-1.1239157234	 2.1656693673	-0.304562
C	-0.7715297689	-1.0550272433	 2.6004652082	-0.155505
C	-1.8008243471	-0.4434774778	 1.6094660437	-0.215495
C	-1.4403780909	-0.6633740462	 0.1198021002	-0.266854
H	 0.6279677304	 1.7655534597	 0.224603924	 0.292028
H	 0.8923585972	-1.4414528776	-1.5409656835	 0.124373
H	 1.5139387174	 0.2485245041	-1.614855925	 0.118291
H	-1.0502951347	-2.0918038137	 2.830015245	 0.115779
H	-0.8203691597	-0.5186355752	 3.5546636595	 0.115272
H	-2.7879082658	-0.8606180204	 1.830854243	 0.098275
H	-1.8652410112	 0.6368185789	 1.767726034	 0.123508
H	-2.1730905474	-0.1827131047	-0.535022574	 0.111212
H	-1.4035939535	-1.7298316965	-0.128204345	 0.10662
120.3165	215.4748	247.8167	254.8444	337.5914	344.3251	382.6842	464.9362	497.6243	596.7419	667.6889	704.6741	772.3298	849.2551	865.5347	901.6944	925.1634	940.039	975.1003	1024.5013	1036.295	1106.5198	1139.0341	1143.2361	1159.6706	1174.9619	1232.39	1250.7623	1289.5334	1318.6612	1350.3036	1367.9788	1376.1902	1409.4318	1480.6209	1484.2989	1495.8745	1505.4954	1823.0478	3021.8371	3045.2317	3052.344	3059.9178	3061.4091	3093.152	3105.1152	3128.5655	3802.9437
OC12COC1=NCCC2	O[C@@]12CO[C]1[N]CCC2	
InChI=1S/C6H9NO2/c8-6-2-1-3-7-5(6)9-4-6/h8H,1-4H2	InChI=1S/C6H9NO2/c8-6-2-1-3-7-5(6)9-4-6/h8H,1-4H2/t6-/m0/s1
