14
gdb 14335	4.68712	1.89473	1.59437	5.1591	56.67	-0.2921	0.0426	0.3347	791.2505	0.10885	-419.719433	-419.713185	-419.712241	-419.75129	22.987	
O	-0.1305392621	-0.0163088205	-0.0690933821	-0.365341
C	-0.0807922239	 1.1701480765	-0.0411649632	 0.492144
O	-1.1296053289	 1.9949557679	-0.3137126199	-0.251243
C	-0.746109222	 3.3583968114	-0.1624664576	 0.085524
C	-1.0912600912	 3.977199471	 1.2151102377	-0.252001
C	 0.4172311374	 3.9046196974	 1.6184030439	-0.251993
C	 0.750012176	 3.2862612192	 0.2375942075	 0.085512
O	 1.0335751131	 1.8906333942	 0.2649140334	-0.251248
H	-1.0427407681	 3.9077561961	-1.0566177209	 0.10495
H	-1.4997701253	 4.9878878129	 1.1558981272	 0.118601
H	-1.7694567053	 3.3577301549	 1.8043200551	 0.130775
H	 0.8896631408	 4.8729502197	 1.7945385223	 0.118601
H	 0.6533211009	 3.2412946794	 2.4521424092	 0.130774
H	 1.5005386587	 3.7850082799	-0.3766181924	 0.104947
22.5683	132.4559	351.2682	416.7622	519.4982	665.0236	691.8505	739.6628	772.7736	778.1584	858.8052	899.8836	919.9314	955.5492	967.5703	1023.1598	1104.4561	1122.2779	1130.2477	1154.3415	1213.762	1228.9153	1262.3351	1293.6218	1296.4352	1358.9079	1380.2437	1464.7171	1480.6523	1927.9368	3077.4377	3081.3605	3101.5858	3112.1357	3128.3421	3144.8769
O=C1OC2CCC2O1	O=C1O[C@H]2CC[C@H]2O1	
InChI=1S/C5H6O3/c6-5-7-3-1-2-4(3)8-5/h3-4H,1-2H2	InChI=1S/C5H6O3/c6-5-7-3-1-2-4(3)8-5/h3-4H,1-2H2/t3-,4+
