17
gdb 34021	3.20034	1.36243	1.18453	1.9707	74.44	-0.2351	0.035	0.2701	1076.6742	0.135796	-421.76407	-421.756246	-421.755302	-421.796282	30.593	
C	-0.010202001	-1.1428923148	 0.0606587732	-0.401607
C	-0.013908258	 0.0583789364	 0.0264130811	 0.267504
C	-0.0006194305	 1.4940796007	-0.0402465794	 0.237129
C	 0.4859915292	 2.159746232	-1.3114069338	-0.347343
C	 1.337699357	 2.2194597486	-0.0612780149	-0.126678
C	 1.4178897957	 3.5045239097	 0.7567110233	-0.106107
O	 0.3625041594	 3.6028506698	 1.7083508567	-0.220991
C	-0.8754764488	 3.3875746253	 1.1092058861	-0.005815
O	-1.063005823	 2.0486694049	 0.6960655288	-0.287059
H	-0.0125941252	-2.2040161989	 0.0999244176	 0.194146
H	 0.7989337398	 1.5158706114	-2.1242754914	 0.130735
H	-0.0196357384	 3.0697081343	-1.6200096338	 0.122902
H	 2.2191597677	 1.5896979349	-0.0365737712	 0.113914
H	 2.3429656281	 3.5276021479	 1.3362814335	 0.123517
H	 1.4055752995	 4.3895643099	 0.1009324538	 0.099778
H	-1.6456543244	 3.5736553761	 1.8596847183	 0.124706
H	-1.0135373569	 4.0747477917	 0.2535992422	 0.081269
104.7602	145.345	171.6134	293.4309	373.6906	410.7752	419.701	514.1332	535.4618	570.4055	590.2258	642.7735	679.7371	754.9625	810.3408	884.7085	893.7672	921.8269	970.4814	1028.9383	1044.5418	1059.5385	1075.3118	1098.7306	1158.7707	1195.1543	1255.4292	1259.8613	1279.9049	1327.1243	1391.749	1399.5096	1444.3078	1471.2365	1497.1455	1517.7666	2244.1055	2929.9448	2978.2297	3104.1707	3116.8339	3132.0624	3178.3589	3227.2045	3503.4805
C#CC12CC1COCO2	C#C[C@]12C[C@H]1COCO2	
InChI=1S/C7H8O2/c1-2-7-3-6(7)4-8-5-9-7/h1,6H,3-5H2	InChI=1S/C7H8O2/c1-2-7-3-6(7)4-8-5-9-7/h1,6H,3-5H2/t6-,7-/m0/s1
