18
gdb 92391	2.21511	1.60123	1.25647	3.2131	76.46	-0.2632	0.0103	0.2735	1079.425	0.14764	-401.937395	-401.929061	-401.928117	-401.970558	31.28	
C	 0.2092387951	 1.5270228955	-0.1453763098	-0.418334
C	 0.0633513248	 0.042097012	 0.0971166028	 0.118734
O	 0.8412715927	-0.7758447364	-0.8124303517	-0.307802
C	 1.3608098416	-1.5890273573	 0.2506650894	 0.082054
C	 2.7753782098	-1.1629296116	 0.6872519663	-0.229113
C	 2.156967003	-0.1672319695	 1.7155088087	-0.295583
C	 0.7188653038	-0.6472798676	 1.3312200466	 0.119863
C	-0.1523370645	-1.075276477	 2.3954513739	 0.192169
N	-0.8527135044	-1.4187208797	 3.2502345542	-0.344889
H	 1.2533094439	 1.8474623645	-0.107767592	 0.126686
H	-0.1822456885	 1.7732615994	-1.1371837373	 0.139489
H	-0.3648544936	 2.0917468246	 0.5965261815	 0.132864
H	-0.9957898787	-0.2432782084	 0.0374634883	 0.096567
H	 1.1204030891	-2.648448697	 0.1363091288	 0.097565
H	 3.345764419	-1.9668693141	 1.1586104427	 0.116137
H	 3.3654041988	-0.7279805727	-0.1212134116	 0.121138
H	 2.4053857071	-0.3963913651	 2.7522699669	 0.133547
H	 2.3448421207	 0.8934816103	 1.5438992124	 0.118908
68.0146	127.5332	168.875	195.7174	263.1487	331.3704	367.4351	481.324	520.9433	555.7923	583.8093	631.356	740.6644	827.1267	856.7604	891.12	910.5134	956.6526	966.8947	1034.0127	1071.3556	1098.8906	1107.9292	1128.7549	1171.3258	1197.4578	1218.6816	1241.4268	1265.2022	1276.2269	1317.0468	1346.2959	1394.1502	1412.223	1463.499	1477.8559	1481.6426	1502.4512	2345.7315	3009.722	3042.3599	3070.5618	3086.3616	3090.2596	3113.268	3124.1381	3127.3189	3145.3213
CC1OC2CCC12C#N	C[C@H]1O[C@H]2CC[C@@]12C#N	
InChI=1S/C7H9NO/c1-5-7(4-8)3-2-6(7)9-5/h5-6H,2-3H2,1H3	InChI=1S/C7H9NO/c1-5-7(4-8)3-2-6(7)9-5/h5-6H,2-3H2,1H3/t5-,6+,7-/m1/s1
