25
gdb 118686	2.10846	0.99856	0.93487	1.3763	89.45	-0.2405	0.0744	0.3149	1521.2839	0.226039	-389.488665	-389.47716	-389.476216	-389.525182	42.196	
C	-0.6260613963	 0.440241879	 3.5311566507	-0.382215
C	-0.5965600058	-0.8934169509	 2.7803443604	-0.178446
C	-1.6351414845	-0.965849703	 1.6510091554	-0.226757
C	-1.6137848223	-2.2780676763	 0.8895481921	 0.37414
O	-0.3806450392	-2.5285374797	 0.2459162574	-0.474286
C	-2.3781576989	-3.5066167582	 1.3502215877	-0.084542
C	-3.2357145068	-3.5615004461	 2.597285548	-0.41463
C	-2.7907704836	-2.759897949	 0.083994782	-0.067635
C	-4.092194228	-1.9976770719	-0.0479307612	-0.414979
H	 0.1281148474	 0.4704107819	 4.323780099	 0.110688
H	-0.4313342625	 1.279156815	 2.8537923712	 0.116769
H	-1.6038217926	 0.6120912649	 3.9950866961	 0.113442
H	 0.4050901979	-1.0454912105	 2.3588398253	 0.092125
H	-0.7668332056	-1.7172967191	 3.4857417323	 0.096541
H	-2.6305484663	-0.7862405732	 2.0697696973	 0.090805
H	-1.4472788879	-0.1521117489	 0.9377676244	 0.100243
H	 0.2526764358	-2.8002464249	 0.9187551564	 0.277976
H	-1.8456678673	-4.4335307852	 1.1494023592	 0.080352
H	-3.7408385811	-2.6153120254	 2.8066063549	 0.115636
H	-4.0119954888	-4.3293427635	 2.501805242	 0.117369
H	-2.6347131108	-3.811625556	 3.4789039082	 0.114816
H	-2.484031303	-3.2571905438	-0.8322619081	 0.092492
H	-4.4011282638	-1.5182392184	 0.8839917581	 0.113756
H	-4.0096159691	-1.2130871534	-0.8082612785	 0.120151
H	-4.9031786171	-2.6681153231	-0.3533168703	 0.116191
71.7968	76.3461	113.7331	152.0651	168.4144	208.3239	229.6226	239.2848	258.3	263.9686	332.8151	339.265	418.1098	471.7384	519.3447	534.119	723.9515	749.2729	783.8952	825.9787	878.3372	900.5095	932.4603	1009.3375	1023.6126	1041.5085	1044.8023	1057.8597	1112.3368	1115.7449	1144.5016	1164.0623	1176.4277	1228.0678	1274.4452	1288.2553	1310.2241	1330.7258	1340.1712	1362.7528	1394.2275	1413.1676	1414.2513	1423.5377	1460.9483	1471.1206	1490.4983	1492.4692	1495.0383	1499.6138	1501.1929	1508.5062	1517.4969	3014.1675	3023.2044	3028.0812	3029.5405	3033.7777	3046.3972	3078.1114	3081.6071	3087.1558	3096.5362	3100.9789	3104.5577	3116.8856	3131.0177	3148.4552	3800.5483
CCCC1(O)C(C)C1C	CCC[C@@]1(O)[C@@H](C)[C@H]1C	
InChI=1S/C8H16O/c1-4-5-8(9)6(2)7(8)3/h6-7,9H,4-5H2,1-3H3	InChI=1S/C8H16O/c1-4-5-8(9)6(2)7(8)3/h6-7,9H,4-5H2,1-3H3/t6-,7+,8+
