22
gdb 13894	2.65393	1.62571	1.22958	1.425	78.25	-0.2445	0.0678	0.3122	1106.9106	0.198347	-350.196633	-350.186767	-350.185822	-350.230804	36.538	
C	 0.3010939411	 1.047000596	 0.7099239012	-0.391408
C	 0.1942169553	-0.2842529381	-0.0484963595	 0.03419
C	 1.1418748523	-1.3398885862	 0.5417312164	-0.389011
C	-1.2379482016	-0.7957591408	-0.0373018232	-0.022243
C	-2.2958067488	-0.3688327467	-1.0464807422	-0.072245
C	-2.0107732672	 0.5880319013	-2.1847133478	-0.419009
C	-1.7340522462	-1.7777026799	-1.0615656735	 0.053364
O	-0.8169925301	-2.1448577585	-2.056706223	-0.415902
H	 1.3281520065	 1.4274076068	 0.6946381894	 0.106453
H	-0.3493402713	 1.8116618494	 0.2736929145	 0.111824
H	 0.0100429832	 0.9237872469	 1.7602905422	 0.107343
H	 0.497587252	-0.1151529191	-1.0862186754	 0.082689
H	 0.8713586998	-1.5750639663	 1.5784628623	 0.102934
H	 1.099979434	-2.2652760667	-0.0388816759	 0.129786
H	 2.17711295	-0.9817827431	 0.5432808794	 0.102337
H	-1.614363493	-0.9645482622	 0.9707476317	 0.075622
H	-3.3016232169	-0.2813479725	-0.6419765006	 0.078237
H	-1.0631632469	 0.3589904543	-2.6769110732	 0.12949
H	-2.7995602614	 0.52811398	-2.9437842756	 0.108633
H	-1.9708460938	 1.626306633	-1.8386522363	 0.119562
H	-2.3761177659	-2.5922021481	-0.7255958133	 0.078876
H	-1.3040034411	-2.2848368996	-2.8755515776	 0.288478
64.8847	124.9882	163.5895	184.7702	227.5025	236.9316	257.2597	284.5915	311.8209	333.7581	412.4541	499.5157	562.7917	619.8764	770.2146	773.4016	840.8078	906.2296	928.5966	960.562	970.3025	997.0381	1036.2063	1069.0957	1117.5413	1138.6033	1155.5393	1179.8477	1187.3596	1207.5856	1252.7057	1289.6801	1312.8566	1341.5973	1381.6846	1394.3793	1399.0995	1415.6094	1420.0365	1459.7767	1488.405	1490.5634	1499.7486	1503.3419	1506.9797	1512.2196	3021.566	3025.8076	3030.9063	3056.6676	3083.1742	3083.9237	3088.6261	3093.2938	3100.9197	3110.6712	3116.4042	3120.7557	3136.0477	3803.0948
CC(C)C1C(C)C1O	CC(C)[C@H]1[C@@H](C)[C@H]1O	
InChI=1S/C7H14O/c1-4(2)6-5(3)7(6)8/h4-8H,1-3H3	InChI=1S/C7H14O/c1-4(2)6-5(3)7(6)8/h4-8H,1-3H3/t5-,6+,7-/m1/s1
