17
gdb 100388	2.84431	1.0186	0.92107	2.3408	66.74	-0.2739	-0.0622	0.2116	1297.7152	0.131762	-496.120046	-496.110117	-496.109173	-496.155345	34.64	
C	 0.0832752246	 1.5149765192	-0.1234513129	-0.452421
C	 0.0311727617	-0.0157129173	-0.0331635509	 0.224128
C	 0.6273065311	-0.5099007774	 1.3062793653	-0.096098
O	 1.9447084685	-0.0588414072	 1.5016084823	-0.415685
O	-1.3052402893	-0.5659259222	-0.0448382276	-0.23161
C	-2.244539179	-0.1222530905	-0.9087874159	 0.161749
O	-3.3414548875	-0.5921591437	-0.9416014903	-0.263877
C	 0.7903931981	-0.6286100533	-1.2131891614	 0.14669
O	 1.9483334505	-0.9607450475	-1.177170736	-0.248271
H	 1.0718465985	 1.8337012604	 0.213417888	 0.167419
H	-0.0814161854	 1.8998092403	-1.1334385344	 0.130222
H	-0.6708391132	 1.9439056781	 0.5435692731	 0.145944
H	 0.0154728138	-0.1086093125	 2.1197223443	 0.125333
H	 0.5468998184	-1.6053585158	 1.3360113639	 0.114281
H	 2.4756781154	-0.4562959392	 0.7982624402	 0.300492
H	-1.9038165552	 0.6993592385	-1.5603912469	 0.08768
H	 0.1867628391	-0.7496210697	-2.1401189707	 0.104023
67.6306	76.807	133.8281	161.3936	181.4057	235.0682	266.257	298.1226	319.312	386.7846	402.945	443.8679	509.4852	572.7363	744.947	786.5375	901.5088	943.6873	987.5756	1001.9708	1040.5554	1098.6007	1136.85	1141.0094	1175.3924	1236.5982	1284.9219	1374.1028	1395.932	1419.63	1429.9329	1441.9734	1487.0157	1500.647	1506.3226	1819.7233	1859.6095	2893.0534	3002.3968	3014.0992	3046.0051	3091.176	3118.1797	3141.4366	3759.5953
CC(CO)(OC=O)C=O	C[C@@](CO)(OC=O)C=O	
InChI=1S/C5H8O4/c1-5(2-6,3-7)9-4-8/h2,4,7H,3H2,1H3	InChI=1S/C5H8O4/c1-5(2-6,3-7)9-4-8/h2,4,7H,3H2,1H3/t5-/m1/s1
