18
gdb 37369	2.51566	1.99299	1.91266	2.7817	68.84	-0.2282	0.0628	0.291	859.0853	0.151805	-439.050005	-439.043574	-439.04263	-439.080527	26.919	
C	-0.0152843338	 1.3899343901	 0.2179713138	-0.051358
C	 1.3800788636	 2.02668567	-0.0195852394	-0.227293
C	 2.2275973423	 1.2104803244	-1.0058422082	 0.059603
O	 2.1664749544	-0.158007563	-0.5497257734	-0.256618
C	 0.8553239131	-0.5424531197	-0.9365196821	 0.1712
O	-0.0957555728	-0.0208337998	-0.0545441085	-0.265732
C	 0.7690424795	-0.0393569449	-2.3996512984	-0.055176
N	 0.2232648871	 1.3221334773	-2.57066126	-0.33917
C	 1.6836273488	 1.1185274119	-2.4415988751	-0.055641
H	-0.2890394441	 1.4927026216	 1.2731928376	 0.09472
H	-0.7635415326	 1.9021326384	-0.3872824081	 0.123475
H	 1.2526811945	 3.0567449202	-0.3671968701	 0.10381
H	 1.9384395588	 2.057658393	 0.9207015035	 0.108997
H	 3.2738431473	 1.5229824394	-0.9869048208	 0.079054
H	 0.7761460561	-1.6287966617	-0.8597753922	 0.088486
H	 0.6848182386	-0.7614672046	-3.2039253665	 0.093634
H	-0.0111337637	 1.4644566208	-3.5514324499	 0.233228
H	 2.3333936329	 1.3307314266	-3.2829618421	 0.094779
185.0922	206.0664	304.4722	391.8126	472.6668	554.6737	573.5589	655.2549	731.8154	767.3718	775.7543	828.6759	866.4555	888.7154	905.9632	916.8221	928.8699	952.9134	1009.1411	1029.7765	1043.3407	1079.2444	1094.0607	1124.8599	1155.3731	1181.3145	1233.8488	1249.7283	1275.8483	1293.9382	1327.9416	1347.5363	1359.0118	1377.9867	1388.7483	1413.4651	1429.9373	1474.3017	1512.6	3041.3414	3053.0496	3087.2312	3091.2318	3099.497	3119.2337	3170.7797	3181.0713	3482.3648
C1CC2OC(O1)C1NC21	C1C[C@H]2O[C@@H](O1)[C@H]1N[C@@H]21	
InChI=1S/C6H9NO2/c1-2-8-6-5-4(7-5)3(1)9-6/h3-7H,1-2H2	InChI=1S/C6H9NO2/c1-2-8-6-5-4(7-5)3(1)9-6/h3-7H,1-2H2/t3-,4+,5+,6-/m1/s1
