19
gdb 54150	2.46214	1.46875	1.0908	5.3065	72.54	-0.2442	0.0248	0.269	1147.5406	0.159219	-456.367966	-456.358578	-456.357634	-456.401676	35.769	
C	-0.0576451854	 1.5690058087	-0.0279504181	-0.454644
C	 0.0098616152	 0.0559153804	-0.0289155512	 0.257947
N	-1.1319577933	-0.629179677	-0.6279932825	-0.573325
H	-1.13098554	-0.4975831436	-1.6358860633	 0.246632
H	-0.885883652	-2.1635535157	 0.1181034404	 0.317456
H	-2.004178301	-0.2414249996	-0.2766976866	 0.246031
C	 1.3230047229	-0.6372837033	-0.2372736612	-0.331481
C	 0.683268172	-0.6667704804	 1.148175358	 0.10268
N	 1.3188883801	 0.1728596745	 2.1324455123	-0.553141
C	 0.1987007087	-2.0162626693	 1.666671436	 0.363619
O	 0.5419816614	-2.406415168	 2.7560827872	-0.354139
O	-0.5744218202	-2.748712257	 0.8609449752	-0.387408
H	 0.8006072467	 1.9973386852	 0.4896385358	 0.155711
H	-0.0822680389	 1.9484034917	-1.0562908377	 0.112436
H	-0.9666090485	 1.916797687	 0.478596976	 0.111662
H	 1.3271881583	-1.5611614333	-0.8048826773	 0.128398
H	 2.2107885758	-0.0231180148	-0.3319094938	 0.13279
H	 0.6518019655	 0.3746690542	 2.8742403413	 0.233853
H	 2.0378667528	-0.3832696395	 2.5898094796	 0.244923
79.1302	131.9568	171.9718	231.3202	260.3157	290.9564	306.205	358.9763	392.1343	410.5944	425.5277	476.306	545.004	565.4359	679.1742	749.19	802.5375	872.2398	915.6844	924.9027	933.0905	958.3765	992.6609	1011.3345	1070.0429	1074.0913	1136.0437	1209.2161	1238.2749	1266.5478	1291.6297	1336.1765	1381.8952	1410.5126	1470.7699	1492.9666	1500.8796	1502.4642	1649.869	1676.2327	1832.3529	3022.7865	3077.9546	3140.6338	3151.5458	3180.8188	3235.9926	3479.2272	3480.2683	3540.3967	3554.5782
CC1([NH3+])CC1(N)C([O-])=O	C[C@@]1(N)C[C@]1(N)C(=O)O	
InChI=1S/C5H10N2O2/c1-4(6)2-5(4,7)3(8)9/h2,6-7H2,1H3,(H,8,9)	InChI=1S/C5H10N2O2/c1-4(6)2-5(4,7)3(8)9/h2,6-7H2,1H3,(H,8,9)/t4-,5+/m1/s1
