19
gdb 91620	2.26336	1.94459	1.41191	1.9186	75.15	-0.2294	0.0223	0.2517	996.246	0.160452	-423.027312	-423.01941	-423.018466	-423.059321	31.347	
C	 0.0054155943	 1.4880410105	 0.0414274937	-0.510857
C	-0.0587617882	 0.0015888824	-0.0298574191	 0.376876
C	-0.103862152	-0.8263613	-1.0768037375	-0.205234
C	 0.0046829913	-2.2315064082	-0.5055477669	 0.024548
C	 1.4807028345	-2.4334733794	-0.0334286181	-0.260878
C	 1.5126552662	-1.4838370084	 1.203658826	 0.12404
O	 2.4376929095	-0.4129080316	 1.1385799509	-0.437589
C	 0.0515003359	-0.9270119119	 1.1805603195	-0.058244
O	-0.6639681273	-2.0905370002	 0.7618382438	-0.251781
H	 0.9586653799	 1.8023052338	 0.4812221887	 0.149035
H	-0.0837385366	 1.94210611	-0.9493766924	 0.1217
H	-0.7915028257	 1.8937844162	 0.6773416193	 0.123093
H	-0.0970456862	-0.5753547521	-2.1294084824	 0.094807
H	-0.4291910951	-3.048929842	-1.0805222316	 0.076739
H	 1.6560124897	-3.4733508452	 0.2535354252	 0.099708
H	 2.2159104067	-2.1401505844	-0.7865386857	 0.098485
H	 1.6559455828	-2.06168881	 2.1253745468	 0.074137
H	 3.3261969374	-0.7768118638	 1.1878643655	 0.28664
H	-0.3209366272	-0.5566194857	 2.1354961344	 0.074774
150.4654	158.3257	188.2149	235.9414	302.4743	347.8531	416.172	490.5391	514.7291	597.9647	616.6295	722.3668	808.5133	825.4564	840.3258	861.6629	924.8439	929.6468	948.7857	983.8035	1008.3641	1030.5341	1063.0647	1072.4907	1095.2535	1159.0466	1191.1664	1193.7048	1227.0083	1253.7662	1256.9278	1312.109	1328.6587	1342.0681	1346.5255	1405.9842	1416.8038	1480.0595	1481.8711	1491.1694	1702.1916	3016.6203	3022.7067	3063.0375	3078.3646	3111.8286	3115.7833	3122.3252	3126.1633	3218.2944	3831.5308
CC1=CC2CC(O)C1O2	CC1=C[C@H]2C[C@@H](O)[C@@H]1O2	
InChI=1S/C7H10O2/c1-4-2-5-3-6(8)7(4)9-5/h2,5-8H,3H2,1H3	InChI=1S/C7H10O2/c1-4-2-5-3-6(8)7(4)9-5/h2,5-8H,3H2,1H3/t5-,6+,7+/m0/s1
