15
gdb 43334	2.97176	1.5965	1.18421	4.1163	75.41	-0.25	-0.0728	0.1772	1011.3027	0.113924	-420.625839	-420.618801	-420.617857	-420.657745	27.086	
O	 0.0277601725	 0.7525390283	 1.59039749	-0.333728
C	-0.0004860365	 1.4794156693	 0.6096652438	 0.322127
C	-1.3113715553	 1.829013043	 0.008977443	-0.16359
C	-1.638115225	 2.8129448631	-0.8388575765	-0.046555
C	-0.8045495922	 3.9380602851	-1.2973082298	-0.007058
O	-0.0257003995	 4.6345909361	-0.3247463274	-0.232492
C	 0.6938849886	 3.9370266729	-1.3412304898	-0.007058
C	 1.5513217877	 2.8107459311	-0.9323463825	-0.046555
C	 1.2734446404	 1.827230634	-0.0667890085	-0.16359
H	-2.0923394968	 1.1471616157	 0.3348968321	 0.123231
H	-2.6620434698	 2.8416413526	-1.204262817	 0.111864
H	-1.2933166109	 4.5995315137	-2.0126648497	 0.104154
H	 1.1408228311	 4.5978531622	-2.0840139714	 0.104154
H	 2.5521275899	 2.8380464805	-1.3571003552	 0.111864
H	 2.0712215558	 1.1442904024	 0.2128542089	 0.123231
53.4838	235.719	251.8408	306.9279	362.9963	478.1957	519.5383	522.8229	647.1158	698.8115	734.6736	772.8056	810.9738	856.3343	874.673	884.8331	967.856	985.4179	1021.128	1022.2124	1109.2567	1145.6016	1201.8495	1222.7361	1303.0011	1304.1568	1406.1766	1422.6317	1437.1307	1445.8183	1692.8803	1697.8876	1730.8886	3103.5031	3113.9145	3152.8897	3153.7692	3176.5143	3178.0495
O=C1C=CC2OC2C=C1	O=C1C=C[C@H]2O[C@H]2C=C1	
InChI=1S/C7H6O2/c8-5-1-3-6-7(9-6)4-2-5/h1-4,6-7H	InChI=1S/C7H6O2/c8-5-1-3-6-7(9-6)4-2-5/h1-4,6-7H/t6-,7+
