23
gdb 58043	1.87252	1.42793	0.86609	0.6163	91.62	-0.2557	0.0559	0.3116	1410.9584	0.203189	-351.115253	-351.104751	-351.103807	-351.150577	39.635	
C	 0.0165894577	 1.5512940661	-0.0190983863	-0.399887
C	 0.0523992705	 0.0175275405	-0.0100001011	 0.036816
C	 0.7741348528	-0.508503136	-1.2573536838	-0.39575
C	 0.6885327865	-0.5251422683	 1.3054133362	-0.192704
C	-0.0385789023	-0.0354397533	 2.4805481642	 0.336809
C	-0.6542041545	 0.3368849784	 3.444425394	-0.456584
C	 0.7658033235	-2.0506782518	 1.3545021081	 0.02837
C	 2.0057439024	-2.7837686497	 0.9063120571	-0.273566
C	 1.649059356	-2.7247686932	 2.3701280372	-0.272284
H	 1.032756801	 1.9646846254	-0.0124048279	 0.108302
H	-0.4831274629	 1.9197914175	-0.9206574178	 0.10829
H	-0.5127329591	 1.9453401217	 0.8516006966	 0.130172
H	-0.983626757	-0.3474954225	-0.0318158685	 0.080234
H	 1.8262698169	-0.1988134524	-1.2627133808	 0.108619
H	 0.7458722078	-1.5982810234	-1.3229347218	 0.121839
H	 0.3085027646	-0.1031320935	-2.1615324353	 0.108858
H	 1.7177790037	-0.1371859646	 1.3584246223	 0.092865
H	-1.1871084669	 0.6715621701	 4.2995616118	 0.189814
H	-0.1848963956	-2.5377985865	 1.1534317258	 0.088457
H	 1.886028881	-3.7247043993	 0.3800979202	 0.11135
H	 2.8503044917	-2.1933773967	 0.5664307607	 0.111955
H	 2.247485036	-2.0889936566	 3.0143875385	 0.115971
H	 1.2849276562	-3.6248194918	 2.8523833707	 0.112055
63.6558	88.9245	142.9516	160.6433	182.5023	227.0255	255.2816	319.5438	326.5086	373.0654	411.7043	432.9139	513.7329	536.4876	624.219	626.9014	766.4236	824.3201	832.9941	866.6644	915.0103	931.8802	934.7959	963.6899	985.5921	1025.2655	1061.0231	1079.5446	1100.6705	1136.8064	1141.1853	1189.7949	1194.34	1197.1293	1227.7143	1272.5021	1295.0857	1350.4782	1364.2257	1399.7771	1403.3965	1420.4134	1471.7312	1488.5755	1490.3638	1502.2062	1506.2931	1512.4494	2228.5502	2982.0472	3013.5225	3026.0804	3032.4299	3088.241	3095.4503	3122.7819	3123.5383	3129.4578	3134.361	3140.6703	3207.0108	3222.7617	3504.5273
CC(C)C(C#C)C1CC1	CC(C)[C@@H](C#C)C1CC1	
InChI=1S/C9H14/c1-4-9(7(2)3)8-5-6-8/h1,7-9H,5-6H2,2-3H3	InChI=1S/C9H14/c1-4-9(7(2)3)8-5-6-8/h1,7-9H,5-6H2,2-3H3/t9-/m1/s1
