13
gdb 28668	6.0286	1.03923	0.88642	1.9381	78.34	-0.2419	-0.049	0.1929	1202.964	0.090751	-415.643454	-415.636275	-415.635331	-415.675164	27.282	
O	 0.0670976991	 1.3189124876	 0.1012436929	-0.383104
C	 0.0603053312	-0.0169661523	 0.0576949522	 0.466308
N	 0.0899615672	-0.584754412	-1.1528398547	-0.342736
C	 0.0826281344	-1.9123944459	-1.1741452194	-0.052655
C	 0.0461686214	-2.6894335144	-0.0078881023	 0.056733
C	 0.0177841788	-1.9591722069	 1.1917461485	-0.050319
N	 0.0244159401	-0.6334838699	 1.2382550291	-0.283445
C	 0.0385188087	-4.1076222716	-0.0373353048	 0.217481
C	 0.0320203408	-5.3115327921	-0.0622012751	-0.401979
H	 0.0939677858	 1.6216564093	-0.8170437918	 0.309623
H	 0.1064296868	-2.389235051	-2.1503974292	 0.131872
H	-0.0113351013	-2.4816179296	 2.1446013257	 0.132935
H	 0.0262648218	-6.3732355513	-0.0832829309	 0.199285
97.5195	142.5057	234.8402	420.9204	436.1516	456.9607	476.4652	536.5262	550.405	581.7215	598.0394	660.7885	672.1663	750.2183	833.5428	896.1608	981.2033	1001.8759	1051.2614	1171.7605	1250.666	1278.379	1359.4636	1392.1043	1415.9517	1502.1855	1592.6983	1641.7773	2229.654	3168.4229	3171.7067	3502.6039	3778.6035
OC1=NC=C(C=N1)C#C	Oc1ncc(cn1)C#C	
InChI=1S/C6H4N2O/c1-2-5-3-7-6(9)8-4-5/h1,3-4H,(H,7,8,9)	InChI=1S/C6H4N2O/c1-2-5-3-7-6(9)8-4-5/h1,3-4H,(H,7,8,9)
