19
gdb 90526	4.38495	1.02846	0.94615	5.3656	79.87	-0.2364	0.0143	0.2507	1275.529	0.160255	-382.039549	-382.031211	-382.030267	-382.07336	31.365	
C	 0.42805372	 1.6245303682	-0.2597839098	-0.415328
C	 0.0359517564	 0.1709552963	-0.0369625978	 0.020132
C	 0.8177183611	-0.9374087793	-0.8012996315	-0.196739
N	 1.0980490814	-1.6824257336	 0.4698908616	-0.127684
C	 2.4365018093	-1.3331557951	 1.0484257018	-0.109826
C	 1.8034927184	-0.2225741274	 1.9469841599	-0.277676
C	 0.4571756888	-0.5602598272	 1.268289931	 0.01572
C	 3.0751185586	-2.4408533155	 1.7573295888	 0.288998
N	 3.5889431829	-3.2984090156	 2.3373779457	-0.325199
H	 1.5068649519	 1.7802971887	-0.1535463954	 0.115849
H	 0.150409078	 1.9467287403	-1.2690037667	 0.125367
H	-0.0781443583	 2.2871712059	 0.4505052322	 0.123801
H	-1.0422786006	 0.0629221615	-0.1865028484	 0.087725
H	 0.2324794165	-1.5333672969	-1.5066386796	 0.11481
H	 1.7229675106	-0.590227379	-1.3151579241	 0.100308
H	 3.1433689941	-0.9572141535	 0.2996662534	 0.117552
H	 1.8318282854	-0.4519887614	 3.0126495545	 0.134417
H	 2.2028135619	 0.7811805769	 1.7929849042	 0.120347
H	-0.3545026565	-0.8357612434	 1.9463615504	 0.087424
27.6517	130.7892	174.8368	219.1919	270.2782	328.0017	377.4247	459.4965	486.3708	542.7619	675.7733	740.5721	767.6221	837.0545	858.0906	895.9099	911.4334	956.1505	972.0996	1015.9798	1020.2752	1058.9475	1109.99	1121.3882	1142.1438	1168.4568	1206.6669	1222.1379	1239.5816	1260.5975	1282.9817	1304.5218	1343.7189	1363.4474	1369.5335	1414.4241	1478.1956	1494.7117	1503.3588	1505.8312	2356.4373	3022.2882	3031.453	3037.7352	3054.5768	3071.5468	3083.0339	3088.265	3098.388	3101.6768	3140.1741
CC1CN2C(CC12)C#N	C[C@H]1CN2[C@@H](C[C@@H]12)C#N	
InChI=1S/C7H10N2/c1-5-4-9-6(3-8)2-7(5)9/h5-7H,2,4H2,1H3	InChI=1S/C7H10N2/c1-5-4-9-6(3-8)2-7(5)9/h5-7H,2,4H2,1H3/t5-,6-,7-/m0/s1
