20
gdb 67022	2.14723	2.11137	1.58855	1.6163	82.87	-0.2213	0.0073	0.2286	975.2137	0.171147	-365.980422	-365.972405	-365.971461	-366.012166	32.509	
C	-0.1516600678	 1.5096613358	-0.0116356018	-0.519632
C	 0.0914275863	 0.0331986275	-0.0241733367	 0.307259
C	 0.3250123556	-0.8429991851	-1.1936505279	-0.110485
C	 1.4963136268	-1.7087771336	-0.9268835662	-0.092093
C	 1.77701079	-1.6788121851	 0.3826279217	-0.144404
C	 0.7258722892	-0.869120782	 1.1029231831	 0.207165
C	 1.066780572	-0.3100279849	 2.4677207945	-0.502019
C	-0.603108596	-1.6942069385	 0.9237367155	-0.170259
N	-0.9548197948	-0.991506139	-0.3361664763	-0.202853
H	 0.7903274097	 2.066019087	-0.0743498024	 0.124575
H	-0.7760437186	 1.792012093	-0.8646754626	 0.133245
H	-0.6695433454	 1.8240997915	 0.9011711982	 0.122568
H	 0.0634473396	-0.5197664771	-2.1942464204	 0.091747
H	 1.9891433007	-2.3042411661	-1.6848041247	 0.098929
H	 2.5167624109	-2.2788952001	 0.9006942536	 0.095612
H	 1.9097094582	 0.387685882	 2.4142811995	 0.121623
H	 0.2167631546	 0.2212370652	 2.9085497356	 0.116604
H	 1.3467724416	-1.1135810411	 3.1583533875	 0.119893
H	-0.5223451728	-2.7848111172	 0.8642593511	 0.095281
H	-1.3518237998	-1.4134606322	 1.6702557786	 0.107244
176.8676	195.2298	205.9881	220.3744	296.9089	338.7276	393.9502	443.7954	540.1265	582.461	609.94	673.2734	728.3553	757.9759	794.8664	823.8231	870.0841	899.261	923.6342	939.1976	973.8567	995.6547	1030.4262	1065.7063	1105.2131	1119.9376	1138.991	1161.2104	1178.6243	1234.0178	1260.9987	1267.5786	1298.4966	1375.2165	1395.9092	1416.8379	1431.5261	1479.5947	1488.4924	1489.2916	1495.6792	1499.1059	1636.2472	3025.8298	3028.9702	3036.9304	3090.171	3090.8186	3095.3788	3098.61	3109.4605	3184.7313	3189.708	3220.959
CC12C3C=CC1(C)CN23	C[C@@]12[C@H]3C=C[C@]1(C)CN23	
InChI=1S/C8H11N/c1-7-4-3-6-8(7,2)9(6)5-7/h3-4,6H,5H2,1-2H3	InChI=1S/C8H11N/c1-7-4-3-6-8(7,2)9(6)5-7/h3-4,6H,5H2,1-2H3/t6-,7-,8-,9?/m1/s1
