18
gdb 65373	3.50077	0.99147	0.97482	3.3352	81.05	-0.2253	0.041	0.2663	1298.989	0.145155	-401.855953	-401.847007	-401.846063	-401.889662	34.229	
O	-0.0126067664	 1.3446703285	 0.0276435535	-0.462527
C	 0.0458180855	-0.0488959443	-0.0013808715	 0.204083
C	-0.4752458555	-0.8098903342	 1.2114929641	-0.355232
C	-1.2911894377	-0.784201711	-0.0559446123	-0.052091
N	-2.4263931116	 0.0940357012	-0.098797546	-0.08155
C	-3.3657812178	-0.0753348151	-1.2054766619	-0.224813
C	-3.7435885227	-0.4792992629	 0.1768317996	-0.217682
C	 1.1635222166	-0.5786567383	-0.7329829613	 0.30643
C	 2.0941949078	-1.0456597867	-1.3342380497	-0.443369
H	-0.9607298902	 1.555476771	 0.0109159313	 0.287232
H	 0.0041075258	-1.7411614944	 1.4892557857	 0.125537
H	-0.8141011002	-0.1876090461	 2.0323604983	 0.125894
H	-1.3443476687	-1.6992692911	-0.6462973225	 0.095145
H	-3.7557956401	 0.8413349185	-1.6370941759	 0.127129
H	-3.1598508998	-0.8668069514	-1.9227935021	 0.124665
H	-3.790694223	-1.543851438	 0.3929469072	 0.122573
H	-4.4111200371	 0.139457347	 0.7690700698	 0.126047
H	 2.9203582252	-1.4456719226	-1.8677710861	 0.192528
69.5062	112.9895	134.6431	203.0605	261.9288	327.2326	367.6221	437.1487	460.8551	490.5245	551.4121	574.7764	612.4219	676.0483	710.6006	755.839	825.8151	854.8684	895.5062	915.3934	936.8715	1017.4979	1042.4278	1067.0769	1077.3566	1106.1436	1122.2544	1126.5195	1177.4467	1203.2797	1219.4592	1269.625	1320.9524	1378.243	1434.4255	1468.9573	1492.3326	1519.9871	2239.1486	3096.1165	3106.9554	3111.4113	3139.127	3190.3897	3204.7408	3237.4076	3504.2286	3666.888
OC1(CC1N1CC1)C#C	O[C@]1(C[C@H]1N1CC1)C#C	
InChI=1S/C7H9NO/c1-2-7(9)5-6(7)8-3-4-8/h1,6,9H,3-5H2	InChI=1S/C7H9NO/c1-2-7(9)5-6(7)8-3-4-8/h1,6,9H,3-5H2/t6-,7+/m1/s1
