20
gdb 78379	2.3661	1.76691	1.43745	2.4299	78.08	-0.2114	0.0576	0.269	1010.7699	0.171746	-403.057674	-403.049644	-403.0487	-403.089657	32.387	
C	-0.0710160555	 1.5409560408	 0.0828548684	-0.447873
C	 0.0519297316	 0.0336492347	-0.0463710671	 0.03869
C	 0.4222911332	-0.8222058846	-1.1897399788	-0.071258
C	 1.6903474716	-0.509043302	-2.0101584186	-0.056142
C	 2.1713079736	 0.9192120611	-2.3581126522	 0.102861
O	 1.1806737907	 1.8326047556	-2.7747455463	-0.413128
C	 2.8357684836	 1.0402451506	-0.9337922297	-0.310612
C	 2.4449278723	-0.4428362137	-0.6689609751	 0.037871
N	 1.2240365399	-0.8554619803	 0.1356684116	-0.185193
H	 0.353173075	 2.0897855068	-0.7533415835	 0.151135
H	-1.1377402693	 1.7863140902	 0.1249142918	 0.112741
H	 0.3757037448	 1.8852066659	 1.0223878481	 0.117389
H	-0.74769529	-0.4496428126	 0.5182604791	 0.098823
H	-0.2063057871	-1.6645989358	-1.4690235947	 0.091704
H	 1.8945826247	-1.2803777573	-2.7524977112	 0.073193
H	 2.9566432969	 0.8449329731	-3.1231773361	 0.078557
H	 1.6158677001	 2.648418843	-3.0431088665	 0.285978
H	 3.9170780371	 1.1975561958	-0.976929057	 0.097638
H	 2.4104530954	 1.7803961432	-0.2599334117	 0.116961
H	 3.2635231714	-1.1208555646	-0.4296996706	 0.080665
146.8929	167.064	219.3597	266.7466	289.3441	311.9318	396.889	437.5219	530.1244	620.7877	627.8934	673.8619	688.885	747.0078	840.956	863.6003	880.253	896.8949	937.3105	985.0038	1020.8529	1042.7586	1059.4766	1095.6936	1104.5064	1120.2018	1155.9606	1173.218	1194.5578	1200.7937	1227.2027	1254.1568	1292.8094	1305.1807	1326.0831	1332.3361	1375.8202	1414.445	1429.2792	1452.8693	1475.0743	1501.3868	1529.0244	2994.1311	3035.2903	3069.0316	3079.4852	3090.2247	3102.6375	3112.6042	3132.158	3160.8444	3186.5412	3812.9384
CC1C2C3C(O)CC3N12	C[C@H]1[C@H]2[C@H]3[C@@H](O)C[C@H]3N12	
InChI=1S/C7H11NO/c1-3-7-6-4(8(3)7)2-5(6)9/h3-7,9H,2H2,1H3	InChI=1S/C7H11NO/c1-3-7-6-4(8(3)7)2-5(6)9/h3-7,9H,2H2,1H3/t3-,4+,5-,6+,7-,8?/m0/s1
