21
gdb 82478	3.2135	1.44152	1.34244	1.7134	81.09	-0.2524	0.0638	0.3162	1061.2448	0.183432	-387.056723	-387.048711	-387.047767	-387.088623	32.695	
C	 0.0820247847	 1.5139617311	 0.0339698158	-0.499029
C	-0.0132606186	 0.0057520325	 0.0175501413	 0.374485
C	 0.485184932	-0.7460902071	-1.2475835839	-0.294248
C	-0.6864478841	-1.7495774225	-1.1369418785	-0.083133
C	-0.4863422285	-2.8145021786	-0.0279991797	 0.159397
O	 0.6837578159	-3.5897460159	 0.0251173912	-0.437831
C	-0.7979337249	-1.7665443805	 1.0713426078	-0.083137
C	 0.3558237961	-0.7657759208	 1.3147772164	-0.294248
C	-1.3569077866	-0.8232610734	-0.056651928	-0.093245
H	 1.1289621901	 1.8387051837	 0.0894777055	 0.115405
H	-0.3524616522	 1.9523668874	-0.8715702424	 0.112676
H	-0.4420352367	 1.9387509318	 0.8976228952	 0.112678
H	 0.3764207256	-0.121153573	-2.1395563765	 0.099383
H	 1.5096480454	-1.1407560351	-1.2397963906	 0.07779
H	-1.156622196	-2.0772524515	-2.0645084084	 0.063646
H	-1.31238993	-3.5316615327	-0.0752136803	 0.087943
H	 1.4385208708	-2.9937052899	 0.067899441	 0.281001
H	-1.3588744702	-2.1080318196	 1.9417140387	 0.063646
H	 1.3761728389	-1.1610582275	 1.404153915	 0.077788
H	 0.1572998377	-0.1544992974	 2.2007344488	 0.099384
H	-2.3607904097	-0.4086300309	-0.1041466584	 0.059647
146.5277	200.2165	216.5241	230.782	271.9282	353.1055	387.7465	461.9425	526.6366	586.5748	624.8928	689.3837	773.7789	831.6533	844.8648	851.4645	889.8277	930.684	933.6972	941.0425	1002.3295	1015.3735	1017.5671	1073.2002	1099.8951	1113.7408	1124.015	1143.1471	1165.0379	1177.1302	1217.846	1225.7741	1244.3911	1248.2456	1282.6694	1284.5149	1324.6359	1324.7608	1354.9317	1410.849	1434.0717	1480.7696	1490.703	1490.8567	1497.9103	3012.0948	3013.6195	3019.6548	3058.153	3073.406	3075.2514	3078.7162	3089.0974	3098.6252	3101.0027	3145.3355	3814.7312
CC12CC3C(O)C(C1)C23	C[C@@]12C[C@H]3[C@@H](O)[C@@H](C1)[C@@H]23	
InChI=1S/C8H12O/c1-8-2-4-6(8)5(3-8)7(4)9/h4-7,9H,2-3H2,1H3	InChI=1S/C8H12O/c1-8-2-4-6(8)5(3-8)7(4)9/h4-7,9H,2-3H2,1H3/t4-,5+,6+,7-,8-
