18
gdb 97888	2.83097	0.78028	0.61875	4.5818	78.97	-0.2395	0.0173	0.2568	1752.2548	0.145182	-439.081467	-439.070518	-439.069574	-439.12009	36.275	
C	-0.6845562275	 0.7471384324	-0.9817387102	-0.334038
N	-1.1554997924	-0.379945505	-0.2028484999	-0.315402
C	-0.6012129352	-0.7238453807	 0.9839565751	 0.434925
O	 0.3273905185	-0.1397056881	 1.5116022398	-0.379547
C	-1.2241086102	-1.9536604256	 1.6857579024	-0.488352
C	-2.3283359043	-2.5967791416	 0.9912436413	 0.009829
C	-3.2361410706	-3.0812606736	 0.3653162132	 0.15685
C	-4.3304496418	-3.6467584791	-0.4136443867	-0.215553
O	-4.4890003796	-2.8767772285	-1.6019073632	-0.413418
H	-0.3277320568	 0.4269424455	-1.9669080065	 0.126939
H	-1.477026222	 1.490444584	-1.1227422727	 0.12693
H	 0.1404650742	 1.2036222316	-0.4336078408	 0.168519
H	-1.9233656052	-0.9365948429	-0.547111467	 0.266084
H	-0.4004117342	-2.6573236617	 1.8509875075	 0.161112
H	-1.5313651471	-1.6112377537	 2.6803841491	 0.161121
H	-4.1072016269	-4.7000711145	-0.6475279628	 0.12077
H	-5.2513988706	-3.641390643	 0.1911973216	 0.120751
H	-5.2145564984	-3.2636387355	-2.1028114702	 0.292481
27.8515	46.96	49.4072	81.6228	156.2523	175.4719	190.5569	231.2462	289.561	377.5693	388.4298	414.2157	525.8322	582.1831	639.0981	664.3161	792.6631	873.7975	948.5386	1032.2395	1043.8716	1090.13	1151.6957	1153.8995	1177.5908	1214.695	1243.719	1250.2805	1257.6268	1307.5949	1438.7711	1448.9188	1458.3233	1496.2622	1499.8387	1506.1993	1575.1649	1786.6886	2369.2055	2968.1919	2987.8371	3028.538	3044.8051	3077.793	3080.4633	3152.1708	3612.6923	3816.8206
CNC(=O)CC#CCO	CNC(=O)CC#CCO	
InChI=1S/C6H9NO2/c1-7-6(9)4-2-3-5-8/h8H,4-5H2,1H3,(H,7,9)	InChI=1S/C6H9NO2/c1-7-6(9)4-2-3-5-8/h8H,4-5H2,1H3,(H,7,9)
