14
gdb 127905	6.92108	0.90875	0.80736	3.5003	76.95	-0.2218	-0.0488	0.1731	1352.2314	0.099266	-432.816515	-432.807787	-432.806842	-432.850898	30.6	
C	-0.0487653186	 1.3919727214	 0.0864439689	-0.328553
N	 0.0677454346	-0.0588845272	 0.0605331532	-0.395486
C	 0.5813642927	-0.6022080469	-0.9483239381	 0.521328
N	 0.7748830794	-1.9592490466	-1.1625888666	-0.424776
C	 1.3400134866	-2.117558073	-2.4008393826	 0.292583
N	 1.5433979853	-0.9827648039	-3.0010178284	-0.182728
O	 1.0767831438	-0.0033327864	-2.092216108	-0.244098
C	 1.664537334	-3.3764881795	-2.9567745052	 0.247442
C	 1.9265847069	-4.4627417399	-3.3984261349	-0.365962
H	 0.8994585271	 1.8605426571	 0.3816456157	 0.124206
H	-0.3411113	 1.8189326765	-0.8815916498	 0.124259
H	-0.7998731296	 1.6716869243	 0.8294705483	 0.122378
H	 0.4996533544	-2.6796533512	-0.5191569242	 0.29149
H	 2.1643775235	-5.4165563549	-3.8027519383	 0.217919
34.6573	80.5099	129.5404	211.2736	215.9548	262.895	385.9036	437.2165	451.9398	552.4019	614.8205	642.5101	689.3161	700.3621	719.2832	734.601	915.6815	931.2781	1012.7099	1081.9496	1126.8932	1157.4126	1228.3941	1295.8449	1447.5108	1480.3196	1491.8868	1503.6495	1597.1031	1826.1621	2252.9359	3004.1793	3055.9418	3102.1069	3496.7836	3700.9822
CN=C1NC(=NO1)C#C	CN=c1[nH]c(no1)C#C	
InChI=1S/C5H5N3O/c1-3-4-7-5(6-2)9-8-4/h1H,2H3,(H,6,7,8)	InChI=1S/C5H5N3O/c1-3-4-7-5(6-2)9-8-4/h1H,2H3,(H,6,7,8)
