19
gdb 97841	3.83782	0.70024	0.63996	1.9367	81.5	-0.2472	0.0259	0.2731	1759.296	0.157096	-422.96918	-422.958988	-422.958043	-423.006628	34.947	
C	-0.2026220518	 1.5117495958	-0.1965974579	-0.398958
C	 0.1070476932	 0.0333347566	-0.1026643785	 0.158365
O	 1.3493254503	-0.3182659345	-0.7562332559	-0.287541
C	 1.9256689756	-0.8245452415	 0.4581301775	-0.073325
C	 0.6248120742	-0.5428607149	 1.2602172865	-0.262664
C	 0.713630264	 0.3316809004	 2.4093064381	 0.114421
C	 0.7944170805	 1.0541416583	 3.3699708511	 0.074911
C	 0.9049392749	 1.9358400897	 4.5247936242	-0.215507
O	 0.0574213183	 1.4684163719	 5.5677169696	-0.408326
H	 0.5978447297	 2.1103548812	 0.2459746123	 0.125762
H	-0.3142706383	 1.7981312129	-1.2469567161	 0.124643
H	-1.1365882163	 1.7414543121	 0.3266459415	 0.121364
H	-0.7215169127	-0.5566438955	-0.5162300483	 0.078764
H	 2.204617831	-1.8818780152	 0.3783041733	 0.104569
H	 2.7970933487	-0.2429662524	 0.7798088174	 0.107874
H	 0.1003491604	-1.4613874602	 1.5370123954	 0.111938
H	 1.957457053	 1.9689703695	 4.8513977254	 0.116963
H	 0.6352687503	 2.9609438074	 4.2216853193	 0.116965
H	 0.1597119351	 2.0712193285	 6.3113631954	 0.28978
22.9277	41.7135	87.4484	106.0684	188.7798	212.3388	226.8339	265.2876	341.8342	409.7048	468.8522	509.1085	571.1157	718.2018	759.0759	877.8377	885.4623	932.7814	1004.7553	1026.9328	1037.4546	1055.336	1076.1808	1093.1312	1145.0172	1164.5646	1189.6351	1222.4648	1247.0126	1258.2368	1283.3782	1348.8939	1357.8958	1384.2259	1410.3742	1459.7973	1480.6844	1487.9566	1502.9307	1526.9751	2364.6651	2961.1743	2978.6424	3010.8061	3021.378	3040.0859	3061.4194	3076.3784	3111.6367	3124.4342	3817.4667
CC1OCC1C#CCO	C[C@H]1OC[C@H]1C#CCO	
InChI=1S/C7H10O2/c1-6-7(5-9-6)3-2-4-8/h6-8H,4-5H2,1H3	InChI=1S/C7H10O2/c1-6-7(5-9-6)3-2-4-8/h6-8H,4-5H2,1H3/t6-,7-/m1/s1
