23
gdb 101705	3.39029	0.71551	0.65757	1.0073	82.61	-0.2528	0.0787	0.3315	1772.4853	0.203676	-425.403678	-425.39286	-425.391916	-425.440151	39.523	
C	-0.3888068919	 1.4868482292	-0.1286368798	-0.39196
C	 0.1111856949	 0.0439138856	 0.0176590367	 0.045895
C	 0.8808251812	-0.3926504596	-1.2299927584	-0.078756
O	 0.0057989654	-0.3315293093	-2.3488626266	-0.425071
C	 0.9847029842	-0.1654385788	 1.2680308953	-0.219083
C	 0.2661584143	 0.0889131234	 2.5777268206	-0.018457
C	-0.68427015	-0.952157341	 3.1442841179	-0.326196
C	 0.6364317611	-0.6731198896	 3.8180921061	 0.086699
O	 1.6770648805	-1.60323852	 3.7107669205	-0.41709
H	 0.4528345512	 2.191247466	-0.1352616731	 0.102259
H	-0.9345938697	 1.604660201	-1.0672342388	 0.131297
H	-1.0547263655	 1.768977343	 0.6919862483	 0.108927
H	-0.7626780221	-0.617604151	 0.0950202889	 0.080325
H	 1.7538813887	 0.2665328183	-1.3735323608	 0.080047
H	 1.2634254486	-1.4160776912	-1.0868412999	 0.080583
H	 0.5133091618	-0.5370559228	-3.1388364496	 0.284845
H	 1.3751967097	-1.1882364576	 1.2791147792	 0.105117
H	 1.8626115504	 0.4938850794	 1.2094947669	 0.091886
H	-0.017417141	 1.1229357359	 2.7513154306	 0.088311
H	-1.6030353716	-0.6337683416	 3.6250149666	 0.108063
H	-0.7568422537	-1.8897918149	 2.6014369446	 0.111798
H	 0.6168028374	-0.1287252274	 4.7624897531	 0.083177
H	 1.4394898461	-2.373395107	 4.2369333916	 0.287384
48.2114	69.1274	109.5242	136.0076	206.8294	238.1916	240.5584	256.3168	293.2155	325.3478	373.9466	419.5152	463.2265	480.8944	598.4628	766.8563	827.2313	841.3346	878.62	887.0899	930.0084	950.1147	982.4681	1013.0897	1047.5039	1069.2672	1092.8354	1105.363	1138.7266	1170.66	1180.8043	1190.076	1229.7827	1240.2284	1259.3506	1275.6923	1303.5815	1308.0957	1358.3251	1382.5623	1401.4966	1410.1178	1426.4658	1457.	1484.7024	1491.7435	1496.1633	1508.609	1521.4307	2954.5063	2983.6503	3005.8953	3019.8276	3029.4549	3074.1214	3092.8785	3095.9449	3125.5291	3128.3075	3147.8158	3213.6726	3810.0898	3835.0073
CC(CO)CC1CC1O	C[C@@H](CO)C[C@H]1C[C@H]1O	
InChI=1S/C7H14O2/c1-5(4-8)2-6-3-7(6)9/h5-9H,2-4H2,1H3	InChI=1S/C7H14O2/c1-5(4-8)2-6-3-7(6)9/h5-9H,2-4H2,1H3/t5-,6+,7-/m1/s1
