13
gdb 20316	6.48046	1.31837	1.10286	3.7241	63.87	-0.2549	-0.0032	0.2518	991.918	0.096168	-357.608443	-357.601395	-357.600451	-357.640612	25.44	
C	-0.3856101167	-0.8031042511	-0.9824789169	-0.449624
C	-0.0824830932	 0.0681097173	-0.2126195395	 0.308183
C	 0.2932607871	 1.1281765719	 0.7160962158	-0.463987
C	 1.5100311676	 1.8978708332	 0.2835119295	 0.313998
C	 2.3046241731	 1.7567189479	-0.8281856478	-0.145725
N	 3.2406811985	 2.723594529	-0.6785216594	-0.159066
N	 3.0503277554	 3.4274492157	 0.4511849736	-0.114186
N	 2.0005606443	 2.926472606	 1.0349426309	-0.249359
H	-0.6658367863	-1.5769705156	-1.6534263451	 0.200053
H	-0.5457831472	 1.8244421361	 0.8426014638	 0.158022
H	 0.4731221376	 0.7019883815	 1.7114958933	 0.158006
H	 2.2756883855	 1.0809992335	-1.6648888811	 0.160019
H	 4.0132309143	 2.9580487845	-1.2810666772	 0.283666
35.2654	121.4623	257.9139	319.3674	327.5269	465.3037	575.7162	618.9242	652.6583	668.7702	728.5969	735.8709	795.9336	955.7542	965.2021	990.5294	1034.9455	1056.3577	1129.3881	1218.9635	1242.7094	1280.8824	1336.1973	1370.7951	1463.0482	1489.3761	1594.9285	2244.0582	3024.3836	3049.0112	3297.4003	3505.5053	3660.167
C#CCC1=CNN=N1	C#CCc1c[nH]nn1	
InChI=1S/C5H5N3/c1-2-3-5-4-6-8-7-5/h1,4H,3H2,(H,6,7,8)	InChI=1S/C5H5N3/c1-2-3-5-4-6-8-7-5/h1,4H,3H2,(H,6,7,8)
