15
gdb 17127	4.94367	1.42132	1.33034	3.3642	60.95	-0.2577	0.001	0.2587	932.7574	0.119762	-399.795456	-399.788446	-399.787502	-399.827293	25.638	
O	 0.4610925677	 0.3216496002	-0.427374559	-0.305018
C	 0.1167809034	 1.3558885639	 0.0406054834	 0.447495
C	-1.1254897941	 2.2425578849	 0.0703657745	-0.430304
C	-0.2622662231	 3.1427206587	 0.9812432569	 0.091404
O	 0.8607661544	 2.2032546719	 0.8363048029	-0.256284
C	 0.0798006266	 4.525626689	 0.498966246	-0.007696
C	 1.4463870526	 5.071488	 0.6684375355	-0.238199
N	 0.9374420833	 4.7275247124	-0.6747629842	-0.320775
H	-1.388359762	 2.6690426646	-0.8995308872	 0.157155
H	-2.0025614563	 1.7773755424	 0.5220124809	 0.14876
H	-0.586335644	 3.1615066013	 2.0259756457	 0.108991
H	-0.7665143033	 5.2092541698	 0.5512034587	 0.103626
H	 1.5867984398	 6.1325960128	 0.8508432148	 0.124899
H	 2.1945900369	 4.4201841843	 1.1103297035	 0.134095
H	 1.3465951681	 3.8368483639	-0.9514895524	 0.241853
83.0355	93.8383	201.7723	256.0721	409.4965	513.7407	522.9507	588.9735	697.2243	788.0254	851.6329	869.8195	909.3927	949.4057	965.5866	996.4581	1039.4143	1070.5706	1105.2065	1127.0843	1140.6842	1156.4656	1191.0061	1224.6117	1263.2777	1293.0535	1305.312	1374.8948	1424.5341	1453.1357	1506.3174	1947.1853	3069.9847	3091.1239	3117.7398	3121.899	3150.7739	3208.9839	3488.6248
O=C1CC(O1)C1CN1	O=C1C[C@@H](O1)[C@H]1CN1	
InChI=1S/C5H7NO2/c7-5-1-4(8-5)3-2-6-3/h3-4,6H,1-2H2	InChI=1S/C5H7NO2/c7-5-1-4(8-5)3-2-6-3/h3-4,6H,1-2H2/t3-,4-/m1/s1
