14
gdb 29043	2.6045	1.79466	1.29322	2.8741	71.64	-0.2493	-0.0871	0.1622	966.899	0.101445	-432.900804	-432.893151	-432.892207	-432.933102	27.554	
C	-0.5983340057	 1.3893895734	 0.079852419	-0.482635
C	-0.0335495161	 0.0118096956	-0.0160653272	 0.251366
N	 0.1254207455	-0.5822081742	-1.1449528517	-0.232423
C	 0.4814028122	-1.8955600637	-1.2858190909	 0.087389
N	 0.1057471508	-2.9172003313	-0.5802039184	-0.235739
C	-0.519937233	-2.7359599245	 0.6266946385	 0.081656
N	-0.3396609127	-1.8072852079	 1.5032798686	-0.235076
C	 0.4254251185	-0.6812002491	 1.2549691195	 0.317636
O	 1.2884127321	-0.2314962218	 1.9680347987	-0.320521
H	 0.123151238	 2.0379762336	 0.5881521831	 0.174316
H	-0.8331328569	 1.7826382613	-0.9095007801	 0.151801
H	-1.502564279	 1.3793507606	 0.6997815229	 0.160608
H	 1.0503187929	-2.1023979144	-2.1913456422	 0.141829
H	-1.2051204866	-3.5397218877	 0.8956511704	 0.139794
104.311	145.7607	161.9623	259.1206	288.2993	322.9839	375.4199	487.0821	570.6158	620.5792	674.2476	754.5197	797.1135	884.0328	951.5097	980.927	1012.3743	1047.515	1061.1953	1122.0599	1214.9895	1265.3305	1391.9174	1422.861	1435.9622	1462.7407	1465.5582	1530.6492	1640.2956	1687.5809	1805.0822	3039.567	3098.7421	3140.6305	3148.5045	3156.9483
CC1=NC=NC=NC1=O	Cc1ncncnc1=O	
InChI=1S/C5H5N3O/c1-4-5(9)8-3-6-2-7-4/h2-3H,1H3	InChI=1S/C5H5N3O/c1-4-5(9)8-3-6-2-7-4/h2-3H,1H3
