18
gdb 31494	3.19854	1.06734	0.84949	2.5576	78.11	-0.1828	0.0276	0.2104	1368.9401	0.146904	-439.112377	-439.102667	-439.101723	-439.147422	34.663	
C	 0.0587747518	 1.5687984065	-0.0201252745	-0.511025
C	 0.0330604286	 0.0732206813	 0.0530161224	 0.210521
C	-0.0670832411	-0.8114155556	-0.9832885572	 0.260861
N	-0.0984027415	-0.6609402988	-2.3650677437	-0.596777
O	-0.0476313013	-2.0926948613	-0.5423994876	-0.220217
C	 0.0613390329	-2.046962308	 0.8370131506	 0.335094
C	 0.0501595445	-3.3591886213	 1.5306383755	-0.180679
O	-1.2204446924	-4.0118701315	 1.5161539868	-0.414215
C	 0.1175133192	-0.7515149432	 1.2307446148	-0.364654
H	 1.0746554755	 1.9761238744	 0.0587191761	 0.130837
H	-0.3608405988	 1.9360499914	-0.963805162	 0.107311
H	-0.5312777023	 2.015305625	 0.7873151868	 0.12941
H	-0.3479450557	 0.2788808237	-2.642583452	 0.25253
H	-0.7064699016	-1.333537644	-2.817053881	 0.252499
H	 0.8220218828	-4.0189062548	 1.103403704	 0.098145
H	 0.2979773472	-3.1993302573	 2.583330913	 0.121798
H	-1.4795305992	-4.0980399847	 0.592929823	 0.282891
H	 0.1975065614	-0.4052722719	 2.2507406948	 0.105672
59.5283	92.849	107.4916	158.4889	227.243	252.7502	256.8523	287.4622	313.7878	422.4898	479.9931	594.9489	638.5695	663.3801	707.9925	743.4904	816.042	829.1607	932.2086	992.3518	997.6739	1023.9885	1059.8295	1078.6237	1161.5502	1185.7816	1235.6368	1284.8393	1320.5209	1369.4468	1412.7599	1418.6624	1456.076	1483.6529	1486.8718	1501.2742	1612.9186	1644.233	1695.6026	2977.6114	3016.6634	3066.5562	3088.3439	3098.8185	3242.9719	3532.4725	3634.8156	3818.0998
CC1=C(N)OC(CO)=C1	Cc1c(N)oc(CO)c1	
InChI=1S/C6H9NO2/c1-4-2-5(3-8)9-6(4)7/h2,8H,3,7H2,1H3	InChI=1S/C6H9NO2/c1-4-2-5(3-8)9-6(4)7/h2,8H,3,7H2,1H3
