20
gdb 64177	2.13591	1.48434	1.36061	5.3657	79.16	-0.2743	0.0344	0.3087	1106.0353	0.16892	-403.160733	-403.151055	-403.150111	-403.194357	36.942	
C	-0.6709347973	 1.3491099647	 0.0951233683	-0.46643
C	 0.0500987157	 0.0198546293	-0.0509664782	 0.391011
O	-0.8211628514	-0.9732981676	-0.5667384751	-0.463521
C	 1.4284515265	-0.0225019453	-0.7746761157	-0.276791
C	 1.9110356584	-1.0722257092	 0.2574698625	-0.254329
C	 0.7500236012	-0.6286349333	 1.2120360793	 0.108548
C	 1.219112483	 0.3824919321	 2.2686089586	-0.449472
C	 0.0041767583	-1.7023802163	 1.8598368986	 0.263871
N	-0.5564519597	-2.5489570219	 2.412560221	-0.355407
H	-0.0323920484	 2.1242957908	 0.5263090729	 0.120576
H	-0.9945536311	 1.7035910821	-0.8914102224	 0.112589
H	-1.5612242833	 1.2342089853	 0.7207472334	 0.13878
H	-1.1307919543	-0.6797412952	-1.4305531141	 0.281705
H	 1.394178925	-0.3327654273	-1.82121234	 0.101848
H	 1.972289272	 0.9232301296	-0.7035392489	 0.105165
H	 1.7736940909	-2.0935821391	-0.0967651282	 0.134338
H	 2.9182949508	-0.9600166264	 0.6630419793	 0.108499
H	 1.8114568525	 1.1775962634	 1.8072900057	 0.122134
H	 0.3734404457	 0.8375723159	 2.7907119034	 0.137848
H	 1.8463750053	-0.1191121916	 3.0105894796	 0.139037
97.5249	148.9113	198.4309	224.1988	248.9087	258.3379	274.5952	318.9038	330.9744	384.3141	406.3996	433.8178	549.2005	583.8703	599.5343	664.5816	755.212	868.9619	899.1317	930.8445	944.7549	958.277	978.0469	1018.5774	1085.261	1130.6953	1181.2236	1197.0353	1208.4947	1223.1353	1247.6172	1285.0973	1292.2079	1357.1667	1406.6875	1416.7345	1472.513	1482.4156	1486.945	1491.8907	1498.7077	1504.1705	2352.6875	3027.8124	3046.3748	3063.1467	3083.0812	3094.5672	3115.2585	3119.0163	3123.7687	3124.9599	3148.9141	3803.521
CC1(O)CCC1(C)C#N	C[C@@]1(O)CC[C@]1(C)C#N	
InChI=1S/C7H11NO/c1-6(5-8)3-4-7(6,2)9/h9H,3-4H2,1-2H3	InChI=1S/C7H11NO/c1-6(5-8)3-4-7(6,2)9/h9H,3-4H2,1-2H3/t6-,7-/m1/s1
