15
gdb 26602	2.38112	1.88997	1.0605	2.7283	73.49	-0.2168	-0.0435	0.1733	1058.3224	0.113438	-453.996923	-453.98899	-453.988046	-454.029466	29.592	
C	-0.0176571044	 1.5490114833	 0.0164629245	-0.484501
C	 0.0021816559	 0.0495131613	-0.0187306344	 0.112174
C	-0.015478825	-0.6874857183	-1.159220458	 0.337298
O	-0.0530132358	-0.1087138494	-2.3731782848	-0.408643
N	 0.0027543907	-2.0732362855	-1.1936043893	-0.364199
C	 0.0385455759	-2.662172621	-0.0609935307	 0.134335
O	 0.0598116038	-2.0785871935	 1.1368279086	-0.215153
C	 0.0429685262	-0.6615682053	 1.2388581719	 0.326082
N	 0.0637384821	-0.1208892944	 2.3846501769	-0.53719
H	 0.8689297808	 1.9332730907	 0.5316805445	 0.142447
H	-0.0528532939	 1.961535261	-0.9922725511	 0.135049
H	-0.8828769141	 1.9085211504	 0.583163932	 0.142624
H	-0.0593171826	-0.8272665143	-3.0190751802	 0.305171
H	 0.0551933969	-3.7453454081	 0.0142582417	 0.150566
H	 0.0914666836	-0.8203433569	 3.1250467382	 0.22394
107.6023	123.4569	168.1615	266.8804	280.9808	362.025	485.6193	494.6691	511.4423	519.6612	548.6043	681.4086	685.0481	765.8015	828.3738	879.6702	895.5222	959.1371	1001.8957	1064.1438	1078.2101	1171.455	1221.7735	1292.9297	1312.3031	1394.1771	1413.1863	1432.1292	1478.0486	1486.0598	1647.3161	1717.1408	1747.6345	3042.6621	3092.0951	3149.5545	3192.5716	3507.6326	3786.3373
CC1=C(O)N=COC1=N	CC1=C(OC=N[C@@H]1O)[NH]	
InChI=1S/C5H6N2O2/c1-3-4(6)9-2-7-5(3)8/h2,6,8H,1H3	InChI=1S/C5H7N2O2/c1-3-4(6)9-2-7-5(3)8/h2,5-6,8H,1H3/t5-/m1/s1
