17
gdb 124824	4.32984	0.93503	0.90958	3.0489	69.95	-0.2782	-0.0216	0.2565	1330.8294	0.135599	-455.150496	-455.141783	-455.140839	-455.185124	31.054	
C	-0.009373967	 1.5564619242	 0.0556369549	-0.40326
C	 0.0023444725	 0.0361261377	-0.0939571254	 0.138622
O	 0.9182319091	-0.5799549809	 0.7965719841	-0.421927
C	-1.4176791572	-0.5564995725	 0.0652516139	-0.351281
C	-1.4230479807	-2.0422236526	-0.0138904187	 0.45553
N	-1.6446012333	-2.9031236813	 0.9363169621	-0.317876
C	-1.4911250801	-4.0963594868	 0.2742179	 0.038832
N	-1.1987568891	-4.0011214714	-0.9924618161	-0.113879
O	-1.1524209369	-2.6145492058	-1.1949026602	-0.200827
H	 1.0051899236	 1.947984443	-0.0517426322	 0.133585
H	-0.646749317	 2.0279861173	-0.699358545	 0.120876
H	-0.3865987171	 1.84800065	 1.0436532618	 0.111991
H	 0.3722210239	-0.2289726157	-1.0905851895	 0.113981
H	 0.6267986532	-0.4075294563	 1.6993346099	 0.283136
H	-1.8338912917	-0.2777008464	 1.0383903523	 0.130724
H	-2.0720731692	-0.143376619	-0.7101881984	 0.135696
H	-1.6020215827	-5.0595636133	 0.7507467364	 0.146076
41.1553	63.377	107.4308	242.1498	270.1642	297.1851	316.6203	358.1305	457.3168	474.4815	655.9229	700.127	783.031	848.8548	896.6607	922.3119	931.488	942.0581	980.5821	1024.1606	1057.6323	1099.3859	1140.45	1163.4631	1194.9012	1261.0075	1303.3129	1322.1511	1352.8159	1371.0638	1406.3124	1425.3284	1463.6474	1491.4828	1495.8142	1519.399	1624.1953	3027.8658	3048.6811	3057.0354	3095.0782	3105.958	3125.1486	3261.0395	3794.8815
CC(O)CC1=NC=NO1	C[C@@H](O)Cc1ncno1	
InChI=1S/C5H8N2O2/c1-4(8)2-5-6-3-7-9-5/h3-4,8H,2H2,1H3	InChI=1S/C5H8N2O2/c1-4(8)2-5-6-3-7-9-5/h3-4,8H,2H2,1H3/t4-/m1/s1
