25
gdb 122014	2.35406	0.68182	0.55367	1.799	86.88	-0.2457	0.0819	0.3276	2088.8581	0.225771	-426.625637	-426.613573	-426.612628	-426.664643	41.966	
C	-0.1297937885	 1.5000407257	-0.0166168349	-0.382711
C	 0.1661696448	-0.0014621423	-0.0278409275	-0.180444
C	 0.6379315263	-0.512997936	 1.3274719659	-0.039564
O	 0.8876922299	-1.8996531936	 1.2214681107	-0.262417
C	 1.4705722975	-2.5105955972	 2.3686651048	 0.137799
C	 0.4420827697	-2.7299155028	 3.4821842916	-0.402464
C	 2.0908434101	-3.826094489	 1.8960368882	-0.20453
C	 3.2161009082	-3.6371810483	 0.8769507584	-0.067247
O	 3.8023997359	-4.8679584455	 0.476462957	-0.420854
H	 0.760465301	 2.0810800037	 0.2486159416	 0.116213
H	-0.4670208457	 1.8415214985	-0.999454151	 0.117396
H	-0.9140984546	 1.7479786732	 0.7072975033	 0.115954
H	-0.7290685221	-0.5631929413	-0.3184526987	 0.105691
H	 0.9351214334	-0.2328759748	-0.7739248827	 0.104865
H	 1.5556634675	 0.0166794019	 1.6374117621	 0.081827
H	-0.1273599952	-0.3019902809	 2.0920807781	 0.085412
H	 2.273818498	-1.8548231766	 2.7497028208	 0.06255
H	 0.9115641607	-3.2060754668	 4.3487234012	 0.115647
H	 0.0045853333	-1.7859333503	 3.8189967063	 0.116243
H	-0.3676792166	-3.3757029317	 3.1276813276	 0.121388
H	 2.4806991036	-4.3772794748	 2.7589396168	 0.101425
H	 1.2951437313	-4.4409609952	 1.4526952533	 0.091928
H	 2.8425773026	-3.0661725235	 0.0168119598	 0.103136
H	 4.0312215241	-3.0569255668	 1.3250246101	 0.103423
H	 3.1337902147	-5.3646376458	-0.0056241428	 0.279334
38.6515	50.7402	72.2032	99.0099	132.591	151.1749	177.7267	227.5425	234.4521	292.5241	306.1711	325.8171	374.0063	441.5688	493.5531	545.7758	764.6797	780.1996	860.0967	901.132	911.4222	932.6447	967.2247	1007.0453	1049.0967	1075.8983	1104.5602	1107.6813	1119.6483	1146.8484	1161.8706	1190.7138	1221.6143	1267.5157	1291.5438	1315.1555	1316.7744	1332.3063	1371.3318	1373.9524	1403.1158	1406.4568	1412.2043	1420.7356	1439.3266	1473.0485	1490.4246	1491.7475	1497.925	1500.0502	1507.5482	1516.2754	1527.7681	2941.6447	2952.5131	2982.2608	3015.0231	3019.4368	3031.2774	3037.8664	3038.7921	3059.3513	3070.4839	3083.0495	3099.061	3107.9798	3111.0766	3113.7699	3817.1397
CCCOC(C)CCO	CCCO[C@@H](C)CCO	
InChI=1S/C7H16O2/c1-3-6-9-7(2)4-5-8/h7-8H,3-6H2,1-2H3	InChI=1S/C7H16O2/c1-3-6-9-7(2)4-5-8/h7-8H,3-6H2,1-2H3/t7-/m0/s1
