18
gdb 54153	2.47258	1.48087	1.12239	5.2741	68.61	-0.2378	0.0076	0.2454	1117.3679	0.146479	-476.249812	-476.24079	-476.239846	-476.28304	34.845	
C	-0.1283666617	 1.5643284389	-0.0955657163	-0.43756
C	 0.0193364397	 0.0624281538	-0.0660703443	 0.414921
O	-1.1074734081	-0.5408966009	-0.5927438916	-0.466067
C	 1.3652720328	-0.5633128392	-0.2406922	-0.376185
C	 0.7269300797	-0.5937699497	 1.1530912238	 0.02174
N	 1.2755319416	 0.1706350923	 2.2534236404	-0.611505
H	 2.2588859192	 0.3819730771	 2.1310456718	 0.248248
H	 0.7776664041	 1.0376565646	 2.4185251262	 0.253137
H	 0.7530204853	-1.3770463999	 3.2458033067	 0.306314
C	 0.1754567915	-1.9240201454	 1.5834036964	 0.46806
O	 0.2975664564	-2.1709956428	 2.8860096647	-0.371118
O	-0.3531509472	-2.7095211672	 0.8207665045	-0.394994
H	 0.7649026368	 2.0739378995	 0.2720300497	 0.106054
H	-0.3023988525	 1.8836618126	-1.1271980929	 0.143625
H	-0.9924470316	 1.87763559	 0.4993438104	 0.131274
H	-1.0563886945	-1.4910296171	-0.3769224327	 0.307412
H	 1.4172603931	-1.5153955712	-0.7575229122	 0.142918
H	 2.2323825652	 0.0803633345	-0.3559384345	 0.113727
94.0394	154.4257	180.5433	229.1884	278.0857	306.2289	323.3206	380.6938	406.4768	438.3529	473.6585	561.8779	583.6679	637.1024	683.3269	749.8334	805.7611	822.8772	850.2036	867.866	922.9009	949.7869	997.2869	1059.7217	1091.5879	1100.4769	1197.3953	1229.3458	1253.453	1298.9483	1340.817	1406.2285	1437.4955	1454.5811	1479.9326	1484.8823	1509.7191	1651.3718	1805.1157	3043.2447	3110.6828	3123.0581	3129.2424	3223.2079	3469.7295	3520.1727	3580.1507	3598.5697
CC1(O)CC1([NH3+])C([O-])=O	C[C@@]1(O)C[C@]1(N)C(=O)O	
InChI=1S/C5H9NO3/c1-4(9)2-5(4,6)3(7)8/h9H,2,6H2,1H3,(H,7,8)	InChI=1S/C5H9NO3/c1-4(9)2-5(4,6)3(7)8/h9H,2,6H2,1H3,(H,7,8)/t4-,5+/m1/s1
