20
gdb 36090	3.53019	1.14662	1.0745	3.9756	82.23	-0.3038	0.0357	0.3396	1193.6031	0.173585	-366.028292	-366.020486	-366.019542	-366.06086	30.913	
N	-0.0736000734	-1.142199837	-0.1842780877	-0.31807
C	-0.0543782673	 0.0056547882	-0.0510298264	 0.268524
C	-0.0015564935	 1.4592892441	 0.1118075374	-0.457091
C	 1.4184281619	 2.0072403266	 0.0364433806	 0.35448
C	 2.2670907227	 1.9564948057	-1.2697441552	-0.254521
C	 3.0566983121	 3.092830251	-0.5578244207	-0.01684
C	 1.6850471039	 3.542269832	 0.0229099114	-0.275761
C	 3.6833235474	 2.347740623	 0.6372622185	-0.212293
C	 2.4366186693	 1.5199666746	 1.0917749927	-0.25358
H	-0.6290288471	 1.9158660246	-0.6625215564	 0.146682
H	-0.4547680855	 1.7151431896	 1.0779439041	 0.148856
H	 2.790882064	 1.026063307	-1.5060498277	 0.103508
H	 1.7124214666	 2.3106271806	-2.1426066733	 0.09685
H	 3.6931756721	 3.7810401094	-1.1132687654	 0.064856
H	 1.0677742859	 4.0677206304	-0.7105266852	 0.096273
H	 1.6737732179	 4.0750811587	 0.9790291947	 0.09127
H	 4.5218782097	 1.7131022273	 0.3377384101	 0.102412
H	 4.0393923578	 3.0312306293	 1.413237202	 0.098713
H	 2.1165094481	 1.7602653946	 2.1106514934	 0.096579
H	 2.5969826974	 0.4399344604	 1.0364871831	 0.119152
68.3559	109.3535	251.9164	287.4152	345.6161	395.5915	430.8107	463.8214	509.2738	629.927	708.983	826.7162	832.4977	835.7595	872.2099	892.7982	921.6469	940.4077	948.5975	978.1411	986.0701	1016.8012	1021.0411	1087.397	1115.441	1149.7662	1150.1952	1186.219	1208.4751	1244.3997	1245.8735	1265.8575	1272.0674	1296.1365	1322.7371	1338.6807	1348.5561	1461.893	1486.2013	1493.5223	1501.3831	1533.3291	2359.875	3031.7794	3045.7473	3048.6738	3055.0268	3060.3516	3070.3624	3089.882	3105.6388	3109.7577	3115.1086	3120.7669
N#CCC12CC(C1)CC2	N#CC[C@@]12C[C@@H](C1)CC2	
InChI=1S/C8H11N/c9-4-3-8-2-1-7(5-8)6-8/h7H,1-3,5-6H2	InChI=1S/C8H11N/c9-4-3-8-2-1-7(5-8)6-8/h7H,1-3,5-6H2/t7-,8-
