19
gdb 91299	2.38103	1.64209	1.16577	1.8193	80.67	-0.2424	0.0201	0.2624	1103.2954	0.158295	-385.81722	-385.808723	-385.807779	-385.850559	32.724	
C	-0.8279804505	 1.2322820802	-0.1506740679	-0.412857
C	-0.0089215979	-0.05010046	-0.1265530946	 0.031108
C	 1.3994424704	-0.0646080629	-0.8110062712	-0.259301
C	 1.9959812514	-0.6998902946	 0.4622100391	 0.126642
O	 2.5748145163	 0.2842069564	 1.3483800346	-0.303605
C	 1.3803080649	 0.306859774	 2.1757093043	-0.045709
C	 0.9209980647	 1.6376012342	 2.5376782579	 0.320651
C	 0.5732028699	 2.7253668554	 2.9143140713	-0.434697
C	 0.6222859388	-0.6182667452	 1.1858758134	-0.135027
H	-0.2507412874	 2.0898284124	 0.1999215832	 0.136351
H	-1.1599181262	 1.4420823914	-1.1738553709	 0.109546
H	-1.7205454421	 1.1498979584	 0.4789175249	 0.11355
H	-0.6150513703	-0.8586576509	-0.5499626854	 0.079252
H	 1.4620207478	-0.6724047941	-1.7173632623	 0.097926
H	 1.8276770049	 0.9208047631	-1.010451781	 0.113945
H	 2.6128134351	-1.5981143961	 0.3787167015	 0.076512
H	 1.5775372857	-0.2425987176	 3.1088804767	 0.106285
H	 0.254099792	 3.6898885839	 3.224244919	 0.201001
H	 0.1096474423	-1.4610418081	 1.6485959775	 0.078428
47.043	132.6916	183.0928	236.3614	260.2666	328.6646	392.3241	409.8048	517.4304	578.6463	616.0331	633.7088	676.8479	713.5286	777.127	843.4779	866.8612	935.6673	936.9832	953.2689	988.6438	1008.9623	1063.862	1086.888	1121.757	1130.8356	1177.733	1199.0058	1215.4062	1242.5099	1272.3428	1297.3672	1311.3939	1336.1307	1362.3047	1381.6244	1415.0448	1470.2348	1493.573	1498.9338	2229.5207	2978.7365	3030.9771	3037.1469	3058.7706	3076.2298	3091.4255	3111.8667	3118.6559	3134.5176	3501.3221
CC1CC2OC(C#C)C12	C[C@H]1C[C@H]2O[C@@H](C#C)[C@@H]12	
InChI=1S/C8H10O/c1-3-6-8-5(2)4-7(8)9-6/h1,5-8H,4H2,2H3	InChI=1S/C8H10O/c1-3-6-8-5(2)4-7(8)9-6/h1,5-8H,4H2,2H3/t5-,6-,7+,8+/m0/s1
