18
gdb 78070	2.08266	1.6885	1.56632	2.4909	72.34	-0.2381	-0.021	0.2171	995.4284	0.145616	-439.032266	-439.023282	-439.022338	-439.065913	32.807	
C	-0.6182678929	 1.5440679368	 0.1978575837	-0.439471
C	-0.1240726161	 0.1120387216	 0.1518940346	 0.048462
C	 0.8304020433	-0.4169885703	-0.9654085671	 0.050324
O	 1.5676367863	 0.5076566805	-1.7376626056	-0.419742
C	 1.6683618986	-1.0115105538	 0.1574329118	-0.053725
C	 2.1697098313	 0.0438458115	 1.0625335339	-0.086499
C	 2.7618806344	 1.3602595004	 0.6340654857	 0.159245
O	 2.2794843432	 2.4580107058	 0.7320828822	-0.258945
N	 0.7842666055	-0.4062109881	 1.2500383956	-0.175473
H	 0.1828713279	 2.2725283256	 0.0886636922	 0.165408
H	-1.3671098764	 1.7004267798	-0.5882245238	 0.103663
H	-1.1097872848	 1.7279841193	 1.1589250336	 0.131481
H	-0.9881731764	-0.559686678	 0.1905395005	 0.090058
H	 0.3583633413	-1.1748956899	-1.6030790137	 0.081538
H	 0.9506938067	 1.0521442168	-2.2384569171	 0.29261
H	 2.0191274001	-2.0366408521	 0.2054737162	 0.101342
H	 2.7974042517	-0.3630963527	 1.8606677782	 0.122641
H	 3.8089139264	 1.2241808168	 0.2795685092	 0.087083
89.7167	122.8703	144.0004	186.5428	203.6561	238.5518	266.5485	326.8456	425.3379	553.2052	586.4876	658.3892	716.5655	768.2797	782.4447	821.6944	885.1261	919.5644	994.9035	1003.2903	1029.1236	1062.4272	1095.0722	1110.8646	1162.7325	1181.6597	1199.5901	1236.4931	1297.8809	1320.6161	1343.4033	1385.601	1406.8438	1418.6623	1419.1951	1430.2829	1488.4492	1501.2008	1829.0251	2874.2119	3019.1377	3031.4403	3050.8841	3076.0145	3093.6704	3172.8648	3173.9949	3812.717
CC1C(O)C2C(C=O)N12	C[C@H]1[C@@H](O)[C@H]2[C@@H](C=O)N12	
InChI=1S/C6H9NO2/c1-3-6(9)5-4(2-8)7(3)5/h2-6,9H,1H3	InChI=1S/C6H9NO2/c1-3-6(9)5-4(2-8)7(3)5/h2-6,9H,1H3/t3-,4+,5+,6+,7?/m0/s1
