18
gdb 56314	2.70708	0.89763	0.72281	3.8705	71.08	-0.2765	0.0036	0.2801	1544.9302	0.145127	-476.249127	-476.23913	-476.238186	-476.285824	33.959	
C	-0.6250243093	 1.2635512985	-0.3365907547	-0.4447
C	-0.1643877659	-0.1573132441	-0.1916019179	 0.416029
N	 1.0590236526	-0.4814655002	-0.227303549	-0.511933
O	-1.2471983548	-0.979181432	-0.0209488374	-0.247438
C	-1.0237731913	-2.3768239132	 0.088238322	-0.08973
C	-2.3846147614	-3.0438428583	 0.1694584408	-0.107963
O	-3.0864017074	-2.921937243	-1.0664638533	-0.178351
C	-3.9315041941	-1.875284213	-1.2046548389	 0.181318
O	-4.4925681962	-1.6398508689	-2.2301913714	-0.271556
H	 0.238328531	 1.9148650395	-0.4623820543	 0.152115
H	-1.2899311291	 1.3582604934	-1.2006286402	 0.1481
H	-1.1939952044	 1.5694478144	 0.5468765374	 0.138861
H	 1.2158514449	-1.4817275288	-0.1154280343	 0.218099
H	-0.477142044	-2.7491562215	-0.7874003129	 0.132471
H	-0.4434869225	-2.6098687	 0.9920177311	 0.117555
H	-2.2645057453	-4.1138513191	 0.356098643	 0.134089
H	-2.9679623622	-2.6081561439	 0.9898133989	 0.126563
H	-4.0478474306	-1.2923087799	-0.2727350487	 0.08647
42.4151	53.5655	87.4613	140.9974	156.8307	178.0196	197.2884	297.4094	380.4598	411.8951	498.477	556.6059	610.3856	636.3134	831.4425	869.2568	923.5396	960.7087	1011.6298	1036.4247	1059.488	1076.3212	1093.1293	1122.9551	1135.5761	1183.1907	1267.2829	1307.2029	1326.5599	1396.2889	1405.336	1422.8193	1434.1626	1474.0135	1477.663	1490.2952	1504.6523	1743.5333	1872.1034	2974.3535	3008.0485	3036.7335	3051.8799	3062.3352	3110.5114	3111.1343	3172.0144	3502.6363
CC(=N)OCCOC=O	C[C]([NH])OCCOC=O	
InChI=1S/C5H9NO3/c1-5(6)9-3-2-8-4-7/h4,6H,2-3H2,1H3	InChI=1S/C5H9NO3/c1-5(6)9-3-2-8-4-7/h4,6H,2-3H2,1H3
