17
gdb 108018	3.8263	1.52233	1.38319	2.2409	69.73	-0.2541	0.0774	0.3315	954.0146	0.136736	-421.73714	-421.730343	-421.729399	-421.768286	27.82	
O	 0.0101654907	 1.4033658062	 0.0600093212	-0.419351
C	-0.017567084	-0.0075224755	-0.0315865909	-0.191842
C	-1.4170494795	-0.532616719	 0.0816802881	 0.436346
O	-2.3289962321	 0.0753800785	-0.8812972655	-0.345388
C	-3.3794854982	-0.350931718	 0.0177872756	 0.071154
C	-3.3035687635	-1.8997541436	 0.1252565112	-0.095476
C	-2.5757798243	-1.8669940466	 1.4497029779	-0.111169
C	-1.7812870725	-2.0393966368	 0.1742973765	-0.151497
C	-2.432561869	-0.3266457525	 1.2565928437	-0.157224
H	-0.7049543229	 1.7162350066	-0.5076760205	 0.290805
H	 0.4205003298	-0.3635470229	-0.9799237863	 0.096661
H	 0.5956054143	-0.4034932254	 0.784986402	 0.116071
H	-4.3254994706	 0.1711265265	-0.1132552379	 0.083533
H	-3.9510415376	-2.6583097066	-0.291973443	 0.096544
H	-2.6608359311	-2.4954823784	 2.3233142705	 0.096821
H	-1.2542588706	-2.9033387251	-0.2072139969	 0.09404
H	-2.3704649188	 0.4648995024	 1.9977538644	 0.089972
112.0462	162.406	266.9122	375.1205	443.4362	554.2064	575.7056	661.9994	744.7004	776.8097	800.0473	816.5379	829.4663	846.7353	857.1404	867.353	896.478	940.1975	984.2326	999.4095	1030.2737	1041.9772	1054.7542	1065.0188	1095.9809	1113.292	1168.8151	1181.6028	1218.7425	1229.1695	1257.8839	1282.9214	1308.0436	1367.9923	1374.4313	1448.9464	1492.6792	2962.3818	3073.3192	3138.9184	3164.5538	3205.2901	3213.6007	3233.1817	3785.4321
OCC12OC3C4C(C14)C23	OC[C@@]12O[C@H]3[C@@H]4[C@@H]([C@H]14)[C@@H]23	
InChI=1S/C7H8O2/c8-1-7-4-2-3(4)6(9-7)5(2)7/h2-6,8H,1H2	InChI=1S/C7H8O2/c8-1-7-4-2-3(4)6(9-7)5(2)7/h2-6,8H,1H2/t2-,3+,4-,5+,6-,7+/m0/s1
