20
gdb 66231	4.471	0.62475	0.6082	3.386	80.17	-0.2694	0.0333	0.3027	1839.1552	0.169501	-403.152508	-403.142626	-403.141682	-403.188182	35.938	
O	-0.3738877335	 1.3526871229	-0.219143105	-0.470166
C	-0.0860399931	-0.0126386341	-0.0425645889	 0.417797
C	 1.0626526507	-0.5236154577	-0.8922413709	-0.249659
C	 2.398713449	 0.1518617309	-0.5618782865	-0.190125
C	 3.5461194312	-0.3709108304	-1.4480532253	-0.341771
C	 4.8253879118	 0.2673689459	-1.1450615667	 0.255634
N	 5.8272523935	 0.7832530506	-0.8890097203	-0.303887
C	-0.3421974707	-0.6053017753	 1.3222158593	-0.321836
C	-1.2937943426	-0.8719544473	 0.1700628779	-0.303086
H	 0.2528149865	 1.8630665087	 0.3043359125	 0.285499
H	 1.1533576897	-1.6083944731	-0.7564374062	 0.097648
H	 0.8172548169	-0.353186199	-1.9486799003	 0.109365
H	 2.3106908885	 1.2342985361	-0.704212425	 0.118363
H	 2.6539748259	-0.013219343	 0.4909621901	 0.121033
H	 3.660668161	-1.4541148722	-1.3223094666	 0.151622
H	 3.3148848771	-0.2017024286	-2.506292858	 0.154578
H	 0.2915346863	-1.4149670432	 1.6689193401	 0.111819
H	-0.6841851625	 0.0698043735	 2.0987563403	 0.11694
H	-2.2491477689	-0.3611187769	 0.1876293593	 0.127089
H	-1.3109178867	-1.8632418979	-0.2696784397	 0.11314
50.0975	83.4317	91.2693	128.1494	212.9045	265.2528	294.9722	347.5128	365.124	399.6637	430.6264	486.7088	572.187	729.2404	750.4806	778.8233	840.8389	908.6491	921.6915	928.0518	962.1035	981.4029	1037.1453	1047.6825	1056.6192	1080.1677	1088.4436	1165.7651	1189.6419	1258.3966	1262.5989	1302.4198	1313.1778	1326.6027	1353.0369	1373.3027	1404.2975	1454.5946	1467.8526	1475.2642	1499.4093	1505.178	2362.4093	3018.3609	3035.4584	3046.1556	3056.3752	3070.786	3095.1998	3130.6026	3139.5438	3216.6334	3233.6841	3806.4174
OC1(CCCC#N)CC1	OC1(CCCC#N)CC1	
InChI=1S/C7H11NO/c8-6-2-1-3-7(9)4-5-7/h9H,1-5H2	InChI=1S/C7H11NO/c8-6-2-1-3-7(9)4-5-7/h9H,1-5H2
