16
gdb 44461	4.2268	1.43652	1.30878	4.305	69.73	-0.2482	0.0274	0.2756	965.7846	0.125745	-437.841242	-437.834625	-437.833681	-437.872128	27.181	
O	 0.0226311418	 0.0020304874	 0.1760143198	-0.359734
C	-0.0042224885	 1.2035220236	 0.08492199	 0.413738
C	-1.2870831381	 2.1019223747	 0.116766558	-0.47859
C	-0.6516392724	 3.437383554	 0.3384475758	 0.403025
C	-0.6478948255	 4.9809907874	 0.2576005516	-0.313216
C	 0.7055391816	 4.4795958639	 0.8782322769	 0.009887
O	-0.0556903279	 3.5552805183	 1.7075542266	-0.328988
C	 0.771186426	 3.4034031892	-0.2620106805	 0.007334
N	 1.1001069236	 2.0245758219	-0.0893327286	-0.313228
H	-1.8060887524	 2.020140637	-0.8434174989	 0.136704
H	-1.9551976621	 1.7766930567	 0.9148050106	 0.150859
H	-0.6408922662	 5.4411299414	-0.7339404069	 0.105303
H	-1.2943359446	 5.4954937586	 0.9675034681	 0.123154
H	 1.4930701434	 5.0655018905	 1.3534980039	 0.102921
H	 0.9262811025	 3.7856584305	-1.2759823949	 0.087396
H	 2.0130212388	 1.611299195	-0.1910073513	 0.253434
100.3726	294.4118	358.6179	373.5579	454.7903	484.0565	515.9849	592.2493	608.4936	706.3102	742.7026	774.7808	798.0077	826.1233	882.6742	899.6623	957.9704	976.587	1019.4148	1049.4958	1083.8237	1109.9375	1146.2501	1169.7711	1184.6094	1193.428	1224.4079	1241.2338	1260.1912	1342.394	1375.6933	1408.2722	1451.4133	1489.7366	1844.3526	3049.8344	3069.3022	3071.3537	3114.2393	3141.0603	3162.0858	3646.1545
O=C1CC23CC(O2)C3N1	O=C1C[C@@]23C[C@@H](O2)[C@H]3N1	
InChI=1S/C6H7NO2/c8-4-2-6-1-3(9-6)5(6)7-4/h3,5H,1-2H2,(H,7,8)	InChI=1S/C6H7NO2/c8-4-2-6-1-3(9-6)5(6)7-4/h3,5H,1-2H2,(H,7,8)/t3-,5-,6-/m1/s1
