20
gdb 85255	2.55148	1.49964	1.1482	3.7305	79.76	-0.2378	0.0347	0.2725	1142.9482	0.172398	-403.196084	-403.187569	-403.186625	-403.229286	32.998	
C	 0.6047642974	 1.4594369541	-0.1232320612	-0.388177
C	-0.089754125	 0.1014188644	 0.0258958488	 0.032896
C	 0.1751977779	-0.8638611792	-1.165382392	-0.332278
C	 1.2866019494	-1.7750250054	-0.6672157278	 0.245152
C	 1.6643638174	-3.0939747018	-1.2875057363	-0.30851
C	 2.6308446916	-1.9487837942	-1.3482214261	-0.299935
C	 1.3042477475	-1.6620400364	 0.8335816381	 0.373995
O	 1.9717549713	-2.3149698531	 1.6101256079	-0.400901
N	 0.420927285	-0.6655788173	 1.158274299	-0.327447
H	 1.6762969543	 1.3296252378	-0.3067615497	 0.128438
H	 0.1750067086	 2.0207501852	-0.959542556	 0.118953
H	 0.4861770781	 2.0640082241	 0.7822765088	 0.11439
H	-1.1664368568	 0.2656851799	 0.1488452645	 0.084746
H	-0.7285687399	-1.4442206235	-1.3782337206	 0.112018
H	 0.4366082663	-0.3127479697	-2.0725150861	 0.106469
H	 1.885724985	-3.8996525332	-0.5959328785	 0.137566
H	 1.1479725022	-3.384367794	-2.1964208004	 0.111018
H	 2.7756377834	-1.4423142991	-2.2967953005	 0.111246
H	 3.5016822132	-1.9899527484	-0.7034121691	 0.134652
H	 0.3889916532	-0.3187238801	 2.1046722673	 0.24571
64.4435	107.6891	235.1538	244.4762	258.8428	307.7646	358.0598	427.5075	471.5687	514.4925	583.9927	690.2573	734.1525	753.1025	790.3537	825.7161	858.9368	913.8952	944.5138	962.7927	992.265	1004.5826	1048.253	1064.6648	1087.9807	1123.7198	1138.9709	1187.8875	1201.4953	1229.0189	1284.129	1313.1548	1325.4486	1379.7714	1401.3176	1410.1216	1433.058	1452.6512	1489.6169	1490.6922	1495.4178	1500.2985	1817.5284	3028.685	3030.6485	3049.2092	3094.0542	3101.98	3110.4405	3129.7143	3131.893	3216.5474	3230.6288	3630.3995
CC1CC2(CC2)C(=O)N1	C[C@H]1CC2(CC2)C(=O)N1	
InChI=1S/C7H11NO/c1-5-4-7(2-3-7)6(9)8-5/h5H,2-4H2,1H3,(H,8,9)	InChI=1S/C7H11NO/c1-5-4-7(2-3-7)6(9)8-5/h5H,2-4H2,1H3,(H,8,9)/t5-/m0/s1
