21
gdb 108875	2.35161	1.19891	0.83558	3.1808	81.51	-0.2312	0.021	0.2522	1394.5077	0.182981	-424.237697	-424.22833	-424.227386	-424.271874	35.361	
O	 0.0966672081	 1.4351531906	-0.0325473633	-0.412551
C	 0.0213481255	 0.0258630828	 0.053233745	-0.147969
C	-1.4101274863	-0.4391899077	 0.0594835714	 0.266441
C	-2.4388417841	 0.4088881504	 0.1127628425	-0.183754
C	-3.8873247766	-0.0088466274	 0.0875167179	 0.103328
O	-4.6675707152	 0.8831186598	-0.7093673932	-0.437298
C	-4.0469526592	-1.4661510156	-0.3616927786	-0.215388
C	-3.0294143846	-2.364944375	 0.3478543806	-0.218473
C	-1.5948056544	-1.93917062	 0.0035196397	-0.284347
H	 1.018200568	 1.6913141368	 0.0595114531	 0.289876
H	 0.5449032925	-0.4553261597	-0.7932358723	 0.091033
H	 0.517464604	-0.3467477999	 0.9675512105	 0.094361
H	-2.2529335682	 1.4769620447	 0.1655842589	 0.108486
H	-4.3138408476	 0.1035363053	 1.0946025246	 0.091541
H	-4.2493385589	 0.9263643571	-1.5767058324	 0.272757
H	-5.0736221501	-1.7987948561	-0.1802269391	 0.098187
H	-3.8830953987	-1.5134551884	-1.4476804411	 0.08365
H	-3.1779939494	-2.2931709351	 1.4331373111	 0.102051
H	-3.185636644	-3.4151146116	 0.0795504209	 0.093986
H	-1.3291857744	-2.2972620214	-1.0030853386	 0.106348
H	-0.8807598465	-2.4269857496	 0.6812615927	 0.097734
76.9429	124.2621	144.516	204.1816	224.7685	262.1899	306.7913	360.8186	396.8897	427.7241	459.0851	494.4263	574.3664	631.1581	786.2654	841.6661	883.687	902.8378	929.0697	967.0943	1026.0858	1034.1119	1062.3942	1072.3336	1095.4843	1136.5206	1150.2935	1175.7261	1210.6443	1231.4433	1252.4211	1271.2851	1283.1261	1322.4587	1349.3259	1371.8353	1377.3957	1392.472	1420.3697	1460.6936	1476.4717	1488.5571	1497.1011	1507.8076	1739.0264	2933.0032	2946.9492	2990.9009	3000.9036	3012.7391	3018.7192	3032.9599	3071.7183	3080.5654	3188.2443	3795.6798	3843.0471
OCC1=CC(O)CCC1	OCC1=C[C@@H](O)CCC1	
InChI=1S/C7H12O2/c8-5-6-2-1-3-7(9)4-6/h4,7-9H,1-3,5H2	InChI=1S/C7H12O2/c8-5-6-2-1-3-7(9)4-6/h4,7-9H,1-3,5H2/t7-/m0/s1
