13
gdb 130768	3.50757	1.72165	1.16312	5.8184	65.68	-0.2411	-0.0341	0.207	954.4994	0.091179	-452.769315	-452.762929	-452.761985	-452.800227	24.526	
O	 0.0117187913	-0.0553915771	 0.002156439	-0.393532
C	 0.0106578842	 1.1412780635	 0.0087520205	 0.512311
O	-1.1079908775	 1.9493842311	 0.0296762993	-0.248934
N	-0.7491685695	 3.3356728686	 0.0320379732	-0.233042
C	 0.5372202693	 3.316107784	 0.012982462	 0.44602
C	 1.669558801	 4.3071524343	 0.0017119319	-0.404653
C	 2.8676329797	 3.3624513905	-0.0211799109	-0.137878
C	 2.4651665565	 2.0866239611	-0.0221901427	-0.013344
N	 1.0587751379	 2.0471046552	-0.0016465268	-0.155856
H	 1.6292457719	 4.9638259479	-0.8745031648	 0.165057
H	 1.6552545276	 4.954129417	 0.885916151	 0.165058
H	 3.8935097082	 3.6975505046	-0.0345052326	 0.131098
H	 3.0269328694	 1.1657631092	-0.0355195791	 0.167694
141.8428	172.3639	305.7637	338.1043	450.1954	578.2132	646.9923	659.9978	667.5989	725.0095	748.1327	795.8109	879.2282	893.9562	921.6151	938.7287	954.7795	1060.3139	1089.0161	1154.5792	1176.4872	1265.976	1291.3284	1399.1369	1421.1444	1451.8613	1647.714	1691.6916	1894.635	3049.2712	3080.047	3253.3664	3277.8887
O=C1ON=C2CC=CN12	O=c1onc2CC=Cn12	
InChI=1S/C5H4N2O2/c8-5-7-3-1-2-4(7)6-9-5/h1,3H,2H2	InChI=1S/C5H4N2O2/c8-5-7-3-1-2-4(7)6-9-5/h1,3H,2H2
