15
gdb 80608	3.06934	1.49047	1.28711	1.3697	60.5	-0.2632	-0.0365	0.2267	972.9289	0.112671	-494.872405	-494.865062	-494.864118	-494.904208	28.467	
O	 0.0188895266	 1.4042473677	-0.0587224054	-0.440827
C	 0.0497029365	-0.0067966315	 0.0144972574	 0.090815
C	-1.3586326152	-0.606420455	-0.1569385703	-0.105022
O	-1.6038821332	-0.2753073973	-1.5664050584	-0.307376
C	-0.5509137872	-1.2564599243	-1.8901044199	-0.086154
C	 0.7231065438	-0.6265534674	-1.2844989152	 0.110962
O	 1.3104025619	 0.3402610274	-2.1055216447	-0.442694
C	-1.0958091501	-2.0397334753	-0.6762401848	 0.449627
O	-1.3449878207	-3.1584982591	-0.3636105081	-0.30005
H	-0.6497520452	 1.6189741044	-0.7263079621	 0.298708
H	 0.5533457085	-0.2760158856	 0.9437419665	 0.110388
H	-2.1527216787	-0.3134685385	 0.527260276	 0.116219
H	-0.5484648417	-1.5953294303	-2.9230203161	 0.119827
H	 1.4544761983	-1.404700614	-1.0279068107	 0.093551
H	 1.2565097662	 1.174973349	-1.6169843143	 0.292026
121.1599	138.6585	281.7788	300.2941	319.2481	350.998	526.2389	532.3972	553.5188	672.4713	702.382	744.1092	801.4861	813.824	854.6579	876.1518	927.8956	958.578	1042.3018	1053.8405	1089.186	1108.6737	1157.0106	1182.6094	1214.6451	1223.7358	1252.1086	1290.0482	1307.1999	1379.3214	1412.5924	1435.1652	1932.0889	3016.564	3114.8453	3153.1027	3169.9697	3711.539	3734.6206
OC1C2OC(C1O)C2=O	O[C@H]1[C@H]2O[C@@H]([C@H]1O)C2=O	
InChI=1S/C5H6O4/c6-1-2(7)5-3(8)4(1)9-5/h1-2,4-7H	InChI=1S/C5H6O4/c6-1-2(7)5-3(8)4(1)9-5/h1-2,4-7H/t1-,2+,4-,5+
