20
gdb 77917	2.17819	1.47185	1.46226	2.1892	80.97	-0.2384	0.0082	0.2466	1096.437	0.168557	-403.103679	-403.094222	-403.093278	-403.137296	35.322	
C	-0.0655649114	 1.5605844793	-0.0164735798	-0.436553
C	-0.0264529706	 0.040677496	-0.0035089309	-0.006553
C	 1.188120082	-0.691858654	-0.6507211067	-0.156489
N	 2.0015411861	-0.2261955962	 0.5462838837	-0.121109
C	 3.2356604687	-0.9426222728	 0.8757145691	-0.34731
C	 0.6859733032	-0.6880973537	 1.1886147303	 0.198175
C	 0.4160867532	-0.603849102	 2.6587241474	-0.529172
C	 0.8285890023	-1.9059860283	 0.2375550273	 0.390328
O	 0.901842694	-3.0966595827	 0.2658403259	-0.33072
H	 0.9082872801	 1.9832595645	 0.2331504628	 0.139092
H	-0.3634060112	 1.9264278629	-1.0046381257	 0.117684
H	-0.8031773837	 1.9302640657	 0.7041575194	 0.116179
H	-0.9949749354	-0.394754785	-0.2665951138	 0.081769
H	 1.571810161	-0.6254554396	-1.6675137482	 0.093277
H	 4.0084803912	-0.6414101692	 0.1620027847	 0.128346
H	 3.5620638955	-0.6298182591	 1.8721856813	 0.127161
H	 3.1566259622	-2.0404076252	 0.8614368025	 0.128752
H	 0.4691534339	 0.4311546319	 3.0108792471	 0.1342
H	-0.582684443	-0.992459203	 2.8803797257	 0.136901
H	 1.138000322	-1.1998613496	 3.2259837278	 0.136041
130.1858	154.4558	181.6239	190.8602	202.8146	208.2421	231.2965	245.1149	382.9157	404.2124	525.1138	554.8342	671.0188	692.5652	715.5212	752.2171	792.8895	824.126	849.1645	999.7324	1020.301	1035.7243	1077.0596	1097.9153	1124.3371	1151.8029	1169.0321	1180.5243	1191.4971	1218.0724	1232.9599	1342.2385	1393.9101	1403.6267	1419.5318	1447.6221	1481.1732	1486.1321	1493.8301	1495.3292	1502.3846	1506.0299	1889.8674	2988.6189	3037.2548	3038.5348	3069.712	3077.5113	3093.7079	3107.2005	3109.2524	3111.452	3138.8357	3146.3031
CC1C2N(C)C1(C)C2=O	C[C@H]1[C@H]2N(C)[C@]1(C)C2=O	
InChI=1S/C7H11NO/c1-4-5-6(9)7(4,2)8(5)3/h4-5H,1-3H3	InChI=1S/C7H11NO/c1-4-5-6(9)7(4,2)8(5)3/h4-5H,1-3H3/t4-,5+,7-/m0/s1
