14
gdb 131949	2.68885	1.66754	1.03577	2.2864	69.65	-0.2746	-0.0932	0.1814	1062.3351	0.101721	-469.949382	-469.94163	-469.940686	-469.98227	27.589	
C	-0.0280559109	 1.5835879834	 0.1173080805	-0.500234
C	-0.0224728079	 0.09359682	 0.019651017	 0.129773
C	 0.0348047723	-0.7102001791	-1.1099486692	 0.405806
N	 0.0157228211	-2.006313397	-0.7123677871	-0.243787
N	-0.0511322321	-2.1185087787	 0.6113026946	-0.204833
C	-0.0743923222	-0.8578624616	 1.0593685666	-0.056673
N	 0.1044535152	-0.3926725069	-2.4975164694	 0.361942
O	 0.1444475914	-1.3413219534	-3.2822054533	-0.388964
O	 0.1198285416	 0.7929367785	-2.8093798416	-0.368269
H	 0.8716410343	 2.0140167251	-0.3318387639	 0.153067
H	-0.8793526086	 2.0131775256	-0.4186083027	 0.153042
H	-0.0799883264	 1.8956279976	 1.1630304235	 0.128839
H	 0.0465209783	-2.810565125	-1.3194365886	 0.299471
H	-0.1280159659	-0.6687659086	 2.1215411534	 0.130819
84.5696	98.8166	189.352	199.4149	274.8307	322.5665	448.599	545.409	568.6332	640.5998	682.5813	711.0738	789.0638	841.5487	884.9475	951.788	1009.5192	1064.1764	1140.5139	1175.0768	1247.2627	1294.4294	1358.828	1390.0062	1420.9918	1435.9678	1477.162	1480.6013	1505.1706	1597.025	1627.4389	3048.6196	3107.962	3128.7456	3248.9156	3658.0866
CC1=C(NN=C1)N(=O)=O	Cc1c([nH]nc1)N(=O)=O	
InChI=1S/C4H5N3O2/c1-3-2-5-6-4(3)7(8)9/h2H,1H3,(H,5,6)	InChI=1S/C4H5N3O2/c1-3-2-5-6-4(3)7(8)9/h2H,1H3,(H,5,6)
