20
gdb 103348	2.88712	1.43463	1.15315	2.276	76.13	-0.2378	0.0656	0.3034	1123.8197	0.169261	-440.187571	-440.178404	-440.17746	-440.221079	34.843	
C	 0.8027861146	 0.007788604	 0.4666304742	-0.240682
O	-0.3949129279	 0.6519963864	 0.0975103808	-0.282348
C	-1.5346108988	-0.1763944728	 0.0130996734	 0.483446
C	-2.2510958032	-0.1200324796	 1.3536939225	-0.483826
C	-2.2838047949	 0.0060188312	-1.3462736238	-0.1505
N	-1.0677940612	-0.6324830282	-1.9979754948	-0.314365
C	-1.3876659581	-1.5165807192	-0.8034174887	-0.138423
C	-2.8782300067	-1.4396055724	-1.2190709673	 0.115003
O	-3.8855235513	-1.824975032	-0.319568762	-0.426242
H	 1.5468774858	 0.7912804238	 0.6326282708	 0.120802
H	 0.69977854	-0.5720296279	 1.3966723495	 0.096185
H	 1.1633120913	-0.6572338525	-0.3295876926	 0.116334
H	-3.1690931445	-0.7009383811	 1.3759433401	 0.145139
H	-1.5819621396	-0.4897019017	 2.1385265136	 0.113662
H	-2.4728560678	 0.9264650205	 1.5852729258	 0.119827
H	-2.7383957518	 0.9142273585	-1.746078829	 0.07922
H	-1.3600548641	-1.1145918554	-2.8551011996	 0.205424
H	-0.8004655906	-2.4060449837	-0.5696168567	 0.081728
H	-3.0508650892	-1.8959557259	-2.2039893961	 0.071544
H	-4.7378017018	-1.6321877124	-0.7234060603	 0.288073
87.7913	139.0073	184.325	194.3281	225.9147	271.0521	292.869	357.4179	382.4534	423.9054	478.7592	580.1411	648.7831	656.2571	791.8536	825.9544	870.7886	878.7366	914.0011	938.8164	1046.8539	1087.7551	1093.5714	1114.4306	1123.3058	1145.9186	1153.2149	1166.8221	1175.4859	1202.3918	1231.559	1240.9668	1256.6448	1289.8193	1301.1601	1335.7395	1408.9948	1452.8194	1478.7447	1486.4305	1493.0683	1503.4532	1511.5067	2981.4925	2998.8008	3040.7466	3044.3837	3098.4845	3101.0727	3106.4778	3108.2541	3187.3396	3370.1183	3816.1345
COC1(C)C2NC1C2O	CO[C@@]1(C)[C@H]2N[C@@H]1[C@H]2O	
InChI=1S/C6H11NO2/c1-6(9-2)4-3(8)5(6)7-4/h3-5,7-8H,1-2H3	InChI=1S/C6H11NO2/c1-6(9-2)4-3(8)5(6)7-4/h3-5,7-8H,1-2H3/t3-,4-,5+,6-
