17
gdb 96823	3.00364	1.11684	0.93573	2.8862	76.62	-0.2681	-0.0097	0.2584	1284.5301	0.134635	-418.015061	-418.005666	-418.004721	-418.049957	32.579	
C	-0.3020969867	 1.428401389	-0.0898596596	-0.343605
N	-0.2922232272	-0.0235720329	-0.2051680204	-0.319804
C	 0.5535131304	-0.5892077153	-0.9214905275	 0.479291
O	 1.5830040025	-0.0563141574	-1.7082695185	-0.270354
C	 2.0201628215	-1.3841179545	-2.1063206602	-0.024908
C	 3.393663767	-1.6602094878	-1.6942364327	 0.293747
N	 4.477343653	-1.9028277157	-1.3754424802	-0.315895
C	 0.8738360787	-2.0316316147	-1.2621416513	-0.177594
C	 1.217592532	-2.9624519581	-0.1079852153	-0.412592
H	 0.5103594463	 1.9259380801	-0.6311059605	 0.132334
H	-1.2594158695	 1.8079908957	-0.4625736948	 0.134666
H	-0.2403783542	 1.698843599	 0.9691283122	 0.136022
H	 1.9306497799	-1.5130937279	-3.188379565	 0.140307
H	 0.1153792147	-2.4787379417	-1.9103348936	 0.121714
H	 2.0023453149	-2.5413652434	 0.5256786765	 0.146101
H	 0.3280514599	-3.1174260876	 0.5079290778	 0.147094
H	 1.5575752767	-3.9345964066	-0.4761350067	 0.133476
61.9585	84.771	135.5301	149.8619	179.6069	215.5958	252.0436	287.6757	377.8177	488.5415	531.3788	602.026	660.4582	746.9269	793.9885	856.4832	943.8855	1001.9601	1032.0386	1068.446	1085.019	1116.9337	1133.8315	1148.3195	1185.7952	1224.2008	1280.6384	1341.5658	1366.5427	1417.0395	1441.3395	1492.2275	1493.0719	1495.9825	1498.0317	1867.5525	2361.3588	3023.4304	3050.1409	3073.9778	3084.9272	3091.9748	3096.7029	3124.7031	3131.6951
CN=C1OC(C#N)C1C	CN=C1O[C@@H](C#N)[C@H]1C	
InChI=1S/C6H8N2O/c1-4-5(3-7)9-6(4)8-2/h4-5H,1-2H3	InChI=1S/C6H8N2O/c1-4-5(3-7)9-6(4)8-2/h4-5H,1-2H3/t4-,5+/m1/s1
