18
gdb 57819	3.16024	0.65085	0.57304	2.5938	79.46	-0.2671	0.0106	0.2776	1912.2502	0.144707	-439.04264	-439.03201	-439.031066	-439.081045	35.977	
C	 0.2040108884	-0.369699956	-0.9046763206	-0.387813
C	-0.2068612229	-0.10677716	 0.5516336848	-0.019676
O	-0.2431213675	 1.2856457639	 0.8476012883	-0.410465
C	-1.4782477405	-0.7651316197	 0.8744924608	 0.076599
C	-2.5457321705	-1.269331181	 1.1156165112	 0.050018
C	-3.835054268	-1.8859231703	 1.4065307815	-0.243093
O	-4.6675798219	-2.0368856692	 0.251394532	-0.169773
C	-4.3138761635	-3.0185839654	-0.606719014	 0.136432
N	-4.9609305836	-3.1766814004	-1.6770625661	-0.43502
H	 1.1481924286	 0.1409003763	-1.1099148494	 0.129689
H	 0.3276631407	-1.4407621253	-1.0889885367	 0.12523
H	-0.5591745331	 0.0080059373	-1.5925732552	 0.124552
H	 0.5713914616	-0.5050901602	 1.2138982045	 0.122353
H	-0.9911032246	 1.6639539316	 0.3714659262	 0.285594
H	-3.6900584198	-2.85858134	 1.8971919633	 0.137314
H	-4.4145369694	-1.2596658432	 2.09046466	 0.15657
H	-3.4583848859	-3.6158408586	-0.2632046198	 0.090893
H	-4.583670428	-3.9654129999	-2.1982607111	 0.230595
15.7488	43.1989	78.4694	114.9634	117.1186	229.5893	259.0854	277.9381	323.8796	337.9207	359.6164	462.0736	557.7001	573.9584	666.5119	738.1735	819.0974	895.3586	949.5872	1013.8492	1026.7748	1040.0866	1064.3658	1098.2953	1119.8533	1171.6869	1242.0132	1285.1293	1317.7976	1335.0237	1391.3641	1399.5795	1418.0042	1427.0744	1482.0595	1487.7503	1491.9066	1749.7525	2356.359	3010.8551	3029.1079	3039.0844	3042.5749	3091.8695	3116.633	3130.1188	3518.4462	3801.5274
CC(O)C#CCOC=N	C[C@@H](O)C#CCO[CH][NH]	
InChI=1S/C6H9NO2/c1-6(8)3-2-4-9-5-7/h5-8H,4H2,1H3	InChI=1S/C6H9NO2/c1-6(8)3-2-4-9-5-7/h5-8H,4H2,1H3/t6-/m1/s1
