16
gdb 46703	3.06895	1.81528	1.39852	4.487	67.28	-0.2377	0.0092	0.2469	915.1071	0.127307	-437.876591	-437.869914	-437.86897	-437.907693	26.564	
O	 0.0709280825	-0.0805823761	-0.0823522264	-0.378508
C	-0.0213836447	 1.1316717602	-0.0333733183	 0.423364
N	-1.198506595	 1.8060659461	-0.1655867648	-0.322604
C	-1.3735397222	 3.2462841726	-0.0175536981	-0.17674
C	-0.1169418593	 4.025710494	-0.3974847024	-0.078624
C	 1.073851497	 4.0605615795	 0.5178143935	 0.089837
O	 1.100573061	 2.8824119167	 1.3252996063	-0.298676
C	 1.1831836877	 2.0519286902	 0.1231135616	-0.022517
C	 1.1567675676	 3.2944502443	-0.7739032021	-0.160474
H	-2.0210684841	 1.2250541669	-0.228354332	 0.249956
H	-2.1984734875	 3.5493841261	-0.6704213702	 0.115389
H	-1.6613811442	 3.4991123648	 1.0120289074	 0.124941
H	-0.2845590699	 4.9420908232	-0.9551162553	 0.103201
H	 1.5661141766	 4.949245266	 0.8936792621	 0.110705
H	 2.1011932238	 1.4635558694	 0.1175891309	 0.109757
H	 1.7148742606	 3.4479363562	-1.686326512	 0.110993
117.5035	162.4142	285.035	419.8455	436.2446	483.8163	540.4084	610.5891	703.3302	742.0543	752.5591	803.8433	849.3192	887.9808	911.9375	957.1699	981.1812	1009.7085	1026.8192	1047.3428	1071.7416	1096.3877	1102.1965	1157.0994	1240.0104	1265.7499	1279.6453	1286.5861	1315.8761	1343.3402	1387.4789	1428.5048	1482.169	1518.7006	1800.3875	3007.4419	3063.7417	3116.3797	3162.2013	3189.6821	3216.5715	3620.119
O=C1NCC2C3OC1C23	O=C1NC[C@H]2[C@H]3O[C@@H]1[C@@H]23	
InChI=1S/C6H7NO2/c8-6-5-3-2(1-7-6)4(3)9-5/h2-5H,1H2,(H,7,8)	InChI=1S/C6H7NO2/c8-6-5-3-2(1-7-6)4(3)9-5/h2-5H,1H2,(H,7,8)/t2-,3+,4-,5-/m1/s1
