19
gdb 37822	2.94844	1.87201	1.69344	1.574	78.81	-0.242	0.0845	0.3265	897.4914	0.161498	-385.794083	-385.787333	-385.786389	-385.825421	27.761	
C	-0.0963269278	 1.6056208794	 0.0647031291	-0.311356
C	 1.4120744454	 1.2963210117	 0.0126757888	-0.101059
C	 1.2567520367	-0.0164866197	 0.8790154948	-0.101065
C	 2.024553186	-0.8776319334	-0.1420428715	-0.311362
C	 1.2113082499	 0.1121004932	-1.0016179046	 0.268548
C	 0.5914288213	-0.0737202147	-2.3612920794	-0.188146
O	-0.6257575721	-0.8203108857	-2.1187493226	-0.283342
C	-0.9512753457	-0.9031916968	-0.7098797825	-0.18816
C	-0.0179326491	 0.0683259774	-0.037207269	 0.268566
H	-0.4855281104	 2.019088866	 1.0003063765	 0.09283
H	-0.517378009	 2.1398224492	-0.7929210018	 0.101191
H	 2.2603259623	 1.9825790965	 0.04894534	 0.073165
H	 1.2698259822	-0.0609449165	 1.9697252018	 0.073165
H	 3.113468259	-0.7697076459	-0.1621192765	 0.092832
H	 1.7446262741	-1.9341674388	-0.201613093	 0.101185
H	 0.3418793896	 0.8828773279	-2.8406343864	 0.099722
H	 1.2126175355	-0.6535453322	-3.0522081579	 0.106786
H	-2.0100968713	-0.6496807286	-0.5913176533	 0.106795
H	-0.8018160466	-1.9346223988	-0.3621040923	 0.099706
54.8824	254.0361	287.2831	387.9361	418.2703	490.0884	554.7309	713.9299	735.9835	769.7018	801.8699	859.825	869.0111	879.8638	904.0871	914.1473	935.7781	939.8669	1004.9546	1017.2871	1020.1507	1075.8076	1096.9468	1118.3962	1125.5102	1155.7022	1157.9522	1178.5145	1205.257	1213.9139	1230.6999	1242.8637	1290.542	1296.0199	1306.037	1343.936	1374.909	1503.5272	1508.7863	1518.6154	1522.9905	3004.1968	3009.1739	3041.1306	3042.9878	3063.9553	3064.6514	3088.1204	3097.6693	3097.764	3099.309
C1C2C3CC22COCC132	C1[C@H]2[C@@H]3C[C@@]42COC[C@@]134	
InChI=1S/C8H10O/c1-5-6-2-8(5)4-9-3-7(1,6)8/h5-6H,1-4H2	InChI=1S/C8H10O/c1-5-6-2-8(5)4-9-3-7(1,6)8/h5-6H,1-4H2/t5-,6-,7-,8-/m0/s1
