22
gdb 11617	5.05835	0.83612	0.75884	1.684	79.18	-0.2619	0.0848	0.3468	1555.373	0.198549	-350.193682	-350.184013	-350.183069	-350.228843	34.824	
C	-0.2470812369	 1.5662005338	 0.0586638999	-0.381449
C	 0.0281084263	 0.0568376549	-0.0016444866	 0.039975
C	-1.2852655601	-0.7332382735	 0.0789121143	-0.38904
C	 0.8217881534	-0.3489419044	-1.2563014907	-0.159897
C	 2.24247216	 0.2279210663	-1.3414961987	-0.233742
C	 2.992023959	-0.2901914759	-2.5445445221	 0.102865
C	 4.4282246514	-0.5904089189	-2.5170079654	-0.181966
O	 3.4611258864	-1.6413849053	-2.4732813169	-0.237623
H	 0.6749400956	 2.1548384008	 0.0767016433	 0.111897
H	-0.8334589145	 1.8901426102	-0.8101299509	 0.109798
H	-0.818330136	 1.8241229102	 0.9566247339	 0.110247
H	 0.6351014024	-0.2111993028	 0.8757945335	 0.071084
H	-1.9327097784	-0.5043756248	-0.7762730154	 0.110662
H	-1.1025447242	-1.8128567684	 0.077325954	 0.111785
H	-1.841638683	-0.4870279756	 0.9894277864	 0.10803
H	 0.8996871241	-1.4424821267	-1.2902705709	 0.110015
H	 0.2537915508	-0.0537910203	-2.1507790661	 0.087507
H	 2.2142022929	 1.3234281776	-1.3959156328	 0.100687
H	 2.8041761126	-0.034482026	-0.4364079836	 0.099498
H	 2.5522036472	-0.0350725768	-3.511633657	 0.087612
H	 5.0164148867	-0.5321625792	-3.4321275973	 0.111733
H	 4.9899281143	-0.4342536651	-1.5964040408	 0.110321
52.1417	65.2271	118.4949	136.0577	219.7807	247.7098	254.1675	318.0102	390.7748	413.875	462.1748	482.537	754.251	808.2586	824.3023	872.4812	925.8924	928.8884	955.9652	966.2563	983.3973	1047.1878	1059.3916	1090.3248	1143.1133	1160.7904	1170.2089	1188.2699	1193.1552	1241.7132	1280.1921	1297.7854	1323.0254	1349.0175	1370.3355	1392.5218	1400.9753	1422.6826	1448.2361	1469.9343	1486.2188	1489.4895	1498.3031	1505.3898	1510.5492	1531.96	2992.3025	3006.1257	3021.8196	3024.9909	3027.5482	3049.255	3069.2303	3078.7426	3086.1753	3087.6087	3092.8776	3098.3171	3102.7195	3163.9318
CC(C)CCC1CO1	CC(C)CC[C@H]1CO1	
InChI=1S/C7H14O/c1-6(2)3-4-7-5-8-7/h6-7H,3-5H2,1-2H3	InChI=1S/C7H14O/c1-6(2)3-4-7-5-8-7/h6-7H,3-5H2,1-2H3/t7-/m0/s1
