14
gdb 48228	2.74333	1.36613	0.94076	2.5934	75.16	-0.2589	-0.0589	0.2	1171.7892	0.099431	-432.849196	-432.840241	-432.839296	-432.883654	31.301	
N	 0.0345118267	 1.2862644329	 0.0648348	-0.461136
C	-0.0246777635	 0.0238952711	 0.1517964735	 0.115829
N	-1.2349437644	-0.6724958736	-0.0632303236	-0.153354
C	-2.4309082444	 0.0563483561	-0.2076116274	 0.16685
O	-3.4893297886	-0.4264045043	-0.5107428118	-0.288625
C	-1.1794166795	-2.0852674308	-0.1545830891	 0.255769
N	-0.0506629794	-2.6318136681	-0.4025855043	-0.501256
C	-2.3771719056	-2.8313981542	 0.0955569914	 0.287713
C	-3.2682777805	-3.6045311345	 0.3295985842	-0.426959
H	 0.9717752806	 1.6094450702	 0.2957965428	 0.242077
H	 0.7905184627	-0.6580387871	 0.3896571276	 0.152292
H	-2.2567204454	 1.1226607292	-0.0156567913	 0.150206
H	-0.1430988794	-3.6456883691	-0.3824634329	 0.242882
H	-4.0913938594	-4.2469412178	 0.5275173808	 0.217712
39.1624	99.7572	157.6518	191.285	218.6277	258.719	295.8934	316.1525	451.9971	474.8392	606.8512	656.5596	687.0815	707.3981	732.4768	799.4486	828.8433	883.2845	1030.6679	1047.4151	1076.9349	1144.0542	1202.5683	1332.5831	1369.9212	1416.876	1445.0417	1655.2003	1724.6325	1824.9755	2226.8929	3070.6173	3143.5697	3498.3397	3513.2391	3515.463
N=CN(C=O)C(=N)C#C	N=CN(C=O)C(=N)C#C	
InChI=1S/C5H5N3O/c1-2-5(7)8(3-6)4-9/h1,3-4,6-7H	InChI=1S/C5H5N3O/c1-2-5(7)8(3-6)4-9/h1,3-4,6-7H
