17
gdb 98922	2.94225	0.94954	0.83037	1.3268	77.68	-0.2537	-0.075	0.1787	1428.0393	0.131634	-421.826346	-421.81619	-421.815246	-421.863402	34.919	
C	-0.540821537	 1.4785238146	-0.1461258449	-0.379344
C	-0.320107149	-0.0291463012	-0.2317592129	-0.28606
C	-1.1859708255	-0.8249730405	 0.7260916126	 0.372372
O	-1.8627130246	-0.3249429682	 1.5898627882	-0.28437
C	-1.1670275191	-2.3568884152	 0.526618103	-0.387954
C	-2.0819356667	-2.7220315492	-0.6396661213	 0.221697
O	-1.7373692145	-2.5968831382	-1.7958144208	-0.281221
C	-3.4045700316	-3.1885184017	-0.2794985456	 0.29749
C	-4.4995277265	-3.5796890596	 0.0318703074	-0.431446
H	 0.1361971381	 2.0059433247	-0.8234514381	 0.114362
H	-1.5678344562	 1.7387521879	-0.4162894372	 0.1311
H	-0.369460806	 1.8404707074	 0.8704952505	 0.133953
H	-0.4907751939	-0.4202171191	-1.2428228884	 0.152303
H	 0.7239006755	-0.290458585	-0.0031957731	 0.126112
H	-0.1575575766	-2.6835461969	 0.2618738991	 0.138765
H	-1.5003076292	-2.8278913148	 1.4515322199	 0.13848
H	-5.4713358271	-3.9213335052	 0.2953184716	 0.223762
21.775	51.8417	77.337	147.9085	168.132	205.1054	239.5571	253.1827	362.9037	454.8297	510.8721	550.1366	623.9681	647.7166	702.8299	719.7912	753.6275	772.4701	859.8608	934.2938	999.7246	1030.8661	1091.8996	1111.2194	1133.0096	1227.9472	1262.1172	1288.3813	1376.7925	1416.0736	1452.4258	1463.8693	1494.1216	1499.148	1752.1782	1819.0492	2212.7296	3013.4177	3052.352	3059.376	3070.3565	3122.3884	3129.7624	3149.5325	3493.7227
CCC(=O)CC(=O)C#C	CCC(=O)CC(=O)C#C	
InChI=1S/C7H8O2/c1-3-6(8)5-7(9)4-2/h1H,4-5H2,2H3	InChI=1S/C7H8O2/c1-3-6(8)5-7(9)4-2/h1H,4-5H2,2H3
