19
gdb 41499	3.36555	1.67015	1.41868	1.4871	80.33	-0.2319	0.0053	0.2372	964.5904	0.162545	-385.844151	-385.83758	-385.836636	-385.87473	27.813	
C	-0.0175599499	 1.5957287307	-0.0008670273	-0.216528
C	 1.5536285732	 1.495646224	-0.0005801736	-0.051387
C	 1.3607726338	 0.1361903297	 0.7357182395	-0.220592
C	-0.0297959752	 0.0402835386	 0.0180945223	-0.076927
C	 0.3333537694	-0.5728905893	-1.331227325	 0.132956
O	-0.5216681427	-0.4470989072	-2.514152955	-0.315163
C	 0.6235310591	-0.0487820518	-3.3311676234	-0.152754
C	 1.3600517975	 0.2603125637	-2.0516795134	 0.165479
C	 1.9295312686	 1.3047154373	-1.4611735097	-0.182389
H	-0.3982279146	 1.9922924563	 0.9444743941	 0.097063
H	-0.4930089385	 2.1080410428	-0.8398276138	 0.103958
H	 2.1296104299	 2.2751363438	 0.4991304526	 0.063835
H	 2.0920521761	-0.6538116797	 0.542311236	 0.099857
H	 1.248124427	 0.2742950102	 1.8136528624	 0.100833
H	-0.854897884	-0.4680505214	 0.5209789459	 0.067807
H	 0.5887794392	-1.6344743626	-1.1926510062	 0.074976
H	 0.9998035054	-0.8987073168	-3.9175995514	 0.101852
H	 0.3919856647	 0.7867698438	-3.9998989313	 0.115439
H	 2.4279578709	 2.1047772278	-2.0008148429	 0.091685
193.1468	210.2012	341.6788	388.7808	406.8357	460.1618	536.7713	609.1798	766.4763	804.5	811.2409	842.0077	854.759	867.5452	910.663	924.9774	937.6054	949.4708	986.7718	1011.4075	1030.2411	1068.0258	1073.2352	1094.5074	1104.5309	1136.668	1142.4554	1162.4971	1240.6757	1243.3423	1250.6592	1278.0817	1306.6224	1323.2121	1336.1694	1352.7921	1390.7402	1474.3421	1501.9948	1515.1296	1751.0635	2981.8541	3002.1813	3052.7467	3058.2027	3072.262	3088.114	3100.2082	3112.9852	3120.255	3168.9654
C1C2CC1C1OCC1=C2	C1[C@H]2C[C@@H]1[C@H]1OC[C]1[CH]2	
InChI=1S/C8H10O/c1-5-2-6(1)8-7(3-5)4-9-8/h3,5-6,8H,1-2,4H2	InChI=1S/C8H10O/c1-5-2-6(1)8-7(3-5)4-9-8/h3,5-6,8H,1-2,4H2/t5-,6+,8-/m1/s1
