19
gdb 90248	3.74841	1.38702	1.33609	2.5618	75.43	-0.2449	0.0513	0.2962	1022.6533	0.160621	-422.915793	-422.908743	-422.907799	-422.946813	29.979	
O	-0.0702689111	 1.5242031346	 0.0916729057	-0.447319
C	 0.0414736208	 0.1242055567	-0.0370283007	 0.180838
C	 0.5451034541	-0.6080363751	 1.2418628953	-0.298289
C	-0.7267436838	-1.426688648	 1.5520146633	 0.40265
C	-0.498385958	-2.8238684822	 2.1828365463	-0.331416
C	-0.2250066221	-3.2725403882	 0.6611315794	-0.304131
C	-1.1623457703	-2.0621590986	 0.2844400696	 0.005127
C	-1.3346808893	-0.5507252754	-0.0914391029	-0.054351
O	-1.7650064175	-0.3521233448	 1.342892481	-0.393401
H	-0.6961140555	 1.6632284664	 0.8155384768	 0.280642
H	 0.6552514326	-0.0595859122	-0.9221197941	 0.086601
H	 1.4392978654	-1.2141533746	 1.0798396892	 0.102545
H	 0.7565962311	 0.1035105421	 2.0440312316	 0.108411
H	 0.3073859836	-2.9401696234	 2.9120352479	 0.108614
H	-1.4121057072	-3.2909411853	 2.5549278268	 0.125711
H	 0.8250451494	-3.1741274192	 0.3874127194	 0.123769
H	-0.5847555305	-4.2617895736	 0.3748901613	 0.114457
H	-2.1831830267	-2.4251094504	 0.4326239159	 0.100564
H	-2.074066825	-0.1855245688	-0.8046183218	 0.08898
136.5846	271.5923	297.7346	317.1256	454.4661	477.2797	508.7625	522.7083	584.9368	646.5086	687.789	741.1105	773.3021	825.7771	837.4597	857.1143	868.5951	905.0503	940.3745	972.8452	1027.198	1064.7219	1071.5238	1080.4702	1113.522	1137.271	1170.6514	1181.4556	1198.2613	1222.2175	1227.7006	1249.2984	1257.7008	1283.7008	1310.6625	1334.7555	1400.5869	1442.7158	1467.6536	1482.6006	1496.4892	3061.1995	3065.8344	3068.3621	3086.9456	3088.126	3116.0748	3126.9058	3132.123	3154.7106	3755.9956
OC1CC23CCC2C1O3	O[C@H]1C[C@]23CC[C@@H]2[C@H]1O3	
InChI=1S/C7H10O2/c8-5-3-7-2-1-4(7)6(5)9-7/h4-6,8H,1-3H2	InChI=1S/C7H10O2/c8-5-3-7-2-1-4(7)6(5)9-7/h4-6,8H,1-3H2/t4-,5+,6-,7-/m1/s1
