21
gdb 39215	2.55739	1.91052	1.40835	1.5517	80.62	-0.2437	0.0782	0.3219	999.6457	0.186386	-387.073379	-387.066281	-387.065337	-387.104478	29.919	
C	-0.1178136554	 1.4453224874	 0.1064867086	-0.31158
C	 1.2723296143	 0.8439259406	 0.0649802152	-0.018322
C	 2.1452782732	 0.8569467509	 1.3228583623	-0.204502
C	 2.532681302	-0.5147964896	 1.9043784695	-0.23103
C	 1.2992179666	-1.3756773114	 2.2511614995	 0.121974
C	 0.7006102938	-2.1979447369	 1.0904548998	-0.265391
C	-0.307829974	-1.0336576763	 1.0028964505	 0.07794
O	 0.0826674223	-0.5751981984	 2.3227594612	-0.293659
C	 0.0454115544	-0.0374378947	-0.0759021153	-0.006332
H	-0.460788287	 1.7857364496	 1.0782423274	 0.123723
H	-0.4697843025	 2.0359767388	-0.73236524	 0.105034
H	 1.821866206	 0.9966354612	-0.8599774863	 0.078372
H	 3.0637002303	 1.4126007488	 1.1021268016	 0.087914
H	 1.6310228515	 1.4123344017	 2.1112633189	 0.114832
H	 3.1721345645	-1.0734267382	 1.209222012	 0.09574
H	 3.1328317378	-0.3450180302	 2.806080809	 0.095601
H	 1.4521615118	-1.9227266464	 3.1867252772	 0.075171
H	 1.3326789574	-2.3748919699	 0.2177891229	 0.098582
H	 0.2512192522	-3.1360351739	 1.4223599757	 0.102454
H	-1.3717460245	-1.2965621551	 0.9760797792	 0.074128
H	-0.1476586249	-0.4237090282	-1.075292629	 0.079353
171.6727	172.7368	311.3313	351.7482	378.3374	383.5364	463.0227	572.8908	649.2517	735.0087	737.8294	798.9529	843.3052	856.9498	893.4334	909.787	920.1372	950.7473	963.2853	991.6268	1011.8867	1066.9124	1075.2913	1079.3614	1096.8616	1121.6413	1126.7216	1144.7151	1152.7436	1205.2863	1232.804	1253.5534	1262.7628	1271.3966	1320.4758	1349.5246	1359.6135	1375.3445	1379.3647	1400.0103	1416.7904	1475.5582	1484.131	1493.2829	1498.8032	3021.5043	3034.8058	3042.2729	3047.3983	3063.4145	3071.3611	3093.2125	3118.2237	3127.2395	3128.3694	3139.505	3216.1071
C1C2CCC3CC(O3)C12	C1[C@H]2CC[C@@H]3C[C@@H](O3)[C@@H]12	
InChI=1S/C8H12O/c1-2-6-4-8(9-6)7-3-5(1)7/h5-8H,1-4H2	InChI=1S/C8H12O/c1-2-6-4-8(9-6)7-3-5(1)7/h5-8H,1-4H2/t5-,6-,7+,8-/m1/s1
