19
gdb 40803	3.74138	1.18458	0.98896	2.2264	76.94	-0.2465	0.0216	0.2681	1214.6344	0.159945	-423.003757	-422.995723	-422.994779	-423.036784	30.495	
C	 0.3940145063	 1.5267977283	 0.1973036528	-0.173012
O	 1.2369851659	 0.4363670268	-0.1931218363	-0.237347
C	-0.1281429339	 0.1597631054	 0.1113868585	 0.06047
C	-0.402109111	-0.6983381462	 1.3277935397	 0.091406
C	 0.1158298563	-2.1321832485	 1.1391404095	-0.256944
C	 0.0710852739	-2.877206229	 2.4465352267	-0.0728
C	-0.0602343536	-2.2373986968	 3.6052941166	-0.065148
C	-0.1258519726	-0.7374787216	 3.6790562948	-0.115341
O	 0.2061111269	-0.1006079488	 2.4599258266	-0.262619
H	 0.607322672	 1.9433094881	 1.1771831898	 0.13161
H	 0.1615251312	 2.2415526996	-0.5910955891	 0.108086
H	-0.7327538495	-0.1136110958	-0.7560196955	 0.090726
H	-1.4973365002	-0.732249094	 1.4709682592	 0.066169
H	-0.4900332587	-2.647650616	 0.3829534967	 0.101481
H	 1.1401908352	-2.0918937532	 0.7468216138	 0.134637
H	 0.1429795748	-3.9609920621	 2.4170109867	 0.091047
H	-0.1249481739	-2.7738711462	 4.5480385149	 0.091964
H	-1.1299149207	-0.4204879921	 4.0187667273	 0.096095
H	 0.5892854717	-0.3584182479	 4.4190431671	 0.119521
67.2609	115.3356	183.7862	202.1957	270.1421	392.496	411.1927	485.2673	527.8438	626.2119	677.0222	753.0681	834.7634	871.3204	910.9472	929.5426	948.7965	975.665	993.6236	1011.4525	1043.971	1061.6851	1103.0426	1116.5707	1126.584	1163.4693	1172.6609	1210.2578	1220.4495	1265.1101	1296.4634	1310.3147	1368.2285	1381.4083	1406.2235	1412.2737	1440.4709	1469.7898	1488.7525	1521.9644	1728.2415	2928.6739	2941.6554	3021.5321	3048.4341	3056.1704	3087.0342	3097.2412	3154.2959	3177.2565	3199.4828
C1OC1C1CC=CCO1	C1O[C@H]1[C@H]1CC=CCO1	
InChI=1S/C7H10O2/c1-2-4-8-6(3-1)7-5-9-7/h1-2,6-7H,3-5H2	InChI=1S/C7H10O2/c1-2-4-8-6(3-1)7-5-9-7/h1-2,6-7H,3-5H2/t6-,7-/m1/s1
