16
gdb 15548	3.14891	1.96428	1.41252	2.5409	65.62	-0.2503	-0.0184	0.2319	882.4652	0.130408	-383.756148	-383.748573	-383.747629	-383.788552	27.803	
O	 0.1276113316	 1.4405934835	-0.1743162025	-0.424173
C	 0.1334624589	 0.0228878168	 0.006801205	 0.079097
C	 0.5437808269	-0.3703491369	 1.4034287466	-0.108778
C	-0.4607876679	-0.9070154548	 2.0949498961	-0.057587
C	-1.7237541074	-1.0483503643	 1.2851221249	-0.279571
C	-1.2891241926	-0.6355858826	-0.1384878713	-0.141163
C	-2.234035074	 0.3109592324	-0.8497819073	 0.160021
O	-3.2175652374	 0.8006022624	-0.3541731613	-0.24992
H	-0.2908285965	 1.8298213197	 0.6027202884	 0.283495
H	 0.8184269505	-0.3401707103	-0.765067061	 0.095756
H	 1.5357431061	-0.1510319248	 1.781853335	 0.103438
H	-0.4061190334	-1.2125947789	 3.1346254727	 0.103829
H	-2.117777663	-2.0702717854	 1.3101218041	 0.113563
H	-2.5266875273	-0.3998915856	 1.6559551428	 0.136825
H	-1.1836153425	-1.5202613968	-0.7784813588	 0.097846
H	-1.9492002618	 0.5403717753	-1.8987172134	 0.08732
59.6651	92.1217	234.4505	242.7978	295.7873	377.3136	458.9523	495.2926	658.6132	692.646	743.602	795.2155	802.1198	908.023	937.2759	972.0803	984.3808	1008.8168	1021.7	1066.1758	1116.3878	1139.1523	1173.7567	1216.9838	1260.7487	1303.9329	1314.7692	1343.9859	1369.2832	1426.369	1430.4174	1490.5459	1683.3702	1824.414	2904.1892	3032.1731	3040.4548	3067.0879	3072.294	3182.8275	3209.5913	3792.5301
OC1C=CCC1C=O	O[C@H]1C=CC[C@H]1C=O	
InChI=1S/C6H8O2/c7-4-5-2-1-3-6(5)8/h1,3-6,8H,2H2	InChI=1S/C6H8O2/c7-4-5-2-1-3-6(5)8/h1,3-6,8H,2H2/t5-,6-/m0/s1
