16
gdb 11101	7.43084	0.9232	0.90314	1.1827	67.06	-0.253	-0.0448	0.2081	1233.5183	0.128581	-383.743899	-383.735769	-383.734825	-383.777724	28.117	
O	 0.055857	-0.1399262407	-0.1425120656	-0.250304
C	 0.005778208	 1.0492587527	 0.0364907394	 0.171225
C	 1.1972151185	 1.9696298126	 0.0442974335	-0.083973
C	 0.9902330396	 3.2339463966	-0.85071665	-0.266185
C	 0.6296505078	 4.0754222209	 0.412157989	-0.053448
C	 1.2169762513	 2.9223215358	 1.2829973425	-0.266185
C	 1.300686653	 5.4157918264	 0.5366087093	 0.156984
O	 0.7406743097	 6.4593377344	 0.748528507	-0.244041
H	-0.971713467	 1.5596536119	 0.2149139452	 0.073273
H	 2.0959432256	 1.3787339688	-0.1375072765	 0.098341
H	 1.9327962396	 3.5525078058	-1.304758462	 0.122033
H	 0.2295931392	 3.1804005468	-1.632732887	 0.125835
H	-0.4462523833	 4.2029438458	 0.5451150535	 0.100359
H	 0.6323181933	 2.6269169905	 2.1570114763	 0.125835
H	 2.2419506429	 3.1276211306	 1.6044631112	 0.122033
H	 2.4108952618	 5.3726055411	 0.4123232741	 0.068218
54.3847	62.0122	86.0163	256.8649	258.7036	340.1108	344.5907	400.7569	526.3494	719.7861	796.8442	875.0843	888.2016	894.9829	919.1548	970.8777	1010.8498	1073.1966	1078.9411	1109.2554	1169.2316	1218.6076	1224.5222	1260.1433	1269.9379	1272.4583	1304.116	1337.5773	1427.9124	1435.952	1468.6204	1488.2695	1831.8667	1834.704	2831.7911	2840.6165	3059.224	3061.756	3094.5232	3104.7494	3116.1892	3121.0085	54.3846	62.0129	86.0165	256.8648	258.7036	340.1106	344.5907	400.757	526.3494	719.7862	796.8441	875.0845	888.2016	894.9829	919.1548	970.8776	1010.8499	1073.1966	1078.9412	1109.2555	1169.2318	1218.6078	1224.5223	1260.1435	1269.938	1272.4585	1304.1161	1337.5777	1427.9129	1435.9518	1468.6208	1488.2699	1831.867	1834.7043	2831.7912	2840.6165	3059.224	3061.756	3094.5231	3104.7494	3116.1892	3121.0084
O=CC1CC(C1)C=O	O=C[C@H]1C[C@@H](C1)C=O	
InChI=1S/C6H8O2/c7-3-5-1-6(2-5)4-8/h3-6H,1-2H2	InChI=1S/C6H8O2/c7-3-5-1-6(2-5)4-8/h3-6H,1-2H2/t5-,6-
