14
gdb 12657	3.3053	1.98383	1.29568	2.998	58.02	-0.2437	-0.1002	0.1435	881.3078	0.106356	-419.708062	-419.700751	-419.699806	-419.739818	26.807	
O	 0.3608874113	 1.153834781	 0.6130958165	-0.436356
C	-0.0389336646	-0.0614903906	 0.0534600124	 0.061072
C	-1.5458036175	-0.1759934632	-0.2559804017	-0.260587
C	-1.6368852221	-1.3586280113	-1.2483740419	-0.341541
C	-0.3569350974	-1.2808103903	-2.0748861996	 0.33087
O	-0.1068693908	-1.8042443438	-3.1252376543	-0.272857
C	 0.6001966089	-0.3356030045	-1.295876085	 0.271298
O	 1.6087759569	 0.1776051667	-1.7049195339	-0.298063
H	 1.1790389588	 1.4064052921	 0.1604990233	 0.296806
H	 0.2386431685	-0.912916331	 0.7072219166	 0.102496
H	-2.145888091	-0.3207067937	 0.6436061011	 0.125239
H	-1.8729112165	 0.7542058445	-0.7324031004	 0.129239
H	-1.6383777904	-2.3214338334	-0.7199558815	 0.145183
H	-2.5214099741	-1.3450427825	-1.8885224015	 0.147201
76.9345	160.7133	235.1308	303.2238	323.8862	367.0181	459.9759	497.3033	561.1285	577.4216	690.4616	741.2902	853.4682	946.4869	971.3696	990.208	1034.6441	1096.2174	1138.8294	1192.0126	1207.2487	1263.8627	1287.0162	1310.3424	1369.7673	1410.9455	1445.3333	1504.8796	1839.5471	1860.4361	2906.2894	3033.9647	3061.1237	3114.5774	3123.4839	3728.524
OC1CCC(=O)C1=O	O[C@H]1CCC(=O)C1=O	
InChI=1S/C5H6O3/c6-3-1-2-4(7)5(3)8/h3,6H,1-2H2	InChI=1S/C5H6O3/c6-3-1-2-4(7)5(3)8/h3,6H,1-2H2/t3-/m0/s1
