17
gdb 15064	2.95145	1.47584	1.04944	3.3908	68.5	-0.279	0.0281	0.3071	1108.4435	0.141955	-363.858867	-363.850372	-363.849427	-363.892304	30.487	
O	 0.028285456	 1.392101999	 0.1363051354	-0.416541
C	-0.048395125	-0.013511577	 0.1490924233	-0.065236
C	-1.4926038078	-0.5391227094	-0.0521826951	-0.184184
C	-2.0049135294	-0.0353782111	-1.3329506593	 0.263681
N	-2.3556349075	 0.3849238918	-2.351569961	-0.32795
C	-1.5674477425	-2.0558815996	 0.0215931757	 0.025798
C	-1.6736594272	-2.7278031298	 1.3681046755	-0.279105
C	-2.8472974243	-2.7411400073	 0.421559952	-0.267594
H	-0.196845419	 1.6980181126	-0.7500168369	 0.298741
H	 0.608492525	-0.4722411765	-0.6052050307	 0.104661
H	 0.2954435454	-0.33872627	 1.1348098526	 0.124961
H	-2.1137995255	-0.1034684182	 0.7403601187	 0.128851
H	-0.9645326013	-2.5609723368	-0.727520141	 0.102908
H	-1.1214284961	-3.6471174679	 1.5253522391	 0.122927
H	-1.7409697503	-2.0955558089	 2.2476505986	 0.119989
H	-3.7014473313	-2.1178665994	 0.6640956398	 0.123315
H	-3.1032559192	-3.6698359316	-0.0749019666	 0.124779
73.0068	104.3198	144.099	162.8821	220.9465	329.3317	381.8768	384.6508	434.8236	527.0563	596.1409	770.2908	821.7997	834.8204	883.3401	933.4132	963.7583	1048.9197	1061.5359	1066.0397	1086.1583	1089.0453	1138.2793	1170.9133	1197.9118	1204.2279	1225.6085	1270.1761	1329.478	1391.8107	1412.9447	1418.1986	1472.8081	1502.8986	1507.7274	2349.6812	2994.4495	3041.6859	3097.3758	3134.4879	3140.1034	3151.3271	3214.4335	3229.3815	3796.6813
OCC(C#N)C1CC1	OC[C@@H](C#N)C1CC1	
InChI=1S/C6H9NO/c7-3-6(4-8)5-1-2-5/h5-6,8H,1-2,4H2	InChI=1S/C6H9NO/c7-3-6(4-8)5-1-2-5/h5-6,8H,1-2,4H2/t6-/m1/s1
