19
gdb 72916	2.70628	1.76344	1.38502	2.5851	73.16	-0.2464	0.0635	0.3098	982.6443	0.16057	-423.000116	-422.99262	-422.991676	-423.031931	30.378	
O	 0.2623928908	 1.3040166732	-0.3492832518	-0.473801
C	 0.0768737943	-0.0447992714	 0.0040103484	 0.356127
C	 0.1812374559	-0.9446225765	-1.2395967123	-0.110893
O	-1.1454526521	-1.4712739768	-1.0356768406	-0.290702
C	-1.3797392628	-0.6066215203	 0.1086568813	 0.04443
C	-1.5267699283	-1.3136175106	 1.4396638137	-0.053643
C	-0.7049018188	-2.56528519	 1.6205304981	-0.283419
C	-0.1746433479	-1.2622160438	 2.1462129882	-0.036238
C	 0.8141047028	-0.4655132575	 1.300556568	-0.322301
H	 0.1025469932	 1.8482111865	 0.4293026538	 0.277364
H	 0.2602712966	-0.3679106879	-2.1679520469	 0.110992
H	 0.947346568	-1.7294345882	-1.2230396628	 0.096089
H	-2.1856314499	 0.1065736002	-0.0935095828	 0.074805
H	-2.4548905907	-1.2088809866	 1.9891183172	 0.082474
H	-1.0575357641	-3.2876198539	 2.3482929961	 0.110382
H	-0.2682927119	-3.0048550354	 0.7306122333	 0.12859
H	-0.1280059246	-1.1370168568	 3.2224833602	 0.085028
H	 1.7325557644	-1.0214066169	 1.0818040534	 0.111141
H	 1.1208960052	 0.4394419926	 1.8386208456	 0.093576
79.3416	206.6566	258.1555	321.512	341.977	385.5788	406.155	514.7142	620.5941	646.0999	670.8356	790.6985	812.5768	846.5275	866.1845	908.1266	930.9704	942.7994	988.6479	1006.9618	1030.9243	1051.0491	1057.9039	1065.9084	1089.4582	1108.3166	1151.2546	1156.2187	1177.9299	1207.9841	1221.1452	1257.8584	1306.9001	1330.08	1342.9959	1346.5069	1391.4718	1403.2005	1482.0461	1493.9914	1514.572	3017.8568	3030.4398	3054.4041	3067.4844	3073.831	3137.2295	3163.9135	3177.7558	3222.5992	3803.9007
OC12COC1C1CC1C2	O[C@]12CO[C@H]1[C@H]1C[C@H]1C2	
InChI=1S/C7H10O2/c8-7-2-4-1-5(4)6(7)9-3-7/h4-6,8H,1-3H2	InChI=1S/C7H10O2/c8-7-2-4-1-5(4)6(7)9-3-7/h4-6,8H,1-3H2/t4-,5-,6-,7+/m0/s1
