20
gdb 18345	3.11339	2.14553	1.47444	0.2016	80.23	-0.224	0.0338	0.2578	924.4399	0.178819	-311.882326	-311.874908	-311.873964	-311.913809	29.161	
C	 0.3537021701	 1.3695556068	-0.0403382846	-0.494843
C	 0.0413028776	-0.0951310371	-0.0431543406	 0.331844
C	-0.1133946344	-0.8840159731	-1.1114710763	-0.162764
C	-0.4563566358	-2.3145460513	-0.7646265408	-0.273696
C	-0.2792880692	-2.3447129206	 0.7658619545	 0.002826
C	 1.1615035501	-2.6030044321	 1.3021842128	-0.218573
C	 1.1441564825	-1.2269301	 2.0247450346	-0.223356
C	-0.1561790447	-0.8606614359	 1.2451700204	-0.104605
H	 1.2707390782	 1.5815823073	 0.5237573434	 0.124356
H	 0.4820283214	 1.7597968987	-1.053754575	 0.120501
H	-0.4469478023	 1.9424201444	 0.4456701377	 0.122201
H	-0.0237997019	-0.5419881515	-2.1384586764	 0.078396
H	-1.4803002166	-2.5658016795	-1.0760914832	 0.097261
H	 0.2000181978	-3.0397320705	-1.2648021502	 0.09738
H	-1.0364595351	-2.9416203912	 1.2776535068	 0.060561
H	 1.2902820282	-3.4806256533	 1.9403024816	 0.094321
H	 1.9004011668	-2.65472744	 0.4974292698	 0.099242
H	 0.9712806119	-1.3162520561	 3.1008616058	 0.095406
H	 2.0101423332	-0.5769569314	 1.8700461567	 0.092716
H	-0.9611132478	-0.4336944438	 1.8551455432	 0.060826
99.6058	169.3482	207.0636	246.4446	315.8803	367.5186	519.8517	577.4954	692.5374	711.4935	761.3558	801.975	829.7488	878.8489	885.1886	944.313	955.7284	973.3176	994.2286	1027.2475	1040.6562	1060.3793	1086.5093	1104.3728	1170.0899	1193.3126	1202.5889	1230.8848	1250.3993	1268.0227	1270.2721	1288.0426	1314.1459	1333.7905	1360.8951	1412.9125	1475.3543	1479.4499	1485.1518	1489.9271	1494.2154	1712.3056	2999.7447	3015.0838	3026.4751	3027.7737	3049.2426	3057.3475	3060.361	3084.399	3094.2004	3107.6033	3113.989	3173.4118
CC1=CCC2CCC12	CC1=CC[C@H]2CC[C@@H]12	
InChI=1S/C8H12/c1-6-2-3-7-4-5-8(6)7/h2,7-8H,3-5H2,1H3	InChI=1S/C8H12/c1-6-2-3-7-4-5-8(6)7/h2,7-8H,3-5H2,1H3/t7-,8-/m0/s1
