20
gdb 66169	3.49124	0.85766	0.7967	2.6671	77.93	-0.2527	0.0169	0.2696	1497.3727	0.169418	-440.258013	-440.248203	-440.247259	-440.29434	34.294	
C	-0.0707685357	 1.6724860105	 0.1277215686	-0.473332
C	-0.030385522	 0.153394338	 0.0312097029	 0.269654
C	-1.4129888346	-0.4478485281	-0.1809796045	-0.12509
O	-1.9245794374	 0.0424776839	-1.4225630177	-0.192682
C	-3.0561918677	-0.5286914094	-1.8782517345	 0.132098
N	-3.6001729439	-0.0978525531	-2.9319348451	-0.436648
C	 1.0221561652	-0.4820787333	-0.9123401915	-0.104793
O	 1.5055097226	-1.3419638422	 0.1426276268	-0.27528
C	 0.7447461542	-0.6189886915	 1.128389566	-0.124133
H	 0.9342995371	 2.0826270334	 0.2643727061	 0.118329
H	-0.5018466934	 2.106695498	-0.7782694428	 0.148625
H	-0.6837282674	 1.9946030238	 0.9776781077	 0.115641
H	-1.3469705783	-1.5438341141	-0.208608732	 0.114995
H	-2.0866152072	-0.1612576009	 0.6394696924	 0.107239
H	-3.4078170427	-1.3637525827	-1.2558676396	 0.085785
H	-4.4317103342	-0.6457618796	-3.1425246124	 0.230336
H	 0.6409962341	-1.0455589044	-1.7703906251	 0.1132
H	 1.79515381	 0.2181707882	-1.2554812878	 0.098945
H	 1.3812573516	 0.0214907594	 1.7543127602	 0.09804
H	 0.1652972197	-1.2871454759	 1.7785185921	 0.099069
28.7505	69.7901	93.9038	138.5556	151.453	217.9032	295.8739	306.2084	344.4647	383.9891	469.4018	635.6678	687.5827	823.7335	853.7198	893.9421	932.4917	946.0589	987.4211	994.01	1027.2854	1030.6328	1036.8901	1046.423	1136.6442	1155.5469	1165.408	1185.5238	1219.4289	1288.4638	1300.8692	1309.5232	1317.0924	1386.4045	1397.7533	1415.1697	1430.4613	1490.8711	1501.2141	1506.2769	1515.386	1538.4097	1749.1489	2990.9468	2999.0939	3014.739	3020.3072	3033.3978	3041.8438	3046.3521	3073.7784	3098.4642	3122.4729	3518.9236
CC1(COC=N)COC1	CC1(CO[CH][NH])COC1	
InChI=1S/C6H11NO2/c1-6(2-8-3-6)4-9-5-7/h5,7H,2-4H2,1H3	InChI=1S/C6H11NO2/c1-6(2-8-3-6)4-9-5-7/h5,7H,2-4H2,1H3
