19
gdb 111908	2.25628	1.37953	0.90337	3.0142	78.23	-0.2404	-0.008	0.2324	1317.1788	0.159173	-419.279311	-419.270055	-419.269111	-419.313551	33.763	
C	 0.0099379289	 1.582665667	-0.0120363611	-0.387722
C	 0.0360940254	 0.0538514394	-0.0156176227	-0.166551
C	 0.6937349758	-0.5333817715	 1.2417353983	-0.119978
N	-0.0681733564	-0.263455102	 2.4678014374	-0.285942
C	-0.3149796504	-1.3959307102	 3.0094592954	 0.372831
C	-1.073307284	-1.5994712734	 4.2785311915	-0.488584
N	 0.1941184812	-2.4985516953	 2.3141392798	-0.37648
C	 0.8366200749	-2.0617807636	 1.1621831832	 0.415079
O	 1.3597904275	-2.749868554	 0.3203265985	-0.37176
H	 1.025203619	 1.9942282581	 0.0077183733	 0.113341
H	-0.4884682588	 1.9659746342	-0.9075381459	 0.111176
H	-0.5210425338	 1.9584948367	 0.8664171726	 0.138966
H	-0.9849010991	-0.3396296486	-0.0901751511	 0.100568
H	 0.5869257792	-0.3276730035	-0.8824358377	 0.120601
H	 1.6989020066	-0.1012805414	 1.3466604314	 0.117459
H	-1.954178135	-2.2295272814	 4.1116385228	 0.140596
H	-0.4501548562	-2.0973991812	 5.0297566322	 0.142245
H	-1.3929234902	-0.6311887601	 4.663475004	 0.160872
H	 0.0793262254	-3.4688382692	 2.5593004979	 0.263282
84.1478	114.0407	153.037	163.5262	171.3972	245.6325	288.7199	331.1002	407.5734	493.9328	548.4863	614.2707	627.7313	673.8715	716.7813	791.4713	880.3506	940.0804	970.2976	975.2737	1022.4784	1061.9777	1076.4513	1128.9226	1136.0872	1187.6369	1259.0241	1262.0582	1269.9734	1323.4991	1368.0647	1397.2491	1411.2105	1432.9781	1480.2494	1481.2429	1483.6827	1495.6752	1509.2054	1707.7417	1849.0639	3015.735	3034.6234	3037.7276	3038.6181	3076.6376	3093.6592	3103.0183	3123.8867	3159.1873	3649.5323
CCC1N=C(C)NC1=O	CC[C@H]1N=C(C)NC1=O	
InChI=1S/C6H10N2O/c1-3-5-6(9)8-4(2)7-5/h5H,3H2,1-2H3,(H,7,8,9)	InChI=1S/C6H10N2O/c1-3-5-6(9)8-4(2)7-5/h5H,3H2,1-2H3,(H,7,8,9)/t5-/m1/s1
