17
gdb 82254	2.59184	1.94934	1.44445	2.2297	65.62	-0.2489	0.0541	0.3029	919.7488	0.137673	-458.919553	-458.912541	-458.911597	-458.951061	27.78	
O	 0.4944996398	 1.1439688595	-0.5225455756	-0.435779
C	 0.1064698491	-0.1451864871	-0.0881993737	 0.102701
C	 0.6228167302	-0.4583131123	 1.3122217134	-0.010918
O	 0.0456077096	 0.4475015795	 2.26436042	-0.254542
C	-0.4756634312	-0.8868437673	 2.1930864467	 0.015248
C	-1.7671077353	-0.968394476	 1.3898280325	 0.101901
O	-2.7091113504	 0.0832211587	 1.6732895008	-0.287037
C	-2.3649353589	 0.7742342524	 0.4487202911	-0.079623
C	-1.4291941286	-0.3719019454	 0.0028898043	-0.119466
H	 0.3409920652	 1.7417959953	 0.2192556107	 0.295027
H	 0.5412602157	-0.8428730019	-0.8117944729	 0.090536
H	 1.666014052	-0.7148243024	 1.4798380693	 0.105176
H	-0.3181137024	-1.4892733046	 3.0839286084	 0.103729
H	-2.2237866225	-1.9624339206	 1.4522139377	 0.078118
H	-3.2460788739	 0.9323581795	-0.1824718411	 0.105385
H	-1.884204614	 1.738722095	 0.6422436296	 0.10109
H	-1.8051980942	-0.9252684926	-0.8570796012	 0.088453
91.0346	193.563	257.8409	275.1069	414.3105	486.7149	510.858	558.9107	646.5852	721.781	777.2544	828.0707	866.1147	878.4009	911.1359	920.97	980.2644	1000.9371	1025.0718	1040.6874	1072.9024	1101.5888	1115.4803	1126.2967	1153.5966	1212.6636	1252.5388	1258.0247	1277.21	1298.4685	1318.1529	1338.676	1344.7693	1371.3297	1427.9752	1437.471	1520.6064	3033.0862	3047.0713	3056.1125	3077.4973	3114.6598	3144.3708	3157.1563	3788.2359
OC1C2OC2C2OCC12	O[C@H]1[C@H]2O[C@H]2[C@H]2OC[C@@H]12	
InChI=1S/C6H8O3/c7-3-2-1-8-4(2)6-5(3)9-6/h2-7H,1H2	InChI=1S/C6H8O3/c7-3-2-1-8-4(2)6-5(3)9-6/h2-7H,1H2/t2-,3+,4-,5+,6-/m0/s1
