25
gdb 100183	1.91311	1.31973	1.05357	2.3624	88.56	-0.2439	-0.0215	0.2225	1353.8859	0.225002	-389.512223	-389.500504	-389.49956	-389.548955	42.726	
C	-0.1036506531	 1.6613042218	 0.1077980506	-0.414085
C	-0.1455342986	 0.1434868077	-0.1221657239	-0.201063
C	 0.6430681935	-0.4042210974	-1.354815758	 0.17056
C	-0.0054266146	 0.0834778063	-2.6626104294	-0.448699
C	 2.0481990232	 0.1967789896	-1.2549940838	 0.156329
O	 2.9637013474	-0.2783872788	-0.6321157278	-0.274164
C	 0.7545502052	-1.9592582846	-1.2654628723	 0.04048
C	-0.5935805795	-2.6746478316	-1.0885608395	-0.418027
C	 1.5130671702	-2.5700074463	-2.4565056238	-0.417154
H	 0.9091956837	 2.0202922527	 0.3158782577	 0.128889
H	-0.4894815666	 2.2221451394	-0.7488697849	 0.120226
H	-0.7229928753	 1.9223199262	 0.9713001007	 0.120105
H	 0.2408603048	-0.3591498186	 0.7722570044	 0.111111
H	-1.1909747235	-0.1642823105	-0.2297802917	 0.10438
H	-0.0470276891	 1.1763236633	-2.7020462792	 0.119078
H	 0.5516241004	-0.2497861393	-3.5427712352	 0.123522
H	-1.0307031051	-0.2858483682	-2.7554808759	 0.122746
H	 2.1794597077	 1.1643351302	-1.7942459603	 0.072573
H	 1.3581852685	-2.1505138521	-0.370789335	 0.094819
H	-0.4330761592	-3.7567836624	-1.0422422081	 0.11392
H	-1.108094044	-2.3844248593	-0.1692886784	 0.114871
H	-1.2706162482	-2.4852072601	-1.9293684249	 0.111818
H	 2.4768135941	-2.0812871566	-2.6227775877	 0.123198
H	 1.7120968197	-3.6297820115	-2.2678744913	 0.113596
H	 0.9326969983	-2.51107029	-3.3835504325	 0.110968
57.0214	75.1484	82.116	178.8719	191.7472	216.6007	231.428	245.6437	267.2272	300.9496	312.871	335.7194	350.2568	409.429	433.5973	503.9183	618.3112	690.443	779.2248	846.8637	899.4147	919.6776	930.2342	966.6756	988.1306	994.9415	1018.5868	1064.0302	1105.1729	1127.0796	1169.0932	1202.2203	1219.5365	1230.3675	1316.2103	1347.2157	1363.5771	1368.5823	1399.9465	1408.2912	1415.6756	1420.5317	1434.8153	1478.1003	1485.3627	1493.3388	1498.3868	1502.1025	1504.7818	1508.4481	1513.4055	1515.9929	1821.8455	2849.361	3029.4995	3032.5643	3034.6581	3039.3366	3041.873	3044.9257	3073.3021	3090.2704	3098.8412	3104.2684	3107.2366	3112.0754	3114.6451	3115.8817	3116.6803
CCC(C)(C=O)C(C)C	CC[C@@](C)(C=O)C(C)C	
InChI=1S/C8H16O/c1-5-8(4,6-9)7(2)3/h6-7H,5H2,1-4H3	InChI=1S/C8H16O/c1-5-8(4,6-9)7(2)3/h6-7H,5H2,1-4H3/t8-/m0/s1
