18
gdb 105341	2.50329	1.45246	1.12666	1.3314	77.29	-0.2365	0.0344	0.2709	1123.2662	0.146686	-401.853558	-401.844937	-401.843993	-401.886651	33.133	
O	 0.1041849387	 1.4000540975	-0.1275471029	-0.418834
C	 0.0603325539	 0.0058860546	 0.0919628515	-0.113957
C	-1.3759508286	-0.5445625527	 0.0076908703	 0.076347
C	-2.0724403168	-0.5716318433	-1.397122295	-0.203104
N	-2.3357788346	-2.0513389904	-1.315124363	-0.123257
C	-1.0112948549	-2.6873571332	-1.2413205491	-0.251753
C	-1.5560973176	-2.0753242993	-0.0130428489	-0.069022
C	-2.1917484745	 0.1066881344	 1.0225192836	 0.276732
C	-2.820089771	 0.6812784978	 1.8731041114	-0.459803
H	-0.468009214	 1.809023598	 0.5332216533	 0.288096
H	 0.6778515099	-0.4433541647	-0.6899531623	 0.10712
H	 0.4942528307	-0.2740284875	 1.0648554258	 0.09613
H	-3.0107024772	-0.0189640471	-1.4292206422	 0.129638
H	-1.4406464201	-0.2758605402	-2.2406877036	 0.114569
H	-1.0577041818	-3.7700587265	-1.3097203537	 0.126633
H	-0.1753410728	-2.2381481354	-1.7718526048	 0.116448
H	-1.8864111993	-2.6581741633	 0.8401159477	 0.105876
H	-3.3994195299	 1.1683127513	 2.6185279219	 0.202141
97.2326	132.5601	162.0688	176.4597	254.8165	372.1349	399.334	424.9751	486.6282	505.8174	543.4976	624.5476	654.1077	662.0063	749.5309	782.9126	847.6815	912.1608	936.0242	967.3196	990.2022	1056.4213	1080.3472	1098.8311	1109.7253	1118.5146	1141.0994	1175.3516	1207.7267	1235.4089	1274.0674	1282.3276	1365.9026	1376.1532	1429.8357	1489.1121	1498.312	1512.2398	2225.0014	2982.4097	3054.7392	3093.7952	3111.223	3139.1715	3169.3433	3199.2929	3498.5638	3780.9587
OCC1(CN2CC12)C#C	OC[C@]1(CN2C[C@@H]12)C#C	
InChI=1S/C7H9NO/c1-2-7(5-9)4-8-3-6(7)8/h1,6,9H,3-5H2	InChI=1S/C7H9NO/c1-2-7(5-9)4-8-3-6(7)8/h1,6,9H,3-5H2/t6-,7+,8?/m0/s1
