22
gdb 95545	2.34521	1.62119	1.19892	1.3252	86.94	-0.2179	0.0162	0.2341	1143.7099	0.196882	-367.19648	-367.188077	-367.187133	-367.229121	33.55	
C	-0.0626839807	 1.53835136	-0.0022627998	-0.406075
C	 0.0334367883	 0.005068547	 0.0111578625	 0.026434
C	 0.8809415138	-0.4720658788	-1.1884041016	-0.178271
C	 1.201568779	-1.9887724991	-1.3136410282	-0.260444
C	 0.2738337373	-2.9434831222	-0.5964303707	-0.099236
C	 0.021950389	-2.942199825	 0.7151100527	-0.012223
C	 0.5047962821	-1.9467876485	 1.7039366987	-0.075454
N	 1.7760021789	-1.2217911668	 1.4589227967	-0.341005
C	 0.5089046922	-0.486078574	 1.3741997088	-0.022787
H	 0.9217588033	 1.9948121182	 0.1533090814	 0.116074
H	-0.4498044944	 1.9004670636	-0.9603384068	 0.109901
H	-0.7293886656	 1.9037589358	 0.7863243375	 0.106596
H	-0.9815753653	-0.3947337663	-0.1245379268	 0.080895
H	 0.3465914785	-0.1451579441	-2.0888253723	 0.089404
H	 1.8300152098	 0.0754874314	-1.1834864468	 0.098689
H	 1.2237189793	-2.2485526296	-2.3768601871	 0.085997
H	 2.2112693687	-2.1556863466	-0.9309733279	 0.136771
H	-0.1891511018	-3.7225548957	-1.1973608788	 0.083793
H	-0.6453045226	-3.6995566625	 1.1198861226	 0.079044
H	 0.2863575868	-2.1969835896	 2.7394281283	 0.076842
H	 2.236541823	-1.0388288489	 2.3458385863	 0.23013
H	 0.2702429002	 0.1837486714	 2.1996587113	 0.074925
97.7277	138.6324	228.352	256.0105	276.4219	308.6092	350.3157	371.858	511.7076	564.6315	606.5071	703.5441	742.9361	783.6323	808.7746	832.272	854.5736	898.6578	924.534	951.2249	980.3178	987.434	1005.255	1049.2153	1090.0662	1091.8633	1110.397	1146.5275	1180.7945	1217.0369	1229.8597	1255.7514	1265.9144	1292.2653	1323.2046	1343.3744	1361.0083	1385.9101	1404.2598	1416.3541	1432.0702	1461.7727	1472.4569	1493.7862	1498.1162	1503.8598	1715.8171	3002.1052	3021.2792	3025.8437	3050.1156	3063.0702	3091.8037	3095.8989	3098.0604	3104.8761	3127.3011	3142.5497	3165.0007	3507.4914
CC1CCC=CC2NC12	C[C@H]1CCC=C[C@H]2N[C@@H]12	
InChI=1S/C8H13N/c1-6-4-2-3-5-7-8(6)9-7/h3,5-9H,2,4H2,1H3	InChI=1S/C8H13N/c1-6-4-2-3-5-7-8(6)9-7/h3,5-9H,2,4H2,1H3/t6-,7+,8-/m0/s1
