16
gdb 124407	3.38659	1.25838	0.99579	3.1871	75.23	-0.2634	0.0078	0.2712	1166.5696	0.125028	-396.917407	-396.909147	-396.908203	-396.950956	30.051	
C	-0.106275133	 1.5066257153	 0.088971686	-0.385056
C	 0.082207247	-0.0183659537	-0.0031137207	-0.119996
C	 0.764782108	-0.4130163056	-1.2326780693	 0.308034
C	 1.3088661682	-0.7011221434	-2.2636453995	-0.43577
N	 0.7981193694	-0.5241761041	 1.173108532	 0.036196
C	 2.0636806519	-0.9692113724	 1.3189207493	 0.029208
N	 2.2995676519	-1.2785289755	 2.5818894409	-0.286448
C	 1.1128953565	-0.992269307	 3.1810748367	 0.035413
N	 0.1697935486	-0.5316580483	 2.37453397	-0.247868
H	 0.8616321663	 2.0126825833	 0.0549477474	 0.136535
H	-0.7153270253	 1.8553649244	-0.7483230298	 0.135259
H	-0.6071752419	 1.7496582402	 1.0279511119	 0.152662
H	-0.9042232833	-0.4950642483	 0.0249807875	 0.145174
H	 1.7847246173	-0.9680411053	-3.1754388074	 0.212013
H	 2.7504495153	-1.0554987528	 0.4924273301	 0.156049
H	 0.9344828132	-1.1304348969	 4.2371597646	 0.128594
44.7504	124.3693	149.9052	204.3581	242.1196	329.7367	383.2978	475.7892	537.2676	638.1397	668.1246	685.5419	696.5455	717.5455	867.4754	875.4831	909.6945	974.6904	1002.162	1047.5698	1091.1933	1121.4721	1169.757	1227.8072	1231.0768	1315.2588	1336.5991	1351.3435	1385.9738	1402.8685	1468.8619	1488.4189	1496.2861	1543.3273	2246.0872	3048.9922	3056.338	3137.4775	3148.3515	3258.9925	3279.862	3499.9222
CC(C#C)N1C=NC=N1	C[C@@H](C#C)n1cncn1	
InChI=1S/C6H7N3/c1-3-6(2)9-5-7-4-8-9/h1,4-6H,2H3	InChI=1S/C6H7N3/c1-3-6(2)9-5-7-4-8-9/h1,4-6H,2H3/t6-/m0/s1
