17
gdb 107717	3.42098	1.27349	1.09889	1.8138	68.15	-0.2329	0.0649	0.2978	1108.8404	0.134095	-458.855528	-458.847272	-458.846328	-458.888292	31.539	
O	 0.0666993803	 1.394042229	-0.0090234316	-0.411162
C	-0.0376621458	-0.0204196529	-0.1034450266	-0.210101
C	-1.4603162642	-0.4979341466	-0.1168587069	 0.292079
C	-2.6092386039	-0.1878565326	-1.1019651471	-0.385896
C	-3.267081204	-1.1261792169	-0.0627810593	 0.365131
O	-4.5744077904	-1.5276695518	 0.0529186145	-0.459869
C	-1.9427576606	-1.9637491017	 0.1344891104	-0.048462
O	-1.9423239944	-1.8390961151	 1.5868321576	-0.324343
C	-2.4329086715	-0.5515429918	 1.1159430301	-0.00978
H	-0.2673278485	 1.6529064216	 0.855865462	 0.284226
H	 0.4599077181	-0.291971002	-1.0408820554	 0.1142
H	 0.4968305549	-0.5258681482	 0.7151940417	 0.107793
H	-2.9649724558	 0.8451231189	-1.1234480342	 0.111448
H	-2.4948888642	-0.5792449796	-2.1178160434	 0.095174
H	-4.8486619979	-1.9386561739	-0.7742061856	 0.289844
H	-1.6068244796	-2.897796382	-0.3164295023	 0.094704
H	-2.6934704724	 0.2159343256	 1.8453791261	 0.095013
90.3454	133.392	216.2736	233.8742	289.9778	315.4038	328.7808	430.4737	438.7196	566.2543	638.5542	721.2809	723.4563	794.5895	852.5712	859.0924	907.3817	943.05	996.3073	1017.7819	1040.6207	1076.8248	1083.5208	1090.8774	1109.1468	1142.379	1165.0565	1166.5826	1240.5714	1284.7887	1297.9431	1342.7479	1382.6817	1412.4446	1424.536	1493.1107	1522.1412	2993.9952	3049.3576	3069.3264	3113.0522	3115.4062	3122.3505	3807.2454	3816.5909
OCC12CC3(O)C1OC23	OC[C@@]12C[C@@]3(O)[C@@H]1O[C@@H]23	
InChI=1S/C6H8O3/c7-2-5-1-6(8)3(5)9-4(5)6/h3-4,7-8H,1-2H2	InChI=1S/C6H8O3/c7-2-5-1-6(8)3(5)9-4(5)6/h3-4,7-8H,1-2H2/t3-,4+,5+,6-
