16
gdb 130455	3.36076	1.11718	0.87045	7.7775	67.13	-0.2418	0.0063	0.2481	1279.2796	0.126168	-471.22915	-471.221074	-471.22013	-471.262265	29.842	
N	 0.2696588802	 1.3240914455	 1.355364943	-0.51255
H	 0.5316845832	 0.3591917145	 1.5295924654	 0.24633
H	-0.0142210882	 2.7084101911	 3.0470161167	 0.286319
H	 0.9389537208	 1.6852623333	 0.681108303	 0.240049
C	-1.0918092227	 1.3884212276	 0.7981401394	-0.166248
C	-1.5976669754	 2.8406256322	 0.7717175014	-0.305352
C	-1.7598186026	 3.4304284556	 2.133750821	 0.424319
N	-2.7860114704	 4.1204625728	 2.5122383384	-0.193068
O	-2.5093140916	 4.4780945568	 3.8591505566	-0.236828
C	-1.2997076524	 3.9572461071	 4.2516126971	 0.50495
O	-0.8143847759	 4.072832217	 5.3409194558	-0.397642
N	-0.8248078695	 3.3095606711	 3.1237393447	-0.403828
H	-1.1673038345	 0.9746183817	-0.2180132557	 0.10634
H	-1.7454849914	 0.7866725131	 1.4382757675	 0.130867
H	-0.8910431538	 3.4535246587	 0.1955403043	 0.129132
H	-2.5623761759	 2.9018996219	 0.2621267514	 0.147211
81.6407	128.9268	151.9476	230.8386	282.8401	319.1312	374.9471	474.8361	527.4781	608.1453	686.5556	705.3103	759.0455	786.214	850.2242	892.3913	918.6439	951.2471	964.4453	1015.0945	1045.1812	1086.0736	1153.1733	1189.4344	1254.	1286.3207	1323.3219	1373.0966	1418.2936	1469.4123	1494.6724	1513.1461	1656.467	1658.229	1899.432	2995.1246	3023.3542	3076.8797	3112.0486	3494.2089	3573.7167	3575.8654
[NH3+]CCC1=NOC([O-])=N1	NCCc1noc(=O)[nH]1	
InChI=1S/C4H7N3O2/c5-2-1-3-6-4(8)9-7-3/h1-2,5H2,(H,6,7,8)	InChI=1S/C4H7N3O2/c5-2-1-3-6-4(8)9-7-3/h1-2,5H2,(H,6,7,8)
