17
gdb 115471	3.54576	1.00424	0.83793	2.3864	72.77	-0.2361	-0.0766	0.1595	1336.9133	0.136735	-455.160264	-455.151644	-455.1507	-455.194134	31.136	
O	 0.4587392174	 1.1752156921	 0.094537936	-0.4217
C	 0.1605485749	-0.1942815174	-0.0424376658	-0.05022
C	-1.3560115932	-0.4389802956	-0.0407818663	 0.004679
C	-1.742999992	-1.9504217543	-0.0727650428	-0.210075
N	-2.1658330987	-2.1627987723	 1.3138775856	-0.335152
C	-2.3250024944	-0.9291243589	 1.8853540991	 0.276598
C	-2.9624491687	-0.8011399238	 3.222987381	 0.115157
O	-3.4369541071	-1.7432370088	 3.8100026742	-0.258973
N	-1.9051379255	 0.0923951487	 1.2272913222	-0.316172
H	-0.081263889	 1.4907218352	 0.8303918207	 0.293903
H	 0.5898413825	-0.5264921804	-0.994498224	 0.106735
H	 0.6176827445	-0.7987532382	 0.7599101803	 0.089045
H	-1.7885578305	 0.1197727323	-0.8765444863	 0.098592
H	-2.5565013143	-2.1528074477	-0.7803472367	 0.114966
H	-0.8957015488	-2.5937968702	-0.3340151835	 0.118939
H	-2.7657930198	-2.9225573765	 1.5947026878	 0.26174
H	-2.9790395473	 0.2327457359	 3.6158949387	 0.111938
66.709	123.8634	132.4709	190.1469	216.7441	263.234	390.2939	433.764	470.5177	483.9975	535.7703	647.8603	746.6706	775.4971	847.9453	911.698	970.9792	1025.421	1029.1813	1051.3026	1055.721	1094.257	1131.6311	1203.9284	1227.272	1261.6179	1313.3461	1325.3537	1331.6691	1383.6839	1385.4814	1433.8713	1493.1803	1507.5287	1532.877	1671.0651	1805.1384	2958.7062	2969.1503	3019.6643	3052.8949	3064.5093	3069.6781	3638.396	3774.975
OCC1CNC(C=O)=N1	OC[C@H]1CN[C](C=O)[N]1	
InChI=1S/C5H8N2O2/c8-2-4-1-6-5(3-9)7-4/h3-4,8H,1-2H2,(H,6,7)	InChI=1S/C5H8N2O2/c8-2-4-1-6-5(3-9)7-4/h3-4,8H,1-2H2,(H,6,7)/t4-/m1/s1
