21
gdb 78448	3.74213	1.19391	1.1187	1.5905	82.01	-0.244	0.0763	0.3203	1188.2055	0.183997	-387.045056	-387.037124	-387.03618	-387.076865	32.702	
C	 0.0508181136	 1.5088030138	 0.020300521	-0.428745
C	-0.028688963	-0.0037556606	-0.0104902338	-0.036
C	 1.2558375502	-0.7575151502	-0.2752436961	-0.038281
C	 0.6377963055	-0.7534673068	 1.1217579244	-0.038281
C	 0.4254904307	-2.2647841697	 1.3239318419	-0.094175
C	 1.8138324972	-2.7997488967	 0.8127522287	-0.251205
C	 1.2593979583	-2.2702457772	-0.5610058431	-0.09417
C	-0.1339853752	-2.7526165763	-0.049108595	 0.188541
O	-0.4176517501	-4.1271027738	-0.1706215132	-0.467541
H	 1.0039487619	 1.8475050042	 0.4409946668	 0.113248
H	-0.0357120631	 1.9293683224	-0.9874523759	 0.118369
H	-0.7522007961	 1.9340626512	 0.6320549185	 0.118369
H	-0.9622354756	-0.3699488348	-0.4224346737	 0.088294
H	 2.1510155681	-0.1897200331	-0.5083935172	 0.083241
H	 1.0686127271	-0.1826316426	 1.9382366936	 0.083241
H	-0.0210605947	-2.5993414782	 2.2611244646	 0.062625
H	 2.710826735	-2.3165183445	 1.2081888669	 0.095101
H	 1.9420903638	-3.8856970269	 0.8726373138	 0.079136
H	 1.6518154607	-2.6102994831	-1.5201918135	 0.062625
H	-1.0232573152	-2.2650925268	-0.4439422184	 0.076773
H	 0.326732501	-4.6383801204	 0.1602510597	 0.278835
194.1567	202.8645	212.0792	246.8559	315.0567	337.2332	354.3164	417.5627	497.8998	576.7225	657.0731	792.4833	800.44	821.909	831.6028	864.6179	899.5568	921.0259	948.7889	991.4963	994.1434	1014.6547	1031.5885	1066.043	1066.1449	1090.9613	1100.0853	1112.6237	1132.1864	1139.9056	1204.5065	1209.1429	1239.6453	1242.5798	1248.0769	1254.95	1300.1061	1302.3804	1305.3176	1416.8251	1426.845	1471.6219	1495.3147	1501.4642	1516.3936	3027.0721	3043.3274	3092.6286	3093.2526	3102.2449	3106.9381	3108.2719	3122.7918	3150.5995	3159.0089	3165.4538	3826.7064
CC1C2C1C1CC2C1O	C[C@H]1[C@H]2[C@@H]1[C@@H]1C[C@H]2[C@H]1O	
InChI=1S/C8H12O/c1-3-6-4-2-5(7(3)6)8(4)9/h3-9H,2H2,1H3	InChI=1S/C8H12O/c1-3-6-4-2-5(7(3)6)8(4)9/h3-9H,2H2,1H3/t3-,4+,5-,6+,7-,8+
