13
gdb 18145	3.62096	1.98224	1.609	4.6535	57.49	-0.2601	-0.014	0.2461	785.974	0.095255	-398.54772	-398.540918	-398.539974	-398.578752	25.244	
O	 0.097730551	 1.3609724142	-0.0115102306	-0.4225
C	-0.026079413	-0.0173142742	-0.0061169024	 0.13591
C	-0.4596982711	-0.7847872302	 1.1900988854	 0.020005
O	-1.3942579241	 0.0189898025	 1.9390203267	-0.299432
C	-2.3603115486	-0.0711740952	 0.8554440861	-0.031673
C	-2.9224280786	 1.2234486202	 0.4571944042	 0.287064
N	-3.4072381762	 2.2280033249	 0.1560647196	-0.3129
C	-1.3505995577	-0.7676557097	-0.054172074	-0.190983
H	-0.2554341376	 1.6895341707	 0.8258453192	 0.304797
H	 0.741329266	-0.4971352051	-0.6074492486	 0.124617
H	 0.0635891285	-1.564903437	 1.7299887993	 0.121152
H	-3.1811438464	-0.732235683	 1.1544538579	 0.142988
H	-1.5952218821	-1.532369708	-0.7780272429	 0.120955
115.8062	156.9065	228.9075	285.4686	404.1341	460.0065	541.8078	568.0573	662.0672	735.8418	805.6562	819.2444	914.7613	945.3592	988.6621	1017.2808	1027.8131	1058.3248	1062.1496	1103.6728	1186.3596	1238.3035	1262.7208	1308.8518	1351.1748	1359.6083	1455.4125	2358.4706	3052.8204	3160.5398	3188.1567	3215.5596	3772.0273
OC1C2OC(C#N)C12	O[C@H]1[C@H]2O[C@@H](C#N)[C@@H]12	
InChI=1S/C5H5NO2/c6-1-2-3-4(7)5(3)8-2/h2-5,7H	InChI=1S/C5H5NO2/c6-1-2-3-4(7)5(3)8-2/h2-5,7H/t2-,3-,4+,5-/m0/s1
