19
gdb 85178	2.28839	1.64406	1.14043	1.4937	76.6	-0.2364	0.0195	0.2558	1119.6924	0.159264	-419.174452	-419.165769	-419.164825	-419.208092	32.324	
C	 0.0575372575	 1.7107734051	 0.0779672087	-0.399925
C	 0.1714620197	 0.2159526477	-0.1099747616	 0.118066
O	 1.4939678593	-0.1855605135	-0.6266143151	-0.267519
C	 1.7686320372	-0.9295883679	 0.4954146966	 0.415449
N	 2.8027844766	-1.5604815116	 0.8290378907	-0.552651
C	 0.4054410426	-0.681885129	 1.1389659894	-0.114747
N	 0.2567595905	-0.0794876501	 2.4439073407	-0.089713
C	 0.9201269728	-0.7404719953	 3.5689691269	-0.228127
C	 1.4000232704	 0.579392064	 3.0781338588	-0.226675
H	 0.8677351476	 2.0959392317	 0.7008862249	 0.133029
H	 0.091193765	 2.2182695869	-0.8904800651	 0.128027
H	-0.8928947282	 1.9489735328	 0.564555597	 0.136471
H	-0.6015036522	-0.1601704875	-0.7865010305	 0.094971
H	 3.5348765623	-1.4804262023	 0.1200138761	 0.227099
H	-0.2121697423	-1.5848337273	 1.1155713639	 0.112929
H	 0.3299700083	-0.8109393286	 4.4783626885	 0.116415
H	 1.554869818	-1.5951044264	 3.3496391949	 0.147635
H	 2.3532735495	 0.5866232397	 2.5566523681	 0.132988
H	 1.1587442653	 1.4893973815	 3.6196861872	 0.11628
79.2094	96.9564	149.6331	184.8884	209.4364	300.6542	348.6301	414.9967	460.1515	510.9216	645.9365	727.4752	787.9866	830.3941	852.9135	870.8464	890.128	904.1721	934.9712	1023.4008	1034.7483	1055.8847	1066.9755	1101.0502	1134.3619	1141.3426	1160.7021	1181.2093	1195.5768	1236.1423	1239.8989	1331.2363	1336.412	1368.1028	1384.9925	1411.9562	1481.4021	1485.0291	1493.035	1513.525	1806.5774	3049.1018	3060.3887	3073.6581	3108.0949	3113.0157	3120.6941	3135.92	3194.2112	3207.5615	3462.3981
CC1OC(=N)C1N1CC1	C[C@H]1O[C]([NH])[C@H]1N1CC1	
InChI=1S/C6H10N2O/c1-4-5(6(7)9-4)8-2-3-8/h4-5,7H,2-3H2,1H3	InChI=1S/C6H10N2O/c1-4-5(6(7)9-4)8-2-3-8/h4-5,7H,2-3H2,1H3/t4-,5+/m1/s1
