20
gdb 35863	2.07983	1.70759	1.17841	4.0101	82.14	-0.2839	0.0345	0.3184	1124.8236	0.172838	-366.033989	-366.02566	-366.024716	-366.067776	32.04	
N	 0.0609713828	-1.2247569318	 0.4187045881	-0.34299
C	 0.0446128448	-0.0829832876	 0.2360024402	 0.286057
C	 0.0283454487	 1.3651721884	 0.0021802123	-0.241378
C	-0.6756698112	 2.1082267419	 1.1665934002	-0.216521
C	 0.4393681465	 2.2604585922	 2.2108825579	-0.211792
C	 1.6850060222	 2.6210153626	 1.3746901863	-0.284107
C	 1.4543213922	 1.9661013426	 0.0003338004	 0.384183
C	 2.5669839469	 1.3053770148	-0.7678000785	-0.31414
C	 1.9871004984	 2.607494107	-1.2579729986	-0.319518
H	-0.4802096613	 1.5345347715	-0.9519121317	 0.117053
H	-0.9942642147	 3.0909269692	 0.8017105241	 0.108697
H	-1.5583300481	 1.580438612	 1.53353792	 0.119048
H	 0.2074773098	 3.0082374375	 2.9732054754	 0.103062
H	 0.5906707846	 1.3044046058	 2.7241039678	 0.124068
H	 1.7636734817	 3.7086246393	 1.264061777	 0.10419
H	 2.610597	 2.278023866	 1.8454305884	 0.108331
H	 3.5574479503	 1.3178466738	-0.3249629756	 0.117661
H	 2.3397967788	 0.3991158271	-1.3196204596	 0.129674
H	 1.3690116422	 2.5884573136	-2.1502794564	 0.114026
H	 2.5809669154	 3.5094490141	-1.1476133877	 0.114396
25.7034	141.8467	147.6105	260.4328	307.9943	316.598	400.2494	458.7187	513.4053	549.845	626.6472	773.52	794.2318	820.1961	848.2109	875.8551	909.0684	937.4617	945.2334	970.3477	977.8003	1004.6596	1044.8228	1062.6669	1085.4055	1108.4098	1162.3809	1172.9922	1189.996	1221.348	1262.2734	1274.8526	1305.2832	1322.2975	1340.4348	1355.7453	1369.2836	1470.2499	1487.5741	1490.9316	1503.782	1507.9286	2349.973	3035.9785	3045.602	3051.0776	3064.1712	3085.1563	3104.4932	3115.7993	3121.2632	3129.8571	3201.2343	3218.0839
N#CC1CCCC11CC1	N#C[C@H]1CCCC21CC2	
InChI=1S/C8H11N/c9-6-7-2-1-3-8(7)4-5-8/h7H,1-5H2	InChI=1S/C8H11N/c9-6-7-2-1-3-8(7)4-5-8/h7H,1-5H2/t7-/m1/s1
