14
gdb 99454	3.2715	0.73024	0.61352	4.3218	74.61	-0.2846	-0.0824	0.2022	1715.0323	0.097332	-436.642252	-436.632377	-436.631433	-436.678921	31.948	
C	-0.1656988366	 1.3895096104	 0.0980689869	-0.249308
O	 0.1789041287	 0.0218709076	-0.0872049357	-0.2259
C	 0.7467811599	-0.5728820841	 1.0538388529	-0.18675
C	-0.240015803	-0.6995195345	 2.1600073197	 0.286381
N	-1.0196887792	-0.7512444491	 3.0101811801	-0.312803
C	 1.2840381261	-1.8856375658	 0.7025547741	 0.062005
C	 1.7589635443	-2.9612803904	 0.438514751	 0.134634
C	 2.3079730799	-4.2493566012	 0.0777593126	 0.022573
O	 2.9375965784	-4.9494537249	 0.833306158	-0.214115
H	 0.7144910141	 1.9866354538	 0.3765515448	 0.120942
H	-0.5499193194	 1.7388930649	-0.8608398939	 0.149923
H	-0.939806108	 1.5110618904	 0.8662527122	 0.14334
H	 1.5750377207	 0.0474610396	 1.4419428815	 0.15384
H	 2.1019805243	-4.5493292667	-0.9684621941	 0.115238
37.9183	68.9473	85.6211	113.1851	170.2468	197.8394	216.5354	269.7614	342.5376	387.2899	458.0211	526.8313	600.0798	672.0786	855.3814	920.8261	983.7816	1019.53	1118.957	1158.6623	1181.3679	1211.7622	1320.309	1340.36	1419.1149	1477.1226	1487.5503	1506.2669	1775.4946	2345.692	2360.6895	2937.6248	2946.772	2999.0379	3064.3831	3146.1439
COC(C#N)C#CC=O	CO[C@@H](C#N)C#CC=O	
InChI=1S/C6H5NO2/c1-9-6(5-7)3-2-4-8/h4,6H,1H3	InChI=1S/C6H5NO2/c1-9-6(5-7)3-2-4-8/h4,6H,1H3/t6-/m1/s1
