20
gdb 87873	3.18447	1.23758	1.20292	0.8997	79.11	-0.2341	0.0621	0.2962	1153.2396	0.1713	-403.087339	-403.07909	-403.078146	-403.120388	31.766	
C	-0.1980034896	 1.497967874	 0.2322077146	-0.393553
C	-0.100984021	-0.0073916325	 0.2518478796	-0.061063
N	 1.1698093018	-0.5960345298	-0.2240521176	-0.39056
C	 0.7887073673	-0.7338988638	 1.1830818762	 0.347009
C	 1.6637315699	-0.2398050522	 2.3503451577	-0.323825
C	 1.3196247591	-1.5420499282	 3.1263661814	-0.078279
C	-0.0296671153	-1.5291913557	 3.8700601128	-0.07764
O	-0.7506104312	-1.974058288	 2.6941332861	-0.288098
C	 0.4657949304	-2.0367688296	 1.9219572456	 0.01114
H	 0.7561833505	 1.9491583619	 0.5168620305	 0.12531
H	-0.4550728776	 1.8590033476	-0.7693236859	 0.120545
H	-0.9704366847	 1.8465433875	 0.926259335	 0.117754
H	-1.0181033509	-0.5309459682	-0.0163644579	 0.09005
H	 0.9944884361	-1.4672595593	-0.7212143271	 0.226895
H	 2.7182968465	-0.1667182829	 2.0728298393	 0.115937
H	 1.3611963261	 0.6949819924	 2.8320245218	 0.101942
H	 2.1377719921	-2.1045915929	 3.5721473708	 0.081296
H	-0.1179929537	-2.2595460283	 4.6835370344	 0.103425
H	-0.3759856837	-0.5510425095	 4.2276864561	 0.100801
H	 0.5770483679	-2.9868374625	 1.3883253166	 0.070914
64.4195	138.2447	182.4737	194.1982	255.9063	353.4596	406.7645	446.1279	499.059	543.8883	748.2901	784.29	801.188	837.5857	870.8294	904.6579	924.2267	946.2188	985.8675	1010.3596	1019.8974	1035.8639	1060.2932	1068.4449	1101.8555	1124.4688	1152.3968	1159.7953	1179.5275	1214.2937	1229.5439	1252.4212	1272.1384	1291.5462	1305.216	1355.1885	1358.0764	1408.1794	1466.8007	1477.236	1489.3152	1503.919	1520.8308	3010.7104	3034.2682	3049.4329	3052.9579	3055.2741	3097.1171	3105.9433	3107.1011	3125.8216	3129.0889	3479.1386
CC1NC11CC2COC12	C[C@H]1N[C@]21C[C@H]1CO[C@@H]21	
InChI=1S/C7H11NO/c1-4-7(8-4)2-5-3-9-6(5)7/h4-6,8H,2-3H2,1H3	InChI=1S/C7H11NO/c1-4-7(8-4)2-5-3-9-6(5)7/h4-6,8H,2-3H2,1H3/t4-,5+,6-,7+/m1/s1
