19
gdb 63616	2.57913	1.12991	0.95767	1.904	79.3	-0.2458	-0.0899	0.1559	1308.6144	0.156141	-423.046259	-423.036548	-423.035604	-423.081013	35.286	
C	-0.0080839111	 1.6034983423	 0.0479727878	-0.467642
C	-0.0020168016	 0.088692587	 0.0886066033	 0.33506
C	-1.3478309375	-0.5524159039	-0.1944237767	-0.444141
C	 1.2246135431	-0.6450230792	-0.3278617877	-0.32382
C	 0.8571514635	-0.6491313668	 1.15142096	-0.168426
C	 1.7025723037	 0.0900257219	 2.0997267284	 0.282981
O	 2.4473987889	 1.0159651431	 1.8369785557	-0.317199
C	 1.6397956961	-0.3559607411	 3.5694141918	 0.095341
O	 0.9718154716	-1.2706818204	 3.9740619098	-0.222981
H	 0.9646841687	 2.0214341329	 0.3099735423	 0.154583
H	-0.2683281019	 1.9427330562	-0.9612148246	 0.11852
H	-0.7565399291	 2.0122165818	 0.7362085472	 0.116121
H	-1.7022614441	-0.264911342	-1.1911459884	 0.123164
H	-1.2924479804	-1.6443681716	-0.1600677869	 0.119266
H	-2.1004201807	-0.2276263292	 0.5321418698	 0.125216
H	 1.1259459505	-1.5872889103	-0.8564277415	 0.119417
H	 2.1038029619	-0.0604959358	-0.5788921064	 0.135982
H	 0.4096788543	-1.5430890825	 1.5684108972	 0.11322
H	 2.2921603741	 0.2620371275	 4.222296329	 0.10534
54.6512	125.8235	135.6874	176.0691	210.7649	245.381	250.0775	313.4789	362.1687	391.7566	415.2643	521.9993	597.4611	641.0942	689.3426	776.1701	823.3061	925.8814	954.1505	970.9941	978.8074	1033.5215	1059.9533	1076.2369	1091.2491	1124.5631	1145.9246	1173.3168	1293.8117	1334.5787	1364.208	1411.3822	1421.5582	1429.8641	1476.3521	1484.9235	1490.0424	1509.7928	1511.3719	1766.883	1823.9007	2922.4483	3027.0614	3032.6739	3086.2068	3091.3409	3107.9998	3129.3484	3143.0755	3191.8358	3222.0043
CC1(C)CC1C(=O)C=O	CC1(C)C[C@H]1C(=O)C=O	
InChI=1S/C7H10O2/c1-7(2)3-5(7)6(9)4-8/h4-5H,3H2,1-2H3	InChI=1S/C7H10O2/c1-7(2)3-5(7)6(9)4-8/h4-5H,3H2,1-2H3/t5-/m0/s1
