20
gdb 70675	2.51561	1.66886	1.26386	2.2472	78.61	-0.2355	0.0212	0.2567	1064.2891	0.172791	-403.144097	-403.136001	-403.135057	-403.176303	31.959	
C	 0.0580703631	 1.5415463128	 0.0718392281	-0.464024
C	 0.0225553675	 0.026651124	 0.0405526413	 0.355588
C	-0.9040497374	-0.7031674415	 0.9827272964	-0.360251
C	 0.5921545796	-0.7250005067	 1.2214217095	-0.055738
C	 1.395571049	-1.9642255064	 0.9390128667	-0.106061
O	 2.6428231638	-1.667287653	 0.276495093	-0.229663
C	 2.6296750527	-1.0883054481	-0.9534325272	 0.140603
N	 1.718217537	-0.6271772912	-1.6957569114	-0.26502
C	 0.3011740833	-0.5907947452	-1.3272832423	-0.247854
H	 1.0136579587	 1.9144721297	-0.3120832322	 0.132494
H	-0.7401647607	 1.9663930846	-0.5477535226	 0.117353
H	-0.0694354861	 1.9229201883	 1.0899704787	 0.110326
H	-1.512649485	-0.1171394413	 1.6632333632	 0.113983
H	-1.3793752804	-1.6168943308	 0.6393869474	 0.111225
H	 0.9660776589	-0.1206370756	 2.043346869	 0.090717
H	 1.694991053	-2.469963919	 1.8606655001	 0.117871
H	 0.8337850371	-2.6847047028	 0.3362097999	 0.111821
H	 3.661653886	-1.049531513	-1.3051465821	 0.118379
H	-0.1296401479	-1.596520768	-1.3986980647	 0.103687
H	-0.2123766423	 0.0015533734	-2.0932003707	 0.104562
136.6847	148.2043	217.5375	248.7511	332.485	345.9648	349.4666	419.7259	432.7968	532.0735	569.9634	722.4984	797.1796	822.9461	872.8866	908.929	926.5677	947.8836	973.4059	979.4382	987.1121	1000.5084	1054.866	1064.0457	1113.5499	1125.7646	1152.0609	1182.1142	1227.4338	1283.0488	1304.0519	1324.6665	1369.1492	1393.5195	1415.0162	1433.1302	1439.729	1484.185	1490.9928	1493.6543	1505.9331	1519.849	1742.4514	3021.1453	3026.1401	3047.1784	3058.7337	3089.9562	3098.8187	3101.7985	3124.5324	3130.3539	3146.1419	3209.2648
CC12CC1COC=NC2	C[C@]12C[C@H]1COC=NC2	
InChI=1S/C7H11NO/c1-7-2-6(7)3-9-5-8-4-7/h5-6H,2-4H2,1H3	InChI=1S/C7H11NO/c1-7-2-6(7)3-9-5-8-4-7/h5-6H,2-4H2,1H3/t6-,7+/m0/s1
