16
gdb 34614	3.28254	1.36862	1.06453	3.4989	76.61	-0.2645	-0.0474	0.2171	1095.0156	0.126301	-400.759979	-400.752728	-400.751784	-400.792009	27.424	
N	 0.017118937	-1.0810654548	 0.3027050059	-0.333334
C	-0.0426703334	 0.068338895	 0.1699283489	 0.198515
C	-0.0671235244	 1.4802608931	 0.0019597228	 0.20716
C	-1.173848591	 2.2384256099	-0.0459870481	-0.14891
C	-0.8681938536	 3.698918898	-0.2480836081	-0.275248
C	 0.663710462	 3.7563577081	-0.1530145506	 0.112601
O	 1.1315690244	 3.9809359458	 1.1946662323	-0.288259
C	 1.8418027546	 2.7235093226	 1.2172634206	-0.077102
C	 1.1986419303	 2.2991091567	-0.1230961137	-0.194785
H	-2.1816335312	 1.8491477432	 0.0402021414	 0.125575
H	-1.24601105	 4.0543194512	-1.2159267386	 0.121731
H	-1.3185378568	 4.3337472773	 0.5238841201	 0.139339
H	 1.1256996282	 4.4533676258	-0.8597066164	 0.082991
H	 2.928185249	 2.8683892605	 1.1644554953	 0.108175
H	 1.5962513012	 2.1223696168	 2.0990543955	 0.119228
H	 1.8745535039	 1.9474390307	-0.9038578574	 0.102325
97.3972	147.5378	179.5523	257.5285	377.0183	415.6944	501.3932	561.1111	642.9222	710.5935	793.5698	809.5775	851.3539	892.5267	911.4339	968.3356	984.2393	1008.3012	1037.8413	1056.0132	1074.3227	1157.7703	1163.6137	1178.3891	1223.8966	1253.6617	1282.0478	1315.457	1333.0094	1358.2479	1359.5226	1455.3812	1520.8055	1665.816	2337.3979	3019.3461	3022.8779	3055.2385	3068.8176	3075.7102	3104.6874	3209.7686
N#CC1=CCC2OCC12	N#CC1=CC[C@H]2OC[C@@H]12	
InChI=1S/C7H7NO/c8-3-5-1-2-7-6(5)4-9-7/h1,6-7H,2,4H2	InChI=1S/C7H7NO/c8-3-5-1-2-7-6(5)4-9-7/h1,6-7H,2,4H2/t6-,7+/m0/s1
