15
gdb 126292	1.69085	0.95486	0.61724	3.4424	69.06	-0.2535	-0.051	0.2026	1702.3199	0.1051	-454.020226	-454.008192	-454.007248	-454.065222	35.7	
C	 0.1421592034	 1.5275489093	 0.4567594567	-0.379951
C	 0.034325629	 0.3418549932	-0.4973627267	-0.2804
C	-1.3565644556	-0.2850778104	-0.52062193	 0.40102
C	-1.4953129189	-1.435524862	-1.4356068443	-0.532797
C	-2.656767095	-2.0613113257	-1.5464876013	 0.545702
O	-3.6724066066	-2.6012149185	-1.6386420795	-0.18489
N	-4.9853153185	-0.9839338114	 1.1933792707	-0.001576
N	-5.2188836799	-0.161792044	 1.8835981382	-0.004441
O	-2.2716038557	 0.1340797969	 0.1605786905	-0.340035
H	 1.1538362667	 1.9424565571	 0.4400272247	 0.110184
H	-0.5617612217	 2.3161309172	 0.1799837988	 0.134324
H	-0.0936067979	 1.2270188119	 1.4805061396	 0.134233
H	 0.2875234686	 0.6337279834	-1.5258465227	 0.123979
H	 0.7526999465	-0.447055134	-0.2352510191	 0.124055
H	-0.6707687343	-1.797963813	-2.0358667856	 0.150593
3.527	15.821	31.1248	48.6992	53.2538	79.2079	90.8784	117.4046	199.354	256.3758	369.4804	488.3774	525.0974	574.8979	617.162	684.8238	808.7353	900.9298	996.3494	1030.3141	1086.6137	1119.2297	1135.7566	1276.9139	1345.8152	1408.777	1414.0358	1456.0075	1491.0207	1497.8016	1755.8315	2238.2252	2432.3171	3017.1072	3045.9876	3052.413	3123.6551	3130.3956	3213.6819
CCC1=CC(=O)N=NO1	CCC(=O)[CH][C][O].N#N	
InChI=1S/C5H6N2O2/c1-2-4-3-5(8)6-7-9-4/h3H,2H2,1H3	InChI=1S/C5H6O2.N2/c1-2-5(7)3-4-6;1-2/h3H,2H2,1H3;
