19
gdb 79014	3.73743	1.70131	1.55833	1.4237	75.97	-0.2365	0.092	0.3285	917.6722	0.162625	-385.871801	-385.865481	-385.864537	-385.902123	27.285	
C	-0.1970606996	 1.592072979	 0.0020633957	-0.418362
C	 0.0344741983	 0.0900398032	 0.0178384702	 0.033056
C	 1.1700800662	-0.5554017085	-0.8341613317	-0.104119
C	 2.4714162768	 0.0579712885	-0.2995969697	-0.110325
C	 3.1118789058	-0.9928730817	 0.5824579053	 0.058912
O	 2.4425034392	-2.2176747766	 0.4321810905	-0.242864
C	 1.1446026849	-1.7444422932	 0.1943630761	 0.094514
C	 0.7828434114	-0.5937129053	 1.2029672938	-0.104121
C	 2.1852882668	 0.0296648411	 1.2056224316	-0.110325
H	 0.7290527263	 2.1438396423	 0.188562018	 0.119199
H	-0.5926648677	 1.9173489183	-0.9665536797	 0.113105
H	-0.9227336179	 1.8847042706	 0.769064505	 0.113104
H	-0.9091589966	-0.4365900509	-0.1714384813	 0.069088
H	 1.0823650585	-0.7056395847	-1.9098711935	 0.061098
H	 3.0282949017	 0.8351122088	-0.8037861154	 0.088326
H	 4.1716611441	-1.0751480054	 0.7823658467	 0.103997
H	 0.4392118353	-2.5574316343	 0.0449857472	 0.086292
H	 0.30771491	-0.7822810227	 2.1653142975	 0.061098
H	 2.5130432365	 0.7841385314	 1.9067748538	 0.088326
214.3773	215.0217	248.8259	504.4431	522.2832	586.5045	685.8246	725.3861	729.428	765.1442	791.6041	803.4866	819.7312	880.9262	881.5917	933.2634	948.6022	978.3476	992.3961	995.518	1038.6632	1053.1196	1053.8554	1072.1102	1077.253	1100.0803	1110.6636	1149.4122	1175.7748	1191.0675	1228.2917	1238.2704	1251.3076	1279.0251	1306.613	1342.3908	1376.6035	1401.8999	1417.5422	1496.2699	1498.8994	3028.6316	3033.8037	3090.216	3108.7541	3117.1663	3118.8834	3165.018	3208.6182	3209.1266	3222.2054
CC1C2C3C4OC2C1C34	C[C@H]1[C@H]2[C@@H]3[C@@H]4O[C@H]2[C@H]1[C@H]34	
InChI=1S/C8H10O/c1-2-3-5-6-4(2)7(3)9-8(5)6/h2-8H,1H3	InChI=1S/C8H10O/c1-2-3-5-6-4(2)7(3)9-8(5)6/h2-8H,1H3/t2-,3-,4+,5-,6+,7+,8-
