18
gdb 110847	2.70044	1.50838	1.2762	0.7192	72.47	-0.2303	0.0234	0.2537	1072.628	0.147125	-439.073099	-439.064637	-439.063693	-439.106322	31.177	
C	 0.276136194	 0.8381583787	 0.377004389	-0.239466
O	-0.1860327824	-0.0120347519	-0.6624209505	-0.235141
C	-1.3881976432	-0.6236246915	-0.3639209338	 0.072689
C	-1.6246668322	-2.0090863543	-0.8786456647	-0.007922
O	-0.4714746231	-2.7358379493	-1.2461176557	-0.235818
C	 0.2837511852	-2.847809331	-0.1109761786	 0.41551
C	 1.6063469155	-3.5038208792	-0.2893074039	-0.480679
N	-0.2131928169	-2.3966627888	 0.9753735342	-0.306357
C	-1.4651873071	-1.7790563653	 0.6318517476	-0.103817
H	 1.2216443352	 1.2667966059	 0.0373830258	 0.127026
H	-0.4347736502	 1.6541818513	 0.5724005536	 0.10574
H	 0.4398927069	 0.2742824831	 1.3033366705	 0.135376
H	-2.2638830791	 0.028471068	-0.3693828458	 0.094304
H	-2.5090813983	-2.2999183219	-1.4308687248	 0.112305
H	 2.2603544966	-2.8743216604	-0.9011648637	 0.15242
H	 2.0679148775	-3.6626797335	 0.6848256687	 0.151607
H	 1.491265137	-4.460131383	-0.8082680627	 0.144086
H	-2.2597882555	-1.8176884669	 1.3676128747	 0.098137
89.2449	131.367	154.6669	186.1063	204.3009	287.7487	332.9441	366.133	575.1841	618.9737	650.5778	685.1757	770.5169	789.1248	820.8342	914.0673	952.3346	990.9429	1003.5929	1060.2729	1070.659	1082.4525	1086.0184	1121.0531	1139.2221	1180.4514	1210.1814	1249.8143	1256.7464	1324.9717	1352.5051	1408.6583	1413.2483	1473.1684	1478.9238	1483.5216	1488.5779	1504.9571	1706.7909	2995.0247	3051.276	3064.0937	3083.5501	3109.4988	3124.3889	3164.046	3177.3289	3195.3906
COC1C2OC(C)=NC12	CO[C@H]1[C@H]2OC(=N[C@@H]12)C	
InChI=1S/C6H9NO2/c1-3-7-4-5(8-2)6(4)9-3/h4-6H,1-2H3	InChI=1S/C6H9NO2/c1-3-7-4-5(8-2)6(4)9-3/h4-6H,1-2H3/t4-,5+,6-/m0/s1
