21
gdb 109828	2.3665	0.97902	0.82399	1.8898	79.33	-0.2499	-0.0246	0.2253	1466.4308	0.180051	-424.214073	-424.203541	-424.202597	-424.250887	37.028	
C	-0.622434885	 1.3021109326	-1.5974290894	-0.412708
C	-0.2259993194	-0.0522473428	-1.0423618337	-0.027723
C	 1.2088592081	-0.5287073217	-0.9480555149	-0.077354
C	 2.3924180478	 0.3035825488	-1.3868451648	-0.075376
O	 3.6050815951	-0.12517223	-0.7808250256	-0.420751
C	 0.418512177	-0.234864634	 0.3183490364	-0.050674
C	 0.7316703121	 0.9376711618	 1.2379372226	-0.318554
C	-0.5122477834	 1.4004475205	 1.9709413626	 0.175846
O	-0.9191829097	 2.5327461815	 1.9895197799	-0.23876
H	 0.0589250624	 2.1032170234	-1.3039871291	 0.125556
H	-0.6496499399	 1.2779488953	-2.6921635984	 0.121588
H	-1.6210248441	 1.5838605451	-1.247608866	 0.129095
H	-0.9347083461	-0.8334981299	-1.3065194763	 0.089048
H	 1.3667213936	-1.5857588041	-1.1484123683	 0.094381
H	 2.5490081549	 0.1821989508	-2.4642334614	 0.114462
H	 2.2204166013	 1.3745810872	-1.2113983546	 0.086986
H	 3.4826139956	-0.0821596588	 0.1729080669	 0.281423
H	 0.093945946	-1.116376341	 0.866618917	 0.090423
H	 1.4586119425	 0.6163277099	 1.9996475811	 0.115445
H	 1.1551152481	 1.7985360957	 0.7172478991	 0.125137
H	-1.0551071469	 0.5872920195	 2.5080924868	 0.07251
47.3962	56.1593	75.8252	139.5993	153.8477	189.2856	242.4418	269.9203	301.9743	346.719	453.6562	500.2424	521.1648	567.9166	743.8077	758.902	829.763	879.6205	932.5544	964.7022	997.0453	1034.5903	1051.6792	1064.4835	1085.0144	1122.0115	1157.2286	1159.0923	1176.4837	1221.6227	1233.4813	1267.7831	1288.7446	1347.3777	1388.3153	1394.9201	1423.7939	1426.4361	1430.6177	1455.2896	1466.9284	1494.1096	1505.7208	1511.7235	1836.1646	2856.1285	2998.8311	3006.2791	3039.1827	3066.4075	3094.7881	3112.4817	3121.2131	3126.9248	3132.2289	3145.3934	3817.2354
CC1C(CO)C1CC=O	C[C@H]1[C@@H](CO)[C@H]1CC=O	
InChI=1S/C7H12O2/c1-5-6(2-3-8)7(5)4-9/h3,5-7,9H,2,4H2,1H3	InChI=1S/C7H12O2/c1-5-6(2-3-8)7(5)4-9/h3,5-7,9H,2,4H2,1H3/t5-,6+,7-/m1/s1
