24
gdb 122447	4.4238	0.63758	0.60701	1.4202	88.43	-0.2393	0.0789	0.3181	1984.31	0.214749	-405.526622	-405.515449	-405.514505	-405.563757	40.018	
C	-0.1622719521	 1.546477088	-0.2619126536	-0.384606
C	-0.0397180495	 0.0567319808	 0.0108621834	-0.022569
O	-1.3344859739	-0.5053081048	 0.0339175384	-0.246755
C	-1.3340095854	-1.894845526	 0.2892096282	-0.063422
C	-2.7637357584	-2.3690870895	 0.2829294591	-0.065075
N	-3.304772919	-2.8928754186	-0.9857120734	-0.36658
C	-3.1890510389	-3.7937228376	 0.1783750121	 0.32446
C	-2.1832523344	-4.9189134742	 0.0248808608	-0.438071
C	-4.4618545007	-4.1986051078	 0.898101962	-0.456226
H	 0.8270251872	 2.0132727389	-0.286924537	 0.112443
H	-0.6535637849	 1.7200717796	-1.2234518577	 0.127936
H	-0.755970514	 2.0318616377	 0.5180711266	 0.123989
H	 0.5731526395	-0.4294778386	-0.7674757709	 0.085468
H	 0.4699628966	-0.1196303592	 0.9744173596	 0.080819
H	-0.7510707751	-2.4282606476	-0.4757398448	 0.093923
H	-0.8688146181	-2.1004875243	 1.2702658233	 0.079535
H	-3.4134865994	-1.722419311	 0.8716691263	 0.082567
H	-4.2681097845	-2.5903592548	-1.1095547719	 0.223937
H	-1.327304105	-4.6127379233	-0.578456239	 0.127276
H	-1.8209468373	-5.2572145602	 1.0022774502	 0.11219
H	-2.6495990583	-5.7771210953	-0.4723931909	 0.11581
H	-4.9847675717	-4.9879921422	 0.344861445	 0.119474
H	-4.2453111979	-4.5879539298	 1.8993756991	 0.121215
H	-5.1451425648	-3.3504181502	 1.0089005752	 0.11226
38.6093	69.3067	93.1316	129.2898	176.4065	209.2436	216.7273	246.6409	262.7081	297.0717	370.2461	408.7758	429.1041	511.4884	520.4388	699.6485	820.6617	832.9676	875.73	907.6829	957.1347	978.7586	990.6463	1016.5407	1037.0514	1080.1891	1086.4493	1137.3178	1141.1409	1158.8081	1163.6338	1188.3065	1227.7613	1277.7588	1295.9715	1313.4877	1345.3074	1377.2146	1401.1663	1411.4275	1422.3789	1433.7672	1472.464	1479.0499	1483.1643	1491.3797	1498.4194	1499.8282	1505.6554	1517.1881	1535.0339	2939.3349	2950.7788	2971.2433	3011.6356	3021.2897	3032.2016	3044.0689	3083.1756	3089.0233	3098.6016	3114.8447	3118.0164	3121.0335	3135.5674	3492.8082
CCOCC1NC1(C)C	CCOC[C@H]1NC1(C)C	
InChI=1S/C7H15NO/c1-4-9-5-6-7(2,3)8-6/h6,8H,4-5H2,1-3H3	InChI=1S/C7H15NO/c1-4-9-5-6-7(2,3)8-6/h6,8H,4-5H2,1-3H3/t6-/m1/s1
