21
gdb 114440	3.67409	1.21953	1.09272	1.1766	80.82	-0.249	0.0794	0.3284	1172.3841	0.185024	-387.064849	-387.057058	-387.056114	-387.097059	31.433	
O	-0.1005425941	 1.4945482216	-0.029326215	-0.423071
C	 0.037139437	 0.0817336238	 0.0689717755	-0.103789
C	-1.3507309493	-0.5281933387	-0.0430813892	 0.057636
C	-2.0745803108	-0.2514737544	-1.3910836868	-0.242279
C	-2.9100731903	-1.5103931019	-1.6198741427	-0.037356
C	-2.1998356365	-2.8484874083	-1.7726515715	-0.057689
C	-0.7951037224	-2.7824975917	-1.1758140133	-0.240618
C	-1.4069000875	-2.06172395	 0.0766536352	-0.069692
C	-2.8201671613	-2.4460105005	-0.4455126113	-0.087667
H	 0.7781337195	 1.8844052515	-0.0097069034	 0.284805
H	 0.6872436179	-0.3063968804	-0.7313058064	 0.083574
H	 0.4946734317	-0.2041169464	 1.0306313616	 0.079977
H	-1.957130897	-0.1056077475	 0.7691733733	 0.076675
H	-2.6998785072	 0.642872569	-1.3339018313	 0.104424
H	-1.3552952479	-0.080130811	-2.2006661792	 0.095584
H	-3.8562916968	-1.4345048407	-2.1447303701	 0.078029
H	-2.5514621288	-3.5837709209	-2.4877274668	 0.076216
H	-0.4254220889	-3.7780074544	-0.91662552	 0.09815
H	-0.0164274552	-2.2572909203	-1.7410269704	 0.08649
H	-1.0913723845	-2.4512509324	 1.0455324939	 0.061499
H	-3.6494179877	-2.8653073566	 0.1085585978	 0.079103
102.2126	144.2668	193.5525	272.878	323.0089	400.2099	406.6391	476.3956	617.1483	697.6972	707.5055	784.5242	799.258	821.6973	875.9021	907.9672	933.7531	962.1059	975.6307	986.5198	1007.7984	1028.5582	1051.1277	1060.6427	1075.7561	1098.2037	1109.3795	1128.0295	1142.9772	1198.8955	1201.8617	1233.8146	1254.4107	1258.2792	1281.3614	1288.4036	1305.7735	1316.7592	1343.1153	1371.3613	1407.1593	1462.1035	1489.4428	1501.8312	1521.7024	2959.7562	2987.0766	3020.4636	3030.0973	3039.5028	3088.743	3092.6145	3102.5325	3164.4918	3173.3378	3200.1987	3829.7843
OCC1CC2C3CC1C23	OC[C@H]1C[C@H]2[C@H]3C[C@@H]1[C@@H]23	
InChI=1S/C8H12O/c9-3-4-1-6-7-2-5(4)8(6)7/h4-9H,1-3H2	InChI=1S/C8H12O/c9-3-4-1-6-7-2-5(4)8(6)7/h4-9H,1-3H2/t4-,5+,6+,7-,8+/m1/s1
