13
gdb 128552	2.94587	1.31741	0.9156	4.7112	66.7	-0.2656	-0.094	0.1716	1178.1862	0.087596	-489.850391	-489.84233	-489.841386	-489.883844	27.46	
C	 0.00809418	 1.4307124163	-0.0332510632	-0.25257
O	 0.0100750461	-0.0059998943	-0.0176022568	-0.257162
C	 0.5939802069	-0.6108815678	-1.0408978384	 0.315984
C	 0.7276363457	-1.9616078053	-1.2595002337	 0.198241
O	 1.3895133025	-2.0936644253	-2.4270526068	-0.184767
N	 1.6531013412	-0.8207558896	-2.9072362239	 0.013524
N	 1.1850748721	 0.0377035404	-2.093254632	-0.212315
C	 0.2965820015	-3.1199106339	-0.4835203319	 0.079218
O	 0.4838883026	-4.2709303653	-0.7995882908	-0.262732
H	 1.0306326197	 1.8172378355	-0.0340875205	 0.15347
H	-0.5214611742	 1.8055307272	-0.9130626225	 0.153466
H	-0.5099415033	 1.7282801766	 0.8775437663	 0.150412
H	-0.232996451	-2.8351179645	 0.4480265341	 0.10523
75.0786	140.28	146.157	157.5813	240.8456	250.0577	371.4075	390.8268	588.254	671.6813	685.9323	746.8361	774.2363	856.221	1011.8939	1019.7887	1043.8971	1177.1178	1178.7066	1204.534	1257.4975	1393.0895	1424.7182	1441.1877	1484.7176	1494.4583	1500.8569	1658.1442	1788.3866	2930.2964	3050.0946	3127.3256	3168.2902
COC1=C(ON=N1)C=O	COc1c(onn1)C=O	
InChI=1S/C4H4N2O3/c1-8-4-3(2-7)9-6-5-4/h2H,1H3	InChI=1S/C4H4N2O3/c1-8-4-3(2-7)9-6-5-4/h2H,1H3
