20
gdb 102736	1.95887	1.18467	0.81517	4.724	80.21	-0.226	0.0343	0.2602	1447.5051	0.171458	-399.304669	-399.294843	-399.293898	-399.340191	35.648	
N	-0.3703898504	 1.4832208052	 0.2073410077	-0.516857
C	-0.088106735	 0.0519739274	 0.0896143341	-0.181953
C	 0.8100407944	-0.3829136001	 1.2682440387	-0.090085
N	 0.1181969231	-0.1232849003	 2.5236237615	-0.301474
C	 0.9442139607	-0.204865206	 3.6990722768	 0.057744
C	 1.9740925837	 0.8569333383	 4.0403636952	-0.274821
C	 0.6934187968	 0.7305109275	 4.8398731152	-0.289249
C	 1.1420668895	-1.8123657625	 1.1433249076	 0.300266
N	 1.4155150821	-2.9288676038	 1.0269989546	-0.331858
H	 0.4043760552	 2.0313725275	-0.1534353853	 0.235789
H	-1.1842556616	 1.7293646379	-0.3443417297	 0.242653
H	-1.0322001075	-0.4945006265	 0.167767726	 0.136368
H	 0.3944074458	-0.2430397253	-0.8527004659	 0.109966
H	 1.7688712062	 0.1659572405	 1.1932066242	 0.0993
H	-0.3116687916	 0.7929714609	 2.4302350274	 0.23471
H	 1.2063256694	-1.2277743104	 3.9557912682	 0.11219
H	 2.9080280418	 0.5548719743	 4.5018085006	 0.115769
H	 2.0567848819	 1.7092726304	 3.3732117272	 0.106904
H	-0.0602033854	 1.49999746	 4.7028005907	 0.114844
H	 0.7422407912	 0.3389951049	 5.8495631951	 0.119794
55.5897	75.0868	118.6496	135.255	179.1472	242.723	258.1136	314.833	387.78	425.9748	492.3802	541.9554	604.4526	749.3995	771.7561	812.9213	826.6379	854.6647	904.9276	940.0247	965.3089	1006.1041	1014.4054	1046.1809	1076.2775	1084.8689	1135.25	1145.4226	1177.8886	1193.8749	1224.6493	1257.1531	1315.6308	1321.6562	1367.3004	1385.4596	1416.4203	1462.4546	1493.2705	1496.0901	1511.3439	1659.0751	2360.3287	2911.7497	3005.007	3096.6453	3126.2838	3132.4354	3144.7472	3207.2621	3222.4502	3506.8046	3509.6156	3589.5566
NCC(NC1CC1)C#N	NC[C@@H](NC1CC1)C#N	
InChI=1S/C6H11N3/c7-3-6(4-8)9-5-1-2-5/h5-6,9H,1-3,7H2	InChI=1S/C6H11N3/c7-3-6(4-8)9-5-1-2-5/h5-6,9H,1-3,7H2/t6-/m1/s1
