19
gdb 95542	2.79218	1.36084	1.09303	2.9941	76.76	-0.2486	-0.0193	0.2293	1146.9224	0.159411	-423.049695	-423.041122	-423.040178	-423.08305	32.392	
O	 0.0544104237	 1.4866464948	-0.0890080806	-0.4403
C	 0.1155880089	 0.0673502767	 0.0181632708	 0.105477
C	 0.8161408548	-0.3870206625	 1.3043870234	-0.22461
C	 0.0436852093	 0.0665515683	 2.5548670795	-0.263121
C	-1.4491962935	-0.0616069801	 2.3922647422	-0.077748
C	-2.0534546095	-0.3361510855	 1.2356155648	-0.054912
C	-1.2996494782	-0.5445758423	-0.0533924693	-0.168393
C	-2.0356985168	 0.0010936244	-1.2677715023	 0.156823
O	-3.157312019	 0.4365473789	-1.2594442288	-0.247718
H	-0.590576318	 1.8015289925	 0.555421793	 0.291206
H	 0.6974524629	-0.2532345299	-0.8530086881	 0.087213
H	 0.8906255834	-1.481125046	 1.2908227674	 0.101252
H	 1.8358068459	 0.009025363	 1.3218107302	 0.106913
H	 0.374494597	-0.5058595066	 3.4298147087	 0.112937
H	 0.2899719911	 1.1121609779	 2.7906967281	 0.116975
H	-2.0526683044	 0.1011353551	 3.282518965	 0.094435
H	-3.1355170493	-0.3886804675	 1.1735854747	 0.112879
H	-1.1867919683	-1.6240796123	-0.257410695	 0.109933
H	-1.4455912498	-0.0528304688	-2.2107301235	 0.08076
73.0668	114.2503	178.8916	208.4074	229.2049	352.6797	363.037	392.3508	412.8699	583.7803	609.259	634.0374	732.9072	764.1037	802.1816	853.9787	887.837	952.4833	964.5216	994.3275	1014.8248	1051.9063	1055.6269	1085.599	1121.0023	1179.3088	1195.5776	1235.8405	1258.5451	1294.5854	1314.6834	1332.1711	1371.8215	1377.1791	1410.5085	1425.2355	1440.281	1473.9921	1486.7052	1717.737	1832.2088	2875.9359	2957.219	3005.0392	3032.4015	3048.1306	3054.9265	3088.7659	3150.2272	3189.7912	3791.3415
OC1CCC=CC1C=O	O[C@H]1CCC=C[C@H]1C=O	
InChI=1S/C7H10O2/c8-5-6-3-1-2-4-7(6)9/h1,3,5-7,9H,2,4H2	InChI=1S/C7H10O2/c8-5-6-3-1-2-4-7(6)9/h1,3,5-7,9H,2,4H2/t6-,7-/m0/s1
