16
gdb 54718	4.83564	1.1763	1.06869	4.6793	69.02	-0.233	0.0203	0.2533	1101.4388	0.124013	-437.818272	-437.810603	-437.809659	-437.851137	28.922	
N	 0.0557011819	 1.3138830384	 0.5643939101	-0.533267
C	 0.0424545693	 0.1369354249	-0.1241611023	 0.421829
O	 1.0319414173	-0.3007037205	-0.6854123011	-0.374363
C	-1.2874095957	-0.5900689703	-0.1437116273	-0.177866
C	-1.7315385496	-1.179908017	-1.5075170787	-0.082771
C	-0.7885423732	-2.4168426856	-1.3716289629	 0.102069
O	-1.8487523727	-3.3933380791	-1.6207323337	-0.332455
C	-2.4815558145	-2.3608097078	-0.8190024134	 0.072684
C	-1.2400936102	-2.1219280476	 0.093582624	-0.082775
H	 0.9166223967	 1.8343326143	 0.6066592601	 0.261915
H	-0.756297868	 1.6787398348	 1.0287420178	 0.260005
H	-2.0706352763	-0.0597108257	 0.4087312537	 0.062326
H	-2.0111103804	-0.6606425696	-2.4234507805	 0.090428
H	 0.2011601192	-2.5920953104	-1.7785259428	 0.12639
H	-3.5341446076	-2.4610839241	-0.5549139014	 0.095424
H	-0.9625191562	-2.6706299946	 0.9928108982	 0.090426
46.6685	135.906	162.3539	196.7014	367.3133	378.823	526.5961	595.0699	632.2995	735.4685	773.8979	788.969	800.6212	845.9404	847.5036	904.2136	916.3703	930.0185	976.2123	990.5525	1028.3431	1085.6541	1097.9611	1130.7104	1142.3672	1156.365	1168.414	1174.7966	1221.6429	1262.1357	1297.1713	1325.3317	1425.8321	1616.1117	1783.7169	3045.7795	3116.9609	3127.6842	3134.7285	3192.7046	3605.3778	3744.2882
NC(=O)C1C2C3OC2C13	NC(=O)[C@H]1[C@H]2[C@@H]3O[C@H]2[C@H]13	
InChI=1S/C6H7NO2/c7-6(8)1-2-4-3(1)5(2)9-4/h1-5H,(H2,7,8)	InChI=1S/C6H7NO2/c7-6(8)1-2-4-3(1)5(2)9-4/h1-5H,(H2,7,8)/t1-,2-,3+,4-,5+
