17
gdb 113626	3.63109	0.87046	0.83338	4.4963	76.84	-0.2784	-0.0895	0.189	1434.7065	0.134643	-418.001572	-417.992205	-417.991261	-418.036793	32.804	
C	-0.3032988693	 1.6476538705	 0.3359830375	-0.382048
C	 0.2162350929	 0.2847330033	-0.1388052686	-0.198218
C	 0.9163529672	-0.4537035335	 0.9770011293	 0.010431
N	 0.0874855583	-1.1790646872	 1.9255781244	-0.306522
C	 0.9940919594	-1.9645254245	 1.0739020835	-0.178812
C	 0.3684238751	-2.8409168233	 0.0450487773	 0.339119
O	-0.7496393621	-2.742688979	-0.3950508937	-0.276113
C	 1.280103584	-3.8912413321	-0.4688330307	 0.210882
N	 1.996375021	-4.7105820852	-0.8599824111	-0.299964
H	 0.5115696773	 2.2858697108	 0.6958256493	 0.112213
H	-0.8051226103	 2.1766254439	-0.4789745812	 0.122401
H	-1.0214920415	 1.5228386241	 1.1519226541	 0.134167
H	-0.6134842062	-0.3245260462	-0.5047058013	 0.143561
H	 0.9198178832	 0.4185271608	-0.9698562643	 0.104351
H	 1.8037063999	 0.0456532918	 1.3689229837	 0.10178
H	 0.4634904889	-1.1369573238	 2.8690833284	 0.247444
H	 1.9069836522	-2.3684225405	 1.5048209733	 0.115329
39.3004	83.0982	122.9854	155.6629	208.7495	242.2784	274.7356	294.5662	421.9449	440.393	509.5676	596.0975	740.5453	768.8168	801.2793	853.463	876.6713	918.3934	955.2521	1032.3642	1038.2168	1084.3849	1099.178	1143.8331	1191.616	1219.8268	1253.3762	1309.2757	1347.0349	1408.5907	1426.1926	1469.8963	1483.7835	1499.7384	1508.4879	1789.2213	2335.8662	3035.2174	3037.2305	3093.1133	3098.8574	3117.1363	3122.1441	3142.8048	3510.2566
CCC1NC1C(=O)C#N	CC[C@H]1N[C@H]1C(=O)C#N	
InChI=1S/C6H8N2O/c1-2-4-6(8-4)5(9)3-7/h4,6,8H,2H2,1H3	InChI=1S/C6H8N2O/c1-2-4-6(8-4)5(9)3-7/h4,6,8H,2H2,1H3/t4-,6-/m1/s1
