13
gdb 132388	2.05588	1.83391	0.96954	2.7671	64.4	-0.2313	-0.0075	0.2239	1087.6391	0.090915	-494.12059	-494.113371	-494.112426	-494.15217	27.89	
N	 0.0158662163	 1.3051574843	-0.1160265621	-0.553936
C	 0.0153598731	-0.0524472699	-0.0611624571	 0.448202
N	-1.1848356662	-0.6529113937	 0.0024689415	-0.377797
C	-1.1434653651	-1.9677133088	 0.0135070514	 0.353232
F	-2.317365795	-2.5793701592	 0.0767979123	-0.063195
C	 0.0040476499	-2.7407218592	-0.0318984868	-0.398773
C	 1.1806346254	-1.9930286726	-0.0875310899	 0.456434
O	 2.3580314512	-2.6332449833	-0.1276417422	-0.408551
N	 1.2095658348	-0.6643359277	-0.1010608059	-0.415127
H	 0.8877326125	 1.7810594925	 0.0365530473	 0.265243
H	-0.8424872292	 1.7790901111	 0.105608768	 0.269583
H	-0.0076388184	-3.8195557559	-0.0192827456	 0.123571
H	 3.0379873506	-1.9456921076	-0.1659166406	 0.301115
187.594	213.7512	242.0918	313.9275	334.4124	355.0029	515.6512	529.2964	554.4243	559.1721	592.0659	654.5402	711.666	722.367	802.5336	825.0254	990.3831	995.9581	1095.9073	1133.7024	1180.9267	1256.6772	1347.2552	1472.1314	1491.7349	1505.4791	1628.8766	1635.0537	1670.0852	3252.141	3620.8815	3753.3944	3763.1555
NC1=NC(F)=CC(O)=N1	Nc1nc(F)cc(O)n1	
InChI=1S/C4H4FN3O/c5-2-1-3(9)8-4(6)7-2/h1H,(H3,6,7,8,9)	InChI=1S/C4H4FN3O/c5-2-1-3(9)8-4(6)7-2/h1H,(H3,6,7,8,9)
