16
gdb 68647	2.46996	2.0617	1.55339	3.0969	67.48	-0.2379	-0.0243	0.2135	890.2167	0.126411	-437.912815	-437.905684	-437.90474	-437.944187	28.396	
N	-0.0206653391	 1.4626178734	 0.0836440139	-0.605917
C	-0.0157000017	 0.0240161419	 0.0398168511	 0.129713
C	-1.3686974	-0.737905631	-0.0376536357	-0.257315
C	-0.6483558199	-2.0951931456	-0.0416207547	 0.048602
O	 0.2351101914	-1.943706114	-1.2193027783	-0.243691
C	 0.6631052739	-0.6536535005	-1.1877752528	 0.415298
O	 1.4140907795	-0.1655427581	-1.9825723384	-0.362468
C	 0.2275382781	-1.9698685462	 1.1994724679	-0.089886
C	 0.6178612739	-0.6942260123	 1.2359283579	-0.086546
H	 0.9256858895	 1.7959940127	-0.0907648713	 0.243182
H	-0.5700590235	 1.8211547652	-0.6934702024	 0.235851
H	-1.9919825169	-0.5680143513	 0.840586034	 0.125525
H	-1.9311105803	-0.5553044942	-0.9590731181	 0.112508
H	-1.2238162866	-3.0050470632	-0.1882122006	 0.097523
H	 0.5276211792	-2.7882930383	 1.838518638	 0.117166
H	 1.3082424425	-0.2107666186	 1.9142313794	 0.120455
110.9942	168.273	263.9833	342.2434	397.838	454.7034	467.9382	565.3688	632.6249	672.534	697.156	739.933	785.1261	843.9613	875.3246	902.7393	923.7567	942.0349	960.9775	966.0728	998.9245	1070.7515	1086.5048	1091.8818	1170.7178	1228.4846	1273.4498	1289.6583	1320.5376	1346.4935	1370.1853	1492.1587	1639.6501	1663.4051	1881.3101	3059.5482	3141.4137	3163.7884	3217.7038	3243.2733	3477.8262	3546.6469
NC12CC(OC1=O)C=C2	N[C@@]12C[C@@H](OC1=O)C=C2	
InChI=1S/C6H7NO2/c7-6-2-1-4(3-6)9-5(6)8/h1-2,4H,3,7H2	InChI=1S/C6H7NO2/c7-6-2-1-4(3-6)9-5(6)8/h1-2,4H,3,7H2/t4-,6-/m0/s1
