23
gdb 92697	2.66785	1.208	0.88619	1.2777	88.42	-0.2302	0.029	0.2593	1376.9156	0.206017	-388.318629	-388.309081	-388.308137	-388.352393	37.25	
C	 0.0067781941	 1.565624353	-0.053366968	-0.403286
C	 0.0460479321	 0.0285408934	 0.0232273536	-0.078477
C	 0.6543105809	-0.5456415419	-1.2677537122	-0.191755
C	 0.963084991	-2.0309226053	-1.1464074795	 0.111002
O	 1.4232035998	-2.4800844039	-2.4152047554	-0.442832
C	 1.9983415765	-2.2498795271	-0.0395522707	-0.281235
C	 1.6308758445	-1.4989725498	 1.2131723329	-0.167874
C	 0.7592003504	-0.4866547296	 1.2664616951	 0.340995
C	 0.4057639412	 0.1618365131	 2.5810407013	-0.480859
H	 1.0194461402	 1.9841708212	-0.0475567243	 0.116672
H	-0.4807864246	 1.8844122011	-0.9803738785	 0.113491
H	-0.5463999707	 2.0069964274	 0.7798599478	 0.113676
H	-1.0000626868	-0.3132926087	 0.0905228525	 0.07916
H	-0.0235228381	-0.3791389055	-2.1116261372	 0.0989
H	 1.5889510335	-0.0193256776	-1.5028987597	 0.099247
H	 0.0361382291	-2.562169579	-0.8697934834	 0.061805
H	 1.6585900018	-3.4098162348	-2.3325001846	 0.277476
H	 2.0949909092	-3.3216858724	 0.1846076332	 0.087295
H	 2.9809314141	-1.930501948	-0.4170159054	 0.112004
H	 2.1052664816	-1.8309089041	 2.1348084808	 0.073699
H	 0.8791688399	-0.3583441052	 3.4178039553	 0.116557
H	 0.7166634404	 1.2123302974	 2.6193408722	 0.125867
H	-0.6796057701	 0.1529332162	 2.7478992943	 0.118471
81.3466	147.1644	202.0755	234.2152	279.1792	283.0349	295.3207	319.9775	339.8775	389.056	420.945	463.0536	500.3749	585.2451	671.3946	723.1521	828.5316	879.0672	896.6053	936.3623	983.8576	993.3745	1041.482	1058.0159	1064.3431	1088.6472	1109.7442	1122.2091	1126.2343	1175.0532	1191.0728	1246.74	1276.9457	1309.4896	1325.8568	1331.2571	1357.454	1375.9292	1395.9741	1409.48	1417.2607	1442.1147	1479.2033	1481.3403	1489.2014	1497.5333	1502.6182	1508.8282	1729.0218	2949.4676	2963.3489	2996.5104	3017.2747	3022.4951	3026.9748	3033.8168	3066.7531	3075.1141	3098.9327	3109.1	3114.3141	3137.1221	3813.6837
CC1CC(O)CC=C1C	C[C@H]1C[C@@H](O)CC=C1C	
InChI=1S/C8H14O/c1-6-3-4-8(9)5-7(6)2/h3,7-9H,4-5H2,1-2H3	InChI=1S/C8H14O/c1-6-3-4-8(9)5-7(6)2/h3,7-9H,4-5H2,1-2H3/t7-,8-/m0/s1
