21
gdb 59975	2.76214	1.00977	0.81955	3.4838	76.47	-0.2235	0.0638	0.2873	1459.6588	0.181146	-457.580732	-457.569842	-457.568897	-457.617318	39.125	
C	-0.0201293945	 1.5285314242	-0.1236049571	-0.413041
C	 0.0472125764	 0.0196816079	 0.0993279388	 0.137323
O	 0.7099790917	-0.2953929494	 1.3280751864	-0.430201
C	-1.3433147499	-0.6301234099	 0.0248420502	-0.178509
N	-1.3126092437	-2.0856464465	 0.0083457232	-0.086613
C	-1.2395457206	-2.8077130662	 1.2674779634	-0.355531
C	-1.3266085279	-2.7013965869	-1.2205271691	 0.445038
N	-1.3882509298	-4.0935011264	-1.1973777936	-0.570866
O	-1.2480511154	-2.082689209	-2.2719588823	-0.419721
H	 0.9764019933	 1.9682261023	-0.0296196515	 0.126791
H	-0.4121498214	 1.7638067632	-1.1175245481	 0.132095
H	-0.6765469529	 2.0072916433	 0.6157425089	 0.104026
H	 0.665983643	-0.4389468288	-0.6786912834	 0.114003
H	 0.3337875413	 0.2698495883	 2.0123064227	 0.274895
H	-1.9480214038	-0.298826162	 0.8805244205	 0.081208
H	-1.8384010774	-0.3037214724	-0.8918742329	 0.136896
H	-2.2328529516	-3.0502752514	 1.6766174759	 0.106893
H	-0.6757126664	-3.734552834	 1.1392721847	 0.142927
H	-0.6980270856	-2.1977506512	 1.9905994287	 0.145851
H	-1.9357284997	-4.5341452914	-0.4739861806	 0.248991
H	-1.5658157051	-4.4605942339	-2.1203081548	 0.257545
39.4286	76.5049	89.0026	146.1909	159.8581	230.495	258.6208	300.8866	317.0894	346.1631	382.6821	441.7933	455.7932	473.2084	568.0943	576.2419	604.0122	779.2122	793.3372	839.3269	911.4246	938.2949	1042.2793	1070.9238	1086.5929	1105.1457	1146.9873	1154.0422	1191.8323	1273.3795	1303.0939	1323.14	1363.1101	1397.9117	1408.821	1420.4345	1427.6971	1452.9875	1489.7606	1492.3772	1496.6561	1509.2292	1518.5934	1624.2766	1770.9007	2979.7556	3010.3417	3019.3626	3069.0697	3095.1878	3097.798	3115.8694	3123.514	3148.4647	3576.2363	3687.6026	3792.7993
CC(O)CN(C)C(N)=O	C[C@@H](O)CN(C)C(=O)N	
InChI=1S/C5H12N2O2/c1-4(8)3-7(2)5(6)9/h4,8H,3H2,1-2H3,(H2,6,9)	InChI=1S/C5H12N2O2/c1-4(8)3-7(2)5(6)9/h4,8H,3H2,1-2H3,(H2,6,9)/t4-/m1/s1
