17
gdb 84516	2.89662	1.73934	1.45462	2.4164	72.05	-0.2268	-0.0014	0.2254	939.1958	0.136527	-421.760001	-421.752696	-421.751752	-421.791389	29.251	
O	-0.0519579848	 1.4337248603	-0.0854885238	-0.427948
C	 0.0254707308	 0.0139295075	 0.0056518171	-0.031709
C	 0.6650699859	-0.4745227958	 1.31461437	-0.096561
C	-0.137620805	-1.2711076123	 2.0339202814	-0.17319
C	-1.4559981347	-1.4390398082	 1.3611236844	 0.098118
C	-2.3409074331	-0.2129171641	 1.1574738931	-0.354766
C	-1.3558060886	-0.5973455317	 0.1086356834	 0.406567
O	-1.8291732563	-1.6427739529	-0.7528626398	-0.330836
C	-1.8835666974	-2.549756984	 0.3879296596	-0.137254
H	 0.8458891203	 1.7788119085	-0.1255935585	 0.284068
H	 0.5422931872	-0.3996929542	-0.8735869669	 0.089966
H	 1.6557129187	-0.1463746365	 1.6194417764	 0.093433
H	 0.1219245964	-1.7047449402	 2.9946157534	 0.102226
H	-3.3968357283	-0.3494083374	 0.9449174688	 0.121581
H	-2.0877840847	 0.6508001408	 1.759884836	 0.137728
H	-1.1418442591	-3.3492713948	 0.2870616397	 0.111428
H	-2.8820240073	-2.9819288749	 0.5189764657	 0.107149
127.7208	217.9805	241.4388	300.943	323.0449	396.8573	435.9296	553.4282	585.7763	664.3216	703.9415	770.4153	799.3067	869.2599	884.3795	928.6334	945.6533	948.3822	976.6265	983.2172	1003.3377	1060.7948	1066.1258	1113.5275	1136.7795	1152.9966	1180.9638	1235.7054	1269.9798	1307.3707	1327.5121	1361.8556	1379.9189	1423.9247	1468.7275	1513.3512	1641.2381	2989.1193	3027.4517	3080.5422	3131.922	3158.2244	3185.9426	3237.4772	3816.2526
OC1C=CC23CC12OC3	O[C@H]1C=C[C@@]23C[C@@]12OC3	
InChI=1S/C7H8O2/c8-5-1-2-6-3-7(5,6)9-4-6/h1-2,5,8H,3-4H2	InChI=1S/C7H8O2/c8-5-1-2-6-3-7(5,6)9-4-6/h1-2,5,8H,3-4H2/t5-,6-,7+/m0/s1
