16
gdb 67767	3.11332	1.7396	1.4052	4.0915	72.97	-0.238	-0.0279	0.2101	939.827	0.124451	-400.732684	-400.725579	-400.724635	-400.763857	28.431	
C	-0.0217253594	 1.4911557893	 0.0656918616	-0.486086
C	-0.0581163601	-0.0121195783	 0.0872653736	 0.313092
C	-1.3030544264	-0.7651614155	-0.2835360653	-0.144223
C	-1.2000579929	-2.0349043354	 0.1163822353	-0.091641
C	 0.1849995386	-2.2533451622	 0.6913256622	-0.245748
C	 0.6852923668	-0.8321190757	 1.050746279	-0.085233
N	 1.2935270662	-0.6276347511	-0.3562599284	-0.250617
C	 1.1380748353	-2.0532528817	-0.5191818425	 0.44054
O	 1.723777158	-2.7869949452	-1.2518900429	-0.312396
H	 0.9373034926	 1.8618825483	 0.4333389938	 0.138757
H	-0.1629546275	 1.8664460518	-0.952309186	 0.137742
H	-0.8226056609	 1.8946633706	 0.6944419158	 0.126933
H	-2.1208787648	-0.3110000769	-0.8270124165	 0.112798
H	-1.8945244288	-2.8418896382	-0.0750317543	 0.123452
H	 0.3527557435	-3.1094750223	 1.3401586915	 0.102292
H	 1.2327009098	-0.5117308273	 1.9287585731	 0.120337
145.4528	197.037	235.566	305.4108	367.9833	444.7008	514.9483	572.0614	609.8997	680.3619	727.048	753.1173	808.7712	827.9374	853.5839	872.6193	927.2892	949.0473	959.2513	984.5193	1002.2386	1050.9899	1077.8329	1118.1331	1149.5839	1220.0562	1237.4849	1273.4269	1339.4098	1392.5756	1419.5547	1484.1298	1492.8118	1646.1888	1902.0061	3041.7474	3108.1204	3133.303	3153.6215	3194.0463	3214.9861	3238.8017
CC12C=CC3C1N2C3=O	C[C@]12C=C[C@@H]3[C@H]1N2C3=O	
InChI=1S/C7H7NO/c1-7-3-2-4-5(7)8(7)6(4)9/h2-5H,1H3	InChI=1S/C7H7NO/c1-7-3-2-4-5(7)8(7)6(4)9/h2-5H,1H3/t4-,5-,7+,8?/m1/s1
