18
gdb 23236	2.84378	1.39474	1.09516	1.1163	75.36	-0.2452	-0.003	0.2422	1126.3597	0.146824	-439.006813	-438.99833	-438.997386	-439.040034	31.803	
C	 0.3507427333	 1.6508184981	-0.1556660948	-0.405467
C	 0.1580205452	 0.1536179305	 0.0545371183	-0.10233
C	 0.6103922267	-0.8220559465	-1.0769715733	 0.100238
O	 1.7695283275	-0.3635641482	-1.7973344488	-0.284699
C	 2.6614027376	-1.1485120329	-0.9719169136	-0.081544
C	 1.5002352201	-1.6202504555	-0.0679603109	-0.190806
C	 1.0977593637	-0.612960284	 0.9848406138	 0.408449
N	 1.4315944845	-0.5643809453	 2.2056501165	-0.245174
O	 0.8095878411	 0.5158434604	 2.860634288	-0.391766
H	 1.3520054658	 1.856745601	-0.5409770991	 0.131691
H	-0.3742564129	 2.0328817404	-0.8818308086	 0.115371
H	 0.2175188472	 2.1873569273	 0.7860819787	 0.137421
H	-0.8798728261	-0.0619911281	 0.343242889	 0.099601
H	-0.1505297125	-1.2500687823	-1.7332712585	 0.07982
H	 3.1252400286	-1.9561102136	-1.5515375848	 0.10785
H	 3.4417253147	-0.5447958885	-0.49662273	 0.116087
H	 1.4205375475	-2.6811536553	 0.1626731365	 0.097716
H	 1.1462935078	 0.4296391626	 3.7588720715	 0.307543
71.2702	164.2473	172.2191	193.3974	238.1504	271.8103	353.287	407.2216	467.8843	546.8157	613.3547	668.6741	750.3422	823.2116	834.774	885.4417	940.9598	963.6463	981.0651	1008.9201	1038.9731	1072.7315	1101.971	1117.7251	1143.0188	1160.6912	1170.8046	1220.9207	1249.537	1279.9302	1305.8285	1326.7953	1354.4378	1401.718	1406.914	1492.1565	1500.2958	1521.4587	1775.7356	3018.8498	3019.8155	3045.863	3075.3458	3086.5805	3116.2951	3130.1509	3138.5354	3818.4267
CC1C2OCC2C1=NO	C[C@H]1[C@H]2OC[C@H]2C1=NO	
InChI=1S/C6H9NO2/c1-3-5(7-8)4-2-9-6(3)4/h3-4,6,8H,2H2,1H3	InChI=1S/C6H9NO2/c1-3-5(7-8)4-2-9-6(3)4/h3-4,6,8H,2H2,1H3/t3-,4+,6-/m1/s1
