19
gdb 39676	3.65909	1.14843	1.1013	3.0601	76.2	-0.2371	0.0087	0.2458	1173.7305	0.160193	-422.999571	-422.991516	-422.990572	-423.033176	29.626	
C	-0.0948303273	 1.4254723125	-0.2162329275	-0.078525
O	 1.2271860142	 1.6559533513	 0.3088405433	-0.27317
C	 1.3943949848	 0.261823531	 0.6368739952	-0.0865
C	 0.0393296078	-0.0995397126	-0.0154362827	-0.041783
C	-0.9963673849	-0.8069273618	 0.8563557588	 0.05339
O	-1.1201568686	-0.1504456876	 2.1219501687	-0.271638
C	-2.48487318	 0.1532234771	 2.4005222457	-0.115265
C	-3.2330943533	-0.2480880161	 1.1604050359	-0.096011
C	-2.3944664812	-0.800900833	 0.2921207116	-0.091413
H	-0.8690346623	 1.8984954907	 0.400142387	 0.10219
H	-0.1937932804	 1.7758163211	-1.2506144264	 0.094612
H	 2.2903147027	-0.1655937315	 0.1706935938	 0.094293
H	 1.4307655847	 0.0986591537	 1.7202339064	 0.114332
H	 0.1473689334	-0.6528252064	-0.9527667914	 0.07734
H	-0.6459599344	-1.8414643653	 1.0246798987	 0.082105
H	-2.8239988512	-0.4070424525	 3.2872688942	 0.106984
H	-2.5847618856	 1.2231519732	 2.6356607456	 0.112147
H	-4.2993651418	-0.1059921802	 1.0385162491	 0.10984
H	-2.6361625565	-1.2029238037	-0.6835622661	 0.10707
67.2705	89.5026	95.374	191.4164	250.4027	345.7844	422.9407	576.2257	679.1709	762.8248	781.0572	816.4583	863.6531	892.1293	916.9521	933.5644	959.5367	977.766	1018.6492	1040.927	1043.6714	1052.6833	1068.0797	1116.4003	1126.9296	1156.7179	1166.6828	1172.4408	1200.2473	1250.1089	1296.5036	1313.8034	1338.3816	1357.4672	1363.3602	1382.148	1406.9706	1505.0077	1521.447	1531.2582	1689.5935	2932.8199	2970.5639	3003.2498	3012.583	3022.8247	3054.3568	3063.2548	3077.1294	3207.0307	3231.4424
C1OCC1C1OCC=C1	C1OCC1[C@H]1OCC=C1	
InChI=1S/C7H10O2/c1-2-7(9-3-1)6-4-8-5-6/h1-2,6-7H,3-5H2	InChI=1S/C7H10O2/c1-2-7(9-3-1)6-4-8-5-6/h1-2,6-7H,3-5H2/t7-/m0/s1
