17
gdb 123918	3.45642	1.59166	1.13603	1.8624	73.86	-0.1988	0.0089	0.2077	1036.8252	0.140966	-414.205987	-414.198777	-414.197833	-414.237519	28.147	
C	-0.0294184878	 1.5061495433	 0.0317812356	-0.212385
C	 1.39218724	 2.1014607388	 0.0522968256	-0.156638
N	 2.2300639406	 1.6003574417	 1.1468231229	-0.399814
C	 1.9408194126	 0.3257579573	 1.5906333279	 0.345423
N	 2.5635678626	-0.3247719342	 2.5723787626	-0.327147
N	 1.9238865865	-1.5042257117	 2.5766894361	-0.09838
N	 0.9543484614	-1.6652099638	 1.6874622713	-0.28962
C	 0.9391527925	-0.501588525	 1.0387059586	 0.2716
C	 0.0042152455	-0.0369219671	-0.0295130899	-0.327443
H	-0.5659680972	 1.8208547889	 0.9347606041	 0.107655
H	-0.5714843672	 1.9110175575	-0.82858625	 0.101371
H	 1.8821620474	 1.8749777854	-0.9059196213	 0.110446
H	 1.3440655117	 3.1909101164	 0.1298820811	 0.108021
H	 2.4877208026	 2.2629196216	 1.8606998235	 0.245157
H	 2.1704084741	-2.2293951826	 3.2278051756	 0.286555
H	-0.995924768	-0.4570554659	 0.1124815281	 0.119984
H	 0.3443686226	-0.3612031106	-1.0221235418	 0.115214
103.7874	208.0431	262.2677	326.3949	374.9531	414.3286	417.2061	467.6579	538.6117	684.9853	693.0525	741.9966	763.2924	863.0674	874.2529	949.042	989.2582	998.5398	1076.2398	1108.4642	1169.6849	1190.7619	1208.2003	1216.0747	1262.0099	1298.1748	1344.7011	1365.0703	1373.4142	1396.7548	1448.7755	1465.3859	1481.2598	1486.3998	1502.1744	1570.6361	1614.3602	2996.6451	3017.0516	3037.2304	3082.2828	3087.7374	3090.4451	3625.9375	3690.3702
C1CNC2=NNN=C2C1	C1CNc2n[nH]nc2C1	
InChI=1S/C5H8N4/c1-2-4-5(6-3-1)8-9-7-4/h1-3H2,(H2,6,7,8,9)	InChI=1S/C5H8N4/c1-2-4-5(6-3-1)8-9-7-4/h1-3H2,(H2,6,7,8,9)
