15
gdb 65856	3.49454	1.11205	1.07849	3.5371	66.26	-0.2603	0.0021	0.2624	1131.1211	0.112846	-453.995433	-453.987139	-453.986195	-454.028491	30.651	
O	-0.1086201817	 1.452415449	 0.0252954876	-0.443527
C	-0.0104492603	 0.0399792434	 0.0042207303	 0.220493
C	 0.6005855427	-0.5147609116	 1.3307970519	-0.196346
N	-0.5627808165	-0.6451940755	 2.175638781	-0.309177
C	-1.7661610007	-0.6762287865	 1.5195384664	 0.407716
O	-2.8518499809	-0.840347391	 2.0210700707	-0.365981
C	-1.4535798936	-0.4931349873	 0.0294958585	-0.352554
C	 0.766839116	-0.4032576043	-1.167710424	 0.240607
N	 1.4012207986	-0.7266525781	-2.0777741416	-0.329756
H	 0.7795547026	 1.8280139746	 0.0231838102	 0.295693
H	 1.1111055081	-1.4718170064	 1.1582579675	 0.13173
H	 1.3298135265	 0.1959926426	 1.7335613268	 0.123091
H	-0.514081295	-0.8234632874	 3.1658347675	 0.261993
H	-2.1390179223	 0.2093372093	-0.4437954232	 0.163543
H	-1.5387748336	-1.4611461608	-0.4718744097	 0.152474
74.3478	143.6726	158.4313	197.8197	330.8454	377.5739	392.8293	439.481	456.6461	486.4794	582.8471	586.5995	617.8399	693.7527	803.4789	868.1764	922.0689	951.8397	1064.4439	1068.011	1086.151	1118.014	1196.827	1254.8612	1263.7769	1298.3274	1333.8563	1379.4806	1447.1806	1449.1928	1516.2659	1848.27	2355.8548	3012.8968	3068.3595	3082.9668	3152.9628	3649.8831	3801.1778
OC1(CNC(=O)C1)C#N	O[C@]1(CNC(=O)C1)C#N	
InChI=1S/C5H6N2O2/c6-2-5(9)1-4(8)7-3-5/h9H,1,3H2,(H,7,8)	InChI=1S/C5H6N2O2/c6-2-5(9)1-4(8)7-3-5/h9H,1,3H2,(H,7,8)/t5-/m0/s1
