14
gdb 5474	3.31037	1.95331	1.23786	4.4382	68.96	-0.2424	-0.0536	0.1888	922.3484	0.106995	-382.587361	-382.580059	-382.579115	-382.619361	25.919	
C	-0.011452012	 1.5369734087	 0.0728521648	-0.509231
C	 0.0133912858	 0.0408116073	 0.020445403	 0.18593
C	-0.0007570212	-0.7748114794	-1.0909521879	 0.180837
O	 0.0320333208	-2.0897808717	-0.7083350957	-0.155521
C	 0.0667362046	-2.1051095064	 0.634796111	 0.006916
C	 0.0575512944	-0.8406759	 1.1431625415	-0.261766
C	-0.0422900016	-0.478746605	-2.5110880457	 0.067561
O	-0.0506790667	-1.300848913	-3.401355859	-0.284056
H	 0.8763662131	 1.9233069772	 0.5853727389	 0.142998
H	-0.0450570349	 1.9849212829	-0.9218513798	 0.139024
H	-0.8845294255	 1.8924662357	 0.6309811397	 0.142991
H	 0.095575285	-3.0810371702	 1.0931484351	 0.149856
H	 0.079427197	-0.5660637055	 2.1865428674	 0.121376
H	-0.0669315389	 0.6108782394	-2.7279657432	 0.073085
76.7431	141.5304	192.522	224.9949	308.4098	317.0589	535.3152	624.6051	625.1266	671.3378	792.873	801.3968	849.9451	906.7634	988.0468	1012.9228	1058.8584	1072.9342	1124.5242	1204.1715	1283.6574	1289.1942	1405.848	1421.981	1452.1489	1481.0282	1489.7834	1523.5127	1625.4968	1780.8963	2894.8691	3037.8549	3088.7871	3132.1958	3251.0541	3276.9638
CC1=C(OC=C1)C=O	Cc1c(occ1)C=O	
InChI=1S/C6H6O2/c1-5-2-3-8-6(5)4-7/h2-4H,1H3	InChI=1S/C6H6O2/c1-5-2-3-8-6(5)4-7/h2-4H,1H3
