14
gdb 128533	2.50668	1.50357	0.94544	2.1999	76.26	-0.2224	-0.0322	0.1901	1167.8969	0.100808	-432.823965	-432.81575	-432.814805	-432.857121	29.563	
C	 0.0174086118	 1.4541986324	-0.0502122185	-0.246532
O	 0.0019734962	 0.0248315481	-0.0048261983	-0.268529
C	 0.5872346537	-0.595280782	-1.0291538671	 0.260627
C	 0.691582387	-1.9738857252	-1.1960897964	 0.149666
N	 1.3659195155	-2.0639187961	-2.3842100916	-0.277429
N	 1.649830503	-0.8709330206	-2.8993426054	-0.116025
N	 1.1746238708	 0.0323763515	-2.0725182071	-0.274831
C	 0.2666784757	-3.0701436995	-0.4333872805	 0.321287
C	-0.0938565479	-4.019957509	 0.213964456	-0.458203
H	 1.0435429392	 1.8334531119	-0.0618214629	 0.142166
H	-0.5039406186	 1.8223037129	-0.9388233028	 0.142139
H	-0.4971721482	 1.7810789185	 0.8535889414	 0.135074
H	 1.6471955931	-2.9014669543	-2.8699783805	 0.288147
H	-0.4173029613	-4.8482933588	 0.7943703238	 0.202441
87.6354	119.8365	167.9949	179.4971	247.7337	334.3565	411.1871	478.7349	540.7087	555.5837	569.3456	626.905	689.1905	711.5378	741.1238	758.548	1000.6327	1055.9225	1135.4134	1179.2741	1204.6901	1218.9758	1240.8524	1326.1167	1373.1498	1457.8602	1482.1465	1499.6523	1538.2137	1624.5783	2233.3339	3041.2094	3112.3114	3154.0693	3500.1457	3650.931
COC1=C(NN=N1)C#C	COc1c([nH]nn1)C#C	
InChI=1S/C5H5N3O/c1-3-4-5(9-2)7-8-6-4/h1H,2H3,(H,6,7,8)	InChI=1S/C5H5N3O/c1-3-4-5(9-2)7-8-6-4/h1H,2H3,(H,6,7,8)
