14
gdb 131059	6.76843	0.80299	0.72113	2.8971	64.34	-0.2635	-0.0406	0.2229	1439.8525	0.101683	-470.02734	-470.019314	-470.018369	-470.062864	27.088	
O	-0.1006363045	-0.0113527824	-0.0461864167	-0.321179
C	 0.0257557524	 1.1201163295	 0.3721204766	 0.159482
N	 1.2060733592	 1.7887962683	 0.40749027	-0.286374
C	 2.4201613782	 1.1729910732	-0.0804802812	-0.258609
C	 3.5410674645	 2.1513647409	 0.0111398645	 0.442999
N	 3.4941253543	 3.3714132069	 0.4580851657	-0.329538
C	 4.7997177026	 3.774031797	 0.3046254206	 0.042623
N	 5.601558671	 2.8791196068	-0.1978273273	-0.103806
O	 4.7532986897	 1.7767012255	-0.3986307172	-0.198638
H	-0.8106823476	 1.7258536955	 0.770060539	 0.088391
H	 1.2665438048	 2.7351930119	 0.7521025457	 0.273655
H	 2.6690524046	 0.2725722202	 0.496356403	 0.165689
H	 2.3007865582	 0.8399601731	-1.1193580032	 0.167733
H	 5.1556945125	 4.7573061936	 0.5749137204	 0.157572
9.0499	63.0183	129.4825	230.1846	240.932	274.1807	411.5825	516.2741	648.3449	690.2114	691.8356	859.1814	902.9716	931.2359	982.4614	1019.4366	1033.9963	1038.7946	1058.2491	1192.1327	1220.6408	1233.8641	1245.6822	1295.6044	1401.6836	1421.7837	1493.6782	1509.326	1538.4834	1623.9836	1802.6702	2955.455	3028.5419	3050.1956	3265.9622	3622.4894
O=CNCC1=NC=NO1	O=CNCc1ncno1	
InChI=1S/C4H5N3O2/c8-3-5-1-4-6-2-7-9-4/h2-3H,1H2,(H,5,8)	InChI=1S/C4H5N3O2/c8-3-5-1-4-6-2-7-9-4/h2-3H,1H2,(H,5,8)
