19
gdb 65122	3.46159	1.16074	0.94897	1.4509	79.19	-0.223	0.0185	0.2415	1252.344	0.158775	-423.008545	-422.999952	-422.999008	-423.042128	32.512	
O	-0.2096305989	 1.3234163112	-0.2628058149	-0.45684
C	-0.0118982356	-0.0482510624	-0.0446563611	 0.308073
C	-0.4001467942	-0.5794511764	 1.3270462811	-0.330187
C	-1.3009078743	-0.8096882159	 0.139608422	-0.296059
C	 1.1187488704	-0.6402344369	-0.7880768552	 0.269172
C	 1.878878812	-0.0373608997	-1.701810266	-0.256429
C	 2.9264285529	-0.9815452952	-2.2115027267	-0.1021
O	 2.6836658395	-2.2117597293	-1.5305188148	-0.268213
C	 1.6143185362	-2.0566570588	-0.6073292403	-0.162543
H	 0.5592379979	 1.7848671588	 0.0920879774	 0.281704
H	 0.1443348329	-1.4203389444	 1.7414108171	 0.119369
H	-0.7092952581	 0.1681010552	 2.0484884621	 0.12122
H	-2.203193902	-0.2137991743	 0.0696341987	 0.132621
H	-1.3765141378	-1.8080251341	-0.2748541563	 0.122266
H	 1.7645547311	 0.9787379098	-2.054268827	 0.103278
H	 2.8601423246	-1.1433931816	-3.2989977898	 0.106229
H	 3.9509429522	-0.6321253851	-2.0015905806	 0.101016
H	 1.9734878901	-2.2424441294	 0.4182778021	 0.101819
H	 0.8362016813	-2.8080522413	-0.8159818579	 0.105605
67.3152	97.6266	162.2573	184.8869	307.3914	320.0843	353.3382	410.1784	447.6829	518.9659	565.674	772.8436	773.8427	817.8322	835.7866	896.233	917.7143	923.1931	927.7744	979.4198	998.9959	1028.3051	1051.6052	1065.1012	1075.2001	1082.5612	1136.2489	1176.5912	1193.4174	1232.4249	1242.1384	1275.1993	1334.2796	1371.103	1385.2439	1399.3016	1451.3733	1489.182	1517.9146	1530.7602	1715.2965	2960.5105	2967.7028	2981.2429	2985.6465	3138.5665	3145.8447	3225.2709	3228.6328	3240.9837	3787.6145
OC1(CC1)C1=CCOC1	OC1(CC1)C1=CCOC1	
InChI=1S/C7H10O2/c8-7(2-3-7)6-1-4-9-5-6/h1,8H,2-5H2	InChI=1S/C7H10O2/c8-7(2-3-7)6-1-4-9-5-6/h1,8H,2-5H2
