20
gdb 53658	3.7638	0.68504	0.59711	3.1596	84.78	-0.2307	-0.0204	0.2102	1845.0517	0.167368	-403.122166	-403.110925	-403.109981	-403.161289	37.845	
C	 0.0908952848	 0.6751924917	 1.2906060071	-0.497642
C	 0.0335404592	-0.4585034705	 0.3784957303	 0.036662
C	-0.0091642167	-1.3989899319	-0.3739856157	 0.097708
C	-0.0905916481	-2.5254551068	-1.3145664405	-0.32964
N	-1.2648867772	-3.3955237753	-1.2135889006	-0.285818
C	-1.3604236918	-4.2664690201	-0.0419850945	-0.046132
C	-1.969768007	-3.66324674	 1.2266885747	-0.395764
C	-2.1009660708	-5.5312297504	-0.4842277221	 0.16035
O	-2.9147183657	-6.1226369195	 0.1759637444	-0.244027
H	 0.9864653304	 0.6353994982	 1.9203404784	 0.150016
H	 0.1099969638	 1.6252836363	 0.745500786	 0.149636
H	-0.7798336091	 0.6929584467	 1.955427663	 0.150564
H	-0.0589894078	-2.1324191862	-2.3387428673	 0.133126
H	 0.7994614575	-3.1586233578	-1.21112326	 0.133385
H	-2.1107502131	-2.8425421455	-1.3048062183	 0.223518
H	-0.3357407689	-4.6107288172	 0.1731140942	 0.10474
H	-2.9829339754	-3.2986707982	 1.0257646247	 0.116468
H	-2.0479873212	-4.4232572011	 2.0081587783	 0.131709
H	-1.3648820206	-2.8296650883	 1.586419581	 0.129601
H	-1.8167992725	-5.8604829941	-1.5084408632	 0.081542
24.0136	27.3543	62.4546	74.5642	135.6622	195.8396	208.2208	265.172	290.183	310.5443	376.3565	391.6871	414.2059	560.1354	621.8922	705.7044	780.2137	815.611	901.4479	933.568	985.134	1052.48	1054.0901	1081.0855	1117.0637	1142.1877	1158.6396	1170.4885	1270.0501	1312.9548	1345.1908	1367.9391	1392.9748	1411.4214	1415.8042	1464.2388	1477.4941	1478.9961	1483.3827	1493.5562	1506.769	1833.2717	2361.0636	2893.2709	2988.626	3020.46	3027.6044	3046.714	3052.3411	3088.4265	3089.0965	3115.2504	3147.9692	3525.2446
CC#CCNC(C)C=O	CC#CCN[C@@H](C)C=O	
InChI=1S/C7H11NO/c1-3-4-5-8-7(2)6-9/h6-8H,5H2,1-2H3	InChI=1S/C7H11NO/c1-3-4-5-8-7(2)6-9/h6-8H,5H2,1-2H3/t7-/m0/s1
