17
gdb 43080	2.62566	2.04631	1.72452	2.9233	69.87	-0.2312	-0.0208	0.2105	859.1978	0.139386	-421.843545	-421.837397	-421.836453	-421.873908	25.819	
O	-0.0231954133	 0.024556502	 0.0147717858	-0.329035
C	-0.0454990976	 1.2250852845	-0.0000716151	 0.450135
C	-1.2633662278	 2.1582714531	-0.0161557336	-0.191895
C	-1.4868998709	 2.67296364	 1.4397298347	-0.245532
C	-0.3209977355	 3.6659761936	 1.2064423479	-0.070447
C	 1.0583224098	 2.9814141317	 1.3541246999	-0.236172
C	 1.1428783215	 2.2061589121	 0.0130935648	-0.058827
O	 0.7092047674	 3.1853784232	-0.9392495006	-0.258395
C	-0.5419085695	 3.500704558	-0.3452849362	 0.122116
H	-2.1021841764	 1.7837165804	-0.6004756412	 0.093623
H	-2.4504399069	 3.1811294298	 1.529634566	 0.112216
H	-1.3889383227	 1.9479845238	 2.2524010906	 0.11304
H	-0.3774052874	 4.6526724106	 1.664517713	 0.077334
H	 1.8636234397	 3.7199019827	 1.3852547057	 0.117714
H	 1.1326420255	 2.3380032487	 2.2349729746	 0.115384
H	 2.1058148953	 1.7836405456	-0.2648626239	 0.098099
H	-1.0618253512	 4.2704042904	-0.9102901625	 0.090643
141.6245	265.1378	395.992	445.6834	487.4539	572.2507	594.3826	717.5176	744.2084	754.1324	821.9586	850.6528	873.7941	900.7573	920.5693	938.3914	956.3026	978.6311	998.0606	1040.1944	1065.4162	1089.5935	1095.7377	1157.921	1179.1985	1201.3855	1214.7355	1247.5211	1258.2513	1263.0022	1282.0748	1312.1178	1325.4856	1349.4649	1476.2986	1499.0521	1867.71	3056.7909	3062.1735	3108.7372	3112.4814	3119.595	3130.3181	3153.5212	3157.1018
O=C1C2CC3CC1OC23	O=C1[C@H]2C[C@H]3C[C@@H]1O[C@@H]23	
InChI=1S/C7H8O2/c8-6-4-1-3-2-5(6)9-7(3)4/h3-5,7H,1-2H2	InChI=1S/C7H8O2/c8-6-4-1-3-2-5(6)9-7(3)4/h3-5,7H,1-2H2/t3-,4+,5-,7+/m0/s1
