24
gdb 60177	3.2864	0.848	0.7714	2.1985	87.21	-0.2276	0.0821	0.3097	1625.488	0.214632	-405.52939	-405.518478	-405.517534	-405.565648	40.669	
C	 0.2440312914	 1.518814194	 0.0477600028	-0.387472
C	 0.0616255426	 0.0115773716	-0.0525198715	 0.139593
O	 0.6985327699	-0.5749853555	 1.0737223146	-0.440919
C	-1.4176988934	-0.3963008912	-0.1028302693	-0.142603
N	-1.5076601048	-1.8543878767	-0.0120634385	-0.142576
C	-2.1207546499	-2.4436318625	 1.181692653	-0.294184
C	-2.8035179087	-2.5387455011	-0.1399996609	 0.339981
C	-4.0693075519	-1.7344658864	-0.3709025461	-0.454646
C	-2.7391910783	-3.8370608824	-0.9206635569	-0.436734
H	 1.3076165581	 1.7700854018	 0.0706538065	 0.124198
H	-0.214226785	 2.025894759	-0.8072632712	 0.108686
H	-0.2144738057	 1.8986795734	 0.9665185679	 0.119544
H	 0.5362270996	-0.3519076217	-0.9792513306	 0.063787
H	 0.5410168529	-1.5234347259	 0.9949196069	 0.288996
H	-1.9603528227	 0.1133043368	 0.7089406612	 0.088237
H	-1.8497868525	-0.0648733113	-1.0549429921	 0.096572
H	-1.6118325171	-3.3060729386	 1.6070581414	 0.107282
H	-2.5394779837	-1.7604365678	 1.919598428	 0.109777
H	-4.1057812278	-0.8286062618	 0.2378819555	 0.120857
H	-4.1608959055	-1.4423780973	-1.423823236	 0.119734
H	-4.9481458381	-2.3390968572	-0.123014289	 0.121595
H	-3.5579474976	-4.5068333468	-0.6341065945	 0.112883
H	-2.8224643956	-3.6478163651	-1.9971706593	 0.115376
H	-1.790408136	-4.3480130573	-0.7411165417	 0.122035
36.6625	73.587	123.5755	194.3325	205.856	222.0706	244.0782	253.6761	313.7596	366.6968	397.768	442.7195	460.0822	469.5125	499.3159	516.8988	701.9045	795.4421	855.0401	891.3612	916.3341	944.0832	946.3421	960.47	1016.4358	1025.5531	1059.7535	1084.7051	1127.2515	1141.1232	1156.5661	1174.0633	1197.6504	1279.0766	1286.4811	1292.2908	1345.1938	1385.7999	1395.0598	1401.5857	1411.665	1421.2584	1443.5638	1474.0307	1480.824	1485.1591	1487.8007	1497.8883	1501.5404	1506.0332	1518.3567	2958.7391	2974.7232	3026.8667	3032.4469	3039.3403	3053.9762	3084.4138	3086.4763	3091.105	3110.5695	3120.6961	3122.5015	3125.8774	3166.6384	3789.7038
CC(O)CN1CC1(C)C	C[C@@H](O)CN1CC1(C)C	
InChI=1S/C7H15NO/c1-6(9)4-8-5-7(8,2)3/h6,9H,4-5H2,1-3H3	InChI=1S/C7H15NO/c1-6(9)4-8-5-7(8,2)3/h6,9H,4-5H2,1-3H3/t6-,8?/m1/s1
