19
gdb 119758	3.18608	0.54475	0.4677	6.0816	95.49	-0.1701	-0.0892	0.081	2314.0469	0.155239	-419.175999	-419.164699	-419.163755	-419.217793	37.618	
C	-0.7705392909	 2.3304800905	 0.0567203097	-0.306756
N	-0.8266032731	 0.8749938229	-0.1111575784	-0.4785
H	-1.0795060638	 0.4344499789	 0.7680770735	 0.235865
H	-1.5620160923	 0.6301859714	-0.7671521006	 0.235833
C	 1.70393572	-1.239470033	-1.1741486524	-0.452773
C	 1.2979955273	-2.5270030014	-1.2060228655	 0.411667
C	 0.1002488882	-3.2198263596	-0.9136409636	-0.399441
C	 0.2574729497	-4.6146754497	-1.1368646052	 0.359686
O	-0.4783233912	-5.5993851171	-1.0268053482	-0.436581
C	 1.6831662387	-4.7080037822	-1.5990965488	-0.09391
H	 2.2155912218	-5.6096868326	-1.8795537069	 0.160295
N	 2.2467468964	-3.5297373333	-1.6306461646	-0.247782
H	 0.0191573335	 2.581062106	 0.771723073	 0.126918
H	-0.5058032042	 2.7939538651	-0.8986591645	 0.126901
H	-1.704187302	 2.7956448227	 0.4094281706	 0.103482
H	 1.0272043074	-0.4482235683	-0.8617726942	 0.180505
H	 2.7154100592	-0.9715714285	-1.4605153333	 0.100978
H	-0.8014123628	-2.7393916993	-0.5688908866	 0.091201
H	 3.1943218479	-3.3171998226	-1.903699614	 0.282414
8.9722	17.2325	37.0055	54.8614	103.3849	104.9761	173.3126	299.5341	333.4	341.6166	466.1927	470.1759	610.7641	618.4409	681.4484	713.0598	719.9971	768.4465	875.5286	881.6982	906.7733	922.3021	953.6568	981.5813	1001.3576	1060.9814	1131.0085	1172.4566	1182.9649	1256.6927	1290.8628	1353.4433	1411.5027	1460.4963	1479.9847	1498.776	1518.168	1554.6335	1664.3896	1668.0084	1718.7297	2981.1407	3069.2597	3106.8924	3121.033	3215.9282	3226.4487	3258.5358	3496.4372	3570.9308	3626.8229	8.9638	17.2321	37.0047	54.8605	103.3848	104.9753	173.3124	299.5342	333.3998	341.6159	466.1927	470.1761	610.7642	618.4409	681.4482	713.0596	719.9972	768.447	875.5283	881.6983	906.7732	922.3029	953.656	981.5815	1001.3581	1060.9813	1131.0079	1172.4561	1182.9651	1256.6929	1290.8632	1353.4437	1411.5016	1460.4966	1479.9858	1498.7764	1518.1683	1554.6342	1664.3902	1668.0081	1718.7299	2981.1406	3069.2597	3106.8923	3121.033	3215.9281	3226.4486	3258.5359	3496.4369	3570.9306	3626.8234
C[NH2+]CC1=CC(=O)[CH-]N1	CN.[CH2]C1=CC(=O)[CH]N1	
InChI=1S/C6H9N2O/c1-7-3-5-2-6(9)4-8-5/h2,4,7-8H,3H2,1H3/q-1/p+1	InChI=1S/C5H5NO.CH5N/c1-4-2-5(7)3-6-4;1-2/h2-3,6H,1H2;2H2,1H3
