18
gdb 104905	2.11791	1.51347	1.02294	4.8537	73.23	-0.2839	0.0021	0.2861	1199.4631	0.14428	-439.079805	-439.069744	-439.068799	-439.114842	36.031	
C	 0.0174410069	 1.5046862295	-0.0749311393	-0.462503
C	-0.0346017824	 0.0029314978	 0.1178953068	 0.344092
C	-1.1339436663	-0.6868976319	-0.6617695273	-0.467797
O	 1.2335425185	-0.6758090263	 0.1032040009	-0.309591
C	 0.5132673665	-0.6421587559	 1.3484020834	 0.115895
C	 1.2283593896	 0.0887531879	 2.4760899788	-0.134431
O	 2.3735862097	-0.6269312477	 2.8843302121	-0.404134
C	-0.0331777033	-1.9273522521	 1.7639294666	 0.290263
N	-0.4886600727	-2.9268834917	 2.1232680286	-0.341301
H	 0.9056331828	 1.9516587513	 0.3709275643	 0.137076
H	 0.0313384633	 1.7293350298	-1.1464264816	 0.136998
H	-0.8719304077	 1.9786014632	 0.3522916185	 0.136276
H	-0.9926156423	-0.5022543744	-1.7314743135	 0.133487
H	-1.1354775642	-1.7641268511	-0.4918612064	 0.158178
H	-2.1121695369	-0.2864704599	-0.3771084539	 0.133324
H	 1.4758810025	 1.1072870001	 2.1564415533	 0.102156
H	 0.5722737679	 0.1542941355	 3.3493428808	 0.132912
H	 2.9406903182	-0.725539444	 2.1104722878	 0.299101
57.7139	119.3728	139.2216	146.1792	178.3424	212.1384	259.3267	332.462	373.5514	392.2561	414.9008	422.8437	501.7068	574.0667	601.6852	694.3689	749.2454	892.0888	921.4673	950.5424	977.2864	1000.778	1072.7915	1120.8449	1152.8694	1166.219	1245.3486	1257.7609	1370.5844	1408.0738	1418.01	1420.535	1425.6165	1472.2958	1482.6409	1493.5962	1498.9195	1512.1118	2355.8507	3039.4548	3044.4535	3049.6971	3096.0648	3105.6305	3111.5769	3149.2205	3152.3908	3797.715
CC1(C)OC1(CO)C#N	CC1(C)O[C@]1(CO)C#N	
InChI=1S/C6H9NO2/c1-5(2)6(3-7,4-8)9-5/h8H,4H2,1-2H3	InChI=1S/C6H9NO2/c1-5(2)6(3-7,4-8)9-5/h8H,4H2,1-2H3/t6-/m0/s1
