18
gdb 16310	3.07026	1.92576	1.37629	3.0279	72.64	-0.2365	-0.0053	0.2311	948.2921	0.15335	-347.805564	-347.797654	-347.79671	-347.837966	29.657	
C	-0.2570598346	 1.5347405865	-0.0526938664	-0.378483
C	 0.0870057827	 0.0441969118	 0.0827482521	-0.299442
C	 0.7965281129	-0.4898128954	-1.1323490086	 0.255016
C	 0.0652225387	-0.9608818411	-2.3879846925	-0.318173
C	 0.9793646244	-1.9233631293	-1.7180461961	-0.120739
C	 2.4241504705	-1.6195994854	-2.1414795443	-0.353584
C	 2.2297763717	-0.2238449283	-1.4888896617	 0.362078
O	 2.9972502643	 0.6451818006	-1.1771532917	-0.322102
H	 0.6513704399	 2.1214003374	-0.2142734005	 0.14591
H	-0.9278873574	 1.7090222127	-0.9003504274	 0.114539
H	-0.7495990869	 1.9059202466	 0.8510777943	 0.11115
H	 0.7239385401	-0.1026071988	 0.9637028162	 0.109603
H	-0.8255404853	-0.5398707352	 0.2552608568	 0.097762
H	-0.99907439	-1.1081521596	-2.2297358197	 0.122836
H	 0.3153171952	-0.5575885949	-3.366081516	 0.119052
H	 0.6414735807	-2.8461857033	-1.2651429047	 0.105354
H	 3.1888383889	-2.1812920167	-1.5973030428	 0.130673
H	 2.6427150744	-1.6606055375	-3.212856917	 0.118551
71.7155	120.3965	186.8671	208.833	285.7172	365.4676	421.4231	472.6264	561.4916	661.2405	683.8203	776.2353	809.4338	836.4923	873.6508	935.3046	980.5997	984.5118	992.0809	1021.0686	1057.1244	1081.2809	1106.8385	1109.3617	1165.3834	1210.0287	1244.3724	1276.1603	1329.2732	1347.734	1388.1753	1410.7395	1458.27	1480.4957	1498.3598	1499.6009	1511.4563	1866.7557	3022.3934	3038.6531	3054.057	3057.4503	3106.7954	3109.3594	3110.362	3122.6285	3194.1488	3206.5
CCC12CC1CC2=O	CC[C@]12C[C@H]1CC2=O	
InChI=1S/C7H10O/c1-2-7-4-5(7)3-6(7)8/h5H,2-4H2,1H3	InChI=1S/C7H10O/c1-2-7-4-5(7)3-6(7)8/h5H,2-4H2,1H3/t5-,7+/m1/s1
