20
gdb 26745	3.0034	1.45077	1.00401	1.8157	89.79	-0.1831	0.0557	0.2387	1217.5996	0.171294	-366.028878	-366.019731	-366.018786	-366.063441	33.11	
C	-0.1992655223	 1.5277706525	 0.0881037275	-0.497203
C	 0.0754121851	 0.0540621798	-0.0003919297	 0.229826
C	 0.1136997147	-0.707331789	-1.1680932616	 0.139202
C	-0.0658850806	-0.3392157273	-2.603280513	-0.498622
N	 0.3112345757	-1.998095654	-0.7417391363	-0.024857
C	 0.7372872679	-3.3854426912	-0.9858356204	-0.173492
C	 0.8324996975	-3.534798945	 0.5821075845	-0.372367
C	 0.4421036544	-2.0656492934	 0.6123799041	 0.338176
C	 0.3026931307	-0.8038270511	 1.1335650841	-0.442506
H	 0.4758691164	 2.0141506183	 0.8010694597	 0.119536
H	-0.0666462202	 2.0257774528	-0.8771165929	 0.114179
H	-1.2228836381	 1.7399723114	 0.4229231723	 0.12081
H	 0.7429313942	-0.7342884616	-3.2307728808	 0.119714
H	-1.0096276325	-0.7166070815	-3.0184080182	 0.124865
H	-0.0702733641	 0.7467653668	-2.7216866666	 0.132443
H	-0.0119640786	-4.0047915653	-1.4880811275	 0.11927
H	 1.6940010705	-3.4706101222	-1.5105380921	 0.122571
H	 0.1176620413	-4.2397721586	 1.015885908	 0.119267
H	 1.8334677654	-3.7761512724	 0.9499740642	 0.121336
H	 0.3470778226	-0.4912863489	 2.1656257248	 0.087852
55.3828	77.3518	103.9109	176.4018	211.4284	257.3441	285.3906	300.0419	536.3864	569.7657	633.4712	642.9359	654.1359	761.4198	808.083	819.8106	842.9164	912.4756	976.888	1046.1684	1050.5753	1056.5386	1061.7818	1102.184	1137.0438	1157.9663	1177.9894	1199.3912	1227.5463	1275.519	1354.9597	1408.2126	1420.4414	1424.316	1446.7381	1478.5161	1484.6586	1486.8133	1495.7141	1500.7125	1512.503	1551.7992	1604.8283	3011.4654	3016.6355	3043.189	3053.2128	3056.0121	3066.1761	3087.9614	3098.3783	3104.3946	3118.9473	3244.5315
CC1=C(C)N2CCC2=C1	Cc1c(C)n2CCc2c1	
InChI=1S/C8H11N/c1-6-5-8-3-4-9(8)7(6)2/h5H,3-4H2,1-2H3	InChI=1S/C8H11N/c1-6-5-8-3-4-9(8)7(6)2/h5H,3-4H2,1-2H3
