19
gdb 52585	2.02522	1.06984	0.7296	0.7887	90.41	-0.2458	0.0424	0.2883	1582.7953	0.156209	-348.678189	-348.667848	-348.666903	-348.715178	36.556	
C	 0.1872636386	 1.3974430787	 0.0614721238	-0.498449
C	 0.0766133694	-0.0533915226	 0.0129290078	 0.073315
C	-0.02077184	-1.2520870965	-0.021526049	 0.098742
C	-0.1218322734	-2.7163515471	-0.0806148376	-0.396143
C	-1.5226991994	-3.1593039009	-0.0527792959	 0.34605
C	-2.6620557848	-3.5393927924	-0.0449747256	-0.456991
C	 0.6105617411	-3.2834553201	-1.3016254822	 0.052008
C	 2.0977983228	-3.4967430205	-1.2390541159	-0.270755
C	 1.160901695	-4.6821025517	-1.2530800422	-0.271208
H	 1.2347171961	 1.718016761	 0.0418165036	 0.147477
H	-0.3180938142	 1.8633243233	-0.7916313049	 0.149193
H	-0.2655250416	 1.7995858825	 0.9744805893	 0.1495
H	 0.3739805991	-3.1285515033	 0.8119463683	 0.124187
H	-3.6716804474	-3.8677630801	-0.0321101631	 0.194707
H	 0.196502413	-2.9441464245	-2.245221354	 0.099359
H	 2.683646653	-3.287073186	-2.1267727832	 0.113908
H	 2.603880873	-3.2599677639	-0.3087984283	 0.115048
H	 1.0372294218	-5.2427851504	-0.3322526411	 0.115653
H	 1.1022093579	-5.2878978955	-2.1501858398	 0.114398
24.3752	66.804	88.0074	107.738	142.6899	241.8083	264.0349	323.1527	352.3195	377.2557	476.5761	504.6827	540.4826	629.6314	638.0267	756.0975	805.5839	834.97	863.8663	926.2602	964.527	1014.6425	1053.4031	1054.0426	1060.5092	1079.5765	1136.1337	1145.5979	1174.3707	1194.9732	1224.3178	1273.2832	1305.0793	1394.6129	1414.5961	1471.772	1478.3048	1478.9792	1505.9703	2240.3076	2376.8673	2982.8843	3027.4842	3088.3634	3088.8691	3132.0519	3136.1463	3165.6215	3210.248	3225.0018	3504.7369
CC#CC(C#C)C1CC1	CC#C[C@@H](C#C)C1CC1	
InChI=1S/C9H10/c1-3-5-8(4-2)9-6-7-9/h2,8-9H,6-7H2,1H3	InChI=1S/C9H10/c1-3-5-8(4-2)9-6-7-9/h2,8-9H,6-7H2,1H3/t8-/m1/s1
