19
gdb 81126	3.28039	1.11601	0.99464	5.3381	80.36	-0.2472	0.0346	0.2818	1247.7507	0.159858	-382.019307	-382.010778	-382.009834	-382.052907	32.156	
C	-0.1053396397	 1.6351154597	 0.035901172	-0.445094
C	 0.035535969	 0.1197412703	 0.0242905779	-0.011114
C	 1.1946180038	-0.6346678623	-0.7024032821	-0.042121
C	 2.1745576023	-0.1980361237	 0.4141223221	-0.245715
C	 0.8620749292	-0.6784851564	 1.0893225482	 0.331621
C	 0.5552043813	-0.8329020769	 2.5670463514	-0.483724
C	 1.5713845173	-1.6006736356	 3.285185325	 0.276649
N	 2.3810477668	-2.1947086109	 3.856039245	-0.309081
N	 0.9258576604	-1.8679906616	 0.1473057938	-0.336381
H	 0.8366003448	 2.1558914231	 0.223918499	 0.124798
H	-0.4917739506	 1.9870397243	-0.9266658145	 0.127432
H	-0.8193937608	 1.9499641646	 0.8052461462	 0.121154
H	-0.9399608993	-0.3472760911	-0.1662963577	 0.064154
H	 1.3860848431	-0.713438381	-1.772735237	 0.087532
H	 3.0303141826	-0.855941417	 0.5619540213	 0.127914
H	 2.434830677	 0.8565496749	 0.4898877054	 0.100371
H	 0.4766098433	 0.1589355507	 3.028082928	 0.158136
H	-0.4181335508	-1.3211502822	 2.697678314	 0.152751
H	-0.0288781998	-2.197061559	-0.038512118	 0.200719
54.7323	106.6681	167.5367	191.9646	288.7096	338.9219	365.5004	386.7178	472.3177	572.8896	586.7257	687.0718	750.5026	792.1355	831.8543	869.4923	928.5343	932.6205	975.2458	987.9151	1018.7307	1054.3501	1086.1584	1096.381	1137.624	1154.5092	1187.1747	1210.4863	1213.8412	1232.7471	1267.425	1298.6567	1316.5296	1344.1399	1400.4127	1420.5853	1453.1029	1493.9758	1495.4286	1512.1651	2366.5724	3016.0444	3035.806	3036.5994	3075.0014	3092.4874	3096.1318	3115.8942	3120.8165	3171.7141	3359.9025
CC1C2CC1(CC#N)N2	C[C@H]1[C@H]2C[C@]1(CC#N)N2	
InChI=1S/C7H10N2/c1-5-6-4-7(5,9-6)2-3-8/h5-6,9H,2,4H2,1H3	InChI=1S/C7H10N2/c1-5-6-4-7(5,9-6)2-3-8/h5-6,9H,2,4H2,1H3/t5-,6+,7-/m0/s1
