19
gdb 18273	3.57869	1.78876	1.51033	0.9142	69.94	-0.2315	0.0767	0.3083	905.9213	0.167874	-365.041461	-365.034078	-365.033134	-365.072932	28.924	
O	 0.2780727611	 1.3817251073	 0.0847893898	-0.417473
C	 0.068981735	-0.0237889923	 0.0549791574	-0.090474
C	-1.401828804	-0.4394798818	 0.0191693071	 0.052184
C	-2.2680686392	 0.079363333	 1.1897400674	-0.251941
C	-3.6949751445	 0.0876756401	 0.6036673007	-0.229115
C	-3.4705989619	 0.2841728544	-0.8903994594	-0.006061
C	-2.5308922121	 1.3560260627	-1.2983998205	-0.271167
N	-2.0775512673	-0.0519924663	-1.242536533	-0.118521
H	 0.1047554727	 1.7159503345	-0.7999180097	 0.293706
H	 0.5911224176	-0.4806900289	-0.7972643964	 0.099843
H	 0.525139618	-0.4167853967	 0.9705572144	 0.107733
H	-1.4139994243	-1.5385112105	 0.0234539918	 0.077478
H	-2.1812555105	-0.5547818497	 2.0755002599	 0.098854
H	-1.9459975772	 1.0831830406	 1.4783129087	 0.122837
H	-4.1890618163	-0.8761365715	 0.7709832878	 0.104362
H	-4.3338553633	 0.8603050699	 1.0425839036	 0.104675
H	-4.2385490516	-0.0532582448	-1.58076715	 0.08698
H	-2.5805997008	 1.7621223874	-2.3048464955	 0.112593
H	-2.1906927013	 2.0577827825	-0.5432615242	 0.123507
102.5578	154.6376	268.6902	279.536	303.0447	376.8234	409.7096	592.0647	653.7756	663.158	731.7986	834.6152	839.1005	849.7124	911.6686	937.3095	956.3341	991.4575	1020.3212	1052.7366	1091.193	1101.0568	1111.8603	1128.965	1167.7004	1187.9383	1216.3331	1231.6406	1277.8953	1296.8797	1326.7892	1348.1846	1362.8084	1386.5206	1409.1251	1418.2533	1490.7348	1492.1103	1496.9866	1526.4017	3000.3841	3014.8812	3041.3685	3068.1875	3071.3374	3082.9799	3111.9226	3115.7957	3146.3078	3200.1976	3836.5086
OCC1CCC2CN12	OC[C@H]1CC[C@H]2CN12	
InChI=1S/C6H11NO/c8-4-6-2-1-5-3-7(5)6/h5-6,8H,1-4H2	InChI=1S/C6H11NO/c8-4-6-2-1-5-3-7(5)6/h5-6,8H,1-4H2/t5-,6+,7?/m0/s1
