14
gdb 128248	2.81921	1.50494	0.98801	5.4146	72.37	-0.2245	-0.082	0.1425	1115.8938	0.099367	-469.966407	-469.958128	-469.957184	-469.999708	29.624	
C	-0.0036525601	 1.4448697021	 0.115089294	-0.333012
N	-0.0480562853	 0.0179969783	-0.0920577135	-0.359309
C	 0.5940109134	-0.6114318771	-1.1095555453	 0.141998
C	 1.2258925182	-0.0230531071	-2.1638335635	 0.015359
O	 1.8067645232	-0.7294964244	-3.1471166798	-0.220125
N	 1.7886531071	-2.1610158399	-3.1075123887	 0.049782
N	 1.2423190686	-2.7219501147	-2.15160706	-0.172426
C	 0.6073012465	-2.0641579346	-1.0604772015	 0.405572
O	 0.1189737705	-2.7083459639	-0.1536407956	-0.353305
H	 1.0225264712	 1.818544597	 0.2500128065	 0.12963
H	-0.4502585615	 1.9788613847	-0.7335315029	 0.137003
H	-0.5805075447	 1.6936505552	 1.0068432768	 0.145577
H	-0.3185071041	-0.5991999669	 0.6589060044	 0.269315
H	 1.3194526569	 1.0448811712	-2.3217025206	 0.14394
79.9581	100.3784	160.6656	182.7693	298.7233	349.772	398.5646	434.9328	481.6735	558.3861	576.3259	582.5883	603.4063	790.2057	798.044	837.896	917.7231	1041.3191	1121.31	1158.495	1204.244	1218.1054	1323.255	1378.1051	1466.0446	1481.7925	1516.7704	1543.2754	1575.9682	1668.583	1772.0286	2990.7346	3044.6485	3137.6369	3203.538	3619.1602
CNC1=CON=NC1=O	CNc1connc1=O	
InChI=1S/C4H5N3O2/c1-5-3-2-9-7-6-4(3)8/h2,5H,1H3	InChI=1S/C4H5N3O2/c1-5-3-2-9-7-6-4(3)8/h2,5H,1H3
