17
gdb 127225	2.89713	1.30185	0.90851	2.8657	86.64	-0.2204	-0.0022	0.2183	1268.3534	0.135019	-380.87012	-380.860773	-380.859829	-380.905117	33.063	
C	-0.0640323024	 1.4075608489	 0.0995744706	-0.320577
N	 0.026005883	-0.0334539454	-0.0025514755	 0.044418
C	 0.0648717121	-0.7869200166	-1.1340419162	-0.1178
C	 0.0654615846	-2.1099249576	-0.7501581894	 0.099626
C	 0.1157869638	-3.3331179452	-1.6087822832	-0.514622
C	 0.0194126716	-2.0467298018	 0.6713291952	 0.153515
N	-0.007616847	-0.7782785881	 1.1097602731	-0.33383
C	 0.0114739087	-3.1463956775	 1.5647767064	 0.273367
C	 0.0052711666	-4.115347787	 2.2795650704	-0.444182
H	 0.3783171052	 1.8610157461	-0.7897042623	 0.138834
H	-1.1055921188	 1.7339162938	 0.1895115848	 0.145855
H	 0.4852353201	 1.7294301317	 0.985150981	 0.160849
H	 0.0927629187	-0.3318297163	-2.1121029909	 0.131359
H	 1.0048455962	-3.9365976679	-1.3952761684	 0.137481
H	-0.7532045858	-3.9776800332	-1.4374635134	 0.13765
H	 0.1352785736	-3.0703372453	-2.6698836061	 0.119987
H	 0.0002282798	-4.9590047086	 2.9238797841	 0.18807
53.3958	59.7277	128.4732	136.6625	191.4107	257.5638	287.4874	377.9677	473.714	550.0958	564.5127	586.0455	616.2309	631.4467	662.952	741.5821	785.2669	803.6317	1004.8667	1037.9903	1066.2229	1080.2373	1147.5257	1195.8923	1196.7482	1350.4347	1367.4865	1417.7755	1443.0711	1462.8068	1463.7136	1481.2406	1483.4129	1502.0287	1518.8571	1599.1495	2234.1945	3033.3361	3043.2813	3085.1115	3112.9775	3117.114	3154.8312	3252.9915	3504.9946
CN1C=C(C)C(=N1)C#C	Cn1cc(C)c(n1)C#C	
InChI=1S/C7H8N2/c1-4-7-6(2)5-9(3)8-7/h1,5H,2-3H3	InChI=1S/C7H8N2/c1-4-7-6(2)5-9(3)8-7/h1,5H,2-3H3
