17
gdb 93303	2.11669	1.89199	1.23779	3.5956	68.81	-0.2395	0.0121	0.2515	1026.7605	0.137438	-455.15171	-455.14348	-455.142536	-455.184793	30.947	
O	 0.1668217316	 1.3992245517	-0.123698594	-0.420167
C	 0.0456938633	-0.009479124	-0.0008707948	 0.025162
C	 0.6027900918	-0.5362563669	 1.3480783182	-0.199556
N	-0.5908941036	-0.6504925995	 2.1728733219	-0.342462
C	-1.7622408334	-0.7675720791	 1.4649278913	 0.394074
O	-2.8583202661	-1.0094095201	 1.9154835733	-0.377494
C	-1.401072404	-0.4901406132	 0.0192743425	 0.165372
C	-2.4254806183	-0.0394955035	-0.9517753034	-0.280962
N	-1.9604055274	-1.4312327663	-0.9763580802	-0.344382
H	-0.4110920107	 1.8068265875	 0.5315872912	 0.288238
H	 0.6106761551	-0.4166991794	-0.8435313986	 0.094389
H	 1.1086519503	-1.5033039364	 1.2196119328	 0.113762
H	 1.3200174551	 0.1789521321	 1.7596619605	 0.123407
H	-0.5649328365	-0.9179276395	 3.1445586362	 0.255106
H	-3.4437310098	 0.0838374633	-0.5951893894	 0.144558
H	-2.1034689489	 0.6440627829	-1.7322878303	 0.126749
H	-1.2835511286	-1.5494114495	-1.7285058173	 0.234204
55.3068	141.5172	205.6844	240.2367	264.134	303.8591	358.8414	481.0155	494.0222	554.5935	588.9362	715.2173	739.6627	754.9249	861.3646	888.7241	920.3152	951.5887	983.759	1009.9794	1048.4417	1070.5142	1105.2742	1143.0902	1194.2216	1231.8397	1249.8981	1270.237	1287.088	1324.5722	1344.133	1409.0094	1423.1929	1444.2491	1495.214	1522.1858	1840.1683	3005.5578	3080.2196	3088.6302	3114.9351	3210.8126	3476.8668	3635.1118	3799.0975
OC1CNC(=O)C11CN1	O[C@H]1CNC(=O)[C@]21CN2	
InChI=1S/C5H8N2O2/c8-3-1-6-4(9)5(3)2-7-5/h3,7-8H,1-2H2,(H,6,9)	InChI=1S/C5H8N2O2/c8-3-1-6-4(9)5(3)2-7-5/h3,7-8H,1-2H2,(H,6,9)/t3-,5+/m0/s1
