19
gdb 37859	2.42053	2.10896	2.09198	1.2521	75.97	-0.203	0.0756	0.2786	850.1503	0.164436	-385.880744	-385.874662	-385.873718	-385.910748	26.591	
C	 0.0329107399	 1.4813178599	 0.064448228	-0.227875
C	 1.454396275	 2.013710114	 0.0137198322	-0.10485
C	 2.546046849	 1.2513721401	 0.7615839339	-0.104849
C	 2.1618062502	-0.005360954	 1.5229088778	-0.227876
C	 1.1124601132	-0.7989671074	 0.7641622285	-0.104849
C	 0.0208081595	-0.0366317838	 0.0162974445	-0.10485
C	 1.1266565028	-0.7246999882	-0.7400692051	 0.106623
O	 2.1082402378	 0.0284104413	-1.4052031151	-0.261369
C	 2.4793899438	 1.2100028216	-0.7425020658	 0.106623
H	-0.4758872666	 1.8382062234	 0.9707436946	 0.098475
H	-0.5353987442	 1.8776055985	-0.7876162449	 0.104249
H	 1.5464450727	 3.094875241	-0.0288817185	 0.081271
H	 3.3454566231	 1.8385650995	 1.2035731596	 0.081271
H	 3.0536699383	-0.6287611091	 1.6711816966	 0.104249
H	 1.7931603165	 0.2536547109	 2.5252198659	 0.098475
H	 0.835910931	-1.7506274657	 1.2080868557	 0.081271
H	-0.9630999611	-0.4943182451	-0.0243703516	 0.081271
H	 0.9057878275	-1.6120422542	-1.3221774242	 0.09637
H	 3.2362929517	 1.7210864575	-1.3263690023	 0.09637
225.4407	254.0952	429.3599	497.6891	518.5723	546.9504	548.7169	694.032	735.8329	770.3574	776.2505	784.1369	805.3691	832.9779	920.3195	967.0385	978.7477	1003.9233	1019.7844	1051.7582	1082.4947	1102.6487	1107.6696	1119.812	1128.6306	1138.2435	1138.3118	1191.0787	1227.707	1253.5779	1274.9099	1323.5484	1328.9813	1338.4461	1368.9958	1382.4386	1393.4732	1446.6438	1466.5923	1496.4501	1511.6486	2997.9098	3001.9099	3029.2219	3030.5741	3141.5998	3141.7669	3149.148	3150.1505	3175.0548	3178.284
C1C2C3CC4C1C4OC23	C1[C@H]2[C@H]3C[C@H]4[C@@H]1[C@H]4O[C@@H]23	
InChI=1S/C8H10O/c1-3-5-2-6-4(1)8(6)9-7(3)5/h3-8H,1-2H2	InChI=1S/C8H10O/c1-3-5-2-6-4(1)8(6)9-7(3)5/h3-8H,1-2H2/t3-,4+,5+,6-,7-,8+
