20
gdb 111649	2.22305	1.55496	1.19938	3.8002	78.6	-0.2368	0.0318	0.2687	1136.4662	0.172811	-403.188406	-403.179843	-403.178898	-403.221943	32.496	
C	 0.3187241184	 1.4000284892	-0.2059006354	-0.377208
C	-0.2138755384	 0.0056623955	 0.1481023151	-0.214463
C	 0.5770204036	-0.6407050289	 1.2690084258	 0.005098
C	 0.7524024609	-2.1214580768	 1.4711789292	-0.095003
C	 0.4737545191	-3.0595584394	 0.2958223321	-0.190603
N	 1.4237206258	-2.6273296836	-0.7142612174	-0.302222
C	 2.3284488547	-1.6720821259	-0.3167650126	 0.40761
O	 3.2492300188	-1.2490806079	-0.9830474938	-0.390754
C	 1.94907653	-1.2725058345	 1.0860804197	-0.177492
H	 1.3519500748	 1.3395416641	-0.5612013871	 0.142432
H	-0.2846937422	 1.8651989584	-0.9913919088	 0.110416
H	 0.3016527763	 2.0637188902	 0.6657097437	 0.110789
H	-1.2646904265	 0.075552139	 0.457992012	 0.094668
H	-0.1980452413	-0.6250830238	-0.7459375339	 0.108769
H	 0.5054742579	-0.0907541163	 2.2058299109	 0.091896
H	 0.6452791413	-2.5314861287	 2.4680134658	 0.09517
H	 0.6468569353	-4.1033872678	 0.5894299052	 0.11209
H	-0.5606300537	-2.9833395798	-0.0645348199	 0.112423
H	 1.471039342	-3.0191983499	-1.6408344252	 0.249991
H	 2.7570876833	-1.0146743031	 1.7580654145	 0.106393
60.9787	107.5256	168.3439	194.0083	245.5539	282.643	427.3196	452.8148	485.4592	519.8749	633.4401	700.5881	765.873	775.6844	801.0839	822.5618	869.4563	928.9316	967.6257	989.8388	1014.7165	1032.9668	1068.1477	1087.5915	1099.8878	1128.9951	1140.4528	1218.0291	1228.3824	1253.5033	1297.2185	1316.4972	1339.6513	1341.9112	1381.8702	1413.1802	1439.6558	1455.1842	1489.6435	1500.567	1509.1814	1528.9751	1820.8578	3006.1693	3024.8163	3032.7691	3033.8402	3076.0524	3102.6293	3113.8057	3124.5134	3182.3395	3202.7689	3649.0064
CCC1C2CNC(=O)C12	CC[C@H]1[C@H]2CNC(=O)[C@@H]12	
InChI=1S/C7H11NO/c1-2-4-5-3-8-7(9)6(4)5/h4-6H,2-3H2,1H3,(H,8,9)	InChI=1S/C7H11NO/c1-2-4-5-3-8-7(9)6(4)5/h4-6H,2-3H2,1H3,(H,8,9)/t4-,5+,6-/m0/s1
