19
gdb 73421	2.54317	2.28727	1.57012	1.3062	76.55	-0.2282	0.0764	0.3046	897.3195	0.161629	-385.849415	-385.842682	-385.841737	-385.879998	28.92	
O	-0.0991131362	 1.3303885804	 0.0402654876	-0.509089
C	 0.0407432359	-0.0657440541	 0.0010381245	 0.448397
C	 1.028348422	-0.6730082316	 1.0101641729	-0.280715
C	 1.3175939004	-2.0985643515	 0.4539306111	-0.232122
C	 0.4733734572	-2.1794500572	-0.8302527885	-0.026806
C	-1.0481421925	-2.1419245041	-0.6180381303	-0.076836
C	-1.2463170193	-0.9743103823	-1.5531159434	-0.099996
C	-1.3328109595	-0.7364615214	-0.0667118417	-0.092136
C	 0.2976989104	-0.738743088	-1.3965376697	-0.152936
H	 0.7784881422	 1.7182405336	-0.0487119504	 0.27171
H	 1.9441880643	-0.0686838997	 1.0463456682	 0.0804
H	 0.6116892769	-0.6786242921	 2.0217459849	 0.103681
H	 2.3823026131	-2.2256054739	 0.2310266353	 0.093906
H	 1.0450740768	-2.887475823	 1.1621128983	 0.098716
H	 0.7900759647	-2.9375240837	-1.5494424337	 0.062225
H	-1.7188223536	-2.968179378	-0.4167624408	 0.080782
H	-1.9532617374	-0.8018327878	-2.3501988943	 0.088711
H	-2.2006298554	-0.5186824518	 0.5426900945	 0.083827
H	 0.9796426499	-0.2973187339	-2.1216596646	 0.058282
167.2515	271.5333	316.5164	339.8482	389.4915	467.8791	576.2655	661.7145	679.9913	747.8482	776.9583	801.4795	827.2303	831.2414	861.5908	890.0961	912.728	934.1729	983.9092	1003.7146	1014.6811	1029.1774	1034.0315	1036.4259	1078.2978	1122.309	1134.843	1160.4691	1173.4615	1187.2887	1202.8199	1236.8653	1249.1822	1267.965	1293.6241	1328.3677	1346.3171	1367.8384	1407.6257	1480.2475	1501.7224	3017.981	3043.1982	3071.3442	3088.6406	3091.1902	3127.4501	3185.9825	3197.7497	3232.6776	3795.8702
OC12CCC3C4C(C14)C23	O[C@@]12CC[C@H]3[C@@H]4[C@@H]([C@H]14)[C@@H]23	
InChI=1S/C8H10O/c9-8-2-1-3-4-5(6(3)8)7(4)8/h3-7,9H,1-2H2	InChI=1S/C8H10O/c9-8-2-1-3-4-5(6(3)8)7(4)8/h3-7,9H,1-2H2/t3-,4+,5+,6-,7+,8+/m0/s1
