16
gdb 66756	2.79899	2.10098	1.52492	3.1032	71.2	-0.2354	-0.0255	0.2098	879.2395	0.124557	-400.671438	-400.664547	-400.663603	-400.702549	27.375	
C	 0.0266203074	 1.5185353035	 0.036615659	-0.505729
C	 0.0228703967	 0.0211293463	-0.0146827693	 0.205861
C	-1.1765887014	-0.8164270882	 0.4474646834	-0.140055
C	-0.5604190667	-2.2505164601	 0.3855557329	-0.090532
C	-0.4092620665	-1.3863418	 1.5945506332	-0.026634
N	 0.8800646318	-0.8099342766	 1.0011227473	-0.221534
C	 0.8498114815	-1.9097372825	-0.0967628022	-0.15262
C	 0.6880776378	-0.7956164616	-1.138162959	 0.436863
O	 1.0617877527	-0.5781108237	-2.2510167081	-0.320166
H	 1.0314352738	 1.9074092915	-0.1508232309	 0.139233
H	-0.6441969152	 1.9234928123	-0.7287566265	 0.133026
H	-0.310758489	 1.8790814943	 1.0133438009	 0.128687
H	-2.2366931716	-0.6360378888	 0.3268112195	 0.101281
H	-1.1624516993	-3.1333999122	 0.2186118555	 0.105179
H	-0.6179208812	-1.5231016121	 2.6472056675	 0.106876
H	 1.6385928892	-2.6580600021	-0.124437543	 0.100265
134.6123	180.848	217.5035	287.1162	374.5964	548.2661	600.63	668.1248	706.7659	768.4597	776.7026	810.1216	818.6985	830.5256	862.91	895.7213	925.6878	962.7764	992.9538	1023.8547	1040.4451	1065.0636	1076.4559	1108.989	1152.7355	1176.5996	1204.5307	1215.3379	1254.7309	1325.4796	1368.3635	1411.9155	1479.5089	1485.534	1901.6826	3036.9646	3105.9177	3117.0756	3148.7161	3195.0837	3200.5711	3215.4398
CC12C3C4C3N1C4C2=O	C[C@]12[C@H]3[C@@H]4[C@H]3N1[C@@H]4C2=O	
InChI=1S/C7H7NO/c1-7-3-2-4(3)8(7)5(2)6(7)9/h2-5H,1H3	InChI=1S/C7H7NO/c1-7-3-2-4(3)8(7)5(2)6(7)9/h2-5H,1H3/t2-,3+,4-,5+,7-/m1/s1
