19
gdb 65789	2.68419	1.49289	1.29271	0.7093	74.06	-0.2456	0.0169	0.2624	1061.4925	0.16045	-419.197511	-419.189176	-419.188232	-419.23077	31.453	
C	-0.1663122676	 1.5448076167	 0.0870732196	-0.432768
C	 0.0242187481	 0.0377328475	-0.0587552522	 0.315433
C	 0.9915875035	-0.3552156734	-1.2190355134	-0.220558
N	 2.1581568458	-0.9755743727	-0.5708601643	-0.258514
C	 1.9086752664	-0.9630397422	 0.6691528303	 0.108741
O	 0.7443459916	-0.4370948702	 1.125067052	-0.259749
C	-1.3100214617	-0.6848386963	-0.1351640665	-0.010263
C	-1.4688052364	-2.0885423973	 0.3069064676	-0.250293
N	-2.0807231658	-0.9850730368	 1.077189199	-0.33262
H	 0.8020498157	 2.0461327029	 0.1717994005	 0.127227
H	-0.6847331145	 1.9435376765	-0.7908165148	 0.125284
H	-0.7628562488	 1.7801422706	 0.97264771	 0.134521
H	 0.5325841731	-1.0666408367	-1.9135377205	 0.121016
H	 1.3115825581	 0.5156061925	-1.8014072272	 0.115891
H	 2.5605800102	-1.3449525079	 1.447410435	 0.141455
H	-1.9219248656	-0.3353957756	-0.9659544629	 0.094768
H	-2.1732618139	-2.7397768711	-0.2021204343	 0.119564
H	-0.6056562277	-2.590216806	 0.7329765051	 0.120506
H	-1.4917103505	-0.8017901504	 1.8876908869	 0.240359
67.4403	87.1237	199.4705	239.5958	247.7276	308.2513	370.1055	440.8921	479.4617	568.2943	624.5487	771.5632	830.0066	860.8821	872.015	928.9442	944.3415	954.7408	970.1173	977.076	990.1099	999.5971	1094.2482	1116.5159	1150.8086	1152.8646	1173.1761	1213.4053	1219.0135	1259.5802	1282.3798	1307.9312	1325.119	1338.6552	1409.8653	1419.5874	1486.7083	1491.4674	1497.3701	1507.0226	1713.3696	3038.508	3042.0649	3075.69	3111.5945	3116.238	3120.1756	3123.3749	3206.4467	3213.3669	3490.6857
CC1(CN=CO1)C1CN1	C[C@]1(CN=CO1)[C@H]1CN1	
InChI=1S/C6H10N2O/c1-6(5-2-8-5)3-7-4-9-6/h4-5,8H,2-3H2,1H3	InChI=1S/C6H10N2O/c1-6(5-2-8-5)3-7-4-9-6/h4-5,8H,2-3H2,1H3/t5-,6+/m1/s1
