16
gdb 16810	3.60126	2.006	1.48288	1.8976	66.16	-0.2308	0.0143	0.2451	863.2804	0.131788	-379.918422	-379.911286	-379.910342	-379.949377	27.811	
C	-0.0582055594	 1.5602012132	 0.0499305443	-0.385114
C	 0.0577314217	 0.036313227	-0.007415987	 0.020487
N	 0.809762786	-0.398220193	-1.2002313209	-0.305581
C	 1.7415982583	-1.2012431444	-0.8421116796	 0.385421
N	 2.5435395852	-1.8961574424	-1.7131836621	-0.580814
C	 1.8696351573	-1.397165628	 0.6446868103	-0.081564
O	 2.1496312366	-0.144773435	 1.2998046995	-0.248481
C	 0.78669696	-0.5732759169	 1.1919786715	 0.034143
H	 0.9321830886	 2.0039138467	 0.1801828011	 0.131458
H	-0.4898586618	 1.9376204723	-0.880153386	 0.125133
H	-0.6954779239	 1.8739387916	 0.8831930806	 0.106551
H	-0.9516639189	-0.3973939799	-0.0591925505	 0.080855
H	 2.4830412448	-1.585306102	-2.6728449904	 0.258893
H	 3.4833942824	-2.0914365751	-1.4035225876	 0.256172
H	 2.2892251069	-2.2881406204	 1.1031006386	 0.103672
H	 0.2864115562	-0.7883275339	 2.1324022083	 0.09877
154.6425	200.74	240.3909	262.9055	376.0118	412.5851	448.9921	527.6523	588.6621	639.0232	708.0779	758.0433	833.6176	861.7591	880.5422	897.3876	930.751	1007.7084	1039.6197	1086.0342	1110.0086	1132.3737	1180.4652	1238.0982	1283.7472	1308.8079	1342.5133	1385.0292	1403.3978	1440.5419	1488.1917	1501.6518	1626.715	1713.7281	2998.8993	3042.8593	3115.4653	3132.0145	3147.8199	3161.0846	3563.7353	3676.0974
CC1N=C(N)C2OC12	C[C@H]1N=C(N)[C@H]2O[C@@H]12	
InChI=1S/C5H8N2O/c1-2-3-4(8-3)5(6)7-2/h2-4H,1H3,(H2,6,7)	InChI=1S/C5H8N2O/c1-2-3-4(8-3)5(6)7-2/h2-4H,1H3,(H2,6,7)/t2-,3+,4+/m1/s1
