13
gdb 27044	2.52444	1.48624	0.93608	7.3669	68.75	-0.223	-0.0486	0.1744	1143.9694	0.088576	-489.909692	-489.901771	-489.900827	-489.942319	28.979	
N	 0.1459450894	 1.3424372241	 0.1734533122	-0.591268
C	-0.0311787623	 0.002504686	 0.0598517946	 0.303414
C	-1.1175178281	-0.8147342626	 0.0215000482	 0.169653
O	-0.6437080856	-2.1332838562	-0.0134403367	-0.216864
C	 0.6995867891	-2.0930128879	-0.0120165573	 0.506901
N	 1.4541367618	-3.0901357322	-0.0486256965	-0.566006
O	 1.0994772622	-0.7464420653	 0.0373414683	-0.226971
C	-2.5181976872	-0.5136413341	 0.0029583408	 0.059272
O	-3.4282146098	-1.3144227335	-0.0367966708	-0.292293
H	 1.0256240154	 1.6994737781	-0.168805709	 0.282716
H	-0.6527694809	 1.9262611868	-0.0181744384	 0.283155
H	 2.4324546327	-2.8177701065	-0.0336755029	 0.24249
H	-2.7106573866	 0.5865200035	 0.0275536876	 0.045801
115.603	156.824	175.3369	209.6577	297.7752	342.0445	399.0672	450.2705	483.3118	586.2312	658.9038	675.7852	702.4553	727.5968	769.324	841.9719	935.5087	992.5349	1021.2107	1039.6743	1171.8911	1265.4089	1334.2865	1422.3006	1474.1308	1624.7822	1722.3694	1777.5354	1838.2364	2824.1132	3560.8463	3585.4319	3697.9698
NC1=C(OC(=N)O1)C=O	NC1=C(O[C@@H]([NH])O1)C=O	
InChI=1S/C4H4N2O3/c5-3-2(1-7)8-4(6)9-3/h1,6H,5H2	InChI=1S/C4H5N2O3/c5-3-2(1-7)8-4(6)9-3/h1,4,6H,5H2/t4-/m1/s1
