17
gdb 66509	3.04048	1.98913	1.75048	3.8878	76.4	-0.2032	-0.0463	0.1569	855.111	0.136169	-380.734271	-380.727532	-380.726588	-380.764895	27.838	
C	 0.0222326296	 1.4966195324	-0.0750074698	-0.511149
C	 0.0638471442	 0.0092399104	 0.0030905691	 0.351147
C	 0.254656436	-1.063226493	-1.0177607135	-0.099872
C	 0.4089404341	-2.0489974731	 0.1587703349	-0.147824
C	 0.6473022091	-0.8976286758	 1.1752600761	-0.105462
C	-0.3039080262	-1.338030261	 2.3498778596	-0.186312
N	-1.5704828659	-1.5846327795	 1.5835050105	-0.225447
C	-1.094671892	-1.7773432077	 0.4176978643	 0.208974
N	-1.1525973512	-0.7767273219	-0.6412231326	-0.203198
H	 1.0184239287	 1.9173526789	 0.1047293611	 0.124803
H	-0.3233555566	 1.8234942506	-1.0588311854	 0.142081
H	-0.6607330149	 1.9026616994	 0.678973626	 0.143037
H	 0.6179070398	-1.0456304834	-2.0363869415	 0.105813
H	 0.906511779	-3.0127423275	 0.2029069619	 0.092196
H	 1.6752011311	-0.6167703418	 1.4248064144	 0.079313
H	 0.1272707577	-2.2031945503	 2.8772250317	 0.109485
H	-0.5248652426	-0.5687076867	 3.0959705833	 0.122413
178.0799	201.8892	260.7292	344.6594	460.2577	528.4516	554.6577	594.3083	632.8103	657.0445	746.3912	812.3925	841.574	864.0382	890.01	910.9009	945.9851	954.18	993.563	1002.9717	1028.3795	1051.3065	1092.6169	1098.9226	1136.9991	1161.7425	1188.0669	1214.2862	1250.5503	1255.545	1292.0812	1383.7082	1422.2045	1476.3298	1480.4138	1486.5543	1612.6009	2984.7256	3030.6459	3072.1211	3080.0701	3093.4026	3123.0834	3168.2261	3211.8468
CC12C3C4C1CN=C4N23	C[C@@]12[C@H]3[C@H]4[C@@H]1C[N][C]4N23	
InChI=1S/C7H8N2/c1-7-3-2-8-6-4(3)5(7)9(6)7/h3-5H,2H2,1H3	InChI=1S/C7H8N2/c1-7-3-2-8-6-4(3)5(7)9(6)7/h3-5H,2H2,1H3/t3-,4+,5+,7-,9?/m0/s1
