16
gdb 124242	2.67677	1.4765	0.96298	1.1568	73.29	-0.2572	-0.0498	0.2074	1172.1577	0.122787	-437.916606	-437.907838	-437.906893	-437.950915	30.793	
C	 0.0030177357	 1.5283417745	-0.027775544	-0.49268
C	 0.0026339443	 0.011686768	 0.0458172891	 0.299044
O	 0.0037936574	-0.5681859692	 1.1158158127	-0.320527
C	 0.001226388	-0.7152418573	-1.2367972678	-0.0236
C	 0.00073317	-2.0784025076	-1.4332219257	 0.372068
C	 0.0019590816	-3.23765694	-0.5057614259	-0.504331
O	-0.000999733	-2.3415729512	-2.7421957815	-0.203928
N	-0.001736334	-1.1417692655	-3.472705998	-0.138982
C	-0.0002025189	-0.2011858783	-2.5692134871	-0.04885
H	 0.8845004693	 1.8888149315	-0.5697416777	 0.142656
H	-0.8797363203	 1.8893254441	-0.5673298591	 0.142663
H	 0.0045025005	 1.9358587014	 0.9832758378	 0.146353
H	-0.8775937572	-3.8662872205	-0.6796678684	 0.153876
H	 0.8876925463	-3.859377514	-0.6734518006	 0.154
H	-0.0024696614	-2.8725905404	 0.5201067929	 0.183428
H	-0.0004027683	 0.8299370947	-2.8941847869	 0.138809
61.194	68.8144	147.6259	181.7971	190.459	264.1051	302.4542	408.3971	477.0251	575.0075	636.511	642.774	694.1704	708.3755	886.3241	921.0133	946.9095	956.4684	1015.81	1043.2586	1069.3531	1093.3435	1188.1345	1261.1722	1296.0063	1379.5049	1394.4596	1412.2125	1466.3782	1469.402	1477.0509	1489.0973	1526.5021	1622.1916	1769.3147	3036.7374	3044.919	3098.2279	3100.6987	3157.1006	3173.9662	3243.1181
CC(=O)C1=C(C)ON=C1	CC(=O)c1c(C)onc1	
InChI=1S/C6H7NO2/c1-4(8)6-3-7-9-5(6)2/h3H,1-2H3	InChI=1S/C6H7NO2/c1-4(8)6-3-7-9-5(6)2/h3H,1-2H3
