15
gdb 5367	5.21971	1.60141	1.23475	5.4188	75.53	-0.1994	-0.016	0.1835	948.2274	0.120988	-358.874614	-358.867325	-358.86638	-358.906536	26.534	
C	 0.02124101	 1.4326855662	-0.1225661015	-0.325504
N	-0.0056091205	-0.0158242446	-0.136296387	-0.322619
C	-1.1091711088	-0.6341718014	 0.0576435096	 0.356836
C	-1.1253248947	-2.0982978377	 0.0417765898	-0.15724
C	-2.2675579539	-2.7725886233	 0.2421443721	-0.002454
N	-3.4427660014	-2.0696444031	 0.4662598478	-0.313665
C	-3.4011497687	-0.7010587445	 0.4760904803	 0.095825
N	-2.3527023232	 0.0104668703	 0.2934189367	-0.315053
H	 0.730028627	 1.7703523041	 0.6448494567	 0.111819
H	 0.4148757913	 1.79253952	-1.0821856185	 0.111815
H	-0.9498670929	 1.9050128219	 0.0607376422	 0.120948
H	-0.1919258039	-2.6157764741	-0.1356611139	 0.116137
H	-2.349017676	-3.8519402252	 0.2432192222	 0.131622
H	-4.3125708169	-2.5506593665	 0.6190525222	 0.266462
H	-4.3614134173	-0.218362862	 0.6580251012	 0.12507
67.9927	104.1257	232.723	253.9164	370.4471	455.5202	457.7982	513.0092	592.4434	649.6086	754.8087	790.563	830.0781	957.7807	969.1658	979.9129	1010.8286	1064.8282	1104.2094	1127.8978	1162.6083	1213.364	1245.2546	1413.5499	1427.154	1430.9627	1486.9963	1495.4449	1497.1107	1647.7171	1697.0369	1724.7697	3004.5424	3050.0182	3084.8275	3130.576	3211.7941	3231.9921	3664.4354
CN=C1C=CNC=N1	C[N]C1=NCNC=C1	
InChI=1S/C5H7N3/c1-6-5-2-3-7-4-8-5/h2-4H,1H3,(H,6,7,8)	InChI=1S/C5H8N3/c1-6-5-2-3-7-4-8-5/h2-3,7H,4H2,1H3
