17
gdb 28910	2.31	1.83084	1.02489	0.2157	80.77	-0.1837	0.0279	0.2116	1112.4827	0.138491	-418.075838	-418.067599	-418.066655	-418.107896	32.96	
N	-0.0767289226	 1.4073858569	 0.1409751541	-0.605469
C	-0.0059639842	 0.0079969404	 0.0374011319	 0.260504
C	-1.2176405329	-0.6980561994	-0.0372515664	 0.165256
N	-2.4343866514	 0.0168182013	-0.0740042549	-0.615806
C	-1.1844971754	-2.0928179772	-0.1177403862	 0.332215
O	-2.4045375596	-2.7187943064	-0.1977780809	-0.466527
C	 0.0237738581	-2.7859543781	-0.1102785007	-0.274806
C	 1.2174502202	-2.0765032304	-0.0095102757	-0.102957
C	 1.2059170821	-0.6879481266	 0.0594648105	-0.214694
H	 0.8055752483	 1.86450506	-0.0458580047	 0.241036
H	-0.8069592718	 1.7961405446	-0.4459916275	 0.249951
H	-2.4843614197	 0.7077421692	 0.6679325877	 0.246026
H	-3.2286401715	-0.6075094831	-0.0129380547	 0.254433
H	-2.2645206953	-3.6699200992	-0.2235054568	 0.295944
H	 0.0237175172	-3.8706151509	-0.1717773806	 0.073447
H	 2.1613604163	-2.6102313087	 0.0016731509	 0.086906
H	 2.1367655421	-0.1327129124	 0.1220338741	 0.074541
159.4421	204.2306	246.7988	286.0242	306.4731	318.6117	324.9102	453.9945	501.2356	509.6631	540.2703	564.1413	595.7745	702.5152	721.8878	735.2287	763.4842	814.6582	840.4994	866.3242	902.3047	982.7002	1082.9086	1136.2363	1168.4616	1179.7491	1250.8534	1284.0472	1336.6737	1350.0105	1390.7543	1513.2915	1551.2769	1620.1486	1642.965	1651.5406	1672.3279	3158.3485	3167.3768	3193.8171	3505.8491	3515.8176	3614.9191	3623.7798	3838.1053
NC1=C(N)C(O)=CC=C1	Nc1c(N)c(O)ccc1	
InChI=1S/C6H8N2O/c7-4-2-1-3-5(9)6(4)8/h1-3,9H,7-8H2	InChI=1S/C6H8N2O/c7-4-2-1-3-5(9)6(4)8/h1-3,9H,7-8H2
