18
gdb 66595	2.97744	1.91343	1.6105	1.4128	72.92	-0.2059	0.0652	0.271	889.6035	0.149967	-401.881704	-401.875015	-401.874071	-401.912377	28.052	
O	-0.1028560279	 1.3639391099	 0.126084431	-0.464126
C	 0.0455868858	-0.0045570367	 0.0654525292	 0.376973
C	-1.0599484956	-1.0299047475	 0.1231934771	-0.165447
C	-0.31731211	-0.8558631493	-1.1734676607	-0.120871
N	 0.4090528029	-2.1338981235	-1.0574272582	-0.100028
C	 1.8723523782	-1.9749880519	-1.18884403	-0.162473
C	 2.3619238569	-1.1341485715	 0.0395074577	-0.254621
C	 1.0573599207	-0.8965401111	 0.8037872016	-0.09245
C	 0.0795600397	-2.0552561778	 0.4104544079	-0.042882
H	 0.4988664578	 1.7691142618	-0.5083649207	 0.286991
H	-2.1094820418	-0.9822439956	 0.3678020464	 0.103877
H	-0.6479125309	-0.4315701147	-2.1144139196	 0.090678
H	 2.3347307522	-2.9673938432	-1.1938685743	 0.102982
H	 2.0993141815	-1.5044320987	-2.1500785244	 0.100604
H	 3.092850987	-1.6872663906	 0.6378313509	 0.098726
H	 2.8378035958	-0.1939916449	-0.2576992352	 0.093134
H	 1.1339342177	-0.6869565527	 1.8713115205	 0.074888
H	 0.01735553	-2.986104922	 0.9715863209	 0.074045
170.8764	219.6136	271.7763	350.3615	408.3047	505.0467	610.8604	672.1325	708.9313	739.5038	786.0623	811.9132	830.003	850.1943	883.9968	898.961	902.8152	936.0675	964.8215	996.4123	1011.3186	1051.7253	1080.7044	1093.762	1130.353	1155.1891	1178.8323	1189.6785	1223.6248	1243.4471	1247.0866	1277.7603	1285.3151	1300.0593	1335.6794	1351.0661	1446.3483	1487.443	1503.805	3040.3076	3050.0008	3074.5217	3097.469	3112.3756	3127.0283	3183.1647	3242.6063	3788.7818
OC12C3C1N1CCC2C31	O[C@@]12[C@H]3[C@@H]1N1CC[C@@H]2[C@@H]31	
InChI=1S/C7H9NO/c9-7-3-1-2-8-5(3)4(7)6(7)8/h3-6,9H,1-2H2	InChI=1S/C7H9NO/c9-7-3-1-2-8-5(3)4(7)6(7)8/h3-6,9H,1-2H2/t3-,4-,5+,6+,7+/m1/s1
