16
gdb 37621	2.97743	2.37816	2.10026	0.3758	69.39	-0.2316	-0.0027	0.2289	751.0761	0.128496	-400.704419	-400.699114	-400.69817	-400.733679	23.735	
O	-0.0362091431	 1.4623924004	-0.0032219179	-0.254001
C	 1.3250412962	 1.8118259113	 0.0464908061	 0.048177
C	 1.9378503517	 0.9585608366	 1.168455889	-0.064113
C	 1.2691410234	-0.3100258485	 0.8292013055	-0.052235
C	 0.0208323929	 0.006697493	-0.0396533621	 0.002869
C	 0.2629139905	-0.3652291468	-1.4784803677	-0.067744
C	 1.37480337	 0.1825470771	-1.9798932658	-0.045577
C	 2.177754622	 0.9193830127	-0.9652506112	-0.078229
N	 2.5756349056	 0.0092436842	 0.1943332362	-0.149669
H	 1.4387816315	 2.8933776754	 0.012663573	 0.090207
H	 2.3703293187	 1.2459963652	 2.1184668357	 0.097936
H	 1.2761144299	-1.1768884927	 1.4773203451	 0.105665
H	-0.9053104055	-0.3826173253	 0.3827043979	 0.082673
H	-0.4452672445	-0.96369456	-2.0390739059	 0.103391
H	 1.6876920366	 0.1007205182	-3.0145428295	 0.102462
H	 3.0669244642	 1.4218425491	-1.3445872284	 0.078187
365.9229	401.8472	448.5056	590.7337	632.8126	678.4736	697.8445	709.5485	741.1674	800.8075	815.4859	842.4995	870.2354	918.2975	940.3984	947.6684	964.3127	980.876	994.5305	1030.8241	1043.1332	1053.5792	1084.5854	1151.1747	1174.778	1194.1581	1241.2332	1256.414	1273.5916	1296.7904	1323.0596	1342.8006	1367.0266	1393.1946	1667.3651	3116.6372	3118.3524	3144.8459	3184.5715	3190.6079	3203.748	3208.8933
O1C2C3C4C1C=CC2N34	O1[C@H]2[C@H]3[C@H]4[C@@H]1C=C[C@@H]2N34	
InChI=1S/C7H7NO/c1-2-4-5-6-7(9-4)3(1)8(5)6/h1-7H	InChI=1S/C7H7NO/c1-2-4-5-6-7(9-4)3(1)8(5)6/h1-7H/t3-,4-,5+,6+,7+,8?/m0/s1
