14
gdb 15706	3.42944	1.76292	1.22184	3.0909	53.66	-0.2793	-0.0056	0.2737	924.5661	0.10736	-456.840482	-456.833094	-456.83215	-456.872811	25.905	
O	 0.0599676147	 1.4360589031	 0.0153532098	-0.416646
C	 0.0740249447	 0.0279118123	 0.0837930911	-0.067681
C	-1.3346070343	-0.5484946029	-0.0005595512	-0.067453
O	-1.8995495666	-0.2412043437	-1.2723267784	-0.26708
C	-2.6903085815	-1.3434405709	-1.6398897523	 0.026413
O	-2.1465329032	-2.4894260766	-0.9877680571	-0.216993
C	-1.373199921	-2.0721209875	 0.0521086493	 0.424735
O	-0.8355079237	-2.8087529104	 0.8222132395	-0.328594
H	-0.3302660008	 1.6754837333	-0.8326967555	 0.295493
H	 0.6890276125	-0.4185462176	-0.7119867259	 0.103352
H	 0.5093326133	-0.2511327066	 1.0470786687	 0.13873
H	-1.9518810304	-0.1356531714	 0.8125399989	 0.120258
H	-3.7355977617	-1.2218726391	-1.3179530923	 0.116476
H	-2.6352524819	-1.486907152	-2.7217057447	 0.138989
83.1429	114.4296	171.6767	193.361	322.5068	404.5075	425.3927	549.3158	609.0705	710.1791	750.9158	856.7993	927.5998	1010.7721	1052.1883	1080.1148	1088.5806	1120.2263	1147.2662	1209.6111	1225.4213	1235.3406	1291.2469	1338.9875	1399.7573	1420.2795	1442.8298	1492.7232	1545.6132	1899.3366	2989.7963	2995.2041	3004.204	3103.3602	3105.7367	3808.0018
OCC1OCOC1=O	OC[C@H]1OCOC1=O	
InChI=1S/C4H6O4/c5-1-3-4(6)8-2-7-3/h3,5H,1-2H2	InChI=1S/C4H6O4/c5-1-3-4(6)8-2-7-3/h3,5H,1-2H2/t3-/m1/s1
