17
gdb 87549	2.57414	1.56707	1.15639	2.9429	73.97	-0.2374	-0.0116	0.2257	1069.2899	0.135133	-421.792662	-421.784603	-421.783658	-421.825295	30.852	
O	-0.0580535454	 1.4307530717	 0.2559117282	-0.413811
C	-0.0189113015	 0.0529352826	 0.0370179019	 0.031648
C	-0.3882515738	-0.7972653696	 1.2064836712	-0.37408
C	-1.3291835311	-0.7040549782	 0.0272864807	 0.20351
C	-2.7438860867	-0.1484015054	-0.0217207318	-0.144063
C	-3.114309258	 0.1092871999	-1.4422965562	-0.290175
C	-3.1742188226	-1.3271439346	-0.9365043593	-0.174243
C	-1.7766364604	-1.8842307615	-0.8137668184	 0.361505
O	-1.2575175395	-2.923134565	-1.1176154542	-0.334541
H	-0.345266944	 1.8561274793	-0.5591213768	 0.291692
H	 0.7696064934	-0.3023149249	-0.626215185	 0.102238
H	 0.1281504175	-1.7405893826	 1.3485080481	 0.137948
H	-0.6776586467	-0.2733470498	 2.1111193603	 0.133134
H	-3.2941496048	 0.2436050247	 0.8223777999	 0.11248
H	-4.0896820799	 0.5514559406	-1.6204303206	 0.127326
H	-2.3559640457	 0.3985054234	-2.1650399286	 0.115481
H	-4.0962314407	-1.8932520406	-0.9573370794	 0.113951
102.3974	131.1747	169.7311	221.648	288.9287	320.9643	416.7273	443.8487	571.1129	613.8812	668.0782	725.5887	804.4435	834.2742	854.4404	887.1186	901.3212	937.7006	961.9164	985.6608	1024.7991	1046.9016	1062.7436	1088.5994	1099.6566	1119.5005	1167.352	1178.7351	1205.9858	1256.3398	1291.4625	1298.0774	1362.7826	1422.479	1479.5146	1488.7108	1872.2047	3104.8898	3113.9925	3133.5555	3199.2503	3205.0519	3218.2568	3228.7807	3805.8932
OC1CC11C2CC2C1=O	O[C@H]1C[C@]21[C@H]1C[C@H]1C2=O	
InChI=1S/C7H8O2/c8-5-2-7(5)4-1-3(4)6(7)9/h3-5,8H,1-2H2	InChI=1S/C7H8O2/c8-5-2-7(5)4-1-3(4)6(7)9/h3-5,8H,1-2H2/t3-,4+,5+,7-/m1/s1
