17
gdb 24614	5.09492	1.08199	0.92077	1.6981	75.49	-0.1929	0.0131	0.206	1236.7543	0.138373	-418.011843	-418.00434	-418.003396	-418.044555	27.792	
C	-0.1309719873	 1.5608647764	 0.0502357873	-0.23454
C	 1.387913575	 1.5220934554	-0.2715635321	-0.160702
N	 1.438485438	 0.1742936316	 0.3251269931	-0.157512
C	-0.0251099964	 0.0428863209	 0.3508105246	-0.172357
C	 2.2831040204	-0.8168771956	-0.111291752	 0.306368
C	 2.12558692	-2.1719277639	-0.1244069336	-0.150422
O	 3.2915552212	-2.7146043978	-0.6272562696	-0.14178
C	 4.0663215461	-1.6531405616	-0.8934846131	 0.086917
N	 3.5405672853	-0.5028650562	-0.6165406316	-0.319548
H	-0.3725058003	 2.1586973139	 0.9303280048	 0.116735
H	-0.7905462675	 1.8448761061	-0.7695137178	 0.112531
H	 1.6135145477	 1.5268057764	-1.3453722572	 0.109624
H	 2.0264648678	 2.2582877157	 0.2241730313	 0.115794
H	-0.4346262721	-0.3115610844	 1.3027604132	 0.109236
H	-0.4102826575	-0.5952320753	-0.4590830635	 0.097707
H	 1.3568380237	-2.8611609584	 0.1714605903	 0.134753
H	 5.041672616	-1.8507906334	-1.310203764	 0.147197
77.3616	98.9297	160.6888	187.8303	353.3297	452.8353	496.1729	630.2586	634.7057	733.6147	750.7207	839.5639	848.0664	875.5274	931.6356	939.8173	943.4262	991.2029	1075.3496	1092.0345	1122.6651	1140.0459	1152.6491	1171.317	1203.2172	1223.3618	1257.9608	1270.4097	1294.591	1343.1249	1352.2328	1373.8639	1490.8943	1511.5933	1536.0259	1557.9892	1653.5312	2985.768	3024.5065	3056.9463	3082.0272	3091.62	3146.0666	3272.6304	3310.415
C1CN(C1)C1=COC=N1	C1CN(C1)c1cocn1	
InChI=1S/C6H8N2O/c1-2-8(3-1)6-4-9-5-7-6/h4-5H,1-3H2	InChI=1S/C6H8N2O/c1-2-8(3-1)6-4-9-5-7-6/h4-5H,1-3H2
