19
gdb 105995	2.64353	1.67989	1.26076	0.8799	79.51	-0.2129	0.0862	0.2991	1065.9517	0.157173	-385.769697	-385.761291	-385.760347	-385.80254	32.27	
C	 0.1587133397	 1.2578091858	-0.1739218034	-0.256796
O	-0.1695243536	-0.0762349485	 0.1921544761	-0.280699
C	 0.5600490549	-0.5535428312	 1.2379954405	 0.391009
C	 0.5584457712	-0.2250651422	 2.7765744169	-0.18917
C	 2.015939885	-0.6561238711	 2.8530787707	-0.077581
C	 0.9105310681	-1.6799978418	 3.0581443473	-0.143349
C	 0.905243473	-1.9957200434	 1.5264992834	 0.264431
C	 0.6002710938	-3.2359786519	 0.7548268119	-0.526172
C	 2.034065011	-0.9628023474	 1.3290869568	-0.248582
H	 1.2169691097	 1.3424443266	-0.4533963714	 0.114993
H	-0.4682443446	 1.5159199809	-1.0298665602	 0.127396
H	-0.0456811278	 1.95938917	 0.6459984921	 0.11652
H	 0.0111469932	 0.4757883502	 3.3931621786	 0.087756
H	 2.7887091265	-0.3232594859	 3.5339051678	 0.083915
H	 0.669011807	-2.2855866353	 3.922883654	 0.083189
H	-0.4187351267	-3.5895718543	 0.9518677858	 0.122702
H	 0.6803844609	-3.0446594253	-0.3203558454	 0.128274
H	 1.2927155102	-4.0479436721	 1.0057096926	 0.11877
H	 2.8167464585	-0.9579210231	 0.5818214459	 0.083394
100.189	134.9378	167.1662	200.6785	232.9939	258.5838	369.8325	443.1035	560.7954	637.5017	700.1462	750.0204	764.7172	781.7617	815.9066	857.1937	881.4662	883.3215	931.5446	969.45	971.5082	1006.3341	1019.1348	1056.5903	1063.3562	1101.7948	1152.4815	1178.3115	1178.5473	1193.3989	1225.2952	1249.3161	1314.2866	1352.0228	1411.3467	1447.2769	1480.497	1485.2577	1493.1503	1503.845	1508.6933	3001.6419	3020.1068	3059.2728	3077.4623	3096.9233	3126.5687	3181.4155	3187.3735	3201.4105	3204.917
COC12C3C4C3C1(C)C24	CO[C@@]12[C@@H]3[C@H]4[C@@H]3[C@]1(C)[C@@H]24	
InChI=1S/C8H10O/c1-7-4-3-5(4)8(7,9-2)6(3)7/h3-6H,1-2H3	InChI=1S/C8H10O/c1-7-4-3-5(4)8(7,9-2)6(3)7/h3-6H,1-2H3/t3-,4+,5-,6+,7-,8-/m1/s1
