16
gdb 80379	2.38229	1.73401	1.23193	4.6321	68.82	-0.2692	0.0207	0.2899	1012.9099	0.123252	-437.851761	-437.843433	-437.842489	-437.884349	31.754	
O	-0.0575487132	 1.3918220615	 0.0378509534	-0.409505
C	-0.0474096706	-0.003038865	 0.0591170609	 0.094496
C	-0.4479669316	-0.8079278154	 1.2593620377	-0.120216
C	-1.5164606201	-0.0537564099	 2.0593233136	-0.291581
C	-2.4486587754	-0.0690611216	 0.7950676361	 0.285134
O	-3.5147578801	-0.9930349493	 0.9078746823	-0.462352
C	-2.9703307174	 1.227499314	 0.3302863645	 0.249842
N	-3.4586989264	 2.2264078955	 0.0149121676	-0.352039
C	-1.3357163526	-0.7485661895	-0.0092484659	-0.122045
H	 0.7081631204	 1.710525792	 0.5276195309	 0.292942
H	 0.7391600065	-0.4624943401	-0.5409041443	 0.102035
H	 0.1482561049	-1.6303468746	 1.6346200639	 0.09709
H	-1.9759405737	-0.6545122587	 2.8450448344	 0.119875
H	-1.2294203843	 0.9255259961	 2.448308285	 0.112542
H	-4.2102018281	-0.5887105532	 1.4399120051	 0.291774
H	-1.5555619482	-1.4972660318	-0.7597092553	 0.112007
115.4497	134.6334	204.6411	241.0142	289.568	314.1917	337.5233	403.6173	489.4699	509.042	561.3717	616.5942	680.2708	743.7924	795.5912	850.1433	919.5488	946.8108	989.6481	999.8736	1022.3559	1065.1214	1080.9469	1101.3414	1145.453	1205.8967	1214.735	1250.7296	1275.1163	1293.6726	1338.9117	1376.1411	1452.3536	1474.9835	2351.5649	3073.8042	3100.5758	3139.9553	3188.4209	3201.5212	3797.4584	3807.6275
OC1C2CC(O)(C#N)C12	O[C@H]1[C@H]2C[C@@](O)(C#N)[C@@H]12	
InChI=1S/C6H7NO2/c7-2-6(9)1-3-4(6)5(3)8/h3-5,8-9H,1H2	InChI=1S/C6H7NO2/c7-2-6(9)1-3-4(6)5(3)8/h3-5,8-9H,1H2/t3-,4+,5-,6+/m0/s1
