25
gdb 100263	1.90617	1.25352	1.14139	2.4642	88.37	-0.2355	-0.008	0.2275	1340.7909	0.225393	-389.524178	-389.512513	-389.511569	-389.560911	42.712	
C	-0.2026176038	 1.5573924033	 0.1133079215	-0.398043
C	 0.0049335569	 0.0404063719	 0.049567561	-0.201634
C	 0.7285642447	-0.4964374522	-1.2227406231	 0.151318
C	 0.8067357725	-2.0339308738	-1.1257443922	-0.438398
C	 0.0104704085	-0.0689105487	-2.5261355244	-0.178436
C	-1.4677170629	-0.4560671416	-2.6441595667	-0.413075
C	 2.1517645738	 0.1082808911	-1.2340509325	 0.384221
C	 3.1977845485	-0.4682320516	-0.2883335322	-0.485581
O	 2.442669532	 1.0304360085	-1.9632954886	-0.316569
H	 0.7415473696	 2.1021657259	 0.0198632653	 0.131037
H	-0.8624518811	 1.9104012169	-0.6844335107	 0.125121
H	-0.6595251339	 1.8377161318	 1.0674120223	 0.111265
H	 0.5649454503	-0.2849675298	 0.9347251298	 0.093985
H	-0.9654907247	-0.4651452096	 0.1185921438	 0.102699
H	-0.1972363996	-2.4674991716	-1.132134141	 0.121906
H	 1.3576485898	-2.4611394077	-1.9707052234	 0.116032
H	 1.2922531987	-2.3634717957	-0.2030106045	 0.114047
H	 0.1181300056	 1.0116556894	-2.6425802015	 0.120163
H	 0.5626287546	-0.5018967464	-3.3692064097	 0.093815
H	-1.6251511983	-1.5377522595	-2.5827797844	 0.113383
H	-2.0823885706	 0.0130892618	-1.8692879398	 0.117259
H	-1.8613733794	-0.127438346	-3.6111471911	 0.116166
H	 2.8038207711	-0.6461577881	 0.7161269299	 0.134338
H	 3.54966706	-1.4333494137	-0.6695815811	 0.144838
H	 4.0440266278	 0.2182090754	-0.2410938365	 0.140143
41.0699	92.2477	106.7194	152.119	176.895	206.0997	225.2132	231.0417	280.1881	304.6368	328.023	360.9768	366.877	421.5202	480.5696	567.6556	613.6394	660.4654	757.7731	780.4431	842.5157	880.47	956.7687	989.33	1009.526	1018.3906	1021.3427	1050.0866	1086.1036	1094.0682	1144.2453	1195.2793	1221.2107	1245.2708	1313.9275	1316.6347	1363.6723	1376.7369	1381.7607	1411.2375	1418.3898	1419.0177	1461.2813	1475.9116	1480.7675	1486.9013	1499.5263	1501.0757	1502.9815	1506.8984	1513.6742	1515.934	1792.4582	3025.7169	3034.3739	3037.355	3039.4144	3042.5017	3044.6736	3056.001	3090.6902	3102.476	3104.8386	3106.761	3108.6802	3111.6603	3115.1725	3116.9646	3151.4301
CCC(C)(CC)C(C)=O	CCC(C)(CC)C(=O)C	
InChI=1S/C8H16O/c1-5-8(4,6-2)7(3)9/h5-6H2,1-4H3	InChI=1S/C8H16O/c1-5-8(4,6-2)7(3)9/h5-6H2,1-4H3
