13
gdb 20688	6.87826	1.35189	1.13786	3.3676	69.21	-0.2403	-0.0142	0.2261	994.4947	0.095941	-357.644968	-357.637533	-357.636589	-357.67779	26.313	
C	-0.0448698824	 1.4893044539	 0.0469991053	-0.513915
C	-0.0012451957	 0.0019083641	-0.0452729366	 0.337687
N	-0.039833728	-0.7193147083	-1.1486878537	-0.333308
C	 0.0302011334	-2.0103995141	-0.688676729	 0.158704
N	 0.1082156276	-2.1219195123	 0.6353718485	-0.265711
N	 0.0869822819	-0.828148326	 1.0220492344	-0.223931
C	 0.0191633358	-3.1413153908	-1.5454558662	 0.295291
C	 0.0091320407	-4.0930674315	-2.2795033868	-0.388328
H	 0.8628381308	 1.8898622897	 0.5106019755	 0.144803
H	-0.1307581692	 1.8992088661	-0.9594533704	 0.169006
H	-0.9014827081	 1.8304531474	 0.6377269294	 0.144115
H	 0.1347856487	-0.6049158559	 2.0031109899	 0.281149
H	 0.0002621147	-4.9339712024	-2.9278811904	 0.194437
23.1664	143.0263	149.22	276.7106	333.9842	473.7821	544.1396	557.9543	573.9255	606.6729	668.9606	695.8086	732.115	777.8576	988.8964	1017.2283	1065.6761	1077.2264	1174.3607	1275.1123	1363.9105	1409.7288	1427.5151	1476.639	1483.5835	1498.5795	1589.1166	2250.4604	3042.5986	3097.4784	3156.7816	3504.314	3656.5377
CC1=NC(=NN1)C#C	Cc1nc(n[nH]1)C#C	
InChI=1S/C5H5N3/c1-3-5-6-4(2)7-8-5/h1H,2H3,(H,6,7,8)	InChI=1S/C5H5N3/c1-3-5-6-4(2)7-8-5/h1H,2H3,(H,6,7,8)
