19
gdb 5821	2.74125	1.70208	1.35324	4.9798	71.28	-0.2815	0.0338	0.3152	1002.4017	0.162597	-365.088522	-365.078831	-365.077887	-365.122357	35.64	
C	-0.0072714197	 1.5862055776	-0.095380767	-0.42347
C	 0.0276629749	 0.0472477423	-0.0041520726	-0.140009
C	 0.6390878688	-0.4894708488	-1.2253573713	 0.286409
N	 1.104894609	-0.8949919534	-2.2022546674	-0.336387
C	 0.7585022525	-0.5031697254	 1.2730895389	 0.339627
C	 0.0212336132	-0.0555372528	 2.543198245	-0.439721
C	 0.8430791086	-2.0305555402	 1.2218012877	-0.406474
O	 2.1072147593	-0.0466440064	 1.2935174113	-0.450814
H	 1.0064272346	 1.9963385042	-0.098492103	 0.134723
H	-0.4923932182	 1.9015778262	-1.0218438107	 0.144426
H	-0.564525438	 2.0159331189	 0.7398816749	 0.127435
H	-1.0043116209	-0.3251331027	 0.0241594999	 0.122219
H	-1.0176878319	-0.4000137995	 2.5482523428	 0.121436
H	 0.5252906755	-0.4735225038	 3.4184858728	 0.1328
H	 0.0131438996	 1.034117031	 2.6498817447	 0.112726
H	 1.4268088144	-2.3536807313	 0.3573962988	 0.155174
H	 1.3335763753	-2.4004720799	 2.1255920544	 0.123669
H	-0.1539275382	-2.4767604503	 1.1579801983	 0.113538
H	 2.1154687213	 0.8782431642	 1.5599837425	 0.282691
52.5509	154.915	198.0904	204.7381	231.7429	259.1527	284.8881	314.8971	338.9802	366.1608	402.1932	417.7817	480.7612	582.7355	600.5164	739.5535	840.3416	900.5231	936.3728	969.098	1001.6079	1019.6575	1071.5671	1108.7853	1140.9463	1199.6721	1229.7504	1307.7406	1333.0201	1367.7722	1403.4328	1406.9668	1423.6232	1477.6073	1485.3411	1495.1528	1500.2843	1507.0306	1513.2176	2356.352	3032.9112	3037.2824	3050.6295	3055.0216	3104.0468	3118.3336	3124.9086	3128.0122	3136.0526	3138.7028	3820.5364
CC(C#N)C(C)(C)O	C[C@@H](C#N)C(C)(C)O	
InChI=1S/C6H11NO/c1-5(4-7)6(2,3)8/h5,8H,1-3H3	InChI=1S/C6H11NO/c1-5(4-7)6(2,3)8/h5,8H,1-3H3/t5-/m0/s1
