23
gdb 122810	6.95754	0.46114	0.43947	1.0983	83.59	-0.2417	-0.0066	0.235	2490.8955	0.20234	-425.452246	-425.440519	-425.439574	-425.491473	39.881	
C	 0.1697012132	 1.5202047832	 0.0082244702	-0.374299
C	-0.0310049773	 0.0068136051	 0.0015114445	-0.274155
C	-1.4961903957	-0.4153398698	 0.0140462192	 0.370512
O	-2.394399149	 0.3962291166	 0.0274803154	-0.2976
C	-1.765683748	-1.9158767449	 0.008771966	-0.300996
C	-3.2502891928	-2.2784887557	 0.0206157945	-0.177663
C	-3.4896730113	-3.7903819051	 0.015336714	-0.172296
C	-4.9686549666	-4.1531745053	 0.0271815433	-0.074924
O	-5.0731831435	-5.5694728313	 0.0211161754	-0.42245
H	 1.2344316633	 1.7696567854	-0.0013689571	 0.108376
H	-0.3022255002	 1.9798093573	-0.8638396812	 0.130574
H	-0.2839686335	 1.9696074836	 0.8951709669	 0.13055
H	 0.4434156648	-0.4525371512	-0.8768409941	 0.119105
H	 0.4613029889	-0.4626699504	 0.8645261725	 0.119082
H	-1.2637455614	-2.3479287068	-0.8689474754	 0.118284
H	-1.2477918747	-2.3567260119	 0.8727589602	 0.118332
H	-3.7205254775	-1.8233975454	 0.8999919639	 0.11013
H	-3.7365799758	-1.8147938933	-0.8454441536	 0.110077
H	-3.0288851949	-4.2470223132	-0.8697729617	 0.102105
H	-3.0126856457	-4.2557089831	 0.8872426762	 0.102108
H	-5.4494630542	-3.7213881116	 0.9204176449	 0.085098
H	-5.4658302928	-3.7125873847	-0.8526980248	 0.085092
H	-6.0061527052	-5.8017163676	 0.0285147908	 0.28496
28.8152	45.0801	66.6975	81.0427	119.108	136.1852	186.8009	202.1672	256.1334	264.0734	302.907	428.0205	470.9529	486.3459	648.2472	702.936	756.7131	815.562	827.1937	911.9357	975.7821	1008.782	1019.401	1025.3669	1058.7029	1068.0999	1102.7898	1128.8489	1149.22	1202.4144	1230.2419	1266.3127	1292.2302	1293.8254	1316.0896	1328.1343	1351.5755	1375.6872	1400.6656	1413.2233	1446.5564	1459.5672	1466.1062	1486.4718	1491.5142	1497.6074	1502.5106	1529.4962	1804.9244	2959.6652	2984.5869	3007.5162	3019.8352	3023.6649	3032.3116	3041.5686	3046.2703	3051.163	3057.1188	3084.4628	3122.0233	3127.3504	3830.443
CCC(=O)CCCCO	CCC(=O)CCCCO	
InChI=1S/C7H14O2/c1-2-7(9)5-3-4-6-8/h8H,2-6H2,1H3	InChI=1S/C7H14O2/c1-2-7(9)5-3-4-6-8/h8H,2-6H2,1H3
