21
gdb 77526	2.33534	1.73971	1.26183	1.2406	78.09	-0.2345	0.0628	0.2973	1083.3615	0.18129	-424.213251	-424.204225	-424.203281	-424.246051	35.618	
C	-0.1555623332	 1.5598767946	-0.0936487043	-0.438149
C	 0.0182991455	 0.0502936337	-0.0046037619	-0.038085
C	 1.1648622143	-0.5934936506	-0.8425551692	 0.352959
O	 1.3227989521	-0.214071966	-2.1706592558	-0.485988
C	 2.1443602482	-0.2162125514	 0.3191520588	-0.358955
C	 0.8788205949	-0.5571309981	 1.1503949067	 0.434083
C	 0.6969110828	-0.2456862008	 2.6071900048	-0.492531
O	 0.7332800765	-1.9823417244	 0.9133648296	-0.310978
C	 0.926067277	-2.0773684412	-0.5093565192	-0.138536
H	 0.775322135	 2.1140470866	 0.0507776504	 0.117546
H	-0.5480444026	 1.8345011339	-1.0778074882	 0.131238
H	-0.8702032526	 1.9086149086	 0.6595103151	 0.116054
H	-0.9535271126	-0.443019485	-0.1165291569	 0.071292
H	 2.1056742782	-0.6490806159	-2.5260488424	 0.282531
H	 3.0229061577	-0.8458786129	 0.4842405958	 0.091097
H	 2.4152250172	 0.838487411	 0.3257157613	 0.105931
H	 0.7785542039	 0.8302979635	 2.7852032596	 0.119967
H	-0.2872649652	-0.5818976084	 2.9487236609	 0.127525
H	 1.457133143	-0.755308668	 3.2072414078	 0.127354
H	 0.034348139	-2.4843999947	-1.0010904157	 0.100797
H	 1.786969351	-2.7205539844	-0.739059807	 0.084848
159.3567	187.3815	195.4989	205.5443	235.0185	260.6441	301.6176	354.3462	413.7876	463.4206	483.1057	540.5865	596.1155	620.3905	683.7269	800.9758	807.7369	869.9639	897.2003	951.4009	997.957	1008.5634	1023.8632	1077.5733	1103.6967	1104.6667	1133.3497	1146.3441	1170.0886	1187.0103	1200.9973	1214.623	1277.6258	1328.1962	1345.8817	1369.7723	1402.4204	1410.9759	1420.8247	1478.772	1487.4696	1491.9611	1497.4063	1503.0886	1530.2964	3001.3741	3037.8196	3039.2791	3044.5915	3052.2364	3067.8783	3099.6456	3108.7162	3114.758	3117.2638	3150.2057	3801.9706
CC1C2(O)CC1(C)OC2	C[C@H]1[C@@]2(O)C[C@]1(C)OC2	
InChI=1S/C7H12O2/c1-5-6(2)3-7(5,8)4-9-6/h5,8H,3-4H2,1-2H3	InChI=1S/C7H12O2/c1-5-6(2)3-7(5,8)4-9-6/h5,8H,3-4H2,1-2H3/t5-,6+,7-/m1/s1
