17
gdb 17429	2.69014	2.64871	1.86283	1.132	66.67	-0.2385	0.068	0.3064	786.2196	0.142359	-363.796259	-363.789159	-363.788215	-363.827046	28.016	
C	-0.0042752075	 1.5724691479	 0.0212500703	-0.519239
C	 0.0436826716	 0.0695086727	 0.0525989723	 0.24917
C	-1.2047519974	-0.8159147495	 0.1948298373	-0.198789
N	-0.3671910661	-1.9086582386	 0.7951993119	-0.150587
C	 0.935498521	-1.8553734505	 0.0373646946	-0.115175
C	 0.6679422982	-0.8976958524	 1.1391492868	-0.099396
C	 0.8885364432	-0.7349855979	-0.9915406693	 0.137239
O	 0.4102652872	-0.9405141033	-2.2959888833	-0.447945
H	 1.0005118571	 2.0060005955	 0.06857606	 0.121344
H	-0.4694417646	 1.916437802	-0.9096995139	 0.132197
H	-0.5854275116	 1.9767407954	 0.857017576	 0.119039
H	-1.8976967102	-0.4583090617	 0.9611953208	 0.110383
H	-1.7720463562	-1.0826556093	-0.7074460755	 0.081084
H	 1.5293177557	-2.760163383	 0.0427924657	 0.09987
H	 1.1111052961	-0.7709464329	 2.1174531424	 0.100074
H	 1.8767067798	-0.2767682347	-1.0968412868	 0.093253
H	-0.3444545963	-1.5359650195	-2.2553865993	 0.287477
178.2257	195.3212	241.4197	289.9712	297.6109	347.961	512.8205	593.653	623.1036	711.3527	774.5763	812.4599	816.1768	861.6864	922.9149	930.2057	971.858	987.4515	1011.3989	1014.9395	1106.1443	1138.6409	1145.705	1164.0139	1178.3063	1208.0692	1252.1364	1264.3089	1272.4007	1321.0183	1364.686	1414.1939	1433.788	1488.8999	1493.8569	1515.0889	3011.2442	3026.266	3073.6892	3092.2081	3093.4522	3094.9103	3199.7138	3214.7531	3825.968
CC12CN3C(C13)C2O	C[C@]12CN3[C@H]([C@@H]13)[C@H]2O	
InChI=1S/C6H9NO/c1-6-2-7-3(4(6)7)5(6)8/h3-5,8H,2H2,1H3	InChI=1S/C6H9NO/c1-6-2-7-3(4(6)7)5(6)8/h3-5,8H,2H2,1H3/t3-,4+,5-,6+,7?/m1/s1
