15
gdb 85220	2.58739	1.16502	0.8738	4.3823	63.87	-0.2857	-0.0226	0.2631	1272.3118	0.110465	-494.941779	-494.933095	-494.932151	-494.976433	29.867	
C	-0.2424475705	 1.5045787132	 0.1026323681	-0.399114
C	 0.1139305918	 0.0388079935	 0.0258221279	 0.103938
O	 1.2635816131	-0.213726277	-0.8646480239	-0.25066
C	 2.0582185803	-0.6503917392	 0.1599929949	 0.438167
O	 3.2013743515	-0.9637573134	 0.1337107809	-0.308828
C	 0.9201471875	-0.5689501793	 1.1992707858	-0.083928
O	 1.1551708554	 0.270975477	 2.3018721367	-0.181688
C	 1.0221417473	-0.2476634238	 3.550760153	 0.179591
O	 1.1997966414	 0.402483512	 4.5300320193	-0.253921
H	 0.6058389952	 2.0992100129	 0.4482261673	 0.149901
H	-0.5522335706	 1.8642227177	-0.8820319551	 0.142142
H	-1.0720324216	 1.6506656084	 0.8011525794	 0.136932
H	-0.7279750073	-0.5754113147	-0.303414303	 0.108723
H	 0.5758881691	-1.559777612	 1.5164582764	 0.12651
H	 0.7341251873	-1.3162289654	 3.5371019623	 0.092237
42.7882	91.6544	141.8761	168.5456	207.0981	251.1464	292.9463	408.0269	465.3403	504.2714	632.6363	719.9657	774.9832	852.9575	879.2187	954.1926	1033.1718	1037.8821	1047.8352	1131.3687	1137.0939	1156.3435	1186.515	1214.7492	1317.4753	1377.7252	1381.0077	1416.6677	1438.3935	1483.9983	1491.0465	1884.6613	1950.5864	2960.4324	3051.4372	3051.9099	3084.476	3124.1014	3142.2103
CC1OC(=O)C1OC=O	C[C@H]1OC(=O)[C@H]1OC=O	
InChI=1S/C5H6O4/c1-3-4(8-2-6)5(7)9-3/h2-4H,1H3	InChI=1S/C5H6O4/c1-3-4(8-2-6)5(7)9-3/h2-4H,1H3/t3-,4+/m1/s1
