15
gdb 13953	5.11389	1.42225	1.27716	2.7071	64.69	-0.251	0.0266	0.2776	942.4884	0.118914	-362.631887	-362.624728	-362.623783	-362.663752	26.387	
N	-0.7577719857	 0.0262921829	 1.3665129586	-0.309541
C	-0.2061491637	 0.3909361325	 0.4192680103	 0.267091
C	 0.5044672797	 0.8709619855	-0.7621257659	-0.450602
C	 1.6489886706	 1.7896870018	-0.4165513135	 0.476135
C	 2.5671390887	 1.7239216158	 0.7602109007	-0.33466
C	 1.818337175	 3.0120328529	 0.4546890065	-0.170059
C	 2.4221365983	 3.6485811417	-0.7910088324	-0.08976
O	 2.3005678334	 2.3995179358	-1.5343925764	-0.328051
H	 0.8872250598	 0.0090202935	-1.3237667464	 0.167312
H	-0.2003589149	 1.3913251819	-1.4206933118	 0.16319
H	 2.1903692359	 1.1862011951	 1.6243532936	 0.142855
H	 3.6389131735	 1.6530077353	 0.5950136312	 0.119457
H	 1.1432588035	 3.481575937	 1.1565843594	 0.117442
H	 1.7943836787	 4.4228050874	-1.2445752132	 0.116082
H	 3.4602175272	 3.9948473211	-0.7341452307	 0.113107
57.8879	127.0304	231.0761	318.54	387.0735	397.1787	424.9725	514.2583	681.8113	747.569	818.261	873.9533	940.3552	960.6951	972.8754	979.7201	998.8523	1023.4244	1036.0615	1079.0974	1130.0606	1146.865	1172.5522	1227.1119	1270.9262	1320.3705	1359.3204	1394.933	1465.3226	1486.6165	1518.7587	2367.5785	3032.3713	3033.2768	3072.772	3083.852	3117.1383	3209.8285	3216.9409
N#CCC12CC1CO2	N#CC[C@]12C[C@H]1CO2	
InChI=1S/C6H7NO/c7-2-1-6-3-5(6)4-8-6/h5H,1,3-4H2	InChI=1S/C6H7NO/c7-2-1-6-3-5(6)4-8-6/h5H,1,3-4H2/t5-,6-/m0/s1
