15
gdb 83505	3.06992	1.54527	1.50164	3.2734	59.9	-0.2593	-0.0096	0.2497	914.5847	0.114527	-494.925155	-494.918416	-494.917472	-494.956176	26.671	
O	 0.0493666386	 1.3762799055	 0.1314670267	-0.450509
C	 0.0204144009	-0.0144052451	 0.0059179114	 0.149455
C	-1.3393952282	-0.6282097235	-0.4355752543	 0.019631
C	-1.486846287	-0.0257867469	-1.8324641192	-0.106385
O	-0.1175052774	 0.0255677627	-2.3028113602	-0.294496
C	 0.6833199708	-0.5766998966	-1.2601008455	-0.113549
C	 0.2758765901	-2.0481027131	-1.147598922	 0.467442
O	 0.8504329513	-3.0525787614	-1.4327090219	-0.337414
O	-0.9937429809	-2.0214162385	-0.6144046072	-0.238246
H	 0.1078092935	 1.7457871376	-0.7589605714	 0.301177
H	 0.379076808	-0.4627441157	 0.9350131615	 0.119301
H	-2.1903236612	-0.5474701315	 0.2360169412	 0.112552
H	-2.0859547638	-0.662951747	-2.4889371448	 0.134276
H	-1.9080033136	 0.9847345033	-1.8120313941	 0.119989
H	 1.7355456388	-0.3929634998	-1.4581289301	 0.116775
152.266	236.1877	267.976	314.399	409.7559	460.3053	469.1697	556.4165	633.7812	713.9233	779.8019	833.1811	875.7645	890.0833	901.4163	942.7754	983.9921	1020.4144	1033.0648	1077.1697	1122.9958	1152.6952	1174.3431	1210.1451	1226.288	1285.4677	1296.7061	1312.4677	1339.8907	1370.641	1431.4094	1512.2427	1908.8659	3049.1205	3102.0718	3105.2306	3164.28	3176.3269	3778.3929
OC1C2COC1C(=O)O2	O[C@H]1[C@H]2CO[C@@H]1C(=O)O2	
InChI=1S/C5H6O4/c6-3-2-1-8-4(3)5(7)9-2/h2-4,6H,1H2	InChI=1S/C5H6O4/c6-3-2-1-8-4(3)5(7)9-2/h2-4,6H,1H2/t2-,3+,4+/m1/s1
