18
gdb 46916	3.30426	1.3986	1.0859	4.6281	72.32	-0.2389	0.018	0.2569	1102.6159	0.150093	-439.092301	-439.084724	-439.08378	-439.12453	29.689	
O	-0.0018962483	 0.3111660226	-0.8687160411	-0.317101
C	-0.0026222423	 1.2184951165	-0.0794027123	 0.400924
C	-1.3599407411	 1.8142844601	 0.3397692663	-0.295914
N	-1.3713953654	 2.8622955387	 1.3479009162	-0.303104
C	-0.7694164738	 4.0847178668	 0.9010642097	 0.009888
C	 0.0047592736	 4.8888460536	 1.909226766	-0.32029
C	 0.7390115544	 4.0327454738	 0.9014602592	-0.030618
C	 1.3387493625	 2.7273053292	 1.3516807369	-0.079277
O	 1.1839208906	 1.6759163194	 0.3755651239	-0.230113
H	-1.8254293727	 2.1131665924	-0.6159102612	 0.123026
H	-1.9402097025	 0.9624196985	 0.7068675785	 0.140687
H	-2.3117152937	 3.007844943	 1.6959309577	 0.228986
H	-1.2482210012	 4.6256258209	 0.0808049463	 0.080956
H	 0.0432181669	 5.9645694857	 1.7835666804	 0.120142
H	-0.0213384544	 4.5484025559	 2.9383602123	 0.123547
H	 1.2603115071	 4.5374843684	 0.0950381245	 0.101278
H	 2.4220678933	 2.8093860468	 1.4690236059	 0.119844
H	 0.9076009669	 2.4084085375	 2.3019109909	 0.12714
68.7603	169.587	268.7849	277.9663	338.7656	379.1143	442.4937	512.242	552.9354	611.6399	660.9807	726.5461	786.4722	827.2254	861.239	866.9629	957.8868	993.0224	1019.3539	1056.9894	1065.8392	1072.5345	1113.7257	1137.8452	1163.3931	1175.3942	1223.7939	1246.1515	1290.8125	1302.5807	1345.6792	1380.1571	1415.7565	1433.9581	1461.3444	1479.0587	1490.2546	1503.7773	1824.3732	2954.212	3060.8853	3073.8579	3085.3932	3122.6396	3141.4005	3169.4203	3230.9048	3539.1115
O=C1CNC2CC2CO1	O=C1CN[C@H]2C[C@H]2CO1	
InChI=1S/C6H9NO2/c8-6-2-7-5-1-4(5)3-9-6/h4-5,7H,1-3H2	InChI=1S/C6H9NO2/c8-6-2-7-5-1-4(5)3-9-6/h4-5,7H,1-3H2/t4-,5-/m0/s1
