15
gdb 29006	3.0854	1.51758	1.02356	1.2562	75.6	-0.2583	-0.0903	0.168	1088.9101	0.11375	-416.875665	-416.868015	-416.86707	-416.907993	27.883	
C	-0.3598994375	 1.4271076776	 0.2404417718	-0.485557
C	-0.1278958098	-0.0531274483	 0.1342869129	 0.193478
C	-0.1466384501	-0.6980516063	-1.1072578725	-0.022974
N	 0.051011876	-2.0041309888	-1.2712980303	-0.245229
C	 0.2775448443	-2.7047339115	-0.1569327496	 0.062476
N	 0.3223312459	-2.2219099599	 1.0790457969	-0.292836
C	 0.1206688918	-0.9036182812	 1.2230138122	 0.159139
C	 0.1871271526	-0.4406814643	 2.6428336156	 0.107717
O	 0.0368752648	 0.6999907726	 3.0091903281	-0.263814
H	 0.4923547209	 1.9319859548	 0.7031688038	 0.155582
H	-0.5295853904	 1.85513033	-0.7515044306	 0.11972
H	-1.2215112502	 1.6510388128	 0.8751316307	 0.155585
H	-0.3321379244	-0.1189612007	-2.0106752069	 0.12199
H	 0.4408499931	-3.7727290537	-0.2749798936	 0.127287
H	 0.3939944931	-1.2732274331	 3.3455984016	 0.107436
102.1927	152.5641	192.6694	229.1898	266.8863	361.5376	437.253	441.8546	534.9041	601.662	675.5897	764.5634	786.8933	891.8966	939.2396	1008.4226	1024.6535	1046.3101	1074.6066	1153.5357	1198.0466	1232.6464	1290.9136	1308.0876	1397.7831	1418.4361	1436.1949	1456.7649	1474.6411	1488.9048	1583.3964	1611.0628	1807.0644	2939.2339	3046.8293	3114.1245	3122.6955	3143.625	3173.6312
CC1=CN=CN=C1C=O	Cc1cncnc1C=O	
InChI=1S/C6H6N2O/c1-5-2-7-4-8-6(5)3-9/h2-4H,1H3	InChI=1S/C6H6N2O/c1-5-2-7-4-8-6(5)3-9/h2-4H,1H3
