19
gdb 110210	2.29355	1.50088	1.07983	4.1869	71.52	-0.2519	0.0597	0.3116	1146.8387	0.158308	-460.10089	-460.091976	-460.091032	-460.134147	34.729	
O	-0.0294743566	 1.4274734319	-0.1325214003	-0.428125
C	 0.0535069864	 0.0467331272	 0.1973101815	-0.120759
C	-1.3207959812	-0.597277275	 0.1122567432	-0.052206
C	-1.984875725	-0.7881107274	-1.2807192752	 0.393215
O	-2.2292864669	 0.293824221	-2.1106382968	-0.482209
C	-1.0575340693	-2.0146285181	-1.5453434151	-0.381034
C	-1.5654837534	-2.1220874792	-0.0688992236	 0.388155
O	-1.2214430654	-3.0528037329	 0.8880685096	-0.472162
C	-2.9951933957	-1.7611605808	-0.6020666585	-0.361254
H	-0.5001016686	 1.4896967788	-0.9721852574	 0.29312
H	 0.7931503934	-0.4671269214	-0.4329607076	 0.086508
H	 0.4265043917	-0.0009793225	 1.225732058	 0.112879
H	-1.9878153194	-0.1281156183	 0.843428797	 0.078496
H	-2.5513938064	-0.0245817884	-2.960789141	 0.289063
H	-1.4421564266	-2.7664590888	-2.2418536255	 0.082177
H	 0.003907221	-1.8297543576	-1.707243579	 0.105408
H	-1.4812522528	-3.9264424789	 0.5762993746	 0.286033
H	-3.6898050735	-1.3235079228	 0.1184103839	 0.101931
H	-3.4762935518	-2.5025820068	-1.2475450077	 0.080765
84.4365	130.7352	235.5942	247.1241	253.471	293.6296	343.5086	379.8839	424.352	448.5077	513.0311	578.3399	592.453	613.3967	676.1593	743.6094	783.518	880.6389	970.8412	986.8862	1016.9937	1055.1675	1066.3169	1094.8306	1118.7419	1122.5863	1123.7992	1135.2623	1150.9446	1159.9116	1224.4528	1276.4593	1329.0451	1336.6654	1356.1663	1392.6288	1431.1579	1451.2036	1489.9596	1517.0119	1556.681	2999.3827	3045.4202	3051.5838	3057.8045	3073.6075	3123.5539	3143.5538	3790.2611	3808.5752	3809.2399
OCC1C2(O)CC1(O)C2	OC[C@H]1[C@@]2(O)C[C@]1(O)C2	
InChI=1S/C6H10O3/c7-1-4-5(8)2-6(4,9)3-5/h4,7-9H,1-3H2	InChI=1S/C6H10O3/c7-1-4-5(8)2-6(4,9)3-5/h4,7-9H,1-3H2/t4-,5-,6+
