17
gdb 28874	2.43044	1.82324	1.05205	3.6301	79.79	-0.2081	-0.0075	0.2006	1102.5732	0.138847	-414.261011	-414.25273	-414.251786	-414.293442	31.917	
C	 0.0936599309	 1.5115313921	 0.0689336815	-0.505523
C	 0.0269977952	 0.0087278278	 0.0001762347	 0.280666
C	 0.0040937841	-0.6612954789	-1.2199784044	 0.166927
N	 0.0618810458	-0.032312828	-2.4777641974	-0.616262
C	-0.0203657819	-2.0704047654	-1.1635971064	 0.334857
N	-0.0387600743	-2.7990181569	-2.340702771	-0.57915
N	-0.0724358388	-2.731098018	-0.0094288797	-0.324905
C	-0.0742560837	-1.9830447714	 1.0964244529	 0.041051
N	-0.0087406805	-0.6606671597	 1.168279249	-0.319593
H	 1.0111400187	 1.8986091023	-0.3912373111	 0.132901
H	-0.7532495688	 1.9778766799	-0.4513759261	 0.123071
H	 0.0703541651	 1.8234914352	 1.1133719062	 0.148634
H	-0.0762422252	 0.9682045409	-2.4313814053	 0.247468
H	-0.5961975951	-0.4346350188	-3.137019177	 0.251099
H	 0.5308307305	-2.4135372101	-3.0826489378	 0.256377
H	 0.1192001166	-3.7855823731	-2.1862676872	 0.256607
H	-0.1242902086	-2.5220695581	 2.0394504791	 0.105774
121.9681	147.9839	238.9127	248.2034	294.1582	309.2955	320.3077	495.6374	509.6328	527.1121	551.264	561.2727	611.0585	698.9735	708.1972	768.1116	840.4943	891.0977	952.5626	967.2239	1011.3572	1057.7872	1086.57	1211.799	1245.602	1315.3578	1325.2894	1349.6425	1402.81	1470.3884	1475.9699	1488.1635	1501.0434	1590.0516	1625.877	1643.2654	1656.343	3017.5648	3067.0333	3147.941	3161.2665	3514.7839	3542.2282	3622.1582	3652.8612
CC1=C(N)C(N)=NC=N1	Cc1c(N)c(N)ncn1	
InChI=1S/C5H8N4/c1-3-4(6)5(7)9-2-8-3/h2H,6H2,1H3,(H2,7,8,9)	InChI=1S/C5H8N4/c1-3-4(6)5(7)9-2-8-3/h2H,6H2,1H3,(H2,7,8,9)
