20
gdb 57079	3.01958	1.13238	0.85979	4.1647	84.87	-0.2501	0.014	0.2641	1349.2097	0.171872	-366.048185	-366.039262	-366.038318	-366.082153	33.27	
C	 0.0149533448	 1.6004309747	-0.0451172923	-0.398194
C	 0.0416907758	 0.0596545527	-0.025837845	-0.150749
C	 0.6922438542	-0.4454777148	-1.2404315595	 0.275726
N	 1.2186108672	-0.8410365957	-2.1907800859	-0.335653
C	 0.7375283786	-0.5123726139	 1.2378330599	-0.00682
C	 0.0044399078	-0.1422186007	 2.5572711678	-0.236175
C	 0.1294428035	-1.3877077905	 3.4718005613	-0.262574
C	 0.4531626231	-2.4933172197	 2.4966602575	-0.075269
C	 0.7845846824	-2.024773952	 1.2958823723	-0.077266
H	 1.0316311986	 2.0037770026	-0.0246443453	 0.136134
H	-0.4813666557	 1.9731105542	-0.9443800727	 0.136673
H	-0.5239581408	 1.9770378678	 0.8276645233	 0.130072
H	-0.9905362051	-0.3148153922	-0.0386251047	 0.124178
H	 1.763172223	-0.1134987307	 1.240561318	 0.092975
H	 0.3986913259	 0.7650230362	 3.0206059685	 0.105205
H	-1.0546587092	 0.0398749345	 2.3400680341	 0.104834
H	 0.938135726	-1.2723482678	 4.2069116111	 0.111707
H	-0.7825710181	-1.575846437	 4.0491639304	 0.107377
H	 0.4520020358	-3.5405441949	 2.7783705068	 0.098917
H	 1.0969420422	-2.6217046328	 0.4465504947	 0.118902
70.3757	104.3261	128.1332	213.9302	235.6463	244.4425	324.8652	373.2325	441.8923	517.7683	581.2801	641.4586	752.9364	777.0282	829.8516	860.1719	874.8483	927.9744	963.1114	979.4132	991.3796	1016.3896	1056.7499	1092.8884	1101.5822	1130.268	1152.3593	1179.7555	1230.9349	1264.6777	1295.8382	1317.9399	1328.8425	1332.9283	1356.6703	1385.8054	1412.0948	1483.4633	1494.8807	1498.2779	1502.2519	1689.2062	2352.823	2987.3079	3012.4341	3027.8789	3037.9734	3049.8393	3060.1585	3102.5735	3124.4483	3131.2871	3186.7658	3211.7481
CC(C#N)C1CCC=C1	C[C@@H](C#N)[C@H]1CCC=C1	
InChI=1S/C8H11N/c1-7(6-9)8-4-2-3-5-8/h2,4,7-8H,3,5H2,1H3	InChI=1S/C8H11N/c1-7(6-9)8-4-2-3-5-8/h2,4,7-8H,3,5H2,1H3/t7-,8+/m0/s1
