14
gdb 131624	1.95177	1.73378	0.93763	2.9097	66.38	-0.2608	-0.0604	0.2004	1153.6628	0.100461	-473.819731	-473.811653	-473.810709	-473.853131	28.42	
O	 0.323962404	 1.0051431967	-0.7271867936	-0.392346
C	-0.0345664686	 0.0689356229	 0.26757842	-0.17858
C	-1.4050387227	-0.5082579916	 0.0601161075	 0.336013
C	-2.1887355651	-0.7225558886	-1.0472876293	-0.039838
C	-1.9297951039	-0.4484376512	-2.4630341123	 0.050564
O	-2.7228211588	-0.7153256186	-3.3397207355	-0.273735
C	-3.3641567387	-1.3210883856	-0.4962782102	-0.016638
N	-3.3000568685	-1.4538118647	 0.7979377745	-0.12843
O	-2.0431862887	-0.926455071	 1.1555587579	-0.21209
H	-0.2433839536	 1.7781825604	-0.6340146126	 0.296929
H	 0.7099363895	-0.7334617236	 0.2095858128	 0.156076
H	 0.0197420892	 0.4831891715	 1.2838549053	 0.136452
H	-0.9534720668	 0.0235735301	-2.6804917887	 0.100635
H	-4.2436332372	-1.6506987168	-1.030167706	 0.164986
64.3955	135.4362	158.3754	201.4661	252.6625	297.044	354.416	402.7623	528.4283	635.8936	661.2249	712.8476	803.4593	876.3953	939.628	955.274	976.032	1056.2102	1090.4632	1155.0166	1195.453	1199.6664	1261.3619	1382.9249	1406.592	1415.943	1433.0152	1486.3814	1525.0425	1631.5364	1782.2152	2965.0541	3016.6342	3068.3154	3258.8886	3811.0186
OCC1=C(C=O)C=NO1	OCc1c(C=O)cno1	
InChI=1S/C5H5NO3/c7-2-4-1-6-9-5(4)3-8/h1-2,8H,3H2	InChI=1S/C5H5NO3/c7-2-4-1-6-9-5(4)3-8/h1-2,8H,3H2
