19
gdb 76158	2.09317	1.45026	1.20147	3.6213	77.28	-0.2375	0.0305	0.2681	1145.4758	0.15695	-419.202409	-419.192065	-419.191121	-419.236825	38.074	
C	-0.0282150923	 1.5590595291	-0.0294834569	-0.428046
C	 0.0255151894	 0.04474965	-0.0253086618	 0.237681
N	-1.2033745778	-0.5332958412	-0.5147613648	-0.572313
C	 1.3434819251	-0.6429233553	-0.2561278523	 0.015314
O	 2.4701878335	 0.1426735548	-0.4648519364	-0.412582
C	 0.7044488161	-0.6724274136	 1.1586308664	 0.060044
C	 1.3439488292	 0.1137754728	 2.2935742223	-0.474784
C	 0.1419363854	-1.9377003893	 1.5461961975	 0.250987
N	-0.3106328331	-2.9649456402	 1.8336272368	-0.363376
H	 0.9313426045	 2.0127775289	 0.2161086056	 0.136013
H	-0.3074313957	 1.9019880483	-1.0319290321	 0.121684
H	-0.7944627178	 1.9115869206	 0.665851297	 0.132149
H	-1.2652798003	-0.4279753113	-1.5232064163	 0.2314
H	-1.2749864156	-1.5225692515	-0.3011925996	 0.248515
H	 1.3145771386	-1.5838416142	-0.8051030357	 0.103456
H	 3.2487345436	-0.3553363784	-0.1908360452	 0.297488
H	 1.9986186361	 0.8907068318	 1.8971453643	 0.140549
H	 0.5856245973	 0.5818190437	 2.927380895	 0.141413
H	 1.9456602436	-0.548767245	 2.9223376762	 0.134409
126.6749	142.4048	154.7928	173.6146	200.6769	209.6752	226.8598	286.3281	299.2571	335.4767	393.0682	417.9954	465.5649	537.0458	571.1395	614.3304	664.597	713.0226	830.4289	871.2482	934.9122	1007.9806	1018.6537	1064.9965	1089.8634	1144.8305	1165.5197	1201.8922	1229.0057	1279.3569	1313.3343	1351.1296	1407.6508	1416.9238	1458.8428	1481.7092	1489.6767	1501.7874	1511.5444	1656.6701	2331.9262	3045.518	3051.4304	3107.7423	3108.2242	3114.1642	3144.9676	3159.7737	3494.9776	3580.5018	3793.2567
CC1(N)C(O)C1(C)C#N	C[C@@]1(N)[C@@H](O)[C@]1(C)C#N	
InChI=1S/C6H10N2O/c1-5(3-7)4(9)6(5,2)8/h4,9H,8H2,1-2H3	InChI=1S/C6H10N2O/c1-5(3-7)4(9)6(5,2)8/h4,9H,8H2,1-2H3/t4-,5-,6+/m0/s1
