18
gdb 112688	3.15086	1.21126	0.97141	4.0654	69.84	-0.2464	0.0568	0.3032	1246.0737	0.147523	-476.271173	-476.261996	-476.261052	-476.305796	31.891	
C	 0.147701935	 1.3318743082	-0.1260944126	-0.248457
O	 0.1496272721	-0.0877171072	-0.0583098778	-0.233688
C	 0.6518829784	-0.5930228377	 1.1322584292	 0.202049
C	 0.5826344564	-2.1285753356	 1.0784625407	-0.214439
N	 1.9608862613	-2.4677081448	 0.8231359163	-0.131133
C	 2.439586419	-3.8134562052	 0.6259026912	-0.339436
C	 2.8018929297	-1.4028901195	 0.9958844849	 0.480055
O	 4.0007862444	-1.382177227	 0.9318485767	-0.403976
O	 2.0410589698	-0.2922951292	 1.2867014959	-0.251468
H	 1.1654769716	 1.7341075247	-0.0920955672	 0.142347
H	-0.3204041947	 1.5999585618	-1.0746961806	 0.134752
H	-0.4360053679	 1.7652427387	 0.6993317135	 0.111181
H	 0.1380899423	-0.1478779761	 1.9943062569	 0.086346
H	 0.2191345819	-2.5579634905	 2.0225630765	 0.112291
H	-0.0835447627	-2.4410724141	 0.2684443956	 0.132742
H	 1.9985770913	-4.2612840888	-0.2722547753	 0.128161
H	 3.5231839657	-3.7641415036	 0.5084411692	 0.169812
H	 2.2016695665	-4.454528974	 1.4853046969	 0.122862
66.5698	109.6579	126.2267	144.9081	179.2519	198.7663	279.6029	295.4426	403.1067	487.7616	585.6889	661.7378	754.8671	787.6416	815.5147	879.7659	996.3739	1028.7478	1039.9406	1087.1714	1135.899	1147.7785	1166.3789	1182.5972	1211.1676	1244.2643	1297.9946	1322.6056	1376.5486	1398.0245	1439.2023	1455.6163	1482.0078	1486.0611	1491.3515	1509.4443	1513.0309	1539.7198	1879.1825	2999.6222	3002.4696	3011.42	3027.2919	3063.5288	3077.3359	3081.4014	3137.4721	3146.7517
COC1CN(C)C(=O)O1	CO[C@H]1CN(C)C(=O)O1	
InChI=1S/C5H9NO3/c1-6-3-4(8-2)9-5(6)7/h4H,3H2,1-2H3	InChI=1S/C5H9NO3/c1-6-3-4(8-2)9-5(6)7/h4H,3H2,1-2H3/t4-/m1/s1
