18
gdb 36623	5.18022	0.81764	0.77988	4.4514	77.69	-0.2662	0.0113	0.2774	1466.571	0.147032	-401.914516	-401.905958	-401.905014	-401.948771	31.387	
N	-0.0092040053	-1.139229447	-0.0436274371	-0.293465
C	 0.0207520697	 0.0139420964	-0.0886125325	 0.260506
C	 0.0205793197	 1.477168541	-0.1611183678	-0.215186
O	 1.2718465072	 1.9614252763	 0.2873547133	-0.281593
C	 1.3781343783	 3.3407474559	 0.191979363	 0.463979
C	 1.6366693121	 4.0273383058	-1.1209681485	-0.336573
C	 2.6483678551	 4.1426645542	 0.0022933296	-0.134247
C	 2.1593664922	 5.1735879905	 1.0287467002	-0.217671
C	 0.8614046124	 4.3225332874	 1.2513908245	-0.304292
H	-0.174733428	 1.7829055468	-1.1996753143	 0.145754
H	-0.8060385366	 1.8589361995	 0.4565722147	 0.147021
H	 1.9360494728	 3.3580864077	-1.9214900763	 0.121633
H	 1.0572966529	 4.8919979385	-1.4385701895	 0.107688
H	 3.6656157529	 3.7934824826	-0.1197284817	 0.104335
H	 2.780426633	 5.2256103217	 1.9246767017	 0.11371
H	 2.0111243507	 6.1863434032	 0.642097345	 0.1035
H	-0.0999835081	 4.8073149596	 1.0543634512	 0.096922
H	 0.8390019889	 3.8712692099	 2.2458077745	 0.11798
40.3865	87.2676	111.7597	212.1506	265.6837	362.1886	382.4852	388.7553	443.2321	526.534	666.574	726.7207	789.0684	860.5049	905.0275	917.5163	951.7192	964.5599	980.1434	1016.674	1024.9496	1034.6284	1063.833	1086.6905	1118.3344	1150.2222	1217.4482	1222.602	1232.8888	1249.5624	1261.6905	1302.0969	1366.9719	1415.2348	1477.009	1479.4172	1494.2495	1510.9089	2373.7824	2993.7546	3024.4156	3048.4049	3058.7636	3102.1308	3105.982	3123.9094	3196.0365	3204.7981
N#CCOC12CC1CC2	N#CCO[C@]12C[C@H]1CC2	
InChI=1S/C7H9NO/c8-3-4-9-7-2-1-6(7)5-7/h6H,1-2,4-5H2	InChI=1S/C7H9NO/c8-3-4-9-7-2-1-6(7)5-7/h6H,1-2,4-5H2/t6-,7-/m1/s1
