18
gdb 121683	7.41604	0.5324	0.50287	6.8334	74.07	-0.2727	-0.0353	0.2374	2071.4005	0.144436	-439.110136	-439.099551	-439.098607	-439.14875	35.269	
O	 0.0719832348	 1.4103303519	 0.0085505412	-0.416931
C	 0.0709790906	-0.0061750933	 0.001324183	-0.077159
C	-1.3814847174	-0.4652131977	 0.0125235167	-0.167196
C	-1.5088562074	-1.9870164569	 0.0059522235	-0.30977
C	-2.9494361534	-2.4731507667	 0.0172400044	 0.376068
O	-3.9004572945	-1.7378736015	 0.0307341341	-0.257107
C	-3.1067125093	-4.0101081259	 0.0098979881	-0.455672
C	-4.4929903654	-4.4583994075	 0.0212675652	 0.289312
N	-5.5836949434	-4.8363058333	 0.0300740943	-0.292714
H	 0.9843226646	 1.7138944832	 0.0013123248	 0.288357
H	 0.5818725165	-0.4032856317	-0.8923167536	 0.083731
H	 0.5983948466	-0.41234229	 0.8811931967	 0.083735
H	-1.8811961074	-0.0533244932	 0.8945062259	 0.128375
H	-1.8975000251	-0.0443799886	-0.8557485317	 0.128334
H	-1.0129868034	-2.4244796088	-0.8731108005	 0.126405
H	-0.9964951517	-2.4333294426	 0.8710123667	 0.126447
H	-2.5965511567	-4.4148346221	-0.8729109135	 0.172901
H	-2.5788893981	-4.4250254854	 0.8774620146	 0.172883
13.152	39.3215	80.1953	85.0043	128.1161	169.6781	266.3081	277.1256	308.2049	368.5012	420.4045	465.1212	494.0052	695.3715	727.5296	814.7962	856.6489	924.1274	942.8	1021.9636	1046.5335	1073.1877	1097.1437	1100.5352	1196.7947	1234.6349	1239.613	1300.799	1305.4215	1314.0741	1328.4661	1392.2476	1434.5426	1454.2819	1467.0704	1493.9614	1527.504	1834.5698	2376.1638	2950.2456	2973.925	3005.9702	3032.4021	3041.1663	3064.4829	3075.6979	3107.8563	3832.506
OCCCC(=O)CC#N	OCCCC(=O)CC#N	
InChI=1S/C6H9NO2/c7-4-3-6(9)2-1-5-8/h8H,1-3,5H2	InChI=1S/C6H9NO2/c7-4-3-6(9)2-1-5-8/h8H,1-3,5H2
