17
gdb 71518	2.5232	1.56798	1.46163	4.3122	78.04	-0.2507	0.0046	0.2553	997.3033	0.136611	-380.796758	-380.78913	-380.788186	-380.828672	29.721	
C	-0.0133475224	 1.4771756124	-0.0023647878	-0.521717
C	 0.0517805061	-0.0189208315	-0.0804433864	 0.313843
C	 0.6024765199	-0.9424372837	-1.1904764867	-0.319062
C	 0.0786915046	-1.9365128339	-0.1373146131	-0.105972
C	 0.4955331629	-1.0103799619	 1.0532874747	-0.073756
N	-0.8536154686	-0.9631268444	 1.7098506224	-0.377995
C	-1.1376309618	-1.0132304851	 0.2388298804	 0.239755
C	-2.4589719788	-1.0177027459	-0.3300049594	 0.156498
N	-3.5138015016	-1.0259811218	-0.8048848785	-0.34751
H	 0.9912967178	 1.910770825	-0.0489293807	 0.126281
H	-0.5962801741	 1.8886046141	-0.8327579641	 0.135106
H	-0.4811044097	 1.7866624963	 0.9368586917	 0.148292
H	 0.0793492575	-0.9203521375	-2.1504385501	 0.11617
H	 1.6855303816	-0.921078548	-1.3409623888	 0.104534
H	 0.0621083364	-3.0268436118	-0.1460046215	 0.091702
H	 1.4300881324	-1.0075497578	 1.6128769903	 0.095683
H	-1.0748257723	-1.8665216445	 2.1386922275	 0.218148
120.915	145.9727	221.6155	251.9107	304.5044	385.6849	487.7915	528.5413	539.9692	569.1002	670.9635	730.9075	783.557	851.7042	866.3982	915.5376	927.816	942.003	987.3313	1026.9685	1043.4778	1071.5463	1133.2322	1156.0626	1169.4342	1191.7938	1195.5342	1232.7174	1258.478	1289.3836	1299.5843	1349.4419	1409.6712	1488.048	1489.6047	1513.5972	2346.2573	3035.5613	3053.7153	3101.5943	3112.6567	3115.526	3116.8728	3132.0025	3400.53
CC12CC3C1NC23C#N	C[C@@]12C[C@H]3[C@@H]1N[C@@]23C#N	
InChI=1S/C7H8N2/c1-6-2-4-5(6)9-7(4,6)3-8/h4-5,9H,2H2,1H3	InChI=1S/C7H8N2/c1-6-2-4-5(6)9-7(4,6)3-8/h4-5,9H,2H2,1H3/t4-,5-,6+,7+/m0/s1
