18
gdb 6285	4.11405	1.09861	0.91015	1.567	69.49	-0.2601	0.0164	0.2766	1247.6825	0.153664	-381.134202	-381.125121	-381.124177	-381.167927	33.01	
C	-0.033077348	 1.5811115873	-0.0236630959	-0.3872
C	-0.0034540071	 0.0593426798	 0.0672547929	 0.143502
O	 0.7186999803	-0.2760221434	 1.2368936234	-0.444524
C	-1.4257547703	-0.530979876	 0.0767509706	-0.194487
C	-1.4429243932	-2.0700597445	-0.0218429664	-0.14502
N	-0.7726767698	-2.684253139	 1.1369550818	-0.503655
C	-2.8222395181	-2.568766387	-0.2035616228	 0.259727
N	-3.899116351	-2.9762686415	-0.3088411154	-0.315313
H	 0.9875143097	 1.9706396636	 0.0129341547	 0.128354
H	-0.5022145383	 1.914889845	-0.9539821227	 0.109599
H	-0.5864812115	 2.0025738504	 0.8216481616	 0.121558
H	 0.5137712242	-0.3334143493	-0.8289344852	 0.056703
H	 0.6054719575	-1.230626106	 1.3679882925	 0.287753
H	-1.9409235127	-0.219176799	 0.9936482144	 0.116033
H	-1.9963341854	-0.1306037417	-0.7679824249	 0.12075
H	-0.8739052044	-2.3622219058	-0.9131664369	 0.138377
H	-1.3250782633	-2.528817214	 1.9764187032	 0.254418
H	-0.7003206285	-3.689727469	 1.0139449451	 0.253428
69.6708	125.8532	131.7737	222.4595	244.1504	264.3027	309.8125	331.1519	363.0799	468.8762	485.2502	574.4958	585.4059	667.35	845.5117	849.0743	909.6857	935.3611	967.1791	990.0106	1058.6354	1085.4354	1122.4695	1170.9079	1190.805	1278.8106	1303.1408	1333.2641	1358.0195	1384.8747	1394.2006	1404.6625	1462.7697	1476.2208	1487.2858	1500.26	1656.2772	2347.6335	2915.0699	3033.5045	3040.7865	3044.6956	3088.2848	3113.9127	3124.1047	3492.4096	3573.5491	3668.3558
CC(O)CC(N)C#N	C[C@@H](O)C[C@@H](N)C#N	
InChI=1S/C5H10N2O/c1-4(8)2-5(7)3-6/h4-5,8H,2,7H2,1H3	InChI=1S/C5H10N2O/c1-4(8)2-5(7)3-6/h4-5,8H,2,7H2,1H3/t4-,5-/m1/s1
