14
gdb 5484	3.32957	2.05857	1.28226	3.5078	65.79	-0.2402	-0.0522	0.188	890.9599	0.108375	-378.781714	-378.774649	-378.773705	-378.813076	25.401	
C	-0.0270583729	 1.5151822334	 0.0503751013	-0.505108
C	-0.0114686727	 0.0265744192	-0.032432648	 0.293308
C	-0.0306456988	-0.8186355174	-1.0996283605	-0.156649
N	-0.0037292006	-2.1502458118	-0.7011503337	-0.267138
C	 0.0313992631	-2.1217647773	 0.5964847921	 0.032781
N	 0.0292371911	-0.8212774276	 1.0853395869	-0.114141
C	 0.0618217792	-0.4650224832	 2.4331962687	 0.17311
O	 0.0958793224	-1.2605486071	 3.3336497718	-0.278005
H	 0.8662512868	 1.9172209185	 0.5426150178	 0.140477
H	-0.0589426953	 1.9265821273	-0.9609791972	 0.148171
H	-0.9022349229	 1.8960539508	 0.5897747572	 0.140492
H	-0.0624656637	-0.5504154392	-2.1450619165	 0.120243
H	 0.0599281884	-2.9630780517	 1.2704203531	 0.164403
H	 0.052617006	 0.628227676	 2.579255597	 0.108055
143.6518	180.3647	204.1241	206.0481	284.7501	325.7298	555.0138	633.1034	641.7306	668.9424	827.2551	851.9938	861.7801	930.2766	1007.8575	1038.2424	1067.6503	1119.6872	1171.8589	1249.7791	1276.0258	1330.3453	1407.4054	1421.0763	1448.8122	1481.1744	1491.1164	1537.9434	1626.6187	1826.683	2999.1091	3026.594	3075.0877	3125.5775	3250.3365	3277.184
CC1=CN=CN1C=O	Cc1cncn1C=O	
InChI=1S/C5H6N2O/c1-5-2-6-3-7(5)4-8/h2-4H,1H3	InChI=1S/C5H6N2O/c1-5-2-6-3-7(5)4-8/h2-4H,1H3
