20
gdb 11743	4.88699	1.25543	1.1667	1.5295	75.61	-0.2494	0.0727	0.322	1106.5298	0.176694	-348.973512	-348.965018	-348.964073	-349.006301	32.091	
C	-0.1377561123	 1.5699375537	 0.0896919757	-0.403325
C	 0.0679577139	 0.0608403059	 0.0438896164	 0.041533
C	 1.1237769329	-0.5418337274	-0.9490529757	-0.31011
C	 1.7993023216	-1.2642147562	 0.2263131749	 0.408065
C	 2.3251336722	-2.6618954443	 0.1877679642	-0.204925
O	 3.5529937194	-2.6640016852	-0.5353391971	-0.420226
C	 2.2636973958	-0.2479594818	 1.2313049993	-0.317512
C	 0.8071193545	-0.6271287513	 1.2054526003	-0.130553
H	 0.804246993	 2.1012691707	 0.2598224636	 0.114492
H	-0.5591435023	 1.9367558267	-0.852988012	 0.11184
H	-0.827106911	 1.8496214849	 0.894312483	 0.111809
H	-0.8974360777	-0.4295350527	-0.1179459515	 0.070722
H	 0.6776167172	-1.2217716827	-1.6793281034	 0.096719
H	 1.7539740122	 0.1760407999	-1.4840877755	 0.095871
H	 2.4682083085	-3.0282080783	 1.2181574852	 0.080125
H	 1.5886725836	-3.3253515442	-0.295336112	 0.080382
H	 3.8260492151	-3.5787872548	-0.6541390504	 0.284252
H	 2.8275100998	-0.649885315	 2.0675106996	 0.108481
H	 2.5970799904	 0.7349350009	 0.9078777177	 0.104842
H	 0.3288396532	-1.0748336489	 2.0701325778	 0.077518
80.5847	114.8696	201.2663	221.3819	253.1701	281.0048	348.0711	380.7816	410.3389	522.1516	645.3081	713.124	802.6119	855.6615	887.6477	901.3724	949.5316	972.1816	975.5522	1002.1844	1027.5718	1061.5997	1074.7998	1099.0328	1106.7005	1130.819	1187.8439	1209.3357	1232.8219	1251.366	1268.5603	1285.7691	1328.519	1372.2599	1391.4314	1411.8397	1468.1495	1483.0127	1493.874	1496.5782	1506.5597	1515.4309	2952.8858	2980.2646	3026.7822	3043.8841	3046.8441	3090.3555	3097.7964	3102.8469	3112.7905	3163.3948	3197.7728	3821.5089
CC1CC2(CO)CC12	C[C@H]1C[C@@]2(CO)C[C@@H]12	
InChI=1S/C7H12O/c1-5-2-7(4-8)3-6(5)7/h5-6,8H,2-4H2,1H3	InChI=1S/C7H12O/c1-5-2-7(4-8)3-6(5)7/h5-6,8H,2-4H2,1H3/t5-,6-,7-/m0/s1
