17
gdb 131854	5.55122	0.74837	0.68168	5.3508	71.68	-0.2065	0.0011	0.2076	1583.9208	0.136648	-455.115637	-455.107064	-455.10612	-455.149887	30.948	
O	-0.0412030861	 1.4045962439	-0.2114267586	-0.420895
C	-0.0103116766	 0.0073997109	 0.0570757499	-0.09667
C	-1.4489728019	-0.4816700194	 0.0447581334	-0.128295
N	-2.0428942893	-0.2159488605	-1.2547674542	-0.410346
C	-3.3829153415	-0.5367997025	-1.4277259174	 0.192974
C	-4.2101628112	-1.3169226588	-0.6725840627	-0.008869
O	-5.4261394594	-1.4121971549	-1.2606354741	-0.173039
N	-5.4244043645	-0.671619255	-2.4244463778	-0.128076
C	-4.2217388915	-0.1628554277	-2.521654682	-0.047396
H	 0.8580231256	 1.7077329818	-0.3643579777	 0.295444
H	 0.563494492	-0.5302550583	-0.7113310033	 0.104047
H	 0.4398282176	-0.2042405883	 1.0379859686	 0.097194
H	-1.4599397412	-1.5623377868	 0.233320793	 0.112021
H	-2.0064278117	 0.0023442047	 0.8650627538	 0.104517
H	-1.8054961119	 0.7163659063	-1.5690608791	 0.246057
H	-4.0911092693	-1.8549309942	 0.2526020921	 0.136883
H	-3.9747435091	 0.4611748089	-3.3693896939	 0.124448
61.695	69.87	129.2037	178.6677	266.8981	295.5124	346.6751	425.501	487.6636	601.3781	643.5777	673.316	759.8994	774.8461	885.0306	897.1829	925.9308	928.8565	941.5012	1034.6949	1090.4009	1101.3817	1132.015	1142.2115	1202.2813	1229.6514	1266.2422	1299.7203	1309.9213	1354.283	1410.5116	1459.5387	1481.9316	1505.884	1512.653	1516.511	1678.6911	2958.8355	2990.0946	3030.4195	3048.7608	3238.3767	3283.3839	3569.4687	3840.6729
OCCNC1=CON=C1	OCCNc1conc1	
InChI=1S/C5H8N2O2/c8-2-1-6-5-3-7-9-4-5/h3-4,6,8H,1-2H2	InChI=1S/C5H8N2O2/c8-2-1-6-5-3-7-9-4-5/h3-4,6,8H,1-2H2
