21
gdb 60283	3.69854	0.74959	0.68615	2.6756	85.36	-0.2427	-0.0605	0.1822	1702.0334	0.18025	-420.432051	-420.421342	-420.420397	-420.468611	38.484	
C	-0.3768131513	 1.6486103271	 0.0001650649	-0.384668
C	-0.3347411888	 0.1185959008	 0.0892820778	 0.036972
C	 0.553768712	-0.3514177953	 1.2471394273	-0.372246
C	-1.7683720007	-0.4494118072	 0.2131703384	-0.174463
N	-1.7935782007	-1.9012376696	 0.21570424	-0.263981
C	-1.9416221122	-2.5228195581	-0.8946688962	 0.266551
N	-2.1365139749	-2.0461003411	-2.1632927325	-0.556646
C	-1.9465329715	-4.0205367611	-0.8075989362	 0.140794
O	-2.032694285	-4.7380588629	-1.7755740531	-0.270474
H	 0.6308727376	 2.0624034737	-0.1081726158	 0.114485
H	-0.9734566701	 1.9897630722	-0.8529345139	 0.105204
H	-0.8159178723	 2.0814543209	 0.9068385202	 0.117275
H	 0.0938630644	-0.2689400322	-0.8466582868	 0.066751
H	 0.5725047582	-1.4417559209	 1.3108665064	 0.129484
H	 1.5803849183	 0.0088035253	 1.1237249381	 0.106286
H	 0.1780431169	 0.033281013	 2.2029295602	 0.111704
H	-2.1910225951	-0.1076169288	 1.1665678321	 0.10455
H	-2.3994648469	-0.0198934742	-0.5826560347	 0.08048
H	-1.8513215472	-1.1140748589	-2.406311541	 0.263556
H	-2.0919378612	-2.7451345214	-2.8904163804	 0.269945
H	-1.8565622394	-4.3957734116	 0.2284914153	 0.108441
40.6367	63.3354	74.4964	187.006	219.4313	231.934	253.9209	290.479	319.066	345.7466	350.0881	414.632	439.9273	529.5976	557.7468	646.0395	679.4187	823.6154	892.3956	928.3677	931.5352	955.7446	970.7753	1019.4846	1031.7602	1127.773	1146.0313	1185.7189	1196.594	1278.253	1318.2225	1354.3827	1366.6271	1372.4231	1377.4439	1398.4698	1418.8322	1486.9859	1488.9186	1501.547	1509.8513	1518.6287	1610.5813	1722.0648	1805.1896	2960.9489	2978.3561	2992.5918	3024.2139	3030.5361	3039.3645	3088.7349	3093.6424	3099.5841	3125.1795	3584.8854	3720.8662
CC(C)CN=C(N)C=O	CC(C)CN=C(N)C=O	
InChI=1S/C6H12N2O/c1-5(2)3-8-6(7)4-9/h4-5H,3H2,1-2H3,(H2,7,8)	InChI=1S/C6H12N2O/c1-5(2)3-8-6(7)4-9/h4-5H,3H2,1-2H3,(H2,7,8)
