15
gdb 7249	3.07113	1.48362	1.16697	2.5428	61.84	-0.2808	-0.0529	0.2279	1018.2541	0.116287	-399.829452	-399.820673	-399.819729	-399.863402	30.552	
C	-1.2445502421	 1.3354272524	 0.7186777129	-0.414495
C	-0.3947798782	 0.2917363949	-0.0275873591	 0.054306
O	 0.9098667238	 0.2622033165	 0.4826770814	-0.436358
C	-1.0150826151	-1.0966752824	 0.0640351476	 0.374097
O	-0.4140065994	-2.0080219377	 0.5816662883	-0.310398
C	-2.4416318577	-1.3384393611	-0.4628823089	-0.438292
C	-2.8198766305	-0.5466480733	-1.62729776	 0.273186
N	-3.1102545867	 0.0834994066	-2.5511875741	-0.303389
H	-0.7212197395	 2.2932096065	 0.6807452128	 0.150069
H	-2.2285723287	 1.4660340016	 0.2598199627	 0.132117
H	-1.3640227234	 1.0533907502	 1.7691436894	 0.12838
H	-0.3756534298	 0.5626229578	-1.0963498001	 0.120563
H	 1.0590280132	-0.643922968	 0.7929604154	 0.295368
H	-2.5350614407	-2.4056330243	-0.6807291682	 0.187149
H	-3.1359556551	-1.1166388897	 0.3581080496	 0.187696
55.0891	74.0585	129.0103	211.3582	240.8315	317.4418	367.2881	375.5499	384.7563	437.2506	502.0311	568.7386	671.3429	758.0843	897.2025	924.6149	974.8893	1038.5189	1091.4778	1119.4866	1197.1681	1208.7011	1284.7556	1297.65	1350.426	1399.4216	1429.4631	1436.1775	1490.864	1498.5113	1804.6543	2364.7718	2976.8489	3042.8337	3045.9886	3108.6769	3123.7769	3135.0417	3709.1352
CC(O)C(=O)CC#N	C[C@@H](O)C(=O)CC#N	
InChI=1S/C5H7NO2/c1-4(7)5(8)2-3-6/h4,7H,2H2,1H3	InChI=1S/C5H7NO2/c1-4(7)5(8)2-3-6/h4,7H,2H2,1H3/t4-/m1/s1
