18
gdb 14393	4.06994	1.93272	1.63595	1.7477	70.5	-0.2265	0.056	0.2825	849.2152	0.152115	-347.719379	-347.711766	-347.710822	-347.75138	29.625	
C	-0.0560174609	 1.5957399808	 0.0225264776	-0.449468
C	 0.0861411449	 0.0687577645	 0.0330805834	 0.338727
C	-1.1281274267	-0.6257012729	-0.580220009	-0.451293
C	 1.3589493607	-0.7096796096	-0.2335368532	-0.142965
C	 2.6395946157	-0.1392062793	 0.4490464044	 0.005357
O	 2.3271250699	 1.0702479061	 1.154305272	-0.245837
C	 2.005451788	-0.189161872	 1.7611174945	 0.005351
C	 0.6920260953	-0.762240654	 1.1463826962	-0.142962
H	 0.7365310509	 2.0765505343	-0.552165394	 0.127016
H	-1.0150635727	 1.87016255	-0.430754825	 0.094408
H	-0.0277848395	 2.0162992515	 1.028471013	 0.127002
H	-1.2680594607	-0.30542985	-1.6185962133	 0.119151
H	-1.0274909143	-1.7154778791	-0.573037209	 0.110184
H	-2.0373703462	-0.3659820231	-0.0268637606	 0.119151
H	 1.406302359	-1.498413087	-0.9749924332	 0.085706
H	 3.665564711	-0.2859759969	 0.1335023394	 0.107383
H	 2.4007340975	-0.3856224556	 2.7505006878	 0.107383
H	 0.1646693679	-1.5962604478	 1.594049409	 0.085707
40.299	193.8071	257.6415	261.7617	327.669	373.9058	394.2596	508.591	608.7247	691.9798	741.5189	764.3622	793.8549	858.5851	866.1598	912.648	919.6548	961.5689	992.2581	1000.8243	1023.2108	1034.5047	1044.9378	1047.471	1137.969	1174.6373	1227.823	1229.761	1257.2324	1287.4485	1351.155	1403.7762	1413.4435	1429.0525	1491.0673	1494.0457	1496.9532	1500.9086	3025.2847	3040.6988	3090.8868	3101.0221	3116.0424	3142.7418	3172.7784	3183.362	3183.9531	3198.5395
CC1(C)C2C3OC3C12	CC1(C)[C@H]2[C@H]3O[C@H]3[C@@H]12	
InChI=1S/C7H10O/c1-7(2)3-4(7)6-5(3)8-6/h3-6H,1-2H3	InChI=1S/C7H10O/c1-7(2)3-4(7)6-5(3)8-6/h3-6H,1-2H3/t3-,4+,5-,6+
