18
gdb 94305	3.2399	1.23425	1.0604	3.9723	73.99	-0.2552	0.0343	0.2894	1168.5324	0.147207	-439.075815	-439.067459	-439.066514	-439.10889	31.898	
O	 0.3729892281	 1.1883711445	-0.4313523653	-0.429612
C	 0.1679436398	-0.0488854808	 0.1985876488	 0.074208
C	-0.175076403	-0.1072302193	 1.7170282251	-0.270766
C	-1.2373475956	-1.1917070897	 1.3775640277	-0.304439
C	-1.1978154332	-0.692333576	-0.0775134797	 0.420119
C	-2.3392739314	 0.1494360962	-0.6827115499	-0.425957
C	-2.3559785199	-0.9316566083	-1.7404007321	 0.41787
N	-3.031606547	-1.1578652947	-2.7711124959	-0.543594
O	-1.3190396096	-1.648937696	-1.1705657126	-0.286972
H	 1.2895883823	 1.4535046623	-0.3110229858	 0.291251
H	 0.9584154475	-0.7715604235	-0.048195053	 0.086467
H	 0.6241258595	-0.3748349217	 2.4100797262	 0.104106
H	-0.6363903262	 0.8306053084	 2.0364822108	 0.117124
H	-0.8328665502	-2.204475051	 1.4512435657	 0.122414
H	-2.1983286932	-1.1516753093	 1.893213848	 0.11224
H	-3.2491052308	 0.2248544865	-0.0847883519	 0.13141
H	-2.0414727319	 1.1340045863	-1.0441454201	 0.158487
H	-2.7273001752	-2.0185428437	-3.2296639059	 0.225644
79.9066	114.1281	192.1628	219.0292	269.3417	311.4583	418.3784	446.1267	496.3126	509.2206	554.8341	689.3999	785.7691	795.5197	865.6391	866.1991	886.1709	922.901	957.3629	970.3792	1009.4928	1066.8438	1084.0627	1094.8703	1153.3372	1170.0574	1176.1514	1212.6531	1220.5941	1243.3208	1260.4467	1279.5379	1314.3667	1325.6147	1433.5564	1459.2723	1478.2677	1497.1951	1829.1374	3009.9891	3069.916	3072.7349	3090.333	3122.0763	3135.5323	3151.5374	3474.1425	3831.0327
OC1CCC11CC(=N)O1	O[C@H]1CC[C@]21C[C]([NH])O2	
InChI=1S/C6H9NO2/c7-5-3-6(9-5)2-1-4(6)8/h4,7-8H,1-3H2	InChI=1S/C6H9NO2/c7-5-3-6(9-5)2-1-4(6)8/h4,7-8H,1-3H2/t4-,6+/m0/s1
