14
gdb 33555	2.2494	1.6576	1.23625	5.8197	72.65	-0.2522	-0.0051	0.2472	1024.7492	0.101087	-395.702169	-395.69405	-395.693105	-395.735027	29.838	
C	-0.1015707843	-1.247393223	-0.0733046463	-0.412521
C	-0.0314771806	-0.0501993789	-0.0320793674	 0.312267
C	 0.0387950754	 1.4070266349	 0.0639606945	-0.049272
C	-0.5845926296	 1.9438928007	 1.4110747077	-0.22621
N	 0.38287895	 2.9849695422	 1.760569994	-0.292124
C	 1.5207357354	 2.7339801422	 1.0304872833	 0.07233
N	 1.4520595087	 1.895263478	 0.0655498215	-0.259578
C	-0.6569034172	 2.0162722312	-1.0929721335	 0.302526
N	-1.2141800301	 2.5109292688	-1.9753548547	-0.340848
H	-0.1550827944	-2.3070210812	-0.1293932646	 0.209203
H	-1.5894821301	 2.3443032639	 1.2713998409	 0.150127
H	-0.6116712165	 1.138841125	 2.1529758288	 0.132749
H	 0.463779019	 3.282426929	 2.7211417375	 0.257116
H	 2.4321972242	 3.2759641571	 1.2649444482	 0.144236
82.7284	125.7734	165.7055	185.962	266.5432	429.8526	469.3222	477.0102	526.4272	556.5522	581.5645	604.7033	657.2958	663.9327	778.1036	870.9837	919.3177	971.6776	1014.3538	1019.6131	1094.5631	1145.9959	1154.2284	1235.99	1302.8379	1336.5903	1450.2168	1515.9645	1673.8426	2249.7019	2360.915	3047.9716	3123.3859	3193.1722	3499.0029	3620.251
C#CC1(CNC=N1)C#N	C#C[C@]1(CN[CH][N]1)C#N	
InChI=1S/C6H5N3/c1-2-6(3-7)4-8-5-9-6/h1,5H,4H2,(H,8,9)	InChI=1S/C6H5N3/c1-2-6(3-7)4-8-5-9-6/h1,5H,4H2,(H,8,9)/t6-/m1/s1
