16
gdb 5266	6.68968	1.0446	0.96243	3.7095	66.7	-0.2197	0.0315	0.2512	1177.527	0.132451	-379.955648	-379.947929	-379.946985	-379.988494	27.834	
O	 0.1217985411	 1.4304083258	 0.1147658095	-0.4196
C	 0.0588103698	 0.0145435168	 0.1810682877	-0.053577
C	-1.3593366507	-0.5269799518	-0.0632484254	-0.322047
C	-1.4154326182	-2.0202548763	-0.0068467947	 0.283079
C	-1.9936357679	-2.8264405494	 0.9407486031	-0.191179
N	-1.7341482586	-4.1190378765	 0.5375115348	-0.228924
C	-1.0199122803	-4.0420829213	-0.6194206087	 0.011468
N	-0.808703723	-2.7973842534	-0.9760147162	-0.303724
H	-0.0667800499	 1.6877997853	-0.7932805074	 0.280363
H	 0.7541786452	-0.4599089325	-0.5256766207	 0.108794
H	 0.3862045629	-0.25288676	 1.1912902851	 0.107455
H	-2.0393662595	-0.0904631631	 0.6755197207	 0.103665
H	-1.6953214839	-0.1891385402	-1.0529433265	 0.100726
H	-2.5524102078	-2.6094469333	 1.8359423246	 0.128028
H	-2.029025701	-4.9590983833	 1.0056555148	 0.266656
H	-0.688328158	-4.9212038068	-1.1518358506	 0.128818
57.3396	98.1233	121.4463	292.9337	332.2937	363.152	373.7252	516.0084	659.358	696.5243	728.644	773.8684	787.9776	820.3522	949.9087	978.6848	1014.9947	1039.2599	1072.2361	1095.9295	1131.36	1153.7618	1243.6652	1284.4466	1293.4746	1325.7557	1359.4659	1394.7757	1414.1745	1456.2045	1476.8683	1512.4997	1527.8928	1600.2284	3008.8276	3017.2648	3069.356	3089.8814	3249.422	3273.2767	3668.6776	3815.0949
OCCC1=CNC=N1	OCCc1c[nH]cn1	
InChI=1S/C5H8N2O/c8-2-1-5-3-6-4-7-5/h3-4,8H,1-2H2,(H,6,7)	InChI=1S/C5H8N2O/c8-2-1-5-3-6-4-7-5/h3-4,8H,1-2H2,(H,6,7)
