23
gdb 114792	3.32444	1.13051	1.00769	0.1221	90.56	-0.2323	0.027	0.2593	1313.2763	0.207596	-351.165837	-351.157285	-351.156341	-351.199161	33.688	
C	 0.7679618165	 1.8541297545	 0.0053646026	-0.379498
C	 0.8047150732	 0.3394471782	-0.2246696482	-0.194873
C	 0.7544630371	-0.4603488821	 1.0714302095	 0.055187
C	-0.5558412954	-0.4497524498	 1.9136436047	-0.248246
C	-0.4308925217	-1.9855496446	 2.1358823348	-0.002406
C	-1.6099004521	-2.853641274	 1.6556788846	-0.272423
C	-1.2913511571	-3.0696714734	 0.1924117872	-0.066117
C	-0.0779761316	-2.6284071287	-0.1445955797	-0.068668
C	 0.6652745699	-2.0225980883	 1.0168947703	-0.095744
H	 1.6235678648	 2.1851325433	 0.6049408197	 0.111188
H	 0.7928241228	 2.4028859838	-0.9413787647	 0.10921
H	-0.1419257401	 2.1520218724	 0.5377582481	 0.117622
H	-0.037987411	 0.0435499997	-0.8624583873	 0.095726
H	 1.7156155581	 0.0752393458	-0.7790999583	 0.088741
H	 1.6039589203	-0.1749220044	 1.7040705972	 0.061667
H	-0.5614032422	 0.177577287	 2.8083708009	 0.093178
H	-1.43410495	-0.1943352654	 1.3109807876	 0.095437
H	-0.0824080581	-2.2429104492	 3.1374953227	 0.062165
H	-1.6756590824	-3.8114810402	 2.1907027528	 0.099529
H	-2.5756602932	-2.3527903606	 1.806538435	 0.099915
H	-1.985370877	-3.5539649135	-0.4871319281	 0.087332
H	 0.3512822683	-2.7051980222	-1.1383580642	 0.088299
H	 1.6079033208	-2.5446556086	 1.2173117428	 0.062781
78.6663	100.479	151.7304	221.9597	254.8849	332.9263	395.171	401.1239	488.5558	648.6247	698.4701	750.7156	773.2815	782.3884	796.2143	857.9276	890.1853	927.2718	939.0948	949.3585	957.2272	980.9438	994.5237	1030.3918	1039.0275	1086.1014	1102.5178	1131.1562	1141.9602	1157.5155	1199.5597	1210.7041	1245.491	1250.4598	1266.6822	1290.1371	1308.6896	1309.7194	1331.9283	1346.5399	1376.7463	1397.3682	1410.17	1479.6072	1485.2209	1491.1564	1500.0021	1507.2977	1674.7546	3004.5404	3011.3257	3018.5719	3028.4999	3032.982	3035.2886	3044.7997	3049.789	3086.8023	3094.7828	3100.1373	3105.3711	3171.5342	3197.1009
CCC1CC2CC=CC12	CC[C@H]1C[C@H]2CC=C[C@@H]12	
InChI=1S/C9H14/c1-2-7-6-8-4-3-5-9(7)8/h3,5,7-9H,2,4,6H2,1H3	InChI=1S/C9H14/c1-2-7-6-8-4-3-5-9(7)8/h3,5,7-9H,2,4,6H2,1H3/t7-,8+,9-/m0/s1
