19
gdb 35877	2.14674	1.5391	1.0963	0.9879	85.77	-0.2524	0.0449	0.2972	1172.0534	0.158562	-348.702073	-348.692958	-348.692014	-348.736181	34.434	
C	-0.6646605264	-0.9610660772	-0.9065905721	-0.440894
C	-0.3645014239	 0.0973055575	-0.4222098809	 0.307035
C	-0.0165312335	 1.3789048609	 0.1669531237	-0.164896
C	-0.2538862791	 1.4797774178	 1.6970333793	-0.212146
C	 0.6600863775	 2.6395998624	 2.1795559737	-0.208185
C	 1.5259781151	 3.0427922207	 0.9589687351	-0.2208
C	 1.4739396907	 1.8228590325	 0.00551583	-0.185666
C	 2.4179996818	 0.782555523	 0.3979597525	 0.362624
C	 3.2054325842	-0.058243977	 0.741947296	-0.493671
H	-0.921793357	-1.8983545744	-1.3337631506	 0.191041
H	-0.6125088028	 2.1587260802	-0.3264155643	 0.10502
H	-1.3104392295	 1.6415061155	 1.922222545	 0.106084
H	 0.0377000467	 0.5361471913	 2.1640563633	 0.124268
H	 0.0816239353	 3.4913123096	 2.5468187748	 0.101882
H	 1.2907904378	 2.30481424	 3.0066529406	 0.114479
H	 1.0836440571	 3.9017112182	 0.4428851556	 0.099968
H	 2.5490497083	 3.3112254631	 1.2282829513	 0.110905
H	 1.6743733294	 2.1132339583	-1.0310950379	 0.106831
H	 3.8975809185	-0.8097803324	 1.0308801149	 0.196122
63.3289	94.3552	120.2152	165.6753	208.6941	290.0003	400.7144	456.9969	506.6854	529.0971	620.8349	626.8608	633.2569	635.2672	657.6489	681.8169	785.3474	820.2681	850.8002	895.0953	950.1342	983.9967	1023.7007	1034.501	1067.2562	1097.6939	1173.1448	1197.6485	1219.6504	1278.6563	1285.4873	1288.9227	1329.4357	1333.8509	1358.0312	1378.0659	1486.8172	1493.1957	1511.1878	2233.9598	2238.6042	3010.9454	3043.9807	3057.3684	3062.8833	3074.5259	3094.8628	3114.7903	3123.592	3505.1289	3505.844
C#CC1CCCC1C#C	C#C[C@H]1CCC[C@H]1C#C	
InChI=1S/C9H10/c1-3-8-6-5-7-9(8)4-2/h1-2,8-9H,5-7H2	InChI=1S/C9H10/c1-3-8-6-5-7-9(8)4-2/h1-2,8-9H,5-7H2/t8-,9+
