19
gdb 86595	2.87839	1.22642	1.09768	3.3488	75.7	-0.2361	-0.0352	0.2009	1195.1347	0.159158	-419.171202	-419.162262	-419.161318	-419.205534	32.728	
C	 0.4625996928	 1.4173794295	 0.6664105524	-0.388754
C	 0.1432713457	 0.0422453637	 0.1003973706	-0.058789
N	 1.0844608642	-0.4819039626	-0.9349767398	-0.339576
C	 1.2149962064	-1.8107540694	-0.2642137598	-0.119147
C	 2.6145754409	-2.3483314532	-0.0766214602	 0.020719
C	 3.4939176238	-1.8535680215	 1.0081445998	-0.239316
N	 2.9132400737	-3.2068670976	 1.0818464085	-0.328932
C	 0.4925999064	-1.1928552403	 0.9434710199	 0.372385
O	 0.3376233105	-1.5171940789	 2.0858616744	-0.30575
H	 1.5121052883	 1.472703692	 0.9668828186	 0.130344
H	 0.2799354328	 2.1954667379	-0.0809393312	 0.124267
H	-0.166513476	 1.621658892	 1.5382994506	 0.132148
H	-0.9152661051	-0.0093750394	-0.2006492736	 0.097568
H	 0.6866077761	-0.5295606512	-1.86599778	 0.223623
H	 0.5808130801	-2.5931562109	-0.7121464235	 0.100247
H	 3.0835357296	-2.6842196369	-1.0001964164	 0.094255
H	 4.5687209545	-1.8218125106	 0.8552309193	 0.11775
H	 3.1098216423	-1.0901043345	 1.6788219657	 0.118996
H	 2.1236599532	-3.1875925482	 1.7260178947	 0.247963
61.2066	68.2211	145.4166	187.4833	204.8602	233.9657	361.4913	377.7342	468.7701	525.0131	600.3181	655.8765	753.5356	814.0223	849.8644	874.4387	918.3065	955.8956	970.3102	982.5213	1007.4429	1063.868	1070.341	1075.9595	1117.3305	1140.2946	1153.5365	1176.1095	1223.645	1272.8765	1300.3035	1308.3551	1311.9706	1365.7455	1376.725	1403.2339	1418.1917	1483.32	1495.0868	1512.4995	1892.5303	2972.6835	2980.7407	3041.5778	3112.6685	3113.8377	3116.4174	3125.0824	3198.706	3482.0556	3539.9912
CC1NC(C2CN2)C1=O	C[C@H]1N[C@@H]([C@H]2CN2)C1=O	
InChI=1S/C6H10N2O/c1-3-6(9)5(8-3)4-2-7-4/h3-5,7-8H,2H2,1H3	InChI=1S/C6H10N2O/c1-3-6(9)5(8-3)4-2-7-4/h3-5,7-8H,2H2,1H3/t3-,4-,5+/m1/s1
