18
gdb 19446	3.06226	2.12439	1.56829	1.7594	72.	-0.2345	0.05	0.2845	871.8296	0.154868	-343.913929	-343.906599	-343.905655	-343.945872	28.49	
C	 0.3028500867	 1.4584176624	-0.1373937877	-0.3109
N	 1.3211268511	 0.440131137	 0.196723906	-0.355523
C	-0.0711768896	 0.0357109257	-0.0013222019	 0.288872
C	-0.8690541045	-0.7074692278	 1.0796385006	-0.300383
C	-1.2179177389	-1.8113180479	 0.0285452873	-0.30486
C	-0.5759994924	-0.9387051735	-1.0586179294	 0.304038
C	-1.0707878805	-0.6184287081	-2.4162080972	-0.304903
N	 0.1362786567	-1.4502079151	-2.2240519302	-0.361282
H	 0.0808964365	 2.1609711293	 0.6619530306	 0.121747
H	 0.3070324285	 1.8982413884	-1.1328106581	 0.106721
H	 1.8800047766	 0.2170370867	-0.6255730628	 0.221151
H	-0.2720961619	-1.032366812	 1.9335613726	 0.116667
H	-1.7389772984	-0.1527022304	 1.440064246	 0.10611
H	-0.6770166288	-2.747787628	 0.1834793101	 0.117082
H	-2.2792766678	-2.0322797521	-0.1035071313	 0.104534
H	-1.9277293892	-1.1499865702	-2.8224802411	 0.12072
H	-0.9563090716	 0.4001407452	-2.7796349993	 0.110047
H	 0.9755684275	-0.9006872296	-2.4039200143	 0.220163
40.6702	209.9405	219.3137	282.1912	349.4326	405.5498	490.908	550.0954	587.4924	749.5383	801.6834	848.5919	874.7203	879.3146	910.7887	930.072	952.5514	967.2282	979.5558	1027.1631	1049.697	1098.7023	1109.8086	1128.5027	1135.3648	1202.9425	1218.2114	1236.6298	1248.668	1257.1341	1262.965	1299.4852	1390.9782	1423.2033	1471.9179	1492.0929	1506.0301	1520.5693	3064.8074	3069.8279	3094.6004	3099.1711	3113.9272	3130.7989	3178.0722	3183.7668	3462.6111	3471.9803
C1NC11CCC11CN1	C1N[C@]21CC[C@]12CN1	
InChI=1S/C6H10N2/c1-2-6(4-8-6)5(1)3-7-5/h7-8H,1-4H2	InChI=1S/C6H10N2/c1-2-6(4-8-6)5(1)3-7-5/h7-8H,1-4H2/t5-,6+
