17
gdb 94283	3.00083	1.62692	1.24224	4.2122	68.42	-0.2333	0.0504	0.2837	1005.1924	0.135004	-458.8567	-458.849053	-458.848109	-458.888955	29.503	
O	 0.1182578307	 1.2527635197	-0.3614952832	-0.425209
C	 0.130397155	-0.0803016133	 0.0871341027	-0.06588
C	-0.004943525	-0.3589592723	 1.6020117396	-0.113609
O	-1.1927982029	-1.1502553052	 1.3732995528	-0.323577
C	-1.2399234944	-0.7671870325	 0.0049797831	 0.540164
C	-2.5327943456	-0.1571385836	-0.5965746328	-0.021336
C	-2.0093883581	-0.5253997437	-2.0031145418	-0.232585
C	-1.7914371807	-1.7361505966	-1.0624228301	-0.051263
O	-3.1458559986	-1.5069464067	-0.5046040776	-0.318429
H	 1.014900469	 1.5999102714	-0.3248037902	 0.292544
H	 0.9321996358	-0.6621274872	-0.3855621346	 0.085303
H	 0.7875205172	-0.9420271305	 2.0827299633	 0.104753
H	-0.2166221237	 0.5453017868	 2.1856390851	 0.107255
H	-3.1253502373	 0.6943583399	-0.2662975925	 0.102209
H	-2.7958023499	-0.6823360536	-2.7407791405	 0.112187
H	-1.1436987911	 0.0147388375	-2.3914465933	 0.112005
H	-1.5044069606	-2.7629924501	-1.2894752701	 0.095471
81.7341	160.7975	193.1445	255.5691	306.765	381.9648	456.8314	481.9363	583.1743	650.4826	763.9626	767.4214	807.9969	877.0154	886.3449	914.4267	954.1876	1006.5314	1016.1984	1035.5736	1075.7335	1094.1876	1123.831	1139.34	1149.6878	1168.9784	1175.5311	1193.9884	1210.3724	1226.5507	1261.808	1297.7472	1330.2123	1342.2656	1445.6018	1481.1417	1513.9434	3017.6801	3023.1476	3077.2154	3081.4963	3121.4874	3139.4064	3162.9757	3823.6215
OC1COC11C2CC1O2	O[C@H]1CO[C@]21[C@H]1C[C@@H]2O1	
InChI=1S/C6H8O3/c7-3-2-8-6(3)4-1-5(6)9-4/h3-5,7H,1-2H2	InChI=1S/C6H8O3/c7-3-2-8-6(3)4-1-5(6)9-4/h3-5,7H,1-2H2/t3-,4-,5+,6-/m0/s1
