19
gdb 126691	3.12757	1.21441	0.9685	1.5216	78.28	-0.195	0.0092	0.2042	1250.6181	0.160759	-415.385128	-415.375982	-415.375037	-415.419581	32.872	
C	 0.1149872913	 1.6075816703	 0.1960608086	-0.382164
C	 0.0156368586	 0.0834016336	 0.0390553213	-0.163551
N	 0.6794713725	-0.6895940609	 1.0792815066	-0.147225
C	 0.0330502885	-0.7683220505	 2.3778772067	-0.331984
C	 2.053347573	-0.7789012773	 1.0496345839	 0.405751
N	 2.7696365179	-1.1370764833	 2.1229151663	-0.329525
N	 4.0226649224	-1.163324319	 1.6524993737	-0.079982
N	 4.1877812933	-0.8392745944	 0.3858546391	-0.198424
C	 2.9488052628	-0.5839765263	-0.0337359789	-0.145823
H	 1.1589408251	 1.9351741637	 0.1914360054	 0.130663
H	-0.4041224463	 2.1110431761	-0.6260226948	 0.11639
H	-0.340487612	 1.9390040115	 1.1343226863	 0.123091
H	-1.0371068103	-0.2204270429	 0.0304634241	 0.106263
H	 0.4268009728	-0.2197936161	-0.9299677956	 0.114711
H	 0.4163232002	-1.6324050342	 2.9244284996	 0.149383
H	 0.2016782919	 0.1213837604	 3.0037442679	 0.114649
H	-1.0432274229	-0.8922525408	 2.2290562951	 0.115123
H	 4.7980940441	-1.406712025	 2.2447885457	 0.287682
H	 2.7624718572	-0.2843289748	-1.051082461	 0.114971
64.0139	78.0133	138.1525	160.4047	208.9181	259.5922	310.8795	383.8167	412.5826	441.394	513.7201	614.4528	699.6826	738.5098	793.9394	824.9369	891.9442	981.3467	989.9206	1033.751	1083.8993	1107.0601	1151.2986	1171.6694	1184.5699	1221.5364	1262.6912	1290.2317	1342.8147	1387.8019	1388.9055	1406.5246	1423.684	1453.2363	1482.2799	1487.5652	1492.6724	1507.0657	1513.0685	1522.5735	1609.918	2987.7901	3037.2273	3038.1384	3071.8869	3080.0431	3108.5502	3116.6659	3129.8252	3278.4035	3685.5972
CCN(C)C1=NNN=C1	CCN(C)c1n[nH]nc1	
InChI=1S/C5H10N4/c1-3-9(2)5-4-6-8-7-5/h4H,3H2,1-2H3,(H,6,7,8)	InChI=1S/C5H10N4/c1-3-9(2)5-4-6-8-7-5/h4H,3H2,1-2H3,(H,6,7,8)
