20
gdb 55020	2.92418	1.03226	0.92244	3.7016	81.6	-0.237	-0.0153	0.2217	1377.4351	0.169588	-403.126248	-403.116852	-403.115908	-403.161328	34.416	
C	 0.783582673	 1.3903773946	 0.2614039767	-0.487227
C	-0.2444388257	 0.2916174098	 0.0557524172	 0.41536
O	-1.0494209191	-0.004705547	 0.9091967476	-0.307372
C	-0.2073800376	-0.3733574862	-1.2918316103	-0.154343
N	-0.7843165294	-1.7270984946	-1.4015113799	-0.319817
C	-1.4703131956	-0.6361844933	-2.0796561711	-0.028805
C	-2.83146837	-0.2635122039	-1.5973139764	 0.036269
C	-3.567870792	 0.8730345014	-2.2637651711	-0.272286
C	-4.0266233889	-0.5467459211	-2.475902694	-0.274153
H	 1.7971853732	 0.9756126936	 0.2059077816	 0.139029
H	 0.704861585	 2.1424937032	-0.5322670393	 0.13838
H	 0.6337605006	 1.8609812627	 1.23342064	 0.142702
H	 0.6764351498	-0.1481936618	-1.8859658663	 0.081569
H	-0.2344747237	-2.278886779	-2.0546046595	 0.236024
H	-1.3417077182	-0.5538264148	-3.1605603149	 0.081936
H	-2.9614027925	-0.3839258618	-0.5293307401	 0.12686
H	-4.1674069097	 1.5264991868	-1.6401911427	 0.116949
H	-3.0841789149	 1.3764153487	-3.0952781534	 0.105194
H	-3.8498045573	-0.9954122071	-3.4484314374	 0.10668
H	-4.9420229571	-0.8751376203	-1.9970112367	 0.117052
47.8597	72.3563	130.7942	141.1276	193.7348	257.2175	279.0778	364.0334	402.57	483.4656	607.37	631.7542	738.9281	779.3035	827.4512	834.5327	871.949	904.4411	930.9524	941.0084	964.5691	994.335	1041.7292	1055.2007	1068.6984	1077.0011	1136.3834	1151.3833	1183.9802	1190.038	1200.2504	1218.1268	1224.7596	1272.0849	1333.1387	1376.7448	1430.3716	1463.9423	1469.9866	1474.599	1479.8697	1508.9243	1807.2876	3031.2751	3085.2284	3090.3089	3121.5052	3127.2052	3132.1428	3153.8828	3200.4469	3206.6691	3223.3213	3505.1052
CC(=O)C1NC1C1CC1	CC(=O)[C@H]1N[C@H]1C1CC1	
InChI=1S/C7H11NO/c1-4(9)6-7(8-6)5-2-3-5/h5-8H,2-3H2,1H3	InChI=1S/C7H11NO/c1-4(9)6-7(8-6)5-2-3-5/h5-8H,2-3H2,1H3/t6-,7+/m1/s1
