22
gdb 122308	3.84037	0.84345	0.77248	1.7913	83.78	-0.229	0.0894	0.3184	1589.0206	0.193553	-404.296774	-404.287279	-404.286335	-404.331982	34.844	
C	 0.7507560022	 1.0955019543	 0.5807171726	-0.386001
C	-0.0127991208	-0.0153920601	-0.1196913753	-0.019712
O	 0.8375690125	-0.6134805084	-1.0762541183	-0.247305
C	 0.2179731241	-1.6524312368	-1.8023739446	-0.170222
C	 1.1858961739	-2.2008036387	-2.8032743293	 0.353521
C	 1.1045034377	-3.5767878863	-3.3299813469	-0.292986
N	 2.2407483595	-3.2418731964	-2.449259386	-0.159294
C	 3.2068471069	-2.4835894208	-3.3227000279	-0.146938
C	 2.1740491712	-1.3652668906	-3.6182676943	-0.309015
H	 1.6384607356	 0.6951108768	 1.0783417691	 0.129654
H	 1.0737825766	 1.8526799258	-0.1395433909	 0.124637
H	 0.1184875083	 1.5780812656	 1.3319929281	 0.114327
H	-0.3537041153	-0.7700031601	 0.6093585843	 0.087478
H	-0.9161542697	 0.3851006248	-0.6117240485	 0.083285
H	-0.108952416	-2.4625169428	-1.1293741389	 0.09414
H	-0.6825954491	-1.2724462456	-2.3192244089	 0.085238
H	 0.3989291659	-4.2600211876	-2.8660746789	 0.116237
H	 1.2871235048	-3.7648891308	-4.3870571124	 0.105653
H	 4.0608831009	-2.1512419994	-2.7300262374	 0.113519
H	 3.5692607534	-3.0669941572	-4.1759119971	 0.100221
H	 1.9066811897	-1.1669014816	-4.66059585	 0.094895
H	 2.4191690077	-0.425956084	-3.1229367684	 0.128665
56.2202	72.3715	98.0131	144.4324	226.1768	248.9266	286.7594	318.3901	398.5005	478.339	507.7998	668.5	737.2257	779.4842	800.4779	820.8497	883.5281	907.0709	933.6236	973.3442	991.8598	1030.6829	1045.6752	1095.2471	1104.6353	1124.5889	1145.6144	1163.1529	1188.4601	1195.1246	1220.8698	1239.3535	1257.7157	1285.5198	1295.9219	1340.8982	1348.5642	1396.1114	1413.8407	1458.0521	1483.9994	1487.5292	1493.6401	1496.2915	1501.2302	1519.6934	1532.8144	2934.2761	2952.5495	2975.6913	2980.6233	3043.9275	3044.8267	3057.2852	3094.1349	3111.2098	3118.8689	3121.8469	3140.4087	3186.9747
CCOCC12CN1CC2	CCOC[C@]12CN1CC2	
InChI=1S/C7H13NO/c1-2-9-6-7-3-4-8(7)5-7/h2-6H2,1H3	InChI=1S/C7H13NO/c1-2-9-6-7-3-4-8(7)5-7/h2-6H2,1H3/t7-,8?/m0/s1
