19
gdb 75254	3.09003	1.63339	1.29838	1.7614	81.74	-0.2275	0.0217	0.2493	1033.0013	0.159679	-385.818005	-385.810669	-385.809725	-385.849339	30.098	
C	-0.1178465448	 1.5663551583	-0.0430478942	-0.504006
C	 0.0218441207	 0.0781089937	 0.0012419383	 0.311696
C	 0.0211708329	-0.7619106852	-1.0482681704	-0.141712
C	 0.1970990485	-2.241672515	-0.6908254095	-0.402499
C	 0.6013284283	-2.0714941807	 0.7538056744	 0.417284
C	 0.7123462054	-2.6133242073	 2.1991988394	-0.311208
C	 1.3038429711	-1.1615913385	 2.1251730779	 0.019727
O	 2.0009843622	-1.5470541696	 0.9024867688	-0.338172
C	 0.0602340117	-0.7280310353	 1.2780638437	-0.122285
H	 0.7695858495	 2.0549464176	 0.3782301625	 0.131983
H	-0.2520669774	 1.9314564889	-1.0651979955	 0.121919
H	-0.9733083945	 1.9041517834	 0.5559974321	 0.12107
H	-0.079168081	-0.440647818	-2.0806785256	 0.087448
H	-0.7308778053	-2.8147716021	-0.8150572597	 0.113052
H	 0.9764619813	-2.7340006209	-1.281735802	 0.124637
H	-0.2143572308	-2.7784943291	 2.7555226266	 0.09596
H	 1.458528446	-3.3910429454	 2.3639968841	 0.109719
H	 1.870370474	-0.6253304105	 2.8884529974	 0.09093
H	-0.8928773676	-0.7335460444	 1.8206111014	 0.074457
159.0387	186.23	250.6916	288.5848	324.3429	439.7287	486.79	521.9836	587.4249	648.6689	715.1292	763.7159	791.1283	822.2703	871.5335	906.49	930.0142	939.6294	979.4577	996.3679	1024.138	1033.5882	1044.9995	1067.1816	1099.0293	1122.4314	1172.5234	1180.6882	1191.8917	1203.6524	1238.4501	1264.0482	1305.5052	1343.0356	1362.535	1414.1013	1465.3678	1478.8273	1488.5001	1489.3113	1676.471	3016.8901	3026.7882	3033.0855	3061.2659	3064.2351	3078.5623	3100.8183	3107.0929	3149.0692	3177.466
CC1=CCC23CC(O2)C13	CC1=CC[C@@]23C[C@@H](O2)[C@@H]13	
InChI=1S/C8H10O/c1-5-2-3-8-4-6(9-8)7(5)8/h2,6-7H,3-4H2,1H3	InChI=1S/C8H10O/c1-5-2-3-8-4-6(9-8)7(5)8/h2,6-7H,3-4H2,1H3/t6-,7-,8+/m1/s1
