20
gdb 68977	3.23504	1.0699	0.94584	4.3027	84.04	-0.2598	0.0354	0.2952	1307.5776	0.170711	-366.011146	-366.002127	-366.001183	-366.045179	33.887	
C	 0.1266050561	 1.5254822649	 0.0028787268	-0.495814
C	-0.0033133631	 0.0302814798	 0.0614629401	 0.285912
C	 1.1406265394	-0.9084629362	-0.22839701	-0.360311
C	 0.4670411214	-0.984619156	 1.1162300587	 0.333267
C	 1.2100540171	-0.7607509839	 2.4132175903	-0.460006
C	 1.9275788153	-1.9582019317	 2.8622458374	 0.267059
N	 2.4818292812	-2.9132489932	 3.2030040463	-0.309456
C	-0.8430014161	-1.769510921	 0.9820802689	-0.282554
C	-1.3237228162	-0.7414908438	-0.0941236466	-0.274269
H	 1.1135176146	 1.8584099405	 0.3417989132	 0.116467
H	-0.0037024993	 1.8898603356	-1.0233420841	 0.127426
H	-0.627945819	 2.0194953834	 0.6258753317	 0.117599
H	 1.0336781006	-1.7221651457	-0.9429830675	 0.109884
H	 2.1250890956	-0.4487641461	-0.2290431673	 0.111585
H	 1.936407254	 0.0530324798	 2.3031691687	 0.148984
H	 0.5184962467	-0.4590676649	 3.210072632	 0.14749
H	-0.7449901402	-2.8129670409	 0.6674048508	 0.108961
H	-1.4557696319	-1.7366938922	 1.8868448247	 0.104446
H	-2.1917472284	-0.1682544027	 0.2414824433	 0.103318
H	-1.5316980078	-1.1336986455	-1.0948776873	 0.100012
52.655	99.2196	184.6432	201.0883	205.3161	317.7234	332.7351	390.8912	423.7954	440.5138	485.4135	599.6411	720.5062	774.0903	791.6107	849.5378	902.932	929.33	940.5794	944.935	970.7771	995.9949	1023.243	1067.3714	1097.2767	1145.2202	1149.6342	1208.3096	1239.123	1242.5434	1248.1064	1296.8751	1324.2947	1337.5897	1400.7047	1427.0624	1456.4938	1482.3034	1486.9733	1488.0254	1499.0501	1521.2996	2359.8778	3019.9986	3029.3414	3044.8662	3053.2595	3069.3914	3078.6861	3090.9379	3092.1716	3101.205	3109.7885	3188.7218
CC12CC1(CC#N)CC2	C[C@@]12C[C@]1(CC#N)CC2	
InChI=1S/C8H11N/c1-7-2-3-8(7,6-7)4-5-9/h2-4,6H2,1H3	InChI=1S/C8H11N/c1-7-2-3-8(7,6-7)4-5-9/h2-4,6H2,1H3/t7-,8-/m1/s1
