20
gdb 112099	2.71085	1.39222	1.00628	2.7871	82.68	-0.2096	-0.0014	0.2082	1228.9529	0.172305	-403.205961	-403.197142	-403.196198	-403.240029	32.985	
C	-0.0619636309	 1.5952890597	 0.0250095211	-0.377587
C	-0.0151256481	 0.066015776	 0.0182976331	-0.162985
N	-1.3464491295	-0.5452903825	 0.0120848447	-0.103337
C	-1.9824310356	-0.8365686265	 1.2296986788	 0.037192
C	-3.0845984272	-1.5815129292	 1.3241754363	-0.142716
C	-3.7002089561	-2.1636237216	 0.0807196049	-0.273006
C	-3.4104451045	-1.251604038	-1.1191076297	-0.31504
C	-1.9682291011	-0.7651241895	-1.2045082754	 0.403992
O	-1.4146140146	-0.5271347417	-2.2620374525	-0.380989
H	 0.9527546811	 2.0054024616	 0.0418706677	 0.118467
H	-0.5646310845	 1.9609853945	-0.8739316745	 0.143732
H	-0.5965732642	 1.9747593542	 0.9019231867	 0.116098
H	 0.5020722671	-0.2868957747	-0.8753116212	 0.142688
H	 0.5216013905	-0.3113379588	 0.8940691955	 0.106206
H	-1.4872400934	-0.4163333198	 2.0979717948	 0.109183
H	-3.5116997783	-1.7853494261	 2.2981589387	 0.094555
H	-3.2947196072	-3.1703201072	-0.1031468854	 0.116726
H	-4.7813843653	-2.2912020433	 0.1959086046	 0.110154
H	-3.6486738221	-1.7240555223	-2.0737280474	 0.128282
H	-4.0300064661	-0.3470650747	-1.0432839609	 0.128383
49.4212	95.574	135.2764	187.304	228.7954	352.5245	368.2802	430.6788	463.2823	528.6694	547.1295	626.5817	704.9322	725.1521	774.2625	790.2924	868.4285	913.6917	946.9587	973.4203	1019.4327	1042.2512	1076.767	1101.591	1150.4776	1181.0853	1187.7924	1244.8474	1274.8457	1298.8828	1341.9008	1367.5763	1392.4539	1409.179	1418.7798	1434.6236	1463.6269	1482.2424	1484.9785	1492.2762	1504.5185	1722.1395	1770.9891	2991.4015	3023.1155	3039.7116	3058.4712	3067.8298	3103.9166	3118.0677	3121.8163	3134.9134	3187.4523	3212.5638
CCN1C=CCCC1=O	CCN1C=CCCC1=O	
InChI=1S/C7H11NO/c1-2-8-6-4-3-5-7(8)9/h4,6H,2-3,5H2,1H3	InChI=1S/C7H11NO/c1-2-8-6-4-3-5-7(8)9/h4,6H,2-3,5H2,1H3
