19
gdb 67953	2.34681	1.71069	1.2815	1.862	74.76	-0.2373	-0.0265	0.2108	1050.7989	0.158705	-423.049419	-423.041222	-423.040278	-423.082283	31.769	
C	 0.200192548	 1.6080295404	-0.1578999321	-0.458487
C	 0.0475682679	 0.1153709212	 0.0447260745	 0.412012
C	-1.3732685549	-0.3997261602	 0.4665634127	-0.407397
C	-0.7220290829	-1.0955681631	 1.6698533403	 0.408527
O	-1.1337569114	-1.7925615118	 2.5522970227	-0.303863
C	 0.6808025395	-0.5693881011	 1.3123504666	-0.20746
C	 1.6509430925	-1.6141535794	 0.7422871851	-0.235432
C	 1.1003007765	-1.8222845404	-0.6781723554	-0.100958
O	 0.5892070048	-0.5576518847	-1.0851945194	-0.293258
H	 1.255025115	 1.8715495828	-0.2782058376	 0.123854
H	-0.3345588978	 1.9269144128	-1.0580678631	 0.131124
H	-0.2045598444	 2.160933313	 0.6951274092	 0.115167
H	-2.0798807681	 0.3852182872	 0.7545117319	 0.130029
H	-1.8637573752	-1.0636671448	-0.2512043344	 0.135984
H	 1.1246177735	 0.0764160801	 2.0735114008	 0.097178
H	 2.6629321381	-1.2002126678	 0.7052722709	 0.114355
H	 1.6761565854	-2.536095402	 1.3284321128	 0.123702
H	 1.8575920618	-2.125578857	-1.4053760007	 0.11473
H	 0.3050770117	-2.5847648251	-0.6778311847	 0.100194
55.3949	170.8291	214.3964	227.4868	281.6847	325.9326	395.0047	439.825	527.2544	585.2836	601.069	638.9025	736.1169	790.3949	863.2296	889.1002	899.0295	920.0952	935.3611	997.8213	1019.7748	1035.0427	1084.582	1119.9586	1125.0142	1156.5257	1190.3301	1208.1813	1218.1365	1244.1999	1270.3834	1314.2224	1331.6115	1385.7983	1410.1269	1420.8299	1481.035	1483.126	1494.4263	1520.8918	1887.682	2978.6586	3038.5767	3054.5922	3057.7374	3090.8408	3095.8116	3109.5441	3111.647	3113.726	3116.1705
CC12CC(=O)C1CCO2	C[C@]12CC(=O)[C@H]1CCO2	
InChI=1S/C7H10O2/c1-7-4-6(8)5(7)2-3-9-7/h5H,2-4H2,1H3	InChI=1S/C7H10O2/c1-7-4-6(8)5(7)2-3-9-7/h5H,2-4H2,1H3/t5-,7+/m1/s1
