17
gdb 66989	2.48777	2.01337	1.5607	2.4595	70.81	-0.2414	-0.0157	0.2257	904.0125	0.137925	-421.848602	-421.84157	-421.840626	-421.879759	28.471	
O	 0.012328349	 1.3843818709	 0.0692262167	-0.484816
C	 0.0186314853	 0.0080026921	 0.0361691102	 0.34706
C	-0.2687901482	-0.9120996738	 1.2169673086	-0.129663
C	 0.6187594962	-2.1523250239	 1.0601766658	-0.232844
C	 0.6264485548	-2.1881226855	-0.4940531175	-0.170605
C	-0.8897236455	-2.1136252119	-0.829996806	-0.232836
C	-1.2148517565	-0.8878392286	 0.0314468035	-0.129629
C	 1.0245158197	-0.7310735598	-0.7819908511	 0.363003
O	 1.8922358151	-0.247187156	-1.4649384766	-0.362867
H	 0.7407065072	 1.6591304789	-0.5061218973	 0.297367
H	-0.5519295098	-0.492758613	 2.1732343614	 0.104229
H	 1.6212638934	-2.0196068648	 1.4790087785	 0.113116
H	 0.173030613	-3.0523736484	 1.4965416953	 0.105647
H	 1.2216429178	-2.9536761087	-0.9847506217	 0.089835
H	-1.0727072543	-1.9504966894	-1.8967379995	 0.113124
H	-1.432096629	-3.0111858296	-0.5146985743	 0.105643
H	-2.2014607982	-0.4502270486	 0.1059313439	 0.104235
120.3415	239.64	258.9609	303.0766	384.0441	461.7973	478.9881	558.6032	623.6585	657.7734	780.7996	803.7652	827.2837	864.744	892.9175	895.6154	918.7201	943.7027	985.6064	1000.4238	1016.3811	1046.997	1088.6837	1132.8825	1148.6201	1178.4416	1195.9703	1225.1634	1274.8219	1290.4683	1310.5888	1324.3009	1392.8363	1469.6579	1491.9275	1511.7292	1852.0937	3042.0051	3046.0057	3090.0635	3092.2917	3159.8643	3205.9517	3214.1859	3739.4741
OC12C3CC(CC13)C2=O	O[C@@]12[C@@H]3C[C@@H](C[C@H]13)C2=O	
InChI=1S/C7H8O2/c8-6-3-1-4-5(2-3)7(4,6)9/h3-5,9H,1-2H2	InChI=1S/C7H8O2/c8-6-3-1-4-5(2-3)7(4,6)9/h3-5,9H,1-2H2/t3-,4+,5-,7-
