17
gdb 62784	3.02814	1.31473	1.12418	0.7512	74.12	-0.23	0.0153	0.2452	1112.755	0.132823	-421.734764	-421.726032	-421.725088	-421.767669	33.638	
C	-0.1202364946	 1.5481165359	-0.1706335308	-0.463414
C	 0.0022844607	 0.0559280456	 0.0048002609	 0.366573
O	-1.1263679203	-0.6833990933	-0.3997232991	-0.465032
C	 1.2843465317	-0.7094043364	-0.1795721133	 0.010648
O	 2.417610809	 0.0424902283	 0.2697571977	-0.293576
C	 1.9235098914	-0.0140597875	 1.6477676605	-0.076976
C	 1.9263786267	 1.25456905	 2.3575475008	 0.321398
C	 1.9496903422	 2.2801593557	 2.9841069605	-0.425506
C	 0.6202106795	-0.6675674678	 1.1856118897	-0.184062
H	 0.8105119445	 2.0564277371	 0.0817579076	 0.150181
H	-0.3565234301	 1.7773255743	-1.2177196861	 0.101897
H	-0.9241872788	 1.94795352	 0.4542670045	 0.126787
H	-1.2418080063	-0.5430838724	-1.3464504544	 0.284842
H	 1.4439939695	-1.5112888259	-0.891574506	 0.108007
H	 2.5338635654	-0.738624609	 2.2025431262	 0.119535
H	 1.9613783366	 3.1922210849	 3.5286236803	 0.203278
H	 0.0686714429	-1.4219943894	 1.7287235611	 0.11542
109.4464	130.6906	203.1255	244.942	256.134	296.5036	342.7011	396.3904	425.2163	493.6745	526.5474	597.4622	622.5536	670.7882	680.2958	754.83	834.4914	906.1814	927.6842	968.9149	975.9565	1012.1731	1023.9355	1040.9713	1096.4045	1106.963	1177.15	1226.8049	1259.0049	1275.8602	1309.3022	1361.284	1412.8758	1436.8025	1488.1108	1496.4329	2234.3922	3017.4651	3026.0779	3095.197	3154.0637	3178.0547	3215.936	3501.1788	3791.5781
CC1(O)C2OC(C#C)C12	C[C@@]1(O)[C@H]2O[C@@H](C#C)[C@@H]12	
InChI=1S/C7H8O2/c1-3-4-5-6(9-4)7(5,2)8/h1,4-6,8H,2H3	InChI=1S/C7H8O2/c1-3-4-5-6(9-4)7(5,2)8/h1,4-6,8H,2H3/t4-,5+,6-,7-/m0/s1
