17
gdb 70286	4.14759	1.14036	0.99263	2.7832	77.43	-0.2268	-0.0651	0.1617	1197.7157	0.135347	-418.02035	-418.011934	-418.010989	-418.053242	31.501	
C	-0.3041992024	 1.5064219118	 0.0368256926	-0.466154
C	-0.0430586766	 0.0226141142	 0.0357889089	 0.330236
C	-0.5836268271	-0.8595499492	 1.1479553254	-0.327781
C	 0.9078212282	-0.7527820991	 1.0024230531	-0.062419
N	 1.4934645242	-1.7342159409	 0.1400392993	-0.322299
C	 0.9759693573	-1.5542310613	-1.1146048679	 0.247182
C	 1.4320476704	-2.3913624942	-2.2435652296	 0.107234
O	 2.2733096286	-3.2519463751	-2.1244107021	-0.273515
N	 0.1153121497	-0.5972255341	-1.2518977041	-0.323328
H	 0.4612757661	 2.0399006679	-0.5347853074	 0.125131
H	-1.276573179	 1.7220631856	-0.4182898349	 0.133274
H	-0.311692715	 1.901455333	 1.0569706356	 0.112933
H	-1.0249087949	-0.3311592508	 1.9860461506	 0.118285
H	-1.0623413669	-1.798024725	 0.8881753648	 0.121453
H	 1.5344408935	-0.3121347748	 1.769120568	 0.10639
H	 2.3708036199	-2.2009710551	 0.2962888871	 0.265803
H	 0.9526278341	-2.140307403	-3.2086589993	 0.107574
89.4137	164.2051	173.3004	229.4924	248.636	284.3258	316.3939	437.9861	446.2955	511.5972	615.74	648.0089	705.9149	770.3713	795.4216	889.3832	945.2988	961.282	974.9497	1016.7609	1032.5294	1050.5224	1091.2664	1107.1503	1123.8073	1241.5574	1288.5491	1309.1067	1374.9602	1386.4372	1417.0642	1461.8501	1478.8445	1495.7609	1499.2426	1622.8482	1796.0146	2964.8131	3035.9956	3103.918	3112.4295	3127.5128	3177.24	3221.4126	3664.7734
CC12CC1NC(C=O)=N2	C[C@]12C[C@H]1NC(=N2)C=O	
InChI=1S/C6H8N2O/c1-6-2-4(6)7-5(3-9)8-6/h3-4H,2H2,1H3,(H,7,8)	InChI=1S/C6H8N2O/c1-6-2-4(6)7-5(3-9)8-6/h3-4H,2H2,1H3,(H,7,8)/t4-,6+/m1/s1
