15
gdb 44182	5.3154	1.01578	0.93807	1.4644	70.4	-0.246	-0.0432	0.2028	1190.1883	0.112973	-416.788429	-416.780774	-416.77983	-416.821061	28.391	
O	 0.2983073841	 0.40269277	-1.1241561025	-0.28467
C	 0.1270548516	 1.310964573	-0.3706156858	 0.449876
C	-1.1249144744	 1.9190621516	 0.3130027916	-0.381106
C	-0.2505686592	 3.1140517023	 0.7891718502	-0.045395
C	 0.37009243	 2.9430616817	 2.2057794951	-0.114074
N	 1.3730162744	 2.0119570139	 1.6336572207	-0.320689
C	 1.0360945433	 2.403624887	 0.2364949907	-0.135041
C	 0.9340487686	 4.1815087348	 2.7462281492	 0.264282
N	 1.4064631484	 5.1502218775	 3.1653621139	-0.314511
H	-1.9074569519	 2.1847112027	-0.4033519287	 0.143473
H	-1.5703238914	 1.3018383735	 1.0979798239	 0.141831
H	-0.5639090645	 4.1102019287	 0.4910440098	 0.113912
H	-0.2750588067	 2.4876076836	 2.9659578224	 0.129157
H	 2.3329394533	 2.1587377457	 1.919332402	 0.249947
H	 1.8220388844	 2.869544114	-0.3608342527	 0.103009
69.1855	121.8693	157.9891	264.2608	321.3479	414.8501	465.7319	504.7986	553.9142	649.1752	664.2475	787.9192	805.0991	861.5191	890.6628	952.5966	975.3115	1021.0856	1030.892	1060.9728	1070.2297	1118.9336	1146.9264	1202.1592	1211.2295	1242.9727	1264.1964	1286.6687	1330.5649	1396.3526	1433.7238	1906.5465	2348.1824	3042.4479	3064.3035	3100.4176	3117.3344	3163.0899	3569.6925
O=C1CC2C(NC12)C#N	O=C1C[C@H]2[C@@H](N[C@@H]12)C#N	
InChI=1S/C6H6N2O/c7-2-4-3-1-5(9)6(3)8-4/h3-4,6,8H,1H2	InChI=1S/C6H6N2O/c7-2-4-3-1-5(9)6(3)8-4/h3-4,6,8H,1H2/t3-,4-,6+/m0/s1
