15
gdb 128402	6.4499	0.81752	0.74261	3.5242	74.31	-0.2295	-0.0195	0.21	1468.4444	0.113592	-450.13059	-450.122156	-450.121212	-450.164963	28.787	
C	 0.0140872639	 1.4843004528	 0.1018996297	-0.314619
N	-0.0649484502	 0.0486148158	-0.1028703548	-0.277286
C	-1.2339908851	-0.6142160235	-0.1395372797	 0.116812
N	-2.361770531	-0.0083892065	 0.0108870154	-0.356899
C	-3.4909939004	-0.7811515147	 0.0988833539	 0.425354
N	-3.5321544585	-1.9927935778	 0.6215511344	-0.213136
O	-4.8863256726	-2.3522823214	 0.5060367382	-0.162583
C	-5.4947560641	-1.3072344457	-0.0558630749	 0.113885
N	-4.7229615436	-0.3093473148	-0.3290335236	-0.314729
H	 1.0620159174	 1.7686581164	 0.2103048366	 0.127022
H	-0.4262541115	 2.0323238168	-0.7382971652	 0.147492
H	-0.5335966126	 1.7633629929	 1.0056068684	 0.158146
H	 0.7711634591	-0.4572716778	-0.335749809	 0.261087
H	-1.1462497123	-1.6920641899	-0.3069657167	 0.131785
H	-6.5588546485	-1.3932002427	-0.2238306028	 0.157668
62.4947	66.6026	111.4632	133.2574	227.6436	270.7534	389.8589	475.8165	486.7689	596.467	621.0079	791.2615	855.5744	906.0458	925.2869	977.2428	984.1187	1008.6156	1033.4171	1149.4554	1157.3045	1182.0527	1255.4435	1309.285	1348.344	1398.6995	1453.8958	1473.9634	1506.6527	1522.2983	1568.724	1592.0208	1708.5517	3040.65	3084.6851	3104.7538	3143.7433	3258.3252	3678.4014
CNC=NC1=NOC=N1	CNC=Nc1nocn1	
InChI=1S/C4H6N4O/c1-5-2-6-4-7-3-9-8-4/h2-3H,1H3,(H,5,6,8)	InChI=1S/C4H6N4O/c1-5-2-6-4-7-3-9-8-4/h2-3H,1H3,(H,5,6,8)
