18
gdb 16492	2.83031	2.55803	1.75598	1.8037	70.57	-0.224	0.085	0.309	823.3964	0.153257	-347.74393	-347.736608	-347.735664	-347.774975	28.724	
C	 0.0324791752	 1.5857041677	-0.0738894773	-0.422448
C	 0.0687571843	 0.0673684851	 0.0137040928	-0.026634
C	 1.1316471151	-0.7097820499	-0.8159638765	 0.051081
O	 2.3986256901	-0.1119411163	-0.4125853119	-0.292712
C	 2.1923396567	-0.7518664967	 0.8468614683	 0.048653
C	 1.2255367478	-1.768783	 0.3419821699	-0.198556
C	 0.7016289653	-0.6355583572	 1.2267291201	 0.284215
C	 0.1982488658	-0.6929984705	 2.6373993968	-0.513035
H	 1.0415092733	 1.9953189191	 0.0151161763	 0.133753
H	-0.3881245868	 1.9155956067	-1.0305887536	 0.110268
H	-0.5876538697	 2.0124741787	 0.7220867581	 0.110166
H	-0.9181149475	-0.3721853287	-0.1732192743	 0.070038
H	 1.0526751277	-0.8739082422	-1.8889670012	 0.080311
H	 3.0100784888	-0.8017207293	 1.5544503302	 0.104091
H	 1.1642790007	-2.8468852504	 0.3987473072	 0.095538
H	 0.8275619597	-1.3416916454	 3.2571124664	 0.119262
H	 0.1960192848	 0.3008322556	 3.0995941313	 0.125787
H	-0.8241503314	-1.0856994964	 2.6834128172	 0.120222
183.7614	192.0661	201.4303	230.0105	275.4308	332.6882	549.524	575.3391	631.4911	718.5511	758.1666	797.4974	818.5833	855.4396	892.4834	910.2691	929.0608	979.1723	1023.8345	1039.6164	1062.5978	1089.391	1119.7645	1134.5244	1152.1997	1165.2838	1204.9995	1238.7036	1292.5122	1300.5974	1368.6814	1401.8752	1411.7762	1428.5448	1485.8601	1491.5363	1497.9218	1502.8988	3020.7071	3031.0062	3043.3176	3082.0109	3087.273	3090.1255	3125.7447	3138.9283	3197.1823	3211.6628
CC1C2OC3C2C13C	C[C@H]1[C@H]2O[C@@H]3[C@H]2[C@]13C	
InChI=1S/C7H10O/c1-3-5-4-6(8-5)7(3,4)2/h3-6H,1-2H3	InChI=1S/C7H10O/c1-3-5-4-6(8-5)7(3,4)2/h3-6H,1-2H3/t3-,4-,5+,6+,7-/m0/s1
