19
gdb 60897	2.7315	1.26974	1.04575	1.6006	75.97	-0.2405	-0.0309	0.2096	1201.4284	0.157139	-422.990428	-422.98139	-422.980446	-423.025356	32.934	
C	 0.1393057859	 1.5265028287	 0.0008219621	-0.416588
C	 0.0933443625	-0.01367262	-0.0213285754	-0.175505
C	 0.7200827111	-0.5409476687	-1.3017654043	 0.152104
O	 0.2245402952	-1.3724179309	-2.0160866936	-0.245806
C	 0.7995516242	-0.5723447396	 1.1879929064	 0.489564
C	 2.2384945464	-0.967416516	 1.3438029307	-0.344654
C	 1.1392870188	-1.9587267675	 1.6889032611	-0.190866
C	 0.469600758	-1.5163212491	 2.9815110963	-0.090922
O	 0.2726245421	-0.1700290135	 2.463195408	-0.333826
H	 1.167354767	 1.8899456729	-0.1014232892	 0.124292
H	-0.4581303911	 1.9475483102	-0.8128679303	 0.124358
H	-0.2563432351	 1.8937830063	 0.950256037	 0.152709
H	-0.9457146154	-0.3592855353	-0.0053240554	 0.104289
H	 1.7052251857	-0.0822664311	-1.5520685484	 0.078283
H	 2.7804321815	-1.2017204129	 0.4326996763	 0.120292
H	 2.8356740564	-0.5088161698	 2.1275841038	 0.116986
H	 1.0430380932	-2.9234138388	 1.2100668658	 0.113919
H	-0.496063394	-1.9987441965	 3.1681527561	 0.113887
H	 1.0723155676	-1.5226026482	 3.897155783	 0.107486
36.2043	50.2448	168.8296	192.565	216.5442	290.7688	320.8114	383.5655	438.8897	447.5107	502.9768	699.6703	748.8246	842.8574	871.3408	904.9602	952.387	959.6013	972.8465	976.0112	995.2902	1021.6149	1071.5572	1075.9353	1103.621	1133.2202	1138.1958	1157.1349	1175.934	1266.2104	1297.7018	1334.3017	1346.2464	1385.2145	1402.0637	1427.4819	1481.8098	1494.3413	1502.4255	1518.8969	1834.3458	2859.3222	3026.973	3040.8479	3058.737	3077.1463	3111.0442	3113.3824	3132.9209	3203.1782	3211.6495
CC(C=O)C12CC1CO2	C[C@@H](C=O)[C@]12C[C@H]1CO2	
InChI=1S/C7H10O2/c1-5(3-8)7-2-6(7)4-9-7/h3,5-6H,2,4H2,1H3	InChI=1S/C7H10O2/c1-5(3-8)7-2-6(7)4-9-7/h3,5-6H,2,4H2,1H3/t5-,6-,7+/m0/s1
