12
gdb 131461	3.59783	1.14477	0.87011	0.8161	60.52	-0.2703	-0.05	0.2204	1206.1778	0.076676	-505.883631	-505.875926	-505.874982	-505.917126	26.935	
O	 0.1716878901	 1.3247935574	 0.1201661805	-0.401448
C	 0.0775555628	-0.0042920281	 0.0752467077	 0.306077
N	 0.0755614438	-0.7325587522	-1.0017872332	-0.166383
O	-0.0378466057	-2.0355122396	-0.5644427017	-0.173129
N	-0.113107773	-2.0986810405	 0.8052916676	-0.169678
C	-0.0376097334	-0.865416515	 1.212907704	 0.394049
O	-0.0736573281	-0.4319131709	 2.48162253	-0.215907
C	 0.0481267993	-1.3599014264	 3.4945993358	 0.112771
N	-0.1168300617	-0.9587946705	 4.6708221261	-0.412765
H	 0.2347028437	 1.6584625908	-0.7849322831	 0.324498
H	 0.2921551161	-2.3598983485	 3.1319400265	 0.153677
H	 0.0201069762	-1.7258917562	 5.3264675997	 0.248237
46.4652	86.8724	153.8706	271.9937	302.7415	382.55	459.522	477.0288	553.5966	591.6794	702.4161	757.7654	833.6679	856.337	898.7139	964.0889	1020.8771	1051.0619	1061.398	1218.8162	1246.1863	1354.5737	1405.5854	1499.2857	1619.5126	1652.9391	1756.9419	3122.4759	3522.8674	3785.2372	46.4661	86.8732	153.8707	271.9936	302.7415	382.5495	459.5218	477.0287	553.5966	591.6793	702.4161	757.7656	833.6679	856.337	898.7138	964.0888	1020.877	1051.0618	1061.398	1218.8162	1246.1862	1354.5737	1405.5853	1499.286	1619.5126	1652.9391	1756.9422	3122.4759	3522.8676	3785.2369
OC1=NON=C1OC=N	Oc1nonc1O[CH][NH]	
InChI=1S/C3H3N3O3/c4-1-8-3-2(7)5-9-6-3/h1,4H,(H,5,7)	InChI=1S/C3H3N3O3/c4-1-8-3-2(7)5-9-6-3/h1,4H,(H,5,7)
