17
gdb 54989	3.51889	1.07768	0.98991	5.1342	70.02	-0.2421	0.0111	0.2533	1224.9902	0.135769	-455.119101	-455.110411	-455.109467	-455.153074	31.706	
N	 0.2523784088	 1.2063951991	-0.6590073826	-0.539329
C	-0.0385698175	 0.3581181563	 0.3733367472	 0.458927
O	 0.6637772603	 0.2525439844	 1.3591062174	-0.363763
C	-1.3349899503	-0.3943794037	 0.222961335	-0.245747
N	-1.2908681696	-1.8147500918	 0.6602174748	-0.349685
C	-2.0436083647	-0.8624612852	 1.4406781366	 0.296501
C	-1.8092449346	-0.5426346832	 2.9104960765	-0.120521
O	-3.2456257092	-0.5087434842	 3.1341146183	-0.278179
C	-3.5354766657	-0.8397736872	 1.7648112915	-0.149457
H	 1.1452733732	 1.6728060983	-0.6370463903	 0.264142
H	-0.2297493321	 1.1531130502	-1.5395053827	 0.258516
H	-1.9486696818	-0.1507237304	-0.642993724	 0.084068
H	-1.9110517161	-2.3691606414	 0.0726395035	 0.23577
H	-1.3159797216	-1.3402215556	 3.4761209801	 0.117924
H	-1.3314314232	 0.4157501918	 3.1286830663	 0.124862
H	-4.1341968488	-0.0672916613	 1.2641609789	 0.1041
H	-4.0457075672	-1.8091438561	 1.6672018435	 0.10187
53.5501	108.4356	137.592	171.1018	264.6617	309.2859	341.5627	397.2159	424.8479	538.5108	587.2637	644.8216	767.2389	814.9225	854.1718	883.3611	926.808	951.2495	989.8631	1011.3159	1030.577	1049.6798	1084.3107	1120.8519	1141.7506	1157.1637	1187.6769	1257.6023	1285.7359	1306.374	1338.4589	1405.1915	1500.5667	1502.5348	1527.9019	1619.42	1798.4566	2990.5042	3034.6722	3047.5606	3105.8399	3115.7576	3483.0293	3596.6039	3729.5501
NC(=O)C1NC11COC1	NC(=O)[C@H]1NC21COC2	
InChI=1S/C5H8N2O2/c6-4(8)3-5(7-3)1-9-2-5/h3,7H,1-2H2,(H2,6,8)	InChI=1S/C5H8N2O2/c6-4(8)3-5(7-3)1-9-2-5/h3,7H,1-2H2,(H2,6,8)/t3-/m1/s1
