16
gdb 29134	3.11832	1.45247	0.99711	0.5047	79.65	-0.1985	-0.0354	0.1631	1147.407	0.124957	-434.112037	-434.103577	-434.102633	-434.144996	31.73	
C	 0.0202501248	 1.5174436682	 0.2367689084	-0.467693
C	-0.0199183742	 0.0425997751	-0.0337448454	 0.25494
C	-1.16189452	-0.6032590546	-0.3153473213	-0.058191
O	-1.1860675	-1.9574297588	-0.5659107511	-0.221245
C	-0.0355253868	-2.6729742315	-0.5305344631	 0.35635
N	 0.0217086653	-3.922503178	-0.7643957519	-0.555066
C	 1.1900856601	-1.9011303768	-0.2012416243	 0.347733
N	 2.3154035667	-2.6437450358	-0.145110894	-0.546304
N	 1.1978164593	-0.6239248629	 0.0242926946	-0.395767
H	 0.6776402621	 2.0202651366	-0.4808808258	 0.133987
H	-0.9742409311	 1.966215226	 0.1721460098	 0.117887
H	 0.4275137704	 1.7125614491	 1.2347692036	 0.134433
H	-2.1488769883	-0.1697791468	-0.3792528955	 0.125053
H	-0.9000510764	-4.3029339467	-0.9786736157	 0.226946
H	 2.2557561073	-3.6121432	-0.4130361932	 0.282646
H	 3.2001058407	-2.1859518331	-0.0137367652	 0.264291
82.5049	149.8593	173.673	216.5918	286.8415	327.4631	351.542	440.6121	479.3531	513.4886	576.4702	582.2287	615.0697	674.1539	774.695	800.7496	804.8089	856.4236	967.8573	998.3951	1059.4607	1065.1072	1122.6242	1183.1045	1257.868	1321.8976	1378.9427	1415.5979	1438.9134	1470.5945	1491.3361	1573.7803	1664.8742	1676.8139	1722.1788	3033.5101	3089.5552	3120.8867	3244.5786	3493.8865	3603.8156	3747.7673
CC1=COC(=N)C(N)=N1	CC1=COC(=C(N)[N]1)[NH]	
InChI=1S/C5H7N3O/c1-3-2-9-5(7)4(6)8-3/h2,7H,1H3,(H2,6,8)	InChI=1S/C5H7N3O/c1-3-2-9-5(7)4(6)8-3/h2,7H,1H3,(H2,6,8)
