18
gdb 72878	3.21445	1.20979	1.03071	4.234	74.34	-0.2388	0.0244	0.2632	1179.5816	0.146998	-439.076041	-439.067418	-439.066473	-439.110312	31.606	
O	 0.0810933477	 1.4432730793	-0.4218281162	-0.474522
C	 0.0124605799	 0.1086939755	-0.0347397204	 0.386832
C	 0.4814592428	-0.9850538246	-1.0392819724	-0.294098
C	-0.9240327315	-1.6619628798	-0.9596098349	-0.225023
C	-1.3820311167	-0.5967330135	 0.0739036963	-0.057467
N	-1.0473854436	-0.9126596148	 1.4624963626	-0.031448
C	 0.2488810495	-0.2304607974	 1.4699324374	-0.236123
C	-1.6404832166	-1.6637592326	 2.4159401744	 0.12867
O	-1.1748064085	-1.873633364	 3.5177325065	-0.332627
H	 1.0083700352	 1.6888614377	-0.5177361826	 0.285417
H	 0.6990136561	-0.5631223046	-2.0229699147	 0.112079
H	 1.3312310357	-1.591255948	-0.7161677178	 0.105975
H	-1.4794681953	-1.6085770012	-1.8986960515	 0.114572
H	-0.9465304433	-2.6902901554	-0.5942872159	 0.114083
H	-2.3341232173	-0.0851520579	-0.0784313185	 0.096146
H	 1.0998306394	-0.8744561384	 1.7149620475	 0.117255
H	 0.2613740058	 0.6566479496	 2.1125418792	 0.123387
H	-2.6185389792	-2.0635618999	 2.075555461	 0.066894
31.507	89.1386	168.4274	204.1441	258.6758	321.2134	354.4032	390.4474	412.9356	533.3059	638.3238	684.0596	751.0638	822.3884	883.1932	912.4935	914.7096	951.6464	975.1703	1033.1995	1040.0112	1090.8902	1131.5566	1152.8315	1170.9964	1195.2029	1222.9276	1240.3434	1261.7918	1278.7898	1299.9991	1318.3148	1380.0903	1403.1656	1448.9291	1466.2161	1483.1725	1506.2602	1789.8345	2916.2533	3034.3866	3063.2785	3071.1969	3086.7139	3097.0533	3114.7476	3133.5888	3795.6111
OC12CCC1N(C2)C=O	O[C@]12CC[C@H]1N(C2)C=O	
InChI=1S/C6H9NO2/c8-4-7-3-6(9)2-1-5(6)7/h4-5,9H,1-3H2	InChI=1S/C6H9NO2/c8-4-7-3-6(9)2-1-5(6)7/h4-5,9H,1-3H2/t5-,6+/m1/s1
