14
gdb 10481	3.07387	1.38737	1.02707	2.429	68.49	-0.2541	-0.0397	0.2144	1129.5622	0.103589	-382.497115	-382.488459	-382.487515	-382.531873	29.037	
C	-0.0496807334	 1.5113680214	 0.0252887234	-0.506352
C	-0.0141904509	 0.0580357056	 0.0240775642	 0.182566
C	 0.0146880829	-1.1450733091	 0.0185262601	-0.015756
C	 0.0807930155	-2.5770925784	-0.0111357044	 0.093391
C	-0.5491788272	-3.4001240616	 1.0591152775	-0.205717
O	-1.1537234912	-3.3097136162	-0.2119194443	-0.251946
C	 1.2349738174	-3.2313726565	-0.7285897947	 0.111915
O	 2.2141230101	-2.6621010785	-1.1236027758	-0.234829
H	 0.8256942627	 1.9228589562	-0.4881223143	 0.161687
H	-0.9434043684	 1.8817724721	-0.4883444108	 0.157932
H	-0.0599118066	 1.9097450762	 1.0454861072	 0.153488
H	-0.120872985	-4.3692128292	 1.3160313917	 0.125649
H	-1.0461681277	-2.8678935812	 1.8675605684	 0.138536
H	 1.0770371517	-4.3252167708	-0.8571255083	 0.089437
26.0474	81.9235	123.4606	132.0621	239.8467	311.8012	329.8073	368.4033	453.9607	540.221	546.1617	667.7253	814.7308	880.0196	933.4403	1035.6826	1049.891	1053.1102	1058.6281	1137.275	1163.2331	1278.172	1349.5556	1412.6295	1419.693	1474.0082	1475.5015	1513.5646	1842.5091	2376.769	2895.4913	3031.8829	3080.702	3094.5243	3097.9793	3179.7128
CC#CC1(CO1)C=O	CC#C[C@]1(CO1)C=O	
InChI=1S/C6H6O2/c1-2-3-6(4-7)5-8-6/h4H,5H2,1H3	InChI=1S/C6H6O2/c1-2-3-6(4-7)5-8-6/h4H,5H2,1H3/t6-/m1/s1
