16
gdb 124429	3.37911	1.22872	1.01372	2.1585	75.03	-0.2546	0.0048	0.2594	1163.5417	0.12578	-396.960637	-396.952485	-396.951541	-396.994383	29.414	
C	-0.0507806861	 1.5547405359	 0.0760069255	-0.387223
C	 0.1229573477	 0.0273126261	-0.0040742111	-0.089727
C	 0.8007150919	-0.3667285042	-1.2465272331	 0.27793
N	 1.3308856125	-0.6429774129	-2.2345299121	-0.314414
N	 0.8332409449	-0.5065361163	 1.1510284949	 0.039087
C	 2.1628781625	-0.7327259305	 1.3189247467	-0.019226
C	 2.3304624856	-1.1225270575	 2.6301353285	-0.241802
C	 1.0314014382	-1.0905279981	 3.1779676437	 0.000821
N	 0.1245407475	-0.7132792686	 2.2812326441	-0.262244
H	 0.9208931614	 2.0537864135	 0.0608099794	 0.144356
H	-0.6456688039	 1.9126598442	-0.7678751314	 0.143341
H	-0.5644521209	 1.7959019732	 1.0085048561	 0.156955
H	-0.8635193266	-0.4469659519	 0.0089315457	 0.162026
H	 2.8603311628	-0.6194847948	 0.5045140508	 0.156551
H	 3.2532957296	-1.4001107272	 3.1123520152	 0.113657
H	 0.717522953	-1.3331808709	 4.182594577	 0.119913
34.9469	111.4851	155.3376	206.5174	238.9867	356.759	376.4468	492.2886	564.0706	630.3393	674.3913	721.9631	771.1666	844.135	863.7056	897.7847	934.2549	968.8468	1017.0713	1069.9487	1089.8272	1106.1508	1128.0666	1217.3849	1256.1891	1331.3274	1344.4952	1377.169	1403.4438	1427.5539	1479.0647	1487.8066	1494.8471	1556.9847	2367.9728	3056.7209	3073.1518	3139.3219	3149.7752	3246.7252	3264.4726	3282.1847
CC(C#N)N1C=CC=N1	C[C@@H](C#N)n1cccn1	
InChI=1S/C6H7N3/c1-6(5-7)9-4-2-3-8-9/h2-4,6H,1H3	InChI=1S/C6H7N3/c1-6(5-7)9-4-2-3-8-9/h2-4,6H,1H3/t6-/m0/s1
