21
gdb 53577	4.19495	0.67837	0.63313	1.3644	88.7	-0.2337	0.0591	0.2928	1863.925	0.180146	-387.060014	-387.049544	-387.0486	-387.098041	36.486	
C	-0.0066327792	 1.412359897	 0.1999992283	-0.496836
C	 0.0246492839	-0.0417444837	 0.1363062225	 0.091821
C	 0.0520926521	-1.2443651173	 0.091553599	 0.048257
C	 0.0566864607	-2.7009139566	 0.0249773307	-0.368133
C	-1.3214095155	-3.2970221318	-0.2672553907	 0.173793
C	-1.4670695657	-4.8312405406	-0.2103170578	-0.32933
C	-2.5948053139	-4.5411673398	 0.8049471781	 0.180354
C	-2.5330097642	-5.1779365337	 2.1775874879	-0.397732
O	-2.2495209432	-3.1331044769	 0.8268725829	-0.306161
H	 0.3874810553	 1.8630516155	-0.7177876562	 0.143429
H	-1.0292142531	 1.7812766733	 0.3370820763	 0.148739
H	 0.5938040861	 1.787387096	 1.0363933491	 0.145707
H	 0.7449888332	-3.0412342969	-0.7620073533	 0.122074
H	 0.4230895803	-3.1248069519	 0.9686995719	 0.123226
H	-1.7237155405	-2.8511238512	-1.1871959523	 0.079044
H	-1.7483858057	-5.3356353509	-1.1356757819	 0.106236
H	-0.6031452334	-5.3369358327	 0.2305607916	 0.103469
H	-3.5963544086	-4.6773192996	 0.3712173226	 0.071677
H	-1.5342709351	-5.0699405352	 2.6117880903	 0.117174
H	-3.2526699159	-4.7025344034	 2.8516058084	 0.128645
H	-2.7755216576	-6.2446958298	 2.1158081523	 0.114546
16.4147	42.9838	61.8978	91.7095	203.2811	222.6453	254.6222	320.0679	339.4826	382.9755	390.6863	427.3973	501.0012	687.1072	766.7257	821.8281	858.9184	910.5541	922.0985	940.0157	1029.4896	1052.4383	1055.5509	1062.0185	1104.6552	1122.3141	1144.8809	1169.2278	1197.6744	1231.9055	1251.4283	1287.146	1305.3786	1351.672	1376.8625	1399.1344	1414.978	1416.5147	1456.3388	1478.9841	1479.4292	1481.5241	1490.534	1495.9871	2375.7942	2990.0517	3005.2744	3006.9631	3024.7408	3031.7807	3048.1633	3062.2348	3083.9234	3085.4821	3104.2778	3111.286	3126.4672
CC#CCC1CC(C)O1	CC#CC[C@H]1C[C@@H](C)O1	
InChI=1S/C8H12O/c1-3-4-5-8-6-7(2)9-8/h7-8H,5-6H2,1-2H3	InChI=1S/C8H12O/c1-3-4-5-8-6-7(2)9-8/h7-8H,5-6H2,1-2H3/t7-,8+/m1/s1
