20
gdb 121546	4.98295	0.47388	0.44969	2.6042	87.06	-0.2286	0.0412	0.2698	2401.0531	0.169943	-403.086366	-403.075919	-403.074975	-403.124573	35.928	
O	-0.0667397359	 1.1111095164	-0.9298661443	-0.421564
C	-0.0718447679	 0.0041016623	-0.0434901079	-0.074087
C	-1.3756795524	-0.7540873271	-0.2550381329	-0.15536
C	-1.4866138317	-1.9887874111	 0.6594818341	-0.35997
C	-2.7300596241	-2.7278633599	 0.4750603808	 0.010908
C	-3.7686788188	-3.3173605904	 0.3072672101	 0.147182
C	-4.9892366173	-4.0501202349	 0.1189939247	-0.159278
C	-5.9558294509	-3.6353156644	-0.9419776751	-0.226922
N	-5.1859822807	-4.8729498235	-1.1021335594	-0.308707
H	 0.7519581098	 1.5983159447	-0.7998743287	 0.28665
H	 0.7835587346	-0.6655082291	-0.2343530821	 0.085139
H	 0.001879872	 0.3317987015	 1.0070252588	 0.085401
H	-2.216468942	-0.0781570496	-0.0688081753	 0.118964
H	-1.442192048	-1.0619817955	-1.3036365603	 0.116223
H	-0.6324287787	-2.6565777231	 0.4806663056	 0.127928
H	-1.4069153357	-1.6758116609	 1.7095922502	 0.130019
H	-5.3918549426	-4.5210796534	 1.0124174236	 0.113917
H	-7.0197886037	-3.7751149395	-0.7725760252	 0.123109
H	-5.6938731581	-2.7688570367	-1.541739457	 0.122435
H	-4.4039897281	-4.7070661362	-1.7315409497	 0.238012
15.4573	56.7034	67.9784	114.1601	145.1352	168.5101	261.9121	273.2893	320.8356	352.5865	471.1081	526.3945	561.1211	721.7777	755.3136	811.9523	864.9856	880.2183	961.0704	994.1245	1018.751	1028.321	1082.4308	1090.8892	1116.0272	1120.951	1156.888	1211.922	1219.1744	1231.581	1258.4411	1298.6486	1299.1144	1306.3531	1311.9998	1375.6286	1399.0961	1464.1755	1474.3924	1499.1335	1504.6747	1527.8817	2360.6662	2953.8963	2978.9076	3007.1343	3034.0481	3053.8328	3099.5953	3113.7251	3135.086	3204.3128	3502.6212	3831.2524
OCCCC#CC1CN1	OCCCC#C[C@H]1CN1	
InChI=1S/C7H11NO/c9-5-3-1-2-4-7-6-8-7/h7-9H,1,3,5-6H2	InChI=1S/C7H11NO/c9-5-3-1-2-4-7-6-8-7/h7-9H,1,3,5-6H2/t7-/m0/s1
