17
gdb 50153	5.23399	1.00166	0.90626	3.6069	78.84	-0.2322	-0.0229	0.2092	1270.907	0.137064	-418.032014	-418.024111	-418.023166	-418.065055	29.384	
O	-0.0211924112	-0.0393165434	-0.0002113437	-0.313587
C	 0.0033297271	 1.1704755972	 0.0096406869	 0.154601
N	 1.1489233398	 1.9244182236	 0.0030068152	-0.087952
C	 1.2402208883	 3.391506753	 0.0141918474	-0.278409
C	 2.7709118339	 3.5795072008	-0.001930694	 0.358676
C	 3.4470163013	 4.6948658098	-0.7550401325	-0.307319
C	 3.4644062786	 4.6824872345	 0.7535770216	-0.307325
N	 3.3902162722	 2.2714157268	-0.0198238462	-0.291949
C	 2.4514942559	 1.4115715771	-0.0162087557	 0.066407
H	-0.9065491717	 1.8001712526	 0.0252571841	 0.084858
H	 0.7502576369	 3.821807813	-0.8658615336	 0.1287
H	 0.7708531855	 3.8069516202	 0.9124257958	 0.128698
H	 4.363267552	 4.4446218675	-1.2765293393	 0.133675
H	 2.8134144244	 5.4185143812	-1.2578719085	 0.115341
H	 2.8427012353	 5.3976698709	 1.2826852803	 0.115341
H	 4.3923884431	 4.4238994271	 1.2496325845	 0.133675
H	 2.5787376487	 0.3373025082	-0.0265616625	 0.166569
45.046	150.75	192.5911	233.5124	300.7278	319.7266	373.6484	434.9499	610.1967	626.2039	775.2862	786.9554	827.3528	864.0723	896.1212	929.5431	940.4186	969.7556	996.6347	1028.4517	1058.2774	1065.9164	1089.0426	1192.5482	1212.4481	1212.9102	1229.1632	1294.9325	1311.7729	1365.8804	1416.3106	1441.1727	1454.4842	1495.0237	1519.6671	1685.6778	1799.4027	2953.035	3030.1133	3069.1588	3131.4218	3134.7234	3220.8307	3234.597	3243.8393
O=CN1CC2(CC2)N=C1	O=CN1CC2(CC2)N=C1	
InChI=1S/C6H8N2O/c9-5-8-3-6(1-2-6)7-4-8/h4-5H,1-3H2	InChI=1S/C6H8N2O/c9-5-8-3-6(1-2-6)7-4-8/h4-5H,1-3H2
