15
gdb 42763	2.6941	1.60519	1.2962	5.8668	70.62	-0.2479	-0.0374	0.2105	985.8832	0.1143	-416.799193	-416.791929	-416.790985	-416.830939	27.832	
O	-0.0275557201	-0.0069843498	 0.0417566868	-0.28878
C	-0.0461867571	 1.1769504749	-0.0231185385	 0.450596
C	-1.0779252894	 2.3153831475	 0.0424890598	-0.176831
C	-0.0389803585	 2.9836265959	 1.006577337	-0.283039
C	 1.0099085317	 2.3411209718	 0.0302091224	 0.08622
N	 0.7480466681	 2.9729077853	-1.2834815383	-0.335911
C	-0.7535782061	 3.0285624149	-1.2889226265	-0.177901
C	 2.3953873804	 2.1570215702	 0.3749404505	 0.193077
N	 3.499700798	 2.0059166301	 0.680747	-0.331156
H	-2.1186882559	 2.1481165328	 0.306090414	 0.109871
H	-0.0356600426	 4.0752506818	 1.0394859789	 0.121906
H	-0.0285999467	 2.5534247635	 2.0090114543	 0.142953
H	 1.1398407362	 3.9092542284	-1.2908149215	 0.237739
H	-1.1573307765	 2.4972437784	-2.1557010445	 0.133667
H	-1.1291297816	 4.0562335643	-1.3028927244	 0.117592
127.4239	151.2101	185.6384	273.7723	388.4929	436.9706	505.9336	535.6936	579.422	666.2975	704.3901	774.105	786.9647	866.4957	876.7627	914.9495	980.5586	987.257	996.2729	1031.5646	1063.8792	1112.557	1150.1506	1205.0815	1238.7008	1243.3522	1281.0938	1346.9755	1413.1018	1483.3617	1522.3611	1931.1076	2360.9856	3046.9935	3075.5801	3091.2243	3149.2537	3166.8779	3519.2053
O=C1C2CC1(NC2)C#N	O=C1[C@H]2C[C@@]1(NC2)C#N	
InChI=1S/C6H6N2O/c7-3-6-1-4(2-8-6)5(6)9/h4,8H,1-2H2	InChI=1S/C6H6N2O/c7-3-6-1-4(2-8-6)5(6)9/h4,8H,1-2H2/t4-,6+/m0/s1
