19
gdb 95921	2.30119	1.50137	1.20899	3.7863	75.27	-0.2548	0.0281	0.2829	1110.5941	0.159868	-419.221931	-419.212756	-419.211812	-419.255694	34.112	
C	-0.5167228353	 1.3415323386	 0.0354810953	-0.408328
C	 0.0747489047	-0.0521211318	-0.011682701	 0.119515
O	 1.0986628591	-0.1223708324	-0.9942121102	-0.268826
C	 1.7598376283	-1.3754238473	-0.8254669797	-0.09123
C	 1.59317842	-1.7678665424	 0.6671691281	-0.28931
C	 0.8219727158	-0.5503379884	 1.2657857296	 0.099622
N	 1.6716889165	 0.5273209896	 1.7774143302	-0.539864
C	-0.1115454005	-0.9634316759	 2.3190299267	 0.288039
N	-0.8551466763	-1.307298549	 3.1340207107	-0.344344
H	 0.2431958783	 2.0857911556	 0.2771462057	 0.135695
H	-0.9601395523	 1.5854950396	-0.933296945	 0.128168
H	-1.2988707549	 1.3874753352	 0.7982371116	 0.13959
H	-0.7168722409	-0.7859557009	-0.2374575364	 0.081832
H	 1.3083465918	-2.1339610596	-1.4792361226	 0.108175
H	 2.8023743636	-1.2435106145	-1.1262394718	 0.116101
H	 1.0137004311	-2.6882325543	 0.7709511752	 0.129247
H	 2.5444845714	-1.9121455262	 1.1837557148	 0.114902
H	 2.2863472167	 0.1741054647	 2.5041808393	 0.238425
H	 2.2573428729	 0.8581615595	 1.0155635696	 0.242592
79.3276	133.1134	156.276	192.0523	209.5969	268.4416	286.4593	341.9926	384.3034	496.1674	522.7499	573.9277	591.6464	694.239	752.7082	810.0377	871.3069	883.2474	940.636	964.2238	1007.432	1022.7389	1056.561	1102.6614	1130.6288	1159.2518	1195.2685	1249.8667	1260.6656	1282.2722	1316.6315	1370.1282	1388.471	1397.6231	1420.8807	1485.0338	1490.1337	1492.2871	1525.501	1642.5434	2359.0342	2965.5567	3011.4685	3058.1169	3072.2321	3087.8654	3122.225	3128.4821	3149.732	3492.3839	3577.9406
CC1OCCC1(N)C#N	C[C@H]1OCC[C@]1(N)C#N	
InChI=1S/C6H10N2O/c1-5-6(8,4-7)2-3-9-5/h5H,2-3,8H2,1H3	InChI=1S/C6H10N2O/c1-5-6(8,4-7)2-3-9-5/h5H,2-3,8H2,1H3/t5-,6+/m1/s1
