23
gdb 118095	3.03494	0.83306	0.78775	2.0873	82.31	-0.2536	0.063	0.3167	1615.9747	0.203547	-425.415818	-425.40524	-425.404296	-425.451524	39.631	
C	-0.2208013846	 1.5306648004	 0.0372944259	-0.383748
C	 0.0258439058	 0.0220164916	-0.0366845889	-0.165038
C	 0.591073596	-0.5603977694	 1.26237654	-0.189463
C	 0.9019109295	-2.0629642675	 1.163610452	 0.071132
O	 1.8213013968	-2.3321152673	 0.1124390119	-0.439384
C	 1.446160715	-2.6302558645	 2.4646270274	 0.393946
O	 2.741897382	-2.1502795494	 2.758814488	-0.478564
C	 0.5364290944	-2.9753399901	 3.6111853744	-0.329999
C	 1.2293521129	-4.0670224112	 2.8144013979	-0.305373
H	 0.7073320951	 2.0740658924	 0.2484947739	 0.110744
H	-0.6222193248	 1.9153572236	-0.9055313879	 0.112293
H	-0.935709457	 1.781278065	 0.8294978799	 0.109403
H	-0.9133441074	-0.4923396877	-0.2812151913	 0.091003
H	 0.7207829507	-0.2090001848	-0.8504154768	 0.116705
H	 1.5151522261	-0.0237874698	 1.5242402984	 0.074324
H	-0.1144016184	-0.3946633472	 2.0881611725	 0.090049
H	-0.0219863552	-2.5975535553	 0.9068284313	 0.076376
H	 2.6972501594	-2.1880643456	 0.493832329	 0.283503
H	 2.6556639859	-1.2574275034	 3.1114414972	 0.287397
H	 0.9069834897	-2.7818494844	 4.6118957384	 0.114641
H	-0.5328889234	-2.8386551425	 3.487024176	 0.114631
H	 0.638114666	-4.6759361807	 2.1398383103	 0.1216
H	 2.0555844454	-4.5795054723	 3.2928679205	 0.12382
66.506	89.7051	107.0946	122.4019	230.056	248.4634	275.0777	296.6777	317.0431	338.6012	381.1223	455.4215	482.3482	547.0849	552.9236	751.2961	773.3548	796.9094	857.2167	900.7355	906.553	924.1841	948.3182	983.5165	988.694	1047.3274	1052.7245	1078.2739	1089.0513	1124.3652	1133.8926	1187.5822	1229.8825	1251.3132	1283.3638	1294.6016	1308.2428	1333.7106	1353.293	1380.3025	1392.2097	1412.6303	1444.7107	1455.4266	1478.2195	1494.3586	1499.9155	1501.8147	1511.1897	2994.8467	3019.8875	3024.713	3026.2864	3042.9395	3073.6145	3096.4138	3100.2964	3130.2878	3142.4946	3215.774	3235.1281	3767.6805	3796.5254
CCCC(O)C1(O)CC1	CCC[C@@H](O)C1(O)CC1	
InChI=1S/C7H14O2/c1-2-3-6(8)7(9)4-5-7/h6,8-9H,2-5H2,1H3	InChI=1S/C7H14O2/c1-2-3-6(8)7(9)4-5-7/h6,8-9H,2-5H2,1H3/t6-/m1/s1
