19
gdb 53493	5.97762	0.53813	0.50645	1.6948	91.22	-0.238	0.0363	0.2743	2196.1323	0.154887	-385.840625	-385.82886	-385.827916	-385.881308	38.631	
C	 0.0372105979	 1.5026354105	-0.0188162054	-0.49789
C	 0.0283092495	 0.047154222	 0.0077085834	 0.097651
C	 0.0216718148	-1.1564396014	 0.02358972	 0.046586
C	-0.0047080997	-2.612206887	 0.0568501668	-0.365169
C	-1.4441750153	-3.1946347021	-0.0115846371	-0.056316
O	-2.1296479426	-2.7793409872	-1.1846231796	-0.407133
C	-1.410646171	-4.6542487935	 0.1190743614	 0.043032
C	-1.3548647123	-5.8560405352	 0.1825675326	 0.08653
C	-1.3097792224	-7.3081155347	 0.2743930604	-0.499705
H	 0.8246958742	 1.8845039733	-0.6782055581	 0.145315
H	-0.9178691145	 1.8975963523	-0.3826119704	 0.149674
H	 0.2100044483	 1.9212381845	 0.9789763924	 0.1445
H	 0.5717437095	-3.0294529623	-0.7796064946	 0.120814
H	 0.4720397525	-2.9852444447	 0.9717974834	 0.133101
H	-2.0205103951	-2.7624837349	 0.8142938755	 0.122925
H	-1.7539733504	-3.2670697869	-1.9261274379	 0.281687
H	-2.0488714284	-7.7689516907	-0.3900520619	 0.152535
H	-0.3240079619	-7.6972106619	-0.0028707045	 0.149095
H	-1.5259120329	-7.6458194702	 1.2938719136	 0.152767
15.9367	19.8693	43.3279	60.6848	114.8317	146.889	215.305	264.4781	270.333	290.9397	345.1788	381.9019	385.7974	452.5479	534.9031	552.5725	746.5212	831.4645	866.8404	1000.7935	1051.7306	1052.7828	1053.8945	1055.4457	1069.0928	1155.1311	1171.4941	1197.5787	1272.9876	1312.3896	1356.2456	1413.4519	1414.7159	1423.9858	1464.0523	1476.86	1478.226	1478.7345	1479.4155	2365.2834	2376.2463	3015.7553	3024.9976	3028.2854	3044.8985	3059.6074	3084.2749	3086.0063	3089.7568	3090.5697	3802.576
CC#CCC(O)C#CC	CC#CC[C@@H](O)C#CC	
InChI=1S/C8H10O/c1-3-5-7-8(9)6-4-2/h8-9H,7H2,1-2H3	InChI=1S/C8H10O/c1-3-5-7-8(9)6-4-2/h8-9H,7H2,1-2H3/t8-/m0/s1
