18
gdb 53753	4.93116	0.58693	0.55246	3.8294	83.56	-0.2485	-0.0145	0.234	1988.8973	0.146322	-401.940573	-401.930494	-401.92955	-401.978359	34.86	
N	-0.0934164065	 1.2730232821	 0.4047705604	-0.520365
C	 0.0285198212	-0.0759137781	 0.2214819523	 0.261099
O	 1.0980618577	-0.6546982659	 0.2281956987	-0.335611
C	-1.2420402529	-0.7589949096	 0.0309118799	 0.059225
C	-2.2660547948	-1.3742309578	-0.1335644357	 0.046799
C	-3.4850894217	-2.1492831312	-0.3406351597	-0.388068
C	-3.2889249168	-3.643306219	-0.1261891577	 0.045383
C	-3.3983748294	-4.2292160877	 1.2553305629	-0.245771
C	-4.4706920401	-4.5073147011	 0.2289659353	-0.279866
H	 0.748933575	 1.81980417	 0.4768495867	 0.263951
H	-0.9796031851	 1.7369441449	 0.3101855905	 0.263604
H	-4.2690284323	-1.7818334859	 0.3352052533	 0.129179
H	-3.8547087599	-1.9624881346	-1.3583831079	 0.1376
H	-2.5409905192	-4.0836243775	-0.7781766047	 0.101499
H	-2.7220953422	-5.0308609652	 1.52892334	 0.119459
H	-3.6413560615	-3.5576115149	 2.0723759337	 0.114724
H	-5.4337128216	-4.0236433517	 0.3589599905	 0.110668
H	-4.5300944098	-5.4996315069	-0.2037313383	 0.11649
12.4799	54.9798	72.5031	119.6247	157.3383	163.4754	302.9715	335.9056	377.4982	429.4184	503.9966	566.5963	611.4877	716.6787	770.017	773.2243	800.1515	843.1337	890.8777	949.7097	997.1067	1059.3013	1076.488	1081.3401	1089.2078	1135.8563	1148.2723	1196.7055	1228.0573	1261.3689	1318.6916	1348.3178	1409.4718	1459.1433	1472.7509	1508.6012	1606.7763	1772.8876	2347.0783	3010.4011	3041.0017	3130.6574	3136.3365	3158.7743	3209.6586	3224.9389	3602.2457	3744.6472
NC(=O)C#CCC1CC1	NC(=O)C#CCC1CC1	
InChI=1S/C7H9NO/c8-7(9)3-1-2-6-4-5-6/h6H,2,4-5H2,(H2,8,9)	InChI=1S/C7H9NO/c8-7(9)3-1-2-6-4-5-6/h6H,2,4-5H2,(H2,8,9)
