17
gdb 38812	3.06798	1.89167	1.53358	2.7275	70.24	-0.2365	0.0311	0.2676	888.7395	0.140272	-418.006721	-418.000335	-417.999391	-418.037481	25.966	
C	 0.1045290481	 1.5452555409	-0.4663249045	-0.239002
C	 1.5106582024	 1.9428132878	-0.0488077854	-0.041063
N	 1.6808988466	 1.9631522478	 1.4136795375	-0.321578
C	 2.1758513316	 0.8070248596	 0.6432409908	-0.03746
C	 1.2225837375	-0.3824409197	 0.7102525259	-0.021337
N	 0.9327260335	-0.8039814433	 2.0901636563	-0.265709
C	-0.24261693	-0.3916760321	 2.3233169139	 0.130222
O	-0.9690017487	 0.2024577014	 1.3455328202	-0.228504
C	-0.137535888	 0.157222369	 0.1605001297	 0.074926
H	-0.6526914464	 2.2595995834	-0.1321894796	 0.126592
H	 0.0429272723	 1.4744462817	-1.5576578477	 0.102405
H	 2.0713245673	 2.644459172	-0.6587903213	 0.087188
H	 2.462697154	 2.561244906	 1.6672131466	 0.234138
H	 3.244549373	 0.6336489637	 0.5778085485	 0.089982
H	 1.6198640849	-1.2203072219	 0.1305839759	 0.081353
H	-0.7621153876	-0.4770250965	 3.2713890912	 0.136205
H	-0.6300646705	-0.5228343701	-0.5399539781	 0.091645
113.3405	208.8332	351.2281	380.8794	433.4151	574.0881	611.7387	670.7471	767.7013	802.4652	853.992	863.6405	885.5458	901.6557	913.0105	951.4208	963.6852	998.2055	1012.3799	1054.5675	1067.4357	1084.3376	1124.0611	1128.0424	1165.8893	1212.1786	1245.658	1266.3377	1280.8113	1318.2131	1328.9139	1344.9805	1369.8155	1386.2743	1429.1249	1469.4673	1697.8938	3047.95	3061.7602	3075.29	3104.3379	3155.5827	3171.8878	3214.9288	3508.6497
C1C2NC2C2N=COC12	C1[C@H]2N[C@H]2[C@H]2N=CO[C@@H]12	
InChI=1S/C6H8N2O/c1-3-5(8-3)6-4(1)9-2-7-6/h2-6,8H,1H2	InChI=1S/C6H8N2O/c1-3-5(8-3)6-4(1)9-2-7-6/h2-6,8H,1H2/t3-,4+,5-,6+/m1/s1
