19
gdb 14525	4.05805	1.4486	1.40941	1.4932	71.15	-0.2407	0.0761	0.3168	986.7967	0.1658	-365.017609	-365.009502	-365.008558	-365.05059	30.022	
C	-0.0382164695	 1.5024682147	-0.3064596371	-0.488045
C	 0.0108357444	 0.00339867	-0.1021937663	 0.31379
C	 1.1904693201	-0.7475186258	-0.6089495661	-0.277334
N	 0.9905976962	-0.5721497012	 0.841453176	-0.353122
C	-1.3166368731	-0.7189114366	-0.0526928309	 0.13618
C	-2.4214948403	-0.2395236779	 0.9190764499	-0.303501
C	-3.2841805727	-0.1218602824	-0.3517598919	-0.060399
O	-2.1555300661	-0.4262161191	-1.1992570242	-0.298889
H	 0.9685852805	 1.9124070281	-0.4331354801	 0.110993
H	-0.6223870254	 1.7424738311	-1.199278565	 0.143851
H	-0.5005060094	 2.0120694567	 0.5466478892	 0.11845
H	 1.079159315	-1.7679666545	-0.9656994036	 0.118896
H	 1.9774853221	-0.1814322975	-1.1003220048	 0.109939
H	 1.6031386223	 0.1628365302	 1.1870500854	 0.227879
H	-1.1224525305	-1.7962412483	 0.0292235972	 0.074939
H	-2.7442181489	-0.9664452687	 1.6648548245	 0.113814
H	-2.2119897684	 0.7099479635	 1.4141026051	 0.109384
H	-4.0759526923	-0.8766191581	-0.4436260497	 0.100549
H	-3.708336274	 0.8640396058	-0.5740961074	 0.102626
53.3455	85.579	207.0696	212.5347	266.558	328.7294	358.6202	452.1434	502.3583	690.7167	777.2477	824.6711	845.7002	878.0545	934.0455	950.1608	959.3487	987.0889	1007.9454	1023.2655	1047.4014	1071.5929	1098.5998	1123.6753	1156.4568	1168.2434	1213.7621	1254.3446	1264.9178	1273.8693	1321.2413	1355.5978	1364.2237	1405.399	1430.0634	1480.5606	1498.9029	1507.4544	1515.4843	1531.6768	3011.276	3019.2329	3032.9956	3056.6228	3086.408	3094.6131	3106.0403	3117.3172	3140.3568	3190.2055	3494.1678
CC1(CN1)C1CCO1	C[C@]1(CN1)[C@H]1CCO1	
InChI=1S/C6H11NO/c1-6(4-7-6)5-2-3-8-5/h5,7H,2-4H2,1H3	InChI=1S/C6H11NO/c1-6(4-7-6)5-2-3-8-5/h5,7H,2-4H2,1H3/t5-,6+/m1/s1
