21
gdb 69662	3.43092	1.37968	1.1608	0.6029	89.92	-0.2168	0.0236	0.2404	1143.9369	0.183822	-349.92085	-349.912993	-349.912049	-349.952706	32.112	
C	 0.1369100984	 1.6061432211	 0.305006238	-0.495599
C	 0.0560365104	 0.1323208405	 0.0279242274	 0.317728
C	-0.9386276795	-0.7666324268	 0.6988774891	-0.317579
C	 0.5422139157	-1.0680477619	 0.8895814798	-0.237286
C	 0.9663545544	-1.7640139994	-0.3700635166	 0.337048
C	 1.054762079	-2.8853015085	-1.07809058	-0.247701
C	 0.8264876809	-2.5412636961	-2.5540816447	-0.232738
C	 0.1013684942	-1.150257215	-2.5024895159	-0.262997
C	 0.6973772279	-0.5496155323	-1.2191337392	-0.074462
H	 1.144221946	 1.9934309716	 0.1136720105	 0.116133
H	-0.5595618413	 2.1664938655	-0.3310897576	 0.12026
H	-0.1170783177	 1.8308446123	 1.3464140436	 0.115912
H	-1.4308594522	-0.3318279562	 1.5648019978	 0.107916
H	-1.5575104245	-1.4608351328	 0.1372042421	 0.110826
H	 0.999925991	-1.0818750816	 1.8712166061	 0.0912
H	 1.1967987838	-3.8988961129	-0.7218954432	 0.089129
H	 1.7710166744	-2.4709925228	-3.1138681123	 0.100802
H	 0.2247469632	-3.3026199464	-3.0628643905	 0.099334
H	 0.2602020841	-0.5542728464	-3.4059066137	 0.088695
H	-0.9765086585	-1.3128250672	-2.3884121854	 0.09943
H	 1.6353667904	-0.0166779447	-1.4351019254	 0.073949
137.8766	195.2262	202.8348	245.9414	287.598	341.5408	467.6101	487.7805	565.5597	630.1439	653.1136	727.3907	762.5259	818.1171	870.601	875.9238	894.2461	895.0466	939.5394	956.1608	967.6041	992.6644	1030.6368	1064.9941	1074.0677	1086.1876	1098.1059	1125.3588	1159.6475	1167.0249	1207.9834	1225.9095	1255.6162	1271.6597	1303.3511	1319.1032	1334.7594	1394.0961	1421.1275	1480.3265	1484.9363	1491.4582	1494.3382	1498.4797	1732.0371	2990.2689	2997.8237	3018.3584	3038.7916	3060.5617	3076.6332	3092.4047	3093.3979	3109.7274	3182.7016	3194.7236	3196.8247
CC12CC1C1=CCCC21	C[C@]12C[C@H]1[C]1[CH]CC[C@@H]21	
InChI=1S/C9H12/c1-9-5-8(9)6-3-2-4-7(6)9/h3,7-8H,2,4-5H2,1H3	InChI=1S/C9H12/c1-9-5-8(9)6-3-2-4-7(6)9/h3,7-8H,2,4-5H2,1H3/t7-,8+,9-/m1/s1
