14
gdb 50483	4.37047	0.99497	0.90941	1.7511	72.73	-0.25	-0.0487	0.2013	1244.0376	0.099509	-436.667391	-436.659221	-436.658277	-436.701044	28.867	
O	-0.6814998488	 0.7602956429	 0.6578801008	-0.23265
C	 0.2125790225	 0.9052644617	-0.1331814558	 0.155938
C	 1.3290643109	 1.9395331271	 0.0169141186	-0.1081
C	 1.4393341211	 2.5426334841	 1.4335830437	-0.131375
O	 2.7379057165	 2.0971051653	 1.8927400893	-0.25086
C	 3.2865635668	 1.4167782817	 0.8541889742	 0.265308
N	 2.622253396	 1.2846856366	-0.2294927712	-0.336698
C	 4.5937941164	 0.9006128473	 1.0794785892	 0.27341
C	 5.696797461	 0.4693517187	 1.2788928123	-0.34826
H	 0.2993293096	 0.2857219357	-1.0492797828	 0.108029
H	 1.1536407425	 2.6988388268	-0.7583855518	 0.11625
H	 1.4291866227	 3.634601109	 1.4475907823	 0.126601
H	 0.669983761	 2.154267178	 2.1046052273	 0.150196
H	 6.672904072	 0.0847424251	 1.448138634	 0.212211
55.2458	106.3551	135.2404	158.9468	256.8296	319.9894	423.0937	526.8341	570.6557	650.8155	663.5914	676.1953	703.0778	735.1147	845.1473	929.7924	950.8603	1007.8766	1040.6476	1076.0462	1094.2395	1212.9224	1232.0693	1273.1506	1338.6591	1372.591	1406.3787	1520.9131	1673.8577	1833.1073	2253.8306	2930.2956	3008.2326	3071.6991	3126.1719	3499.0258
O=CC1COC(=N1)C#C	O=C[C@H]1COC(=N1)C#C	
InChI=1S/C6H5NO2/c1-2-6-7-5(3-8)4-9-6/h1,3,5H,4H2	InChI=1S/C6H5NO2/c1-2-6-7-5(3-8)4-9-6/h1,3,5H,4H2/t5-/m0/s1
