21
gdb 78687	3.9937	1.1787	1.08883	1.3228	83.11	-0.251	0.0765	0.3275	1210.5904	0.181241	-387.021308	-387.012741	-387.011797	-387.053713	34.38	
C	-0.208904645	 1.6236066581	-0.0035732978	-0.419574
C	-0.0583633172	 0.1101971851	 0.0234151067	-0.006665
C	 1.1564542447	-0.550949956	-0.6660397151	-0.067322
C	 2.1218075766	-0.2288014564	 0.5315977591	-0.120342
C	 0.7248817444	-0.5637298868	 1.171469294	-0.051337
C	 1.091287332	-1.8012670252	 0.2785926174	-0.081751
C	 2.5814320875	-1.7037666501	 0.637258992	 0.41777
C	 3.6240313642	-2.223909199	-0.3410536411	-0.472162
O	 2.8322157776	-2.183514012	 1.9484889686	-0.48635
H	 0.7354321417	 2.1296879877	 0.2228626515	 0.111885
H	-0.544426632	 1.9689722039	-0.9880275908	 0.112116
H	-0.950027766	 1.9576299692	 0.7313131106	 0.113823
H	-1.0149240535	-0.3780189675	-0.2055428036	 0.059317
H	 1.4206700546	-0.5566477685	-1.7250755683	 0.064433
H	 2.7071176139	 0.6815886742	 0.6733019649	 0.062272
H	 0.501919964	-0.5925519732	 2.2370305269	 0.076809
H	 0.4788602273	-2.6924987771	 0.1294773323	 0.064909
H	 3.4228296095	-1.8988651653	-1.3654124453	 0.120769
H	 4.6238124216	-1.8594350183	-0.0708883131	 0.103751
H	 3.6507076427	-3.3180180171	-0.3214473482	 0.124425
H	 3.7520596914	-1.9977663756	 2.1643154193	 0.273222
165.0017	178.0275	208.1078	235.3391	247.2754	269.0622	326.87	364.211	417.9177	536.6151	572.5787	630.7209	759.2108	778.5466	842.6998	845.6124	853.8438	871.4709	896.2215	951.2804	965.9311	1001.2227	1037.7323	1048.9647	1073.6711	1100.3265	1111.6968	1130.7168	1139.0689	1150.2289	1170.4099	1177.0029	1188.7196	1211.2849	1246.3903	1281.307	1307.7344	1383.5969	1405.4847	1409.6001	1414.5607	1490.6597	1494.2663	1495.3809	1498.4596	3016.0983	3021.2084	3026.4672	3085.7616	3087.4553	3087.6563	3092.9304	3099.6393	3102.1042	3117.6118	3127.1835	3806.3192
CC1C2C3C1C2C3(C)O	C[C@H]1[C@H]2[C@H]3[C@@H]1[C@@H]2[C@]3(C)O	
InChI=1S/C8H12O/c1-3-4-6-5(3)7(4)8(6,2)9/h3-7,9H,1-2H3	InChI=1S/C8H12O/c1-3-4-6-5(3)7(4)8(6,2)9/h3-7,9H,1-2H3/t3-,4-,5+,6-,7+,8-/m1/s1
