16
gdb 17444	3.96649	1.83644	1.76066	3.2047	63.65	-0.2334	0.0523	0.2858	818.0021	0.129479	-383.660333	-383.653402	-383.652458	-383.690975	27.784	
C	-0.1222165821	 1.4652490727	 0.0725607409	-0.501443
C	 0.1237355415	-0.0037565953	 0.0138648428	 0.42145
O	-0.8026825607	-0.8862633935	 0.7013642411	-0.317482
C	 0.618419466	-0.9882666992	 0.9713246368	-0.044738
C	 1.3080520741	-1.8162662028	-0.1433897323	-0.173751
C	 0.3741986037	-2.2331415143	-1.2524663272	 0.152175
O	-0.8918183434	-2.7815061286	-1.1422011037	-0.42764
C	 0.7713476422	-0.7795241802	-1.1744412007	-0.219332
H	 0.7873559211	 2.0169627476	-0.1859890302	 0.131527
H	-0.9047126933	 1.7553190035	-0.6378123601	 0.136984
H	-0.4394585179	 1.7586940476	 1.0764983979	 0.137478
H	 0.9245881667	-0.9022674717	 2.0072287906	 0.112182
H	 2.3166731827	-2.1970067095	-0.0386358195	 0.094905
H	 0.9153573473	-2.7414853039	-2.0485669714	 0.110415
H	-1.3231895909	-2.2913937181	-0.4284781958	 0.294409
H	 1.318557913	-0.2711134244	-1.959711139	 0.092862
163.0961	198.0084	266.6619	312.3398	356.6617	465.5991	548.2103	592.5839	627.3182	676.3825	710.8051	723.8347	776.8723	858.1182	866.1794	928.2738	948.4331	973.7166	999.3578	1012.8956	1058.124	1082.992	1108.1263	1175.8165	1192.0181	1251.738	1274.1587	1304.9229	1356.9718	1406.9589	1469.8767	1480.7488	1484.9487	1502.6628	3034.7848	3098.0557	3124.4735	3131.8745	3176.6778	3184.0672	3193.273	3735.9224
CC12OC1C1C(O)C21	C[C@]12O[C@H]1[C@H]1[C@@H](O)[C@@H]21	
InChI=1S/C6H8O2/c1-6-3-2(4(3)7)5(6)8-6/h2-5,7H,1H3	InChI=1S/C6H8O2/c1-6-3-2(4(3)7)5(6)8-6/h2-5,7H,1H3/t2-,3+,4-,5+,6-/m1/s1
