21
gdb 62925	2.65703	1.64236	1.5161	1.4854	77.11	-0.2413	0.0829	0.3242	1012.1071	0.183162	-424.206428	-424.198108	-424.197164	-424.238675	33.226	
C	-0.0765183289	 1.4914882022	 0.0106641475	-0.459202
C	-0.0199525243	-0.0398628263	 0.0046800157	 0.305423
C	-1.408096751	-0.6024237576	-0.2772023293	-0.45165
C	 1.1837739235	-0.6197487167	-0.8244043945	 0.084646
C	 2.0859546685	-0.3930301706	 0.4186941574	-0.305213
C	 0.7784231964	-0.6427215996	 1.2178469251	 0.084632
O	 0.5087051475	-2.0458871732	 1.2918785562	-0.278773
C	 1.0433516256	-2.7451271748	 0.1852940246	 0.017142
O	 0.9688004258	-2.0198094796	-1.0261809598	-0.278774
H	 0.8856569885	 1.9700435509	 0.2073191125	 0.112421
H	-0.4352111842	 1.8610379831	-0.9566398377	 0.119142
H	-0.779435207	 1.8415463169	 0.7750375338	 0.119143
H	-1.7736563189	-0.2458311978	-1.2470001997	 0.108852
H	-1.4196876109	-1.691101211	-0.291629381	 0.131047
H	-2.1179125677	-0.2651423712	 0.4868004043	 0.108848
H	 1.4416860543	-0.190677961	-1.7953104511	 0.073882
H	 2.9338922067	-1.0595308498	 0.5795021366	 0.108781
H	 2.4298282676	 0.6361565715	 0.498517531	 0.11381
H	 0.6441868094	-0.235886176	 2.2227065055	 0.073883
H	 2.0899714046	-3.0189349811	 0.3899495194	 0.093689
H	 0.4528781844	-3.6567199483	 0.0578397734	 0.118271
125.4113	183.8701	199.7868	226.7139	293.7483	332.9718	377.6839	412.2534	490.3131	505.0173	511.0203	631.8318	678.8235	828.1957	835.2456	851.143	909.443	921.6325	959.5662	968.0404	990.7461	1000.3237	1016.5994	1066.2148	1130.8231	1147.9997	1149.3582	1185.7665	1206.5421	1212.4935	1244.8665	1249.7655	1262.1534	1303.4319	1339.5878	1361.4653	1402.6818	1422.6523	1438.5038	1480.6213	1482.5623	1492.7392	1507.8351	1508.5775	1547.1267	2972.1064	3029.4772	3035.2736	3083.222	3084.7955	3085.6307	3087.1914	3090.6043	3102.9223	3115.9247	3157.7985	3159.6978
CC1(C)C2CC1OCO2	CC1(C)[C@H]2C[C@@H]1OCO2	
InChI=1S/C7H12O2/c1-7(2)5-3-6(7)9-4-8-5/h5-6H,3-4H2,1-2H3	InChI=1S/C7H12O2/c1-7(2)5-3-6(7)9-4-8-5/h5-6H,3-4H2,1-2H3/t5-,6+
