14
gdb 21807	6.47013	1.20256	1.11517	2.2026	64.33	-0.2478	-0.0391	0.2087	1027.9909	0.107825	-378.743679	-378.736488	-378.735543	-378.776951	24.866	
O	-0.2612012292	 0.4906915387	 0.8540129626	-0.223517
C	 0.0140065345	 1.1616824212	-0.1027587748	 0.149219
C	 1.4099742765	 1.7387458885	-0.3421282361	-0.24807
N	 1.4002649494	 2.8495175654	-1.2627023372	 0.057438
C	 1.3000887368	 4.1740260762	-0.9773147047	-0.034251
C	 1.2247501157	 4.8363325577	-2.1840141263	-0.225634
C	 1.2769432316	 3.8109684882	-3.1500779455	 0.001053
N	 1.3786082803	 2.6074931415	-2.5911337013	-0.267807
H	-0.7217301385	 1.4037581534	-0.9000961399	 0.109676
H	 1.8460783708	 2.0398464459	 0.6132905849	 0.150327
H	 2.0343219742	 0.9470706888	-0.7696866771	 0.167337
H	 1.3003193064	 4.5303059822	 0.0409155937	 0.136483
H	 1.1524298173	 5.9001189392	-2.3403634769	 0.110291
H	 1.2521049342	 3.898495363	-4.2263380313	 0.117455
27.8872	69.4624	110.7336	337.2603	358.4342	433.0614	632.0961	674.8469	698.5901	766.7985	798.4463	833.5251	897.4445	933.5494	985.524	1029.8363	1048.4446	1080.4792	1112.1871	1187.9695	1250.5569	1313.3653	1337.4353	1373.742	1404.3582	1427.7568	1439.925	1486.1837	1559.2295	1843.2131	2908.8683	3061.7598	3123.5918	3246.2858	3257.4346	3279.623
O=CCN1C=CC=N1	O=CCn1cccn1	
InChI=1S/C5H6N2O/c8-5-4-7-3-1-2-6-7/h1-3,5H,4H2	InChI=1S/C5H6N2O/c8-5-4-7-3-1-2-6-7/h1-3,5H,4H2
