13
gdb 132194	1.99322	1.98264	1.00012	3.8707	64.59	-0.2656	-0.0446	0.2209	1082.0973	0.088924	-494.072497	-494.064976	-494.064032	-494.105093	27.072	
C	 0.0745798577	 1.462561092	-0.0373786858	-0.473118
C	-0.0741348756	-0.017032544	 0.0182757787	 0.399582
N	-1.1272784209	-0.6593522628	-0.2454340774	-0.270897
C	-1.122491656	-2.068961407	-0.1495438473	 0.371392
N	-2.1869593282	-2.7050244908	-0.4154912748	-0.489518
N	 0.0846527001	-2.7085501029	 0.2433671736	-0.395534
C	 1.0661239791	-1.9605541321	 0.4793473414	 0.396134
F	 2.2283658741	-2.4292624643	 0.8481343461	-0.032954
O	 1.1312339938	-0.6210158557	 0.4098692187	-0.229608
H	 0.8628757837	 1.7356308306	-0.7462240477	 0.160165
H	-0.8710219674	 1.9072105316	-0.3428054394	 0.170741
H	 0.3705282553	 1.8487469589	 0.943267772	 0.160185
H	-2.0093678455	-3.7035471636	-0.2969836981	 0.233432
87.9189	134.0233	179.5748	219.9879	295.5491	381.177	535.6521	549.7191	579.9797	582.4033	642.9493	722.2606	789.4989	908.9311	927.4723	932.3853	956.9369	1063.915	1100.6395	1134.9028	1173.3797	1342.2254	1367.382	1411.0327	1467.967	1471.2682	1711.6396	1726.6715	1810.68	3051.2508	3109.9254	3177.1935	3486.4813
CC1=NC(=N)N=C(F)O1	CC1=N[C@H]([NH])N=C(F)O1	
InChI=1S/C4H4FN3O/c1-2-7-4(6)8-3(5)9-2/h6H,1H3	InChI=1S/C4H5FN3O/c1-2-7-4(6)8-3(5)9-2/h4,6H,1H3/t4-/m0/s1
