17
gdb 28339	3.19456	1.39372	0.97706	2.2473	85.61	-0.1809	-0.0226	0.1583	1182.1393	0.137013	-418.057239	-418.048944	-418.048	-418.089738	32.244	
C	 0.05325001	 1.5153146906	 0.0037973355	-0.473049
C	-0.1003437254	 0.0336638336	 0.0652168279	 0.357373
C	-1.1862605885	-0.6984584803	-0.2413525747	-0.218582
C	-1.1486375623	-2.1278139059	-0.1323060738	-0.181994
C	-0.0123548778	-2.7514873408	 0.2804722549	 0.234977
N	 0.1851823017	-4.11143612	 0.370186948	-0.58035
C	 1.1556854644	-1.9415091959	 0.6400252122	 0.361281
N	 2.2244127133	-2.483783222	 1.0771675433	-0.563795
O	 1.0477411399	-0.58228662	 0.4959318311	-0.270104
H	 0.8576579793	 1.8005277065	-0.6844165863	 0.138602
H	-0.8751884995	 1.9783259193	-0.3361145012	 0.131877
H	 0.3098528145	 1.9272396114	 0.9868916855	 0.137571
H	-2.085619664	-0.1977108969	-0.5758062904	 0.099602
H	-2.0280224117	-2.7084964348	-0.3906613917	 0.089772
H	-0.631652517	-4.6842465333	 0.5103212715	 0.247028
H	 0.9944719757	-4.3609501427	 0.922766369	 0.270006
H	 2.9331227774	-1.7829762987	 1.2887697592	 0.219785
114.4154	156.6214	170.4888	288.7062	334.8808	336.8229	388.895	424.1125	469.6527	517.9256	552.4092	575.7401	598.593	725.6644	767.6273	776.2924	823.4136	832.2166	886.258	965.5329	983.3996	1064.883	1071.8409	1109.4427	1150.705	1218.8507	1267.9894	1316.0708	1387.2596	1415.9604	1447.1937	1467.7685	1490.8174	1604.3857	1654.1093	1681.3792	1729.1457	3027.3392	3076.508	3133.2349	3180.1917	3215.1959	3504.8516	3555.4348	3681.5908
CC1=CC=C(N)C(=N)O1	CC1=CCC(=C([NH])O1)N	
InChI=1S/C6H8N2O/c1-4-2-3-5(7)6(8)9-4/h2-3,8H,7H2,1H3	InChI=1S/C6H9N2O/c1-4-2-3-5(7)6(8)9-4/h2,8H,3,7H2,1H3
