23
gdb 64040	2.36428	1.63299	1.33665	0.2782	89.68	-0.2211	0.0242	0.2453	1109.2168	0.206754	-351.168243	-351.159558	-351.158613	-351.200611	35.617	
C	 0.1045101869	 1.5229098849	-0.0208976872	-0.413258
C	-0.0200578074	-0.0099336081	-0.0188539808	 0.258897
C	-1.5074243445	-0.4058048184	 0.0854748987	-0.40976
C	 0.5662166818	-0.5729431608	-1.3424913776	-0.294389
C	 0.8435745755	-2.0543953983	-1.3059208971	-0.08782
C	 1.1561851052	-2.6940962391	-0.1771763198	-0.045117
C	 1.2502514671	-1.9982789403	 1.1282885615	-0.082338
C	 2.1889054178	-0.8027189697	 1.2550279825	-0.317598
C	 0.7037508912	-0.5866909093	 1.1968801622	-0.006603
H	 1.1543146448	 1.8323437513	-0.0497168804	 0.110507
H	-0.4017632625	 1.9573185917	-0.8905754001	 0.105963
H	-0.3478552219	 1.9565607192	 0.877987724	 0.105629
H	-2.0886172065	 0.0393218418	-0.7296958281	 0.10343
H	-1.6290521093	-1.4916857771	 0.0376213192	 0.122036
H	-1.9396977464	-0.0588678857	 1.0305574809	 0.104148
H	-0.1256423316	-0.3384246433	-2.1606037069	 0.096648
H	 1.4915749985	-0.0314654023	-1.5869709251	 0.103277
H	 0.8069349868	-2.5965363921	-2.246773405	 0.082925
H	 1.3619686519	-3.7610786821	-0.1908490811	 0.082729
H	 1.1462092746	-2.6228273552	 2.0096362439	 0.079841
H	 2.69098002	-0.6475780856	 2.2041604219	 0.107762
H	 2.7932617906	-0.5633136345	 0.386897718	 0.116087
H	 0.2393892875	-0.3098693467	 2.1406627665	 0.077003
132.0199	192.0116	224.5627	254.1485	274.3996	309.7273	331.0445	375.8256	454.5013	456.8928	526.6154	550.9939	678.2295	726.8385	779.8988	827.7852	844.8485	874.0505	896.1149	942.6019	954.2572	958.9268	981.4617	989.9228	1031.6556	1044.2362	1053.7178	1069.515	1112.7791	1131.6377	1153.1349	1194.4724	1206.4839	1217.9784	1270.052	1287.042	1334.6573	1376.3525	1395.0687	1401.2219	1422.6665	1425.2962	1472.1654	1485.0282	1486.7309	1494.3291	1502.2238	1508.9999	1710.8366	2996.4575	3021.6771	3027.9632	3043.5392	3086.4681	3092.1502	3097.9084	3111.518	3125.4458	3130.1798	3147.5144	3157.4431	3174.9143	3215.5021
CC1(C)CC=CC2CC12	CC1(C)CC=C[C@H]2C[C@@H]12	
InChI=1S/C9H14/c1-9(2)5-3-4-7-6-8(7)9/h3-4,7-8H,5-6H2,1-2H3	InChI=1S/C9H14/c1-9(2)5-3-4-7-6-8(7)9/h3-4,7-8H,5-6H2,1-2H3/t7-,8+/m0/s1
