12
gdb 131289	2.76731	1.48101	0.96471	5.7343	60.83	-0.2421	-0.0301	0.212	1094.2055	0.077264	-505.965366	-505.957794	-505.95685	-505.997757	27.229	
O	 0.0376590144	 1.2704114692	 0.0074044765	-0.384315
C	-0.0314357489	-0.0485051374	 0.0005897862	 0.508463
N	-1.0998908705	-0.7455889138	 0.0026970945	-0.288017
N	-0.6097062873	-2.058293559	-0.0071578729	-0.125738
C	-1.443420611	-3.1757217734	-0.0090081739	 0.17631
O	-2.6419174871	-3.1235008867	-0.0024625472	-0.274032
C	 0.7829178864	-2.0880904506	-0.0150365206	 0.495395
N	 1.540528563	-3.0891277135	-0.0246607769	-0.572402
O	 1.1478507181	-0.7387397471	-0.0096957687	-0.251348
H	 0.964839947	 1.5391134453	 0.0037966189	 0.331136
H	-0.8358096294	-4.0942704559	-0.0175781709	 0.137193
H	 2.5232688155	-2.8334146271	-0.028736495	 0.247356
103.8502	176.7085	194.9256	224.4475	282.8905	339.3248	400.6445	452.7987	613.4997	674.3138	687.4929	718.4283	725.8732	757.6221	888.7582	975.2416	1011.3663	1029.8269	1127.7021	1212.1665	1250.6111	1373.1874	1426.7973	1433.8878	1769.5792	1812.184	1846.7464	3028.7324	3558.9864	3816.2377
OC1=NN(C=O)C(=N)O1	OC1=NN(C=O)[C@H]([NH])O1	
InChI=1S/C3H3N3O3/c4-2-6(1-7)5-3(8)9-2/h1,4H,(H,5,8)	InChI=1S/C3H4N3O3/c4-2-6(1-7)5-3(8)9-2/h1-2,4H,(H,5,8)/t2-/m0/s1
