12
gdb 24925	5.34345	1.39933	1.11226	2.4346	63.42	-0.2075	-0.0176	0.1899	975.1734	0.08005	-468.810965	-468.804667	-468.803723	-468.841692	24.311	
N	-0.0806012563	 1.2517667589	 0.0598465576	-0.566958
C	-0.0206293558	-0.0045253334	 0.0561173289	 0.445388
N	-1.1475450289	-0.8629952405	 0.1143720596	-0.446804
C	-0.642475518	-2.1268876761	-0.135243395	 0.308099
C	 0.6961226267	-2.0801018895	-0.145230556	 0.291247
O	 1.1417227302	-0.7860265031	-0.0258268003	-0.245634
N	 1.2403234394	-3.3244381208	-0.0312319111	-0.330636
C	 0.1802781252	-4.0813357728	 0.0310783551	 0.043035
O	-1.0335781479	-3.4097408332	 0.012386449	-0.189332
H	 0.8439733621	 1.6687922646	-0.0048855662	 0.241886
H	-2.0223158466	-0.4947949676	-0.227125314	 0.285663
H	 0.1206856297	-5.1563643265	 0.0234693324	 0.164047
120.0392	247.8748	333.2483	353.302	460.8638	559.4957	601.5067	627.3849	709.7129	714.5794	733.0588	768.2682	775.3349	861.2566	891.8448	942.8125	1007.5668	1042.3213	1145.1743	1239.5512	1297.9352	1321.9794	1413.9148	1491.2322	1511.3165	1682.9747	1800.7364	3300.304	3549.3685	3632.855
N=C1NC2=C(O1)N=CO2	[NH][C@H]1Nc2c(O1)nco2	
InChI=1S/C4H3N3O2/c5-4-7-3-2(9-4)6-1-8-3/h1H,(H2,5,7)	InChI=1S/C4H4N3O2/c5-4-7-3-2(9-4)6-1-8-3/h1,4-5,7H/t4-/m0/s1
