16
gdb 45143	3.05362	1.55304	1.20483	3.8356	70.26	-0.2643	0.0185	0.2828	1021.0088	0.124396	-437.83952	-437.832309	-437.831365	-437.871451	27.977	
N	 0.2010485224	 1.1166130765	 0.3604080683	-0.540866
C	 0.0495775772	-0.0774597431	 0.0196897556	 0.452979
O	 0.9374692516	-0.9688946072	-0.5694541827	-0.270751
C	-0.0901960421	-1.9998179509	-0.6680423716	 0.104948
C	-0.0593122544	-2.9575649446	 0.5426317647	-0.341853
C	-1.0585278666	-2.0209006288	 1.2472245543	 0.449047
C	-2.1403326702	-2.353255129	 2.1749237585	-0.266495
O	-0.98188174	-1.6160008263	 2.592012272	-0.248841
C	-1.1042810471	-1.054947646	 0.0453548006	-0.278726
H	 1.1505929403	 1.4426876383	 0.1722022675	 0.231373
H	-0.1870532687	-2.3826818148	-1.6819705849	 0.101574
H	-0.4580324045	-3.9546796205	 0.3383051309	 0.118047
H	 0.9215582118	-3.0435596516	 1.0139971472	 0.13634
H	-3.0693581222	-1.7853409685	 2.1503153713	 0.124398
H	-2.2184424941	-3.3648930591	 2.5714630342	 0.120722
H	-2.0681567734	-0.7252201944	-0.336070016	 0.108105
84.4138	127.6988	259.7822	346.5968	374.2287	399.3798	452.3502	545.2279	632.1219	751.4558	812.8598	835.5529	861.7284	868.4885	874.6536	905.9509	945.4513	989.2171	993.2558	1007.6022	1057.0998	1120.732	1128.4452	1136.3787	1171.0375	1183.6635	1195.5684	1222.7779	1254.5765	1271.8095	1332.8798	1427.3493	1458.2091	1532.7571	1827.9574	3068.663	3081.0317	3130.0426	3138.0152	3147.4807	3170.3531	3478.5725
N=C1OC2CC3(CO3)C12	[NH][C]1O[C@H]2C[C@]3(CO3)[C@@H]12	
InChI=1S/C6H7NO2/c7-5-4-3(9-5)1-6(4)2-8-6/h3-4,7H,1-2H2	InChI=1S/C6H7NO2/c7-5-4-3(9-5)1-6(4)2-8-6/h3-4,7H,1-2H2/t3-,4+,6-/m0/s1
