20
gdb 98353	2.50552	0.96902	0.73554	2.1182	78.76	-0.2504	-0.0222	0.2282	1564.872	0.167106	-440.30793	-440.297109	-440.296164	-440.345679	37.132	
C	 0.6154909187	 1.4164443759	 0.0728567838	-0.383293
C	 1.1624377858	 0.1489392065	-0.5776323241	-0.275888
C	 0.1134600225	-0.6205920978	-1.3536779297	 0.357912
O	-1.0313455834	-0.2477044595	-1.4674926182	-0.309824
C	 0.5251488734	-1.9562333128	-2.0027720558	 0.013072
C	-0.0180163181	-2.085229262	-3.4230663993	-0.389931
O	 1.9497410512	-2.0702101868	-1.982517774	-0.188866
C	 2.477578885	-3.2963146591	-1.7911495405	 0.129761
N	 3.7255131712	-3.4634263578	-1.856342848	-0.44175
H	 0.202825861	 2.0946645988	-0.6783200328	 0.131975
H	-0.1895201321	 1.1827250594	 0.7745415745	 0.12863
H	 1.4071022127	 1.9402287559	 0.6152735194	 0.113541
H	 1.9907391411	 0.3642083961	-1.2644405295	 0.146303
H	 1.6038317535	-0.5323849963	 0.1620563153	 0.129328
H	 0.0905324477	-2.7425709408	-1.3658540223	 0.110071
H	 0.1624059713	-3.0897499269	-3.8154783401	 0.119729
H	-1.0908780944	-1.8849111794	-3.41916379	 0.151428
H	 0.4741898684	-1.3634625106	-4.080916481	 0.137264
H	 1.7228101268	-4.0659368912	-1.5739922084	 0.088382
H	 3.9573632478	-4.4363999616	-1.6684356391	 0.232156
29.2013	44.6792	84.0273	108.3909	158.1595	189.568	224.6283	233.5864	291.9176	336.3888	410.8175	425.2579	507.0568	620.3847	658.7832	764.3676	804.5067	818.7487	898.7532	984.7956	1008.3279	1024.1807	1041.789	1083.2549	1102.2278	1130.2526	1141.4345	1177.7148	1266.3237	1290.2493	1318.1338	1355.348	1375.0855	1399.2667	1414.5772	1421.985	1436.1227	1488.2972	1493.0019	1494.8581	1497.6548	1746.0631	1807.8698	2988.7722	3012.939	3033.7702	3051.2362	3051.9461	3059.8566	3123.6802	3123.889	3126.3919	3148.9366	3521.4885
CCC(=O)C(C)OC=N	CCC(=O)[C@@H](C)O[CH][NH]	
InChI=1S/C6H11NO2/c1-3-6(8)5(2)9-4-7/h4-5,7H,3H2,1-2H3	InChI=1S/C6H11NO2/c1-3-6(8)5(2)9-4-7/h4-5,7H,3H2,1-2H3/t5-/m1/s1
