12
gdb 133362	3.23284	1.47377	1.01229	3.9584	62.55	-0.2456	-0.0701	0.1755	1035.8594	0.077788	-510.083983	-510.076783	-510.075839	-510.115812	27.122	
N	 0.0161206888	 1.2726227592	-0.1172391563	-0.533653
C	-0.0175771411	-0.0571434008	-0.0519276919	 0.38564
N	-1.1343693105	-0.7279711793	-0.01508105	-0.389807
C	-0.98108865	-2.0724417333	 0.0502823204	 0.379174
F	-2.1185097437	-2.7381290072	 0.0869315312	-0.050727
N	 0.0700888603	-2.8149249962	 0.0829322666	-0.193664
O	 1.2842821393	-2.0765474435	 0.042442194	-0.270343
C	 1.3056645162	-0.7287957179	-0.0236497829	 0.399136
N	 2.3707607647	-0.037133696	-0.0612743452	-0.548201
H	 0.9204686165	 1.7190550978	-0.1421651581	 0.297043
H	-0.8404863994	 1.7998706258	-0.139907755	 0.282819
H	 3.205224709	-0.6234443886	-0.0354713829	 0.242583
91.131	183.5265	328.1761	329.2751	359.6879	382.007	452.8131	498.2305	534.4192	590.9053	647.0812	701.5973	718.0493	801.1248	805.7089	868.2298	929.2508	1030.167	1094.6762	1175.7623	1299.8405	1402.6268	1480.9635	1581.8504	1638.2198	1686.262	1726.7663	3495.0889	3583.0554	3728.6436
NC1=NC(F)=NOC1=N	NC1=C(ON=C([N]1)F)[NH]	
InChI=1S/C3H3FN4O/c4-3-7-1(5)2(6)9-8-3/h6H,(H2,5,7,8)	InChI=1S/C3H3FN4O/c4-3-7-1(5)2(6)9-8-3/h6H,(H2,5,7,8)
