20
gdb 14741	9.90417	0.57595	0.55368	0.7022	82.32	-0.241	0.043	0.2841	2052.5027	0.1737	-348.975027	-348.964346	-348.963402	-349.013069	35.112	
C	 0.0093416908	 1.5285193096	 0.0101539103	-0.383087
C	-0.0167566973	-0.0018466004	 0.0021535063	-0.183708
C	-1.4337464981	-0.5581851761	 0.0124900481	-0.01647
O	-1.3658364015	-1.9693037406	 0.0042257524	-0.245542
C	-2.6453266129	-2.5734518617	 0.01300836	-0.206984
C	-2.5191415049	-4.0245302978	 0.0037017371	 0.000948
C	-2.437580649	-5.2248870783	-0.0035609283	 0.134937
C	-2.3323635373	-6.6764399424	-0.0114177597	-0.498623
H	 1.0365751908	 1.9039746564	 0.002512034	 0.117565
H	-0.5012540462	 1.9416755728	-0.8668632789	 0.115912
H	-0.4846212545	 1.9321477725	 0.9010243563	 0.115911
H	 0.5009188179	-0.387779707	-0.8832581009	 0.108767
H	 0.5174461665	-0.3972461473	 0.8734582721	 0.108765
H	-1.9785121418	-0.2046843057	 0.9062405796	 0.081657
H	-1.9952025304	-0.1951103772	-0.8669781889	 0.081659
H	-3.213413695	-2.2520262588	 0.9040864737	 0.110149
H	-3.2301042442	-2.2422640173	-0.8635644193	 0.110138
H	-3.3237216977	-7.1429160575	-0.0042043548	 0.148741
H	-1.8052605709	-7.0333441976	-0.9029754944	 0.149621
H	-1.7883923844	-7.0418152456	 0.8664758454	 0.149643
19.8236	43.1635	66.5305	92.5831	137.1902	171.8933	211.6958	227.1431	290.7612	378.0067	378.4801	400.0267	545.9751	764.4908	791.3037	900.4267	915.2957	1008.2448	1030.6532	1052.5102	1054.0092	1054.0731	1135.6417	1148.9983	1181.6072	1191.649	1252.8421	1268.0649	1313.7578	1330.1768	1389.9556	1412.4079	1414.5529	1450.0603	1476.3693	1479.7297	1491.4149	1498.8572	1499.4374	1508.259	1529.472	2380.6199	2933.8997	2945.3	2954.7799	2962.7595	3027.9337	3031.1723	3041.2633	3073.2759	3089.2408	3089.515	3100.0061	3108.1778
CCCOCC#CC	CCCOCC#CC	
InChI=1S/C7H12O/c1-3-5-7-8-6-4-2/h4,6-7H2,1-2H3	InChI=1S/C7H12O/c1-3-5-7-8-6-4-2/h4,6-7H2,1-2H3
