16
gdb 24259	3.97143	1.58849	1.23697	4.0135	74.65	-0.2052	0.0277	0.2329	972.5603	0.129199	-396.936904	-396.930583	-396.929638	-396.967442	25.921	
C	-0.0580330624	 1.5123039771	-0.0014179172	-0.349317
C	 1.4380804501	 1.884080829	-0.0192740777	-0.016255
N	 2.2135578082	 1.4466109742	 1.1604320773	-0.32564
C	 2.2905715299	 0.6495916295	-0.0991839753	-0.235197
C	 1.3007242599	-0.442301802	-0.1110880074	 0.364809
C	 0.0134883404	 0.0069676218	-0.0256715624	 0.268501
N	-0.875208499	-1.0280793916	 0.0889120555	-0.340575
C	-0.1170091113	-2.1070116714	 0.062582375	-0.013841
N	 1.2212491583	-1.8107657099	-0.0456087298	-0.386487
H	-0.5495304334	 1.8995950398	 0.8972587072	 0.127384
H	-0.5781344239	 1.9341750393	-0.8699942327	 0.109086
H	 1.7442287179	 2.7962507764	-0.5205911583	 0.089111
H	 3.0460381625	 2.0310267676	 1.2292530184	 0.22619
H	 3.2212232541	 0.6220122102	-0.6557843028	 0.091489
H	-0.4696095876	-3.1272146842	 0.0979676029	 0.125763
H	 1.9753834763	-2.4758746657	-0.0673835229	 0.26498
149.1193	238.9467	350.7884	428.7234	456.7441	506.0109	602.5968	669.3641	705.735	722.8207	782.3261	792.4429	811.0144	840.817	884.4349	932.7364	965.7966	993.5613	1057.712	1085.9059	1117.6947	1135.413	1174.1141	1180.6447	1220.448	1241.8055	1291.9878	1322.9664	1361.9714	1381.0731	1414.3447	1463.1653	1476.206	1521.1903	1603.4446	3032.9212	3076.8155	3160.6828	3169.5012	3249.2925	3468.0025	3670.3303
C1C2NC2C2=C1N=CN2	C1[C@H]2N[C@H]2c2c1nc[nH]2	
InChI=1S/C6H7N3/c1-3-5(8-2-7-3)6-4(1)9-6/h2,4,6,9H,1H2,(H,7,8)	InChI=1S/C6H7N3/c1-3-5(8-2-7-3)6-4(1)9-6/h2,4,6,9H,1H2,(H,7,8)/t4-,6-/m1/s1
