19
gdb 116658	2.00692	1.04785	0.7258	3.1219	80.72	-0.2609	0.0096	0.2704	1573.783	0.156699	-419.222498	-419.211916	-419.210972	-419.25965	35.914	
C	-0.1845974439	 1.3397586756	-0.1405999869	-0.253689
O	 0.0551504336	-0.0542151016	 0.0356616051	-0.190522
C	 0.5739181468	-0.6931623815	-1.0228436687	 0.142445
N	 0.7289777203	-1.9443624905	-1.0050838023	-0.221566
C	 1.2960375349	-2.5661470468	-2.1860707667	 0.035294
C	 2.4596968433	-3.4753995321	-1.7824812586	-0.389897
C	 0.1875799786	-3.3952688269	-2.88659578	-0.325751
C	-0.8673455634	-2.5445242665	-3.4299122276	 0.26482
N	-1.6775209964	-1.8407568081	-3.8590431413	-0.318066
H	 0.7274995586	 1.8678857577	-0.4433682365	 0.127989
H	-0.9712131499	 1.5147442823	-0.8830915104	 0.142432
H	-0.5123835141	 1.7182746324	 0.8278635254	 0.149135
H	 0.8471591982	-0.0403258761	-1.866188928	 0.085382
H	 1.6599086827	-1.8188738356	-2.9122520738	 0.077234
H	 2.8984234938	-3.9661791612	-2.6571189272	 0.112468
H	 3.238901625	-2.8899189495	-1.2877386878	 0.125009
H	 2.1184902464	-4.2416748443	-1.0799302616	 0.131843
H	 0.6179170619	-3.9881216706	-3.7009381799	 0.144568
H	-0.2495822664	-4.0889893469	-2.1606797133	 0.160872
38.1994	53.9161	88.1466	134.8409	164.1356	176.0703	230.4758	245.0529	294.5087	378.7672	397.3458	427.7089	489.6157	570.5795	585.8541	861.1918	899.6354	931.2875	972.9187	998.8844	1050.8008	1088.5986	1121.5187	1145.5876	1176.7336	1185.3543	1241.0771	1284.8003	1303.649	1361.5057	1369.0751	1408.3299	1427.4695	1453.738	1485.2403	1486.9186	1493.4649	1499.8846	1501.3579	1764.6022	2360.5741	2949.6385	2999.4941	3022.0663	3040.0824	3050.3893	3087.8696	3096.4685	3115.0063	3122.6325	3149.9595
COC=NC(C)CC#N	COC=N[C@@H](C)CC#N	
InChI=1S/C6H10N2O/c1-6(3-4-7)8-5-9-2/h5-6H,3H2,1-2H3	InChI=1S/C6H10N2O/c1-6(3-4-7)8-5-9-2/h5-6H,3H2,1-2H3/t6-/m0/s1
