17
gdb 123416	4.77918	0.88684	0.85456	3.8063	73.46	-0.2932	-0.0407	0.2525	1372.0112	0.13668	-417.956822	-417.948983	-417.948039	-417.990729	28.688	
C	-0.1278872751	 1.6239776252	 0.0476509831	-0.348781
C	-0.2463461489	 0.1525260741	-0.31789665	 0.023168
C	-0.0145203597	-0.9026768525	 0.7318238015	-0.249069
C	-1.4061195869	-0.6575694288	 0.2008881827	-0.274052
C	 1.2903935138	 2.1070941338	 0.0514767827	 0.349095
N	 1.9201407209	 2.4307994067	 1.1506130498	-0.147716
O	 3.182671563	 2.799983871	 0.7732944578	-0.148838
N	 3.3433979606	 2.7064040154	-0.5788313337	-0.060532
C	 2.1981574829	 2.2846492934	-1.0352796255	-0.105214
H	-0.7139441145	 2.2305128891	-0.6541059528	 0.121359
H	-0.5464448526	 1.7935791707	 1.0441949731	 0.131301
H	 0.093755609	-0.0883427624	-1.3217819568	 0.087517
H	 0.4950358637	-1.8147266942	 0.4425637037	 0.117443
H	 0.2119613425	-0.5682837887	 1.7388416561	 0.125935
H	-2.1184460632	-0.1625464993	 0.8528890157	 0.116271
H	-1.8481736672	-1.4000955171	-0.4539167502	 0.116912
H	 2.0484364617	 2.1248672734	-2.0920276472	 0.1452
41.2001	63.8452	116.1861	281.2715	311.3477	355.1133	418.0844	649.9113	674.6704	749.6933	774.8593	809.3761	843.0188	891.043	895.9772	899.405	932.0439	960.4579	998.6801	1028.0348	1054.897	1061.2062	1083.0422	1129.5753	1142.1633	1196.8243	1202.6702	1229.0034	1260.4644	1330.1107	1412.2933	1425.3916	1464.5419	1469.6433	1479.8859	1508.3012	1613.3366	3032.614	3091.0091	3132.7736	3136.9271	3140.9405	3211.6122	3226.5774	3265.5787
C(C1CC1)C1=NON=C1	C(C1CC1)c1nonc1	
InChI=1S/C6H8N2O/c1-2-5(1)3-6-4-7-9-8-6/h4-5H,1-3H2	InChI=1S/C6H8N2O/c1-2-5(1)3-6-4-7-9-8-6/h4-5H,1-3H2
