19
gdb 79185	2.56671	1.90682	1.49744	2.3486	72.6	-0.2341	0.0625	0.2966	948.2195	0.160713	-422.989582	-422.982149	-422.981205	-423.021204	30.333	
C	-0.278973116	 1.533426608	-0.0113879344	-0.399205
C	-0.0180104052	 0.0248451199	-0.0228222354	-0.046212
C	 0.8362443692	-0.4492813586	-1.1958324343	-0.085137
C	 2.3168088679	-0.1256003316	-1.1666709914	 0.098116
O	 2.7382123812	 0.2581227684	 0.149990652	-0.326993
C	 2.1017635972	-0.9655523631	 0.669788057	 0.052714
C	 1.8517077228	-1.4881721188	-0.7544307644	-0.174258
C	 0.7617716552	-0.5073911989	 1.2462148991	 0.135982
O	 0.9382017046	 0.4294493608	 2.2853929425	-0.436248
H	 0.657376254	 2.0979593009	-0.0463448546	 0.120284
H	-0.8746808343	 1.8240241816	-0.8829522896	 0.105856
H	-0.8219828111	 1.8293754606	 0.8899098756	 0.126569
H	-0.9837977056	-0.4905361514	-0.0742195231	 0.073984
H	 0.3940078189	-0.5524044025	-2.1816316845	 0.087914
H	 2.9021699242	 0.229017668	-2.0066378604	 0.106397
H	 2.7654737042	-1.5006039228	 1.3500212451	 0.085196
H	 2.0187305911	-2.4758315349	-1.1590554056	 0.10079
H	 0.2252821186	-1.3529381267	 1.690192767	 0.084325
H	 1.5732037632	 1.0765525212	 1.9510730395	 0.289926
94.5437	225.2005	227.2434	276.5184	343.5017	464.8298	493.2476	525.346	564.3252	650.9234	731.1212	760.1021	782.1145	806.7072	826.4887	876.9349	918.7895	962.8462	982.1655	1004.1209	1008.2842	1034.5393	1050.869	1078.1104	1097.0418	1109.498	1124.5991	1146.8352	1217.5642	1254.4087	1259.9532	1275.1885	1290.8385	1322.6363	1344.0929	1362.559	1398.3014	1409.3805	1441.9369	1490.9406	1507.8086	3029.2391	3039.4624	3056.5308	3105.3569	3112.3245	3122.1405	3166.1522	3185.6065	3217.4414	3767.9785
CC1C2C3OC(C23)C1O	C[C@H]1[C@H]2[C@H]3O[C@H]([C@@H]23)[C@H]1O	
InChI=1S/C7H10O2/c1-2-3-4-6(3)9-7(4)5(2)8/h2-8H,1H3	InChI=1S/C7H10O2/c1-2-3-4-6(3)9-7(4)5(2)8/h2-8H,1H3/t2-,3+,4-,5-,6+,7+/m0/s1
