19
gdb 82187	2.69162	1.63391	1.28012	1.6445	73.58	-0.2418	0.0673	0.3092	1028.4366	0.159639	-422.992308	-422.984324	-422.98338	-423.02422	32.579	
O	 0.0869593338	 1.46907519	-0.1448597482	-0.42914
C	 0.0392512072	 0.0505605738	-0.0074875431	 0.071868
C	 0.6337912482	-0.4740231042	 1.3123709899	-0.071083
C	 0.1441338098	 0.1327327417	 2.6056034033	-0.306225
C	-0.4710703769	-1.1450165341	 2.0957077507	-0.106106
C	-1.7387255285	-1.1122350447	 1.245570503	 0.391728
O	-2.4964916974	-2.2850656315	 1.2240291607	-0.474776
C	-2.3998074436	 0.2046205522	 0.9330578869	-0.355844
C	-1.4171006791	-0.4149093773	-0.0458687533	-0.076626
H	 0.9983858438	 1.7444630713	-0.0021218068	 0.280159
H	 0.5793369449	-0.4203484405	-0.8423050412	 0.0676
H	 1.6368866569	-0.886663358	 1.2832759463	 0.080835
H	 0.8033654528	 0.0546338238	 3.4642874444	 0.106914
H	-0.417542763	 1.0579355294	 2.568756016	 0.124768
H	-0.3034228853	-2.0685019234	 2.6380701033	 0.087096
H	-3.0874309548	-2.2694241737	 1.9846670784	 0.282379
H	-3.4423233713	 0.1474619438	 0.637256366	 0.108931
H	-2.1301925396	 1.111410709	 1.458711745	 0.124296
H	-1.8163788179	-0.7824870976	-0.9835531314	 0.093228
132.2592	181.6277	260.661	284.074	309.5345	331.364	400.8625	448.6193	491.3218	548.5272	595.8232	691.7847	700.1422	797.3454	807.7107	837.7352	906.1719	929.9089	946.3961	961.5852	997.1896	1022.9723	1023.8587	1043.3523	1064.681	1082.9593	1097.251	1108.8064	1128.0814	1197.7157	1207.4136	1242.3422	1254.5187	1320.1658	1339.6843	1352.5456	1373.6613	1406.7356	1413.0322	1482.7432	1503.0159	2985.5619	3135.2865	3141.3981	3157.1408	3177.4065	3182.5647	3222.5808	3233.8767	3797.661	3813.5691
OC1C2CC2C2(O)CC12	O[C@H]1[C@H]2C[C@H]2[C@@]2(O)C[C@@H]12	
InChI=1S/C7H10O2/c8-6-3-1-4(3)7(9)2-5(6)7/h3-6,8-9H,1-2H2	InChI=1S/C7H10O2/c8-6-3-1-4(3)7(9)2-5(6)7/h3-6,8-9H,1-2H2/t3-,4+,5-,6-,7-/m0/s1
