17
gdb 80121	2.64512	1.53862	1.26179	1.4277	75.34	-0.2355	-0.0316	0.2038	1040.4554	0.136365	-418.020115	-418.011971	-418.011027	-418.052822	30.466	
C	-0.0833119841	 1.5516926499	-0.0807881866	-0.411769
C	 0.0750280896	 0.0499019323	-0.0236397662	-0.086195
C	 1.3781852317	-0.6687221046	-0.2210272163	-0.068106
N	 2.6130483517	 0.0122346396	-0.011858805	-0.226689
C	 2.6525296039	 0.3980206143	 1.2145659727	 0.031382
N	 1.5525002125	 0.1112751789	 1.9976499122	-0.337842
C	 0.6422261416	-0.6524139587	 1.1973083406	 0.238348
C	-0.0064418852	-1.7967821636	 1.8388121039	 0.074769
O	 0.18839755	-2.1137923629	 2.9924331639	-0.292589
H	 0.8096621093	 2.0701867645	 0.2716764436	 0.140927
H	-0.2687548651	 1.8685362842	-1.1117656978	 0.127887
H	-0.9289530229	 1.87579203	 0.5337549334	 0.124586
H	-0.7602361367	-0.503063221	-0.4503568909	 0.098018
H	 1.4073132263	-1.5408821766	-0.8660599702	 0.10809
H	 3.4815535263	 0.9544135578	 1.6389674489	 0.135181
H	 1.6524765635	-0.1818559035	 2.9612430991	 0.263953
H	-0.7048685324	-2.3624124206	 1.1851784946	 0.080048
110.6097	112.3636	198.0852	222.1026	241.0715	280.8033	416.957	479.3582	531.9549	561.1879	588.3148	700.0183	718.0631	804.4618	883.1392	919.0437	927.3352	964.8787	1006.266	1037.1675	1054.9118	1097.3408	1119.0825	1142.9121	1160.4466	1237.9359	1291.4124	1338.3297	1361.1902	1388.89	1413.6643	1422.8703	1458.5699	1488.4286	1496.853	1637.7268	1781.9543	2900.3574	3045.8459	3106.9163	3120.1581	3140.7051	3164.0656	3202.6627	3581.0385
CC1C2N=CNC12C=O	C[C@H]1[C@H]2N=CN[C@@]12C=O	
InChI=1S/C6H8N2O/c1-4-5-6(4,2-9)8-3-7-5/h2-5H,1H3,(H,7,8)	InChI=1S/C6H8N2O/c1-4-5-6(4,2-9)8-3-7-5/h2-5H,1H3,(H,7,8)/t4-,5+,6-/m0/s1
