17
gdb 49924	5.04384	0.87316	0.79747	2.269	81.66	-0.2457	-0.0339	0.2119	1394.8031	0.134601	-384.673271	-384.664595	-384.663651	-384.707593	31.711	
O	-0.939606689	 0.556934115	 0.103013591	-0.24798
C	-0.294713277	 1.5568390772	-0.0702063103	 0.162687
C	 1.2124045234	 1.6674906884	 0.1108243624	-0.119076
C	 1.8865496951	 2.4194540476	-1.0715329959	-0.262893
C	 2.1337775829	 3.8829571661	-0.5770636014	-0.195829
C	 1.9894570001	 3.7520109721	 0.9313119613	-0.060001
C	 1.5130815314	 2.5650095704	 1.2952458317	-0.098029
C	 3.4149021456	 4.436947032	-1.0027835056	 0.313251
C	 4.474471785	 4.8869142919	-1.3490532961	-0.460835
H	-0.7815575091	 2.5149018895	-0.3724578955	 0.072909
H	 1.5951579731	 0.6508642943	 0.2422772423	 0.09971
H	 2.8450230273	 1.9475930981	-1.2954726735	 0.132316
H	 1.2893457507	 2.3966877661	-1.9871461986	 0.116278
H	 1.3414848338	 4.5454859916	-0.9554868795	 0.116741
H	 2.2519207133	 4.5638829498	 1.5988815492	 0.116159
H	 1.3023990042	 2.2566556001	 2.312748469	 0.115481
H	 5.409306909	 5.2861211599	-1.6561686705	 0.199113
45.24	64.2666	139.615	171.5451	274.9911	302.3193	409.9935	434.3148	519.0134	540.5877	621.8121	641.9644	662.1361	767.8419	791.8853	851.418	895.2945	934.1649	954.3816	981.0745	1040.3559	1043.5623	1074.7571	1088.1005	1136.0209	1203.9563	1254.8801	1267.3574	1286.0529	1305.8442	1329.4789	1370.2876	1422.5239	1487.6471	1682.4861	1833.5786	2236.0792	2847.5671	2991.9707	3064.7844	3071.9238	3120.4973	3194.971	3220.3137	3504.1488
O=CC1CC(C=C1)C#C	O=C[C@H]1C[C@@H](C=C1)C#C	
InChI=1S/C8H8O/c1-2-7-3-4-8(5-7)6-9/h1,3-4,6-8H,5H2	InChI=1S/C8H8O/c1-2-7-3-4-8(5-7)6-9/h1,3-4,6-8H,5H2/t7-,8-/m1/s1
