19
gdb 68249	2.81192	1.83198	1.43874	2.7791	73.64	-0.2423	0.0698	0.3121	952.6527	0.161617	-422.989929	-422.982997	-422.982053	-423.020773	29.259	
O	-0.0964797038	 1.3718797975	 0.1082564814	-0.488602
C	 0.0558791429	-0.0081688197	 0.0832929128	 0.400928
C	 0.8839590481	-0.7884542818	-1.0021170234	-0.291598
C	 0.7681042261	-1.9356457204	 0.0498131	-0.053511
C	 0.8595414192	-0.8221178802	 1.1356899557	-0.304125
C	-0.7423080462	-2.2330470449	-0.0570335937	-0.055285
C	-1.5752971031	-2.4377936313	 1.2226228858	-0.110893
O	-1.9392610585	-1.0377195841	 1.2657983587	-0.301597
C	-1.2717429857	-0.7779467346	 0.0092219659	 0.106499
H	 0.7697850584	 1.7749099466	 0.224318538	 0.279951
H	 0.4384659484	-0.9431330271	-1.9898279178	 0.094924
H	 1.9003095318	-0.3982766024	-1.1009158763	 0.091755
H	 1.4574125963	-2.7785610562	 0.0508000262	 0.068311
H	 1.8832049053	-0.4524314243	 1.2407683916	 0.086757
H	 0.407017791	-0.9771164989	 2.115430962	 0.117249
H	-0.999436348	-2.8570495834	-0.9136271106	 0.078408
H	-2.4590522585	-3.0742059978	 1.0900553788	 0.10082
H	-1.0371987084	-2.757870564	 2.1232779372	 0.100512
H	-1.9553980553	-0.3813963829	-0.7469602022	 0.079498
191.4485	261.0367	286.5668	307.1242	382.2817	438.3566	487.5164	564.0151	573.1769	667.1245	801.8841	809.7367	854.1298	864.5796	886.2134	923.9898	939.7823	971.8294	994.21	1014.4011	1022.4875	1037.4165	1061.7618	1087.2259	1100.1973	1132.4265	1153.2222	1167.1363	1179.5236	1219.8255	1226.1201	1234.5571	1279.2303	1295.3317	1330.4972	1351.4539	1357.3577	1402.0893	1483.0615	1520.27	1526.8349	3013.6015	3048.9079	3055.4241	3067.4016	3071.0881	3103.9076	3112.3921	3127.0157	3137.5232	3816.841
OC12CC(C1)C1COC21	O[C@@]12C[C@@H](C1)[C@H]1CO[C@@H]21	
InChI=1S/C7H10O2/c8-7-1-4(2-7)5-3-9-6(5)7/h4-6,8H,1-3H2	InChI=1S/C7H10O2/c8-7-1-4(2-7)5-3-9-6(5)7/h4-6,8H,1-3H2/t4-,5-,6-,7-/m1/s1
