13
gdb 20513	4.9866	1.62587	1.23541	0.525	62.39	-0.2677	-0.0745	0.1933	909.7713	0.095072	-398.615411	-398.608347	-398.607403	-398.647287	24.816	
C	-0.0237668206	 1.4889910804	-0.0810652131	-0.488523
C	-0.0256380147	-0.0179120555	 0.0356952863	 0.297934
O	-0.0438311371	-0.6084325473	 1.0942520068	-0.293502
C	-0.0029987634	-0.7967084959	-1.2269504752	 0.334178
C	 0.0014325127	-2.1418657684	-1.4538847391	-0.304035
C	 0.026452334	-2.2353716407	-2.8660084563	 0.030496
N	 0.0362959416	-1.0530525173	-3.4404931182	-0.124105
O	 0.0176853259	-0.1372342001	-2.4038687346	-0.205298
H	 0.8631820865	 1.8280306989	-0.6266516202	 0.155648
H	-0.8925158703	 1.827743162	-0.655392891	 0.155643
H	-0.0402814278	 1.9258145396	 0.9174272064	 0.1468
H	-0.011415045	-2.925085941	-0.7158008423	 0.150042
H	 0.0377384884	-3.1181172547	-3.4892287195	 0.144723
78.3625	123.5855	182.0316	186.8392	373.8287	481.4472	544.2205	629.4882	648.9767	703.6271	851.9883	929.5703	931.8183	944.1444	954.2114	1003.0942	1041.8494	1045.2274	1136.5767	1231.9428	1276.437	1364.7298	1389.5836	1458.4979	1468.9863	1486.2835	1615.8464	1787.1109	3045.0055	3106.6552	3161.824	3250.8383	3297.0324
CC(=O)C1=CC=NO1	CC(=O)c1ccno1	
InChI=1S/C5H5NO2/c1-4(7)5-2-3-6-8-5/h2-3H,1H3	InChI=1S/C5H5NO2/c1-4(7)5-2-3-6-8-5/h2-3H,1H3
