18
gdb 51899	5.56072	0.71876	0.6595	5.6009	76.42	-0.238	-0.0132	0.2248	1663.3627	0.14678	-439.113385	-439.104404	-439.103459	-439.149365	31.237	
O	 1.0704925224	-0.2101634405	 0.2500147409	-0.248406
C	 0.7202387944	 0.7314175828	-0.4122989595	 0.151246
C	 0.7026319425	 2.1656995646	 0.0908418595	-0.237387
N	 0.5361077649	 3.0831301986	-1.0202616321	-0.356861
C	 0.8103197175	 4.3013379039	-0.8480698409	 0.455151
C	 0.6962543754	 5.3966749296	-1.8852356968	-0.317363
C	 1.6056126622	 6.4955738964	-1.3163884603	-0.231851
C	 1.4899891659	 6.2432856428	 0.1926476316	-0.077655
O	 1.2662249977	 4.8282965603	 0.3286345025	-0.246221
H	 0.3641077276	 0.6222304608	-1.461225074	 0.085731
H	-0.1414673557	 2.2458794346	 0.7948400379	 0.136426
H	 1.6068822347	 2.34748418	 0.6867810814	 0.135322
H	 0.9765527251	 5.0349374036	-2.8743273144	 0.139055
H	-0.3463533032	 5.7325489272	-1.9367634694	 0.132491
H	 2.6383953156	 6.3458144214	-1.6452953731	 0.122964
H	 1.3029875476	 7.5067423581	-1.5944871949	 0.116333
H	 2.3898818092	 6.4951610617	 0.7578454089	 0.125322
H	 0.6381400361	 6.7765179941	 0.6329416127	 0.115703
19.0033	61.902	112.9511	123.1379	204.6432	240.3808	316.105	392.8429	554.0713	590.6539	639.6131	696.363	721.6234	823.2704	884.8031	895.2878	935.4018	1002.3772	1041.0423	1058.8437	1073.5195	1085.637	1099.6151	1193.1326	1200.0661	1212.3019	1228.8028	1257.2028	1313.1268	1325.4568	1341.3577	1399.7031	1401.8311	1433.7664	1474.2177	1497.1743	1524.5031	1796.6113	1840.5407	2889.9094	2985.0879	3029.6231	3038.9811	3045.3229	3063.1134	3105.8581	3121.7508	3136.3928
O=CCN=C1CCCO1	O=CCN=C1CCCO1	
InChI=1S/C6H9NO2/c8-4-3-7-6-2-1-5-9-6/h4H,1-3,5H2	InChI=1S/C6H9NO2/c8-4-3-7-6-2-1-5-9-6/h4H,1-3,5H2
