17
gdb 47397	2.82947	1.59998	1.23175	2.7439	69.23	-0.2289	0.0158	0.2447	1026.4767	0.137593	-455.125593	-455.117811	-455.116866	-455.158456	28.864	
N	 0.0880593465	 1.274317044	-0.215139989	-0.522564
C	 0.0619964519	 0.0306595335	-0.0235487446	 0.334937
O	 1.1423277055	-0.7706879961	 0.2229314924	-0.246373
C	 0.6695735032	-2.096400816	 0.4435879078	 0.004103
O	-0.6301955877	-2.1603185051	-0.0807713039	-0.284759
C	-1.1674116755	-0.8487478759	-0.0330679741	 0.307761
C	-2.2543125785	-0.5624594294	 1.0505127073	-0.215588
N	-3.1416886748	-0.0262611684	-0.0064421426	-0.302769
C	-2.2675923254	-0.5629659585	-1.0773867538	-0.217354
H	 1.0386690277	 1.639320714	-0.1464547671	 0.228604
H	 1.312347182	-2.8029973995	-0.0889126151	 0.130986
H	 0.6862054814	-2.303180786	 1.5252067559	 0.108178
H	-2.5813989017	-1.5022978263	 1.5137445161	 0.101262
H	-1.9988003479	 0.1641574787	 1.828075734	 0.117396
H	-4.0811548531	-0.4046487239	 0.0004528632	 0.222234
H	-2.011199632	 0.1667042057	-1.8504187222	 0.12792
H	-2.6039977216	-1.4984279908	-1.5413231244	 0.106026
76.5903	96.5546	167.1109	214.6527	280.7985	386.6889	445.1487	512.5485	664.0701	680.6934	711.3607	755.4996	852.8334	885.6672	923.832	932.4383	995.7244	1001.0845	1022.0256	1038.5164	1067.4833	1121.6615	1123.3673	1164.3883	1172.3385	1209.4664	1213.8035	1236.1033	1276.2022	1337.6147	1358.2316	1378.404	1444.1738	1486.5186	1510.3188	1547.7747	1795.5616	2980.9292	3013.2334	3025.1295	3077.4	3088.8802	3091.8635	3486.7596	3544.8025
N=C1OCOC11CNC1	[NH][C]1OCOC21CNC2	
InChI=1S/C5H8N2O2/c6-4-5(1-7-2-5)9-3-8-4/h6-7H,1-3H2	InChI=1S/C5H8N2O2/c6-4-5(1-7-2-5)9-3-8-4/h6-7H,1-3H2
