15
gdb 33579	2.17776	1.60859	1.20316	5.5677	69.72	-0.3031	-0.0284	0.2747	1059.2015	0.113023	-416.824931	-416.816712	-416.815768	-416.858417	29.41	
N	 0.1902427287	-1.1287131544	 0.1863648057	-0.321866
C	 0.0810221732	 0.0160212589	 0.0817178108	 0.291539
C	-0.0441747772	 1.4931167665	 0.0106373604	 0.11057
C	-0.7159058091	 2.0474339401	 1.3025482866	-0.266459
C	 0.5062331698	 2.3004887897	 2.1918752423	-0.245792
C	 1.5387109796	 2.7807992688	 1.1724005004	-0.074458
O	 1.2514065246	 2.0684654061	-0.0480954923	-0.277146
C	-0.8030814864	 1.8603876447	-1.2015367715	 0.283929
N	-1.4152583747	 2.1729520073	-2.128919496	-0.319209
H	-1.2257363191	 2.9814211721	 1.0536062864	 0.144408
H	-1.4439419969	 1.3493669055	 1.7157937046	 0.150565
H	 0.3096629941	 3.037262538	 2.9730335468	 0.128076
H	 0.834620953	 1.371416035	 2.6668144196	 0.139695
H	 1.4511747076	 3.8579042633	 0.9823841343	 0.121454
H	 2.5709044627	 2.5548557185	 1.4494725518	 0.134695
51.4525	128.623	154.9706	181.9527	236.663	284.7393	472.2909	506.5331	509.5149	586.7822	588.4428	613.7803	736.7639	875.7369	889.5961	932.5166	959.2832	983.1041	1028.7734	1067.2524	1107.6442	1173.3213	1210.2249	1214.3476	1265.6428	1322.1625	1346.887	1386.517	1484.2861	1494.0936	1526.6474	2361.5998	2369.2129	3029.7919	3068.3755	3080.7222	3106.5254	3127.3324	3147.4552
N#CC1(CCCO1)C#N	N#CC1(CCCO1)C#N	
InChI=1S/C6H6N2O/c7-4-6(5-8)2-1-3-9-6/h1-3H2	InChI=1S/C6H6N2O/c7-4-6(5-8)2-1-3-9-6/h1-3H2
