12
gdb 130901	2.31111	1.61656	0.95121	2.8793	71.71	-0.2631	-0.0707	0.1924	1113.3631	0.07807	-431.642723	-431.635257	-431.634313	-431.675105	26.737	
O	-0.0416659081	-0.0340256904	-0.001326001	-0.248295
C	 0.0147842645	 1.1707204992	 0.0072226513	 0.066735
C	 1.2622758338	 1.9542774714	-0.0005573381	 0.104572
N	 2.4839555962	 1.4053776157	-0.0183287608	-0.214201
N	 3.2809059962	 2.4514325993	-0.0190216989	-0.078895
N	 2.7211628471	 3.6539858383	-0.0035536688	-0.275254
C	 1.4103685263	 3.3682424253	 0.008676009	 0.171059
C	 0.4068277693	 4.3631363595	 0.0274731733	 0.278301
C	-0.4698267304	 5.1864483974	 0.043608855	-0.414726
H	-0.8978741811	 1.8021007685	 0.0221494879	 0.093818
H	 4.2848184834	 2.3468242725	-0.0309078836	 0.307621
H	-1.2385957772	 5.9196362731	 0.0580860048	 0.209265
120.9425	126.2212	172.2802	228.2606	275.5641	424.8325	484.415	582.7189	608.8787	610.7102	624.6857	682.0425	727.3082	777.4551	826.2855	1002.7035	1040.7834	1146.9615	1208.432	1269.1759	1332.35	1421.7667	1437.2961	1486.1916	1531.8004	1809.6728	2245.1028	2919.7321	3499.3219	3644.7121
O=CC1=NNN=C1C#C	O=Cc1n[nH]nc1C#C	
InChI=1S/C5H3N3O/c1-2-4-5(3-9)7-8-6-4/h1,3H,(H,6,7,8)	InChI=1S/C5H3N3O/c1-2-4-5(3-9)7-8-6-4/h1,3H,(H,6,7,8)
