18
gdb 110753	2.43094	1.40985	1.1832	4.4514	73.45	-0.2384	0.0109	0.2493	1141.2358	0.146135	-439.067361	-439.058278	-439.057334	-439.101319	32.868	
C	 0.124307126	 1.0783670765	 0.3192661881	-0.239624
O	-0.4700558004	-0.0279042414	-0.3349684765	-0.231564
C	 0.3194364611	-0.5430073869	-1.3509298725	 0.084266
C	 1.4160833668	-1.5414544334	-1.0920949045	-0.112411
N	 1.08540021	-2.4305133033	 0.0235697144	-0.341694
C	-0.1485090352	-2.793925379	-0.5532356894	 0.390433
O	-1.0317250801	-3.5029584086	-0.1688525719	-0.336553
C	 0.1227151589	-1.9707518133	-1.8143529264	 0.079553
C	-0.1753900362	-2.3859100432	-3.2247828477	-0.497507
H	 1.0837889262	 0.8078606014	 0.7834078032	 0.108377
H	 0.3000296719	 1.9117585733	-0.3770150285	 0.112463
H	-0.5725749567	 1.4031601383	 1.0943135978	 0.137977
H	 0.5221492188	 0.1607527984	-2.1643823382	 0.091436
H	 2.4251903167	-1.4922801797	-1.4819231074	 0.109988
H	 1.1437324914	-2.1357130907	 0.9923510015	 0.242407
H	-1.2574552912	-2.4373011637	-3.3842523725	 0.145972
H	 0.2370784459	-1.6748354102	-3.9468454313	 0.121462
H	 0.2416724863	-3.3738926044	-3.4432511682	 0.13502
82.3217	121.7811	151.0146	168.3485	201.6358	238.0018	257.9937	306.1871	445.001	495.0619	575.1116	664.6969	679.0961	757.2667	772.5294	822.4193	903.1099	938.6272	964.2785	1018.7288	1065.2779	1079.8537	1102.1654	1138.9345	1165.0976	1181.7886	1229.3126	1252.8391	1276.0747	1327.2526	1343.1031	1416.3658	1442.1255	1485.1884	1485.3828	1488.7652	1495.9983	1508.3723	1904.4411	2985.1246	3035.9736	3036.5163	3060.6735	3103.539	3108.2937	3128.8223	3194.2798	3541.124
COC1C2NC(=O)C12C	CO[C@H]1[C@H]2NC(=O)[C@@]12C	
InChI=1S/C6H9NO2/c1-6-3(4(6)9-2)7-5(6)8/h3-4H,1-2H3,(H,7,8)	InChI=1S/C6H9NO2/c1-6-3(4(6)9-2)7-5(6)8/h3-4H,1-2H3,(H,7,8)/t3-,4+,6-/m1/s1
