21
gdb 93798	2.34397	1.46617	1.07593	2.9353	80.41	-0.2261	0.0233	0.2493	1211.4834	0.183853	-420.422376	-420.413229	-420.412285	-420.456269	34.787	
C	-0.0907542526	 1.5372900702	 0.0925449394	-0.398253
C	-0.0487312523	 0.0275456114	-0.0729115548	 0.125854
C	 0.742819881	-0.4424991751	-1.289934318	-0.184624
N	 0.9095795516	-1.892693819	-1.3212640138	-0.300697
C	 1.5174835992	-2.4078990797	-0.0857005897	-0.050992
C	 3.0449743494	-2.2212877526	-0.10717663	-0.378239
C	 0.9446289521	-1.8032264283	 1.1913808259	 0.366906
N	 0.962991069	-2.4551659151	 2.2765503639	-0.506579
O	 0.5175598414	-0.5054661035	 1.1461302203	-0.267364
H	 0.9224855684	 1.9435218612	 0.169413543	 0.127449
H	-0.5879590393	 1.9998060726	-0.7655373028	 0.119832
H	-0.6385222208	 1.8084249486	 0.9986279454	 0.131071
H	-1.0754175411	-0.364527568	-0.1512733093	 0.075892
H	 0.2333326801	-0.1203124504	-2.204357504	 0.107472
H	 1.7316824514	 0.031616247	-1.2880120832	 0.1151
H	-0.000300585	-2.3260359624	-1.448442287	 0.218985
H	 1.3121591365	-3.4795210505	-0.0369207772	 0.10627
H	 3.3261306308	-1.1642082108	-0.0783952317	 0.11654
H	 3.4898108335	-2.7097440975	 0.7624372595	 0.139054
H	 3.4509434168	-2.660780086	-1.021774948	 0.122706
H	 0.5838088897	-1.8824416721	 3.0345984221	 0.213617
62.512	102.145	216.0754	217.7976	239.5032	266.6949	275.8528	371.7708	440.7073	444.5864	494.3942	527.3435	650.01	698.613	769.2299	796.4599	860.2326	889.5051	919.8713	941.8259	960.5154	1020.4269	1064.2379	1067.6173	1109.7669	1143.8256	1158.0923	1173.6698	1180.7424	1268.8173	1312.0121	1324.2969	1337.9433	1373.8538	1390.7305	1398.7602	1405.8021	1410.4596	1474.7616	1484.158	1488.3064	1491.5797	1500.9242	1504.873	1741.826	2975.3199	3035.3867	3043.8963	3048.8271	3082.624	3087.5454	3117.0986	3120.9924	3124.6059	3138.0765	3450.2295	3504.327
CC1CNC(C)C(=N)O1	C[C@H]1CN[C@@H](C)[C]([NH])O1	
InChI=1S/C6H12N2O/c1-4-3-8-5(2)6(7)9-4/h4-5,7-8H,3H2,1-2H3	InChI=1S/C6H12N2O/c1-4-3-8-5(2)6(7)9-4/h4-5,7-8H,3H2,1-2H3/t4-,5-/m0/s1
