19
gdb 37131	3.22018	1.65893	1.60878	1.9826	76.91	-0.2428	0.0865	0.3293	939.0659	0.1617	-385.840924	-385.834184	-385.833239	-385.871602	28.557	
C	 0.0326286591	 1.4424288339	 0.0928091969	-0.287894
C	 1.3581480289	 0.7263804899	 0.0625834073	-0.138499
C	 0.028236863	-0.0642719462	 0.0710113597	-0.138499
C	 0.349818992	-0.5521924699	-1.3286351679	 0.313736
C	-0.3000500985	-0.4806695397	-2.6873425486	-0.307015
C	 0.8756156819	-0.0149317396	-3.6054388878	-0.20326
C	 1.8549331158	 0.8004986888	-2.7009980465	-0.307015
C	 1.620067219	 0.2029891278	-1.3366849139	 0.313737
O	 1.6136292096	-1.2319396859	-1.319646457	-0.310115
H	-0.2308933509	 1.895823312	 1.044141677	 0.116864
H	-0.3100570627	 2.0096535028	-0.769003278	 0.109753
H	 2.080866779	 0.809522356	 0.864953209	 0.094677
H	-0.382500683	-0.6549874514	 0.8805680327	 0.094677
H	-0.7381287509	-1.4229380833	-3.0303980679	 0.108904
H	-1.1039000069	 0.2647207838	-2.6616180718	 0.105445
H	 1.3945975868	-0.8920543779	-3.9967862448	 0.122968
H	 0.5238916602	 0.5675618491	-4.4612254481	 0.097187
H	 2.8887518104	 0.7332930783	-3.0533790608	 0.108904
H	 1.5843260173	 1.8629090014	-2.6786532896	 0.105445
181.1493	224.097	247.7559	391.5973	432.4847	514.8299	563.7341	611.7935	664.9445	718.9116	735.0494	791.5306	857.6862	865.0633	874.5064	899.1586	916.4204	926.8056	972.788	981.1955	995.2018	1059.6523	1065.8114	1078.1252	1100.84	1164.7382	1165.2493	1179.0561	1206.8429	1224.2883	1249.9457	1287.6474	1314.6807	1333.1184	1345.6636	1353.9451	1406.0845	1481.1737	1487.3692	1491.8117	1501.899	3039.1542	3040.3247	3069.749	3081.6808	3082.6836	3109.9636	3120.7262	3183.1236	3186.4341	3199.4491
C1C2C1C13CCCC21O3	C1[C@H]2[C@@H]1[C@@]13CCC[C@@]21O3	
InChI=1S/C8H10O/c1-2-7-5-4-6(5)8(7,3-1)9-7/h5-6H,1-4H2	InChI=1S/C8H10O/c1-2-7-5-4-6(5)8(7,3-1)9-7/h5-6H,1-4H2/t5-,6+,7+,8-
