19
gdb 69489	3.01856	1.42958	1.33417	1.9227	74.5	-0.2255	0.0753	0.3009	1055.4622	0.158105	-422.990753	-422.982608	-422.981664	-423.022736	33.023	
C	-0.0538367886	 1.4916307978	-0.0128982925	-0.460175
C	 0.0292958032	-0.0075046293	 0.0445911635	 0.440693
C	-0.7977331898	-0.834060498	 0.9970212338	-0.363539
C	 0.7185098529	-0.8332270622	 1.1028886794	-0.188137
C	 1.5488267285	-1.864439792	 0.3564418649	 0.366482
O	 2.8585815778	-2.0566784706	 0.7934569362	-0.469434
C	 0.8548005191	-2.9353604503	-0.4603854542	-0.393131
C	 1.2600829861	-1.6142777666	-1.0927160122	 0.04761
O	 0.3089998717	-0.5902257213	-1.221531314	-0.297902
H	 0.8858655775	 1.9202369854	-0.3753222693	 0.125583
H	-0.855384091	 1.8074067546	-0.6890816698	 0.129028
H	-0.2659207408	 1.9027081181	 0.978145059	 0.116101
H	-1.3362802763	-0.2974981313	 1.7720298909	 0.110126
H	-1.3149609034	-1.7110838648	 0.626789151	 0.116732
H	 1.1973654775	-0.3840320963	 1.9648884378	 0.094389
H	 2.8431154385	-2.7226126412	 1.4896451159	 0.284806
H	 1.4755588482	-3.7819400094	-0.7370607453	 0.114575
H	-0.1916669883	-3.1673098412	-0.3036745843	 0.117816
H	 2.0242062072	-1.6035872213	-1.8622557009	 0.108378
143.6097	200.8224	206.7755	294.1242	301.2369	365.2708	371.2831	386.5021	477.7754	491.1353	594.3692	629.3377	706.0337	772.7791	813.0745	843.8277	884.9101	903.3736	942.0671	948.5753	978.2068	1004.0798	1011.7848	1034.5851	1051.2403	1085.3238	1095.7938	1128.8196	1151.7602	1201.4019	1226.1273	1263.8336	1297.4768	1342.4348	1375.8987	1405.208	1419.8825	1476.2993	1477.5649	1487.0609	1500.5545	3035.3518	3101.237	3115.3657	3128.4384	3134.7629	3172.6912	3182.4749	3217.1336	3226.1663	3794.2845
CC12CC1C1(O)CC1O2	C[C@]12C[C@H]1[C@@]1(O)C[C@H]1O2	
InChI=1S/C7H10O2/c1-6-2-4(6)7(8)3-5(7)9-6/h4-5,8H,2-3H2,1H3	InChI=1S/C7H10O2/c1-6-2-4(6)7(8)3-5(7)9-6/h4-5,8H,2-3H2,1H3/t4-,5-,6+,7+/m1/s1
