18
gdb 97085	3.89567	0.92121	0.86681	2.0103	76.27	-0.2538	-0.0334	0.2204	1380.9561	0.146512	-439.109368	-439.100099	-439.099154	-439.145023	31.933	
C	-0.564146195	 1.1876526052	 0.5125435518	-0.334761
N	-0.1472155309	-0.1699446754	 0.2005430799	-0.322928
C	 0.7448228863	-0.728792367	 0.8861639245	 0.441147
C	 1.2887356719	-2.1230842809	 0.646888418	-0.346645
C	 2.0480109296	-2.4601164495	 1.948160642	-0.112775
C	 2.3942094293	-1.045298748	 2.4692261091	-0.110673
O	 1.377077849	-0.1732477485	 1.9752962689	-0.244322
C	 1.1579938867	-3.1939194725	 2.9301570462	 0.164514
O	 1.4135792056	-4.2673587004	 3.4096712773	-0.248319
H	 0.0370010692	 1.6807797342	 1.2843281022	 0.123003
H	-0.5277759734	 1.7878591159	-0.403064473	 0.126298
H	-1.6105709056	 1.1745879219	 0.8393205729	 0.127679
H	 0.4836574232	-2.81808984	 0.4015667068	 0.146755
H	 1.9774682428	-2.1093509668	-0.2038884701	 0.142135
H	 2.9409161485	-3.0655603745	 1.7851500852	 0.1057
H	 2.4016124922	-0.9688275141	 3.5604181063	 0.129801
H	 3.3726578507	-0.7236200239	 2.0921634902	 0.122706
H	 0.21722814	-2.6549040558	 3.1912457119	 0.090686
47.0026	61.274	67.5828	129.8878	220.6044	236.0996	301.7142	306.9502	417.5968	510.2449	576.0554	681.2985	752.7805	820.6677	887.7277	914.3441	955.5514	971.3649	1034.1354	1057.6657	1086.0345	1121.5279	1132.5765	1149.263	1192.4052	1209.1052	1226.135	1245.4908	1312.1551	1324.7222	1394.5634	1431.2404	1438.8185	1471.9435	1493.8971	1498.4175	1521.9919	1809.6353	1836.5934	2863.5159	3019.0417	3030.0803	3062.4862	3078.8032	3089.327	3091.8255	3108.6739	3120.4474
CN=C1CC(CO1)C=O	CN=C1C[C@@H](CO1)C=O	
InChI=1S/C6H9NO2/c1-7-6-2-5(3-8)4-9-6/h3,5H,2,4H2,1H3	InChI=1S/C6H9NO2/c1-7-6-2-5(3-8)4-9-6/h3,5H,2,4H2,1H3/t5-/m1/s1
