17
gdb 11005	3.91149	1.74354	1.47636	3.0664	68.74	-0.2403	-0.0209	0.2194	894.0007	0.143182	-363.878587	-363.871328	-363.870384	-363.909875	28.01	
C	-0.0075723373	 1.5131939109	-0.0322040207	-0.464483
C	-0.0335168142	 0.0091401489	 0.057103623	 0.332693
C	-1.2899238356	-0.7410784156	-0.394940274	-0.281683
C	-1.2047640249	-2.138635134	 0.2536675491	-0.360197
C	-0.2270670262	-1.9757106731	 1.4326640198	 0.41887
O	-0.1854901135	-2.6739980108	 2.4146043457	-0.32347
C	 0.6082022091	-0.7587877012	 1.178419756	-0.177558
N	 1.2332161641	-0.676944124	-0.1659402915	-0.358261
H	 0.9550099777	 1.9013125376	 0.3084652264	 0.13597
H	-0.154395187	 1.838581449	-1.0685332018	 0.124105
H	-0.8035339773	 1.9557005353	 0.5757414988	 0.121425
H	-2.175886848	-0.2081941942	-0.0332792358	 0.115894
H	-1.3617595929	-0.7739027808	-1.4877532584	 0.108787
H	-2.1616487803	-2.5068157137	 0.6280511529	 0.137854
H	-0.8274732582	-2.9051020631	-0.4331766418	 0.130686
H	 1.1675496012	-0.3153300349	 1.9944785381	 0.106009
H	 1.1165943033	-1.5487205664	-0.6790031558	 0.233356
111.8942	180.9311	204.9592	287.6209	373.7354	404.0842	468.3522	525.2616	580.706	643.102	697.8944	785.0768	811.2113	865.0128	910.8253	991.293	1000.7555	1012.7442	1049.7014	1071.0234	1114.64	1144.2422	1178.2482	1191.1461	1238.1117	1259.1764	1283.8302	1310.0588	1332.1095	1404.9008	1432.5462	1467.2127	1486.1106	1491.8391	1500.7236	1832.5663	3032.9863	3040.7129	3049.4859	3078.2273	3095.3123	3119.0304	3127.8652	3182.639	3479.7596
CC12CCC(=O)C1N2	C[C@]12CCC(=O)[C@H]1N2	
InChI=1S/C6H9NO/c1-6-3-2-4(8)5(6)7-6/h5,7H,2-3H2,1H3	InChI=1S/C6H9NO/c1-6-3-2-4(8)5(6)7-6/h5,7H,2-3H2,1H3/t5-,6+/m1/s1
