23
gdb 87768	3.53885	1.0537	1.04059	0.2667	91.2	-0.2308	0.0957	0.3265	1330.6706	0.205044	-351.123015	-351.113828	-351.112884	-351.156377	36.295	
C	-0.1322973824	 1.4876235681	-0.0298702453	-0.404635
C	-0.0144910913	-0.0190073619	 0.0402175915	-0.052951
C	 1.3286625106	-0.6906641122	-0.1697937241	-0.374633
C	 0.6866477789	-0.695611072	 1.1863226068	 0.396768
C	 1.2786112711	-0.075923069	 2.4720911623	-0.379254
C	 0.8253503191	-1.3317672063	 3.2438988413	 0.371061
C	 1.6203943768	-1.9827636738	 4.3386038005	-0.493887
C	-0.661243303	-1.5084026328	 3.0866369319	-0.32827
C	 0.24363195	-1.9248299627	 1.9532386344	-0.182163
H	 0.7473890379	 1.9736239163	 0.4051049024	 0.114729
H	-0.2202105515	 1.8321026579	-1.0665959997	 0.114097
H	-1.0117328871	 1.8481016432	 0.5159257106	 0.113498
H	-0.8716737672	-0.5569592281	-0.3599721379	 0.078114
H	 1.3618667157	-1.6214173662	-0.7282517742	 0.105461
H	 2.1945992588	-0.0515686374	-0.3220132839	 0.103278
H	 2.3680130461	 0.0184709165	 2.4267592305	 0.098729
H	 0.8575794553	 0.8768620168	 2.8136225005	 0.090566
H	 1.6122218009	-1.3750677436	 5.2522494668	 0.117057
H	 1.2112463877	-2.9657708007	 4.5949839964	 0.115061
H	 2.6673276803	-2.1221795232	 4.0447622359	 0.114473
H	-1.0893068436	-2.3233213324	 3.6634270191	 0.103128
H	-1.3204050588	-0.6502040386	 2.9719464832	 0.10098
H	 0.2845957856	-2.9457886081	 1.588972661	 0.078792
93.315	139.6733	191.0688	213.0734	217.461	273.5915	334.0323	385.5429	394.2666	440.7354	475.4176	522.8129	652.8021	779.8457	793.2449	812.3695	859.5467	902.6803	906.7432	934.6585	955.0245	961.8542	992.2618	1025.1461	1027.3873	1048.2839	1072.3795	1088.2088	1099.2062	1125.2129	1132.8921	1160.9344	1183.1041	1208.5352	1225.4386	1261.0926	1284.4915	1338.3757	1388.8466	1411.5013	1421.6238	1432.4408	1480.2054	1485.5916	1489.9913	1493.7301	1497.7548	1504.5201	1508.9099	3015.9809	3023.251	3030.5305	3072.852	3081.5405	3083.2026	3092.0729	3092.5071	3099.0207	3110.8589	3125.3498	3165.3879	3189.1143	3194.5797
CC1CC11CC2(C)CC12	C[C@H]1C[C@]21C[C@@]1(C)C[C@@H]21	
InChI=1S/C9H14/c1-6-3-9(6)5-8(2)4-7(8)9/h6-7H,3-5H2,1-2H3	InChI=1S/C9H14/c1-6-3-9(6)5-8(2)4-7(8)9/h6-7H,3-5H2,1-2H3/t6-,7+,8+,9+/m0/s1
