18
gdb 34047	3.26085	1.31279	1.08537	4.5179	76.14	-0.2906	0.0057	0.2963	1133.3999	0.149495	-401.966365	-401.95859	-401.957646	-401.998602	30.116	
N	 0.0178942916	-1.147469221	 0.1750263466	-0.334672
C	 0.0260404343	 0.0058059969	 0.0962173035	 0.247826
C	 0.0147157265	 1.4524870788	-0.037917676	 0.229203
C	-1.2164705366	 2.0465641195	-0.717773567	-0.282162
C	-0.8884152535	 3.2619391997	-1.6014952506	-0.203144
C	 0.1296560263	 4.2024997842	-0.9468174915	-0.208791
C	 1.4730299258	 3.4882002649	-0.7435893527	-0.237375
C	 1.3192419965	 2.1646132446	-0.0321733089	 0.02382
O	 0.4868533129	 2.1480597222	 1.1270874285	-0.268658
H	-1.7096369422	 1.2702818376	-1.3097945816	 0.125843
H	-1.9147100757	 2.3271069061	 0.0791744155	 0.13232
H	-0.4840746081	 2.9128260707	-2.5606148868	 0.104856
H	-1.8156819815	 3.7961316428	-1.8309712303	 0.106803
H	 0.2806449208	 5.089691599	-1.5692301141	 0.102586
H	-0.2499365892	 4.5491235178	 0.0206121234	 0.118801
H	 1.9504750464	 3.2940062417	-1.7130986949	 0.113601
H	 2.1680901251	 4.1147188208	-0.1722149306	 0.118128
H	 2.2207495707	 1.5590485037	 0.0636620475	 0.111015
106.0411	146.9469	187.3009	278.18	356.2759	365.8916	393.7162	475.8257	554.014	595.4188	609.8211	677.3785	791.7967	832.2145	849.6712	893.4934	928.2342	930.8109	982.5327	1052.0456	1073.1555	1085.2343	1101.6527	1182.5878	1206.9024	1217.5934	1278.0406	1299.8526	1319.6402	1367.772	1375.2221	1379.126	1392.1333	1446.9754	1475.8293	1478.014	1489.9587	1498.2235	2355.4871	3024.0734	3026.1077	3044.7872	3046.4333	3066.0803	3079.6936	3091.6235	3096.5433	3114.2128
N#CC12CCCCC1O2	N#C[C@]12CCCC[C@H]1O2	
InChI=1S/C7H9NO/c8-5-7-4-2-1-3-6(7)9-7/h6H,1-4H2	InChI=1S/C7H9NO/c8-5-7-4-2-1-3-6(7)9-7/h6H,1-4H2/t6-,7-/m1/s1
