19
gdb 80335	2.11195	1.50004	1.32179	4.8373	79.9	-0.2322	0.0156	0.2477	1107.4389	0.159044	-382.040923	-382.031921	-382.030976	-382.074324	33.751	
C	-0.052673785	 1.5300232822	-0.1189182381	-0.423793
C	 0.0617566933	 0.0281709031	 0.0268994713	-0.048515
C	 1.319135238	-0.7578084649	-0.1989311284	-0.087946
N	 2.4766525653	 0.0506997477	 0.2563520265	-0.322294
C	 1.984033253	-0.0744181998	 1.665578277	-0.187926
C	 1.92323011	 1.1680559313	 2.4424074242	 0.301818
N	 1.8663960931	 2.1271655816	 3.0850485894	-0.332478
C	 0.6742197592	-0.7389991958	 1.1873740785	 0.286875
C	-0.0610629886	-1.76449512	 1.9999144377	-0.498696
H	 0.9010099817	 2.0229056894	 0.0758327854	 0.152772
H	-0.3565345931	 1.7843470329	-1.1399549768	 0.114209
H	-0.8002252365	 1.940203757	 0.5670315489	 0.123871
H	-0.8100174075	-0.517668847	-0.3327200357	 0.089839
H	 1.4344314615	-1.5548174712	-0.9244863515	 0.098888
H	 3.3535699261	-0.4468129183	 0.1475898223	 0.23211
H	 2.5691712198	-0.7997002949	 2.2429720951	 0.120332
H	-0.606810985	-1.2975907901	 2.8286822587	 0.136344
H	-0.7929857598	-2.2958200387	 1.3838045771	 0.126839
H	 0.6205933846	-2.5094649845	 2.4269110286	 0.11775
108.2977	126.127	178.2065	189.2084	210.5988	263.2615	297.0717	311.8738	424.7224	527.8251	544.1992	579.1789	632.7028	743.0199	754.2121	818.3072	902.0614	905.7984	964.3688	977.1161	995.0053	1053.59	1059.5447	1072.0234	1116.1612	1123.7396	1166.2121	1189.623	1255.6859	1261.0173	1333.2992	1348.8997	1378.0599	1415.1043	1418.3463	1474.4226	1485.9288	1492.9665	1499.3482	1506.9904	2353.4893	3021.1059	3037.7381	3041.0714	3079.1759	3099.69	3101.5663	3116.3247	3142.1984	3178.8703	3537.0151
CC1C2NC(C#N)C12C	C[C@H]1[C@H]2N[C@@H](C#N)[C@@]12C	
InChI=1S/C7H10N2/c1-4-6-7(4,2)5(3-8)9-6/h4-6,9H,1-2H3	InChI=1S/C7H10N2/c1-4-6-7(4,2)5(3-8)9-6/h4-6,9H,1-2H3/t4-,5-,6+,7+/m0/s1
