16
gdb 32281	3.06174	1.45293	1.01959	1.0171	74.72	-0.2271	-0.0229	0.2042	1115.2812	0.126863	-437.946128	-437.938679	-437.937735	-437.97807	28.962	
O	 0.2405993754	 1.1208502433	-0.7233752056	-0.419726
C	-0.0079534124	 0.0176932327	 0.1662059186	-0.185231
C	-1.4317406172	-0.4893746367	 0.0985212136	 0.15151
N	-1.9942056147	-0.8613115561	 1.250128281	-0.306863
C	-3.2263940074	-1.3729059065	 1.2236913737	-0.031164
C	-3.9542129062	-1.5275631481	 0.0465349602	-0.110708
C	-3.3845878153	-1.1256632135	-1.1539446941	-0.161893
C	-2.0981666223	-0.589297137	-1.1389255789	 0.315237
O	-1.5320495332	-0.1988674614	-2.3046515879	-0.441556
H	-0.2801045997	 1.8703590642	-0.4124721218	 0.298152
H	 0.6943864578	-0.7589319767	-0.1581599628	 0.135313
H	 0.2287562327	 0.2743079129	 1.2037734316	 0.132252
H	-3.6470904212	-1.6678231915	 2.1809770173	 0.104024
H	-4.9535544559	-1.9482915956	 0.0714439169	 0.101879
H	-3.907978191	-1.2142324325	-2.0994764673	 0.112761
H	-0.7498847695	 0.3402256626	-2.0836453145	 0.306013
104.5183	155.751	261.8932	282.0245	373.4494	437.1524	443.3347	468.8652	567.7339	575.7494	630.6583	745.9788	763.9296	778.4751	834.932	884.8273	942.4798	967.5088	986.027	1026.6489	1078.7685	1126.3617	1182.5021	1190.8288	1277.8859	1296.2731	1314.5921	1361.6076	1399.0333	1408.7414	1480.777	1494.2668	1513.3173	1616.3137	1645.296	3039.6077	3089.0264	3162.8612	3188.1232	3203.5717	3582.9942	3801.7179
OCC1=NC=CC=C1O	OCc1ncccc1O	
InChI=1S/C6H7NO2/c8-4-5-6(9)2-1-3-7-5/h1-3,8-9H,4H2	InChI=1S/C6H7NO2/c8-4-5-6(9)2-1-3-7-5/h1-3,8-9H,4H2
