16
gdb 52448	2.48242	0.85441	0.66702	6.2291	67.59	-0.2813	-0.0046	0.2767	1593.2962	0.121896	-475.033687	-475.024047	-475.023103	-475.070332	31.797	
O	 0.764775086	 0.166459634	-0.5731219689	-0.26893
C	 0.75402768	 1.356434439	-0.6436973838	 0.177519
O	 0.8599394886	 2.1430555796	 0.4536665813	-0.181279
C	 0.9444212588	 3.5518071682	 0.2516732543	-0.102895
C	 2.3911552086	 3.9981045755	 0.1505059101	-0.06032
O	 2.8998816514	 3.5198197792	-1.0816104411	-0.241342
C	 4.2892034778	 3.7063910216	-1.2135008643	-0.185599
C	 4.7104960648	 3.2504924043	-2.5406880935	 0.267108
N	 5.0709998085	 2.9051141311	-3.5813077193	-0.283708
H	 0.6444594862	 1.9348741699	-1.5785462562	 0.093652
H	 0.4005812339	 3.8489392194	-0.6533954213	 0.130149
H	 0.4675223566	 4.0199747077	 1.1161578368	 0.134212
H	 2.4480141781	 5.0976434067	 0.1964229407	 0.106641
H	 2.9635451707	 3.5873361753	 0.9958849956	 0.118802
H	 4.5657167547	 4.7674596521	-1.1047224208	 0.144394
H	 4.8460305155	 3.1420650064	-0.4488617795	 0.151596
36.9473	56.6099	96.7184	125.2572	139.6597	178.9649	280.7396	335.74	377.5548	384.2236	499.0673	563.9076	634.383	883.8763	926.5989	959.0451	1031.8474	1036.586	1058.9519	1063.6974	1123.1928	1159.551	1181.8549	1254.8476	1269.4493	1321.2861	1383.2869	1402.6128	1429.6427	1444.6345	1488.3978	1489.796	1513.22	1872.2941	2376.6127	2975.5539	2981.2082	2982.9362	3007.8579	3020.409	3044.1813	3112.8676
O=COCCOCC#N	O=COCCOCC#N	
InChI=1S/C5H7NO3/c6-1-2-8-3-4-9-5-7/h5H,2-4H2	InChI=1S/C5H7NO3/c6-1-2-8-3-4-9-5-7/h5H,2-4H2
