16
gdb 57829	3.8732	0.7322	0.63463	4.3305	82.11	-0.2585	-0.0766	0.1819	1699.8794	0.121139	-437.882655	-437.872285	-437.871341	-437.919625	33.808	
C	 0.0047081308	 1.4005835513	 0.1288211019	-0.351631
N	 0.0677870574	-0.0458808061	 0.0062137804	-0.098816
C	 0.3027787985	-0.7971306917	 1.2235877259	-0.342961
C	-0.0866745503	-0.608005115	-1.2264377033	 0.314221
O	-0.269259063	 0.0197431605	-2.2571775676	-0.363584
C	-0.0270849752	-2.0652978081	-1.2927121459	-0.050661
C	 0.0083890597	-3.257278829	-1.4958893555	 0.11896
C	 0.0132361758	-4.6803893044	-1.732244084	 0.015533
O	 1.01035739	-5.3632027611	-1.7436624671	-0.219759
H	 0.9502666464	 1.7931354988	 0.5219016231	 0.131661
H	-0.1830086154	 1.8232781299	-0.856859525	 0.176186
H	-0.8009210238	 1.6905703269	 0.8138979259	 0.130094
H	-0.504794705	-0.6258759965	 1.9462708095	 0.133638
H	 0.3551260679	-1.8634947304	 1.0045474903	 0.160162
H	 1.2477982519	-0.4893590388	 1.687641909	 0.136113
H	-0.9934454557	-5.1106454562	-1.9052340877	 0.110844
41.366	66.8245	95.3529	110.2627	142.6088	154.3493	229.1779	258.7772	304.963	349.793	373.8326	428.807	585.6454	659.3929	738.1534	745.1702	928.292	1017.5034	1058.4723	1083.8527	1129.8692	1180.0531	1192.7189	1291.2609	1418.4463	1427.7674	1435.9368	1469.91	1478.6498	1499.0918	1499.9118	1543.0743	1733.6168	1768.7275	2303.8094	2929.0606	3016.033	3023.6131	3065.8961	3072.6891	3151.2338	3169.9308
CN(C)C(=O)C#CC=O	CN(C)C(=O)C#CC=O	
InChI=1S/C6H7NO2/c1-7(2)6(9)4-3-5-8/h5H,1-2H3	InChI=1S/C6H7NO2/c1-7(2)6(9)4-3-5-8/h5H,1-2H3
