17
gdb 25706	4.84893	0.82674	0.71252	3.8861	82.22	-0.2142	0.0391	0.2533	1558.6469	0.13664	-380.891869	-380.882828	-380.881884	-380.928346	31.473	
C	 0.238904631	 1.2448371749	-0.8904289332	-0.499181
C	 0.0669006508	-0.0724763743	-0.2924465922	 0.086504
C	-0.0494799005	-1.1581606716	 0.2162494284	 0.040036
C	-0.2079107863	-2.4770284187	 0.8235527116	-0.480002
C	-1.4736520671	-3.1817474402	 0.41084059	 0.382765
N	-1.84964898	-4.3753345527	 0.8154398706	-0.316984
C	-3.0532055246	-4.6105018949	 0.1899803997	-0.091554
C	-3.4042705122	-3.5473905198	-0.5986784356	-0.117111
N	-2.3804353559	-2.6382765682	-0.4463595799	-0.267724
H	 1.1729155343	 1.7081704905	-0.5544746919	 0.155452
H	 0.2739126083	 1.187323464	-1.9838302172	 0.149478
H	-0.5803937311	 1.9189789808	-0.6177715964	 0.149474
H	 0.6487055577	-3.113816656	 0.567962816	 0.157818
H	-0.1937533699	-2.3911359281	 1.9176441709	 0.157823
H	-3.5958255081	-5.5308659213	 0.3441880808	 0.104112
H	-4.2527565966	-3.3524590762	-1.2326762414	 0.123915
H	-2.2902892298	-1.7317954082	-0.8758252703	 0.265178
15.6451	33.7551	79.203	196.1107	235.3652	244.6136	345.5763	378.3172	465.3854	573.6898	653.1673	690.6405	723.3961	725.3542	782.0129	855.8294	932.3691	946.9045	990.5429	1052.3103	1055.6385	1099.2955	1135.9633	1162.2564	1179.2063	1208.701	1272.2542	1316.4932	1392.4891	1415.7135	1459.4125	1478.5525	1479.4266	1481.2484	1502.1399	1582.1692	2372.0756	3023.6258	3029.0905	3047.1212	3089.6919	3091.6854	3247.5204	3281.9106	3654.0301
CC#CCC1=NC=CN1	CC#CCc1ncc[nH]1	
InChI=1S/C7H8N2/c1-2-3-4-7-8-5-6-9-7/h5-6H,4H2,1H3,(H,8,9)	InChI=1S/C7H8N2/c1-2-3-4-7-8-5-6-9-7/h5-6H,4H2,1H3,(H,8,9)
