17
gdb 23173	2.41345	1.64318	1.05869	1.2317	80.2	-0.2191	-0.0342	0.1848	1114.6699	0.136983	-417.957204	-417.949273	-417.948329	-417.989745	30.556	
O	-0.0439217175	 1.2893140949	 0.0531301554	-0.392021
N	 0.0373376688	-0.1115138711	 0.0182367344	-0.266031
C	-1.1194348771	-0.6566614096	-0.020669654	 0.324301
C	-2.4587922023	-0.0747477045	-0.0153646166	-0.150804
C	-3.3800899238	-1.0495432162	 0.0203137573	-0.079645
C	-2.7730135648	-2.4292650987	 0.0458588372	-0.350383
C	-1.2701559739	-2.1503792129	-0.0371524051	 0.270148
C	-0.2914660536	-3.0019593874	-0.7650643299	-0.275256
N	-0.3268941568	-3.0021568345	 0.702814221	-0.357399
H	 0.8831215857	 1.5480090147	 0.0775025842	 0.307158
H	-2.640115299	 0.9901309838	-0.0263404078	 0.125448
H	-4.4522541651	-0.8887450192	 0.0370256111	 0.11055
H	-3.0202022462	-2.9677331031	 0.9689385234	 0.13394
H	-3.1340729549	-3.0485812073	-0.7845346366	 0.118699
H	-0.629377335	-3.9238301603	-1.2323367131	 0.114851
H	 0.5254376455	-2.4914974424	-1.2675564195	 0.126034
H	 0.4225885801	-2.4061320462	 1.0527826087	 0.240411
74.109	179.9567	191.7164	295.1416	309.1869	325.0074	390.7021	446.9735	506.331	545.1728	657.8133	734.0969	799.6539	816.7231	834.3542	894.8081	944.4588	963.4963	983.2877	985.7635	996.5749	1021.1918	1083.5803	1111.5689	1134.1338	1172.4463	1203.5596	1274.219	1291.6903	1317.8941	1359.7391	1395.9551	1419.215	1472.6055	1499.652	1640.0121	1724.4819	3028.8343	3058.5095	3102.5748	3196.6769	3198.0243	3249.6401	3474.9322	3822.2109
ON=C1C=CCC11CN1	ON=C1C=CC[C@]21CN2	
InChI=1S/C6H8N2O/c9-8-5-2-1-3-6(5)4-7-6/h1-2,7,9H,3-4H2	InChI=1S/C6H8N2O/c9-8-5-2-1-3-6(5)4-7-6/h1-2,7,9H,3-4H2/t6-/m1/s1
