19
gdb 117134	3.86878	0.8538	0.75358	4.9478	75.73	-0.254	-0.0038	0.2502	1534.986	0.158254	-456.413184	-456.402907	-456.401963	-456.449391	35.714	
C	-0.7145513003	 0.964417137	-0.2045087067	-0.37333
C	 0.5909659194	 0.2483009118	 0.1492291381	-0.141611
N	 1.2268132716	-0.4014882541	-0.9914225153	-0.373862
C	 0.8431341931	-1.6522850749	-1.3765475457	 0.535078
O	 0.0322840778	-2.3205791178	-0.7614723059	-0.409084
N	 1.4818848593	-2.1339885921	-2.5439956048	-0.178463
C	 2.5206323109	-1.3959827623	-3.2510519705	-0.373114
C	 1.1141083822	-3.3847546966	-3.0285543745	 0.171999
O	 1.6034008545	-3.8923647829	-4.0108699669	-0.331181
H	-0.5516340117	 1.744005451	-0.9563353203	 0.110337
H	-1.4427522558	 0.2497697317	-0.596488911	 0.145513
H	-1.1412309327	 1.4374508009	 0.6856192352	 0.121298
H	 1.3149857665	 0.950178691	 0.5755594255	 0.106409
H	 0.4011573754	-0.5293152758	 0.8918384156	 0.147962
H	 1.7714548713	 0.1678159633	-1.615746672	 0.249028
H	 3.3537376703	-1.1532592458	-2.5842944381	 0.139024
H	 2.8767228767	-2.0436572146	-4.0523188701	 0.180823
H	 2.1288421574	-0.4741166744	-3.6969480032	 0.132677
H	 0.3329961142	-3.8424449055	-2.4093731994	 0.140495
45.3966	59.6372	88.8046	179.7967	186.7523	207.8474	254.4453	315.1872	338.612	342.3574	397.5289	409.0435	478.1686	540.8724	737.6529	771.4917	805.1511	888.0576	909.0582	1017.5437	1057.8794	1082.1239	1120.6982	1153.1218	1168.6991	1214.5211	1282.5209	1333.3579	1338.0126	1395.7147	1411.8886	1412.3357	1442.6369	1473.2405	1491.5766	1503.5534	1506.3682	1514.0491	1546.2988	1779.7546	1803.8502	3026.0793	3037.7657	3055.6071	3078.5135	3089.456	3100.9964	3120.1473	3132.2503	3154.4291	3664.7062
CCNC(=O)N(C)C=O	CCNC(=O)N(C)C=O	
InChI=1S/C5H10N2O2/c1-3-6-5(9)7(2)4-8/h4H,3H2,1-2H3,(H,6,9)	InChI=1S/C5H10N2O2/c1-3-6-5(9)7(2)4-8/h4H,3H2,1-2H3,(H,6,9)
