18
gdb 16520	3.57131	2.35543	1.81218	1.6657	70.33	-0.2349	0.0956	0.3305	791.2946	0.155577	-347.77985	-347.773273	-347.772329	-347.810088	26.756	
C	-0.0203289817	 1.4453881831	 0.040437931	-0.496703
C	 0.0047711886	-0.0624314837	-0.0119100355	 0.326356
C	 0.9932964988	-0.7497169362	-0.9556369741	-0.148245
O	 0.3962570638	-1.9999354177	-1.3120551262	-0.263148
C	-0.6337758562	-2.2379269067	-0.3653092998	 0.082928
C	-0.0730820996	-2.3220567388	 1.0928704115	-0.259406
C	-0.4009721989	-0.8348541075	 1.238960031	-0.115189
C	-1.2629483225	-0.8655996869	-0.0199054018	-0.124603
H	 0.9322714456	 1.8471389119	 0.4047750435	 0.121264
H	-0.2042169471	 1.8736133615	-0.9514469874	 0.120967
H	-0.8064899147	 1.8048612816	 0.7116249944	 0.120488
H	 1.1478269365	-0.1635274323	-1.870173476	 0.098959
H	 1.9749492116	-0.912776339	-0.4878347054	 0.094311
H	-1.2541970372	-3.0574635856	-0.7249572651	 0.081881
H	-0.7123930816	-2.9356548864	 1.7340748576	 0.10078
H	 0.9663026039	-2.6523323306	 1.1939547305	 0.095508
H	-0.5910122219	-0.3097861851	 2.1685866696	 0.080156
H	-2.2561211273	-0.4896440316	-0.2268772679	 0.083697
207.4663	211.8785	259.9643	311.1573	411.5242	442.4615	570.4511	665.6673	709.2331	789.9522	848.2396	852.7361	863.6648	902.6168	946.7351	961.449	991.6746	998.9392	1021.4227	1027.5131	1084.4371	1100.285	1115.0522	1135.9112	1183.7437	1209.9145	1224.2933	1252.5743	1275.5121	1283.5037	1334.2178	1364.5639	1419.0426	1423.1741	1490.1897	1492.0503	1501.8963	1524.179	2994.8906	3024.6859	3039.3198	3041.3052	3083.3329	3095.6402	3100.7339	3130.1487	3169.4917	3201.4729
CC12COC3CC1C23	C[C@@]12CO[C@H]3C[C@@H]1[C@@H]23	
InChI=1S/C7H10O/c1-7-3-8-5-2-4(7)6(5)7/h4-6H,2-3H2,1H3	InChI=1S/C7H10O/c1-7-3-8-5-2-4(7)6(5)7/h4-6H,2-3H2,1H3/t4-,5+,6-,7-/m1/s1
