17
gdb 41149	3.0245	1.96727	1.49672	1.3862	71.85	-0.2411	-0.014	0.2271	890.9469	0.13798	-421.756145	-421.74981	-421.748865	-421.786453	26.789	
C	-0.0120202939	 1.5353796883	 0.0812503339	-0.208413
O	 1.4462237391	 1.4655181469	-0.0480147647	-0.316072
C	 1.2900157752	 0.1623837224	-0.6983792567	 0.13615
C	 2.1350624662	-1.0688996181	-0.5678701899	-0.190987
C	 1.4187507123	-2.1501105006	-0.2274609243	-0.033782
C	-0.0107818615	-1.9543158354	 0.2861826847	 0.008574
C	 0.0774838065	-0.8200509505	 1.3263144892	-0.258214
C	-0.0214327481	 0.00223984	 0.0367276749	 0.368788
O	-0.8198266117	-1.0496973712	-0.5662388731	-0.344798
H	-0.3201695108	 2.0274876152	 1.0073328644	 0.114937
H	-0.468787771	 2.0244592699	-0.7895744062	 0.112758
H	 1.1061145516	 0.3492185576	-1.7694914792	 0.092804
H	 3.1699886309	-1.1120721606	-0.8917340338	 0.106585
H	 1.8424527817	-3.1494348755	-0.218395007	 0.103909
H	-0.5443389879	-2.8810461638	 0.495293419	 0.082941
H	-0.8434028218	-0.7182949045	 1.9047931754	 0.108152
H	 0.9652487232	-0.7421644903	 1.9526035933	 0.116668
211.8566	281.6891	355.2954	374.4928	454.9989	485.091	551.455	600.6378	674.1465	753.5246	763.8955	857.9981	863.6494	882.4891	920.5608	926.0459	948.8459	978.6129	995.2157	1009.4405	1068.1908	1087.0561	1099.6104	1141.1465	1159.0373	1189.0974	1224.3159	1238.8614	1279.5868	1309.706	1322.4253	1348.806	1377.5372	1396.8072	1485.9029	1507.2311	1649.9634	2961.109	3017.259	3075.8603	3100.6345	3121.5404	3152.9462	3170.0115	3191.7738
C1OC2C=CC3CC12O3	C1O[C@H]2C=C[C@H]3C[C@@]12O3	
InChI=1S/C7H8O2/c1-2-6-7(4-8-6)3-5(1)9-7/h1-2,5-6H,3-4H2	InChI=1S/C7H8O2/c1-2-6-7(4-8-6)3-5(1)9-7/h1-2,5-6H,3-4H2/t5-,6-,7+/m0/s1
