20
gdb 17821	4.45159	1.2145	1.07349	1.7937	75.79	-0.2552	0.0841	0.3393	1170.8759	0.176867	-348.978295	-348.969967	-348.969023	-349.011681	30.818	
C	 0.0621777231	 1.5360832105	-0.3432567528	-0.421508
C	-0.0385895765	 0.0718598442	 0.0018512941	 0.076451
O	 1.1693041913	-0.6961339421	-0.0101994348	-0.268521
C	 0.4765264211	-0.5463562737	 1.2379035649	 0.042509
C	 1.1775115604	 0.1816389111	 2.3471361676	 0.029877
C	 0.3555343389	 0.5395839998	 3.621090695	-0.234898
C	 1.5922527453	 0.162950995	 4.480263958	-0.209651
C	 2.1473545396	-0.6242742656	 3.2630367644	-0.226999
H	 0.899627599	 2.018612548	 0.1639807112	 0.128514
H	 0.2055162991	 1.6588232487	-1.4220411027	 0.128995
H	-0.8616622901	 2.0567387864	-0.0681748053	 0.120663
H	-0.8778375435	-0.4392345442	-0.4766162538	 0.083406
H	-0.0232834375	-1.4630004992	 1.5660236816	 0.077649
H	 1.6861428482	 1.0661941189	 1.9563823646	 0.072852
H	-0.0416064059	 1.5544586782	 3.6998714397	 0.097575
H	-0.4683784888	-0.1664542584	 3.7710819109	 0.099537
H	 2.2055504168	 1.0390690084	 4.7097695537	 0.103038
H	 1.4177860336	-0.3887691711	 5.4067117168	 0.097032
H	 1.8643288104	-1.6813328629	 3.3029132481	 0.100692
H	 3.2159803554	-0.5597484119	 3.0475217589	 0.102787
48.8545	120.3496	136.1119	180.0234	222.8841	355.4759	391.4082	409.9188	531.8586	646.9286	764.3308	779.0825	791.6642	867.268	902.3346	932.3957	946.5538	960.1896	983.4204	1008.7825	1035.9931	1088.996	1109.7777	1149.9159	1176.0636	1204.0129	1205.5097	1239.0839	1254.2851	1257.6127	1273.2114	1284.6603	1303.8373	1330.6968	1404.2079	1422.3694	1470.4386	1478.2715	1487.5669	1490.0781	1506.9437	1515.3862	3038.6011	3046.163	3051.7457	3055.2937	3059.5452	3075.6033	3078.2254	3098.1067	3100.0053	3106.4992	3120.5668	3136.7266
CC1OC1C1CCC1	C[C@H]1O[C@H]1C1CCC1	
InChI=1S/C7H12O/c1-5-7(8-5)6-3-2-4-6/h5-7H,2-4H2,1H3	InChI=1S/C7H12O/c1-5-7(8-5)6-3-2-4-6/h5-7H,2-4H2,1H3/t5-,7-/m1/s1
