23
gdb 117999	3.30023	0.76896	0.65823	1.3349	88.7	-0.2629	0.0327	0.2956	1766.9667	0.202086	-388.262433	-388.250948	-388.250004	-388.29952	41.53	
C	-0.0393946871	 1.6177843905	-0.1000682405	-0.377965
C	 0.017973987	 0.0901996829	-0.0036322888	-0.182067
C	-1.3744408731	-0.5470232908	 0.0784998787	-0.16501
C	-1.3761332386	-2.0859249753	 0.0999570836	 0.005028
C	-0.7801285287	-2.6578838029	 1.3929209764	-0.406852
C	-2.8195286455	-2.6141781331	-0.1230135493	-0.051647
O	-3.4228685362	-2.0701049185	-1.296464741	-0.419206
C	-2.8752730246	-4.0796449402	-0.1551441838	 0.291882
C	-2.9067631421	-5.278579904	-0.2449961524	-0.4432
H	 0.9631887088	 2.0524935098	-0.1626875812	 0.109408
H	-0.5986891356	 1.93741712	-0.9862728034	 0.114891
H	-0.5358591869	 2.050829977	 0.7755293939	 0.113842
H	 0.5471417229	-0.3114658098	-0.8784764486	 0.091939
H	 0.6179020549	-0.1920546795	 0.8697788577	 0.096943
H	-1.8912777624	-0.17843478	 0.9771278422	 0.086048
H	-1.971849206	-0.2136625562	-0.7761458284	 0.110677
H	-0.7769994966	-2.446449797	-0.7499073275	 0.06763
H	-0.7851369244	-3.7505944821	 1.3849620511	 0.129122
H	 0.2527834298	-2.3279552497	 1.530487301	 0.118807
H	-1.3540506446	-2.3240786061	 2.266131171	 0.113007
H	-3.4454322623	-2.2516448317	 0.7033185093	 0.115029
H	-3.0370609123	-2.5241814629	-2.0539988226	 0.283344
H	-2.9504926862	-6.3379849104	-0.3074994977	 0.198348
49.4611	63.4304	93.3073	127.7863	184.6806	210.0452	228.7131	247.5375	277.1755	290.8234	332.6517	378.7555	425.2418	451.8816	570.7643	595.2036	629.933	666.3325	744.054	841.8489	862.4048	881.6483	936.2897	976.5029	1006.3732	1036.0901	1061.109	1078.6986	1132.5462	1143.7085	1185.5317	1240.7223	1263.3447	1287.1401	1320.5919	1326.5898	1358.5312	1367.4221	1392.4287	1411.3895	1414.7285	1419.8795	1484.2748	1495.1285	1499.4794	1499.8879	1505.6396	1513.8677	2228.3657	2989.8712	3001.9732	3017.9666	3027.6139	3029.4409	3034.8308	3049.0107	3080.2287	3097.2788	3101.2475	3104.3764	3124.9592	3502.1006	3804.8654
CCCC(C)C(O)C#C	CCC[C@@H](C)[C@@H](O)C#C	
InChI=1S/C8H14O/c1-4-6-7(3)8(9)5-2/h2,7-9H,4,6H2,1,3H3	InChI=1S/C8H14O/c1-4-6-7(3)8(9)5-2/h2,7-9H,4,6H2,1,3H3/t7-,8+/m1/s1
