18
gdb 90022	2.89252	1.49517	1.17563	3.2822	72.72	-0.2478	0.0143	0.262	1064.7167	0.148542	-439.071178	-439.06336	-439.062416	-439.103376	30.686	
O	 0.0236485381	 1.4655980874	-0.0802600952	-0.445314
C	 0.0252205512	 0.0655744355	-0.0465436247	 0.155293
C	 0.2795541793	-0.556942432	 1.3634119517	-0.311461
C	-1.2582513902	-0.6632027597	 1.5297074871	 0.170386
C	-2.0270733286	-1.5906380423	 2.4863912639	-0.179162
O	-2.6057878898	-0.4155143233	 3.1588516222	-0.256742
C	-1.9318444354	 0.4312258628	 2.3193697715	 0.43504
N	-1.894095312	 1.6855432899	 2.2416421086	-0.570673
C	-1.3913644059	-0.5919756736	-0.0133414924	-0.31146
H	-0.5616212842	 1.8019320409	 0.621509489	 0.300266
H	 0.6916210452	-0.2629287196	-0.8469720031	 0.082099
H	 0.7412306223	-1.5467653473	 1.2974585814	 0.103492
H	 0.8238580614	 0.0597755577	 2.0816894906	 0.118168
H	-2.8139039272	-2.2054242551	 2.0427123847	 0.126666
H	-1.4261095145	-2.1763280219	 3.1861949692	 0.126665
H	-2.4755981048	 2.1538061897	 2.9354723766	 0.235077
H	-2.2155315802	-0.0039514835	-0.4226168886	 0.118168
H	-1.3900849185	-1.5914524956	-0.4586381574	 0.103492
123.1575	146.4886	181.8066	262.4381	301.6828	396.8757	410.0605	505.0034	523.0464	590.5259	688.1506	767.5887	791.7981	823.6956	843.4778	851.7691	885.7655	925.1157	958.7605	974.8006	995.2463	1031.6233	1082.6682	1128.9558	1152.3064	1160.3761	1216.4738	1217.6993	1225.9312	1260.221	1265.4071	1283.3672	1358.2115	1382.0148	1455.0567	1474.4821	1492.0803	1508.7879	1809.9466	3053.1542	3057.6929	3062.7324	3088.7885	3122.9641	3123.5344	3124.3285	3501.285	3615.2378
OC1CC2(COC2=N)C1	O[C@H]1C[C@]2(CO[C]2[NH])C1	
InChI=1S/C6H9NO2/c7-5-6(3-9-5)1-4(8)2-6/h4,7-8H,1-3H2	InChI=1S/C6H9NO2/c7-5-6(3-9-5)1-4(8)2-6/h4,7-8H,1-3H2/t4-,6+
