14
gdb 76298	2.44182	1.67798	1.14623	1.7746	59.52	-0.2795	-0.033	0.2466	1017.0117	0.100382	-510.993571	-510.98542	-510.984476	-511.026515	29.8	
O	 0.2600520798	 1.2018128167	 0.5541809988	-0.410684
C	 0.0249908372	-0.0906707711	 0.1048705044	 0.061388
C	-1.4501271012	-0.465706395	-0.1102811295	-0.062247
O	-2.0702260859	 0.6686395386	-0.6970199189	-0.436086
C	-1.3584570617	-1.5763552593	-1.1618366345	 0.414093
O	-2.1774773572	-2.3881501404	-1.4640915505	-0.315777
O	-0.1511572998	-1.4643725765	-1.8151215462	-0.218659
C	 0.6258288996	-0.446919377	-1.2535282414	 0.362136
N	 1.6349084381	 0.0560370462	-1.7957288974	-0.497113
H	-0.2210795631	 1.8008075001	-0.0302129361	 0.303247
H	 0.4578957787	-0.7739662761	 0.8459569422	 0.135829
H	-1.9706025288	-0.8052729787	 0.7899052401	 0.110972
H	-2.9781714845	 0.4410061724	-0.9255320514	 0.310246
H	 1.8167182189	-0.3606376199	-2.7102911597	 0.242655
72.9898	133.6701	222.8173	240.1082	265.3524	317.4778	356.8838	388.3622	477.006	550.3195	609.4657	644.4316	735.8352	793.7206	826.7814	900.1073	926.9168	962.393	1040.2167	1082.672	1157.6147	1161.2672	1191.9759	1276.0316	1292.5837	1307.3795	1346.0278	1405.1123	1441.9722	1805.0719	1912.5607	3047.7372	3074.5552	3482.5488	3795.716	3816.7361
OC1C(O)C(=O)OC1=N	O[C@H]1[C@@H](O)C(=O)O[C]1[NH]	
InChI=1S/C4H5NO4/c5-3-1(6)2(7)4(8)9-3/h1-2,5-7H	InChI=1S/C4H5NO4/c5-3-1(6)2(7)4(8)9-3/h1-2,5-7H/t1-,2+/m0/s1
