14
gdb 67367	3.05803	1.92643	1.35851	3.1571	60.99	-0.2458	-0.0078	0.238	880.9017	0.10106	-473.776485	-473.769733	-473.768789	-473.807334	27.102	
O	 0.0862756622	 1.4030576871	 0.0047174159	-0.474432
C	 0.0288912876	 0.0407648338	 0.0245167507	 0.310185
C	 0.0122383584	-0.8308389226	 1.3339188724	 0.002305
O	-1.4183943263	-0.5953749903	 1.5461931543	-0.311381
C	-1.3127319646	-0.8055207958	 0.1042563779	-0.01192
C	-0.3086586858	-1.9824269066	 0.3385991729	-0.042293
N	 0.725241646	-1.9991657176	-0.6867041289	-0.349592
C	 0.9162043039	-0.6726033069	-0.9914437233	 0.362211
O	 1.581529245	-0.1421867774	-1.8517169935	-0.386123
H	 0.6763001141	 1.6311894438	-0.7314763212	 0.301021
H	 0.6801352083	-0.8103874837	 2.1950873806	 0.110829
H	-2.2203334283	-0.7448490133	-0.4972856759	 0.107705
H	-0.6583753613	-2.9390831942	 0.7120289359	 0.118113
H	 0.8567674708	-2.7395549764	-1.3580718778	 0.263373
148.2565	257.5028	328.8206	374.3623	382.1243	421.5882	448.851	561.064	642.1245	678.2544	715.9011	732.4345	800.0117	866.8512	886.0128	904.1393	922.567	999.44	1015.4961	1048.3472	1126.6441	1137.8505	1157.8753	1177.3434	1199.434	1275.8018	1324.9761	1361.9079	1400.783	1440.2692	1852.4592	3119.1988	3127.6333	3191.7312	3635.9354	3696.2877
OC12C3OC1C3NC2=O	O[C@@]12[C@H]3O[C@@H]1[C@H]3NC2=O	
InChI=1S/C5H5NO3/c7-4-5(8)2-1(6-4)3(5)9-2/h1-3,8H,(H,6,7)	InChI=1S/C5H5NO3/c7-4-5(8)2-1(6-4)3(5)9-2/h1-3,8H,(H,6,7)/t1-,2-,3+,5-
