15
gdb 30543	5.46687	0.99953	0.84627	2.886	84.31	-0.2214	-0.0285	0.1928	1296.7664	0.115034	-413.054655	-413.046664	-413.04572	-413.088125	28.519	
N	 0.0044657906	 1.3467146252	-0.0361913736	-0.491243
C	 0.0602705688	 0.0021801791	 0.0431187481	 0.145992
N	 1.1696512224	-0.6297227948	-0.1094859877	-0.34078
C	 1.1409339115	-2.0167398754	-0.0732834993	 0.425275
N	-0.038376383	-2.6703105457	-0.1154904495	-0.309865
C	 0.0065334557	-3.9976462308	-0.0877116069	 0.011284
C	 1.2000917238	-4.7078718907	-0.0261617231	-0.14604
C	 2.3571850392	-3.9369535392	 0.0095614797	 0.01038
N	 2.3474144062	-2.607241168	-0.013075613	-0.294249
H	 0.8583891752	 1.8635741718	-0.1725223892	 0.271216
H	-0.8403848525	 1.8461327299	 0.171769014	 0.268635
H	-0.8954122726	-0.4936260061	 0.232689307	 0.130048
H	-0.9518287124	-4.5139733135	-0.1211479853	 0.107553
H	 1.2260345211	-5.7900922808	-0.0109856207	 0.101462
H	 3.338073496	-4.4072768711	 0.0578079295	 0.110333
42.958	116.4275	158.7889	175.0364	252.6643	415.3541	418.5912	489.5944	551.9539	637.3872	646.9371	680.863	815.9589	845.9542	874.5325	997.4023	999.2056	1009.9226	1050.2496	1085.6302	1108.9811	1113.6821	1243.2249	1293.959	1317.0035	1329.9818	1403.9264	1454.5468	1473.5557	1584.5813	1615.8892	1625.8728	1712.9635	3100.8145	3136.3224	3140.422	3212.6829	3608.4097	3751.9074
NC=NC1=NC=CC=N1	NC=Nc1ncccn1	
InChI=1S/C5H6N4/c6-4-9-5-7-2-1-3-8-5/h1-4H,(H2,6,7,8,9)	InChI=1S/C5H6N4/c6-4-9-5-7-2-1-3-8-5/h1-4H,(H2,6,7,8,9)
