21
gdb 83773	2.75643	1.77893	1.59075	1.3916	80.95	-0.234	0.0803	0.3143	971.2142	0.185454	-387.061185	-387.053874	-387.05293	-387.092659	30.166	
C	-0.0903007339	 1.6547760257	-0.0591050675	-0.43723
C	 0.1010212881	 0.1477489651	 0.0621009572	 0.027591
C	 1.1415924716	-0.6295628717	-0.7970931286	 0.086845
O	 2.3893447911	 0.0451081021	-0.8807745561	-0.271393
C	 2.8707479093	 0.4704135515	 0.3979989249	-0.086554
C	 2.281872042	-0.4203047083	 1.4851575478	-0.056848
C	 2.4904180629	-1.8949843755	 1.0353309799	-0.237464
C	 1.1452183886	-1.756234903	 0.3143594439	-0.034819
C	 0.7204959682	-0.5958078535	 1.2707848827	-0.063473
H	 0.8485094549	 2.2096573125	-0.0520297722	 0.127194
H	-0.6030200638	 1.898375747	-0.9964172921	 0.116223
H	-0.7118318393	 2.031658358	 0.7611481847	 0.11287
H	-0.8713922775	-0.3356724538	-0.105503755	 0.073197
H	 0.8818575981	-0.9087521245	-1.8200035111	 0.071723
H	 3.9634652447	 0.379704798	 0.3702635847	 0.102669
H	 2.6304490144	 1.5267664809	 0.5730508975	 0.091319
H	 2.623929583	-0.1220805161	 2.4784155014	 0.065851
H	 3.384847345	-2.1156414508	 0.4447330519	 0.099286
H	 2.4183102195	-2.6010019314	 1.8674134185	 0.095586
H	 0.5119842725	-2.6186426515	 0.0993781372	 0.060061
H	 0.1428902405	-0.7493036209	 2.1844477003	 0.057366
101.3434	202.6837	231.6743	282.2971	385.0341	438.3145	518.4565	568.2104	616.0252	671.4054	758.8122	802.8335	804.2421	842.7543	868.0649	906.0969	925.9385	953.568	982.3228	991.8619	1042.7766	1056.1885	1058.3248	1095.1218	1104.4337	1119.4545	1147.2801	1161.6082	1183.8257	1207.3455	1229.0071	1249.1901	1257.8872	1283.1297	1301.8	1313.0232	1332.3049	1358.2758	1395.1895	1405.274	1411.8949	1486.1054	1491.1749	1495.2736	1526.4874	3007.8548	3014.7659	3035.2267	3045.9193	3049.2771	3079.9196	3087.2974	3088.3756	3090.8917	3098.5514	3103.1404	3139.2205
CC1C2OCC3CC2C13	C[C@H]1[C@H]2OC[C@@H]3C[C@H]2[C@H]13	
InChI=1S/C8H12O/c1-4-7-5-2-6(7)8(4)9-3-5/h4-8H,2-3H2,1H3	InChI=1S/C8H12O/c1-4-7-5-2-6(7)8(4)9-3-5/h4-8H,2-3H2,1H3/t4-,5+,6+,7-,8-/m1/s1
