15
gdb 132594	3.14349	1.30904	0.92497	1.1348	73.09	-0.198	0.0058	0.2038	1161.0027	0.113199	-461.977485	-461.969754	-461.96881	-462.009269	30.732	
N	 0.0112626245	 1.4282932745	-0.10939981	-0.598364
C	-0.0205070587	 0.0390263272	-0.056047806	 0.222926
C	-1.2117149411	-0.6887607996	-0.07086274	-0.294265
C	-1.1918994747	-2.0834666125	-0.0758724636	 0.411092
O	-2.4024765866	-2.7162233638	-0.0907021533	-0.449215
C	 0.0169454534	-2.7780191517	-0.0650019705	-0.288041
C	 1.2127960137	-2.0583725099	-0.0451747799	-0.212177
C	 1.1822374119	-0.6808056574	-0.0404902288	 0.219084
F	 2.3318651642	 0.0286581746	-0.0078497564	-0.102406
H	 0.8801396061	 1.8312824235	 0.2089907037	 0.255515
H	-0.7962867765	 1.8902542185	 0.2810985873	 0.250592
H	-2.1680991311	-0.1778964091	-0.0850438251	 0.096683
H	-2.2555909167	-3.667302732	-0.0951853881	 0.295544
H	 0.0310944603	-3.8632290729	-0.0689415228	 0.084918
H	 2.1720992413	-2.5624328292	-0.0293841865	 0.108113
154.8756	224.3056	292.9685	327.7212	345.4934	350.7998	383.0233	447.3578	452.6418	511.5103	580.4886	606.75	646.727	713.151	748.5163	778.7494	784.8766	858.4989	895.3645	980.4041	1089.8723	1146.5943	1182.7792	1233.6403	1250.5539	1298.9105	1351.7737	1385.7969	1511.3433	1552.9974	1638.3621	1643.0425	1677.0894	3172.4927	3190.5683	3203.6521	3571.0262	3675.1216	3828.6284
NC1=CC(O)=CC=C1F	Nc1cc(O)ccc1F	
InChI=1S/C6H6FNO/c7-5-2-1-4(9)3-6(5)8/h1-3,9H,8H2	InChI=1S/C6H6FNO/c7-5-2-1-4(9)3-6(5)8/h1-3,9H,8H2
