15
gdb 35015	2.79863	1.33234	1.08669	3.3313	78.31	-0.2439	0.0021	0.2461	1110.1648	0.112607	-379.597037	-379.589032	-379.588088	-379.629631	30.181	
C	 0.0241945037	-1.1896220096	-0.0151515675	-0.420368
C	 0.037269013	 0.0108300902	 0.0409830694	 0.345939
C	 0.0496681781	 1.4434292037	 0.0839876544	-0.281005
C	 0.5178994308	 2.2455432708	 1.2670303225	-0.05928
N	 1.5446922769	 1.5091983657	 2.0030342005	-0.317207
C	 2.4577682705	 1.5819165959	 0.8121477316	-0.23501
C	 1.3541468652	 2.2546290627	-0.0236837408	 0.153973
C	 1.5471782532	 3.2429584335	-1.0262168498	 0.188891
N	 1.7082832772	 4.057278656	-1.8342126401	-0.349651
H	 0.0066210753	-2.2508236032	-0.0535434209	 0.203727
H	-0.7575301595	 1.9314774693	-0.4567065637	 0.140996
H	-0.0862704333	 3.0280163927	 1.7105098762	 0.124757
H	 1.9120544996	 2.0627422687	 2.7687408275	 0.237428
H	 3.3053421203	 2.2533889651	 0.9652750326	 0.131283
H	 2.8061587992	 0.6073653086	 0.4606394883	 0.135526
102.5098	133.9674	172.2874	196.0017	310.6543	356.8418	474.3093	501.9362	549.9309	588.2838	619.4612	626.4543	665.483	761.0101	789.9759	830.3741	902.6512	955.0897	984.1755	1014.6832	1035.5413	1058.8294	1093.0248	1152.0366	1205.5744	1251.0513	1271.0111	1354.0717	1364.1351	1451.387	1500.5107	2242.255	2339.7056	3064.2121	3122.5387	3147.5876	3193.1292	3502.7212	3543.3883
C#CC1C2NCC12C#N	C#C[C@H]1[C@H]2NC[C@@]12C#N	
InChI=1S/C7H6N2/c1-2-5-6-7(5,3-8)4-9-6/h1,5-6,9H,4H2	InChI=1S/C7H6N2/c1-2-5-6-7(5,3-8)4-9-6/h1,5-6,9H,4H2/t5-,6+,7-/m0/s1
