17
gdb 31566	3.41286	1.09507	0.83686	0.7223	73.01	-0.158	0.0612	0.2192	1334.2889	0.135513	-455.151422	-455.141895	-455.140951	-455.185457	34.791	
C	-0.0393570904	 0.8378700498	-0.4744590644	-0.243328
O	 0.1870952305	 1.0484514677	 0.9074129693	-0.261106
C	 0.7582551848	 0.0068167503	 1.5535959745	 0.426414
C	 1.1722247535	-1.2413239173	 1.1522070886	-0.380023
C	 1.6634371868	-1.9090125433	 2.3288082852	 0.178417
N	 2.2711383479	-3.1829319943	 2.3699698114	-0.618695
C	 1.5268080136	-1.0420770884	 3.3765502501	 0.229029
O	 1.8029568064	-1.2018963825	 4.706722889	-0.443029
N	 0.9978298237	 0.1561925788	 2.8900510542	-0.391209
H	-0.7063304741	-0.0181320705	-0.6395642397	 0.124323
H	-0.5081862416	 1.7465320243	-0.8547825053	 0.132521
H	 0.9038052518	 0.6603100379	-1.0071764239	 0.125568
H	 1.1652615486	-1.6364587521	 0.1498070655	 0.089145
H	 1.7541154499	-3.858646895	 1.8183970485	 0.236436
H	 2.3081600035	-3.5233538631	 3.3247085818	 0.237445
H	 2.7144034695	-0.9343769276	 4.8794294448	 0.298271
H	 0.6124596556	 0.8889562454	 3.4601848602	 0.25982
74.7994	180.7269	188.3583	199.6413	225.3718	246.967	256.0363	275.8793	320.9547	385.3382	405.3738	528.9391	635.8306	640.1699	661.5136	665.0053	714.6307	809.4498	851.0024	1012.1772	1066.6333	1091.5475	1182.8648	1184.9739	1206.7791	1228.2452	1244.9634	1276.9256	1353.0412	1465.0097	1482.1743	1484.38	1490.7289	1511.907	1607.1544	1646.8425	1697.0999	3005.9597	3063.3375	3138.0651	3261.5497	3506.0586	3592.1996	3683.0241	3733.5816
COC1=CC(N)=C(O)N1	COc1cc(N)c(O)[nH]1	
InChI=1S/C5H8N2O2/c1-9-4-2-3(6)5(8)7-4/h2,7-8H,6H2,1H3	InChI=1S/C5H8N2O2/c1-9-4-2-3(6)5(8)7-4/h2,7-8H,6H2,1H3
