17
gdb 87030	2.15487	1.61021	1.07829	3.5967	76.05	-0.2354	0.0142	0.2495	1141.1858	0.13368	-417.975467	-417.965985	-417.965041	-418.009517	35.212	
C	-0.267991862	 1.5528435587	 0.2092868999	-0.32423
N	-0.1774867758	 0.1005499362	 0.3187643062	-0.137821
C	 1.0212701734	-0.5451542472	-0.1711362456	-0.250582
C	 0.7467639307	-0.4865281748	 1.3152701064	 0.012619
C	 1.584075521	 0.3591183248	 2.1234390336	 0.272103
C	 2.2552439357	 1.0896950868	 2.8017920447	-0.409113
C	 0.2451934334	-1.7535614516	 2.009615833	 0.348862
N	-0.9078104157	-2.2387122838	 1.4773738138	-0.537083
O	 0.8636853405	-2.2733264903	 2.9141571826	-0.353162
H	 0.6946744502	 2.0619928962	 0.347551764	 0.126374
H	-0.6617077546	 1.7964494581	-0.7817613349	 0.129173
H	-0.9674599427	 1.9259969286	 0.9624029876	 0.135075
H	 0.8815880051	-1.4862701245	-0.6956068184	 0.132051
H	 1.8353278713	 0.0812817362	-0.5303729226	 0.128792
H	 2.8603225146	 1.7143745646	 3.4112673351	 0.197728
H	-1.4388708223	-1.645060601	 0.8591521919	 0.26824
H	-1.3388347628	-3.0282548972	 1.9280426229	 0.260973
66.0976	141.8846	153.8335	176.2025	206.0049	249.5304	339.7018	383.5001	398.9037	426.6687	466.4479	540.69	604.2776	610.0814	637.228	668.9433	671.1825	727.0467	836.2912	894.7642	924.6786	1044.3359	1093.2333	1115.284	1125.7346	1147.0854	1207.4032	1230.6716	1329.4027	1373.8846	1447.9665	1488.1588	1493.0317	1503.2158	1582.8716	1809.1997	2239.5647	3015.201	3091.3831	3100.0522	3118.0809	3195.3591	3502.0109	3577.8523	3723.7458
CN1CC1(C#C)C(N)=O	CN1C[C@]1(C#C)C(=O)N	
InChI=1S/C6H8N2O/c1-3-6(5(7)9)4-8(6)2/h1H,4H2,2H3,(H2,7,9)	InChI=1S/C6H8N2O/c1-3-6(5(7)9)4-8(6)2/h1H,4H2,2H3,(H2,7,9)/t6-,8?/m1/s1
