20
gdb 112920	3.64625	1.02576	0.83992	3.2985	76.89	-0.2475	0.0157	0.2631	1380.5865	0.172082	-440.306623	-440.297835	-440.296891	-440.340168	33.214	
C	 0.0185996822	 1.5105948606	 0.1393380566	-0.40377
C	 0.0004615392	 0.0034646057	-0.0468730598	 0.136746
C	 0.7373909902	-0.4880793906	-1.2906535433	-0.242651
C	 0.7753109074	-2.0176965067	-1.2918923529	 0.017704
C	 1.7411265162	-2.6035211116	-2.3313783365	-0.056543
O	 1.7727018097	-4.0088876336	-2.2547712596	-0.425156
N	 1.1777681017	-2.5612010657	 0.0090457636	-0.297538
C	 1.0858387751	-1.8230745123	 1.0319188858	 0.130682
O	 0.598092459	-0.5698011861	 1.1411565454	-0.239472
H	 1.0472206087	 1.8818500123	 0.1749023325	 0.128411
H	-0.4993479634	 1.9985840556	-0.6917306302	 0.122338
H	-0.4811152631	 1.7885936727	 1.0710792401	 0.13124
H	-1.0382579561	-0.353640584	-0.0793733476	 0.092765
H	 0.2422331073	-0.1023606805	-2.1879698818	 0.108709
H	 1.7597724547	-0.0889845407	-1.2814074481	 0.108835
H	-0.2231123095	-2.4162540039	-1.5207782871	 0.09222
H	 1.4163299567	-2.3345457962	-3.34296576	 0.098512
H	 2.7410717802	-2.163830553	-2.1712573171	 0.079216
H	 1.8356818911	-4.2019641768	-1.3084070298	 0.29015
H	 1.4311636927	-2.172425075	 2.0037450699	 0.127601
97.4964	110.6373	146.5964	222.4331	233.6239	300.6655	363.7658	381.9124	452.2164	496.8413	520.3015	575.2028	588.0095	782.1926	824.3999	858.4522	918.5694	934.5117	972.0937	991.5772	1039.4881	1086.1433	1092.1749	1121.7588	1157.4327	1167.3692	1183.7399	1229.5758	1246.4808	1273.229	1343.3167	1359.7748	1378.4163	1383.7401	1396.6662	1410.6768	1417.6805	1450.8506	1476.7955	1485.896	1498.6499	1507.6175	1731.1925	2951.9778	3005.8663	3010.7674	3030.9967	3044.4959	3062.4756	3083.1779	3119.9621	3123.9868	3153.8419	3737.445
CC1CC(CO)N=CO1	C[C@H]1C[C@@H](CO)N=CO1	
InChI=1S/C6H11NO2/c1-5-2-6(3-8)7-4-9-5/h4-6,8H,2-3H2,1H3	InChI=1S/C6H11NO2/c1-5-2-6(3-8)7-4-9-5/h4-6,8H,2-3H2,1H3/t5-,6-/m0/s1
