19
gdb 81186	3.2712	1.04038	0.93233	2.5389	76.85	-0.2451	-0.0228	0.2224	1289.3151	0.158052	-422.981874	-422.973179	-422.972234	-423.016175	32.457	
O	 0.1905908191	 1.3971436492	-0.1267106189	-0.44845
C	 0.0360679795	 0.0103344133	-0.0500647314	 0.151461
C	 0.0650741554	-0.7595669088	 1.304891644	-0.100427
C	-1.364721141	-0.2082692929	 1.584838447	-0.296127
C	-1.3821845746	-0.6442737772	 0.0796667511	 0.276188
C	-2.5154200774	-0.5308449849	-0.919718568	-0.40475
C	-3.7930603297	-1.1677990412	-0.420243146	 0.159727
O	-4.3628829197	-2.0829639968	-0.9559503495	-0.237601
C	-0.6237707818	-1.9248615127	 0.5406706863	-0.252538
H	-0.2358403234	 1.811399936	 0.6302507926	 0.284298
H	 0.6634033732	-0.4050723005	-0.8437008971	 0.08548
H	 0.8925395989	-0.8343865214	 2.0104579812	 0.080008
H	-1.981129259	-0.7949127125	 2.2708877082	 0.103035
H	-1.4767638637	 0.8576573175	 1.8099529663	 0.078437
H	-2.7127691141	 0.5367193856	-1.0972205351	 0.121801
H	-2.2415919927	-0.9928520626	-1.8732457086	 0.124264
H	-4.1880536157	-0.7228431995	 0.522994686	 0.072715
H	-0.0290772811	-2.4434847602	-0.2166862858	 0.09832
H	-1.1929295922	-2.6266418303	 1.1538083177	 0.104158
51.4353	59.3147	150.4378	213.108	250.5234	306.5777	355.6503	466.7945	470.725	538.7195	611.6981	651.3408	756.9981	796.1412	854.167	873.5319	914.093	925.3563	950.3701	1005.1711	1021.3212	1045.6732	1062.5765	1087.7096	1138.4774	1143.717	1148.7814	1176.5826	1204.5084	1226.6135	1239.6975	1251.3363	1287.4709	1293.5066	1324.2427	1429.604	1450.77	1456.6808	1506.4665	1546.6406	1834.15	2857.3916	3010.0809	3041.1997	3056.7483	3079.3398	3091.9361	3101.1262	3116.8405	3125.4763	3817.8841
OC1C2CC1(CC=O)C2	O[C@H]1[C@H]2C[C@]1(CC=O)C2	
InChI=1S/C7H10O2/c8-2-1-7-3-5(4-7)6(7)9/h2,5-6,9H,1,3-4H2	InChI=1S/C7H10O2/c8-2-1-7-3-5(4-7)6(7)9/h2,5-6,9H,1,3-4H2/t5-,6-,7+/m0/s1
