20
gdb 107385	3.08535	1.18418	0.96656	0.9224	81.75	-0.2126	0.0206	0.2332	1282.3804	0.170541	-403.128924	-403.119934	-403.11899	-403.162571	34.02	
C	 0.0040063833	 1.5073704862	 0.1187685948	-0.491208
C	-0.0082568814	 0.0176221944	-0.0026534062	 0.30671
C	-0.0054333401	-0.7281582574	-1.1104080331	-0.255266
C	 0.0333118191	-2.1809312932	-0.7718073333	 0.335421
C	-0.8125851241	-3.1555696541	-1.5496281767	-0.176727
O	-0.318042759	-3.1810283957	-2.8835656976	-0.423503
C	 1.2536618423	-2.6164450079	-0.0331182433	-0.270734
N	 0.0300045892	-2.2791024329	 0.7081317474	-0.158426
C	-0.0110417566	-0.8904426181	 1.2159282175	-0.257081
H	 0.9134911742	 1.8591238923	 0.6226904413	 0.127077
H	-0.0478001737	 1.9924056292	-0.8595069452	 0.127432
H	-0.8414430359	 1.8625308177	 0.7220901841	 0.125572
H	-0.0192777757	-0.367516174	-2.1311659415	 0.103773
H	-0.7557555432	-4.1444030112	-1.0715641833	 0.094715
H	-1.8645998798	-2.8305214409	-1.5214187813	 0.087966
H	-0.917721878	-3.7141200194	-3.4133611479	 0.28877
H	 1.523726573	-3.6690142418	 0.0076256439	 0.110983
H	 2.0904673627	-1.9220521418	-0.0021649127	 0.107476
H	 0.8392420363	-0.7029346744	 1.8854819816	 0.109152
H	-0.9198749024	-0.751683477	 1.8190200217	 0.107898
72.8679	144.7733	160.2012	185.0815	245.8669	277.3368	318.5564	377.2753	402.3994	454.813	501.3621	597.5836	663.931	773.6739	838.446	853.8381	881.7925	911.849	948.0737	981.2305	990.5774	1022.3354	1058.1162	1067.0886	1093.1323	1115.5666	1152.8878	1162.3159	1214.8847	1221.0435	1241.9876	1268.648	1341.1537	1356.1863	1361.4801	1413.2382	1465.5006	1479.6695	1486.7983	1487.9451	1500.7129	1520.8319	1712.0172	2974.21	2998.7434	3013.9259	3016.4173	3032.802	3060.5989	3093.9926	3112.1471	3182.8931	3215.8942	3832.1056
CC1=CC2(CO)CN2C1	CC1=C[C@@]2(CO)CN2C1	
InChI=1S/C7H11NO/c1-6-2-7(5-9)4-8(7)3-6/h2,9H,3-5H2,1H3	InChI=1S/C7H11NO/c1-6-2-7(5-9)4-8(7)3-6/h2,9H,3-5H2,1H3/t7-,8?/m0/s1
