20
gdb 121466	5.1132	0.70569	0.65431	1.255	79.63	-0.2523	0.0233	0.2755	1762.5094	0.170741	-440.296868	-440.287388	-440.286444	-440.333081	33.148	
C	 0.0634867977	 1.5723867321	 0.0971547369	-0.380191
C	-0.0333157409	 0.0459789131	 0.0493705884	-0.152265
C	 0.4867339943	-0.5342524253	-1.2698567293	-0.152408
N	 0.4512527573	-1.9911043822	-1.2339663521	-0.32454
C	-0.0591919893	-2.6366815965	-2.1805884863	 0.401453
C	-0.1594618516	-4.1449454674	-2.2879885564	-0.18961
O	-1.1030287783	-4.3462465811	-3.3314143505	-0.23693
C	-1.0046697201	-3.2149192548	-4.1522037182	 0.022925
O	-0.6363793476	-2.1207406582	-3.3160447109	-0.242875
H	 1.1012537031	 1.9085462273	-0.0086155484	 0.113193
H	-0.5161115206	 2.034898202	-0.7097135081	 0.113674
H	-0.3169092367	 1.9643717643	 1.045247395	 0.112672
H	 0.5344290709	-0.3991223635	 0.8742785712	 0.105147
H	-1.0750575728	-0.2685007515	 0.1874941585	 0.096942
H	-0.0783195617	-0.1165344968	-2.1139183122	 0.104883
H	 1.5345437771	-0.2299255317	-1.4020346081	 0.103621
H	 0.8206096644	-4.5807789502	-2.5359727591	 0.123075
H	-0.5301820604	-4.6034685995	-1.3704030627	 0.147882
H	-0.2326624548	-3.3385780418	-4.9298374151	 0.10246
H	-1.9773268497	-3.0112654082	-4.6075845225	 0.130892
21.6874	75.3392	97.5988	135.5268	212.2966	230.8755	239.2658	301.6261	360.1281	519.7735	588.5951	710.7774	749.4712	755.9567	854.188	894.1553	898.6518	981.4261	1008.6949	1027.7539	1050.1869	1073.3253	1105.7936	1127.5864	1146.1255	1175.9123	1202.7437	1232.4632	1239.4685	1269.9117	1314.0363	1333.1496	1348.7609	1399.4154	1411.7419	1437.4175	1487.5551	1496.9063	1499.6965	1500.6816	1513.026	1544.6759	1822.2715	2967.8119	2994.0103	3000.0464	3028.4039	3032.3756	3037.0017	3069.2554	3096.1405	3096.9383	3103.5725	3124.3835
CCCN=C1COCO1	CCCN=C1COCO1	
InChI=1S/C6H11NO2/c1-2-3-7-6-4-8-5-9-6/h2-5H2,1H3	InChI=1S/C6H11NO2/c1-2-3-7-6-4-8-5-9-6/h2-5H2,1H3
