17
gdb 36676	2.90354	0.94907	0.94123	3.9335	78.49	-0.2379	0.0239	0.2619	1331.9531	0.134934	-380.819213	-380.809996	-380.809052	-380.85415	33.499	
C	 0.5011196125	-0.3593582478	 1.1859721955	-0.466974
C	 0.165985291	 0.5036741142	 0.4183618668	 0.320537
C	-0.2176045	 1.5444265091	-0.5457314042	-0.318707
N	 0.8515722284	 2.4405809819	-0.9902709931	-0.28877
C	 1.3600852305	 3.3296145732	 0.0088205947	 0.052837
C	 2.368406936	 2.9443099697	 1.0605866052	-0.292276
C	 2.786041009	 3.843957158	-0.102536272	-0.203941
C	 3.6406894542	 3.3038637189	-1.120693316	 0.286413
N	 4.3078385441	 2.8463383409	-1.9488840881	-0.343319
H	 0.7897153137	-1.1219215964	 1.8666819739	 0.202805
H	-0.6438100935	 1.0678766849	-1.4359585041	 0.142948
H	-1.0184143806	 2.1602799957	-0.1176786484	 0.138356
H	 1.5973165516	 1.9190785778	-1.4387151904	 0.243957
H	 0.6351104568	 4.087589344	 0.2970152055	 0.112129
H	 2.3178707469	 3.4047054273	 2.0409191985	 0.127707
H	 2.7405018654	 1.9277963011	 1.0460387927	 0.149013
H	 2.9494472742	 4.8957055276	 0.1034288832	 0.137284
34.3789	89.8686	114.3087	196.3155	209.294	256.7986	334.9704	387.8859	412.8597	547.6902	578.7662	623.7398	649.79	664.3277	701.2365	752.7014	818.2849	851.986	922.3738	961.0368	972.1564	1014.4883	1057.7246	1105.9097	1121.7635	1130.5484	1170.7051	1236.4475	1310.8546	1355.493	1368.2964	1397.6262	1462.5872	1475.2137	1526.1637	2227.0087	2347.5076	3030.2992	3066.1766	3133.6658	3147.2675	3177.4326	3246.3964	3502.2407	3536.5464
C#CCNC1CC1C#N	C#CCN[C@H]1C[C@H]1C#N	
InChI=1S/C7H8N2/c1-2-3-9-7-4-6(7)5-8/h1,6-7,9H,3-4H2	InChI=1S/C7H8N2/c1-2-3-9-7-4-6(7)5-8/h1,6-7,9H,3-4H2/t6-,7-/m0/s1
