18
gdb 10689	2.33095	1.93568	1.50123	1.3206	73.95	-0.25	0.0421	0.2921	957.6639	0.151173	-347.760302	-347.751349	-347.750405	-347.793329	33.751	
C	 0.2458808646	 1.4193398377	 0.3311977414	-0.404788
C	-0.0795341336	-0.0309648109	-0.030569088	 0.064422
O	-1.4751964858	-0.2274105341	-0.1980846762	-0.433593
C	 0.6948811005	-0.5171727741	-1.2613734284	 0.161666
C	 2.1170242838	-1.0184539365	-1.0657915644	-0.299659
C	 1.0183823873	-1.9986717437	-1.3568433585	-0.302311
C	 0.3640075221	 0.1777280051	-2.4771548893	 0.258482
C	 0.0337971441	 0.7753426579	-3.4692903694	-0.464285
H	 1.3087639282	 1.539716402	 0.5642322609	 0.114225
H	 0.0058700193	 2.0869441845	-0.5030485905	 0.123045
H	-0.3418615519	 1.7245899072	 1.2007021731	 0.121947
H	 0.1982077389	-0.6820553496	 0.8071070055	 0.08192
H	-1.7340558016	 0.2469638137	-0.9978318396	 0.282219
H	 2.837191787	-0.8018794036	-1.8455946552	 0.126882
H	 2.5147340204	-0.9732998009	-0.0571578181	 0.119823
H	 0.6535894078	-2.6270902095	-0.551877638	 0.12688
H	 0.9860063388	-2.4545995969	-2.3389956996	 0.12758
H	-0.2334660298	 1.2957826617	-4.3554867457	 0.195545
74.3595	137.9576	181.5369	226.7121	240.1333	267.445	323.8649	360.8849	430.3137	475.7611	563.8922	569.7685	593.0484	659.9598	684.7093	779.124	869.0328	898.6976	936.9142	952.7063	975.8091	1032.4321	1061.3749	1083.5468	1102.0275	1123.2344	1191.4569	1252.978	1281.8553	1328.7934	1372.003	1403.2766	1425.8627	1466.4677	1490.5583	1495.392	1496.293	2223.9618	3037.4788	3038.2214	3108.5263	3122.8068	3135.798	3142.2603	3221.8783	3236.6141	3500.9532	3778.5107
CC(O)C1(CC1)C#C	C[C@@H](O)C1(CC1)C#C	
InChI=1S/C7H10O/c1-3-7(4-5-7)6(2)8/h1,6,8H,4-5H2,2H3	InChI=1S/C7H10O/c1-3-7(4-5-7)6(2)8/h1,6,8H,4-5H2,2H3/t6-/m1/s1
