15
gdb 57839	2.53272	1.12437	1.03707	1.6701	63.29	-0.2602	-0.1248	0.1354	1212.3257	0.107493	-494.915745	-494.905791	-494.904847	-494.951995	33.397	
C	-0.5758346674	 1.6721772834	-0.164441295	-0.415193
C	-0.0959962765	 0.2282531322	 0.0589271786	 0.050965
O	 0.5552069137	 0.1017326528	 1.2925167408	-0.43518
C	-1.2588656599	-0.7438128403	-0.0117914231	 0.292335
O	-1.5468924182	-1.4718846505	 0.9108778805	-0.306957
C	-2.0369598539	-0.871885853	-1.3259206872	 0.230416
O	-1.4772392508	-0.9740585583	-2.3903349287	-0.257336
C	-3.5694069115	-0.8860731643	-1.2567576037	 0.088994
O	-4.1804302804	-0.4480229921	-0.321430726	-0.197846
H	 0.2804187348	 2.3424794877	-0.0632864677	 0.14736
H	-0.9996145222	 1.8037048674	-1.1647212612	 0.127023
H	-1.3228122068	 1.9501043898	 0.5844825032	 0.139317
H	 0.5838587954	-0.0426149729	-0.7663821804	 0.117982
H	 0.083417476	-0.5882135259	 1.7837983119	 0.297431
H	-4.0413956021	-1.2662738463	-2.186536192	 0.120689
32.2609	63.7006	110.142	139.3069	154.0255	219.0431	258.1667	323.5565	339.7367	371.0141	438.6142	500.9967	547.6986	582.642	711.794	797.8866	919.0677	955.886	1026.0342	1044.6767	1091.0264	1175.5598	1249.8282	1283.4695	1348.3679	1367.8097	1397.8931	1422.1871	1488.279	1496.9344	1784.7811	1798.667	1829.7818	2930.8958	2973.4445	3045.1957	3122.3215	3135.0386	3706.4051
CC(O)C(=O)C(=O)C=O	C[C@@H](O)C(=O)C(=O)C=O	
InChI=1S/C5H6O4/c1-3(7)5(9)4(8)2-6/h2-3,7H,1H3	InChI=1S/C5H6O4/c1-3(7)5(9)4(8)2-6/h2-3,7H,1H3/t3-/m1/s1
