17
gdb 46589	2.6743	1.84863	1.43731	3.1531	71.69	-0.2066	-0.0176	0.189	938.9289	0.138166	-417.949614	-417.942482	-417.941538	-417.981003	28.666	
O	-0.0172556688	-0.0239838577	-0.0273761994	-0.313181
C	 0.0030676255	 1.17906022	-0.0250217531	 0.353514
C	-1.2715953827	 2.0933135661	-0.1142028027	-0.304941
N	-0.8720977996	 3.3731095592	-0.74977507	-0.361775
C	 0.5687413595	 3.4332588683	-0.5936083367	 0.246934
C	 1.1337674961	 3.3767937194	 0.7728069817	-0.355876
C	 1.1622594955	 2.1107649263	-0.0896577866	 0.112337
N	 2.191792041	 2.1268255516	-1.135395687	-0.354345
C	 1.6653540047	 3.4253907761	-1.6690575486	-0.230755
H	-2.0499227059	 1.5828149887	-0.6845282374	 0.138957
H	-1.6711720073	 2.2631839522	 0.8938044411	 0.134729
H	-1.0866791383	 3.327397127	-1.7402151768	 0.229412
H	 2.0949291007	 3.8313693568	 0.9941168318	 0.121102
H	 0.4253057807	 3.3977932236	 1.5926927957	 0.13466
H	 3.143884855	 2.1662253666	-0.7832414995	 0.224541
H	 1.2801696874	 3.3067934347	-2.6880879412	 0.114487
H	 2.3605462364	 4.272501501	-1.6504057514	 0.1102
110.948	172.5443	270.8435	336.2634	379.3911	459.6449	510.9549	576.0844	622.4582	663.5343	692.6592	737.0614	798.8112	816.6733	846.8259	916.9916	928.0411	951.3393	959.2672	1018.5239	1036.649	1046.4247	1055.2258	1094.8944	1153.5997	1200.3248	1265.9152	1281.2354	1295.7858	1333.6215	1367.1977	1379.2304	1447.748	1475.1205	1482.4498	1507.7053	1836.2521	3023.7506	3029.8659	3070.1947	3117.0751	3126.6287	3223.4174	3500.9021	3527.6734
O=C1CNC23CC12NC3	O=C1CN[C@@]23C[C@@]12NC3	
InChI=1S/C6H8N2O/c9-4-1-7-5-2-6(4,5)8-3-5/h7-8H,1-3H2	InChI=1S/C6H8N2O/c9-4-1-7-5-2-6(4,5)8-3-5/h7-8H,1-3H2/t5-,6-/m1/s1
