14
gdb 25089	3.38268	1.66118	1.13415	4.904	63.13	-0.2055	0.0415	0.247	985.8409	0.103343	-473.861764	-473.854914	-473.85397	-473.893398	25.514	
O	 0.0447463404	-0.0054690403	-0.3116324488	-0.408064
C	 0.0382316138	 1.1865379423	-0.1685538952	 0.492317
O	-1.0858955121	 1.9845256942	-0.1593244856	-0.233139
C	-0.7205208582	 3.3232264476	 0.0662779807	-0.195346
C	 0.6101043149	 3.3500847909	 0.1806399304	 0.383866
O	 1.6034629867	 4.2197617201	 0.4403029004	-0.274752
C	 2.8473071221	 3.5118994396	 0.1913453324	-0.110309
C	 2.5105141644	 1.9961318624	 0.2606455654	-0.195562
N	 1.0887517317	 2.0631543264	 0.007980778	-0.182668
H	-1.5050517068	 4.0529291733	 0.1112145891	 0.155006
H	 3.2106274156	 3.7903384182	-0.8033766925	 0.136302
H	 3.5674118511	 3.8318461901	 0.9449037683	 0.141434
H	 3.0399069452	 1.4201190097	-0.5011733031	 0.149997
H	 2.7257654612	 1.5649501155	 1.2446559605	 0.140918
111.0818	151.7304	179.5596	311.051	365.9038	593.8768	607.8534	634.8458	639.4289	673.208	747.774	753.5931	817.2488	876.9306	946.1791	1009.1296	1031.8963	1053.1169	1122.7997	1140.3524	1211.1749	1249.6661	1270.152	1294.1278	1361.6003	1391.8677	1453.3643	1514.544	1529.1014	1757.5009	1888.3033	3043.9877	3054.7793	3110.3345	3137.241	3326.8815
O=C1OC=C2OCCN12	O=c1occ2OCCn12	
InChI=1S/C5H5NO3/c7-5-6-1-2-8-4(6)3-9-5/h3H,1-2H2	InChI=1S/C5H5NO3/c7-5-6-1-2-8-4(6)3-9-5/h3H,1-2H2
