20
gdb 116421	2.82806	1.30304	0.9437	4.425	76.66	-0.2446	0.0089	0.2535	1248.0744	0.1733	-440.308276	-440.299861	-440.298917	-440.34159	32.277	
O	 0.1660938157	 1.3801692563	-0.0667489659	-0.427453
C	 0.0764726669	-0.0206687305	-0.0265298941	-0.066077
C	-1.3700144527	-0.5415752286	 0.0667574501	-0.097082
C	-1.4532232766	-2.0595557569	-0.1518931271	-0.224098
C	-2.8831118199	-2.5464609895	 0.0808958537	-0.225456
C	-3.3139413758	-2.1725399057	 1.4898965106	-0.068867
O	-3.1524080735	-0.7725425074	 1.7775162878	-0.253501
C	-2.0416495808	-0.1079426615	 1.3610557799	 0.412514
N	-1.6412328646	 0.9212121448	 1.9906311513	-0.526559
H	-0.2840257362	 1.67641416	 0.7427044244	 0.294575
H	 0.5189460659	-0.3987604391	-0.9559182516	 0.095612
H	 0.657046789	-0.4482748039	 0.8089568308	 0.08152
H	-1.9426059103	-0.0509393504	-0.7346710455	 0.11408
H	-1.1139938604	-2.2998941077	-1.1643575434	 0.108885
H	-0.7720031373	-2.5738028566	 0.5401678631	 0.10528
H	-3.5615234936	-2.0877607685	-0.6484741602	 0.112848
H	-2.9624682134	-3.6326714369	-0.0364321936	 0.107757
H	-4.3731158281	-2.3753608167	 1.6646533535	 0.121731
H	-2.7328776574	-2.7428304807	 2.22827214	 0.110908
H	-2.2191589271	 1.0892986795	 2.8150092062	 0.223383
65.6655	121.4088	174.5181	235.5377	291.2462	335.8419	368.0397	435.8679	473.4252	540.3242	594.0557	651.305	669.3889	752.8466	877.2352	892.6675	902.3023	931.0974	943.3884	981.4528	1053.1122	1091.3405	1104.0436	1105.2721	1134.8321	1142.993	1205.2081	1229.7209	1246.4562	1284.439	1294.042	1313.6854	1365.514	1380.1422	1388.3989	1399.8153	1434.8979	1480.891	1483.494	1493.3753	1504.53	1514.6262	1723.2096	2956.3195	3002.4372	3010.3829	3019.5056	3035.6392	3051.7999	3077.4391	3083.5073	3102.6798	3478.3287	3640.3098
OCC1CCCOC1=N	OC[C@H]1CCCO[C]1[NH]	
InChI=1S/C6H11NO2/c7-6-5(4-8)2-1-3-9-6/h5,7-8H,1-4H2	InChI=1S/C6H11NO2/c7-6-5(4-8)2-1-3-9-6/h5,7-8H,1-4H2/t5-/m1/s1
