14
gdb 19989	3.99067	1.38344	1.13829	3.0211	64.15	-0.2653	0.0118	0.2772	1016.1816	0.10478	-382.449584	-382.441994	-382.44105	-382.482069	27.4	
C	-0.0940689832	-1.1762902554	-0.41302621	-0.420981
C	-0.0014480209	 0.0061878065	-0.2183672389	 0.337216
C	 0.0793045547	 1.4290300224	-0.0194814271	-0.166328
O	 0.2627998137	 1.9080955901	 1.3219650005	-0.240339
C	 1.3289024116	 2.107257693	 0.3970961198	 0.052097
C	 2.5917813213	 1.3571829501	 0.6470357544	 0.052117
C	 3.804375697	 1.6521705906	-0.1281342473	-0.179057
O	 3.6623280749	 2.1202107337	 1.2110152623	-0.230554
H	-0.1750179197	-2.2226343527	-0.577523809	 0.207235
H	-0.6310164023	 2.0134755608	-0.6039576614	 0.121634
H	 1.472512823	 3.1419536957	 0.0821417452	 0.109088
H	 2.4615800638	 0.3630229473	 1.0699638488	 0.117948
H	 4.5424409945	 0.8665348407	-0.2803255582	 0.1236
H	 3.7804012716	 2.4223996772	-0.8983345391	 0.116325
63.0367	110.6196	185.4709	245.1483	292.0444	368.3721	474.2183	553.294	607.4231	632.6627	677.3144	789.255	839.9033	872.2215	882.1071	954.1289	993.9242	1062.127	1090.7401	1133.217	1155.3112	1160.5551	1189.3184	1277.4123	1285.5926	1329.646	1398.0022	1481.4428	1531.1979	2240.6326	3084.1663	3103.6811	3115.2509	3140.8353	3172.2562	3500.7645
C#CC1OC1C1CO1	C#C[C@H]1O[C@H]1[C@H]1CO1	
InChI=1S/C6H6O2/c1-2-4-6(8-4)5-3-7-5/h1,4-6H,3H2	InChI=1S/C6H6O2/c1-2-4-6(8-4)5-3-7-5/h1,4-6H,3H2/t4-,5-,6-/m1/s1
