18
gdb 92311	2.36291	1.94618	1.25742	3.7851	71.48	-0.2205	0.0021	0.2226	1013.3969	0.149061	-439.099349	-439.091515	-439.09057	-439.131871	29.447	
C	-0.1324256669	 1.5254357548	-0.0872114187	-0.328528
N	 0.0924781964	 0.0969737066	 0.0100652521	-0.061997
C	 1.0311100735	-0.5705674057	-0.9128796322	-0.193134
C	 1.4955134814	-1.487494157	 0.2519372672	-0.048935
C	 2.9631748436	-1.3938504299	 0.6578145225	-0.105199
O	 3.1072309486	-0.1440352525	 1.3573952446	-0.222586
C	 1.9027629552	 0.344661697	 1.7713299503	 0.428948
O	 1.8125264321	 1.3264240355	 2.4508735132	-0.344056
C	 0.7615668978	-0.4994597371	 1.1837580488	-0.14177
H	 0.7911134567	 2.1277106477	-0.0660371582	 0.11282
H	-0.6603636628	 1.7364498227	-1.0232944466	 0.119621
H	-0.76449749	 1.8534281923	 0.7429315478	 0.136137
H	 0.5507884486	-1.0505884467	-1.7718645667	 0.109366
H	 1.8409965492	 0.0805904727	-1.280545277	 0.097622
H	 1.11943312	-2.5083149921	 0.211499709	 0.094835
H	 3.2558266912	-2.2050336402	 1.3344275981	 0.119669
H	 3.6528160439	-1.3807463043	-0.190672406	 0.125662
H	 0.0874971217	-0.8384392138	 1.9759174019	 0.101524
88.5005	156.9666	166.2333	195.2326	318.4708	346.3527	376.6813	476.9442	572.4314	695.0083	714.9325	732.7223	813.5901	854.7932	902.765	951.5491	984.2412	1002.0476	1006.2786	1079.1496	1110.1277	1142.6709	1165.9416	1172.3446	1197.0736	1220.8249	1239.6606	1261.6172	1267.0983	1301.7871	1326.4715	1340.9164	1402.5151	1451.5047	1484.6767	1501.2238	1517.1432	1521.0917	1868.7407	2967.1868	2971.6087	3038.5703	3059.7161	3063.6723	3065.4599	3094.3501	3111.8299	3129.2934
CN1CC2COC(=O)C12	CN1C[C@H]2COC(=O)[C@@H]12	
InChI=1S/C6H9NO2/c1-7-2-4-3-9-6(8)5(4)7/h4-5H,2-3H2,1H3	InChI=1S/C6H9NO2/c1-7-2-4-3-9-6(8)5(4)7/h4-5H,2-3H2,1H3/t4-,5-/m0/s1
