21
gdb 63800	2.94105	1.67399	1.49431	1.4419	80.42	-0.2228	0.0832	0.3059	999.666	0.183163	-387.070773	-387.062901	-387.061956	-387.102411	32.556	
C	-0.0737421449	 1.5622746072	-0.0209084643	-0.430518
C	-0.0031743441	 0.0394185233	 0.0418299185	 0.382099
C	-1.4086379772	-0.5702286267	-0.0484002196	-0.422241
O	 0.785591494	-0.4186473564	-1.0904897266	-0.306912
C	 1.5104491615	-1.5487007134	-0.6632426894	 0.109404
C	 2.5819451796	-1.3842153413	 0.39936669	-0.104514
C	 2.2901244898	-0.1198484857	 1.2035750005	-0.249772
C	 0.780060504	-0.5357420819	 1.2394440244	-0.079442
C	 1.1947182083	-1.9475935918	 0.7352578757	-0.128686
H	 0.9195198332	 2.0142945799	 0.0017005257	 0.121412
H	-0.5648525444	 1.8762239503	-0.9466814785	 0.123137
H	-0.6547143297	 1.9538096113	 0.8202359245	 0.110442
H	-1.8836054591	-0.2767836506	-0.9889698025	 0.119719
H	-1.3641587979	-1.6624099565	-0.0171936691	 0.11838
H	-2.0397998627	-0.2275327387	 0.7785797187	 0.10756
H	 1.6654607636	-2.2869228672	-1.4412884387	 0.096495
H	 3.530081006	-1.9069555486	 0.3397748101	 0.079849
H	 2.7318012427	-0.1701950219	 2.201922326	 0.10024
H	 2.5468235639	 0.8410873377	 0.7487264861	 0.098939
H	 0.2676680905	-0.4457896851	 2.1967427684	 0.069036
H	 0.8744157929	-2.9184736639	 1.08868956	 0.085371
155.4263	194.9535	235.2147	238.7882	340.8983	355.7128	375.5878	478.8948	506.052	585.4428	723.8062	748.4136	759.8182	785.1693	816.2923	852.0969	903.012	926.0136	943.5035	963.9108	974.6268	1000.4591	1012.1482	1018.9221	1026.756	1064.7543	1079.7692	1127.0728	1142.9664	1175.0174	1201.6605	1219.9405	1232.5889	1246.4345	1284.2394	1312.5467	1336.3616	1395.6588	1399.1643	1418.8102	1474.0133	1484.1115	1491.2374	1499.7515	1509.9986	3035.7366	3045.5909	3054.3883	3102.2597	3105.5249	3112.1667	3117.5985	3119.7118	3132.6396	3169.2477	3185.1355	3201.3565
CC1(C)OC2C3CC1C23	CC1(C)O[C@H]2[C@H]3C[C@@H]1[C@@H]23	
InChI=1S/C8H12O/c1-8(2)5-3-4-6(5)7(4)9-8/h4-7H,3H2,1-2H3	InChI=1S/C8H12O/c1-8(2)5-3-4-6(5)7(4)9-8/h4-7H,3H2,1-2H3/t4-,5+,6-,7-/m0/s1
