13
gdb 43895	2.92605	1.50702	1.15898	1.6197	65.28	-0.2874	-0.0314	0.256	1010.1018	0.089204	-452.710903	-452.703703	-452.702758	-452.742857	26.583	
N	 0.0206133654	 1.0994027928	-0.5338148993	-0.529952
C	-0.0313720712	-0.0605613476	-0.0820879629	 0.445254
O	 0.9786476143	-0.9040806688	 0.3989647376	-0.288001
C	 0.040048366	-1.9872365125	 0.6334411328	 0.252674
C	-0.6296198356	-1.9056507997	 2.0190567665	-0.122316
O	-1.6443170198	-1.0051720896	 1.5142931264	-0.272203
C	-1.1347749058	-1.0737606941	 0.1739754396	-0.070336
C	 0.4576128238	-3.2498742944	 0.0746492215	 0.238515
N	 0.7661698112	-4.2766105933	-0.3562221878	-0.319601
H	 0.9670702332	 1.4829151057	-0.5263775569	 0.246773
H	-1.0691737349	-2.8481282676	 2.3603869276	 0.140707
H	-0.0047313953	-1.4613281262	 2.7987582927	 0.141749
H	-1.8881917613	-1.2763425346	-0.5854772177	 0.136739
100.601	158.2889	195.4904	251.7134	373.6414	416.2437	491.8472	530.9811	579.0299	658.1617	735.8788	828.35	872.4497	881.0964	957.8952	977.2184	1003.4109	1029.3657	1060.1118	1091.8068	1149.4579	1171.1272	1237.8898	1261.4456	1290.7447	1352.8288	1498.0787	1846.2465	2363.9845	3049.0412	3113.564	3142.287	3485.9605
N=C1OC2(COC12)C#N	[NH][C]1O[C@]2(CO[C@@H]12)C#N	
InChI=1S/C5H4N2O2/c6-1-5-2-8-3(5)4(7)9-5/h3,7H,2H2	InChI=1S/C5H4N2O2/c6-1-5-2-8-3(5)4(7)9-5/h3,7H,2H2/t3-,5-/m0/s1
