21
gdb 117249	4.48816	0.74359	0.70054	3.4297	79.52	-0.2341	-0.0155	0.2187	1703.7406	0.180612	-424.226394	-424.216292	-424.215348	-424.263454	34.996	
C	 0.1609475083	 1.6832402558	 0.006029966	-0.386715
C	-0.0328968527	 0.1655464513	 0.0337873051	-0.160201
C	 0.7944435816	-0.5175113783	 1.12255986	-0.297504
C	 0.6626392171	-2.0334607185	 1.1410841459	 0.348796
O	 0.1136558949	-2.6594497405	 0.2665899022	-0.296231
C	 1.2386029271	-2.7234319828	 2.3771865424	 0.050569
C	 0.1791901374	-2.9866021242	 3.4866587323	-0.289795
C	 0.4430187874	-4.4708381835	 3.158692292	-0.057835
O	 1.4641378114	-4.1251415434	 2.1998789507	-0.267357
H	 1.2076631841	 1.9482953002	-0.1814514583	 0.114042
H	-0.4436315909	 2.1436517333	-0.7812531055	 0.116945
H	-0.1289550579	 2.1419792157	 0.9582662946	 0.111608
H	-1.0911279038	-0.0759832172	 0.1852976197	 0.107072
H	 0.2328380935	-0.2706703859	-0.9342860033	 0.120117
H	 1.8641350204	-0.2885312147	 0.9986692983	 0.126162
H	 0.5404495081	-0.1303282479	 2.1206608315	 0.114173
H	 2.1441621647	-2.201223655	 2.7145129565	 0.084109
H	 0.4768519089	-2.6676102075	 4.4858944647	 0.117934
H	-0.8274478782	-2.6245948511	 3.271727369	 0.120886
H	 0.8423296619	-5.0787796676	 3.9785419646	 0.105724
H	-0.3916388133	-5.0018723883	 2.6875282216	 0.117498
34.2434	57.2652	65.2898	92.6045	141.4445	216.3948	248.0298	289.9589	316.0367	378.7954	562.871	679.7708	742.8332	780.6779	804.4177	852.2399	872.9199	897.8764	948.4326	955.217	1020.7191	1036.6805	1048.6542	1052.819	1113.6213	1123.9533	1145.423	1164.3162	1213.0211	1244.5915	1254.8062	1261.036	1310.7878	1323.1224	1350.0661	1374.3338	1395.4637	1415.6297	1449.4572	1486.856	1487.0576	1501.0531	1507.7043	1526.8864	1818.4808	2998.3682	3012.7116	3025.1259	3027.6279	3028.1469	3047.279	3070.5923	3076.4652	3083.3206	3100.7462	3103.9637	3141.3001
CCCC(=O)C1CCO1	CCCC(=O)[C@H]1CCO1	
InChI=1S/C7H12O2/c1-2-3-6(8)7-4-5-9-7/h7H,2-5H2,1H3	InChI=1S/C7H12O2/c1-2-3-6(8)7-4-5-9-7/h7H,2-5H2,1H3/t7-/m1/s1
