13
gdb 127971	2.77263	1.59165	1.0175	4.8762	65.61	-0.2819	-0.0713	0.2105	1080.9458	0.087605	-489.863637	-489.85559	-489.854646	-489.897409	27.71	
C	 0.1564216806	 1.4529480554	 0.1036787785	-0.345118
N	 0.2647234356	 0.0086805304	 0.0676155259	-0.239775
C	 0.5027672484	-0.6098832494	-0.9939879922	 0.260618
O	 0.6816513761	 0.0342911338	-2.2169572368	-0.215563
C	 0.9325003634	-0.7167779247	-3.305417647	 0.154706
N	 1.0380219159	-1.9782515589	-3.3998534468	-0.116204
O	 0.8722661734	-2.7141964145	-2.2056265977	-0.248451
C	 0.6102758403	-2.1136176988	-1.0025609624	 0.408709
O	 0.4812688267	-2.7940065447	-0.0332613227	-0.272467
H	 0.8929612697	 1.8309563354	 0.8204464253	 0.153333
H	 0.2985387908	 1.951308825	-0.8600046394	 0.132523
H	-0.8301743608	 1.7096354999	 0.5035465895	 0.153336
H	 1.0554721199	-0.1287978189	-4.2069069042	 0.174355
60.421	70.0986	132.0248	204.651	211.9868	363.9842	496.1456	519.6491	527.0969	569.4032	583.4334	719.1158	778.5766	910.4214	916.2814	971.8434	1010.5054	1056.6386	1127.2016	1133.071	1204.7655	1274.4752	1359.6518	1431.9154	1488.956	1491.6475	1716.7414	1780.6738	1876.6487	3031.0067	3096.5114	3110.0383	3228.3722
CN=C1OC=NOC1=O	CN=c1ocnoc1=O	
InChI=1S/C4H4N2O3/c1-5-3-4(7)9-6-2-8-3/h2H,1H3	InChI=1S/C4H4N2O3/c1-5-3-4(7)9-6-2-8-3/h2H,1H3
