20
gdb 50771	2.5874	1.36894	1.05623	3.3606	76.44	-0.2399	0.0267	0.2666	1180.4353	0.17333	-440.310981	-440.302586	-440.301642	-440.344479	31.585	
O	-0.1294054153	-0.0260640548	-0.0908511356	-0.348504
C	-0.0442268453	 1.1851598271	-0.0744941669	 0.147978
N	 1.1225753305	 1.8903566024	-0.0549493417	-0.034884
C	 1.127262972	 3.3454764038	-0.0320441124	-0.175955
C	 2.0860257408	 3.9537943066	 1.0159222552	-0.218312
C	 2.3245394464	 3.1036616486	 2.2720077323	-0.068994
O	 3.3090983774	 2.1027001415	 2.0763649191	-0.243236
C	 2.87536474	 0.9313064889	 1.4160024175	-0.073829
C	 2.38189251	 1.1554780994	-0.0182305325	-0.192646
H	-0.9302519575	 1.8503482378	-0.0764147163	 0.072771
H	 1.3829423251	 3.7441094849	-1.0239585721	 0.112229
H	 0.0994007483	 3.6598689404	 0.1758896397	 0.118153
H	 3.0684549982	 4.1381134158	 0.5689565782	 0.118829
H	 1.690904894	 4.9332739146	 1.3094747699	 0.106157
H	 2.7203750323	 3.7457221567	 3.0651410098	 0.110793
H	 1.3843679203	 2.6615070548	 2.6386017142	 0.093913
H	 3.7433746355	 0.2640869761	 1.3999134047	 0.110573
H	 2.073317472	 0.435624807	 1.9845122447	 0.111266
H	 2.2048493852	 0.1837259126	-0.4861107191	 0.143165
H	 3.1351468799	 1.6985194354	-0.5990620888	 0.110534
54.8497	97.3723	202.25	261.6206	300.3999	322.2972	365.4622	381.5584	424.7936	518.6144	558.7778	665.2231	770.1858	830.705	871.5409	891.7012	945.3703	983.8436	1012.956	1030.0673	1056.8616	1099.9667	1119.1531	1155.0801	1201.3394	1225.0188	1283.3731	1288.9279	1310.4939	1341.7305	1373.6547	1376.3077	1394.6139	1402.9498	1421.5493	1436.5556	1448.6583	1468.9754	1477.557	1486.35	1498.999	1506.3979	1787.2254	2935.4798	2984.0291	2993.8233	3001.3291	3040.2153	3048.7087	3064.9173	3077.0171	3081.5139	3088.9724	3115.5839
O=CN1CCCOCC1	O=CN1CCCOCC1	
InChI=1S/C6H11NO2/c8-6-7-2-1-4-9-5-3-7/h6H,1-5H2	InChI=1S/C6H11NO2/c8-6-7-2-1-4-9-5-3-7/h6H,1-5H2
