13
gdb 24837	2.63944	1.76073	1.14722	5.0879	69.81	-0.2559	-0.0717	0.1842	992.113	0.090312	-452.75975	-452.752524	-452.751579	-452.792049	26.388	
N	-0.126465687	 1.3807614086	 0.2811777023	-0.445931
C	-0.0404421011	 0.1437173356	 0.0128500017	 0.231006
N	 1.1805145807	-0.5009535324	-0.2257728443	-0.276834
C	 1.4686140866	-1.3552686972	-1.1022797254	 0.126831
O	 0.7147542824	-1.9417879365	-2.0805777534	-0.191356
C	-0.6396454002	-2.0431540599	-2.0426835978	 0.077362
C	-1.5181280711	-1.5876546986	-1.1408458543	-0.226625
C	-1.3205449075	-0.6819413873	 0.0036511668	 0.333637
O	-2.1669936351	-0.5367039826	 0.8550683067	-0.301302
H	 0.8062048868	 1.8028737483	 0.2645563926	 0.2311
H	 2.4859205022	-1.7270051224	-1.1971909544	 0.154204
H	-0.9630626079	-2.6507454669	-2.8803488591	 0.150107
H	-2.5495702688	-1.8900547588	-1.2882520114	 0.137801
66.0597	108.902	283.1954	314.8769	319.7233	409.3778	459.4197	510.5332	616.4253	670.1701	769.831	794.1756	846.8141	862.6115	938.9126	947.7801	970.9361	985.2639	994.2814	1104.809	1237.0011	1298.2622	1341.317	1420.6687	1443.2733	1665.4318	1705.5507	1752.8679	1781.048	3176.6449	3191.089	3212.4705	3442.8317
N=C1N=COC=CC1=O	[NH][C]1N=COC=CC1=O	
InChI=1S/C5H4N2O2/c6-5-4(8)1-2-9-3-7-5/h1-3,6H	InChI=1S/C5H4N2O2/c6-5-4(8)1-2-9-3-7-5/h1-3,6H
