20
gdb 8073	3.4902	2.16598	1.7168	0.2122	78.94	-0.2298	0.0251	0.2549	850.9174	0.179287	-311.875552	-311.868658	-311.867714	-311.905859	29.015	
C	-0.0631746503	 1.5419064028	 0.0249698633	-0.477708
C	 0.0258059961	 0.0263139348	 0.0142151461	 0.327747
C	 1.0986397506	-0.6564927456	-0.8922591626	-0.24308
C	 1.1462152878	-1.7863620516	 0.1811575091	-0.064334
C	 0.7257975201	-0.6932870343	 1.2104920695	-0.243079
C	-0.0353322947	-2.7049862038	-0.044417319	-0.058143
C	-1.2287185152	-2.1465135634	-0.2462478644	-0.069455
C	-1.3450040296	-0.6394333109	-0.2404972572	-0.277623
H	 0.9180483335	 1.9934882011	 0.2067961385	 0.107396
H	-0.4363624916	 1.9249758462	-0.932649281	 0.110921
H	-0.7449725077	 1.8944931901	 0.8084751044	 0.110923
H	 0.817147232	-0.937947788	-1.9106067725	 0.08973
H	 2.0229395582	-0.0707643033	-0.9103133029	 0.087849
H	 2.0841681275	-2.3205962095	 0.3381188471	 0.055392
H	 1.5840389412	-0.114077871	 1.5649949237	 0.087849
H	 0.113134227	-1.0074231721	 2.0598735209	 0.08973
H	 0.1066155374	-3.781292605	-0.0380785108	 0.082881
H	-2.1247383515	-2.7368211885	-0.4154503031	 0.083815
H	-2.0633623181	-0.3158144982	 0.5277039768	 0.099595
H	-1.7574830727	-0.2856296598	-1.1973592861	 0.099595
213.9367	244.3666	298.2373	329.9331	376.9215	446.608	465.6811	488.7929	629.5023	693.7201	719.1607	839.4828	855.8114	861.8534	893.7087	919.1936	938.977	959.2005	976.2129	1012.1217	1012.3163	1018.657	1085.8452	1106.48	1115.8723	1177.7354	1184.3278	1205.3859	1239.8313	1261.3941	1268.6653	1286.9688	1335.9691	1370.1401	1391.8529	1413.1212	1471.7603	1472.1804	1493.7438	1493.9511	1504.9671	1701.314	2990.1277	3013.4157	3017.2187	3040.5062	3047.5579	3079.3756	3090.826	3094.9079	3102.0143	3105.4238	3157.8956	3182.9448
CC12CC(C1)C=CC2	C[C@@]12C[C@@H](C1)C=CC2	
InChI=1S/C8H12/c1-8-4-2-3-7(5-8)6-8/h2-3,7H,4-6H2,1H3	InChI=1S/C8H12/c1-8-4-2-3-7(5-8)6-8/h2-3,7H,4-6H2,1H3/t7-,8+
