16
gdb 49822	2.54241	1.46143	1.0559	0.7091	71.57	-0.2603	-0.0467	0.2137	1119.8762	0.122796	-437.873626	-437.865293	-437.864349	-437.907308	30.189	
N	-0.3688556035	 1.3168499836	-0.6436704225	-0.553306
C	-0.1142064	 0.1863543938	-0.172094179	 0.396902
O	 1.0654964503	-0.3502019373	 0.3365856192	-0.28578
C	 0.4276514435	-1.6357007632	 0.6078170987	-0.03024
C	 0.4057067035	-1.9598289899	 2.0842521408	 0.138123
O	 0.1968523297	-3.0663982881	 2.5080383713	-0.240226
C	-0.8883539229	-1.0633632697	 0.0579879117	 0.179654
C	-2.3037856734	-1.2048769665	 0.5524560142	-0.320937
C	-1.93479339	-1.6866875276	-0.8211561455	-0.313185
H	 0.4477404759	 1.9283876608	-0.6418113437	 0.235233
H	 0.8807223552	-2.4457032788	 0.0306635986	 0.123953
H	 0.5576831814	-1.0791377268	 2.7460846454	 0.100375
H	-2.4865443087	-1.9472206616	 1.3221313313	 0.141295
H	-2.8775237603	-0.2896174799	 0.6445082788	 0.14703
H	-2.2521232499	-1.1012086853	-1.6769576427	 0.146917
H	-1.8700179407	-2.7561177534	-0.9898543266	 0.134192
58.23	90.3624	169.7389	201.0312	218.9919	274.9026	420.9635	429.6663	525.1187	596.7293	687.7381	768.513	790.8765	843.4819	865.3189	900.7215	957.6928	974.04	987.1105	1015.9556	1041.4242	1068.6173	1090.7742	1109.1661	1178.4679	1198.3167	1225.3539	1267.1841	1308.5374	1390.8448	1405.9835	1456.2363	1495.5546	1830.6205	1836.4074	2901.2969	3089.2635	3137.0857	3138.5705	3222.7605	3236.2918	3495.1705
N=C1OC(C=O)C11CC1	[NH][C]1O[C@@H](C=O)C21CC2	
InChI=1S/C6H7NO2/c7-5-6(1-2-6)4(3-8)9-5/h3-4,7H,1-2H2	InChI=1S/C6H7NO2/c7-5-6(1-2-6)4(3-8)9-5/h3-4,7H,1-2H2/t4-/m0/s1
