14
gdb 129588	2.08566	1.87536	0.98902	3.2788	74.03	-0.2031	0.0195	0.2226	1106.477	0.101308	-432.859082	-432.850535	-432.849591	-432.891811	32.18	
N	 0.0604159006	 1.3490591354	 0.2155581815	-0.614957
C	-0.0340598758	-0.0211229086	 0.0565089283	 0.303713
C	-1.1688180412	-0.8332517728	 0.0057790717	-0.002579
C	-2.5058050601	-0.3969967222	 0.0095444214	 0.172282
C	-3.6380831399	 0.0190935527	 0.0109320688	-0.423396
C	-0.6235519029	-2.1485177964	-0.074085828	 0.320557
O	-1.3580198305	-3.2712176703	-0.1497829793	-0.420737
N	 0.6922317757	-2.1692465979	-0.0824262142	-0.342804
N	 1.0370287155	-0.8367426344	-0.011192062	-0.270171
H	 0.7511989872	 1.7980389172	-0.3717387932	 0.255226
H	-0.8422398449	 1.7965355008	 0.1164017889	 0.267055
H	-4.6426620329	 0.361076374	 0.0181493276	 0.180317
H	-0.7387770573	-4.0108282596	-0.2015843169	 0.303104
H	 2.0018778164	-0.5927436981	 0.1249940456	 0.272389
119.7773	140.8953	212.1394	251.0541	288.7897	299.9838	400.6726	417.0593	432.3781	453.0593	520.4055	552.6002	599.8618	641.7507	677.0424	688.6302	717.3849	764.2903	813.6743	1070.2223	1085.7389	1153.3619	1226.5989	1295.5607	1358.234	1467.0846	1561.5699	1598.9878	1622.8218	1661.3802	2223.835	3504.2653	3538.1832	3631.7868	3689.1555	3788.8352
NC1=C(C#C)C(O)=NN1	Nc1c(C#C)c(O)n[nH]1	
InChI=1S/C5H5N3O/c1-2-3-4(6)7-8-5(3)9/h1H,(H4,6,7,8,9)	InChI=1S/C5H5N3O/c1-2-3-4(6)7-8-5(3)9/h1H,(H4,6,7,8,9)
