16
gdb 24600	4.9866	1.02295	0.9688	0.6745	70.78	-0.2435	-0.0066	0.2369	1207.6071	0.126413	-437.889368	-437.882026	-437.881082	-437.922347	26.502	
C	-0.0136994298	 1.4909887225	-0.1291028613	-0.084344
O	 1.3800096813	 1.5889818264	 0.2147815324	-0.267805
C	 1.4433541475	 0.1946568269	 0.564256672	-0.084342
C	 0.0114292495	-0.0569453773	 0.0134825779	-0.159698
C	-0.9870739891	-0.719168555	 0.8736352544	 0.342108
C	-1.8435667381	-1.7612727677	 0.7246175705	-0.207295
N	-2.5674892284	-1.9481845322	 1.8965821869	-0.254178
C	-2.1227086395	-1.0278150536	 2.6854968091	 0.072362
O	-1.1647013879	-0.2361161698	 2.1495406589	-0.178821
H	-0.6568557741	 1.9947984259	 0.6030949438	 0.111351
H	-0.2238369196	 1.8827866739	-1.1302816562	 0.109895
H	 2.2591241262	-0.3262911892	 0.0512702859	 0.109891
H	 1.5365386115	 0.0433490475	 1.6468503018	 0.111339
H	 0.022802353	-0.5616497769	-0.9540345637	 0.100223
H	-1.9915019958	-2.389465398	-0.1396252105	 0.126745
H	-2.4153877367	-0.8137883334	 3.701430168	 0.15257
63.9382	80.6313	140.3466	211.5921	386.4661	390.4451	613.3367	666.4878	703.0581	830.1575	837.9242	860.447	887.0939	917.8428	940.6485	977.385	1006.437	1029.1076	1045.0075	1103.1704	1125.1981	1136.8712	1163.4698	1172.1168	1242.6307	1244.0734	1261.772	1309.9389	1335.2187	1359.2054	1388.0214	1508.4468	1534.5948	1551.2976	1639.7645	3015.5706	3026.2213	3068.2202	3070.6859	3103.4641	3262.6441	3277.7396
C1OCC1C1=CN=CO1	C1OCC1c1cnco1	
InChI=1S/C6H7NO2/c1-6(9-4-7-1)5-2-8-3-5/h1,4-5H,2-3H2	InChI=1S/C6H7NO2/c1-6(9-4-7-1)5-2-8-3-5/h1,4-5H,2-3H2
