21
gdb 118927	2.51572	1.14851	1.02919	1.9744	79.95	-0.2223	-0.0241	0.1983	1319.051	0.179382	-424.233328	-424.223162	-424.222218	-424.269021	36.79	
C	-0.0213542212	 1.5257145959	-0.0645244767	-0.381931
C	 0.0185144764	 0.0078052018	-0.1184858538	-0.0659
O	 0.7990640501	-0.441055336	 0.9901668514	-0.30096
C	 0.7702304179	-1.8218399893	 1.2635985765	 0.327437
C	 1.2936342623	-2.6918767862	 0.1186644644	-0.458352
C	 1.4255709152	-2.1353568361	 2.6446799861	-0.2843
C	 0.1651785745	-2.9310535754	 3.0970919779	-0.341912
C	-0.5633880986	-2.3559272249	 1.8728932972	 0.353258
O	-1.7156207252	-2.2398958332	 1.5653452442	-0.305406
H	 0.9908276982	 1.9388908991	-0.1040499899	 0.123484
H	-0.5906825704	 1.9204384814	-0.9114473784	 0.115041
H	-0.4941372946	 1.865067535	 0.8613308475	 0.126518
H	-0.9925019133	-0.412407628	-0.0606729884	 0.125041
H	 0.470498414	-0.3256944976	-1.0643340398	 0.089066
H	 2.2977153145	-2.359671702	-0.1648381812	 0.128962
H	 1.3516391838	-3.7411592152	 0.4245779402	 0.120208
H	 0.6434336591	-2.6381449396	-0.7585452984	 0.133522
H	 2.3646345268	-2.6889736333	 2.6069727293	 0.105405
H	 1.5651878023	-1.2138428086	 3.2113682162	 0.125001
H	 0.2765051576	-4.0183760684	 3.0349378216	 0.132121
H	-0.2745146893	-2.6849300194	 4.066204054	 0.133697
50.3232	65.3972	106.8131	162.3201	193.6432	244.2121	248.1156	296.9654	324.5647	379.9886	405.5847	501.756	545.915	695.8473	704.7493	760.6275	825.3964	860.5453	881.8483	915.2508	947.7918	985.5728	1028.004	1070.6184	1084.4372	1124.5303	1152.728	1182.8299	1196.2488	1213.8909	1223.4359	1242.0202	1289.1471	1303.198	1396.8927	1400.4682	1426.1716	1439.8604	1479.073	1483.5885	1487.3187	1496.0599	1501.4466	1529.4818	1878.4791	2992.2257	3036.8172	3043.8084	3058.3738	3059.8927	3085.5158	3108.7017	3116.0462	3117.896	3118.3337	3122.0474	3146.7822
CCOC1(C)CCC1=O	CCO[C@@]1(C)CCC1=O	
InChI=1S/C7H12O2/c1-3-9-7(2)5-4-6(7)8/h3-5H2,1-2H3	InChI=1S/C7H12O2/c1-3-9-7(2)5-4-6(7)8/h3-5H2,1-2H3/t7-/m0/s1
