17
gdb 58145	1.84408	1.57907	1.24837	4.4107	65.57	-0.2614	-0.0642	0.1971	1100.7507	0.130085	-496.102565	-496.092155	-496.091211	-496.138108	36.478	
C	 0.7986882332	-0.6651286047	-1.1843602101	-0.442318
C	-0.037752575	 0.1799091154	-0.2241069803	 0.138396
O	-0.0683702568	 1.5430094914	-0.6183129296	-0.440762
C	-1.4992952275	-0.3187303505	-0.0764354044	 0.117828
O	-2.2296219265	-0.1807571941	-1.29003027	-0.478845
C	-1.5954547165	-1.7454412819	 0.4591872126	 0.111938
O	-0.8183777942	-2.2312361822	 1.2352374871	-0.233324
C	-2.2127528206	 0.6249975182	 0.9180332548	 0.163145
O	-1.9246044579	 0.7084806322	 2.0766996524	-0.234117
H	 1.7910998727	-0.218271211	-1.2798149922	 0.142662
H	 0.9110688574	-1.6904894877	-0.822839209	 0.142194
H	 0.3549993223	-0.688472221	-2.1880377703	 0.097415
H	 0.4038541581	 0.1574458463	 0.775396073	 0.133752
H	-0.6028548768	 1.5879878516	-1.4211016732	 0.283733
H	-1.9028679348	-0.8233636087	-1.9288374794	 0.295492
H	-2.4725210393	-2.3043816305	 0.0592150234	 0.096303
H	-3.023906818	 1.213533817	 0.4406418354	 0.10651
71.2806	77.0136	96.0189	167.1609	207.399	241.0231	252.73	273.8127	299.1513	303.8038	405.0308	430.5665	455.9966	524.2001	580.1912	673.0402	716.9958	909.9917	916.9161	937.2363	1013.0772	1053.6562	1091.3209	1126.0498	1136.8936	1177.11	1282.8572	1313.6019	1353.281	1373.74	1399.8616	1405.5773	1418.1065	1491.2417	1500.4392	1811.4028	1863.7305	2872.6108	2919.9294	3025.9668	3092.24	3109.6044	3135.0831	3778.7561	3815.2241
CC(O)C(O)(C=O)C=O	C[C@@H](O)C(O)(C=O)C=O	
InChI=1S/C5H8O4/c1-4(8)5(9,2-6)3-7/h2-4,8-9H,1H3	InChI=1S/C5H8O4/c1-4(8)5(9,2-6)3-7/h2-4,8-9H,1H3/t4-/m1/s1
