17
gdb 37219	3.51752	1.64343	1.29603	2.0684	72.94	-0.2272	-0.0019	0.2253	974.9051	0.138674	-417.944785	-417.937997	-417.937053	-417.975857	27.074	
C	-0.157562661	 1.1597543845	 0.0503438579	-0.232491
C	 1.2980737921	 0.9204348058	 0.0540573661	-0.093393
C	 1.8021816913	 0.1749555932	 1.2922411002	 0.045452
O	 1.8237021126	 0.7198325261	 2.5898993104	-0.264883
C	 1.7453460081	-0.4003994848	 3.4828053462	-0.09764
C	 0.4631438626	-1.2583725969	 3.2990307526	-0.173109
N	-0.0791721547	-1.3500514363	 1.9302979292	-0.27165
C	 0.6114464486	-0.7141832132	 1.0980079047	 0.329376
N	 0.3004554499	-0.2286261785	-0.2378097403	-0.180498
H	-0.6880290305	 1.3401354739	 0.9804837216	 0.14106
H	-0.5730819273	 1.6555983199	-0.8210195565	 0.135262
H	 1.9482525078	 1.2919468276	-0.7287836479	 0.108844
H	 2.7578776802	-0.3177600477	 1.0516896572	 0.094247
H	 2.6405491552	-1.0275328399	 3.3459350088	 0.097893
H	 1.7745555232	 0.010887454	 4.4944369815	 0.11843
H	 0.6570567606	-2.2670165883	 3.6814378748	 0.119942
H	-0.3512439388	-0.8504568695	 3.9098343934	 0.123158
134.2295	194.3406	273.772	301.4484	430.1055	450.8079	554.8477	593.2714	686.4567	708.7775	769.1791	810.9985	836.2914	883.9322	913.6543	966.4601	1017.6024	1037.5595	1050.5695	1064.2047	1105.6116	1113.1533	1121.4293	1155.5182	1169.3425	1228.2954	1250.8843	1260.1184	1292.7437	1356.419	1365.8713	1372.3532	1411.9017	1479.4911	1497.6669	1501.151	1813.7276	2975.8541	2982.463	3032.5751	3066.5692	3104.6305	3125.5773	3191.6792	3217.3985
C1C2C3OCCN=C3N12	C1[C@H]2[C@H]3OCC[N][C]3N12	
InChI=1S/C6H8N2O/c1-2-9-5-4-3-8(4)6(5)7-1/h4-5H,1-3H2	InChI=1S/C6H8N2O/c1-2-9-5-4-3-8(4)6(5)7-1/h4-5H,1-3H2/t4-,5+,8?/m0/s1
