17
gdb 87089	4.345	0.68205	0.657	3.9244	85.9	-0.2565	-0.0594	0.1971	1720.5143	0.132425	-421.788864	-421.778945	-421.778001	-421.824445	34.781	
C	 0.0279072032	 1.5393135051	-0.0281742935	-0.407463
C	 0.08183631	 0.0287193856	-0.0186677814	-0.028899
C	 1.3810301574	-0.711627744	-0.1621599079	-0.338209
C	 0.6580988955	-0.7021963811	 1.1872766203	 0.178364
O	 1.1679799108	 0.1273916422	 2.1933243064	-0.442982
C	 0.0319451735	-1.9103048288	 1.6312597168	 0.124152
C	-0.4643909956	-2.9347944748	 2.0448477836	-0.005645
C	-1.0728726744	-4.1562959719	 2.4892734918	 0.014916
O	-1.0791766982	-4.5480718408	 3.6352946613	-0.237225
H	 0.8879860276	 1.9687924219	 0.4885834365	 0.138647
H	 0.0205262696	 1.9093737991	-1.0587881737	 0.121794
H	-0.877574799	 1.9020766206	 0.4679076901	 0.129752
H	-0.7822404028	-0.4630279558	-0.4549648645	 0.10788
H	 1.4110423137	-1.6367244397	-0.7256335467	 0.127846
H	 2.291287784	-0.1214473262	-0.1813845704	 0.127746
H	 1.8514010312	-0.3620019378	 2.6649838492	 0.293479
H	-1.5543304764	-4.7386059036	 1.6764116223	 0.095847
56.3597	73.4948	110.8057	177.1434	191.017	211.2469	250.7715	288.6929	337.8046	376.8189	464.242	531.7471	564.6139	597.565	725.5042	775.6125	855.7933	892.1811	930.5223	1005.0513	1017.4892	1024.8446	1057.9251	1113.1044	1138.9242	1194.8068	1242.0039	1293.5688	1339.9182	1403.8061	1420.3184	1422.1412	1470.8271	1491.5898	1500.2922	1760.647	2300.33	2909.7205	3041.9174	3103.0142	3133.5915	3136.2922	3160.5943	3232.2633	3800.9827
CC1CC1(O)C#CC=O	C[C@H]1C[C@]1(O)C#CC=O	
InChI=1S/C7H8O2/c1-6-5-7(6,9)3-2-4-8/h4,6,9H,5H2,1H3	InChI=1S/C7H8O2/c1-6-5-7(6,9)3-2-4-8/h4,6,9H,5H2,1H3/t6-,7+/m0/s1
