25
gdb 114887	2.92499	1.14676	1.03242	0.1319	91.57	-0.2713	0.0772	0.3486	1338.1517	0.231789	-352.371481	-352.362695	-352.361751	-352.404887	35.124	
C	 0.1967351892	 1.4865979207	 0.2314475481	-0.382183
C	 0.0749033447	-0.0352304332	 0.0937479611	-0.195956
C	 0.641052838	-0.5533400027	-1.2241761148	 0.063184
C	 2.1831705137	-0.5076796884	-1.4395882359	-0.25616
C	 2.1623520078	-1.9820307204	-1.9399981608	 0.010265
C	 2.9271950835	-3.0012471226	-1.0863005468	-0.210596
C	 2.0649647589	-3.1606820188	 0.1817372808	-0.20752
C	 0.615495401	-3.0758645348	-0.3406077129	-0.212664
C	 0.650953503	-2.0890807984	-1.5258432653	-0.047284
H	 1.2424638446	 1.807388887	 0.171101509	 0.117879
H	-0.3514746738	 2.000306494	-0.5663451569	 0.111965
H	-0.2028796266	 1.8354766386	 1.1888308668	 0.10884
H	 0.5890231485	-0.5159108016	 0.9363294583	 0.09431
H	-0.9809355785	-0.3264883784	 0.1757086927	 0.092222
H	 0.1338613545	-0.031478598	-2.0446557214	 0.061773
H	 2.547454442	 0.2341724361	-2.1546172032	 0.09175
H	 2.7464261341	-0.379552756	-0.5082922682	 0.089653
H	 2.3711888458	-2.0802767642	-3.0073601759	 0.057409
H	 2.9860480732	-3.9601044427	-1.6166914511	 0.091139
H	 3.9539571694	-2.6872060682	-0.8693367552	 0.090462
H	 2.2672655984	-4.0914560329	 0.7198551885	 0.090851
H	 2.2670655954	-2.3408475593	 0.8812130264	 0.099251
H	 0.3060786939	-4.0599817717	-0.7122498416	 0.091345
H	-0.1010386367	-2.7941488495	 0.4369731845	 0.093703
H	-0.0563278839	-2.3839077544	-2.3047144163	 0.056359
79.9557	109.8679	166.0254	232.0903	245.8844	293.083	362.6718	397.3429	468.8544	560.7114	603.7258	728.4837	752.9069	787.6589	818.987	849.9577	866.3439	885.3124	913.079	949.5225	960.4621	963.596	971.1221	1014.8691	1034.9755	1056.758	1089.0575	1107.7193	1138.0456	1158.3426	1168.6561	1198.4953	1207.3027	1254.4077	1260.5787	1275.1293	1282.9809	1295.6766	1314.7721	1320.5076	1335.9066	1342.3976	1356.7677	1360.4966	1394.1954	1410.5884	1481.2324	1485.3621	1486.8959	1497.2173	1500.5794	1507.301	1512.9924	3012.5009	3019.2157	3024.0619	3029.0842	3031.2309	3035.9238	3040.4547	3047.7267	3066.932	3072.5504	3079.0253	3080.9988	3089.985	3095.4523	3099.892	3100.7341
CCC1CC2CCCC12	CC[C@H]1C[C@H]2CCC[C@@H]12	
InChI=1S/C9H16/c1-2-7-6-8-4-3-5-9(7)8/h7-9H,2-6H2,1H3	InChI=1S/C9H16/c1-2-7-6-8-4-3-5-9(7)8/h7-9H,2-6H2,1H3/t7-,8+,9-/m0/s1
