17
gdb 45739	2.86589	1.68945	1.27688	2.1609	73.42	-0.2434	-0.0207	0.2228	999.1481	0.138156	-418.049323	-418.041781	-418.040837	-418.081477	28.934	
O	 0.0119748093	-0.0327718948	 0.0047233755	-0.369703
C	 0.0013080011	 1.1751072025	 0.0109895404	 0.392645
N	-1.1233353886	 1.9955841547	 0.0298230395	-0.350718
C	-0.70305706	 3.321184977	 0.031435384	 0.042825
N	 0.5615036712	 3.5016722822	 0.0158284934	-0.296321
C	 1.1635166195	 2.1721244195	 0.0008150922	 0.200742
C	 2.2591303437	 1.8532942278	 1.067372829	-0.254491
C	 3.0854087332	 1.1362618056	-0.0305959085	-0.207751
C	 2.2299500079	 1.864687075	-1.0983262189	-0.254478
H	-2.0725569041	 1.6593637055	 0.0409160099	 0.268149
H	-1.4387893946	 4.1190186584	 0.0452863199	 0.139273
H	 2.7179824443	 2.7862018613	 1.4013942158	 0.119623
H	 1.9406666872	 1.2693235578	 1.9331301263	 0.111255
H	 4.1619006703	 1.3157274443	-0.0441590496	 0.099563
H	 2.8978593328	 0.0612444158	-0.0337341759	 0.128495
H	 1.8881317886	 1.2897661575	-1.961224849	 0.111265
H	 2.6797297682	 2.80112167	-1.4347912041	 0.119626
95.2985	122.197	203.8447	275.7873	278.552	456.0311	489.015	520.8907	602.5584	680.4537	714.751	749.0103	802.3779	826.1145	878.8862	920.3101	933.6205	945.1305	967.8153	1046.003	1060.322	1064.5448	1128.6281	1180.1413	1209.9402	1217.2582	1253.5439	1279.1049	1284.4689	1300.7852	1349.3667	1396.1877	1466.5003	1477.4312	1496.8271	1666.0017	1840.2105	3069.9968	3072.1848	3079.0887	3120.9923	3131.3148	3144.2133	3191.2459	3654.5003
O=C1NC=NC11CCC1	O=C1NC=NC21CCC2	
InChI=1S/C6H8N2O/c9-5-6(2-1-3-6)8-4-7-5/h4H,1-3H2,(H,7,8,9)	InChI=1S/C6H8N2O/c9-5-6(2-1-3-6)8-4-7-5/h4H,1-3H2,(H,7,8,9)
