19
gdb 16435	3.34642	2.26551	1.72458	1.0578	75.85	-0.2074	0.0949	0.3022	842.0177	0.165135	-327.834366	-327.82703	-327.826086	-327.865272	29.25	
C	 0.0555488672	 1.5211280436	-0.1634262969	-0.331215
N	 0.0436236491	 0.0677746552	-0.0308959666	-0.14862
C	-1.0903297291	-0.5030981513	 0.7534838255	-0.001456
C	-0.2489268125	-1.7427428462	 1.1738713348	-0.095349
C	-0.6353301484	-1.5990653256	 2.6577205239	-0.282605
C	-0.5248337044	-0.1397641025	 2.1745580946	-0.113364
C	 0.6852050018	-0.4864521282	 1.2105509272	 0.386731
C	 2.1591265016	-0.4173992013	 1.4794795255	-0.5302
H	 1.0419293838	 1.8468749647	-0.5102858718	 0.116513
H	-0.6749639725	 1.8180802796	-0.9235852387	 0.116751
H	-0.1784029186	 2.068911234	 0.7655621146	 0.091536
H	-2.1268837042	-0.4786721954	 0.4120186912	 0.074499
H	-0.0857131248	-2.6341886643	 0.5680448739	 0.075774
H	-1.6342397344	-1.9463229702	 2.9384767522	 0.09351
H	 0.1012857381	-1.9324404373	 3.3952350338	 0.093323
H	-0.6843969899	 0.7735702705	 2.7480424016	 0.073397
H	 2.4073143301	-0.9431578147	 2.4073577511	 0.125795
H	 2.7201698303	-0.8796453549	 0.6608381969	 0.131362
H	 2.496500477	 0.6197943442	 1.5812706673	 0.12362
204.1023	209.4445	215.8485	238.8126	276.8436	323.2148	476.397	554.6869	629.301	725.7398	735.9342	800.6901	825.289	854.8648	883.4255	914.8816	936.9005	979.8127	1018.0372	1055.2381	1082.1957	1108.5235	1126.5015	1139.7927	1149.9746	1165.1932	1173.6108	1184.768	1201.0851	1246.46	1260.7362	1284.1171	1361.288	1409.6096	1444.8636	1479.4445	1490.7057	1493.9134	1498.0129	1512.9016	2958.9743	3030.9089	3042.7069	3059.0254	3093.5686	3095.294	3096.061	3098.2913	3105.9359	3111.388	3120.4566
CN1C2C3CC2C13C	CN1[C@H]2[C@@H]3C[C@H]2[C@]13C	
InChI=1S/C7H11N/c1-7-4-3-5(7)6(4)8(7)2/h4-6H,3H2,1-2H3	InChI=1S/C7H11N/c1-7-4-3-5(7)6(4)8(7)2/h4-6H,3H2,1-2H3/t4-,5+,6-,7+
