18
gdb 98567	4.10118	0.9648	0.79273	2.1904	78.07	-0.241	-0.0298	0.2112	1421.4281	0.147333	-439.117647	-439.10826	-439.107315	-439.153222	32.299	
C	-0.0247044961	 1.4356979656	 0.0661425412	-0.336857
N	 0.0792037377	-0.0076417867	-0.01650514	-0.332853
C	 0.5939271523	-0.6443096269	-1.1128815304	 0.334597
O	 1.0020033879	-0.0477409324	-2.0969898679	-0.385231
C	 0.6202009194	-2.129361473	-1.0171356632	 0.199608
C	 1.0818216612	-2.9270655843	-1.9789116144	-0.171993
C	 0.9637387355	-4.3586251162	-1.5627340907	-0.111
O	 0.3874570113	-4.32582151	-0.2574295764	-0.268206
C	 0.1481706308	-2.9810308173	 0.1396002632	-0.183095
H	 0.5598849059	 1.8304479638	 0.9047330348	 0.126758
H	 0.369029753	 1.8416862554	-0.8660330523	 0.174944
H	-1.0663508338	 1.7545991255	 0.1848180752	 0.126743
H	-0.2413951491	-0.5563615217	 0.7633652375	 0.250979
H	 1.4840569313	-2.5901511463	-2.9247979835	 0.134305
H	 0.321449735	-4.9408159755	-2.2425354879	 0.114949
H	 1.9401981563	-4.867426619	-1.5292516176	 0.115056
H	 0.6970089175	-2.7670152177	 1.0718679071	 0.105712
H	-0.9248994463	-2.8430662332	 0.3535745253	 0.105583
42.0832	77.1748	100.8957	121.6662	150.2716	209.9085	319.1174	378.3088	379.1197	465.4506	474.9773	737.131	765.5319	794.8064	880.2535	890.3942	919.8948	970.7957	1029.6932	1031.0639	1064.7423	1108.641	1153.4415	1158.039	1174.1824	1174.5737	1228.4258	1273.0414	1283.8524	1364.9882	1394.9386	1438.3219	1491.6671	1500.7791	1512.9345	1532.3489	1562.4945	1706.7872	1759.9015	2955.7775	2970.9326	2976.668	2991.7583	3027.2538	3078.5152	3157.0542	3237.8801	3653.0254
CNC(=O)C1=CCOC1	CNC(=O)C1=CCOC1	
InChI=1S/C6H9NO2/c1-7-6(8)5-2-3-9-4-5/h2H,3-4H2,1H3,(H,7,8)	InChI=1S/C6H9NO2/c1-7-6(8)5-2-3-9-4-5/h2H,3-4H2,1H3,(H,7,8)
