16
gdb 124910	3.80486	1.59665	1.3131	3.7669	73.67	-0.2505	-0.012	0.2385	966.8292	0.126434	-396.888055	-396.881121	-396.880177	-396.919239	26.97	
C	-0.0265217238	 1.5535830123	 0.0606162789	-0.486133
C	 0.0244953992	 0.0602154464	 0.0310508924	 0.359808
C	-0.8267128575	-0.8964172923	 0.8249711652	-0.30123
C	 0.6968664335	-0.9695077796	 0.9511372225	-0.247673
C	 1.1708641784	-1.6389367409	-0.3170748661	 0.301701
N	 1.3513172044	-2.7666311827	-0.970776734	-0.339013
C	 0.8707908023	-2.4080393798	-2.2158118564	 0.031098
N	 0.3423395612	-1.1918930918	-2.3348057879	-0.269908
N	 0.6445262276	-0.6784885078	-1.1070955064	 0.001974
H	 0.9438157768	 1.9847150985	-0.2012762069	 0.141376
H	-0.7725018748	 1.9309589403	-0.646604124	 0.146844
H	-0.3065382071	 1.9013939411	 1.059074536	 0.132473
H	-1.3532709156	-0.4649749216	 1.6728333288	 0.128683
H	-1.3570585626	-1.7006023809	 0.3256330716	 0.148017
H	 1.2321513048	-0.7996956751	 1.8740555457	 0.123373
H	 0.9322542932	-3.074193616	-3.0651006292	 0.12861
145.9827	200.3292	203.8845	266.0599	362.998	483.5283	502.6153	615.8584	673.0574	721.2966	747.8795	828.1683	857.8644	905.1487	921.1223	970.2244	983.6924	990.9065	1041.6297	1084.6837	1100.3074	1117.4168	1154.1656	1187.62	1215.8518	1245.8243	1267.5944	1371.6895	1388.2654	1406.0872	1428.1133	1477.7725	1485.918	1497.7664	1570.2393	3041.1758	3107.9791	3119.7317	3122.5602	3210.756	3226.7646	3247.6438
CC12CC1C1=NC=NN21	C[C@]12C[C@H]1c1ncnn21	
InChI=1S/C6H7N3/c1-6-2-4(6)5-7-3-8-9(5)6/h3-4H,2H2,1H3	InChI=1S/C6H7N3/c1-6-2-4(6)5-7-3-8-9(5)6/h3-4H,2H2,1H3/t4-,6-/m0/s1
