14
gdb 34164	4.06263	1.60897	1.41021	0.1204	70.18	-0.2526	0.0041	0.2567	895.4941	0.100822	-399.407769	-399.401468	-399.400524	-399.438316	25.782	
C	-0.0249925462	-1.1288828846	 0.0505703075	-0.327381
C	-0.0569631986	 0.0723063273	 0.0318871263	 0.042299
C	-0.0748068842	 1.501607619	-0.0156557966	 0.404502
O	-1.016069663	 2.1772366618	 0.8623720239	-0.326833
C	-0.8545548444	 3.3186621874	-0.0057774409	 0.045494
C	 0.6466734595	 3.7071468596	 8.162*^-6	-0.060496
C	 1.2385352249	 2.3459609749	-0.016499461	-0.122325
N	 0.9594296217	 3.043778561	-1.3136356266	-0.183018
C	-0.4445791323	 2.4407693201	-1.2136198852	-0.094324
H	-0.0019409158	-2.190714281	 0.0713352581	 0.192861
H	-1.6479349228	 4.0581320014	 0.061638966	 0.099726
H	 1.1488553479	 4.6056820161	 0.3334666252	 0.109719
H	 2.2354558153	 2.0729764224	 0.302437286	 0.111958
H	-1.0239875519	 2.1801580047	-2.0953170848	 0.107818
148.4852	157.5528	434.1155	465.8359	538.0962	565.8476	596.569	631.5787	686.9304	757.6276	771.5461	797.0077	830.8342	863.3321	877.3477	893.3802	924.2664	958.7135	978.0714	1004.6543	1014.8071	1039.1479	1128.0472	1136.282	1200.9336	1206.9465	1225.6355	1285.6799	1299.7086	1349.1754	2244.8246	3156.5602	3167.3606	3203.0072	3215.5434	3500.2301
C#CC12OC3C4C1N4C23	C#C[C@@]12O[C@H]3[C@H]4[C@@H]1N4[C@@H]23	
InChI=1S/C7H5NO/c1-2-7-5-3-4(9-7)6(7)8(3)5/h1,3-6H	InChI=1S/C7H5NO/c1-2-7-5-3-4(9-7)6(7)8(3)5/h1,3-6H/t3-,4-,5-,6+,7+,8?/m0/s1
