20
gdb 111174	2.62005	1.20049	0.9492	4.155	84.22	-0.3036	0.0258	0.3294	1301.8665	0.171982	-365.981365	-365.972906	-365.971962	-366.014803	32.32	
C	 0.0395629944	 1.5683473348	 0.0269792434	-0.376017
C	 0.0597129421	 0.0443223131	 0.2016687838	-0.242932
C	-1.3289664418	-0.5650581735	 0.0675657172	 0.05969
C	-2.0289485092	-0.7517296893	-1.3236918425	-0.057759
C	-1.0951453763	-1.9689996024	-1.5843207213	-0.247832
C	-1.5503876467	-2.1052896655	-0.1020836887	-0.073941
C	-2.990978253	-1.7740050719	-0.6252366393	-0.135429
C	-4.0002278672	-1.2919402377	 0.3048842405	 0.264676
N	-4.822479532	-0.9270388263	 1.0319194939	-0.341103
H	 1.0358147051	 1.9957110268	 0.1742782033	 0.115841
H	-0.2985976402	 1.8487184923	-0.9763410276	 0.117988
H	-0.6368393224	 2.040659007	 0.7474480879	 0.123206
H	 0.7686369247	-0.3929430048	-0.508627571	 0.099447
H	 0.4432009983	-0.2014544441	 1.2004758462	 0.104546
H	-1.987700956	-0.1162468259	 0.8189916466	 0.094228
H	-2.3352024043	 0.0190644414	-2.0313604462	 0.088269
H	-1.4659635243	-2.7270190525	-2.2792608257	 0.09862
H	-0.0422010484	-1.7603498532	-1.7650037674	 0.107615
H	-1.3005784032	-2.8977098002	 0.6042439852	 0.08759
H	-3.4272791695	-2.525701128	-1.2880066684	 0.113299
67.9263	123.4943	159.5253	199.7637	230.285	333.3649	389.4733	461.5034	506.9018	540.2165	608.5306	737.846	776.2779	834.3471	838.3002	882.1594	898.6359	906.1023	966.409	1010.2904	1024.5064	1048.6305	1050.1355	1090.8866	1098.4832	1109.8919	1139.4019	1164.135	1188.3217	1211.7204	1231.0274	1232.289	1263.9501	1296.9307	1349.7073	1370.8941	1412.5162	1444.5919	1483.6388	1500.612	1506.121	1533.8234	2349.6014	3026.9523	3033.9419	3046.6089	3067.0674	3072.9849	3081.1984	3102.7179	3108.0443	3110.7088	3115.1329	3152.6832
CCC1C2CC1C2C#N	CC[C@H]1[C@H]2C[C@@H]1[C@H]2C#N	
InChI=1S/C8H11N/c1-2-5-6-3-7(5)8(6)4-9/h5-8H,2-3H2,1H3	InChI=1S/C8H11N/c1-2-5-6-3-7(5)8(6)4-9/h5-8H,2-3H2,1H3/t5-,6+,7-,8-
