19
gdb 114377	2.48925	1.3549	1.07575	2.2546	76.64	-0.2397	-0.0279	0.2118	1173.8082	0.158514	-422.993055	-422.984116	-422.983172	-423.027041	32.764	
O	-0.3984544086	 1.6442594779	-0.2543131286	-0.429396
C	-0.1216227404	 0.2486419893	-0.1579024429	-0.120384
C	-1.4362549873	-0.474327451	-0.3790250553	 0.057127
C	-2.0744836154	-0.6002910916	-1.8024432911	-0.256445
C	-2.317550485	-2.0916645093	-1.5225229965	-0.077845
C	-1.0085802397	-2.8573304702	-1.3381396755	-0.087902
C	 0.1790807829	-2.6810036838	-2.2095334836	 0.131792
O	 0.7278218631	-1.6461148197	-2.5125728363	-0.263811
C	-1.5621380008	-1.9942359222	-0.2096849676	-0.129589
H	 0.4366971213	 2.1042847381	-0.3737900767	 0.286345
H	 0.6147060728	-0.0665491561	-0.9020672609	 0.125746
H	 0.2671752162	-0.0076344215	 0.8432505947	 0.072651
H	-2.175145409	-0.011388294	 0.284459372	 0.090873
H	-2.9974576795	-0.0290249351	-1.911602027	 0.10876
H	-1.4135857175	-0.3792645076	-2.6420946284	 0.126344
H	-3.2218153808	-2.6421741236	-1.752536092	 0.097958
H	-1.1987492469	-3.9105494423	-1.1417166854	 0.095606
H	 0.5445152799	-3.6435973766	-2.6363778783	 0.078738
H	-1.7756205854	-2.4921384207	 0.7300815893	 0.093434
80.3387	95.8559	159.6054	176.3517	203.7714	223.4864	296.0617	371.8541	424.6974	487.7517	680.5544	713.8451	759.292	805.3808	841.0753	885.2532	920.212	954.3968	974.0415	1002.7565	1028.3738	1053.331	1070.1166	1086.2104	1114.0719	1121.8774	1162.8982	1187.1997	1228.2398	1253.7838	1272.2395	1277.4317	1304.1389	1342.3595	1376.1991	1429.7532	1442.0424	1460.542	1485.2529	1526.5876	1805.3161	2861.2506	2949.5431	3045.564	3082.7768	3095.0668	3133.4562	3136.1607	3165.2089	3185.7566	3840.2203
OCC1CC2C(C=O)C12	OC[C@H]1C[C@H]2[C@@H](C=O)[C@@H]12	
InChI=1S/C7H10O2/c8-2-4-1-5-6(3-9)7(4)5/h3-8H,1-2H2	InChI=1S/C7H10O2/c8-2-4-1-5-6(3-9)7(4)5/h3-8H,1-2H2/t4-,5+,6-,7+/m1/s1
