20
gdb 99667	2.51007	1.09482	0.81495	3.3619	78.92	-0.2584	0.0289	0.2873	1424.4657	0.170411	-403.145375	-403.135663	-403.134719	-403.181386	33.979	
C	-0.0195147343	 1.5836568302	 0.0950371007	-0.399535
C	-0.0372910843	 0.0543165135	 0.0624228382	-0.185891
C	-1.4566567072	-0.5504184864	-0.034501194	-0.163233
C	-2.1247807812	-0.1257104234	-1.270886096	 0.283898
N	-2.6431372074	 0.1914559819	-2.2543819649	-0.331168
C	-1.4430911056	-2.0849195673	 0.0472308938	-0.030616
C	-1.1562265805	-2.6904887955	 1.4406759792	-0.093217
O	-2.4605604493	-3.2951238641	 1.4990469305	-0.268899
C	-2.8089088623	-2.7929554496	 0.1919159592	-0.09227
H	 1.005953769	 1.9563313636	 0.1686098499	 0.123634
H	-0.4667780617	 2.003773841	-0.8107753109	 0.146272
H	-0.5776125194	 1.9687087814	 0.9553031128	 0.120935
H	 0.557359065	-0.3121877824	-0.7822714304	 0.118164
H	 0.4272995624	-0.3448758163	 0.971339135	 0.111344
H	-2.0585191137	-0.1664477409	 0.8015088704	 0.127149
H	-0.8177110054	-2.4867059942	-0.7531599491	 0.098392
H	-0.3527735988	-3.4359927111	 1.4777155688	 0.108043
H	-1.0012613115	-1.9645489166	 2.2508522578	 0.101016
H	-3.6836781564	-2.1310849463	 0.221684007	 0.112681
H	-3.0014102775	-3.6014323574	-0.5224753079	 0.113299
36.028	75.1748	99.4425	128.3544	163.2674	203.8505	269.7066	319.1381	369.0021	412.5768	521.5463	576.6725	760.6892	815.721	848.032	888.8204	906.7626	942.9851	975.9403	1029.8539	1041.7519	1049.04	1078.6408	1118.4107	1128.4623	1152.4099	1165.3581	1188.2454	1260.3203	1267.9823	1286.2545	1312.7495	1344.3787	1368.148	1371.8779	1396.7434	1418.3902	1485.6516	1500.7128	1506.5052	1513.2935	1537.4778	2352.9725	3000.7412	3013.0955	3020.582	3036.1685	3039.6374	3048.08	3062.1151	3074.0901	3089.7251	3109.3099	3118.8327
CCC(C#N)C1COC1	CC[C@@H](C#N)C1COC1	
InChI=1S/C7H11NO/c1-2-6(3-8)7-4-9-5-7/h6-7H,2,4-5H2,1H3	InChI=1S/C7H11NO/c1-2-6(3-8)7-4-9-5-7/h6-7H,2,4-5H2,1H3/t6-/m0/s1
