13
gdb 43611	2.38049	1.45859	1.04876	3.9516	71.48	-0.2787	-0.0232	0.2556	1108.267	0.08571	-419.370934	-419.362624	-419.36168	-419.403996	30.803	
O	 0.0860601316	 0.2534787213	-0.8754272549	-0.303723
C	-0.0423986362	 1.2364265068	-0.2245392245	 0.449995
C	-1.1807052409	 2.1113015226	 0.2865994764	-0.457607
C	-0.0320847443	 2.9535092379	 0.9295489414	 0.04952
O	 0.9500727839	 1.9928997703	 0.3512052525	-0.250549
C	 0.1535145533	 4.2856483555	 0.377983671	 0.310131
C	 0.2841729338	 5.3832547714	-0.0902263257	-0.431732
C	 0.0179746146	 2.9402710307	 2.3823341038	 0.309925
C	 0.0358036848	 2.9180272513	 3.5824255243	-0.431625
H	-1.7487007042	 2.623898192	-0.4892938773	 0.162635
H	-1.8487160478	 1.6254436938	 0.9973004921	 0.162685
H	 0.4106866935	 6.3565588206	-0.4974938557	 0.215176
H	 0.0627304079	 2.9047940359	 4.6446370165	 0.215169
82.0352	122.9774	166.5473	189.2587	264.6423	447.3258	453.3661	488.7128	512.527	525.4187	575.6086	609.9693	650.8581	652.8117	683.684	684.3095	808.7554	864.6426	892.9451	959.544	1078.1933	1114.0903	1165.1545	1225.5106	1241.418	1444.2842	1951.6868	2246.4439	2246.4503	3104.9503	3171.2602	3498.0951	3498.6812
O=C1CC(O1)(C#C)C#C	O=C1CC(O1)(C#C)C#C	
InChI=1S/C7H4O2/c1-3-7(4-2)5-6(8)9-7/h1-2H,5H2	InChI=1S/C7H4O2/c1-3-7(4-2)5-6(8)9-7/h1-2H,5H2
