21
gdb 76645	2.91787	1.05698	0.9012	3.2899	78.59	-0.2377	0.0647	0.3023	1360.576	0.181625	-424.181247	-424.171592	-424.170648	-424.217022	34.791	
C	-0.0473372601	 1.5700477335	-0.2234917406	-0.420086
C	 0.0383178835	 0.0714503198	-0.0250222882	-0.068727
C	 1.3625127915	-0.6551902096	-0.1350576082	 0.061925
O	 2.5457773478	 0.0814656511	-0.2732070551	-0.415906
C	 0.6810347941	-0.5615433591	 1.2049631723	-0.07189
C	 1.2744799332	 0.2498857852	 2.3237186584	-0.019795
C	 0.3699485436	 0.5944861339	 3.5322020617	-0.08981
O	 1.3038687238	 0.0062245086	 4.4587461816	-0.273902
C	 2.1206585078	-0.4988066911	 3.3823050006	-0.087758
H	 0.8970047252	 2.0641999203	 0.0150562473	 0.12972
H	-0.2888345331	 1.8063228555	-1.2661299503	 0.11301
H	-0.8300016568	 2.0137236422	 0.401083463	 0.121772
H	-0.8170871701	-0.4743759821	-0.4157367021	 0.08403
H	 1.3781726459	-1.6254998673	-0.6312852991	 0.084672
H	 2.5981571501	 0.3962160925	-1.1818510429	 0.290551
H	 0.2083511336	-1.4807871476	 1.5454327833	 0.084564
H	 1.8006260214	 1.1209536771	 1.9360907116	 0.092724
H	 0.1997649385	 1.6583036371	 3.7370484661	 0.097971
H	-0.5979976464	 0.0729966047	 3.5383482482	 0.091047
H	 2.0729738772	-1.5947877443	 3.3105818245	 0.092001
H	 3.1690124993	-0.1953017604	 3.4805807678	 0.103887
33.4493	66.9275	109.5951	154.6294	173.4737	243.4681	275.5576	308.5253	347.1688	479.4995	533.3247	610.1857	747.0006	768.2194	813.0052	872.7633	893.9415	938.4465	975.3006	991.3144	1017.1097	1036.0249	1048.3162	1068.4879	1099.0374	1120.7922	1150.8529	1157.7028	1160.92	1177.9709	1211.942	1249.787	1261.3827	1290.5369	1305.9143	1306.0239	1375.8955	1381.7517	1410.4535	1420.606	1465.8549	1499.4357	1505.8721	1511.0296	1537.7285	2991.3084	3002.9986	3032.5329	3046.5286	3056.3152	3086.089	3093.9598	3112.9203	3122.7949	3127.603	3140.4506	3803.6147
CC1C(O)C1C1COC1	C[C@H]1[C@@H](O)[C@H]1C1COC1	
InChI=1S/C7H12O2/c1-4-6(7(4)8)5-2-9-3-5/h4-8H,2-3H2,1H3	InChI=1S/C7H12O2/c1-4-6(7(4)8)5-2-9-3-5/h4-8H,2-3H2,1H3/t4-,6-,7-/m1/s1
