20
gdb 108559	3.3651	1.455	1.25878	1.9093	77.77	-0.2172	0.0879	0.3051	1069.0771	0.172415	-403.090385	-403.082644	-403.0817	-403.122449	30.736	
C	 0.2481767257	 1.2656851781	 0.1926840853	-0.254359
O	-0.1429731213	-0.0345398419	-0.2111740022	-0.299631
C	 0.5645467022	-0.5255037001	-1.2977350579	 0.463914
C	 0.3198884734	 0.035182983	-2.6999980584	-0.322267
C	 0.5399300604	-1.2320006205	-3.5783817742	-0.162551
N	 1.2920315038	-2.1990741718	-2.7476681574	-0.128935
C	 2.5917700553	-1.5663020951	-2.2954116194	-0.186722
C	 1.934198966	-1.1504934806	-0.9904156478	-0.148802
C	 0.7459019661	-2.0090319243	-1.373207254	-0.117775
H	 1.3151685829	 1.3052626873	 0.4527750044	 0.108464
H	 0.0524648149	 2.0116181534	-0.590276246	 0.112432
H	-0.3455909763	 1.5161659773	 1.0747070021	 0.127721
H	-0.7006088811	 0.4236470279	-2.7727998028	 0.106888
H	 1.0050974627	 0.847021055	-2.9646183955	 0.09941
H	-0.4211832707	-1.6870206422	-3.8386508517	 0.108178
H	 1.081899308	-1.0338575654	-4.5072335464	 0.103168
H	 3.3607799125	-2.3340935653	-2.1680648342	 0.110765
H	 2.9768295395	-0.7838053701	-2.9609572977	 0.094065
H	 2.393110672	-1.0352457588	-0.015526054	 0.08997
H	 0.1754182541	-2.7596587059	-0.8416021521	 0.096071
105.4699	167.309	181.3935	245.0134	360.	388.0081	400.3959	460.498	603.5271	645.0488	681.5569	776.4313	822.6478	853.6441	882.5406	923.8104	931.4097	947.4187	971.9108	1002.5478	1021.286	1044.5816	1080.6115	1103.2894	1115.0561	1178.4322	1180.9956	1186.0853	1202.9848	1212.8894	1229.28	1248.9652	1271.0872	1297.3795	1315.0206	1349.0873	1394.3242	1479.3955	1486.3034	1490.8166	1498.5255	1507.2134	1518.1085	2992.472	3021.9581	3042.4592	3046.6348	3050.9746	3077.1068	3083.547	3104.5215	3120.1128	3180.151	3199.1618
COC12CCN3CC1C23	CO[C@@]12CCN3C[C@@H]1[C@@H]23	
InChI=1S/C7H11NO/c1-9-7-2-3-8-4-5(7)6(7)8/h5-6H,2-4H2,1H3	InChI=1S/C7H11NO/c1-9-7-2-3-8-4-5(7)6(7)8/h5-6H,2-4H2,1H3/t5-,6+,7+/m1/s1
