16
gdb 56798	3.02656	1.18605	0.99416	3.2902	70.18	-0.2628	-0.0064	0.2564	1206.6531	0.125912	-434.082648	-434.073985	-434.07304	-434.117026	30.282	
N	-0.220241688	 1.4103763643	 0.0023931098	-0.500139
C	-0.0415087473	-0.0345175846	 0.0098823633	-0.198159
C	 0.7254262903	-0.5589622526	-1.1473154428	 0.25701
N	 1.3066470064	-0.9151292289	-2.0808615411	-0.320659
C	 0.6579672928	-0.4593160313	 1.281261541	 0.45277
N	 1.3840568361	 0.2914033102	 1.9954732055	-0.313406
C	 1.8663928094	-0.5456447916	 3.1070672422	-0.186767
C	 1.2909380985	-1.9568079368	 2.8107556844	-0.115465
O	 0.4807336638	-1.7553961279	 1.6235530047	-0.255655
H	 0.6362323175	 1.8482092536	 0.329816851	 0.260508
H	-0.4097690207	 1.7377093922	-0.938650918	 0.247338
H	-1.0204826752	-0.5299025443	-0.0091576997	 0.153861
H	 2.9599554323	-0.5356182786	 3.132434126	 0.129257
H	 1.5118012886	-0.1359245234	 4.0582754479	 0.127492
H	 2.0566654257	-2.7001097277	 2.5746139763	 0.132266
H	 0.6429939798	-2.3463812125	 3.5989327894	 0.129748
46.536	95.7487	111.7789	190.9556	216.4476	263.1805	293.8912	411.5106	450.0821	591.1716	652.8721	751.2567	790.5447	832.6588	855.2249	921.8379	949.0574	981.725	996.2073	1027.2823	1118.7713	1131.2934	1187.3119	1215.5963	1247.0678	1251.3017	1323.325	1339.9387	1374.4527	1422.3845	1502.2609	1525.5542	1641.3647	1751.4937	2348.0008	3038.7957	3050.9204	3066.9403	3084.1307	3119.7585	3503.8096	3594.391
NC(C#N)C1=NCCO1	N[C@@H](C#N)C1=NCCO1	
InChI=1S/C5H7N3O/c6-3-4(7)5-8-1-2-9-5/h4H,1-2,7H2	InChI=1S/C5H7N3O/c6-3-4(7)5-8-1-2-9-5/h4H,1-2,7H2/t4-/m0/s1
