20
gdb 116085	2.58563	1.31373	0.91826	2.1225	77.33	-0.2612	0.0164	0.2776	1300.8735	0.171621	-440.311336	-440.302493	-440.301549	-440.34524	33.043	
C	 0.0159958331	 1.5024375347	 0.0087988926	-0.386856
C	-0.0126141573	-0.0252794012	 0.0835756609	-0.206149
C	-1.412691089	-0.6025989757	-0.0052708891	 0.216416
O	-1.3369718143	-1.9920321363	-0.0038854407	-0.237321
C	-2.6317553709	-2.5763245892	-0.0726392387	-0.109011
C	-3.42713374	-2.1835354156	 1.172067712	-0.266041
C	-3.3621693089	-0.6939547319	 1.4154108654	 0.37295
N	-4.3166257247	-0.0603646003	 1.9510238277	-0.499719
O	-2.1682815416	-0.0955925504	 1.1136436541	-0.265832
H	 1.0433834465	 1.8710521132	 0.0733290133	 0.118253
H	-0.4079602012	 1.8632328473	-0.9348338634	 0.115786
H	-0.5584079692	 1.944543949	 0.8263470825	 0.136209
H	 0.567813811	-0.4654412004	-0.733937161	 0.112427
H	 0.4293946911	-0.3784370365	 1.0213084485	 0.117785
H	-1.9323884927	-0.259724535	-0.9186310615	 0.070959
H	-3.1452210033	-2.2415520184	-0.988150623	 0.102561
H	-2.488828523	-3.657078799	-0.1358055976	 0.119378
H	-4.4732259737	-2.4880099753	 1.1101164386	 0.133154
H	-2.979799314	-2.6804264992	 2.0413418708	 0.136828
H	-4.0606369081	 0.9236173804	 2.0618990487	 0.218224
84.6072	100.6465	119.9403	184.7825	230.0872	295.2546	374.7005	441.9256	448.9884	479.8485	526.5102	599.0461	699.6207	762.7109	827.3283	897.1241	903.0043	926.7328	937.248	987.23	1020.4766	1069.7286	1082.4878	1092.9531	1124.8722	1162.6193	1185.8961	1231.074	1273.9583	1288.9852	1320.743	1346.4068	1352.7237	1401.8202	1406.3418	1415.2504	1435.3053	1461.7949	1478.3386	1498.8532	1508.3798	1511.251	1755.3694	2937.3597	2983.7751	3041.3855	3045.6286	3050.8572	3090.1337	3106.8637	3109.8702	3126.9325	3129.7495	3457.1925
CCC1OCCC(=N)O1	CC[C@H]1OCC[C]([NH])O1	
InChI=1S/C6H11NO2/c1-2-6-8-4-3-5(7)9-6/h6-7H,2-4H2,1H3	InChI=1S/C6H11NO2/c1-2-6-8-4-3-5(7)9-6/h6-7H,2-4H2,1H3/t6-/m0/s1
