18
gdb 78871	2.87152	1.84054	1.40598	1.8331	75.27	-0.211	0.0895	0.3004	956.7253	0.147662	-401.847484	-401.840202	-401.839258	-401.878817	29.428	
C	 0.091514388	 1.5595189984	 0.0840256113	-0.335113
N	 0.1391443228	 0.1010152272	 0.0088070696	-0.081258
C	 0.8011613392	-0.5287516249	-1.1291851078	-0.025183
C	 1.3237229858	-1.6539286915	-0.3112008799	-0.100606
C	 2.3281511126	-0.6331818119	-0.8525782176	-0.21998
C	 2.5031562523	-0.1064495888	 0.5440482531	 0.51933
C	 3.6940274795	-0.1100405037	 1.3847493727	-0.283942
O	 3.0698390168	 1.1210447785	 0.9634737307	-0.287813
C	 1.0975003369	-0.6404572635	 0.8786808679	-0.157793
H	 1.0551493923	 2.0567089515	-0.0908918967	 0.1294
H	-0.6297588824	 1.9208811375	-0.6567342277	 0.114814
H	-0.272140889	 1.852295277	 1.074165137	 0.119063
H	 0.3968935467	-0.5207483261	-2.1342886311	 0.099544
H	 1.2695982887	-2.7281544097	-0.3901566184	 0.105625
H	 3.068241015	-0.7693036337	-1.629618371	 0.094638
H	 3.6150035701	-0.3303277269	 2.44920837	 0.114567
H	 4.6710011008	-0.306033046	 0.9448829858	 0.116476
H	 0.7887380241	-0.8483764733	 1.902069982	 0.07823
157.6583	193.0799	218.2865	284.1342	323.4357	366.7998	493.8389	613.349	659.1378	681.8981	759.1156	791.1979	804.6716	856.6063	879.2934	892.0571	896.6171	953.5408	987.1966	1009.3464	1026.9435	1049.7004	1066.9454	1116.1319	1133.1287	1142.2621	1157.2603	1169.0594	1184.3045	1201.556	1215.3725	1247.6486	1287.2845	1351.8112	1448.5315	1456.5458	1487.9197	1506.3328	1546.5534	3009.1727	3076.1621	3077.5735	3101.294	3129.9825	3162.6083	3188.0011	3210.4895	3244.092
CN1C2C3C2C2(CO2)C13	CN1[C@@H]2[C@H]3[C@@H]2[C@]2(CO2)[C@@H]13	
InChI=1S/C7H9NO/c1-8-5-3-4(5)7(2-9-7)6(3)8/h3-6H,2H2,1H3	InChI=1S/C7H9NO/c1-8-5-3-4(5)7(2-9-7)6(3)8/h3-6H,2H2,1H3/t3-,4+,5-,6+,7-/m1/s1
