14
gdb 27977	3.79563	1.23344	0.93634	6.4269	67.63	-0.2371	-0.0353	0.2018	1175.8914	0.100067	-473.89882	-473.890784	-473.88984	-473.93168	28.668	
C	 0.0615872303	 1.4901218463	 0.008266942	-0.485284
C	-0.0746695585	 0.0158019966	 0.0209821833	 0.343364
C	-1.110593434	-0.8133771889	-0.1269253239	-0.221175
N	-0.6184968375	-2.1289337651	-0.0154765727	-0.177432
C	-1.3911758038	-3.2884138359	-0.1142728504	 0.172107
O	-0.9810674572	-4.4097078712	-0.0212849137	-0.255575
C	 0.7748550394	-2.0669400871	 0.2087934006	 0.507636
O	 1.56734903	-2.9417443707	 0.3582208844	-0.344563
O	 1.0804903341	-0.7211922726	 0.2260465202	-0.249918
H	 0.7471782919	 1.8132890425	-0.782460768	 0.154711
H	-0.9116204358	 1.9555763035	-0.1614683098	 0.142773
H	 0.4629086356	 1.8544825325	 0.9600979001	 0.154716
H	-2.1532266484	-0.6097344381	-0.3013001136	 0.162477
H	-2.4522666263	-3.0275094418	-0.2933014984	 0.096164
90.8868	171.1436	181.7048	194.3663	221.2397	288.5015	327.233	466.2347	536.1487	607.1818	625.4951	728.1622	775.8385	787.5155	836.5112	964.8642	1013.1679	1024.9319	1068.6489	1077.6025	1176.4872	1249.6505	1296.6775	1387.1625	1426.0491	1447.2704	1467.7614	1489.3843	1737.6529	1826.7941	1930.754	2948.2989	3038.6779	3094.171	3135.2943	3284.7321
CC1=CN(C=O)C(=O)O1	Cc1cn(C=O)c(=O)o1	
InChI=1S/C5H5NO3/c1-4-2-6(3-7)5(8)9-4/h2-3H,1H3	InChI=1S/C5H5NO3/c1-4-2-6(3-7)5(8)9-4/h2-3H,1H3
