21
gdb 115354	2.1352	1.49572	1.20875	1.444	74.87	-0.2535	0.0676	0.3211	1168.8763	0.181298	-461.362022	-461.352075	-461.351131	-461.397199	35.776	
C	-0.0595091671	 1.1639858709	-0.7069024117	-0.239007
O	-0.169264251	-0.2419127953	-0.6056682279	-0.233657
C	-1.2299729583	-0.664612451	 0.2030078733	 0.220197
O	-2.4937924685	-0.3125392776	-0.325727264	-0.26901
C	-2.9923018214	-1.3740049125	-1.1444127313	-0.095478
C	-2.0463174728	-2.5833309212	-0.9750946332	 0.070668
O	-1.1571062438	-2.7503053686	-2.0680247849	-0.421758
C	-1.2377694039	-2.1976944695	 0.2798324414	-0.032547
C	 0.1255593516	-2.8666779426	 0.4228471568	-0.402472
H	 0.8105059572	 1.3736600469	-1.3329689898	 0.123923
H	-0.9529654112	 1.6058480437	-1.1637418785	 0.122481
H	 0.0917084171	 1.6259523743	 0.2815076806	 0.100993
H	-1.1651423742	-0.1721386492	 1.1856469603	 0.062667
H	-4.0144852868	-1.5999308369	-0.8172150323	 0.098438
H	-3.0241993581	-1.0619035954	-2.1962225637	 0.095116
H	-2.6162521546	-3.5079974164	-0.8070203795	 0.064117
H	-1.6761148949	-2.9887136698	-2.8417804608	 0.283051
H	-1.8656264527	-2.4471651431	 1.1437547931	 0.081753
H	 0.7595468545	-2.6329556399	-0.4315286182	 0.154808
H	 0.6278043995	-2.523250621	 1.3328031385	 0.107766
H	 0.0170925095	-3.9537389857	 0.4882442017	 0.107953
54.6486	90.3926	127.8628	185.4883	199.3661	203.3481	229.0392	260.9366	312.6837	399.7052	456.4486	515.0368	558.5561	717.7246	743.0439	847.0171	896.396	942.2993	953.3577	975.043	1005.2706	1030.4608	1075.4923	1104.7068	1143.6633	1149.6794	1180.3266	1181.3304	1201.1829	1230.5905	1245.676	1314.0755	1330.3246	1346.1131	1367.507	1390.3988	1400.4395	1411.4865	1439.3308	1477.6994	1483.5669	1492.528	1500.7873	1507.9352	1513.8993	2980.8725	2988.245	2993.1469	3014.1846	3037.3578	3046.5055	3055.3796	3058.5263	3102.8241	3122.2831	3161.4879	3826.8142
COC1OCC(O)C1C	CO[C@H]1OC[C@@H](O)[C@H]1C	
InChI=1S/C6H12O3/c1-4-5(7)3-9-6(4)8-2/h4-7H,3H2,1-2H3	InChI=1S/C6H12O3/c1-4-5(7)3-9-6(4)8-2/h4-7H,3H2,1-2H3/t4-,5-,6+/m1/s1
