16
gdb 84965	2.31555	1.71634	1.14248	3.0121	67.35	-0.2677	-0.0793	0.1884	1058.9298	0.123415	-475.048339	-475.039898	-475.038954	-475.081466	31.239	
C	 0.4317484953	 1.4032230446	-0.206683938	-0.390112
C	-0.123359279	 0.0365645451	 0.1565655619	 0.046271
O	 0.0686874601	-0.9105264525	-0.9420861375	-0.252293
C	 1.2005565255	-1.6477095793	-0.7735215464	 0.34064
N	 1.7208855194	-2.4420369953	-1.6037675697	-0.507918
C	 1.7226666045	-1.3678410536	 0.6159665736	 0.278603
O	 2.8137167969	-1.5814748227	 1.0729622622	-0.298161
C	 0.6034870694	-0.6381296874	 1.33978973	 0.044219
O	 1.0664787985	 0.2241963165	 2.3340216813	-0.433134
H	 1.5122175757	 1.3596878277	-0.3779125577	 0.130994
H	-0.0503461175	 1.7746842252	-1.1141874851	 0.13244
H	 0.2491718483	 2.1047261776	 0.6105004811	 0.147299
H	-1.20314393	 0.084446108	 0.3083239367	 0.108055
H	 1.1844739724	-2.4635449296	-2.4745522015	 0.23589
H	-0.0662375122	-1.4124478466	 1.7558235846	 0.116714
H	 1.9669430228	-0.0659573177	 2.5444616146	 0.300494
82.4838	111.2704	213.1167	234.6786	245.72	322.8423	367.1691	392.796	411.9751	518.0592	591.3687	597.5776	655.5684	722.0132	833.5968	880.0955	912.1611	928.9581	1017.1332	1050.0443	1065.2274	1116.0529	1137.6329	1190.3147	1228.8595	1285.2905	1354.8865	1367.3975	1387.6896	1406.6077	1416.7396	1484.1072	1489.6225	1760.5752	1860.9816	2947.0817	3047.8806	3093.7725	3124.377	3140.0759	3460.9	3718.2347
CC1OC(=N)C(=O)C1O	C[C@H]1O[C]([NH])C(=O)[C@H]1O	
InChI=1S/C5H7NO3/c1-2-3(7)4(8)5(6)9-2/h2-3,6-7H,1H3	InChI=1S/C5H7NO3/c1-2-3(7)4(8)5(6)9-2/h2-3,6-7H,1H3/t2-,3+/m1/s1
