13
gdb 18813	4.53382	2.34684	1.95276	3.5215	57.92	-0.2413	0.0007	0.242	681.0401	0.097438	-398.551492	-398.546122	-398.545178	-398.580846	21.678	
N	-0.0819688099	 1.2566426477	 0.1379834268	-0.553141
C	-0.0325933817	 0.0088785226	-0.0202559038	 0.473164
O	 1.1102080389	-0.7586751802	-0.0954652147	-0.240915
C	 0.7294895751	-2.073305592	-0.4615784046	 0.048896
C	-0.3527034106	-2.7497687056	 0.3669089725	 0.069063
O	-1.0529520418	-1.7738516841	 1.12500111	-0.286835
C	-1.1927668734	-0.9544837564	-0.0903294273	-0.026509
C	-0.6819907113	-2.1195334037	-0.9688208651	-0.19108
H	 0.8573372753	 1.6539224122	 0.2023870669	 0.229376
H	 1.5318078686	-2.6437726052	-0.9094479694	 0.124433
H	-0.32874954	-3.7692569825	 0.7330536672	 0.120127
H	-2.1831639035	-0.5231274947	-0.2014498915	 0.115861
H	-1.0508527057	-2.4822761882	-1.917634387	 0.11756
167.0716	362.7444	411.7397	543.2272	627.362	710.5258	733.133	782.597	807.435	830.9028	869.0923	875.486	914.0682	929.3564	1004.9991	1025.4378	1034.5868	1056.7462	1077.4205	1097.5004	1128.4576	1214.3558	1235.1639	1241.0801	1289.027	1336.2887	1402.5862	1792.7902	3174.4248	3190.1492	3211.6493	3221.7579	3471.0924
N=C1OC2C3OC1C23	[NH][C]1O[C@H]2[C@H]3O[C@@H]1[C@@H]23	
InChI=1S/C5H5NO2/c6-5-4-1-2(7-4)3(1)8-5/h1-4,6H	InChI=1S/C5H5NO2/c6-5-4-1-2(7-4)3(1)8-5/h1-4,6H/t1-,2+,3-,4-/m1/s1
