19
gdb 97123	2.39862	1.43055	1.03344	2.3875	77.7	-0.2388	0.0203	0.2591	1204.6431	0.160085	-419.170053	-419.161152	-419.160208	-419.204355	31.878	
C	 0.3560191631	 0.952243946	-0.4413850668	-0.345102
N	 0.7274975449	-0.4306206081	-0.1671176913	-0.332814
C	 0.7114102356	-0.8506426562	 1.0126201401	 0.463976
O	 0.3765609653	-0.2204489475	 2.1971651999	-0.265448
C	 0.5641127906	-1.4606442617	 2.9496969925	-0.095679
C	 0.9967169069	-2.1928446795	 1.6539707316	-0.192774
C	 0.1931579694	-3.3784155457	 1.1692694561	-0.001078
C	-1.1503418211	-3.2099255735	 0.5603185145	-0.245056
N	 0.0032246881	-3.592029167	-0.2718084903	-0.323466
H	 1.2148707943	 1.4736752085	-0.8779056423	 0.132336
H	-0.4416035359	 0.9657929745	-1.1914784498	 0.130244
H	 0.0206966965	 1.5063389236	 0.4425562087	 0.129589
H	 1.324919854	-1.3358560563	 3.7232959287	 0.122404
H	-0.3802229669	-1.7946634929	 3.3862331087	 0.125262
H	 2.0643543941	-2.4341728276	 1.6415730695	 0.114193
H	 0.3913945833	-4.2958226331	 1.7215143879	 0.094213
H	-1.9023413576	-3.9827490283	 0.6924390697	 0.115966
H	-1.546158543	-2.2031393082	 0.4567984835	 0.120417
H	 0.3302042183	-2.7636014969	-0.7705882309	 0.252817
84.6374	95.3259	111.8314	129.1846	196.7677	245.2316	276.9204	396.7944	468.4518	544.4582	701.2184	726.9343	766.5521	854.1888	891.116	923.9015	961.2326	979.1153	1010.7105	1037.6279	1066.0443	1085.6213	1118.6218	1128.0551	1133.1291	1159.5424	1163.3826	1186.3946	1206.5601	1265.3975	1286.5899	1320.8243	1332.3266	1364.695	1417.6393	1441.4891	1494.3441	1497.9745	1509.4276	1515.3244	1836.4306	3021.2323	3061.5116	3065.5514	3087.3305	3093.6735	3110.2117	3115.0574	3126.5808	3195.3568	3460.837
CN=C1OCC1C1CN1	CN=C1OC[C@H]1[C@H]1CN1	
InChI=1S/C6H10N2O/c1-7-6-4(3-9-6)5-2-8-5/h4-5,8H,2-3H2,1H3	InChI=1S/C6H10N2O/c1-7-6-4(3-9-6)5-2-8-5/h4-5,8H,2-3H2,1H3/t4-,5+/m0/s1
