19
gdb 80253	2.1495	1.98108	1.5228	2.8833	78.82	-0.2221	-0.0174	0.2048	974.8001	0.161109	-385.921853	-385.914451	-385.913507	-385.953346	30.252	
C	-0.1336491599	 1.5522424101	 0.0001000441	-0.433846
C	 0.0463663465	 0.0362948482	 0.003706487	 0.025816
C	 1.0537695031	-0.5801957428	-1.0199838164	-0.077701
C	 2.4071401109	-0.001512369	-0.5207427401	-0.330003
C	 2.2117348361	-0.0405142495	 1.0112322485	 0.431688
O	 3.0039988783	 0.2852023683	 1.8537246078	-0.332593
C	 0.7760942757	-0.5811635718	 1.2303520316	-0.160133
C	 0.8898661274	-2.0326552822	 0.7749074661	-0.097696
C	 1.0378614407	-2.0325674927	-0.5542574357	-0.079384
H	 0.7996420875	 2.0971482721	 0.169650288	 0.128038
H	-0.5503019809	 1.8902724364	-0.9547580627	 0.118705
H	-0.8309781935	 1.8524722562	 0.7891658696	 0.123582
H	-0.92913455	-0.4460373443	-0.1139446953	 0.079605
H	 0.8399940269	-0.4044849577	-2.0748463399	 0.066199
H	 3.2761852893	-0.5866033432	-0.8277893293	 0.126676
H	 2.5780426479	 1.033271423	-0.8335477717	 0.124473
H	 0.3841482402	-0.3971100126	 2.2291508587	 0.075687
H	 0.9390421475	-2.8764834891	 1.4503816561	 0.109396
H	 1.2210364064	-2.8868242893	-1.1938039662	 0.10149
116.1923	196.4578	260.0409	286.0448	359.283	428.3943	478.6813	525.5097	606.4907	618.5703	703.904	723.9208	764.2149	812.1226	852.2131	871.9281	927.7483	943.295	953.7888	960.2488	1006.3777	1024.0479	1072.7207	1089.4154	1122.33	1133.6567	1137.7052	1170.3224	1216.1762	1245.0029	1273.3204	1286.743	1313.3176	1340.269	1374.3888	1417.3668	1459.7894	1495.8832	1504.3635	1636.5334	1853.0247	3036.0547	3056.6875	3063.3902	3098.8316	3105.5686	3110.4861	3117.2123	3136.3767	3203.2127	3229.2384
CC1C2CC(=O)C1C=C2	C[C@H]1[C@H]2CC(=O)[C@@H]1C=C2	
InChI=1S/C8H10O/c1-5-6-2-3-7(5)8(9)4-6/h2-3,5-7H,4H2,1H3	InChI=1S/C8H10O/c1-5-6-2-3-7(5)8(9)4-6/h2-3,5-7H,4H2,1H3/t5-,6+,7+/m0/s1
