15
gdb 48495	2.51586	1.55026	1.25903	3.3499	61.49	-0.246	-0.0586	0.1875	1019.0016	0.109849	-494.898081	-494.889284	-494.88834	-494.933209	29.556	
O	-0.0537114926	 0.1748812938	-0.644448683	-0.258065
C	 0.0144302347	 1.2273733189	-0.0658869263	 0.138041
C	 1.355052549	 1.9627458697	 0.1305713014	 0.276654
O	 2.4509325971	 1.0971584997	 0.1116917634	-0.284034
C	 2.9358645299	 1.0167430036	-1.2351732964	-0.09988
C	 2.1307023254	 2.0897623921	-1.9966885748	-0.123499
O	 1.5053705582	 2.8538228393	-0.9571966382	-0.290512
C	 1.4314679997	 2.7850389302	 1.4213821836	 0.144076
O	 0.5868270451	 2.7655901045	 2.2735688131	-0.236525
H	-0.8806503511	 1.7753750284	 0.2872715534	 0.111038
H	 4.0100466511	 1.2236424085	-1.2215976849	 0.121002
H	 2.7603203549	 0.0138999575	-1.632715803	 0.135724
H	 2.7506283287	 2.7736641181	-2.5792251645	 0.130587
H	 1.37419638	 1.6376849618	-2.6470591689	 0.130755
H	 2.3585738297	 3.390964644	 1.4905798351	 0.10464
43.8326	60.5925	75.901	149.4218	209.3211	274.9069	299.3331	359.4375	442.5107	647.4192	692.1213	720.1403	832.8058	863.4321	911.1216	958.2779	976.2142	1031.4662	1049.7265	1081.8033	1156.6705	1187.6616	1222.0809	1230.7354	1253.7348	1373.0687	1378.8436	1397.3816	1410.6847	1513.2582	1527.3364	1832.7889	1846.5972	2928.59	2950.5525	3048.3237	3055.0507	3101.6422	3123.4742
O=CC1(OCCO1)C=O	O=CC1(OCCO1)C=O	
InChI=1S/C5H6O4/c6-3-5(4-7)8-1-2-9-5/h3-4H,1-2H2	InChI=1S/C5H6O4/c6-3-5(4-7)8-1-2-9-5/h3-4H,1-2H2
