15
gdb 87315	1.96509	1.42266	0.9802	6.0844	70.35	-0.301	0.0059	0.3069	1192.8039	0.111388	-416.813209	-416.804228	-416.803284	-416.847576	31.906	
O	-0.2903427795	 1.359594987	 0.0691163699	-0.412181
C	-0.1355436786	-0.0207148695	 0.1370635678	 0.059778
C	-0.8077967123	-0.7995592584	 1.2256220454	-0.347396
C	-1.3796649703	-0.8411820506	-0.1913803934	 0.136748
C	-2.6809783015	-0.0905770577	-0.4819585302	-0.42714
C	-3.8408378549	-0.6892018105	 0.1776786227	 0.278606
N	-4.7505703674	-1.155176631	 0.715714031	-0.299521
C	-1.1762796767	-2.0471775337	-0.9520136048	 0.255271
N	-1.0034654375	-3.0088671342	-1.570852701	-0.328523
H	 0.1838642497	 1.7573863645	 0.8072901248	 0.304778
H	 0.8010466798	-0.4044780316	-0.2629324367	 0.129787
H	-0.3318652487	-1.6952706526	 1.6055559358	 0.152725
H	-1.3982486361	-0.2441004884	 1.9464845901	 0.145679
H	-2.5668512709	 0.9428461595	-0.1437523858	 0.179054
H	-2.8596453751	-0.0560443327	-1.5612909056	 0.172336
43.8155	121.9462	149.1068	173.573	231.8233	264.8135	308.9796	385.1837	423.4644	460.4975	512.7104	570.9088	603.1552	711.9224	827.9567	896.9864	924.8824	949.8658	953.0233	1025.5042	1065.986	1099.0058	1166.6634	1210.3818	1264.7719	1302.8364	1322.5012	1340.2434	1419.7717	1462.8864	1477.4766	2354.9312	2367.2885	3064.8478	3111.5675	3128.7968	3144.0956	3240.9471	3808.5448
OC1CC1(CC#N)C#N	O[C@H]1C[C@]1(CC#N)C#N	
InChI=1S/C6H6N2O/c7-2-1-6(4-8)3-5(6)9/h5,9H,1,3H2	InChI=1S/C6H6N2O/c7-2-1-6(4-8)3-5(6)9/h5,9H,1,3H2/t5-,6+/m0/s1
