20
gdb 12516	3.2971	1.73287	1.23378	1.505	77.32	-0.2319	0.0174	0.2493	1029.8826	0.178351	-349.012205	-349.004247	-349.003303	-349.044516	30.485	
C	-0.2075300098	 1.5238097057	-0.0058601397	-0.475828
C	 0.0119316255	 0.0330846998	 0.0071162436	 0.334189
C	-0.0342823409	-0.6824949199	-1.1202011179	-0.157405
C	 0.1478876925	-2.1785572767	-1.246889616	-0.131741
O	 1.3357807653	-2.7087947839	-0.6817981658	-0.234338
C	 1.3170793657	-2.8426546219	 0.7237883773	-0.062757
C	 1.4654946545	-1.5238408863	 1.4844290807	-0.191526
C	 0.2610465097	-0.5752781161	 1.376769623	-0.300396
H	 0.6747376747	 2.0558023802	 0.3739542779	 0.123353
H	-0.4253076331	 1.8974377569	-1.0096669059	 0.118787
H	-1.0412691929	 1.8027049024	 0.6521221718	 0.122049
H	-0.2410087366	-0.1597341276	-2.0520764964	 0.077201
H	-0.7258829911	-2.7044736643	-0.8197837869	 0.089929
H	 0.1903671114	-2.4447462401	-2.307377677	 0.106662
H	 0.3912853471	-3.3543445158	 1.0433775807	 0.077649
H	 2.1568418214	-3.5022965274	 0.9680033463	 0.101473
H	 1.625674208	-1.7680646423	 2.5427819891	 0.090762
H	 2.3701023567	-1.0161576024	 1.1306075614	 0.106545
H	 0.3909465472	 0.2345984457	 2.1030440296	 0.097404
H	-0.6439959055	-1.1141938259	 1.6978534641	 0.107988
62.3583	173.7484	228.4637	238.0364	302.0957	372.5175	382.6527	394.9845	480.0015	543.7996	663.7162	737.1948	823.272	840.8882	885.3718	899.4446	956.0539	1005.0452	1029.9467	1044.9221	1071.8909	1096.3002	1118.6052	1138.8421	1196.8811	1221.4316	1277.3347	1286.2597	1335.9826	1351.9637	1377.3928	1398.3748	1400.1161	1413.0536	1423.7205	1470.8877	1476.8827	1480.8006	1481.997	1490.8643	1496.4751	1734.8295	2932.6002	2946.3886	2991.7491	3011.2177	3020.7741	3056.103	3058.1116	3064.4427	3073.3437	3074.1361	3112.3407	3140.5045
CC1=CCOCCC1	CC1=CCOCCC1	
InChI=1S/C7H12O/c1-7-3-2-5-8-6-4-7/h4H,2-3,5-6H2,1H3	InChI=1S/C7H12O/c1-7-3-2-5-8-6-4-7/h4H,2-3,5-6H2,1H3
