19
gdb 54613	2.57321	1.44212	0.94608	2.5086	81.92	-0.1933	0.0025	0.1958	1227.2629	0.16116	-419.279427	-419.270488	-419.269543	-419.312737	34.268	
N	 0.005998482	 1.3650040685	 0.1167085483	-0.542844
C	 0.0461255953	-0.012263285	 0.0753161621	 0.302008
O	 1.1347068307	-0.5993874335	 0.0883120765	-0.423992
C	-1.2342021853	-0.7016299208	 0.0646498509	 0.137365
C	-1.3192834595	-2.064120262	 0.0202105929	 0.312729
N	-0.2875864813	-2.9315351737	-0.0724308127	-0.58488
C	-2.7555308286	-2.5290955956	-0.0088960124	-0.303037
C	-3.5414974607	-1.2673113171	 0.4114671624	-0.210238
C	-2.6132988101	-0.0743128279	 0.0656636792	-0.338207
H	 0.8848266537	 1.830019138	-0.0476109062	 0.250887
H	-0.8271419039	 1.8531048453	-0.1656778481	 0.251428
H	 0.6316241702	-2.5148206265	 0.0405781012	 0.280494
H	-0.4297594358	-3.9021334206	 0.1459104765	 0.247778
H	-3.0135222821	-2.8567270102	-1.0254421223	 0.119616
H	-2.9330273317	-3.3866489132	 0.650794172	 0.102931
H	-4.5205819937	-1.2000375197	-0.0692063879	 0.097455
H	-3.7091061794	-1.2912062588	 1.4925798065	 0.109629
H	-2.71996223	 0.7369961274	 0.796401209	 0.098127
H	-2.8756794497	 0.3536840554	-0.9150274379	 0.092753
102.0997	131.7732	165.8573	214.8698	256.4441	319.5086	336.7618	352.7348	437.0935	489.1479	518.3957	562.6834	612.4246	655.1559	704.6276	719.5554	790.6647	854.4152	906.144	922.9122	965.7134	1020.956	1062.9251	1084.5462	1124.2306	1158.8902	1202.1509	1233.0459	1247.7142	1306.9317	1328.1938	1339.4327	1376.0225	1449.0139	1478.3777	1493.9326	1514.9127	1564.7621	1613.7653	1671.4546	1722.4101	2970.7941	3015.356	3029.9076	3049.7572	3062.9088	3103.7629	3487.5239	3591.7164	3696.2495	3720.501
NC(=O)C1=C(N)CCC1	NC(=O)C1=C(N)CCC1	
InChI=1S/C6H10N2O/c7-5-3-1-2-4(5)6(8)9/h1-3,7H2,(H2,8,9)	InChI=1S/C6H10N2O/c7-5-3-1-2-4(5)6(8)9/h1-3,7H2,(H2,8,9)
