16
gdb 129351	3.9749	0.95655	0.87252	3.3614	72.63	-0.2474	0.005	0.2525	1322.4431	0.126273	-434.077842	-434.069644	-434.0687	-434.112496	28.859	
N	 0.3750578737	 0.1722164052	 1.3791819484	-0.435061
C	-0.2029348375	-0.371773274	 0.4012757643	 0.133149
O	-0.0940379032	-1.7093578328	 0.2193491564	-0.190039
C	-0.9219494659	-2.2806058286	-0.7972649262	-0.214908
C	-2.3192123204	-2.5048671305	-0.3109349829	 0.358232
C	-3.5424111114	-2.4989815031	-0.9527913903	-0.316432
C	-4.4733114891	-2.8371660488	 0.0531105787	 0.000995
N	-3.8851226429	-3.0295929935	 1.23020553	-0.221056
N	-2.5777321326	-2.833742782	 0.9804435283	-0.226912
H	 0.2239873724	 1.1785886957	 1.3603807662	 0.235099
H	-0.8040916501	 0.1263871143	-0.3713001209	 0.097316
H	-0.932367238	-1.6539106332	-1.6976755967	 0.12757
H	-0.4300539486	-3.2234906895	-1.055995073	 0.143968
H	-3.7299408307	-2.284775423	-1.9927550692	 0.10503
H	-5.5451123094	-2.9395474018	-0.0322483017	 0.115581
H	-1.9109059265	-2.8752412745	 1.7342349587	 0.287469
37.5819	53.8911	97.1088	193.2712	249.2897	353.8348	410.4865	567.9868	640.3313	651.7788	696.5815	740.3844	803.156	824.1509	893.5764	938.7133	955.6732	1025.0742	1036.3078	1041.8655	1062.1675	1120.7322	1137.3436	1231.9827	1243.8534	1298.584	1316.2828	1363.4912	1388.515	1418.5666	1452.8497	1490.5209	1500.8775	1602.1815	1750.2378	3026.4381	3034.7493	3079.9773	3245.1643	3266.6834	3522.213	3663.0374
N=COCC1=CC=NN1	[NH][CH]OCc1ccn[nH]1	
InChI=1S/C5H7N3O/c6-4-9-3-5-1-2-7-8-5/h1-2,4,6H,3H2,(H,7,8)	InChI=1S/C5H7N3O/c6-4-9-3-5-1-2-7-8-5/h1-2,4,6H,3H2,(H,7,8)
