20
gdb 46359	2.9983	1.20117	1.03979	2.4587	79.29	-0.2404	-0.0246	0.2158	1232.7744	0.171401	-403.128511	-403.119984	-403.11904	-403.1624	31.983	
O	 0.0383778735	 0.1449155902	-0.7091266093	-0.293927
C	-0.0208516886	 1.2595420443	-0.2816127449	 0.387342
C	-1.1412645874	 2.1710287005	 0.2410598965	-0.278146
N	-0.087466041	 3.0940138912	 0.7388114565	-0.328747
C	 1.0054419632	 2.3697991546	 0.019930199	-0.120422
C	 2.2406887463	 2.0393812616	 0.837192823	 0.046097
C	 2.122269509	 1.1343594461	 2.0958551107	-0.227142
C	 3.4646746871	 0.4679808431	 1.6881003449	-0.208218
C	 3.2641479594	 1.0228171968	 0.2511906262	-0.242838
H	-1.7710761369	 2.5532162257	-0.5749598406	 0.121575
H	-1.7905764306	 1.7526264863	 1.0178868508	 0.133719
H	-0.2098671155	 4.0549411264	 0.4423289697	 0.223543
H	 1.3068646364	 2.8488583083	-0.9271342829	 0.090015
H	 2.743712078	 2.9770903652	 1.1008292674	 0.073223
H	 2.0651215739	 1.6284863771	 3.0675348285	 0.098554
H	 1.2868161672	 0.4330011951	 2.0120989744	 0.107349
H	 4.3178989923	 0.935738825	 2.1880320135	 0.099612
H	 3.5467086646	-0.6150140781	 1.802246663	 0.099646
H	 2.7644059309	 0.2942498686	-0.3928057785	 0.127467
H	 4.1352008384	 1.4232881719	-0.2735239676	 0.091297
65.4891	97.7874	106.7076	179.1799	195.7828	366.0856	421.3981	440.1748	582.5078	615.5808	666.7142	721.5476	770.6913	801.5285	861.9518	900.48	931.0685	937.7236	967.4265	983.3733	1003.1204	1011.164	1049.3499	1064.1403	1097.1385	1135.6215	1153.7382	1203.0568	1222.5946	1241.182	1256.1943	1264.0446	1271.4072	1284.9042	1299.2759	1336.0552	1358.2684	1385.2226	1474.0244	1478.4397	1486.1861	1510.3583	1903.6975	2961.0872	3006.8483	3034.0386	3055.7955	3058.3669	3062.5635	3067.3775	3102.3976	3114.1128	3124.4762	3547.0812
O=C1CNC1C1CCC1	O=C1CN[C@H]1C1CCC1	
InChI=1S/C7H11NO/c9-6-4-8-7(6)5-2-1-3-5/h5,7-8H,1-4H2	InChI=1S/C7H11NO/c9-6-4-8-7(6)5-2-1-3-5/h5,7-8H,1-4H2/t7-/m0/s1
