16
gdb 42926	3.40488	1.18097	0.96438	3.8291	74.	-0.2468	-0.0166	0.2303	1197.5979	0.12298	-400.688325	-400.68005	-400.679106	-400.721776	30.666	
O	 0.0879088931	 0.0225006232	-0.0040496749	-0.282183
C	 0.0229845938	 1.208833492	 0.0215575855	 0.389828
C	-1.1023658968	 2.262629986	 0.1272608633	-0.130082
C	-2.1022232823	 2.2393732742	 1.2946119636	-0.379941
C	-3.0740656469	 1.1592055237	 1.1815170532	 0.30952
C	-3.8761506282	 0.272498279	 1.0673123527	-0.434944
C	 0.0397131317	 3.2805326147	 0.1036200493	-0.058943
C	 1.0695795709	 2.990792588	 1.1117746402	-0.247861
N	 1.0882155072	 2.191732291	-0.1521761541	-0.170594
H	-1.649168394	 2.2709114945	-0.8215679631	 0.131442
H	-1.5673148324	 2.1557980595	 2.2478053533	 0.135321
H	-2.6256703122	 3.2040921635	 1.3217344981	 0.139931
H	-4.5768457874	-0.5198776178	 0.9740054327	 0.202294
H	 0.0521504196	 4.1808516498	-0.4984433345	 0.115927
H	 1.9191273657	 3.6616161804	 1.1846056402	 0.144085
H	 0.8159168283	 2.4860034685	 2.0402692448	 0.136201
56.2923	96.0408	167.9249	215.4386	249.8161	336.6411	463.8931	472.7124	491.5822	629.4766	651.1821	661.694	716.2455	756.4703	772.3078	841.2259	937.0246	968.8208	972.9477	1021.731	1027.2125	1064.9824	1115.6887	1121.1737	1143.2181	1181.2319	1218.4117	1258.4645	1313.0301	1362.3586	1368.0511	1470.2118	1507.6134	1924.1678	2244.6734	3022.3163	3054.6441	3072.2827	3120.6504	3193.3795	3212.1491	3506.7305
O=C1C(CC#C)C2CN12	O=C1[C@@H](CC#C)[C@H]2CN12	
InChI=1S/C7H7NO/c1-2-3-5-6-4-8(6)7(5)9/h1,5-6H,3-4H2	InChI=1S/C7H7NO/c1-2-3-5-6-4-8(6)7(5)9/h1,5-6H,3-4H2/t5-,6+,8?/m0/s1
