17
gdb 62081	4.06557	0.80094	0.70311	5.1904	67.28	-0.2741	-0.0474	0.2267	1540.8893	0.132192	-496.135973	-496.126028	-496.125084	-496.17207	34.065	
C	 0.1326152719	 1.3452491282	-0.0322975721	-0.485133
C	-0.0772270844	-0.1487664372	-0.0647727382	 0.359367
O	 0.8261352398	-0.9343132631	-0.256439199	-0.309073
C	-1.4901590347	-0.7061271359	 0.1522051187	 0.032377
O	-1.4834009999	-2.0987279968	 0.0218246304	-0.432252
C	-2.0446564168	-0.3175617541	 1.5327919407	-0.109987
O	-3.3934127347	-0.7532006967	 1.6600360145	-0.180591
C	-3.6059057343	-1.9983042362	 2.1521207057	 0.185484
O	-4.6988616246	-2.4674859109	 2.2327299569	-0.272046
H	 1.0965323377	 1.5905215859	-0.4796900926	 0.159081
H	-0.6730552025	 1.8741885864	-0.5500206005	 0.149194
H	 0.1337450963	 1.6935954943	 1.0078274866	 0.15872
H	-2.150199331	-0.2570701808	-0.6081060128	 0.11136
H	-0.5525076043	-2.3360911092	-0.1293525292	 0.298019
H	-1.4176317496	-0.7643353755	 2.3152299404	 0.122068
H	-2.0631338975	 0.7667699112	 1.6678646234	 0.124254
H	-2.6749922514	-2.4965814697	 2.4731449172	 0.089157
54.7198	72.8943	82.5011	116.5969	166.7699	184.2775	289.6288	333.2587	363.0823	408.0976	462.1404	474.0993	574.637	629.3484	671.4035	834.9328	908.7137	974.125	1002.3311	1026.3313	1048.1108	1095.6848	1145.1853	1165.0346	1202.8863	1259.7498	1304.5145	1364.0008	1389.6399	1392.4479	1426.1018	1436.1392	1462.6707	1474.8144	1491.3577	1799.147	1871.8357	2981.2341	2993.7682	3029.3169	3039.2039	3103.8176	3107.0571	3155.1787	3656.6486
CC(=O)C(O)COC=O	CC(=O)[C@@H](O)COC=O	
InChI=1S/C5H8O4/c1-4(7)5(8)2-9-3-6/h3,5,8H,2H2,1H3	InChI=1S/C5H8O4/c1-4(7)5(8)2-9-3-6/h3,5,8H,2H2,1H3/t5-/m0/s1
