17
gdb 25017	3.96638	1.12169	0.93937	3.4243	78.5	-0.1835	0.0325	0.2159	1244.0863	0.136907	-418.021763	-418.01353	-418.012586	-418.055225	30.802	
N	 0.0236952619	 1.2577386295	 0.1535258793	-0.609027
C	 0.010481466	-0.0065198057	 0.060539718	 0.460568
N	-1.0760849755	-0.8074544854	-0.1995334027	-0.330908
C	-0.6847392851	-2.1486092559	-0.2218500167	-0.225094
C	 0.6325824854	-2.177696245	 0.0216833112	 0.370665
O	 1.0831046476	-0.871649963	 0.198720551	-0.256009
C	 1.615070317	-3.2548730617	 0.1277064313	-0.107484
C	 3.0378745575	-3.0598260086	-0.3615788713	-0.267702
C	 2.7654726045	-3.1632747402	 1.112479384	-0.267716
H	 0.9616314897	 1.5938728575	 0.3524988286	 0.221824
H	-1.9964869125	-0.4357219422	-0.3429321931	 0.274308
H	-1.3773733759	-2.950444614	-0.4083120867	 0.14464
H	 1.1794120283	-4.2370388751	-0.0217286813	 0.094155
H	 3.513293881	-3.8941017756	-0.8647977904	 0.116905
H	 3.2918341686	-2.0838986529	-0.7580909278	 0.131967
H	 2.8373923969	-2.2565297915	 1.7013625437	 0.132009
H	 3.0514868645	-4.0695012102	 1.6342265829	 0.116898
64.6497	98.9275	142.6903	149.7437	306.9142	382.9602	427.5125	482.4025	606.9473	647.5881	705.9874	722.2833	748.8192	751.8906	793.7827	819.0354	904.8648	906.019	944.5751	969.8897	1030.5943	1065.8041	1072.1701	1085.6448	1102.2122	1121.1547	1203.3212	1208.2926	1221.2708	1275.864	1360.2079	1404.3442	1414.5464	1464.2898	1498.8229	1724.401	1794.262	3140.727	3143.9847	3168.4744	3225.1357	3239.9484	3291.2975	3545.3992	3715.5057
N=C1NC=C(O1)C1CC1	[NH][C@H]1NC=C(O1)C1CC1	
InChI=1S/C6H8N2O/c7-6-8-3-5(9-6)4-1-2-4/h3-4H,1-2H2,(H2,7,8)	InChI=1S/C6H9N2O/c7-6-8-3-5(9-6)4-1-2-4/h3-4,6-8H,1-2H2/t6-/m0/s1
