19
gdb 65234	2.778	1.247	1.10537	1.4691	76.18	-0.2415	-0.0262	0.2152	1183.7373	0.158784	-419.172368	-419.163515	-419.162571	-419.206328	33.088	
C	 0.3468564853	 1.0288675894	 1.1628059229	-0.487165
C	 0.109522956	-0.1019075167	 0.1849316736	 0.343696
C	 0.7343717283	-0.0412560732	-1.1615855858	-0.273393
N	 1.2314400039	-1.0025199256	-0.1598353822	-0.35791
C	-1.2114731194	-0.8251228648	 0.3195063065	-0.131022
N	-1.6203676786	-1.2278588771	 1.6961349825	-0.328838
C	-3.0058058957	-0.7191131916	 1.526998535	-0.285165
C	-2.5307875544	-0.0251897583	 0.2398909557	 0.383738
O	-2.9718645603	 0.809177175	-0.4907342452	-0.290255
H	 1.3275129329	 1.4860296906	 0.9974407623	 0.108309
H	-0.4102109001	 1.8124579943	 1.0469196219	 0.13328
H	 0.2946958698	 0.6613797348	 2.1913711061	 0.140794
H	 0.2399657242	-0.4873724421	-2.0203476992	 0.118448
H	 1.335428	 0.833580876	-1.3948289579	 0.11316
H	 2.0904278765	-0.6513358585	 0.2574827741	 0.228268
H	-1.2320402214	-1.6502230282	-0.4078019974	 0.097665
H	-1.5537803296	-2.2229059413	 1.8717278883	 0.230306
H	-3.7751095254	-1.4768464247	 1.3198487647	 0.122907
H	-3.3617271522	-0.0690285982	 2.3335833842	 0.13318
53.1326	112.2688	126.5572	213.2893	242.0644	312.1629	335.5165	388.6782	433.7099	484.8311	572.6942	641.2102	713.0713	786.0757	836.4055	854.766	919.3908	936.7277	971.567	996.8818	1006.8631	1012.9178	1054.2648	1067.5442	1087.4494	1107.6229	1119.843	1156.7192	1211.3979	1260.4093	1271.2838	1310.4503	1355.3371	1364.9332	1397.969	1417.1648	1476.6605	1481.4902	1504.9451	1516.0672	1912.6235	2998.2384	3007.7694	3033.6068	3069.0221	3098.4317	3107.8509	3117.9882	3191.1161	3493.1432	3555.9677
CC1(CN1)C1NCC1=O	C[C@]1(CN1)[C@H]1NCC1=O	
InChI=1S/C6H10N2O/c1-6(3-8-6)5-4(9)2-7-5/h5,7-8H,2-3H2,1H3	InChI=1S/C6H10N2O/c1-6(3-8-6)5-4(9)2-7-5/h5,7-8H,2-3H2,1H3/t5-,6-/m0/s1
