21
gdb 30816	2.3991	1.23698	0.87018	1.4584	89.02	-0.1677	0.0492	0.217	1404.9252	0.182439	-383.316818	-383.306337	-383.305393	-383.352944	37.573	
C	 0.0962649455	 1.5165585514	 0.3277264165	-0.361796
C	-0.0081644665	 0.0225955597	-0.0359792029	-0.309811
C	-1.4038229771	-0.5036645305	-0.1064260775	 0.26694
C	-2.2003325523	-0.7884243586	-1.1971713671	 0.15986
N	-1.7994348441	-0.6586520894	-2.5536386527	-0.614133
C	-3.4466909061	-1.2809683551	-0.7071686293	-0.302337
C	-3.3901546924	-1.2847091311	 0.6699449345	 0.312892
C	-4.3968063483	-1.7028312285	 1.6900842697	-0.50433
N	-2.1555939378	-0.7982077146	 1.0190640045	-0.359427
H	 1.141218854	 1.8428925556	 0.3616541734	 0.107989
H	-0.4313295504	 2.1357238711	-0.4046959442	 0.114466
H	-0.3500210746	 1.7185421262	 1.3074586578	 0.106659
H	 0.4560833059	-0.1493814879	-1.0133706857	 0.120845
H	 0.5787777295	-0.561420359	 0.6873287109	 0.093939
H	-1.6314519597	 0.3074156108	-2.8120595712	 0.235289
H	-2.5146000137	-1.0161546714	-3.1750839094	 0.23257
H	-4.2913832538	-1.5979435382	-1.3023034647	 0.074925
H	-4.0385865407	-2.531016317	 2.3155863889	 0.12258
H	-4.6712407363	-0.8820035554	 2.3653366002	 0.121531
H	-5.3105260311	-2.0385629859	 1.1941354265	 0.134213
H	-1.8261985299	-0.6988300624	 1.9636371518	 0.247135
53.9143	63.7804	99.7487	121.0139	183.4431	205.6376	258.822	277.6684	294.7955	395.9912	418.8161	478.3267	587.3145	622.8135	652.9714	692.1763	764.1562	767.8788	800.7229	829.204	962.5194	992.1608	1022.4778	1059.2043	1064.9287	1077.3972	1095.7174	1183.8045	1214.6883	1250.3594	1299.9312	1349.5934	1357.3406	1405.9522	1417.6542	1440.0761	1476.9831	1480.0405	1493.4117	1495.8125	1506.0712	1506.7067	1557.7782	1644.3112	1667.1979	3001.7063	3010.1032	3028.828	3051.2969	3065.7437	3098.0125	3104.7447	3119.7136	3229.392	3511.3059	3596.7104	3672.5387
CCC1=C(N)C=C(C)N1	CCc1c(N)cc(C)[nH]1	
InChI=1S/C7H12N2/c1-3-7-6(8)4-5(2)9-7/h4,9H,3,8H2,1-2H3	InChI=1S/C7H12N2/c1-3-7-6(8)4-5(2)9-7/h4,9H,3,8H2,1-2H3
