18
gdb 6766	7.28262	0.70669	0.65466	1.2169	65.85	-0.2668	0.0183	0.2852	1665.0118	0.151074	-422.110686	-422.100708	-422.099764	-422.147328	32.921	
C	-0.1948949152	 1.4390925437	 0.01170188	-0.478182
C	 0.0588039387	-0.0494976191	 0.0011156552	 0.425756
O	 1.1412136174	-0.5789270519	-0.0120524631	-0.349991
O	-1.1064935838	-0.7310961864	 0.00845404	-0.239997
C	-0.9908959199	-2.1653386264	-0.0004273982	-0.062786
C	-2.3982447356	-2.7379702227	 0.0102352796	-0.190603
C	-2.3970310112	-4.2619898449	 0.0019691399	-0.072956
O	-3.7490776507	-4.6900444908	 0.0125991245	-0.41913
H	 0.7566813825	 1.9690345097	 0.0051384578	 0.147478
H	-0.78829811	 1.724945466	-0.8613926276	 0.149543
H	-0.7707589257	 1.7153627632	 0.8995080756	 0.149551
H	-0.4292504372	-2.4726230254	-0.8893820608	 0.119763
H	-0.4119891676	-2.4821552698	 0.8739852935	 0.119771
H	-2.934490551	-2.3864803403	 0.8980837173	 0.118039
H	-2.9517002142	-2.3769732819	-0.8631212711	 0.118052
H	-1.8676857669	-4.6310660237	-0.8919214004	 0.089117
H	-1.8506842681	-4.6406798101	 0.8814852393	 0.089122
H	-3.7603836314	-5.6515131094	 0.0082536087	 0.287451
40.6546	53.7012	80.6954	102.7665	117.8064	188.6481	251.7626	268.8907	295.6521	452.3684	476.7274	607.0296	649.7919	774.1247	882.1229	907.9543	979.9045	1030.3918	1055.8859	1064.4468	1084.569	1101.109	1174.5942	1232.0924	1244.9902	1270.0235	1298.4778	1309.286	1320.4464	1390.4014	1423.9447	1468.7993	1469.7533	1476.0449	1498.5568	1517.084	1532.7936	1824.5975	2960.0064	2984.9744	3039.8815	3052.2755	3057.2921	3074.9884	3103.1549	3121.8645	3169.443	3831.1097
CC(=O)OCCCO	CC(=O)OCCCO	
InChI=1S/C5H10O3/c1-5(7)8-4-2-3-6/h6H,2-4H2,1H3	InChI=1S/C5H10O3/c1-5(7)8-4-2-3-6/h6H,2-4H2,1H3
