14
gdb 22030	3.9257	1.13494	0.8816	3.1281	74.36	-0.1871	-0.0321	0.155	1209.2507	0.101303	-469.960044	-469.951994	-469.95105	-469.992445	30.285	
O	-0.1446562851	 1.3721147341	 0.0297266832	-0.405723
N	 0.056760835	-0.0270053342	-0.0049545149	-0.265687
C	-1.0734778428	-0.6589404481	-0.0020217879	 0.340664
C	-2.3994573382	-0.0334539223	 0.0232138042	-0.033968
N	-3.5214640761	-0.672220451	 0.029312455	-0.202216
N	-3.4627567573	-2.0302197643	 0.0537250784	-0.322803
C	-2.279948315	-2.7386541429	-0.0124720058	 0.47344
O	-2.3997677842	-4.0887759416	-0.0777279437	-0.425225
C	-1.0912295086	-2.1056282114	-0.0181080842	-0.306477
H	 0.7597437873	 1.6990313486	 0.0281205173	 0.304388
H	-2.4726557478	 1.0457080538	 0.0244839822	 0.150184
H	-4.3290315051	-2.4773070393	-0.2021860065	 0.266559
H	-3.1157386005	-4.3808179171	 0.4996790731	 0.304472
H	-0.1700386415	-2.6708108743	-0.0161528503	 0.122393
116.6816	171.314	231.9439	252.8103	291.4981	373.5389	377.3748	396.4696	463.7892	471.7658	544.9862	626.0176	640.4675	726.6425	755.4658	858.1159	928.5083	950.8537	981.1078	1039.7444	1106.9935	1198.8715	1256.1902	1294.307	1355.3912	1370.2948	1433.5631	1487.0396	1637.5433	1669.1362	1732.9771	3232.3815	3237.3069	3632.3724	3786.152	3837.2248
ON=C1C=NNC(O)=C1	ON=c1cn[nH]c(O)c1	
InChI=1S/C4H5N3O2/c8-4-1-3(7-9)2-5-6-4/h1-2,9H,(H2,6,7,8)	InChI=1S/C4H5N3O2/c8-4-1-3(7-9)2-5-6-4/h1-2,9H,(H2,6,7,8)
