21
gdb 75208	3.50945	1.21876	1.01902	1.7714	84.77	-0.2317	0.0317	0.2634	1255.0772	0.182113	-387.108355	-387.099527	-387.098583	-387.141405	34.326	
C	-0.4455596645	 1.5129707312	 0.0664400279	-0.47421
C	-0.0337000296	 0.0679647089	-0.0124321117	 0.313877
C	-0.1038736776	-0.6316556912	-1.1452206773	-0.138736
C	 0.2754629553	-2.0768876719	-1.3055677405	-0.325776
C	 0.997739099	-2.6783079956	-0.1148675597	 0.394727
C	 1.0924263707	-4.1865606013	-0.0908341081	-0.467826
O	 2.2096347775	-1.9955097814	 0.2519545943	-0.298919
C	 1.0844098463	-1.9053988608	 1.1344336136	-0.001612
C	 0.4541468499	-0.5410305665	 1.28007077	-0.329644
H	 0.3937275343	 2.1462125502	 0.3825005222	 0.123741
H	-0.8071489643	 1.8832196848	-0.8964572392	 0.119633
H	-1.2414396609	 1.6609140736	 0.8084357469	 0.118638
H	-0.472044985	-0.1400578534	-2.0435277386	 0.075962
H	-0.6255735643	-2.6753574488	-1.5082241713	 0.10775
H	 0.9090044758	-2.2010794146	-2.1960467618	 0.114019
H	 1.5727318597	-4.5565882661	-1.0037999928	 0.123638
H	 1.6861042359	-4.5197551134	 0.764072426	 0.126507
H	 0.0985459119	-4.6425031358	-0.0272406321	 0.118178
H	 1.213597928	-2.456027395	 2.0683893756	 0.0778
H	 1.1788218781	 0.134845481	 1.7578588315	 0.113803
H	-0.3824046063	-0.6152312941	 1.9917289251	 0.108449
83.6135	175.3908	192.4791	228.1636	262.3766	290.2711	342.0306	367.585	398.9119	443.2713	482.3209	601.0803	673.2105	721.9751	773.0985	804.7625	881.9933	910.6062	939.1025	953.9841	997.1738	1003.8212	1054.3069	1065.8661	1084.0712	1104.214	1120.3108	1178.33	1217.9032	1245.8828	1260.3119	1325.8958	1336.6472	1388.3589	1399.5644	1413.4563	1414.8066	1461.0082	1463.723	1473.7854	1478.9414	1489.7918	1492.5914	1509.861	1754.1846	2992.4291	2994.3134	3012.4584	3016.0961	3016.6727	3032.0574	3056.8371	3086.3051	3094.0828	3110.8332	3121.5469	3143.5757
CC1=CCC2(C)OC2C1	CC1=CC[C@@]2(C)O[C@H]2C1	
InChI=1S/C8H12O/c1-6-3-4-8(2)7(5-6)9-8/h3,7H,4-5H2,1-2H3	InChI=1S/C8H12O/c1-6-3-4-8(2)7(5-6)9-8/h3,7H,4-5H2,1-2H3/t7-,8+/m0/s1
