18
gdb 80990	2.79147	1.53196	1.21996	2.9758	72.21	-0.2392	0.0225	0.2617	1050.6995	0.147916	-439.09785	-439.089701	-439.088757	-439.129909	32.276	
C	-0.0241887434	 1.5309165301	 0.0352602267	-0.516813
C	 0.0639284177	 0.0292665139	 0.0316697079	 0.322219
C	 0.9597663187	-0.8052019947	-0.9424899594	-0.270106
C	 0.6561738882	-1.9299566798	 0.1094117435	-0.219748
C	 0.7203829619	-0.784276425	 1.1876747219	 0.127264
O	 2.0025954884	-0.2980018744	 1.4922154736	-0.443452
C	-0.8634719928	-2.0377153414	-0.0807213685	 0.415912
O	-1.5692577261	-2.9978463225	-0.2617829019	-0.378894
N	-1.2291097365	-0.6946108416	-0.0190879851	-0.356863
H	 0.9682682597	 1.9584490074	 0.1977477568	 0.145462
H	-0.4072990357	 1.9085052405	-0.9192729808	 0.120897
H	-0.6861603003	 1.881116558	 0.8339070523	 0.129838
H	 0.5919685691	-0.9494767056	-1.9613424992	 0.100629
H	 2.0046302363	-0.4966321963	-0.9347706288	 0.121346
H	 1.2090690342	-2.8635198876	 0.1838486191	 0.083721
H	 0.102433857	-0.9150684887	 2.084759741	 0.08051
H	 2.4387222634	-0.9325091048	 2.0695828848	 0.291425
H	-2.0140703798	-0.3499956374	-0.5526296141	 0.246654
165.3009	206.2738	218.9863	256.2224	263.8102	318.1815	362.3695	411.2672	482.0275	508.9276	553.6019	608.5224	672.4983	745.6877	796.6155	861.2166	888.7809	907.502	936.6397	975.3779	1019.4772	1070.0469	1096.026	1119.6488	1138.3644	1187.7689	1195.6564	1207.3071	1238.0451	1257.0416	1277.2638	1316.1427	1376.6992	1416.2829	1429.0383	1488.8043	1491.902	1493.8929	1864.0041	3030.3198	3036.1264	3072.8152	3100.3279	3126.3793	3150.4029	3152.9717	3613.292	3821.5659
CC12CC(C1O)C(=O)N2	C[C@@]12C[C@@H]([C@H]1O)C(=O)N2	
InChI=1S/C6H9NO2/c1-6-2-3(4(6)8)5(9)7-6/h3-4,8H,2H2,1H3,(H,7,9)	InChI=1S/C6H9NO2/c1-6-2-3(4(6)8)5(9)7-6/h3-4,8H,2H2,1H3,(H,7,9)/t3-,4+,6+/m0/s1
