17
gdb 39273	2.58763	2.26513	1.59844	1.1908	66.95	-0.2429	0.0744	0.3173	863.5	0.138178	-458.922145	-458.915718	-458.914773	-458.952621	26.723	
C	 0.0030867848	 1.4504487362	-0.0974826474	-0.424631
C	 1.3482676053	 0.7617246574	 0.0089988327	 0.064023
O	 2.1263645796	 0.4438510992	-1.1012450524	-0.244428
C	 2.2919150725	-0.9795693244	-1.1659678906	-0.103718
C	 0.9389144857	-1.7099229349	-0.9010005997	 0.164828
O	 0.7748144322	-2.1219015962	 0.4685319375	-0.291661
C	-0.035926933	-1.110087229	 1.109321326	-0.158361
C	 0.0658426313	-0.0306768623	 0.0656644911	 0.342157
O	-0.0833135548	-0.7729323048	-1.1361130667	-0.250401
H	-0.2903606141	 2.0704850806	 0.7424337889	 0.128714
H	-0.3357136256	 1.7907533538	-1.0695797413	 0.144817
H	 1.9029931299	 0.9093757076	 0.9364189603	 0.089342
H	 2.64452816	-1.1946136511	-2.178337251	 0.115418
H	 3.0428305697	-1.3232063281	-0.4415910312	 0.105833
H	 0.8085121852	-2.5844664826	-1.5428062516	 0.097316
H	-1.0537541305	-1.4883143117	 1.2593042739	 0.108865
H	 0.4086264019	-0.84084699	 2.0710115715	 0.111888
187.402	258.6403	344.2517	365.9568	400.7717	489.6941	561.3074	592.4429	682.221	786.5583	802.5597	834.5526	859.6702	872.5409	907.6981	930.8304	987.4541	1021.4658	1039.6936	1047.2445	1064.1007	1086.3263	1108.2884	1136.4596	1175.5528	1187.0404	1216.9446	1252.6047	1312.6912	1332.497	1352.2745	1359.0965	1389.8567	1416.0034	1474.2662	1493.8283	1518.115	3015.7024	3034.0657	3086.7851	3092.1496	3099.0078	3102.4025	3140.294	3233.9997
C1C2OCC3OCC12O3	C1[C@@H]2OC[C@H]3OC[C@@]12O3	
InChI=1S/C6H8O3/c1-4-6(1)3-8-5(9-6)2-7-4/h4-5H,1-3H2	InChI=1S/C6H8O3/c1-4-6(1)3-8-5(9-6)2-7-4/h4-5H,1-3H2/t4-,5-,6-/m0/s1
