17
gdb 19646	5.42207	1.71784	1.61953	1.738	70.26	-0.2102	0.069	0.2792	853.0215	0.142126	-326.606655	-326.599839	-326.598895	-326.637556	26.671	
C	-0.0170974455	 1.5479582823	-0.0315286399	-0.384498
C	-0.0254509199	 0.0162575468	 0.0215571941	-0.331379
C	-1.4018501692	-0.5591190014	-0.066240719	 0.380509
C	-1.9360635147	-2.0168101787	 0.0368945568	-0.184759
C	-3.2147509964	-1.577172554	-0.689966977	-0.109416
C	-3.1055664005	-1.4655246549	 0.8076074303	-0.004206
N	-2.5734017668	-0.0363866765	 0.7341854435	-0.220187
C	-2.6467312093	-0.1400096943	-0.7726124431	-0.109259
H	 0.9966953645	 1.9346682032	 0.1037749045	 0.11237
H	-0.3889990504	 1.912722122	-0.9945748177	 0.115793
H	-0.6544331976	 1.961170753	 0.7547837771	 0.144593
H	 0.5846109132	-0.3961198654	-0.79341191	 0.102751
H	 0.4371309007	-0.3265038768	 0.9571683804	 0.106879
H	-1.460455887	-2.9872503581	 0.0566654352	 0.094331
H	-3.8783003322	-2.1567669884	-1.3153124859	 0.09558
H	-3.7020455841	-1.863013097	 1.6192138655	 0.098181
H	-2.8769613849	 0.7164402883	-1.3957292848	 0.092716
97.2847	176.0561	198.18	294.4898	387.6727	607.7651	653.5926	737.9342	743.2109	778.7782	809.3003	815.5937	855.0417	865.6956	908.0457	939.2786	969.2851	995.7082	999.806	1010.3966	1030.254	1055.4312	1066.2643	1120.7287	1136.6699	1186.6709	1236.9704	1248.714	1291.6087	1341.1928	1366.5873	1408.4715	1431.4468	1484.4766	1497.0548	1511.9607	3011.2728	3040.0317	3043.6921	3109.0731	3125.0466	3175.8141	3186.8246	3211.6568	3224.9932
CCC12C3C4C3N1C24	CC[C@@]12[C@@H]3[C@H]4[C@@H]3N1[C@@H]24	
InChI=1S/C7H9N/c1-2-7-4-3-5(4)8(7)6(3)7/h3-6H,2H2,1H3	InChI=1S/C7H9N/c1-2-7-4-3-5(4)8(7)6(3)7/h3-6H,2H2,1H3/t3-,4+,5-,6+,7-,8?/m0/s1
