20
gdb 6279	3.45608	1.06432	1.01081	4.5632	76.44	-0.2404	0.0321	0.2724	1278.3944	0.175498	-345.197181	-345.187326	-345.186382	-345.232469	35.256	
C	-0.2296273904	 1.4463305408	-0.0397490955	-0.370966
C	 0.0348462485	-0.0633354261	-0.0651138848	 0.078655
C	 0.9295292331	-0.439354168	-1.2479383532	-0.405601
N	 0.7105979959	-0.4877296619	 1.1700996284	-0.296809
C	-0.1168634506	-0.5768958063	 2.3719978896	-0.102919
C	-1.1077691614	-1.7608039224	 2.4223415512	-0.395227
C	 0.7684369508	-0.624045738	 3.5507972431	 0.277887
N	 1.451646928	-0.6923358953	 4.4799695122	-0.32209
H	 0.7126886595	 1.9932811549	 0.0608019014	 0.129383
H	-0.7235972876	 1.7605588866	-0.9645285889	 0.114543
H	-0.8803633829	 1.7401964895	 0.7897090003	 0.113207
H	-0.9334693682	-0.5781927594	-0.1991433992	 0.061584
H	 1.9095977826	 0.0388318381	-1.150971549	 0.131831
H	 1.0814307088	-1.5231869147	-1.3029934428	 0.111532
H	 0.4788078558	-0.117436001	-2.1906334725	 0.121082
H	 1.1805741048	-1.3752159372	 1.0239452961	 0.22131
H	-0.6858470292	 0.3566442793	 2.450173732	 0.133034
H	-1.6961364283	-1.7404783293	 3.3440946741	 0.138309
H	-1.7952350368	-1.7128086904	 1.5741198565	 0.129715
H	-0.5680307924	-2.7117321192	 2.3828807009	 0.131538
26.2614	89.3745	140.9744	206.3995	218.1661	229.541	250.0059	299.2154	351.2662	378.883	441.0126	461.3718	562.9618	577.1296	718.2667	827.6986	848.2684	916.2916	932.4904	961.1845	995.6026	1065.5387	1084.1686	1128.1592	1168.9031	1191.0798	1201.0408	1318.9467	1325.8309	1373.5005	1375.4938	1403.1241	1405.5148	1418.2314	1478.5821	1486.5234	1490.0051	1492.7255	1498.9124	1508.9014	1518.7823	2360.4434	2929.7576	3032.2247	3038.8197	3044.4499	3053.7827	3099.485	3104.1451	3115.62	3120.2121	3121.3337	3127.8403	3520.3369
CC(C)NC(C)C#N	CC(C)N[C@@H](C)C#N	
InChI=1S/C6H12N2/c1-5(2)8-6(3)4-7/h5-6,8H,1-3H3	InChI=1S/C6H12N2/c1-5(2)8-6(3)4-7/h5-6,8H,1-3H3/t6-/m0/s1
