21
gdb 72139	2.50871	1.94801	1.74241	1.5832	80.39	-0.2346	0.0851	0.3197	936.4818	0.185828	-387.102935	-387.095976	-387.095032	-387.133632	30.027	
C	 0.0085171971	 1.5004391245	-0.0195826487	-0.506359
C	 0.0260635349	-0.0116910696	-0.0422407345	 0.335479
C	 0.4814973272	-0.7430436646	-1.3043579949	-0.279925
C	 0.2043889662	-2.1347523702	-0.7209834917	 0.088065
C	 1.0865540919	-2.1367831554	 0.5450879326	-0.231146
C	 0.6831828247	-0.7827166414	 1.1840382787	-0.076262
C	-0.7284137987	-0.905944154	 1.8111286009	-0.24353
C	-1.278541056	-0.7841774919	 0.3745684342	 0.081914
O	-1.1718755248	-2.0378320553	-0.3154290567	-0.287522
H	 1.0144581063	 1.9082768028	-0.1700232826	 0.116492
H	-0.6339550742	 1.899160039	-0.8130436461	 0.117328
H	-0.3639301518	 1.8894013312	 0.9342610847	 0.116555
H	-0.1396073575	-0.5250678189	-2.1780336534	 0.098235
H	 1.5343658809	-0.5734671771	-1.549496417	 0.093222
H	 0.3054969658	-2.9967613635	-1.381026284	 0.071152
H	 0.8818241033	-2.9894722046	 1.1983199976	 0.099655
H	 2.1470749248	-2.1616195576	 0.2717098445	 0.093346
H	 1.4746407078	-0.2973757443	 1.7581998937	 0.05833
H	-0.9727196606	-1.8227414111	 2.3540600575	 0.095047
H	-0.9910781989	-0.0370175465	 2.4217283841	 0.094703
H	-2.2732689886	-0.3679888916	 0.1961068611	 0.065223
224.5013	237.4051	269.649	363.5067	381.9774	449.3871	475.4239	570.0785	588.7793	641.2498	772.7192	832.0045	836.2616	843.8305	883.3486	901.2553	920.7663	942.3236	956.8293	963.5596	984.5914	1011.2224	1039.0385	1072.638	1098.649	1118.0723	1139.6643	1161.4292	1212.3436	1213.6934	1221.8744	1243.9076	1253.5399	1277.7936	1301.1811	1321.9664	1323.7668	1349.9794	1372.0406	1417.5349	1472.1859	1478.734	1495.3694	1497.4221	1497.6398	3023.2052	3043.0025	3049.9413	3053.4147	3075.6844	3085.9951	3086.9453	3090.3858	3096.4248	3106.8256	3108.4717	3117.6282
CC12CC3CC1CC2O3	C[C@@]12C[C@H]3C[C@@H]1C[C@@H]2O3	
InChI=1S/C8H12O/c1-8-4-6-2-5(8)3-7(8)9-6/h5-7H,2-4H2,1H3	InChI=1S/C8H12O/c1-8-4-6-2-5(8)3-7(8)9-6/h5-7H,2-4H2,1H3/t5-,6-,7+,8-/m1/s1
