19
gdb 32527	2.56051	1.22603	0.83911	0.7755	79.6	-0.1713	0.0622	0.2335	1360.5056	0.159777	-419.220818	-419.211151	-419.210206	-419.256162	35.042	
C	-0.0051426959	 1.3943579939	-0.0359500779	-0.318516
N	 0.0343526675	-0.047588338	 0.125486302	-0.387464
C	-1.1924077773	-0.7263481067	 0.0378726826	 0.19091
C	-2.4618517526	-0.1844736343	 0.0101064559	-0.168235
N	-3.3567149634	-1.2361028157	-0.0089739762	-0.262439
C	-2.68084525	-2.4241907016	-0.0056034201	-0.148327
C	-1.3333737344	-2.1504978494	 0.0270703599	 0.191884
C	-0.2197538905	-3.1456009732	 0.0714745559	-0.204858
O	-0.7697835284	-4.4536677778	 0.0032831929	-0.418986
H	 1.0127601501	 1.7915140956	-0.0067340503	 0.115268
H	-0.4851670502	 1.7243786284	-0.9733384949	 0.101988
H	-0.5623817812	 1.8391948064	 0.7962970219	 0.127512
H	 0.739609921	-0.4706546973	-0.4643475398	 0.225818
H	-2.7991455929	 0.8377053514	 0.0115752505	 0.107807
H	-4.3552312299	-1.1397260141	-0.0239398062	 0.255478
H	-3.1908138542	-3.3721149184	-0.0228160443	 0.129237
H	 0.481938895	-2.9759455651	-0.7672464461	 0.078011
H	 0.3693443691	-3.0101465004	 0.9951170406	 0.09848
H	-0.0507873417	-5.0827621836	 0.1070534637	 0.286434
27.3671	101.1033	141.3576	203.7754	218.6419	240.2562	256.5587	312.7949	344.5769	394.0028	553.2999	575.2944	618.2178	624.6806	674.3801	717.0127	757.1894	781.6207	914.2081	1043.6853	1050.4071	1073.2864	1089.575	1122.997	1158.0303	1167.3168	1200.4976	1226.6624	1243.3796	1277.1599	1347.5599	1391.1266	1458.5053	1466.7607	1479.1201	1482.6509	1495.1599	1520.3124	1523.9402	1578.1952	1643.1731	2911.7229	2950.2772	2955.518	3056.0894	3111.1538	3278.145	3284.8569	3548.2573	3701.9419	3840.0102
CNC1=CNC=C1CO	CNc1c[nH]cc1CO	
InChI=1S/C6H10N2O/c1-7-6-3-8-2-5(6)4-9/h2-3,7-9H,4H2,1H3	InChI=1S/C6H10N2O/c1-7-6-3-8-2-5(6)4-9/h2-3,7-9H,4H2,1H3
