14
gdb 30581	7.04521	0.65833	0.62695	1.8611	80.48	-0.2344	-0.0386	0.1958	1710.5639	0.100867	-436.673385	-436.665028	-436.664084	-436.708399	28.656	
O	 0.2043858316	 0.9048147558	 0.9098207407	-0.405869
C	-0.0693941239	 0.0934239961	-0.2236213917	-0.232514
C	-1.435113552	-0.4065662127	-0.1508496007	 0.345202
C	-2.5620516299	-0.8323252063	-0.1208483307	-0.092378
C	-3.8803006455	-1.3255700002	-0.0839655704	 0.185678
N	-4.9289843638	-0.896214314	-0.7298016127	-0.305531
C	-5.9515373967	-1.733710073	-0.3304841425	-0.121233
C	-5.4650876591	-2.642544654	 0.551444599	-0.037031
O	-4.1394764325	-2.3989161871	 0.7219747187	-0.161059
H	 1.1094847704	 1.2218006743	 0.824205108	 0.293625
H	 0.045780779	 0.6577403929	-1.1631632295	 0.128621
H	 0.6183329348	-0.7661880026	-0.2799139166	 0.125517
H	-6.9569409782	-1.621681387	-0.7038275665	 0.127474
H	-5.8807913142	-3.4632019323	 1.110399815	 0.149499
22.8794	79.8163	93.9064	201.4401	213.4336	317.8656	394.9945	476.4898	538.5135	616.7833	629.5887	753.1666	777.5455	871.3377	919.0997	939.1385	992.8609	1023.5255	1068.1497	1120.5386	1144.5663	1164.8698	1244.5197	1246.8486	1273.1923	1385.6839	1456.681	1497.2656	1528.1855	1584.2953	2363.7446	2966.4253	2987.944	3264.0587	3298.3872	3817.7752
OCC#CC1=NC=CO1	OCC#Cc1ncco1	
InChI=1S/C6H5NO2/c8-4-1-2-6-7-3-5-9-6/h3,5,8H,4H2	InChI=1S/C6H5NO2/c8-4-1-2-6-7-3-5-9-6/h3,5,8H,4H2
