21
gdb 65597	3.24251	1.17522	1.13315	2.7412	81.7	-0.2406	-0.0132	0.2274	1191.5244	0.182343	-387.103438	-387.094626	-387.093682	-387.137608	33.68	
C	 0.113927685	 1.5135332008	 0.017589385	-0.445945
C	 0.0116232369	-0.0105076365	 0.0049564254	 0.224293
C	 0.7412502437	-0.6795942329	-1.2109873062	-0.290829
C	 1.3436255933	-1.9859041758	-0.7033034001	-0.024382
C	 2.6074464712	-1.8858457213	 0.1124902966	-0.280926
C	 1.2752038707	-1.9938515385	 0.8097976254	-0.024382
C	 0.6288511708	-0.6926487558	 1.2747102187	-0.290828
C	-1.4436458557	-0.4459210718	-0.0631271971	 0.138349
O	-2.3951108666	 0.2914961864	-0.1022412646	-0.262478
H	 1.1622290149	 1.8248200692	 0.0666375044	 0.105553
H	-0.3345274069	 1.9458765771	-0.8812047195	 0.126472
H	-0.4140376873	 1.9366413953	 0.8767137453	 0.126474
H	 0.0460247469	-0.8603935142	-2.038418803	 0.108518
H	 1.5077145304	 0.0011765671	-1.5979879234	 0.107255
H	 1.1727017731	-2.8918095647	-1.2736596617	 0.086646
H	 3.2637305967	-2.7492392321	 0.1376327379	 0.111206
H	 3.126874356	-0.9315126804	 0.1409916278	 0.106932
H	 1.0539292347	-2.9056042737	 1.3528724727	 0.086646
H	 1.3569391399	-0.0163337432	 1.7364158849	 0.107255
H	-0.1381259144	-0.8817787417	 2.0340816773	 0.108519
H	-1.5811447633	-1.5534419734	-0.0751905857	 0.075653
31.8584	80.6964	213.1207	245.5412	249.2007	311.3612	328.7324	380.7093	409.5436	489.7806	660.499	677.2012	769.3812	772.5714	818.7205	863.8272	881.2849	897.6788	909.9039	950.4744	984.2527	1009.5052	1042.8044	1062.2446	1076.8009	1082.5783	1110.7428	1156.6808	1174.2211	1176.2308	1213.3315	1214.6834	1298.8003	1308.9141	1341.6251	1344.6053	1387.3015	1408.5948	1431.6507	1483.4281	1485.8678	1491.2097	1491.9428	1506.4408	1826.7691	2850.329	3032.8001	3034.1714	3041.3717	3068.2909	3068.7504	3111.4929	3115.7026	3117.6137	3166.429	3173.9839	3205.1864
CC1(CC2CC2C1)C=O	C[C@]1(C[C@H]2C[C@H]2C1)C=O	
InChI=1S/C8H12O/c1-8(5-9)3-6-2-7(6)4-8/h5-7H,2-4H2,1H3	InChI=1S/C8H12O/c1-8(5-9)3-6-2-7(6)4-8/h5-7H,2-4H2,1H3/t6-,7+,8-
