21
gdb 100812	3.87399	0.76725	0.67447	0.7628	81.45	-0.2491	0.0497	0.2989	1691.1242	0.178285	-424.191782	-424.180557	-424.179612	-424.2284	40.478	
C	 0.0076701446	 1.5918282545	-0.0080356009	-0.384743
C	 0.0011635178	 0.0616133502	 0.0106124219	-0.195578
C	-1.4090582986	-0.5332431388	-0.0038020888	 0.11067
O	-2.1364766983	-0.1518403363	-1.1708811531	-0.427806
C	-1.3966491943	-2.0695431555	 0.1548377163	 0.101453
O	-0.6928438566	-2.4616010365	 1.3224714624	-0.419411
C	-2.8279503914	-2.6429425248	 0.1188327871	-0.396058
C	-2.8704834276	-4.098242795	 0.1368959227	 0.312378
C	-2.897607961	-5.2996627672	 0.143094403	-0.440471
H	 1.0284444388	 1.9816846352	-0.0605109766	 0.112153
H	-0.5514342104	 1.9745938944	-0.8663905274	 0.123635
H	-0.4582008268	 1.9979571773	 0.8967053678	 0.114241
H	 0.5474302813	-0.3279037311	-0.862399777	 0.083561
H	 0.5264868916	-0.3217237393	 0.8900947483	 0.119042
H	-1.9873484245	-0.1099201665	 0.8313180046	 0.075426
H	-1.5930230519	-0.3708646501	-1.9368056613	 0.281497
H	-0.8257456142	-2.5010505861	-0.6782440254	 0.090308
H	-1.253225316	-2.2807981168	 2.085498103	 0.282335
H	-3.3864627697	-2.2417459537	 0.9784939488	 0.115067
H	-3.3306550852	-2.2520478761	-0.7716544867	 0.149204
H	-2.9233726377	-6.3608926579	 0.1515045114	 0.193098
53.2895	68.1984	108.0644	119.2039	193.6144	224.4856	239.0446	275.4108	303.7769	314.5584	347.211	391.837	401.9146	456.1238	532.0283	600.2298	614.7713	637.4925	782.4052	867.3303	878.1245	966.5296	986.7274	996.6546	1056.4585	1072.8305	1097.6386	1120.2198	1147.6154	1184.9186	1218.68	1260.9647	1302.38	1327.0628	1348.949	1376.1223	1392.4583	1404.7725	1413.2136	1416.6818	1471.1696	1487.6542	1497.7174	1509.6765	2240.9672	2991.7232	2996.303	3004.5541	3033.2016	3037.4589	3079.6566	3087.9809	3103.2575	3119.4762	3507.9524	3790.6485	3798.5479
CCC(O)C(O)CC#C	CC[C@@H](O)[C@@H](O)CC#C	
InChI=1S/C7H12O2/c1-3-5-7(9)6(8)4-2/h1,6-9H,4-5H2,2H3	InChI=1S/C7H12O2/c1-3-5-7(9)6(8)4-2/h1,6-9H,4-5H2,2H3/t6-,7+/m1/s1
