12
gdb 132472	3.23574	1.37227	0.9636	2.0209	62.93	-0.2198	-0.0538	0.166	1059.755	0.077839	-518.085222	-518.078325	-518.077381	-518.116762	26.253	
F	 0.06742155	 0.0520334941	 0.1184330247	-0.049896
C	-0.0670965958	 1.3603206552	-0.0055011946	 0.373019
C	-1.2260743724	 2.0269257249	 0.1833221152	-0.227477
N	-1.2454624818	 3.3988381934	 0.025279539	-0.280412
C	-0.1722418582	 4.0002352193	-0.2939298821	 0.272338
F	-0.1873716085	 5.3214864767	-0.4472131784	-0.065565
C	 1.1465662272	 3.3925199155	-0.5267221097	 0.265516
N	 2.2507702834	 3.9460191722	-0.8475805808	-0.550449
N	 1.0794539807	 2.0084403436	-0.3472076672	-0.394744
H	-2.1413802097	 1.5228367004	 0.4545356358	 0.139002
H	 2.1184673026	 4.9511325306	-0.9361292219	 0.235477
H	 1.9336449727	 1.4847236739	-0.48258815	 0.283191
122.9414	175.9347	316.6587	355.5734	420.2183	431.2384	476.8482	527.3625	597.3291	607.2234	660.0344	714.8701	757.4401	782.1867	807.5923	826.8773	1043.5364	1104.4843	1209.7649	1262.9695	1293.0378	1346.5022	1387.9945	1517.9887	1637.2588	1688.555	1714.0695	3243.5763	3526.6758	3610.771
FC1=CN=C(F)C(=N)N1	FC1=CN=C(F)[C@H]([NH])N1	
InChI=1S/C4H3F2N3/c5-2-1-8-3(6)4(7)9-2/h1H,(H2,7,9)	InChI=1S/C4H4F2N3/c5-2-1-8-3(6)4(7)9-2/h1,4,7,9H/t4-/m1/s1
