20
gdb 75148	3.10184	1.07429	1.03791	4.2807	85.39	-0.2466	0.015	0.2616	1279.8752	0.170721	-366.057504	-366.048332	-366.047388	-366.091143	34.684	
C	 0.4972301315	 1.4068476465	 0.1289518805	-0.495969
C	 0.0721640328	-0.0216940988	 0.0047362511	 0.335244
C	 0.1535801391	-0.8060932098	-1.0711500951	-0.166554
C	-0.4194126374	-2.1799696266	-0.8444020312	-0.29151
C	-0.5628519652	-2.2494768402	 0.7153506242	 0.135966
C	 0.6531996374	-2.9744434577	 1.3292673714	-0.427574
C	-0.5799599664	-0.749621055	 1.1606920611	-0.337564
C	-1.7907060921	-2.9430754852	 1.1121271968	 0.24738
N	-2.7587383655	-3.4918172343	 1.4265937461	-0.353499
H	 1.2438463369	 1.5316320053	 0.9234116677	 0.128032
H	 0.9256586021	 1.7819858983	-0.8041082682	 0.127687
H	-0.3510303666	 2.0495332061	 0.3969452392	 0.131133
H	 0.5525721127	-0.4984683754	-2.0318039249	 0.093262
H	-1.3908717364	-2.2955510452	-1.341232268	 0.127627
H	 0.2188861161	-2.9896964357	-1.2153177823	 0.113644
H	 1.5688145617	-2.4562543939	 1.0295599463	 0.12886
H	 0.596267295	-2.9809827996	 2.4210878266	 0.132506
H	 0.7085614174	-4.009632985	 0.9821217554	 0.133334
H	-0.0498342737	-0.6129504411	 2.1106502091	 0.111045
H	-1.6033129295	-0.3869213725	 1.3210764042	 0.126948
74.5233	150.2182	179.9055	192.4628	234.1679	268.738	308.3494	362.1922	372.5904	444.2268	478.3513	572.2597	592.7496	638.246	768.4408	821.2064	875.6906	922.9248	939.3906	942.8601	961.669	996.3891	1038.7628	1043.0938	1107.3112	1136.215	1176.1137	1199.0688	1208.8905	1273.0241	1294.1178	1328.8463	1346.8775	1407.9928	1415.806	1478.7035	1482.8854	1488.9751	1489.0897	1495.0159	1501.4757	1728.3805	2351.2872	3018.1716	3025.2115	3027.0558	3042.9984	3058.5446	3062.468	3065.0826	3114.2758	3121.4745	3123.1797	3189.715
CC1=CCC(C)(C1)C#N	CC1=CC[C@@](C)(C1)C#N	
InChI=1S/C8H11N/c1-7-3-4-8(2,5-7)6-9/h3H,4-5H2,1-2H3	InChI=1S/C8H11N/c1-7-3-4-8(2,5-7)6-9/h3H,4-5H2,1-2H3/t8-/m0/s1
