19
gdb 19154	3.9744	1.49427	1.26694	2.1195	70.58	-0.2431	0.0855	0.3286	1025.469	0.16524	-365.016615	-365.008283	-365.007338	-365.049508	30.94	
C	-0.0540245643	 1.5212066265	 0.1303387612	-0.402017
C	-0.0625607851	 0.0064817092	-0.0841013204	-0.244804
C	 0.6874441895	-0.4892275978	-1.3123304805	 0.368893
C	 0.8791604878	 0.3473629463	-2.5075542738	-0.220862
O	 1.9510211427	 0.1400499425	-1.5762750051	-0.272065
C	 0.7121710738	-1.9891414465	-1.4491777726	-0.048512
C	 1.7737891692	-2.6712678065	-2.2220857979	-0.248417
N	 1.7591774476	-2.7577495803	-0.7485360502	-0.327503
H	 0.9669764688	 1.9097679532	 0.0887723129	 0.138169
H	-0.6499544696	 2.0440389061	-0.6242239841	 0.11608
H	-0.4757200771	 1.7691006626	 1.1082686284	 0.116594
H	 0.3798373974	-0.4910653636	 0.7886800497	 0.11646
H	-1.0937704665	-0.3642254113	-0.1463490314	 0.106477
H	 1.0083110049	-0.1341163327	-3.4752162852	 0.113752
H	 0.4912758342	 1.3628885444	-2.5402059798	 0.117606
H	-0.2710015329	-2.4531146365	-1.3928985201	 0.089818
H	 1.5523333866	-3.6004218262	-2.7391527744	 0.115099
H	 2.5346215765	-2.0489984312	-2.6829683785	 0.125455
H	 2.4511580465	-2.1003701584	-0.391116878	 0.239779
77.6366	92.6829	186.1911	212.7645	252.6749	291.0372	359.493	404.5319	484.1691	576.2819	676.3585	772.6196	824.4418	849.963	872.7332	915.09	932.9218	983.2029	1013.7062	1021.5083	1078.1014	1109.6755	1119.3621	1144.0272	1147.7286	1172.0767	1183.164	1209.9671	1276.4777	1302.067	1308.9021	1373.5756	1388.6834	1413.0615	1428.6078	1481.8935	1497.8138	1499.326	1510.7495	1528.7519	3023.2046	3044.0094	3053.8178	3094.589	3109.846	3115.5552	3122.8589	3125.3639	3183.5439	3206.8844	3478.4663
CCC1(CO1)C1CN1	CC[C@]1(CO1)[C@H]1CN1	
InChI=1S/C6H11NO/c1-2-6(4-8-6)5-3-7-5/h5,7H,2-4H2,1H3	InChI=1S/C6H11NO/c1-2-6(4-8-6)5-3-7-5/h5,7H,2-4H2,1H3/t5-,6+/m1/s1
