17
gdb 28496	3.11161	1.42064	0.98275	2.4109	83.2	-0.194	-0.0147	0.1793	1173.4428	0.137924	-414.261233	-414.252841	-414.251897	-414.293617	32.853	
C	-0.0365797656	 1.5207974796	-0.0245629249	-0.50253
C	-0.0227400737	 0.0168544145	-0.0121101414	 0.266552
N	-0.0189498127	-0.6341207561	-1.1725528947	-0.280021
C	-0.0236325686	-1.9640757723	-1.1654731832	-0.108866
C	-0.0225918915	-2.6824763453	 0.0390657406	 0.352669
N	-0.0814261696	-4.0629892062	 0.0703226914	-0.571443
N	-0.0059196243	-2.0517730532	 1.2169587478	-0.38207
C	-0.0176680342	-0.7182492213	 1.1965965785	 0.31315
N	-0.0674555675	-0.0825259912	 2.4216115329	-0.567906
H	 0.8641066947	 1.9483455495	 0.4390178195	 0.114244
H	-0.0804668461	 1.8701637213	-1.0572467675	 0.141686
H	-0.9001579382	 1.9233209842	 0.5197523679	 0.128705
H	-0.0290571877	-2.4736470584	-2.125435928	 0.089049
H	 0.2833743565	-4.5456365455	-0.735934951	 0.251617
H	 0.1989547236	-4.4645187887	 0.9527314572	 0.251342
H	 0.1710238897	-0.6780553948	 3.2008686543	 0.251377
H	 0.3204084251	 0.845914034	 2.4714577006	 0.252447
117.6983	168.2404	236.1545	293.7444	315.6357	328.0704	376.1962	408.6305	481.7636	501.5684	503.099	534.2829	562.8912	603.51	710.9312	745.7332	774.0942	803.6312	862.9269	972.2758	1016.4886	1056.7811	1073.6299	1165.9252	1227.016	1285.0209	1305.6217	1378.4906	1403.0283	1459.6834	1484.1872	1488.8226	1520.0322	1598.1918	1611.7918	1636.0933	1644.6965	3002.8549	3053.0276	3137.9615	3153.6058	3576.4581	3577.4404	3689.5904	3693.9433
CC1=NC=C(N)N=C1N	Cc1ncc(N)nc1N	
InChI=1S/C5H8N4/c1-3-5(7)9-4(6)2-8-3/h2H,1H3,(H4,6,7,9)	InChI=1S/C5H8N4/c1-3-5(7)9-4(6)2-8-3/h2H,1H3,(H4,6,7,9)
