17
gdb 39894	2.82662	1.83669	1.62979	1.1733	71.38	-0.2379	0.0027	0.2406	893.7899	0.137626	-421.78871	-421.782072	-421.781128	-421.819397	27.383	
C	 0.0265849535	 1.4811924685	 0.0021554335	-0.29604
O	 1.1886224315	 0.6202659106	 0.0130050963	-0.299281
C	-0.0858928434	 0.0292757648	 0.0080601925	 0.522931
C	-0.5721850514	-0.9061836341	 1.1263564586	-0.208338
C	-2.0629722955	-0.9819797944	 0.6795722265	-0.069961
O	-2.0012354675	-0.9628973052	-0.7576723832	-0.283207
C	-0.5876080229	-0.8901181959	-1.1024808412	-0.037591
C	 0.059713287	-2.1983706815	-0.683870044	-0.070491
C	 0.0681220694	-2.2024379971	 0.6556180303	-0.077551
H	-0.1351301427	 2.0465211931	 0.9190161771	 0.11759
H	-0.1296572932	 2.0375827852	-0.920643087	 0.122174
H	-0.4057899165	-0.5982556519	 2.1570960346	 0.08058
H	-2.5600536952	-1.8963851418	 1.0221380033	 0.102281
H	-2.6318605159	-0.1114232991	 1.0288810607	 0.101755
H	-0.4989101083	-0.5663844076	-2.1371447549	 0.083473
H	 0.3561801839	-2.9937085276	-1.354256388	 0.106801
H	 0.3757394172	-3.0063213459	 1.3119807349	 0.104873
166.7216	252.3598	303.7568	326.4209	370.9103	505.8648	536.1828	602.8542	708.7536	743.6977	787.4613	857.0667	884.4384	889.5281	910.9268	931.3233	941.1864	956.7747	958.8877	990.4279	1028.3101	1061.5675	1115.499	1125.5798	1159.4942	1177.2302	1197.3117	1213.7656	1232.9576	1272.4632	1280.3468	1340.4931	1364.8679	1454.1564	1518.7395	1546.9203	1630.4916	3018.7533	3062.97	3084.5143	3136.844	3150.6086	3171.4561	3207.0626	3232.8855
C1OC11C2COC1C=C2	C1O[C@]21[C@H]1CO[C@@H]2C=C1	
InChI=1S/C7H8O2/c1-2-6-7(4-9-7)5(1)3-8-6/h1-2,5-6H,3-4H2	InChI=1S/C7H8O2/c1-2-6-7(4-9-7)5(1)3-8-6/h1-2,5-6H,3-4H2/t5-,6-,7-/m1/s1
