18
gdb 11784	4.11533	1.77293	1.62741	1.6035	71.29	-0.2316	0.0033	0.235	878.082	0.153937	-347.762674	-347.755503	-347.754559	-347.793902	28.402	
C	 0.0150623676	 1.5411232033	 0.2086431241	-0.379594
C	-0.0001160566	 0.0321166338	-0.0639899264	-0.311305
C	-1.3930261767	-0.5411991608	-0.0709902574	 0.39618
C	-1.7362217782	-2.0652502329	 0.0413643187	-0.266545
C	-3.0201653823	-1.3841633604	 0.5964796926	 0.015378
O	-2.1546027221	-0.3599524229	 1.1815180554	-0.320511
C	-3.5538672611	-0.6659965849	-0.6592451509	-0.083057
C	-2.4433131741	-0.0883456949	-1.1172906122	-0.117364
H	 1.0398140927	 1.9223921025	 0.2382067739	 0.110888
H	-0.5271498288	 2.0921943696	-0.5665433817	 0.116324
H	-0.462970285	 1.7602390433	 1.1670358603	 0.141882
H	 0.4687983825	-0.1881973025	-1.0316284512	 0.100463
H	 0.5898339677	-0.4891471059	 0.6981790328	 0.10608
H	-1.806564881	-2.659087326	-0.8723939156	 0.094471
H	-1.1523425941	-2.5667485913	 0.8179297626	 0.102172
H	-3.7081862406	-1.8535959375	 1.2979562056	 0.078599
H	-4.5641050277	-0.6710928307	-1.0411964446	 0.108458
H	-2.2684754222	 0.5263088581	-1.9884840061	 0.107483
92.5565	169.9468	203.4039	318.566	381.5569	479.1144	536.048	602.4049	629.6611	705.513	741.6688	778.2191	836.3518	853.6013	881.9031	902.7953	910.5979	953.5233	972.1532	989.9763	1043.7135	1055.5308	1086.0258	1107.7761	1173.6946	1202.715	1237.5175	1256.7274	1277.5346	1299.1022	1332.5836	1386.0122	1410.3542	1475.651	1485.9235	1496.6067	1507.5647	1620.5406	3028.0745	3042.1246	3057.1144	3067.0609	3109.1961	3124.3124	3130.0283	3136.3608	3226.3133	3254.693
CCC12CC(O1)C=C2	CC[C@@]12C[C@@H](O1)C=C2	
InChI=1S/C7H10O/c1-2-7-4-3-6(5-7)8-7/h3-4,6H,2,5H2,1H3	InChI=1S/C7H10O/c1-2-7-4-3-6(5-7)8-7/h3-4,6H,2,5H2,1H3/t6-,7+/m0/s1
