21
gdb 95561	2.32958	1.56503	1.04528	2.7178	83.81	-0.2269	-0.0114	0.2155	1198.8439	0.183392	-387.126775	-387.117942	-387.116998	-387.160238	33.888	
C	-0.1478352571	 1.5319646976	 0.0352039663	-0.392404
C	 0.0349115517	 0.0123855316	 0.0413390428	-0.081461
C	 0.6835797336	-0.4718546891	-1.2801775062	-0.181274
C	 0.7975075769	-1.9984545073	-1.4622906245	-0.266094
C	 1.8630465616	-2.6511441093	-0.6122996275	-0.042773
C	 1.8859463465	-2.6292447411	 0.7193893127	-0.06233
C	 0.8402540335	-1.9437614265	 1.5758530092	-0.341214
C	 0.8058440089	-0.4404558192	 1.2851629453	 0.386867
O	 1.36214985	 0.3460736389	 2.0163411977	-0.306059
H	 0.8203139505	 2.0373496009	-0.0161023718	 0.131106
H	-0.7491012602	 1.8423474487	-0.8249813835	 0.103944
H	-0.6431876877	 1.8745808859	 0.9469589465	 0.122396
H	-0.9520946783	-0.4717292507	 0.1042587396	 0.083449
H	 0.0754917547	-0.0677831118	-2.0985659835	 0.099677
H	 1.6779445166	-0.0196686	-1.378267521	 0.109754
H	-0.1821835081	-2.4547856917	-1.2533834234	 0.106422
H	 1.0044148414	-2.2053075113	-2.5166789146	 0.10347
H	 2.6654863388	-3.1624042074	-1.1378581979	 0.091718
H	 2.7061946332	-3.1042124696	 1.2490837537	 0.099605
H	-0.1497588196	-2.3781665113	 1.3828403737	 0.113687
H	 1.0695762032	-2.0678270071	 2.6354326864	 0.121513
72.8979	108.1993	197.947	229.8814	280.4717	290.2518	305.3737	335.8649	435.909	499.5937	576.3132	616.9843	669.9427	727.5228	803.0997	841.6259	872.922	929.1672	942.4574	966.7438	990.0967	1000.1016	1043.7872	1070.3048	1080.4355	1131.7123	1147.9513	1196.0964	1224.0717	1250.3726	1268.6497	1300.24	1317.1809	1352.7689	1357.4678	1389.4861	1409.6124	1415.904	1470.0188	1481.9567	1487.5446	1490.6776	1496.7324	1715.9286	1805.2125	2987.144	2993.8281	3020.4305	3023.4123	3045.4349	3067.1881	3073.6859	3116.0402	3117.3854	3124.9898	3152.8698	3179.8734
CC1CCC=CCC1=O	C[C@H]1CCC=CCC1=O	
InChI=1S/C8H12O/c1-7-5-3-2-4-6-8(7)9/h2,4,7H,3,5-6H2,1H3	InChI=1S/C8H12O/c1-7-5-3-2-4-6-8(7)9/h2,4,7H,3,5-6H2,1H3/t7-/m0/s1
