17
gdb 53735	3.80677	0.73046	0.64764	2.9255	83.61	-0.2552	-0.0477	0.2075	1715.6425	0.132404	-421.798598	-421.788711	-421.787767	-421.83475	34.813	
C	-0.0083335273	 1.4140398465	 0.4289708002	-0.477969
C	 0.0413784843	-0.0081208726	-0.0939897721	 0.242898
O	 1.0587586477	-0.5223425712	-0.5113945821	-0.282119
C	-1.2147461204	-0.7263629987	-0.0643301453	 0.004596
C	-2.2542550498	-1.3448238601	-0.0348816843	 0.067248
C	-3.4994606142	-2.0551056637	-0.0208400482	 0.209916
O	-4.5962677955	-1.3733184944	 0.5248347896	-0.438466
C	-3.7759467666	-3.0563160895	-1.1397283016	-0.308847
C	-3.5007460941	-3.5416072665	 0.2546971735	-0.283691
H	 0.9855154436	 1.8594227877	 0.3649814849	 0.14291
H	-0.7221419276	 2.0060831268	-0.1540273833	 0.142861
H	-0.3577905028	 1.4223175075	 1.4669700824	 0.147759
H	-4.7719255727	-0.6045730834	-0.0297414591	 0.288177
H	-4.8024480099	-3.080256101	-1.4872692446	 0.129011
H	-3.0167259665	-3.1918877626	-1.9004685757	 0.136712
H	-2.5508642361	-4.0163450386	 0.4660365137	 0.139854
H	-4.3411028719	-3.8882185363	 0.8446892022	 0.13915
36.8014	69.9391	93.3854	118.6586	179.8313	240.6818	288.0336	327.6504	388.5925	422.0284	518.6014	573.1042	582.7068	613.3977	635.7887	774.8189	807.8461	867.8498	932.0731	937.7846	983.7644	1015.0662	1042.3964	1056.4312	1085.5678	1196.2825	1209.463	1244.8652	1320.936	1370.7412	1383.2792	1449.654	1461.282	1469.4133	1482.3955	1760.5863	2306.0504	3039.2895	3103.6221	3143.4423	3150.7277	3151.3997	3235.6493	3250.5969	3796.1108
CC(=O)C#CC1(O)CC1	CC(=O)C#CC1(O)CC1	
InChI=1S/C7H8O2/c1-6(8)2-3-7(9)4-5-7/h9H,4-5H2,1H3	InChI=1S/C7H8O2/c1-6(8)2-3-7(9)4-5-7/h9H,4-5H2,1H3
