15
gdb 124051	4.18686	1.57304	1.34484	1.749	71.09	-0.2451	0.0069	0.252	926.9352	0.115996	-416.756008	-416.749807	-416.748862	-416.786825	24.215	
C	 0.1512147311	 1.5222246032	-0.1461671387	-0.090236
O	 1.5409718526	 1.4569472288	 0.2434401661	-0.274921
C	 1.4868806827	 0.02575241	 0.4356069461	-0.059366
C	-0.03340379	-0.0026112445	 0.0214649481	-0.055187
N	 0.4113783984	-0.8025427534	-1.1224289906	 0.088984
N	 0.0962395957	-1.1781308635	-2.3678254004	-0.299099
C	 1.3084151871	-1.4626100736	-2.8757493464	 0.01525
C	 2.3856691837	-1.202324586	-1.9834942909	-0.373219
C	 1.7343807663	-0.7675737337	-0.8452448315	 0.342013
H	-0.4274314587	 2.1128069893	 0.5724500836	 0.119551
H	 0.0057720411	 1.9117052546	-1.1582955944	 0.131605
H	 1.9086321453	-0.2928970054	 1.3881395933	 0.106956
H	-0.8697957403	-0.3937518357	 0.5972354536	 0.117214
H	 1.3747273807	-1.868526473	-3.8754909273	 0.115817
H	 3.438124884	-1.3326341871	-2.1702575205	 0.114638
107.2745	170.8759	296.259	447.48	480.8017	651.5596	693.0255	736.8253	755.399	796.1664	813.0426	888.7233	889.8446	919.0349	963.0372	982.1989	999.3442	1038.6302	1047.8368	1118.0368	1152.3138	1172.7894	1176.6631	1203.7187	1274.7631	1289.8465	1305.8714	1335.4871	1354.1649	1408.347	1460.6035	1508.1561	1556.5378	3038.5648	3096.2099	3125.4112	3141.1171	3239.4179	3281.1711
C1OC2C1N1N=CC=C21	C1O[C@H]2[C@@H]1n1nccc21	
InChI=1S/C6H6N2O/c1-2-7-8-4(1)6-5(8)3-9-6/h1-2,5-6H,3H2	InChI=1S/C6H6N2O/c1-2-7-8-4(1)6-5(8)3-9-6/h1-2,5-6H,3H2/t5-,6-/m1/s1
