17
gdb 18838	3.92792	2.18672	1.81302	1.9689	65.84	-0.2317	0.0648	0.2964	768.2656	0.144844	-363.825201	-363.818811	-363.817867	-363.855463	25.799	
O	-0.0274882318	 1.4383521696	-0.0820145907	-0.436139
C	 0.0191108469	 0.0268739635	 0.0199420399	 0.137864
C	 0.6152715326	-0.5230027099	 1.3462031978	-0.292481
C	-0.3223915816	-1.670421755	 1.6843305627	-0.015644
C	-1.7672328711	-1.4027730465	 1.9003861129	-0.033324
C	-2.202518983	-0.0811228604	 1.2824027485	-0.248667
C	-1.4005087337	-0.5319269174	 0.0352808259	-0.00237
N	-1.2774824141	-1.9524906167	 0.5748445664	-0.162735
H	 0.8743540467	 1.767073912	-0.1415944352	 0.287024
H	 0.5604774561	-0.4071384304	-0.8342628598	 0.075274
H	 1.6449797103	-0.8715166175	 1.2256683065	 0.10123
H	 0.6137566926	 0.2628485761	 2.1089227108	 0.110423
H	 0.0804589278	-2.5665207758	 2.1458272616	 0.089897
H	-2.3622120326	-2.0122116599	 2.5747676507	 0.088127
H	-3.2764382201	-0.0645893013	 1.0876051876	 0.110056
H	-1.9102556398	 0.8539219085	 1.7676819087	 0.110867
H	-1.9097744454	-0.4827544587	-0.9262553943	 0.0806
126.9879	265.0322	275.9253	385.7163	416.6056	519.1349	584.8868	697.475	746.3188	777.277	798.3269	831.6998	896.9392	938.5864	975.3981	982.8283	989.82	1035.3033	1066.4754	1076.6136	1100.7726	1120.4666	1139.2395	1184.5916	1199.0552	1212.1538	1254.3698	1263.5991	1285.1633	1317.7826	1344.4625	1373.5662	1410.0425	1430.4729	1486.8238	1505.0483	2985.5995	3046.2295	3063.2987	3090.8318	3114.5218	3125.2634	3146.2577	3164.0243	3827.9971
OC1CC2C3CC1N23	O[C@H]1C[C@H]2[C@H]3C[C@@H]1N23	
InChI=1S/C6H9NO/c8-6-2-4-3-1-5(6)7(3)4/h3-6,8H,1-2H2	InChI=1S/C6H9NO/c8-6-2-4-3-1-5(6)7(3)4/h3-6,8H,1-2H2/t3-,4+,5+,6+,7?/m1/s1
