21
gdb 105882	2.13171	1.41892	1.31865	2.7785	78.25	-0.2451	0.0652	0.3103	1149.2122	0.182235	-424.199944	-424.190709	-424.189765	-424.233563	35.674	
C	 0.0102896762	 1.5339585943	 0.2338768603	-0.374674
C	 0.005779542	 0.0322128868	-0.0899607111	-0.307812
C	-1.3862352136	-0.5413629482	-0.0900047971	 0.306236
C	-2.0709246256	-1.0232896065	 1.1449715224	 0.040708
O	-3.3167973542	-0.4742022134	 1.5205733776	-0.432264
C	-1.9197624318	-2.0014682267	 0.0180242975	-0.192897
C	-2.9787698385	-1.7286119312	-1.0519639064	-0.274423
C	-2.4341631695	-0.2644013589	-1.1856620316	 0.093721
O	-3.3024753207	 0.825500392	-1.0201598175	-0.444603
H	 1.0200762324	 1.9503110433	 0.1661329006	 0.106792
H	-0.6360490735	 2.0832198656	-0.4571470505	 0.137363
H	-0.364554716	 1.7151758306	 1.2466142262	 0.118726
H	 0.4649903935	-0.1340242804	-1.0735463445	 0.096757
H	 0.630528096	-0.507441893	 0.6332790036	 0.092427
H	-1.401345424	-1.1903284326	 1.9891452362	 0.090939
H	-3.8654487012	-1.1806361897	 1.8782414951	 0.291117
H	-1.3586197656	-2.9218870147	 0.1344556171	 0.085561
H	-2.845521315	-2.3164569551	-1.9624684973	 0.102419
H	-4.02092295	-1.81017956	-0.7289664024	 0.087439
H	-1.947718884	-0.1232599695	-2.1554181427	 0.08572
H	-3.676026387	 0.7320847273	-0.1337056855	 0.290749
84.3656	122.2373	186.4977	202.267	236.3183	292.0321	317.5683	345.9774	376.5039	420.5803	523.7787	573.2256	582.8172	690.3479	777.266	789.8869	806.0377	850.9772	885.6172	958.4541	976.6755	1001.3617	1025.9678	1029.9622	1065.4112	1100.3093	1110.0396	1142.7726	1167.2908	1214.1867	1231.4445	1244.8989	1282.5469	1293.6115	1324.1949	1325.0268	1350.9079	1362.4893	1413.0934	1462.4963	1467.7534	1485.892	1495.4737	1498.348	1509.246	3013.5343	3036.8957	3045.1315	3054.217	3065.4895	3103.3281	3105.5032	3112.1643	3114.8839	3175.0469	3758.8873	3802.7696
CCC12C(O)C1CC2O	CC[C@]12[C@@H](O)[C@H]1C[C@H]2O	
InChI=1S/C7H12O2/c1-2-7-4(6(7)9)3-5(7)8/h4-6,8-9H,2-3H2,1H3	InChI=1S/C7H12O2/c1-2-7-4(6(7)9)3-5(7)8/h4-6,8-9H,2-3H2,1H3/t4-,5-,6+,7+/m1/s1
