23
gdb 122024	3.20505	0.66914	0.57583	1.7902	80.53	-0.2581	0.0815	0.3396	1969.6013	0.202611	-462.54022	-462.528758	-462.527814	-462.578371	39.642	
C	-0.6140637905	 1.5725148006	-0.5096414837	-0.225601
O	-0.8048362908	 0.184466222	-0.6444696136	-0.233501
C	-0.4097469675	-0.5383517192	 0.4979026746	-0.069363
C	-0.6439224717	-2.0249367956	 0.2338135077	 0.120902
C	 0.1932930548	-2.5393504606	-0.9358369948	-0.402152
O	-0.3304335287	-2.6740434785	 1.4598541704	-0.278697
C	-0.78678575	-4.0104869647	 1.5827105294	-0.07738
C	-0.6437078758	-4.3827498181	 3.0510408986	-0.056465
O	-1.3950480711	-3.5180549126	 3.878278127	-0.421631
H	-0.9467080517	 2.0405607944	-1.4392006844	 0.128227
H	-1.2001619588	 1.9853603921	 0.3264923727	 0.106391
H	 0.445050045	 1.8244565048	-0.3425151975	 0.106114
H	 0.6558468125	-0.3669244246	 0.7270771018	 0.092032
H	-0.991843499	-0.231027583	 1.3817171176	 0.08798
H	-1.7133195917	-2.1655906782	 0.0079614852	 0.079244
H	-0.0433020913	-3.5792407262	-1.1773880826	 0.114766
H	-0.0035501031	-1.9280277455	-1.8196574683	 0.138736
H	 1.2592025499	-2.4733053546	-0.6930776945	 0.118316
H	-1.8434278414	-4.0781434374	 1.2794648614	 0.09561
H	-0.2011680518	-4.6986767023	 0.9547843023	 0.091984
H	-1.0191614307	-5.3987268362	 3.2120787444	 0.106911
H	 0.4248419727	-4.3710387136	 3.320317475	 0.092045
H	-1.1728507994	-2.6269127329	 3.5831464413	 0.285532
38.7405	55.3447	89.5027	95.4661	139.2609	163.6914	222.5604	235.4514	253.4445	303.6623	337.3603	384.5872	435.0394	470.6254	506.2507	579.7856	835.0131	882.8856	910.5248	935.2554	976.1603	998.1061	1081.7337	1089.5262	1133.0694	1140.64	1156.7865	1166.7181	1178.947	1197.4512	1229.2205	1241.8443	1259.6199	1263.1271	1335.9639	1376.582	1385.9119	1401.208	1409.0863	1427.8138	1441.8701	1481.4146	1485.7437	1492.4767	1494.0777	1499.7528	1504.4586	1511.1766	1529.4789	2957.3489	2972.2772	2975.088	2976.7057	2979.6405	2999.6205	3016.8804	3020.9731	3042.551	3077.9882	3113.346	3115.6027	3132.7707	3790.9493
COCC(C)OCCO	COC[C@@H](C)OCCO	
InChI=1S/C6H14O3/c1-6(5-8-2)9-4-3-7/h6-7H,3-5H2,1-2H3	InChI=1S/C6H14O3/c1-6(5-8-2)9-4-3-7/h6-7H,3-5H2,1-2H3/t6-/m1/s1
