18
gdb 6407	4.75029	1.02798	0.89581	6.8874	64.82	-0.2446	0.0331	0.2777	1264.2763	0.155072	-418.289301	-418.280563	-418.279619	-418.322791	31.89	
N	 0.0523991148	 1.4880610088	 0.0125581855	-0.518941
C	 0.0524986695	 0.0359689126	-0.1967183889	-0.162056
C	-1.3817722488	-0.5012746445	-0.0892214807	 0.024166
N	-2.3101713918	 0.1526530083	-1.0317854521	-0.517938
H	-3.5752831478	-1.0264849695	-0.6682370249	 0.315934
H	-2.2629551709	 1.1574026278	-0.8809861159	 0.252129
H	-1.9844231288	-0.0024153061	-1.9847948585	 0.234447
C	-1.4565604989	-2.0214433367	-0.2793433341	-0.33829
C	-2.8295483003	-2.6511884455	 0.0021439854	 0.3984
O	-3.8910219084	-1.9033924451	-0.3227341402	-0.374069
O	-2.9418727611	-3.756021874	 0.4657400972	-0.335351
H	-0.0274121554	 1.6959190499	 1.003898888	 0.233695
H	 0.9331686748	 1.8899165498	-0.2902607631	 0.237418
H	 0.4299166942	-0.1617410911	-1.2084460768	 0.101566
H	 0.7019658805	-0.5193002206	 0.4994548836	 0.095099
H	-1.7538904338	-0.2605057055	 0.9171096024	 0.098939
H	-1.1844334293	-2.2708740997	-1.3155754486	 0.12117
H	-0.7369952784	-2.532228529	 0.3637137618	 0.133682
79.8238	102.0218	161.8248	176.5639	256.444	312.6138	351.0892	361.5716	412.9808	456.0344	529.9605	619.3902	690.3954	832.6351	871.3219	880.3842	936.7747	939.5116	988.4161	1003.3618	1032.6801	1085.6083	1127.7974	1157.4288	1176.9655	1270.7217	1290.529	1315.0388	1339.0136	1376.9344	1412.2867	1421.3618	1462.9563	1498.6291	1500.7872	1660.0188	1661.1021	1856.3836	2969.3984	3003.7637	3019.0422	3047.2206	3115.1452	3215.2798	3466.7777	3497.7515	3547.8197	3577.3338
NCC([NH3+])CC([O-])=O	NC[C@@H](N)CC(=O)O	
InChI=1S/C4H10N2O2/c5-2-3(6)1-4(7)8/h3H,1-2,5-6H2,(H,7,8)	InChI=1S/C4H10N2O2/c5-2-3(6)1-4(7)8/h3H,1-2,5-6H2,(H,7,8)/t3-/m0/s1
