17
gdb 37914	2.72831	2.06165	1.47846	0.8736	71.17	-0.2396	0.023	0.2625	897.9114	0.13937	-417.956795	-417.950143	-417.949199	-417.987843	26.64	
C	 0.0827431329	 1.5914334879	-0.0512168877	-0.21679
C	 1.62164058	 1.4311865155	 0.0477015552	 0.107472
O	 2.3624014959	 2.1104448034	 1.0481883655	-0.231974
C	 1.96183389	 2.0713760493	 2.3480797781	 0.127822
N	 1.1183056365	 1.3899958555	 2.9845514148	-0.259395
C	 0.262219324	 0.3091042323	 2.5501849258	-0.195898
C	 0.4243787137	-0.4008535993	 1.2065706158	-0.022181
C	 1.4005892692	-0.0667704575	 0.1531101278	-0.094361
N	-0.1060495785	 0.0998528621	-0.077841977	-0.146118
H	-0.4221385197	 2.0986705522	 0.7749690634	 0.122743
H	-0.2450416317	 2.0311079743	-0.9941690684	 0.119721
H	 2.114327309	 1.7074739463	-0.8849473099	 0.109016
H	 2.5432484513	 2.8189571953	 2.888952152	 0.121722
H	 0.3563010212	-0.4666371184	 3.320285061	 0.125556
H	-0.7785985667	 0.6559519746	 2.6379960792	 0.128433
H	 0.2160623511	-1.4666651564	 1.2816618195	 0.104035
H	 1.985394012	-0.8185122272	-0.3668931549	 0.100197
94.3631	231.9294	296.8342	378.0014	402.0493	484.3354	511.5497	653.7037	701.9455	769.6565	784.625	823.3313	840.8888	893.5346	939.1272	972.3163	980.7877	1000.3008	1034.0837	1059.9744	1066.576	1081.6648	1124.4154	1166.2654	1192.7564	1251.3696	1267.2067	1296.6086	1304.5957	1364.5051	1387.1092	1398.4829	1445.9814	1447.0594	1469.456	1505.8082	1784.5421	2999.8963	3036.5042	3071.2848	3107.5057	3124.5957	3129.9074	3132.1782	3166.8744
C1C2OC=NCC3C2N13	C1[C@H]2OC=NC[C@@H]3[C@H]2N13	
InChI=1S/C6H8N2O/c1-4-6-5(2-8(4)6)9-3-7-1/h3-6H,1-2H2	InChI=1S/C6H8N2O/c1-4-6-5(2-8(4)6)9-3-7-1/h3-6H,1-2H2/t4-,5-,6-,8?/m1/s1
