18
gdb 75828	2.53461	1.64225	1.21146	2.7534	72.26	-0.2486	0.0222	0.2707	1056.0268	0.14719	-439.087025	-439.078653	-439.077709	-439.119677	32.512	
C	-0.5152903571	 1.3407322149	-0.0508915242	-0.401856
C	 0.0181363457	-0.0905081615	 0.015424483	-0.163567
C	 0.9878093685	-0.4251584102	-1.1118162615	 0.401976
N	 0.8423441634	-0.0877806057	-2.3177786812	-0.535169
O	 2.0489726671	-1.1564160598	-0.6341869124	-0.23728
C	 2.00730878	-1.199137626	 0.7792152664	 0.026577
C	 2.155450087	 0.1256158592	 1.4906926931	-0.381557
C	 0.786468896	-0.4941868796	 1.267386539	 0.373777
O	 0.0793807693	-1.0133427508	 2.3481859621	-0.469249
H	 0.2880015364	 2.0692562217	 0.0956414898	 0.118964
H	-0.9620204493	 1.5253324134	-1.0302000033	 0.151046
H	-1.2757838325	 1.5078870484	 0.7186868822	 0.106962
H	-0.8250114618	-0.7897193706	-0.0635643976	 0.119291
H	 1.6187208077	-0.4292648937	-2.886702724	 0.225013
H	 2.3859441667	-2.123700881	 1.1943695338	 0.123178
H	 2.5327442758	 0.0835867613	 2.5066295873	 0.125167
H	 2.4637575905	 0.9902388118	 0.9114456295	 0.128109
H	-0.2615246437	-0.2757908218	 2.866061898	 0.288618
83.8352	201.108	208.9672	227.3751	277.9961	300.9034	341.0779	446.5238	467.5766	488.4558	565.888	640.8654	693.0156	717.5066	810.4318	885.0449	892.9555	904.1332	932.2934	996.1933	1020.5031	1027.1614	1049.1244	1082.0859	1104.844	1118.1359	1154.1179	1206.3732	1244.4329	1293.3179	1301.4396	1345.1547	1368.1237	1406.6917	1410.8053	1480.0362	1493.9986	1497.1539	1777.7425	3026.8772	3040.1326	3106.9641	3129.7176	3133.2773	3208.1803	3226.3481	3475.8849	3797.9572
CC1C(=N)OC2CC12O	C[C@H]1[C]([NH])O[C@H]2C[C@@]12O	
InChI=1S/C6H9NO2/c1-3-5(7)9-4-2-6(3,4)8/h3-4,7-8H,2H2,1H3	InChI=1S/C6H9NO2/c1-3-5(7)9-4-2-6(3,4)8/h3-4,7-8H,2H2,1H3/t3-,4-,6+/m0/s1
