13
gdb 20522	4.98387	1.59877	1.21952	1.4877	60.67	-0.2633	-0.0628	0.2005	918.6459	0.095108	-398.614748	-398.607676	-398.606731	-398.646709	24.87	
C	-0.0476319036	 1.4994091247	 0.0096210421	-0.483145
C	 0.039497392	-0.0085121564	 0.0022854667	 0.316956
O	 1.0877924616	-0.61604722	-0.0090084884	-0.295382
C	-1.2435709566	-0.7721187258	 0.0097532941	 0.281453
N	-2.4095012515	-0.161264222	 0.0219906571	-0.184026
O	-3.3570895781	-1.1632512105	 0.0257783442	-0.159848
C	-2.7335100241	-2.3579785784	 0.0154784785	 0.084119
C	-1.3904659691	-2.1893882557	 0.0048528983	-0.323647
H	 0.958561978	 1.9188341766	 0.0027152945	 0.140673
H	-0.6117287476	 1.8496096036	-0.8605991246	 0.156121
H	-0.5964194215	 1.8419067878	 0.8926120758	 0.156122
H	-3.3811816281	-3.2205344722	 0.0172635431	 0.16208
H	-0.6075651814	-2.9272200317	-0.0048905913	 0.148524
68.6403	121.9131	188.059	195.2526	368.2814	496.8734	555.015	623.7772	626.1893	725.0356	819.8021	888.8519	921.5348	950.8297	965.2397	994.5498	1049.5248	1053.9747	1136.4079	1161.8287	1313.3629	1387.4596	1456.8858	1459.4346	1467.9377	1470.9301	1588.8559	1793.1226	3049.4262	3112.5951	3160.9787	3270.8085	3304.3153
CC(=O)C1=NOC=C1	CC(=O)c1nocc1	
InChI=1S/C5H5NO2/c1-4(7)5-2-3-8-6-5/h2-3H,1H3	InChI=1S/C5H5NO2/c1-4(7)5-2-3-8-6-5/h2-3H,1H3
