19
gdb 81290	2.71727	1.54373	1.2549	4.6259	75.	-0.2569	0.0186	0.2755	1065.4213	0.161279	-423.061101	-423.05342	-423.052476	-423.093076	30.157	
C	-0.1193116647	 1.5037397591	 0.0186947319	-0.431906
C	 0.0194549413	-0.0130608923	-0.0319222059	 0.027218
C	 0.8853318069	-0.5845228371	-1.1934722408	-0.042451
C	 2.1284805607	-0.4436497551	-0.2774670765	-0.248272
C	 1.1248677488	-0.6126070647	 0.9007111094	-0.152104
C	 0.8447239816	-2.0898762946	 1.0753319547	 0.431551
O	 0.8394569911	-2.6788911074	 2.1196251419	-0.339813
O	 0.5810688128	-2.7640445237	-0.0809870666	-0.242535
C	 0.5660659307	-2.0655543659	-1.3440672024	-0.079006
H	 0.8432387991	 2.0155103885	-0.0778840923	 0.120661
H	-0.7656722963	 1.8575048139	-0.7917889323	 0.120822
H	-0.5692682225	 1.8192772414	 0.9656223805	 0.126704
H	-0.9702095621	-0.4717736468	 0.0726922592	 0.083131
H	 0.8699523099	-0.0855365979	-2.166162796	 0.073667
H	 2.9249957645	-1.18558309	-0.378193451	 0.112409
H	 2.5643625221	 0.555546707	-0.3025625214	 0.113296
H	 1.3270208067	-0.1573946538	 1.8693767414	 0.091194
H	-0.4312873073	-2.2118615227	-1.7749477274	 0.117632
H	 1.2969565369	-2.5660229879	-1.9894614263	 0.117804
128.7141	180.9295	212.1816	247.2959	275.2921	383.7988	421.2595	450.1263	522.767	654.2001	731.435	776.4929	809.6447	852.8052	880.3935	893.7747	939.5985	974.7555	1007.8182	1042.3342	1045.3399	1079.4128	1096.0375	1114.9417	1148.4902	1157.3911	1216.217	1231.6548	1243.7504	1283.105	1293.0403	1303.3158	1317.8874	1390.9899	1413.845	1420.7942	1493.8017	1496.79	1506.7836	1515.1959	1857.4143	3030.2112	3033.483	3038.021	3067.6072	3072.1077	3078.4081	3098.9875	3106.2785	3125.3103	3131.1389
CC1C2CC1C(=O)OC2	C[C@H]1[C@H]2C[C@@H]1C(=O)OC2	
InChI=1S/C7H10O2/c1-4-5-2-6(4)7(8)9-3-5/h4-6H,2-3H2,1H3	InChI=1S/C7H10O2/c1-4-5-2-6(4)7(8)9-3-5/h4-6H,2-3H2,1H3/t4-,5-,6-/m0/s1
