21
gdb 112832	2.67949	1.30323	1.0091	2.6846	78.09	-0.247	0.0807	0.3277	1243.8757	0.183253	-424.223089	-424.214359	-424.213415	-424.256374	33.868	
C	 0.1052147267	 1.5058028593	-0.1996441326	-0.401681
C	 0.0819098794	-0.0036213723	-0.0191899689	 0.129277
O	 0.7888609837	-0.6066588603	-1.1095825338	-0.300539
C	 1.2335994475	-1.90927535	-0.7112061931	 0.092551
C	 2.4077274575	-2.2691843411	-1.6121838724	-0.06763
O	 2.0373870477	-2.2457318741	-2.9774990995	-0.42556
C	 1.5102650215	-1.7877543299	 0.7783869641	-0.071238
C	 2.2693960088	-0.5600364717	 1.2213800666	-0.297526
C	 0.7626704405	-0.5560274497	 1.2273528558	-0.057561
H	 1.1294785159	 1.8866065846	-0.158843134	 0.122649
H	-0.3296290964	 1.7816614856	-1.1645473171	 0.124292
H	-0.4777857851	 1.9902522418	 0.5896641464	 0.116075
H	-0.9647104082	-0.3539912489	-0.0243752298	 0.068794
H	 0.4267100545	-2.6431746066	-0.8754985254	 0.07251
H	 3.244024167	-1.5830359617	-1.4068980455	 0.086837
H	 2.7459917553	-3.2869256813	-1.3897792562	 0.103627
H	 1.6028674667	-1.3962978184	-3.1173882248	 0.291331
H	 1.5407580672	-2.6896937103	 1.3779362813	 0.090274
H	 2.7692736157	-0.6080158081	 2.1820272729	 0.112311
H	 2.7873627471	 0.0298348151	 0.4727511055	 0.122804
H	 0.224670907	-0.524877552	 2.1676133007	 0.088403
97.9811	134.4254	155.4904	215.8546	223.1067	307.0254	365.0782	430.4843	440.6779	497.2105	528.2093	625.9818	705.8354	777.147	819.2256	839.3323	893.5808	938.9393	945.7245	992.8853	1022.6075	1040.4538	1074.3189	1082.4911	1087.0628	1104.7822	1117.1994	1122.8956	1129.1859	1166.3392	1195.2169	1235.7675	1318.1581	1332.6168	1339.312	1350.006	1382.4194	1390.2674	1407.8022	1417.708	1442.6641	1479.5228	1486.7027	1496.5063	1500.0498	2951.1625	2962.9096	2989.2678	3043.5921	3074.3148	3115.7304	3122.1733	3137.4356	3177.0321	3186.0142	3223.5171	3799.4708
CC1OC(CO)C2CC12	C[C@H]1O[C@@H](CO)[C@H]2C[C@@H]12	
InChI=1S/C7H12O2/c1-4-5-2-6(5)7(3-8)9-4/h4-8H,2-3H2,1H3	InChI=1S/C7H12O2/c1-4-5-2-6(5)7(3-8)9-4/h4-8H,2-3H2,1H3/t4-,5+,6+,7+/m1/s1
