19
gdb 78314	2.7137	1.71948	1.43209	2.7686	73.78	-0.2385	0.0493	0.2878	986.1781	0.15979	-422.960018	-422.952417	-422.951472	-422.991527	31.082	
C	 0.0135037391	 1.5193911954	-0.0020605091	-0.494098
C	-0.0242856861	 0.0085892043	-0.0056708665	 0.298426
C	-1.3856642011	-0.7150751991	 0.0870241562	-0.157608
O	-0.8884004208	-1.5824475884	 1.1575650715	-0.3318
C	 0.3785829612	-0.8454156156	 1.2086781833	 0.069249
C	 1.5715884389	-1.457308629	 0.4564112619	-0.153279
C	 1.1477391092	-2.1756347162	-0.7842432715	 0.120147
O	 0.0810488983	-3.0671009364	-0.8832837591	-0.439727
C	 1.1061392942	-0.6707832313	-0.824688833	-0.17371
H	 1.0246886233	 1.8856937036	 0.2059651545	 0.123556
H	-0.2871051175	 1.9209497506	-0.9770886772	 0.125157
H	-0.6608258623	 1.9328968778	 0.7552561912	 0.119625
H	-2.1975146795	-0.080596499	 0.4616868763	 0.103444
H	-1.722352252	-1.2873900907	-0.7804578988	 0.126333
H	 0.57577528	-0.4339109818	 2.2011598952	 0.085407
H	 2.5601506481	-1.5665075293	 0.8887412417	 0.086311
H	 1.9951064962	-2.552542216	-1.3545884803	 0.107617
H	-0.4280141441	-2.9720514777	-0.0645101209	 0.299506
H	 1.7174425549	-0.1167645413	-1.5299652153	 0.085443
164.0367	218.4251	228.8464	277.7515	300.1632	353.6282	390.7178	546.2483	616.2125	645.8549	656.8349	685.6089	739.8841	801.7039	861.7323	880.5056	900.3755	929.6137	963.0924	975.4707	985.8839	989.9007	1018.5897	1043.02	1083.6381	1156.3073	1170.5459	1194.4831	1198.7206	1236.0511	1256.9614	1289.3617	1302.5378	1332.3627	1383.8693	1393.1302	1412.7189	1475.915	1490.3446	1493.9298	1511.0118	3023.1297	3031.1873	3084.2119	3088.2415	3098.3372	3107.1424	3125.6114	3157.1633	3169.9246	3698.7738
CC12COC1C1C(O)C21	C[C@]12CO[C@H]1[C@H]1[C@@H](O)[C@@H]21	
InChI=1S/C7H10O2/c1-7-2-9-6(7)3-4(7)5(3)8/h3-6,8H,2H2,1H3	InChI=1S/C7H10O2/c1-7-2-9-6(7)3-4(7)5(3)8/h3-6,8H,2H2,1H3/t3-,4+,5-,6+,7-/m1/s1
