25
gdb 58309	3.20025	0.70706	0.6105	0.8783	95.76	-0.2567	0.059	0.3157	1903.7255	0.225744	-352.335523	-352.323883	-352.322938	-352.373198	42.66	
C	 0.0111227399	 1.5175003272	 0.1744619779	-0.399802
C	-0.0500470869	-0.007547034	-0.0110895638	 0.03708
C	-1.5249539613	-0.4395467585	-0.0701632403	-0.396127
C	 0.7537872194	-0.4985921437	-1.2474922669	 0.052929
C	 2.148935345	 0.1438925309	-1.3306462053	-0.411485
C	 0.873559987	-2.0372765757	-1.2615636023	-0.184147
C	 1.3019576607	-2.6251756026	-2.6242320955	-0.366702
C	 1.3693721142	-4.0816010679	-2.608802335	 0.296097
C	 1.4162330993	-5.2822068332	-2.5672268814	-0.439938
H	 1.0230018603	 1.8755866535	 0.3780772523	 0.114797
H	-0.3569697063	 2.0378902898	-0.7185524436	 0.110076
H	-0.6202684733	 1.8240551529	 1.0147201814	 0.108787
H	 0.4055946574	-0.4696253697	 0.8779725981	 0.069486
H	-2.0226880804	 0.0041113816	-0.9411545736	 0.111107
H	-1.6529073311	-1.5230664188	-0.1308052797	 0.116869
H	-2.060764243	-0.0994740155	 0.8219653211	 0.110876
H	 0.1869838531	-0.1941706523	-2.1417140094	 0.063431
H	 2.731605031	-0.2682200098	-2.1595236093	 0.111706
H	 2.0957424074	 1.2239846574	-1.4848895564	 0.117791
H	 2.715774219	-0.0369879554	-0.4091204866	 0.113845
H	 1.5937422718	-2.3526248603	-0.4961460351	 0.104542
H	-0.0793612999	-2.4998235517	-0.9929081592	 0.108524
H	 0.5907696274	-2.3024775208	-3.3964943924	 0.127794
H	 2.2775156112	-2.2264731734	-2.9262839809	 0.131026
H	 1.4618194082	-6.3425032999	-2.5432902143	 0.191438
31.9894	60.3142	78.3828	114.2313	197.0215	215.8415	229.8706	259.0525	299.4857	339.0015	359.0381	376.5457	413.8187	443.5612	472.7791	552.2527	614.1133	633.3095	753.8494	793.5117	882.5707	926.9091	947.5249	951.946	956.9922	969.0677	996.525	1027.049	1075.8516	1132.3203	1154.0226	1178.8667	1193.9571	1223.4834	1272.4032	1315.7733	1317.2404	1345.37	1358.7226	1375.8297	1384.062	1403.1943	1414.5135	1423.6844	1470.5817	1486.1593	1489.9712	1492.0199	1500.7356	1505.7801	1510.1953	1521.7857	2237.7277	2975.6628	2993.096	3017.6016	3026.0624	3031.453	3032.9022	3038.975	3055.345	3087.8399	3094.5549	3097.1474	3099.8386	3112.4834	3116.691	3122.1982	3507.5923
CC(C)C(C)CCC#C	CC(C)[C@@H](C)CCC#C	
InChI=1S/C9H16/c1-5-6-7-9(4)8(2)3/h1,8-9H,6-7H2,2-4H3	InChI=1S/C9H16/c1-5-6-7-9(4)8(2)3/h1,8-9H,6-7H2,2-4H3/t9-/m0/s1
