16
gdb 29804	3.22678	1.2277	0.89539	5.0776	83.09	-0.1988	-0.0176	0.1812	1240.5785	0.125674	-396.97853	-396.969648	-396.968704	-397.012595	31.91	
C	 0.0244020498	 1.4340223942	 0.0373085113	-0.352306
N	-0.027973353	-0.0149403086	 0.0184906902	-0.069932
C	-0.0086118409	-0.7913451817	-1.110093261	-0.162436
C	-0.0022602047	-2.1284332202	-0.7380494274	 0.268093
N	-0.0693092337	-3.2382077978	-1.5934264908	-0.607893
C	-0.0122366486	-2.160885297	 0.6744274643	-0.335924
C	-0.0241464246	-0.843348407	 1.1185297581	 0.236746
C	-0.0348282294	-0.3404200894	 2.4354783636	 0.208217
N	-0.0431282234	 0.0852414483	 3.515210419	-0.370512
H	 1.0168106397	 1.7987722344	-0.248952624	 0.1446
H	-0.7170063879	 1.8441233399	-0.6538449352	 0.145041
H	-0.2009049789	 1.7867931541	 1.0443847199	 0.172646
H	-0.0086645316	-0.3385117119	-2.089035973	 0.11833
H	 0.3272537234	-3.0604447892	-2.5067645423	 0.243345
H	 0.364351808	-4.061627219	-1.1973769059	 0.246974
H	-0.0260113942	-3.0335350092	 1.3084768932	 0.115011
49.9814	135.378	146.9527	165.2978	184.1099	284.5557	325.4583	415.3044	507.4908	531.5747	576.9302	623.3449	648.5039	657.8638	705.6883	742.0882	796.8631	809.8166	1014.1221	1085.9974	1101.8761	1150.9548	1181.2137	1190.8874	1251.4817	1389.5993	1441.6822	1459.3135	1474.6024	1487.0243	1513.1712	1524.9906	1623.4759	1660.112	2325.1689	3038.0453	3101.9977	3150.7864	3257.0579	3258.1384	3543.2007	3632.3335
CN1C=C(N)C=C1C#N	Cn1cc(N)cc1C#N	
InChI=1S/C6H7N3/c1-9-4-5(8)2-6(9)3-7/h2,4H,8H2,1H3	InChI=1S/C6H7N3/c1-9-4-5(8)2-6(9)3-7/h2,4H,8H2,1H3
