18
gdb 11994	2.63218	2.1487	1.76424	1.821	66.82	-0.2516	0.0688	0.3204	857.2805	0.151424	-384.903348	-384.895096	-384.894152	-384.935237	31.666	
C	-0.1050637507	 1.5753477978	-0.1538603805	-0.417299
C	 0.0178430078	 0.0668392421	 0.0020416473	-0.06363
C	 1.0360848122	-0.6579886031	-0.8914951319	 0.016779
O	 2.3423292427	-0.2021205873	-0.5009036374	-0.254556
C	 1.7295421401	-1.2468498568	 0.2595408522	 0.007048
C	 0.7692023888	-0.5751668688	 1.2577985377	 0.364425
C	 1.3876641501	 0.3532786323	 2.2888170086	-0.461775
O	 0.0030557829	-1.6044384102	 1.8608920943	-0.481397
H	 0.8810101364	 2.0465819668	-0.1754105719	 0.133712
H	-0.6199225156	 1.8282686139	-1.0874364058	 0.115353
H	-0.6786856869	 2.0186669045	 0.6672948544	 0.110563
H	-0.957742644	-0.4254450884	-0.0624950322	 0.079103
H	 0.9271240221	-1.0198833329	-1.9076948384	 0.100718
H	 2.2642517399	-2.1824798091	 0.3771488769	 0.104726
H	 2.0825574466	 1.0497442323	 1.8145758228	 0.139851
H	 0.6168807613	 0.9398382579	 2.8042892834	 0.105725
H	 1.9290611841	-0.2312198026	 3.0391318024	 0.122815
H	-0.6588182779	-1.1908644784	 2.425424738	 0.277839
134.6209	211.5493	219.8681	244.2492	249.089	269.2865	311.8193	370.7995	437.9441	535.0602	570.4151	645.8716	747.4885	843.6426	863.4383	864.951	888.8151	957.4194	987.2616	1020.2827	1049.8423	1071.9043	1099.3601	1125.3811	1172.1598	1191.9981	1228.1685	1240.8897	1262.7555	1351.8195	1383.4707	1389.5855	1399.3017	1414.4476	1481.7769	1494.0026	1497.3067	1507.4989	3026.5445	3032.2532	3062.2887	3090.0963	3094.4163	3118.51	3132.5048	3176.6315	3193.2939	3805.3455
CC1C2OC2C1(C)O	C[C@H]1[C@H]2O[C@H]2[C@]1(C)O	
InChI=1S/C6H10O2/c1-3-4-5(8-4)6(3,2)7/h3-5,7H,1-2H3	InChI=1S/C6H10O2/c1-3-4-5(8-4)6(3,2)7/h3-5,7H,1-2H3/t3-,4+,5+,6+/m0/s1
