13
gdb 48471	2.16249	1.71522	1.24819	2.7376	63.5	-0.2794	-0.0667	0.2127	993.4214	0.089009	-452.765038	-452.75721	-452.756266	-452.798198	27.246	
O	-0.3853112848	 0.5912622135	 0.7349425238	-0.227343
C	 0.3242012421	 0.8878094068	-0.1829266728	 0.155877
C	 1.422829415	 1.9837461342	-0.0887517856	 0.023791
C	 1.5053760704	 2.6299298049	 1.3211245217	-0.158535
O	 2.7897947841	 2.1848513677	 1.8192545118	-0.202946
C	 3.3316057642	 1.4451311449	 0.8408008227	 0.14099
N	 2.7124216586	 1.2686111175	-0.2578816761	-0.29669
C	 1.2090208542	 2.9508337291	-1.168700779	 0.262997
N	 0.9927435631	 3.7100016586	-2.0124756803	-0.318777
H	 0.2944710545	 0.3798310914	-1.1646916749	 0.13481
H	 1.4980619575	 3.7197930411	 1.3024693164	 0.152266
H	 0.7194100013	 2.2459584756	 1.9736957532	 0.166108
H	 4.3081859597	 1.0325991445	 1.067589499	 0.167451
78.5407	82.8572	170.9791	182.53	269.7423	327.0037	481.0557	502.8111	541.2492	572.5336	660.8106	809.2321	893.4477	913.7712	948.7882	968.0006	981.7987	1057.5213	1123.9145	1153.6273	1198.0566	1242.0886	1316.1567	1368.8079	1401.8537	1507.69	1676.4636	1843.8678	2357.978	2971.846	3088.5073	3151.3775	3225.659
O=CC1(COC=N1)C#N	O=C[C@]1(COC=N1)C#N	
InChI=1S/C5H4N2O2/c6-1-5(2-8)3-9-4-7-5/h2,4H,3H2	InChI=1S/C5H4N2O2/c6-1-5(2-8)3-9-4-7-5/h2,4H,3H2/t5-/m0/s1
