18
gdb 99396	4.63257	0.60447	0.57009	3.2849	70.01	-0.2474	-0.0382	0.2092	1884.0636	0.144061	-476.22368	-476.213336	-476.212392	-476.261142	34.873	
O	 0.0848878759	 0.9136284344	 0.9659970019	-0.416463
C	-0.0263538639	-0.1675130484	 0.091048343	-0.127185
C	-1.4711975856	-0.6175290384	-0.0630359662	 0.346707
O	-2.3366165863	-0.0882166453	 0.602856243	-0.320052
C	-1.798105586	-1.7095349554	-1.0810893251	-0.273318
N	-3.1383305561	-2.2531366809	-0.9941599456	-0.285861
C	-3.363073004	-3.1405682675	 0.1418718462	-0.233134
C	-4.6724279309	-3.8966294238	-0.0248341731	 0.151201
O	-5.3252029993	-4.3286175542	 0.8875239833	-0.233327
H	-0.8093537185	 1.0514527671	 1.3165640867	 0.296514
H	 0.374334768	 0.0842252329	-0.904354074	 0.119171
H	 0.5565338471	-1.0372891843	 0.4428477392	 0.117524
H	-1.6439166793	-1.2658279173	-2.0763021817	 0.139932
H	-1.0614893225	-2.5186533947	-1.0010275035	 0.130402
H	-3.7907307742	-1.4761272128	-0.9386685842	 0.236219
H	-2.5702123726	-3.9040589545	 0.1428775594	 0.131807
H	-3.3512885902	-2.6592554533	 1.130053904	 0.132858
H	-4.9727211316	-4.0328860438	-1.0884823132	 0.087005
43.0704	50.4018	69.324	86.4112	114.0272	209.7689	241.0731	288.9222	353.2543	393.07	476.2236	491.3207	515.1316	675.7539	722.2965	792.8731	832.8313	890.5571	1002.8811	1027.0558	1058.2538	1073.777	1135.0851	1149.4931	1183.9862	1220.1739	1253.7054	1303.3419	1315.4177	1341.744	1368.6096	1404.202	1445.2848	1451.9329	1469.0544	1490.2524	1520.3195	1793.8582	1842.1632	2884.5096	2958.704	2989.1591	2996.1728	3006.2917	3036.9382	3060.1461	3513.2891	3693.2083
OCC(=O)CNCC=O	OCC(=O)CNCC=O	
InChI=1S/C5H9NO3/c7-2-1-6-3-5(9)4-8/h2,6,8H,1,3-4H2	InChI=1S/C5H9NO3/c7-2-1-6-3-5(9)4-8/h2,6,8H,1,3-4H2
