18
gdb 71033	3.95971	1.64531	1.37548	0.7183	75.24	-0.2248	0.059	0.2838	963.3953	0.147914	-401.819788	-401.812813	-401.811869	-401.850652	28.886	
C	-0.0026975385	 1.4518018312	-0.1628211822	-0.532534
C	 0.0140641424	-0.0265124856	 0.0415488833	 0.396698
O	 0.6544400894	-0.8696600849	-1.0470755364	-0.426023
C	 0.2085187983	-1.8190765335	-0.0430878713	 0.473113
C	 0.1047201759	-3.2573698689	 0.3854264891	-0.372729
C	-0.6401017965	-2.8720084263	 1.7468812845	-0.152311
N	-0.775878633	-1.3566500259	 1.7637998469	-0.178056
C	 0.5499839025	-0.934861542	 1.1719678179	-0.125806
C	-1.0917309389	-1.0723784681	 0.3127707524	-0.125844
H	 1.0156225775	 1.8422200212	-0.2483954443	 0.137791
H	-0.5501016133	 1.7100843791	-1.0740641956	 0.137861
H	-0.4925445908	 1.9333758312	 0.6890299991	 0.139861
H	-0.5101258903	-3.8814393752	-0.2670144931	 0.115423
H	 1.0646455285	-3.7495324464	 0.5571744688	 0.115423
H	-1.6357276593	-3.3182617219	 1.803712858	 0.114454
H	-0.0692710074	-3.1870535696	 2.6235461548	 0.114456
H	 1.4810886746	-0.8804508692	 1.7368376267	 0.084109
H	-2.083136721	-1.179059415	-0.1285078385	 0.084114
200.9501	219.1715	230.8256	267.7501	419.0884	462.3074	531.7087	572.9626	677.0846	705.8963	754.879	779.0825	813.998	835.2215	845.5977	860.2552	886.7005	929.5039	953.8375	1017.6231	1034.9046	1059.2223	1091.5589	1107.5545	1134.4823	1161.7163	1164.3279	1214.3934	1215.6161	1237.7383	1253.3595	1265.6093	1329.2794	1396.0077	1443.0204	1474.4206	1487.5485	1490.1188	1511.6088	3042.2061	3065.3666	3073.2961	3111.5329	3113.2804	3117.0281	3118.2988	3119.6318	3129.2213
CC12OC34CCN(C13)C24	C[C@@]12O[C@@]34CCN([C@H]13)[C@@H]24	
InChI=1S/C7H9NO/c1-6-4-7(9-6)2-3-8(4)5(6)7/h4-5H,2-3H2,1H3	InChI=1S/C7H9NO/c1-6-4-7(9-6)2-3-8(4)5(6)7/h4-5H,2-3H2,1H3/t4-,5+,6-,7+
