12
gdb 25145	3.76886	1.2974	0.96515	4.051	73.07	-0.2695	-0.0854	0.1841	1104.987	0.078793	-431.694437	-431.68729	-431.686346	-431.726371	26.32	
O	-0.0521679066	-0.0592602482	 0.004249464	-0.359071
C	 0.0162873739	 1.1441379664	 0.0089939217	 0.434849
N	-1.179975021	 1.9205938424	 0.0298794222	-0.31531
C	-1.1615999796	 3.264896485	 0.0359353868	 0.112531
N	-0.0680540746	 3.9632206882	 0.0233698679	-0.301128
C	 1.0838949216	 3.1994426856	 0.0029348138	 0.159285
N	 1.1778147371	 1.8947699275	-0.0043971971	-0.336477
C	 2.3015947005	 3.9531513457	-0.010712006	 0.277126
C	 3.3196455613	 4.5922743731	-0.0220861018	-0.317107
H	-2.047920229	 1.4017308478	 0.0399933487	 0.280895
H	-2.125194096	 3.7697254137	 0.052265412	 0.154024
H	 4.2234830624	 5.1511604928	-0.0322443521	 0.210384
113.3335	141.716	151.6971	326.5466	436.6749	451.8507	499.9648	569.8761	588.276	649.7189	683.3629	699.3452	762.0993	777.8555	825.7062	928.1688	974.741	993.5249	1142.2635	1159.8013	1305.7929	1403.1633	1456.8769	1544.4881	1656.3103	1837.8822	2240.8103	3164.0982	3498.5484	3601.4276
O=C1NC=NC(=N1)C#C	O=c1[nH]cnc(n1)C#C	
InChI=1S/C5H3N3O/c1-2-4-6-3-7-5(9)8-4/h1,3H,(H,6,7,8,9)	InChI=1S/C5H3N3O/c1-2-4-6-3-7-5(9)8-4/h1,3H,(H,6,7,8,9)
