17
gdb 101316	2.82373	0.98497	0.92481	1.0461	66.14	-0.2591	-0.0453	0.2138	1319.8572	0.133089	-496.067705	-496.058242	-496.057298	-496.103004	33.378	
O	 0.1195672913	 1.332435953	-0.0568705958	-0.422768
C	-0.0214490646	-0.0600983851	 0.2095499967	-0.105258
C	-1.3983424564	-0.5421736794	-0.2639433638	 0.075686
O	-1.6087373867	-0.1484163691	-1.607929944	-0.450305
C	-1.4891606311	-2.0476955606	-0.221940815	 0.053298
O	-1.6617290317	-2.6491654196	 1.0495331458	-0.231923
C	-2.7345810241	-2.7865911906	 0.1223214586	-0.04628
C	-4.0149965034	-2.0685247359	 0.4126922133	 0.14855
O	-4.1413522186	-1.1815919173	 1.2181157644	-0.249181
H	-0.4272471401	 1.8127606438	 0.574760133	 0.294038
H	 0.7653787037	-0.5524615748	-0.3717965571	 0.117006
H	 0.1271702417	-0.2965546188	 1.2706385278	 0.118963
H	-2.1652268854	-0.1209865424	 0.402509184	 0.096923
H	-1.1896737747	 0.7197099872	-1.6865421792	 0.29228
H	-0.795548878	-2.5618192849	-0.8902703611	 0.109722
H	-2.8566507303	-3.7836905474	-0.3027393087	 0.111043
H	-4.8694927715	-2.4230869381	-0.205137019	 0.088207
40.5279	89.4651	122.1621	138.6978	220.4204	245.4159	287.0437	347.7787	388.132	420.4524	480.5866	532.7854	580.9814	755.0825	807.5003	890.6436	904.8161	942.8158	970.1897	1015.8497	1076.3131	1080.2895	1111.2001	1130.5932	1139.9994	1208.8648	1268.5982	1284.7157	1348.9522	1363.0366	1387.2739	1408.3231	1419.1697	1426.115	1487.0723	1495.3892	1824.2679	2890.8467	3007.8134	3027.3707	3087.2139	3096.8833	3112.421	3749.685	3805.69
OCC(O)C1OC1C=O	OC[C@@H](O)[C@H]1O[C@H]1C=O	
InChI=1S/C5H8O4/c6-1-3(8)5-4(2-7)9-5/h2-6,8H,1H2	InChI=1S/C5H8O4/c6-1-3(8)5-4(2-7)9-5/h2-6,8H,1H2/t3-,4+,5-/m1/s1
