17
gdb 16587	3.11377	1.89396	1.53447	2.3557	69.22	-0.2385	-0.023	0.2155	901.7822	0.141193	-363.8404	-363.832521	-363.831577	-363.872388	29.323	
C	-0.0870779789	 1.5604710396	 0.0124703893	-0.429003
C	 0.0767686434	 0.0565904714	-0.0619714238	 0.022466
C	 0.5927266379	-0.7101902544	-1.2393069477	-0.192309
N	 1.3250561296	-0.6851142661	 0.1191164889	-0.14058
C	 2.4428066365	 0.1309176	-0.4976601779	-0.078283
C	 3.778902179	-0.5938926961	-0.4336569309	-0.398371
C	 1.7522420432	-0.0022449505	-1.8712019164	 0.412045
O	 2.1176544303	 0.1546554806	-3.0018999337	-0.317629
H	 0.6187107056	 2.1116994672	-0.6104607922	 0.137378
H	-1.0949871728	 1.8267574666	-0.3203922493	 0.133332
H	 0.0223411112	 1.9040725633	 1.0468085309	 0.13253
H	-0.7326131812	-0.4736764899	 0.4390363362	 0.109349
H	 0.086403956	-1.585841165	-1.6315796076	 0.118479
H	 2.5271223308	 1.1364231059	-0.0767513117	 0.097747
H	 3.6883369273	-1.6138165272	-0.817831481	 0.130398
H	 4.5187871097	-0.0614867836	-1.0378791947	 0.134259
H	 4.1352567623	-0.6467391018	 0.5986675316	 0.128192
109.7104	163.7592	199.4443	211.488	226.37	328.2845	383.5623	447.6096	555.3819	638.0761	665.8758	759.2655	805.3903	836.6388	890.7289	906.4784	979.9207	1036.7257	1048.5316	1073.7361	1090.4808	1121.8033	1133.641	1176.0133	1245.5566	1255.4012	1310.8271	1338.5504	1404.8293	1411.4382	1427.631	1484.2259	1492.1182	1495.6385	1499.7651	1882.105	3042.9032	3045.8605	3071.8388	3104.027	3111.3773	3123.0077	3125.4997	3138.7237	3176.4948
CC1C2N1C(C)C2=O	C[C@H]1[C@@H]2N1[C@@H](C)C2=O	
InChI=1S/C6H9NO/c1-3-5-6(8)4(2)7(3)5/h3-5H,1-2H3	InChI=1S/C6H9NO/c1-3-5-6(8)4(2)7(3)5/h3-5H,1-2H3/t3-,4-,5-,7?/m0/s1
