19
gdb 91461	2.4603	1.96175	1.44004	2.1401	74.8	-0.2369	0.0033	0.2402	965.8287	0.159948	-423.024036	-423.016311	-423.015367	-423.055517	31.803	
C	-0.0620983582	 1.5476142616	 0.0045150823	-0.408043
C	 0.0430831947	 0.0295488667	 0.03903671	 0.140504
O	 0.7985578205	-0.4597020293	-1.0808722368	-0.296031
C	 1.8669575737	-1.2860788678	-0.5324204841	 0.057022
C	 2.2740210834	-0.4804998633	 0.7079772123	-0.291705
C	 0.8226185483	-0.5584024904	 1.2663327255	 0.349705
O	 0.4893990044	 0.1060581929	 2.4517234014	-0.506857
C	 0.5823385236	-2.0621367775	 1.1898941397	-0.164754
C	 1.2206145376	-2.5105617599	 0.1047192908	-0.080935
H	 0.9199075041	 2.0237928424	 0.0673560326	 0.115684
H	-0.5341145422	 1.8628807557	-0.9305697204	 0.120526
H	-0.671869693	 1.8984549316	 0.8414586944	 0.127997
H	-0.96566677	-0.4032467699	 0.0054312129	 0.072269
H	 2.5969994701	-1.4496438635	-1.3227241697	 0.076703
H	 2.9952432754	-0.9911377865	 1.3488233613	 0.094089
H	 2.6114366239	 0.5313293497	 0.4743978271	 0.105842
H	 0.9742194555	-0.3048929389	 3.1746503045	 0.280344
H	-0.0996470553	-2.5918870215	 1.8441932063	 0.102981
H	 1.1851164736	-3.5002121419	-0.3318614901	 0.104661
172.1563	209.1457	247.1484	270.9704	356.7715	369.1199	416.2038	436.937	529.5216	548.4417	629.8272	676.6802	726.4739	775.2933	803.4047	858.9216	898.4956	905.8222	929.3338	940.6266	965.3648	1030.5179	1046.7647	1079.578	1091.0049	1118.569	1134.4402	1158.0326	1222.5727	1254.2817	1269.7321	1294.6913	1338.1818	1352.1507	1360.7492	1391.2332	1404.7541	1482.3447	1488.8625	1496.5174	1636.3056	3009.4061	3046.4537	3074.8543	3119.0889	3127.139	3136.5378	3139.7692	3196.6299	3224.553	3816.6767
CC1OC2CC1(O)C=C2	C[C@H]1O[C@H]2C[C@]1(O)C=C2	
InChI=1S/C7H10O2/c1-5-7(8)3-2-6(4-7)9-5/h2-3,5-6,8H,4H2,1H3	InChI=1S/C7H10O2/c1-5-7(8)3-2-6(4-7)9-5/h2-3,5-6,8H,4H2,1H3/t5-,6-,7-/m1/s1
