18
gdb 18498	5.11819	1.17155	1.11663	2.9214	72.12	-0.2458	-0.0193	0.2265	1099.8082	0.153467	-347.782003	-347.774291	-347.773346	-347.815023	28.456	
O	-0.5851221829	 0.9514980127	 0.8055897201	-0.240092
C	 0.0486677456	 1.0834209714	-0.2099153065	 0.16315
C	 1.4005519648	 1.7495100291	-0.3122466858	-0.291543
C	 1.3431454611	 2.9919807796	-1.212616456	 0.00951
C	 0.6004291072	 4.2769705875	-0.6994743343	-0.252702
C	 1.8782456009	 5.0887172966	-0.9470978341	-0.033505
C	 3.0035032899	 4.5356678864	-0.1233630455	-0.274579
C	 2.6204048956	 3.8251208047	-1.3936230249	-0.067591
H	-0.3554424761	 0.7188757092	-1.1850708095	 0.067543
H	 1.7456540652	 1.9949460224	 0.6955949173	 0.118273
H	 2.1014576557	 1.0266614851	-0.7544140259	 0.113965
H	 0.9427539445	 2.7060802048	-2.1911222314	 0.079217
H	-0.2365151789	 4.5586351443	-1.3416015585	 0.106253
H	 0.2493582494	 4.2509400382	 0.3375879211	 0.107972
H	 1.915684239	 6.0815699049	-1.3776521555	 0.087993
H	 3.9369181867	 5.0868647571	-0.1771533923	 0.113007
H	 2.8085516886	 4.0960171272	 0.8520497922	 0.108925
H	 3.3291113637	 3.6976043888	-2.2036693707	 0.084203
47.7701	74.7872	158.5485	227.7502	329.1267	401.746	452.8624	540.6403	662.7023	773.2311	790.3979	805.3811	861.6109	899.8962	934.8927	959.6393	991.73	1008.3991	1028.7203	1062.3836	1064.4151	1087.2952	1094.7713	1130.8645	1155.1618	1202.5409	1227.6902	1239.8332	1265.676	1281.7918	1308.2563	1369.0219	1380.0948	1429.5808	1463.0789	1483.6448	1500.1516	1833.0813	2841.9165	3013.1577	3044.5477	3049.3487	3100.8979	3110.3646	3112.4191	3173.1488	3187.1354	3201.9461
O=CCC1CC2CC12	O=CC[C@H]1C[C@H]2C[C@@H]12	
InChI=1S/C7H10O/c8-2-1-5-3-6-4-7(5)6/h2,5-7H,1,3-4H2	InChI=1S/C7H10O/c8-2-1-5-3-6-4-7(5)6/h2,5-7H,1,3-4H2/t5-,6-,7-/m0/s1
