18
gdb 125493	4.72076	1.05252	0.90971	2.7945	78.48	-0.2472	0.0136	0.2608	1304.4508	0.14925	-398.148301	-398.140041	-398.139097	-398.182083	30.161	
C	-0.1462034041	 1.3444514386	 0.0078382476	-0.48032
C	 0.0843485819	-0.129099043	 0.0387464934	 0.349992
N	-0.2038576895	-0.9170988619	-0.9871010466	-0.296765
N	 0.1464547315	-2.150738332	-0.5294687525	 0.039774
C	 0.6316561481	-2.0360358506	 0.7256010715	 0.003008
N	 0.6037440682	-0.7812459078	 1.1246476178	-0.316742
C	 0.0711222804	-3.3067193746	-1.3697154345	 0.042733
C	-0.5287484651	-4.5695170741	-0.8080109797	-0.284005
C	-1.2783159397	-3.767671471	-1.8412569567	-0.251909
H	 0.7897591852	 1.8853455014	 0.1791336786	 0.138365
H	-0.5567217714	 1.6414468113	-0.958610562	 0.13748
H	-0.8422883335	 1.6443670564	 0.7975638725	 0.137753
H	 0.9817307219	-2.8849141464	 1.2935138612	 0.139484
H	 0.9049426861	-3.4001618443	-2.0586552172	 0.117759
H	-0.0745949611	-5.5096970219	-1.098040972	 0.127109
H	-0.8968362245	-4.540831244	 0.210756862	 0.130337
H	-2.1328146776	-3.1904023855	-1.5106315556	 0.139132
H	-1.3490176369	-4.1503227907	-2.8523281077	 0.126815
47.6673	97.2917	120.2267	175.0638	272.1405	331.6895	381.4377	490.3896	603.2945	664.4739	719.438	720.7632	784.8205	836.2204	867.1658	907.3947	967.3289	990.0409	1038.8419	1051.3862	1064.7241	1069.4602	1082.353	1101.4608	1127.4616	1195.2213	1213.8272	1249.4963	1274.5044	1341.7463	1396.1235	1408.3233	1453.5848	1464.967	1478.1455	1481.2352	1495.2954	1504.2833	1570.5468	3045.8253	3101.5224	3143.744	3145.7068	3149.6057	3154.6033	3229.8948	3245.8378	3256.7103
CC1=NN(C=N1)C1CC1	Cc1nn(cn1)C1CC1	
InChI=1S/C6H9N3/c1-5-7-4-9(8-5)6-2-3-6/h4,6H,2-3H2,1H3	InChI=1S/C6H9N3/c1-5-7-4-9(8-5)6-2-3-6/h4,6H,2-3H2,1H3
