21
gdb 6529	3.17609	1.53372	1.24272	2.8201	75.52	-0.2309	0.0658	0.2967	1073.7521	0.186231	-366.240842	-366.230831	-366.229887	-366.275089	36.632	
C	-0.018323821	 1.485756707	-0.1025131435	-0.431717
C	-0.0327282394	-0.0249492336	 0.065883294	 0.266538
C	-1.2246641935	-0.6538944835	-0.6393134199	-0.463406
N	 1.2901206433	-0.6741887066	-0.0420885449	-0.399446
C	 0.6061551075	-0.6558787389	 1.2712608854	 0.312385
C	 1.288734203	 0.1751297961	 2.3464008323	-0.456549
C	 0.0734158915	-1.9630864986	 1.8250923402	-0.162776
O	 1.1897666643	-2.7438739747	 2.2449684308	-0.417074
H	 0.8788539264	 1.9381785945	 0.3184432348	 0.126967
H	-0.0504126469	 1.7420217666	-1.167509783	 0.114865
H	-0.8942946295	 1.9395474226	 0.375236164	 0.109756
H	-1.2324413952	-0.3426894724	-1.6904621032	 0.121106
H	-1.2103428504	-1.7453530848	-0.6244627503	 0.113955
H	-2.1702280419	-0.3213940385	-0.1955544127	 0.119641
H	 1.2007574164	-1.5962598278	-0.4651265289	 0.222238
H	 1.8880635113	 0.9765197805	 1.9155590398	 0.125791
H	 0.5537020085	 0.6137031724	 3.0316485243	 0.104413
H	 1.9545220638	-0.4684168691	 2.9274530838	 0.137124
H	-0.5961786402	-1.7477159432	 2.6736759008	 0.087982
H	-0.5117787138	-2.5095442873	 1.0756536415	 0.080682
H	 0.8550125258	-3.5180216807	 2.7067540047	 0.287523
73.9418	129.0297	149.4052	159.0517	179.8475	245.0435	261.655	302.8049	345.3902	378.4869	392.1446	427.271	494.0387	556.329	693.9885	721.4177	851.7893	933.0105	950.2662	959.5627	989.5147	1036.247	1051.2483	1066.7852	1079.4865	1104.2268	1160.6005	1185.4805	1242.0478	1261.2311	1292.3816	1325.5792	1406.1557	1410.5154	1422.8307	1424.9396	1457.5003	1475.3947	1484.0792	1487.9268	1503.1787	1506.771	1516.1604	1523.13	2971.2425	3026.5814	3033.0876	3038.1797	3039.7249	3082.1436	3089.031	3109.3436	3123.1449	3145.1297	3158.0436	3481.1217	3831.1803
CC1(C)NC1(C)CO	CC1(C)N[C@]1(C)CO	
InChI=1S/C6H13NO/c1-5(2)6(3,4-8)7-5/h7-8H,4H2,1-3H3	InChI=1S/C6H13NO/c1-5(2)6(3,4-8)7-5/h7-8H,4H2,1-3H3/t6-/m1/s1
