14
gdb 131363	3.55639	1.61127	1.10962	3.4701	69.37	-0.1936	0.0337	0.2273	998.1335	0.104529	-432.891054	-432.884092	-432.883148	-432.922042	27.564	
O	 0.0867355021	 1.3512201106	 0.0127728143	-0.426237
C	 0.0689984629	 0.0039981604	 0.0564739122	 0.280531
N	 0.0837897268	-0.7209219855	-1.0453762837	-0.346533
N	 0.1368772631	-2.0504471975	-0.6263464431	-0.376372
C	 0.0305005099	-2.0821721968	 0.7311578797	 0.443602
C	 0.0379673574	-0.7892179855	 1.2370133188	 0.192957
C	 0.031339857	-0.9043916207	 2.6657229404	-0.352936
C	 0.017588391	-2.2450604195	 2.9461966762	-0.057275
N	 0.0301906705	-2.9819104974	 1.7536301766	-0.412796
H	 0.1095154661	 1.5990913396	-0.9206856754	 0.30041
H	-0.2136803	-2.7333392831	-1.2766940172	 0.261906
H	 0.0355293581	-0.1106251285	 3.3952829324	 0.107248
H	-0.0045480829	-2.7617294497	 3.8922940939	 0.122125
H	-0.008439732	-3.9828533863	 1.6889379149	 0.263371
193.5022	242.5244	290.1268	314.2724	338.5979	416.2399	465.7301	551.7333	601.7277	640.1483	643.1722	693.1417	702.3237	767.154	820.2796	837.4379	929.6101	1042.5734	1068.6176	1086.0047	1170.9812	1208.92	1269.3853	1320.5678	1371.1667	1406.539	1490.6547	1528.6367	1564.442	1588.2139	1648.5111	3255.237	3274.0996	3659.2808	3695.0748	3786.1218
OC1=NNC2=C1C=CN2	Oc1n[nH]c2c1cc[nH]2	
InChI=1S/C5H5N3O/c9-5-3-1-2-6-4(3)7-8-5/h1-2H,(H3,6,7,8,9)	InChI=1S/C5H5N3O/c9-5-3-1-2-6-4(3)7-8-5/h1-2H,(H3,6,7,8,9)
