18
gdb 106223	3.45631	1.50529	1.28138	2.4117	75.05	-0.2204	0.0003	0.2206	1016.1576	0.149544	-401.901764	-401.894486	-401.893542	-401.933513	29.25	
O	 0.0567304198	 1.276599458	 0.3863529197	-0.41878
C	-0.0111797563	-0.0258419965	-0.1635116713	-0.149648
C	-1.4284572165	-0.5471102439	-0.1570167837	 0.261136
C	-2.5076087014	 0.2013179122	-0.868374117	-0.129661
C	-3.6655765245	-0.0199611263	-0.2468159301	-0.090581
C	-3.4205619055	-1.0352467912	 0.84079246	-0.062538
C	-3.121010986	-2.4199397739	 0.1729417338	-0.24941
C	-1.6629531576	-1.9952180972	 0.1972259124	-0.08457
N	-1.9320633152	-0.9000635183	 1.1982682371	-0.1793
H	-0.3951460983	 1.2270407153	 1.2376104317	 0.291738
H	 0.3629254443	 0.0493064627	-1.1905422018	 0.108379
H	 0.6402740679	-0.7290736846	 0.3777672226	 0.089882
H	-2.3306669569	 0.8041369821	-1.7491531131	 0.110844
H	-4.6478538436	 0.325963545	-0.5425629243	 0.106247
H	-4.0891121045	-1.0226863918	 1.7003601833	 0.083205
H	-3.2814277232	-3.2403206649	 0.8758778441	 0.117211
H	-3.601571756	-2.6486369824	-0.7823606501	 0.102863
H	-0.8233790366	-2.6765475443	 0.3068073765	 0.092983
76.4091	158.9401	294.5951	340.1258	356.5356	435.3735	456.4409	550.801	647.6605	723.5779	734.1942	758.9153	815.7125	845.9934	871.7181	901.5652	912.8275	937.703	967.3406	988.9296	1011.1494	1029.9168	1072.3011	1078.2719	1109.9143	1135.7712	1195.2183	1209.6152	1235.0125	1259.5746	1263.1815	1334.4101	1353.7219	1376.7766	1395.1598	1433.8383	1488.0441	1499.8617	1660.1236	2987.4726	3056.6308	3068.4211	3114.5432	3123.9246	3145.0941	3208.0359	3234.1739	3786.5056
OCC12C=CC3CC1N23	OC[C@@]12C=C[C@H]3C[C@@H]1N23	
InChI=1S/C7H9NO/c9-4-7-2-1-5-3-6(7)8(5)7/h1-2,5-6,9H,3-4H2	InChI=1S/C7H9NO/c9-4-7-2-1-5-3-6(7)8(5)7/h1-2,5-6,9H,3-4H2/t5-,6-,7-,8?/m0/s1
