17
gdb 34124	3.52305	1.47484	1.37545	3.3149	76.84	-0.2448	0.0188	0.2636	970.8664	0.139345	-380.827503	-380.820968	-380.820024	-380.858322	26.872	
N	 0.0550106184	-1.1231007473	-0.0751337503	-0.344045
C	 0.0409685577	 0.0330617949	-0.0293233408	 0.151041
C	 0.0230143284	 1.4710991971	 0.0218731285	 0.188072
C	-0.4414534558	 2.2626815384	 1.2815460229	-0.271607
C	 0.3649377271	 3.3871188098	 0.6369517265	-0.006062
C	 1.3610408252	 2.3618286567	 0.0308305787	-0.080659
C	 1.3395579071	 3.2103431915	-1.2309819117	-0.189992
N	-0.0777853149	 3.5921597702	-0.8495964356	-0.147404
C	-0.7457183364	 2.2788611566	-1.0624861351	-0.202638
H	-1.5165608813	 2.366954673	 1.446441529	 0.118468
H	 0.0542937424	 1.9196097678	 2.1928883788	 0.125309
H	 0.6431051489	 4.3147944477	 1.1306618509	 0.095135
H	 2.234214045	 1.9520613157	 0.5372640177	 0.093019
H	 1.9948858215	 4.08198788	-1.1499345801	 0.118579
H	 1.4468663578	 2.7559390338	-2.2200465276	 0.112696
H	-0.5976604221	 1.9257125489	-2.0842726332	 0.122449
H	-1.8159778688	 2.3294024852	-0.8524024586	 0.117637
144.8139	160.3186	373.5057	433.6897	486.9087	531.6281	544.6861	566.1449	653.7106	705.3237	795.0321	826.2162	854.6654	879.3517	910.7155	943.319	978.397	985.9969	1014.8569	1028.2394	1043.3908	1097.8606	1126.8458	1157.6038	1168.2384	1193.7223	1198.3195	1240.7626	1250.75	1257.2756	1278.8409	1290.6638	1330.7364	1486.9835	1503.8414	1528.8844	2346.8375	3053.3735	3064.979	3077.2043	3110.2901	3125.6935	3126.8167	3132.8969	3155.0236
N#CC12CC3C1CN3C2	N#C[C@@]12C[C@H]3[C@@H]1CN3C2	
InChI=1S/C7H8N2/c8-3-7-1-6-5(7)2-9(6)4-7/h5-6H,1-2,4H2	InChI=1S/C7H8N2/c8-3-7-1-6-5(7)2-9(6)4-7/h5-6H,1-2,4H2/t5-,6-,7+/m0/s1
