17
gdb 47847	2.32405	1.76259	1.27013	4.5534	70.17	-0.2357	-0.0044	0.2313	1016.5093	0.137929	-455.163555	-455.155695	-455.154751	-455.196117	29.675	
O	-0.06582634	-0.1031251206	 0.0158466353	-0.35732
C	-0.0051233535	 1.1099180977	-0.0126687975	 0.354775
C	-1.2905223028	 1.9584468741	 0.090420927	-0.251467
N	-1.7176703925	 2.906151364	-0.9275594669	-0.202011
C	-1.0860696337	 3.1490201793	-1.9857860674	 0.084848
O	 0.0865739061	 2.5689260722	-2.4083231908	-0.220445
C	 1.2796720647	 3.2154213414	-1.9637801502	-0.07166
C	 1.4139038306	 3.1182639682	-0.4369993062	-0.202673
N	 1.2083409318	 1.7643882533	 0.0356644721	-0.27808
H	-2.0950643458	 1.2267844075	 0.204232904	 0.15377
H	-1.2499065879	 2.5154344671	 1.0368281616	 0.134603
H	-1.4960078852	 3.8671676119	-2.6995473118	 0.121135
H	 2.0941188543	 2.6801850834	-2.4596152331	 0.123916
H	 1.3028880647	 4.2656294896	-2.2884940006	 0.10821
H	 2.4079497434	 3.4611325644	-0.1328498372	 0.121537
H	 0.6909143765	 3.7835167122	 0.0447748389	 0.137869
H	 1.9818620095	 1.1222364444	-0.0804001272	 0.242996
87.2374	110.4983	233.1783	252.7738	301.9935	352.1142	431.5945	472.5971	508.4354	573.5385	641.7154	690.2294	730.7944	852.7816	865.3669	915.5532	944.2353	969.6496	987.4247	1025.1143	1069.9244	1116.5477	1173.7044	1249.8444	1278.4139	1283.5362	1340.6799	1357.5471	1392.7837	1396.0728	1409.3378	1454.9071	1466.7377	1487.2482	1496.5135	1765.0082	1788.9403	3008.925	3020.769	3057.0925	3089.0784	3095.6614	3107.5743	3110.9547	3579.2607
O=C1CN=COCCN1	O=C1CN=COCCN1	
InChI=1S/C5H8N2O2/c8-5-3-6-4-9-2-1-7-5/h4H,1-3H2,(H,7,8)/b6-4-	InChI=1S/C5H8N2O2/c8-5-3-6-4-9-2-1-7-5/h4H,1-3H2,(H,7,8)/b6-4-
