17
gdb 102072	2.18187	1.22481	0.82825	2.458	70.98	-0.2514	-0.0293	0.2221	1335.2787	0.131198	-458.915314	-458.904748	-458.903804	-458.951803	36.552	
O	 0.1261789828	 1.4133928486	-0.218031036	-0.414334
C	 0.0502968108	 0.0227169062	 0.0374794257	-0.080328
C	-1.4005075459	-0.4950421993	 0.0341855409	-0.137243
C	-2.0818057261	-0.0596301948	-1.252314578	 0.179538
O	-3.0515876425	 0.6473530213	-1.3104677153	-0.246412
C	-1.4218507821	-2.0429265381	 0.1725834049	-0.061745
O	-0.679971377	-2.4767594572	 1.3081696997	-0.418188
C	-2.7904298473	-2.5603605358	 0.1879441007	 0.28195
C	-3.9223842605	-2.9609209083	 0.2395153182	-0.416862
H	-0.3463308245	 1.8773231846	 0.4810195136	 0.288928
H	 0.6145408318	-0.4569699841	-0.7712160685	 0.11643
H	 0.5324941706	-0.2594827475	 0.9809014467	 0.116947
H	-1.9634468472	-0.0565022995	 0.8672064514	 0.089066
H	-1.5930911881	-0.4490361506	-2.1765440026	 0.076348
H	-0.8880873077	-2.4685380174	-0.6874811242	 0.126307
H	-1.2428974672	-2.3662788697	 2.082753423	 0.290171
H	-4.9218314798	-3.3203173583	 0.2686519798	 0.209429
48.6655	67.2294	86.5883	116.7512	191.3653	224.7807	241.8431	276.6887	306.6611	346.2207	375.2464	428.8972	528.7493	578.2134	590.0926	640.0369	687.1558	871.6059	891.634	972.8782	1021.7155	1062.4479	1066.9592	1106.0057	1122.2004	1185.3515	1223.956	1280.2163	1325.3099	1350.8801	1378.465	1411.2264	1419.3629	1431.8662	1507.6895	1839.7768	2235.4815	2854.1837	3024.1654	3029.163	3045.1023	3074.9552	3500.3034	3806.506	3814.674
OCC(C=O)C(O)C#C	OC[C@@H](C=O)[C@@H](O)C#C	
InChI=1S/C6H8O3/c1-2-6(9)5(3-7)4-8/h1,3,5-6,8-9H,4H2	InChI=1S/C6H8O3/c1-2-6(9)5(3-7)4-8/h1,3,5-6,8-9H,4H2/t5-,6+/m1/s1
