19
gdb 86949	3.23065	0.92101	0.81218	3.2152	72.99	-0.2481	-0.0243	0.2238	1437.0329	0.156312	-460.151506	-460.141621	-460.140677	-460.188048	34.6	
C	 0.1640447135	 1.4562600599	-0.1700130448	-0.406511
C	 0.0089796147	-0.0217499418	 0.1209021744	 0.115641
O	 0.807776459	-0.8571906593	-0.7557286244	-0.317165
C	 1.3729551787	-1.5902801036	 0.3555198957	 0.08409
C	 2.8968767677	-1.6580343271	 0.3058080405	-0.291029
C	 3.3736132355	-2.3923855579	-0.9312665036	 0.155092
O	 4.0866094863	-3.3629741435	-0.9122702574	-0.238752
C	 0.6987459434	-0.6295439897	 1.3774409201	 0.051823
O	 1.5178901179	 0.1989736025	 2.1571523645	-0.416672
H	 1.2087969286	 1.7786680253	-0.110812515	 0.104042
H	-0.1888070729	 1.6729107489	-1.1826047945	 0.137266
H	-0.4238015534	 2.0503302739	 0.5363786247	 0.132625
H	-1.0502193797	-0.3062432307	 0.0548688065	 0.081803
H	 0.9591523534	-2.607527264	 0.3996520284	 0.088343
H	 3.3044021811	-0.6389191769	 0.266537723	 0.099076
H	 3.2896051541	-2.1594377399	 1.1946024273	 0.131892
H	 3.0050907693	-1.9639055301	-1.8878432743	 0.098078
H	 0.0244556872	-1.1201592064	 2.0812376347	 0.102358
H	 2.0758149357	 0.7296896804	 1.5794854341	 0.288002
29.3673	60.2066	62.7638	156.0374	190.9913	251.0728	259.9779	292.7074	385.8881	419.597	459.7408	539.9154	562.3137	775.4897	802.9538	821.4341	871.2611	890.605	952.531	1014.4198	1032.7511	1078.4218	1101.4733	1118.1869	1138.1315	1178.9623	1216.4945	1240.2673	1255.6156	1276.1722	1296.8473	1342.1215	1361.9625	1399.2277	1414.4385	1423.4136	1442.9716	1446.5633	1479.1642	1499.6226	1830.7169	2908.3903	3002.5706	3008.555	3025.0546	3038.1555	3102.6587	3107.3135	3109.79	3119.5664	3818.1286
CC1OC(CC=O)C1O	C[C@H]1O[C@@H](CC=O)[C@H]1O	
InChI=1S/C6H10O3/c1-4-6(8)5(9-4)2-3-7/h3-6,8H,2H2,1H3	InChI=1S/C6H10O3/c1-4-6(8)5(9-4)2-3-7/h3-6,8H,2H2,1H3/t4-,5+,6+/m1/s1
