16
gdb 7262	3.52338	1.30863	1.06223	1.54	62.67	-0.2653	-0.0571	0.2083	1090.783	0.126803	-420.902648	-420.893559	-420.892615	-420.937621	31.225	
C	 0.218030677	 1.5528467255	 0.392326225	-0.410341
C	-0.0476893135	 0.0991222146	-0.0402580117	 0.055786
O	 0.4806658469	-0.1457408783	-1.3144140989	-0.434167
C	 0.5451967525	-0.8814398444	 0.9665928364	 0.347928
O	 1.4482042396	-1.6209780273	 0.6371146143	-0.328931
C	 0.0091992682	-0.8759037424	 2.3911120058	-0.372011
C	 1.0646856966	-0.3225220092	 3.3447139787	 0.162164
O	 0.8754661467	 0.6023626258	 4.0867403696	-0.223574
H	 1.2950126559	 1.740006585	 0.4382004689	 0.132608
H	-0.2122770308	 2.2234036959	-0.3549100769	 0.14233
H	-0.2233285341	 1.7865167082	 1.36561385	 0.131936
H	-1.1381100834	-0.0692646258	-0.0512137936	 0.096179
H	 1.1652691274	-0.8217180149	-1.1884975598	 0.293865
H	-0.912723775	-0.3032682808	 2.4999058878	 0.136348
H	-0.1651635505	-1.9223845992	 2.6688756173	 0.158663
H	 2.0401735164	-0.8492663126	 3.2895149871	 0.111215
31.6326	69.6943	97.2252	184.9509	233.1503	247.3493	327.5108	378.6792	402.4218	447.9339	475.8227	629.367	666.7418	786.7052	855.2144	920.2886	978.4548	1020.3664	1061.7314	1092.6099	1101.0741	1176.233	1200.0443	1271.4387	1293.2663	1347.9326	1399.4523	1406.9795	1432.6695	1453.9238	1487.5804	1498.2771	1779.9469	1840.1808	2921.69	2964.2963	3044.619	3048.9506	3120.8838	3131.4764	3138.8121	3692.6085
CC(O)C(=O)CC=O	C[C@@H](O)C(=O)CC=O	
InChI=1S/C5H8O3/c1-4(7)5(8)2-3-6/h3-4,7H,2H2,1H3	InChI=1S/C5H8O3/c1-4(7)5(8)2-3-6/h3-4,7H,2H2,1H3/t4-/m1/s1
