19
gdb 44440	2.90584	1.7325	1.52949	3.0726	77.22	-0.2321	-0.0063	0.2258	943.0637	0.163046	-385.932911	-385.926197	-385.925253	-385.96392	28.029	
O	 0.0071385645	 0.0107283292	-0.4168137151	-0.334884
C	-0.0030322838	 1.1643847195	-0.0612992493	 0.40885
C	-1.2919714398	 1.9085910339	 0.3031916319	-0.339608
C	-1.0327194097	 3.3467214341	 0.7168582421	-0.043006
C	 0.0734435622	 4.1311852583	 0.043016892	-0.053493
C	 1.0301463138	 3.2978587411	-0.7966837905	-0.242441
C	 1.2397556954	 2.0275201401	 0.0713996428	-0.129063
C	 1.2757731584	 2.5876810766	 1.5192125609	-0.242437
C	 0.2263642856	 3.6887897392	 1.4854968394	-0.053515
H	-1.9647413335	 1.8553635775	-0.561709695	 0.132822
H	-1.7887643758	 1.3448916658	 1.1025235598	 0.132788
H	-1.9179598363	 3.9148463627	 0.9848955719	 0.086011
H	-0.0975107468	 5.1693331149	-0.2166477092	 0.082571
H	 0.6464212957	 3.058975422	-1.7950151496	 0.107958
H	 1.982932466	 3.8230445456	-0.9292300607	 0.106523
H	 2.118839049	 1.4424804489	-0.2012507289	 0.083902
H	 1.0774424809	 1.8128877413	 2.2684353529	 0.10794
H	 2.2655005686	 3.0060662485	 1.7350423348	 0.106507
H	 0.1697612856	 4.3961031007	 2.3045854898	 0.082575
89.7448	257.6137	324.4822	416.157	435.2694	454.1191	598.5265	600.8384	630.5071	715.6234	776.7819	785.3334	826.9964	903.7639	905.4582	919.8309	921.435	985.7661	1013.4666	1032.5469	1039.4589	1050.9957	1054.6482	1102.5715	1117.3354	1161.7597	1178.286	1208.0518	1222.4439	1239.6307	1291.1882	1306.8958	1321.5627	1340.452	1347.295	1356.4681	1429.0875	1449.9426	1492.9571	1509.0432	1825.6318	3031.3801	3032.8477	3035.566	3064.4703	3071.5443	3072.1683	3110.574	3153.948	3172.5484	3183.7833
O=C1CC2C3CC1CC23	O=C1C[C@@H]2[C@@H]3C[C@H]1C[C@H]23	
InChI=1S/C8H10O/c9-8-3-7-5-1-4(8)2-6(5)7/h4-7H,1-3H2	InChI=1S/C8H10O/c9-8-3-7-5-1-4(8)2-6(5)7/h4-7H,1-3H2/t4-,5+,6-,7+
