21
gdb 91403	2.91916	1.52436	1.35591	1.5728	81.55	-0.2346	0.0128	0.2473	1059.2835	0.185457	-387.108833	-387.101379	-387.100435	-387.140215	31.12	
C	 0.0803508497	 1.607342891	 0.010155032	-0.403253
C	 0.0212416619	 0.0774315788	 0.0023987108	 0.03866
C	 0.6456027288	-0.5104815573	-1.2883468668	-0.203933
C	 0.9212188574	-2.0230064228	-1.1366137467	 0.022761
O	 1.8090841879	-2.1748462644	-0.0243176094	-0.254129
C	 0.9394969829	-2.0350714426	 1.1038885473	 0.022764
C	 0.6665284948	-0.5242931444	 1.2763787525	-0.203933
C	-0.309011393	-2.7837484904	 0.6545211984	-0.081128
C	-0.3198527149	-2.7765983384	-0.6750263332	-0.081126
H	 1.1168933026	 1.963950564	 0.0036099138	 0.114197
H	-0.4211649475	 2.0277103088	-0.8686497669	 0.108184
H	-0.4067081398	 2.0181792268	 0.901508801	 0.108184
H	-1.0356225834	-0.2130328626	 0.0094581848	 0.077029
H	-0.0090869091	-0.3100110371	-2.1455556508	 0.088737
H	 1.6075582838	-0.026093479	-1.4948947621	 0.101465
H	 1.4055816057	-2.4377365572	-2.0254224589	 0.076054
H	 1.4382622148	-2.4593051957	 1.9801576515	 0.076055
H	 1.6317658332	-0.0420701125	 1.472413065	 0.101464
H	 0.0259258685	-0.3331283598	 2.1462632426	 0.088737
H	-1.0687919651	-3.1642223164	 1.3248569705	 0.101606
H	-1.090500199	-3.1499021889	-1.3369352653	 0.101606
145.8422	237.1412	262.4382	303.3376	337.9551	409.362	409.4196	437.6345	617.8842	628.3939	723.0973	768.6755	816.1633	833.8915	842.3914	885.5856	887.0836	927.3118	951.9552	957.2908	973.1213	1002.743	1009.0613	1069.9188	1076.1112	1106.2955	1140.9347	1154.2656	1185.8812	1262.4938	1279.3423	1281.0939	1293.2563	1326.1007	1337.6424	1352.4586	1370.5321	1386.9256	1389.57	1414.17	1470.5264	1480.7228	1496.6967	1502.2652	1664.1814	3020.7606	3022.7469	3026.5466	3029.9288	3065.5508	3067.4209	3069.6343	3071.256	3091.6554	3092.7487	3206.4641	3232.2157
CC1CC2OC(C1)C=C2	C[C@H]1C[C@H]2O[C@@H](C1)C=C2	
InChI=1S/C8H12O/c1-6-4-7-2-3-8(5-6)9-7/h2-3,6-8H,4-5H2,1H3	InChI=1S/C8H12O/c1-6-4-7-2-3-8(5-6)9-7/h2-3,6-8H,4-5H2,1H3/t6-,7-,8+
