14
gdb 50259	3.11423	1.36268	1.09184	4.3643	63.82	-0.2611	-0.0238	0.2373	1060.4284	0.101327	-473.838258	-473.830944	-473.83	-473.870977	26.293	
O	-0.1047361949	 0.0805010344	-0.0036968083	-0.307857
C	-0.0041152143	 1.2689887623	 0.1994823517	 0.136859
N	 1.1786103931	 1.9437880643	 0.1607973682	-0.045151
C	 2.4874184453	 1.4995602271	-0.3439986245	-0.198333
C	 2.8807674285	 2.9885312742	-0.4674767935	 0.091938
O	 2.5195508019	 3.5551579329	-1.7592218782	-0.249018
C	 1.2797219049	 3.9697896664	-1.3084268218	 0.466322
O	 0.4411603287	 4.5502648584	-1.9110822368	-0.306645
C	 1.4920960201	 3.3753447572	 0.1008863395	-0.224251
H	-0.8525174965	 1.9301895569	 0.4646126933	 0.090422
H	 3.0595419319	 0.9331566861	 0.3965807413	 0.138658
H	 2.450996065	 0.950370365	-1.2880913423	 0.153175
H	 3.8411016637	 3.3513064065	-0.1136080892	 0.124413
H	 1.2708023526	 3.9804330082	 0.9793708907	 0.129467
52.1136	125.8977	198.7074	255.0742	320.4585	390.5167	475.7929	522.8343	679.1517	783.8436	788.3518	845.119	872.0046	916.2763	975.2662	993.4789	1031.987	1044.379	1094.5769	1150.892	1154.1541	1195.6651	1229.8186	1259.8275	1308.6239	1325.4798	1385.9366	1433.67	1497.5362	1798.2775	1947.8617	2946.1969	3059.9019	3118.5029	3126.8326	3172.5332
O=CN1CC2OC(=O)C12	O=CN1C[C@H]2OC(=O)[C@@H]12	
InChI=1S/C5H5NO3/c7-2-6-1-3-4(6)5(8)9-3/h2-4H,1H2	InChI=1S/C5H5NO3/c7-2-6-1-3-4(6)5(8)9-3/h2-4H,1H2/t3-,4+/m1/s1
