16
gdb 127831	4.50524	1.0482	0.85558	0.8083	75.45	-0.2348	-0.0309	0.2039	1300.7825	0.124817	-434.068236	-434.059831	-434.058887	-434.101539	30.785	
C	-0.0622995419	 1.4257082243	 0.0334170739	-0.340279
N	-0.0483605454	-0.0242135744	 0.030726198	-0.284961
C	 0.5755206438	-0.6029072187	-0.9258494362	 0.273364
N	 1.2698665385	-0.0069440092	-1.9523759682	-0.570459
C	 0.6027344534	-2.0805438689	-0.9331144732	 0.388077
N	 1.1582435717	-2.737843702	-1.9271141275	-0.220565
O	 1.0053018388	-4.0799766476	-1.628259223	-0.17049
C	 0.3569904843	-4.1880789305	-0.4531313529	 0.08196
C	 0.0689274653	-2.963817511	 0.0475675532	-0.337987
H	 0.9524386743	 1.8541756391	 0.0427124344	 0.117101
H	-0.5844776705	 1.842446841	-0.8444740809	 0.107729
H	-0.5869233863	 1.7839821751	 0.922263328	 0.125428
H	 1.0566812167	 0.9495368627	-2.1792975916	 0.257082
H	 1.5429062214	-0.5985434281	-2.7219844905	 0.274416
H	 0.1777617187	-5.1957862469	-0.1122980819	 0.155179
H	-0.4373455728	-2.6933484949	 0.9567894184	 0.144404
74.9846	142.5737	145.3127	164.1996	301.8049	310.1963	383.7661	398.7202	479.7623	503.174	611.2554	652.7347	737.5896	778.794	824.6132	887.2366	922.001	959.3296	973.865	1028.1336	1054.9342	1101.4524	1111.5536	1148.4159	1201.6787	1233.6941	1357.6797	1431.7789	1461.5067	1485.228	1502.9309	1514.6351	1597.3503	1633.6619	1722.3845	2957.3071	3005.2239	3102.9788	3269.5639	3309.9288	3591.1188	3713.1089
CN=C(N)C1=NOC=C1	CN=C(N)c1nocc1	
InChI=1S/C5H7N3O/c1-7-5(6)4-2-3-9-8-4/h2-3H,1H3,(H2,6,7)	InChI=1S/C5H7N3O/c1-7-5(6)4-2-3-9-8-4/h2-3H,1H3,(H2,6,7)
