21
gdb 59383	4.20176	0.82422	0.78756	3.0406	79.54	-0.2452	-0.0326	0.2125	1527.7992	0.179844	-424.224042	-424.21402	-424.213076	-424.260033	35.793	
C	 0.4090314189	 1.414485151	-0.1354570081	-0.391792
C	 0.1964792194	-0.0911807176	 0.0860625866	 0.012716
C	 0.596891677	-0.4950293848	 1.5112050822	-0.398122
C	-1.2463627767	-0.459364174	-0.2597943432	 0.162503
C	-1.7582099259	-1.8988986548	-0.0215485745	-0.342687
C	-2.7477492936	-1.2320740511	 0.9708455161	 0.065302
O	-2.2119070126	 0.0730030424	 0.6926303558	-0.310882
C	-4.205936563	-1.3475872047	 0.5759857143	 0.137945
O	-4.9681376546	-2.1545231593	 1.040108953	-0.24167
H	 1.4419216412	 1.7016350372	 0.0834064724	 0.112404
H	 0.191119133	 1.7016282317	-1.1695506795	 0.110507
H	-0.2498139309	 1.9929766192	 0.5202565194	 0.135533
H	 0.8274807458	-0.6406657077	-0.6286745591	 0.075851
H	-0.0433464742	 0.0053971161	 2.2436078814	 0.133829
H	 0.5240702598	-1.5746329555	 1.6755334229	 0.109807
H	 1.6322263427	-0.2047854161	 1.7132720222	 0.11471
H	-1.4754930108	-0.0869501643	-1.2676451309	 0.077399
H	-2.216908633	-2.3772550573	-0.8889099698	 0.120558
H	-1.0543459288	-2.5927779755	 0.4374055529	 0.126007
H	-2.6306649288	-1.5246960595	 2.0201962082	 0.104511
H	-4.5103153349	-0.6209465754	-0.2126290323	 0.085571
42.9845	58.4491	87.4063	163.9328	212.4408	228.8678	251.1902	288.2461	357.433	372.0188	429.1281	477.7865	606.8831	723.5306	827.693	866.2996	900.2148	920.4508	927.9907	956.7032	968.1201	1028.7722	1037.7976	1043.9874	1092.9094	1126.426	1148.741	1178.9169	1206.955	1251.0657	1255.0257	1297.0145	1310.2389	1330.1667	1367.2754	1385.3434	1399.3058	1403.6406	1424.9749	1482.6688	1491.325	1498.1432	1509.1979	1515.3736	1833.5375	2872.4433	2994.6439	3007.1901	3032.9414	3040.5997	3050.0941	3083.7392	3101.1073	3104.062	3109.0452	3117.031	3142.7649
CC(C)C1CC(O1)C=O	CC(C)[C@H]1C[C@@H](O1)C=O	
InChI=1S/C7H12O2/c1-5(2)7-3-6(4-8)9-7/h4-7H,3H2,1-2H3	InChI=1S/C7H12O2/c1-5(2)7-3-6(4-8)9-7/h4-7H,3H2,1-2H3/t6-,7-/m1/s1
