19
gdb 83435	3.1447	1.28007	1.14622	1.7261	75.51	-0.2295	0.06	0.2895	1143.6115	0.159118	-422.961622	-422.953398	-422.952454	-422.99454	31.928	
O	 0.1595396323	 1.3443982031	 0.1017398139	-0.438692
C	 0.0820343441	-0.0461707217	 0.1098560932	 0.07511
C	-0.4497671707	-0.845313663	 1.2912407748	-0.237406
C	-1.6300030575	-0.087558685	 1.8719370755	-0.106512
O	-2.2413518457	 0.0632829478	 0.553053179	-0.340034
C	-1.2175148297	-0.7655202197	-0.037170421	 0.403185
C	-1.638101489	-1.7290305218	-1.0780319036	-0.114456
C	-2.9516354275	-2.4633159748	-0.9620861884	-0.268451
C	-2.788748548	-1.3779428336	-1.9948463315	-0.266826
H	-0.7526784153	 1.6597366451	 0.0434022799	 0.295258
H	 0.9321496357	-0.5066716909	-0.3866999609	 0.105162
H	 0.0834808425	-1.6615380796	 1.7606381891	 0.099227
H	-2.2763043185	-0.6882846796	 2.5188613498	 0.115527
H	-1.4245030315	 0.8821720092	 2.3383853136	 0.11357
H	-0.8089732246	-2.2699903592	-1.5240098615	 0.088659
H	-2.9883105158	-3.4953425171	-1.2923618311	 0.110194
H	-3.5712118917	-2.2366567823	-0.1020755619	 0.122532
H	-3.2987678602	-0.4394918134	-1.8117712324	 0.130853
H	-2.7086238187	-1.6563298535	-3.0394970966	 0.113099
71.8978	140.9023	173.2201	225.4572	273.6911	346.3604	378.7394	431.3561	541.2788	592.5147	707.3022	784.0979	786.8952	803.5815	836.0343	872.3204	918.8478	946.0189	965.5464	978.5951	994.337	1013.1693	1049.7145	1066.8072	1086.1243	1101.6788	1111.7036	1125.429	1165.6242	1198.3851	1201.3013	1216.1822	1254.882	1300.4093	1325.8153	1356.1673	1408.3583	1458.8526	1482.3309	1507.9748	1519.3189	3037.3191	3090.3396	3138.2213	3142.2915	3151.0244	3156.3889	3198.8098	3221.8979	3236.3722	3752.7604
OC1C2COC12C1CC1	O[C@H]1[C@H]2CO[C@@]12C1CC1	
InChI=1S/C7H10O2/c8-6-5-3-9-7(5,6)4-1-2-4/h4-6,8H,1-3H2	InChI=1S/C7H10O2/c8-6-5-3-9-7(5,6)4-1-2-4/h4-6,8H,1-3H2/t5-,6+,7-/m1/s1
