19
gdb 121043	3.87044	0.85223	0.7334	2.9149	72.88	-0.2717	0.0046	0.2763	1562.9407	0.158618	-460.213027	-460.203958	-460.203013	-460.247833	32.414	
C	 0.0090025837	 1.568867355	 0.0234653395	-0.382041
C	 0.0579420765	 0.0391703173	 0.0016607537	-0.176946
C	 0.7607902279	-0.5080985558	-1.2454800848	-0.199812
C	 0.8108325156	-2.0197581166	-1.287314885	 0.216309
O	 1.4207647602	-2.4635333368	-2.4819138836	-0.256504
C	 2.1168419795	-3.6531057597	-2.1727745063	-0.230606
C	 2.3735472996	-3.5628829604	-0.67258697	 0.402461
O	 3.0857137585	-4.2303124569	 0.0145947652	-0.323176
O	 1.6113442198	-2.5373700997	-0.2113257604	-0.226733
H	 1.017270038	 1.9967202637	 0.0093404948	 0.119879
H	-0.529647379	 1.9626113429	-0.8455957444	 0.115944
H	-0.4953549489	 1.9347803195	 0.9226352442	 0.117743
H	 0.575383583	-0.3295880332	 0.8941560029	 0.123194
H	-0.9628807543	-0.362198491	 0.0493529483	 0.099019
H	 0.2437221497	-0.1777203965	-2.154516296	 0.115246
H	 1.7904586465	-0.1376599334	-1.3074797489	 0.113858
H	-0.1943431826	-2.4613964531	-1.1807800773	 0.08737
H	 1.5279960646	-4.5571893394	-2.3923592292	 0.132707
H	 3.0524186719	-3.6973951059	-2.7344352628	 0.152085
66.1751	87.5766	103.5732	148.464	186.8823	247.5237	307.4082	368.0398	490.9989	527.7463	560.3955	670.2095	719.8913	756.7293	838.551	902.659	910.2535	961.5491	982.8826	1035.6296	1051.819	1084.1544	1113.5873	1149.1379	1166.526	1207.9866	1227.1438	1260.4308	1293.8515	1327.7855	1340.4903	1377.7293	1397.8968	1414.4103	1433.3908	1475.2901	1493.7382	1495.2191	1499.8187	1510.8325	1902.9285	2966.2662	2996.4834	3023.7841	3031.6247	3038.9105	3064.1272	3086.3431	3102.4605	3107.7817	3110.1019
CCCC1OCC(=O)O1	CCC[C@H]1OCC(=O)O1	
InChI=1S/C6H10O3/c1-2-3-6-8-4-5(7)9-6/h6H,2-4H2,1H3	InChI=1S/C6H10O3/c1-2-3-6-8-4-5(7)9-6/h6H,2-4H2,1H3/t6-/m0/s1
