18
gdb 86685	2.57405	1.34354	0.9841	4.2579	75.35	-0.228	0.0239	0.2519	1202.1089	0.146465	-439.070147	-439.06122	-439.060276	-439.10457	32.561	
O	 0.1875896588	 1.171440411	-0.5752778493	-0.423074
C	 0.0538381172	-0.0812298333	 0.0437273675	-0.005075
C	 0.0186865012	-0.1161822317	 1.6089552644	-0.198825
N	-1.3260807029	-0.6863927196	 1.5178362637	-0.099939
C	-2.1059171169	-1.2216498285	 2.4795278913	 0.123666
O	-1.8130185567	-1.2625355775	 3.6588293816	-0.338691
C	-1.3992910416	-0.5720994345	 0.0731354868	 0.384106
C	-2.53463562	-0.0167511273	-0.7290604723	-0.310103
C	-2.1163281878	-1.4675499953	-0.8879557476	-0.335348
H	 1.1240676311	 1.3822166573	-0.6424262849	 0.292389
H	 0.7473176952	-0.8180348648	-0.380312585	 0.084527
H	 0.7416385212	-0.7671045114	 2.1082743963	 0.12449
H	 0.0391146294	 0.8806461255	 2.0607668624	 0.124945
H	-3.0551103765	-1.626758591	 2.073186329	 0.064481
H	-3.4646410083	 0.1878765306	-0.2094965721	 0.124928
H	-2.2822525442	 0.6878518228	-1.5133889546	 0.138958
H	-1.5925348603	-1.7620573716	-1.7921430354	 0.123507
H	-2.7699831187	-2.2317103007	-0.4806145017	 0.125058
38.6841	91.4313	158.8228	214.5186	235.9431	263.6818	317.3403	359.6869	415.5843	491.1622	562.3554	605.7481	764.7353	795.3985	847.2573	874.463	913.9608	958.3457	980.0304	1026.4924	1037.3261	1052.5977	1071.9398	1114.0185	1147.2331	1174.3613	1188.7742	1205.9068	1231.6918	1286.5012	1307.5143	1376.7511	1403.067	1438.8878	1455.0376	1464.1501	1493.7874	1514.2063	1783.9943	2921.986	3023.7252	3047.5263	3103.7613	3126.1864	3137.8186	3210.1986	3231.1819	3824.8151
OC1CN(C=O)C11CC1	O[C@H]1CN(C=O)C21CC2	
InChI=1S/C6H9NO2/c8-4-7-3-5(9)6(7)1-2-6/h4-5,9H,1-3H2	InChI=1S/C6H9NO2/c8-4-7-3-5(9)6(7)1-2-6/h4-5,9H,1-3H2/t5-/m0/s1
