15
gdb 71533	2.61689	1.57656	1.43317	3.9698	70.78	-0.263	-0.0067	0.2563	968.5066	0.111754	-416.708195	-416.700669	-416.699725	-416.740132	28.717	
C	 0.0380499712	 1.459547844	-0.0759237812	-0.530636
C	 0.0368950594	-0.0279529371	-0.0243118818	 0.445523
O	 0.610697894	-0.8124655153	-1.1101014629	-0.339948
C	 0.1250838608	-1.83071781	-0.204585282	 0.036898
C	 0.4821103863	-1.0335319098	 1.08987577	-0.131133
N	-0.8909590071	-1.0726888873	 1.6895994163	-0.37159
C	-1.1646920501	-1.0311168213	 0.2187094665	 0.177589
C	-2.4750570122	-1.0398549382	-0.3689642434	 0.145156
N	-3.5217895981	-1.0501708734	-0.8607599393	-0.339455
H	 1.0636304669	 1.836706594	-0.1272994516	 0.145087
H	-0.5095750638	 1.8128345083	-0.9541306044	 0.1529
H	-0.440936045	 1.8543225461	 0.8244281456	 0.15568
H	 0.2404590939	-2.8815537882	-0.4700793748	 0.117359
H	 1.399924398	-1.0408716291	 1.6751102543	 0.108619
H	-1.0970250243	-2.0035121826	 2.0601980085	 0.227949
118.1425	147.4558	206.0052	245.1145	300.7967	426.7645	481.3615	528.4899	537.2689	643.2535	682.3852	745.2453	785.434	794.4915	837.1275	901.768	944.4066	955.0416	1007.8199	1047.777	1094.0164	1128.0656	1154.3654	1177.868	1220.3409	1262.6766	1285.5317	1299.1108	1370.6606	1422.2529	1473.6739	1485.9009	2349.3203	3046.7244	3122.1373	3127.673	3129.8293	3147.1181	3421.0319
CC12OC3C1NC23C#N	C[C@@]12O[C@H]3[C@@H]1N[C@@]23C#N	
InChI=1S/C6H6N2O/c1-5-3-4(9-5)6(5,2-7)8-3/h3-4,8H,1H3	InChI=1S/C6H6N2O/c1-5-3-4(9-5)6(5,2-7)8-3/h3-4,8H,1H3/t3-,4-,5+,6+/m0/s1
