12
gdb 20509	9.50798	1.0244	0.93014	1.4887	67.7	-0.2597	-0.0421	0.2176	1180.2129	0.083748	-377.497399	-377.49011	-377.489166	-377.531871	24.26	
C	-0.0436150266	 1.4527436302	 0.0105949517	-0.511765
C	-0.0056939532	 0.0009715471	 0.002566149	 0.278162
C	 0.0254496489	-1.2029701536	-0.00403188	-0.062454
C	 0.0527448946	-2.616855275	-0.0117402821	 0.192311
N	 1.1784349015	-3.3007999336	-0.0219214861	-0.180546
O	 0.7489834654	-4.6283050423	-0.026412653	-0.144239
C	-0.5851945523	-4.5926761757	-0.0184777242	 0.072297
N	-1.0907815622	-3.4042827503	-0.0091901211	-0.297499
H	 0.9678225464	 1.8718361153	 0.0030087443	 0.162569
H	-0.5751848778	 1.8357000129	-0.8671889787	 0.161902
H	-0.5580042868	 1.8263590911	 0.9025324035	 0.161903
H	-1.103020588	-5.5407495561	-0.0204557033	 0.16736
6.2537	95.9529	109.7813	301.7778	322.1723	474.8076	483.0889	532.2674	628.2436	775.4232	900.5997	919.1147	959.0797	984.3697	1048.794	1052.295	1058.2148	1140.9518	1303.7319	1345.8251	1410.7464	1471.8591	1471.9071	1515.3163	1575.9506	2376.0339	3032.8974	3096.0246	3101.0796	3266.4439
CC#CC1=NOC=N1	CC#Cc1nocn1	
InChI=1S/C5H4N2O/c1-2-3-5-6-4-8-7-5/h4H,1H3	InChI=1S/C5H4N2O/c1-2-3-5-6-4-8-7-5/h4H,1H3
