17
gdb 36351	5.36757	0.7964	0.75954	2.9607	73.51	-0.2604	0.028	0.2884	1460.894	0.135936	-417.965915	-417.957402	-417.956458	-418.000108	30.488	
N	 0.0046046985	-1.0552409108	-0.7623812899	-0.301418
C	-0.0128022506	 0.0097320379	-0.3149319154	 0.26472
C	-0.0063358772	 1.353418062	 0.2641495161	-0.344722
C	 1.3812137437	 1.9757254589	 0.2495864966	-0.093435
N	 1.7568727317	 2.6799133175	-0.9875167873	-0.358783
C	 1.5758228944	 3.4403356557	 0.2362071846	 0.268009
C	 0.6036835689	 4.6016725968	 0.4251835613	-0.132391
O	 1.5873512115	 5.3080155324	 1.2149613859	-0.271076
C	 2.5843833133	 4.2860762133	 1.0106157269	-0.146619
H	-0.6944222801	 1.9869028544	-0.3044473419	 0.16142
H	-0.3849487437	 1.2927407361	 1.2914217874	 0.155679
H	 2.1449588066	 1.384337557	 0.7517452924	 0.110042
H	 2.7409618402	 2.5477732626	-1.2080661935	 0.242134
H	 0.3469876418	 5.1341656188	-0.4986887735	 0.118085
H	-0.3105322805	 4.3972765087	 0.9965663427	 0.107257
H	 2.9541689998	 3.8698130386	 1.9560392885	 0.112323
H	 3.4355616317	 4.6506595101	 0.4185004891	 0.108772
50.4514	87.9404	113.2594	187.2457	223.7182	352.9442	387.1324	419.9992	435.504	518.828	612.8102	829.372	840.574	881.5586	926.8091	943.4702	959.7019	983.234	1021.7027	1028.1021	1030.6941	1087.5952	1128.7571	1148.3374	1160.1308	1189.1119	1256.9586	1273.17	1303.7213	1319.3283	1332.8294	1387.3717	1452.0752	1502.8739	1503.5868	1528.5498	2364.7777	2998.6171	3016.8076	3045.2254	3048.1284	3061.8837	3093.0362	3128.0023	3503.1588
N#CCC1NC11COC1	N#CC[C@H]1NC21COC2	
InChI=1S/C6H8N2O/c7-2-1-5-6(8-5)3-9-4-6/h5,8H,1,3-4H2	InChI=1S/C6H8N2O/c7-2-1-5-6(8-5)3-9-4-6/h5,8H,1,3-4H2/t5-/m1/s1
