17
gdb 25795	3.99193	1.07401	0.85174	3.5235	83.87	-0.191	-0.0234	0.1676	1318.7477	0.136497	-418.077447	-418.068405	-418.067461	-418.112892	32.827	
C	 0.0917190216	 1.4916267979	 0.0202663173	-0.489635
C	 0.0091861135	-0.0253715419	-0.0047794935	 0.287189
O	 1.0176910659	-0.7237747521	-0.0280190382	-0.376778
C	-1.3047936533	-0.6324074849	-0.0029510719	 0.221626
C	-2.6061132991	-0.1521066367	 0.0211762418	-0.219341
C	-3.4816339057	-1.2575970273	 0.0144795128	-0.219016
C	-2.6903778294	-2.4052298577	-0.0198585851	 0.349467
N	-3.0537010357	-3.7441573171	-0.1159238534	-0.601723
N	-1.3927046208	-2.018386433	-0.0307756288	-0.334264
H	 1.1408837506	 1.7891015775	 0.0176096362	 0.13715
H	-0.4117604245	 1.9226519987	-0.8514101554	 0.13614
H	-0.3994304992	 1.8935353406	 0.9126970583	 0.134855
H	-2.8908681449	 0.8886862103	 0.0530092445	 0.103034
H	-4.5604620911	-1.2404372764	 0.0372809316	 0.091623
H	-4.0279826611	-3.896706809	 0.1040179012	 0.257608
H	-2.47342294	-4.3725576072	 0.425412307	 0.252576
H	-0.5663311766	-2.592145262	-0.0928972843	 0.269489
11.9382	108.4794	148.4448	155.7786	206.6756	310.5512	330.1254	406.308	528.9349	550.6565	574.9374	609.6312	652.5481	676.2102	701.8093	728.9339	768.7808	848.0313	931.0135	991.9561	1015.0516	1040.4344	1066.1135	1099.6248	1116.1482	1269.5054	1282.8044	1357.8718	1379.969	1419.6644	1469.5064	1476.6914	1486.9276	1565.2175	1618.2328	1659.4865	1718.6495	3041.0128	3103.3537	3152.0125	3241.6353	3256.7343	3543.9918	3642.9285	3649.7291
CC(=O)C1=CC=C(N)N1	CC(=O)c1ccc(N)[nH]1	
InChI=1S/C6H8N2O/c1-4(9)5-2-3-6(7)8-5/h2-3,8H,7H2,1H3	InChI=1S/C6H8N2O/c1-4(9)5-2-3-6(7)8-5/h2-3,8H,7H2,1H3
