12
gdb 12171	3.75602	1.56693	1.2186	3.0838	57.29	-0.2692	-0.0101	0.2591	930.6054	0.081525	-418.450271	-418.442609	-418.441665	-418.482628	26.897	
O	-0.0094236645	 1.257785804	 0.3392270131	-0.416776
C	 0.1037228594	-0.0933015129	-0.0011450803	-0.079686
C	-1.2609730854	-0.7945368023	-0.2163547653	-0.055228
O	-0.8640611981	-1.11837226	-1.6058993828	-0.2436
C	 0.3117337452	-0.4241579006	-1.491203979	 0.427362
O	 1.116719436	-0.1945421469	-2.3337837291	-0.319293
C	-1.5717401358	-1.9647574143	 0.5707114838	 0.32451
C	-1.8276483833	-2.9260639786	 1.2436174624	-0.425755
H	 0.8429786653	 1.6803816152	 0.1840017161	 0.307289
H	 0.7777367565	-0.654298387	 0.6585303771	 0.122743
H	-2.0832949721	-0.0751446659	-0.2353066906	 0.143178
H	-2.0592937633	-3.7784952406	 1.8341649245	 0.215255
82.763	130.5111	161.0422	217.9262	267.9992	361.0859	438.4983	492.758	568.6433	643.3279	690.4675	716.5832	751.5389	888.7789	895.2408	996.2246	1060.4708	1124.2176	1149.156	1187.8041	1254.0253	1310.5206	1351.615	1419.219	1943.353	2246.6763	3033.7615	3090.9353	3500.0728	3809.9242
OC1C(OC1=O)C#C	O[C@H]1[C@@H](OC1=O)C#C	
InChI=1S/C5H4O3/c1-2-3-4(6)5(7)8-3/h1,3-4,6H	InChI=1S/C5H4O3/c1-2-3-4(6)5(7)8-3/h1,3-4,6H/t3-,4-/m0/s1
