23
gdb 107563	2.63458	1.30381	1.17004	0.2428	90.26	-0.2332	0.0327	0.2659	1222.3228	0.207434	-351.168662	-351.159928	-351.158984	-351.201763	34.736	
C	-1.3538193915	-0.4174627679	-0.43701415	-0.379392
C	 0.0972948036	-0.0563021139	-0.0935740616	-0.260581
C	 0.5281805806	-0.4450685814	 1.3138277783	 0.367071
C	 1.9681266197	-0.8617052887	 1.5111949587	-0.343697
C	 0.869578249	-1.8974062329	 1.5726296186	-0.053316
C	 0.5206244278	-2.5614093489	 2.8926404069	-0.276049
C	 0.2086764486	-1.5849049739	 3.9935378878	-0.061732
C	-0.0668741126	-0.297870625	 3.7908835231	-0.050043
C	-0.1161061203	 0.3589335917	 2.4382956487	-0.33522
H	-2.0697418795	 0.0962381386	 0.21250378	 0.117043
H	-1.5911065563	-0.1389833536	-1.468645763	 0.110082
H	-1.5255011814	-1.4939207266	-0.3316371195	 0.115795
H	 0.7635213366	-0.5488057538	-0.812535277	 0.09061
H	 0.2495640343	 1.0233650537	-0.2318168818	 0.091329
H	 2.6265295066	-0.8589695552	 0.64848781	 0.100561
H	 2.4500795604	-0.5881398627	 2.4446973596	 0.110417
H	 0.8000496568	-2.5580293224	 0.7117898431	 0.073271
H	-0.346937626	-3.2231100263	 2.748603085	 0.108046
H	 1.3387732875	-3.2251734593	 3.2072232587	 0.102626
H	 0.199199399	-1.9816346109	 5.0059222738	 0.081652
H	-0.2994675603	 0.339602844	 4.6408748567	 0.081601
H	 0.3532318153	 1.3525023397	 2.4915995816	 0.101357
H	-1.169513508	 0.5566331557	 2.1913106423	 0.108569
97.3378	109.6241	173.3405	227.7265	276.3196	330.9845	369.6027	401.0408	460.809	478.5163	549.2322	665.1784	687.2055	775.1201	787.5677	825.3948	883.5241	899.0705	924.8348	944.6016	963.3821	991.5023	1010.3256	1023.1845	1050.626	1058.9858	1077.5111	1098.1752	1125.1776	1139.0323	1202.94	1221.108	1240.6589	1256.0763	1275.9191	1342.0202	1352.2783	1372.25	1382.9474	1410.1522	1415.8256	1427.6141	1473.2953	1480.1765	1483.5457	1496.4535	1501.7323	1508.1717	1731.0111	2991.3261	2993.2761	3008.7029	3012.4145	3012.7934	3035.8366	3046.4352	3102.7275	3104.6966	3121.865	3131.7038	3140.5736	3164.5738	3207.1364
CCC12CC1CC=CC2	CC[C@]12C[C@H]1CC=CC2	
InChI=1S/C9H14/c1-2-9-6-4-3-5-8(9)7-9/h3-4,8H,2,5-7H2,1H3	InChI=1S/C9H14/c1-2-9-6-4-3-5-8(9)7-9/h3-4,8H,2,5-7H2,1H3/t8-,9+/m1/s1
