21
gdb 61770	2.46028	0.96084	0.72683	2.724	85.78	-0.2482	-0.0197	0.2285	1560.885	0.178221	-387.074009	-387.063116	-387.062172	-387.110704	38.926	
C	-0.0457070146	 1.6185542893	 0.0750521211	-0.4149
C	 0.0309238134	 0.0859433202	 0.0131824832	 0.020276
C	 0.7603281424	-0.3638877665	-1.2709394276	-0.284457
C	-0.0428924758	-0.0727623151	-2.5154770312	 0.158736
O	 0.3438587676	 0.5584720419	-3.4653692322	-0.244523
C	 0.7110745422	-0.5196202061	 1.2771715997	-0.151613
C	 0.0456725067	-0.0716237461	 2.5960296138	-0.404928
C	 0.7347722881	-1.9814240784	 1.2113703363	 0.318997
C	 0.7243792554	-3.1835591212	 1.1719432409	-0.461739
H	 0.9502907553	 2.0544754869	 0.2176258411	 0.1212
H	-0.4462391144	 2.0250924591	-0.8586760952	 0.130931
H	-0.6881574074	 1.9665760874	 0.8869656217	 0.123125
H	-0.9917119093	-0.3159295584	-0.0205669712	 0.086809
H	 1.7400406587	 0.1165932644	-1.3626973136	 0.114189
H	 0.9104408055	-1.4511866205	-1.2311744821	 0.134298
H	-1.0724852123	-0.5054910942	-2.4996941571	 0.0701
H	 1.7523609059	-0.1648478054	 1.2874337511	 0.106706
H	-1.0192389454	-0.3247243927	 2.5972534453	 0.126282
H	 0.5121349892	-0.577633875	 3.4446646304	 0.130458
H	 0.1481463999	 1.0055601279	 2.744374478	 0.122296
H	 0.7299729988	-4.2450996474	 1.1392171877	 0.197756
54.61	64.4824	71.9049	143.1853	196.456	205.0213	215.9414	268.1011	306.2463	344.3067	396.9885	414.767	503.3651	554.8529	561.5992	629.4565	643.2348	777.3226	814.974	886.4817	936.5867	963.0884	975.4221	1031.0916	1054.7468	1101.7888	1132.7157	1158.3257	1166.1461	1223.1706	1266.9922	1311.8115	1327.6273	1363.7571	1366.3282	1406.3829	1418.4767	1430.4446	1463.7945	1490.6803	1495.4638	1498.2859	1513.0172	1833.574	2229.6801	2841.1031	2993.3864	3012.1523	3024.8183	3034.5855	3047.0777	3090.2496	3099.1371	3118.5275	3120.9236	3132.5748	3502.5994
CC(CC=O)C(C)C#C	C[C@@H](CC=O)[C@@H](C)C#C	
InChI=1S/C8H12O/c1-4-7(2)8(3)5-6-9/h1,6-8H,5H2,2-3H3	InChI=1S/C8H12O/c1-4-7(2)8(3)5-6-9/h1,6-8H,5H2,2-3H3/t7-,8-/m0/s1
