17
gdb 50942	2.27904	1.27384	0.92267	5.1452	70.66	-0.2681	-0.0457	0.2224	1268.0624	0.13318	-458.971557	-458.962415	-458.96147	-459.006459	31.909	
O	-0.1915049164	 0.071093331	 0.0595475337	-0.270203
C	-0.0916663341	 1.2515761906	 0.1858992058	 0.189355
O	 0.9812267136	 1.9355744218	-0.2810357939	-0.183339
C	 1.0491828822	 3.3275499352	-0.0122672154	-0.022437
C	 1.2936309314	 3.5842561537	 1.475030894	 0.160608
O	 1.2015247617	 2.7414798246	 2.3253262717	-0.228589
C	 2.1540603836	 3.9451291956	-0.848924162	-0.024122
C	 3.4437362113	 3.2024407708	-1.0925900755	-0.256853
C	 2.47169407	 3.4254292281	-2.2251082041	-0.27304
H	-0.8519336238	 1.9037448858	 0.6511451081	 0.086086
H	 0.0899470587	 3.8124213478	-0.2652497905	 0.112466
H	 1.5543346721	 4.6390480012	 1.7142740598	 0.093467
H	 2.2259931503	 5.0193566744	-0.7045613527	 0.097746
H	 4.3667576214	 3.7704099621	-1.077772826	 0.118011
H	 3.5208441349	 2.1948856336	-0.701671815	 0.144063
H	 1.915906589	 2.5640331267	-2.575134977	 0.138055
H	 2.7221693042	 4.150322887	-2.9912772009	 0.118727
64.7904	84.9841	109.6024	147.163	181.0652	218.6958	285.6757	336.6083	396.3337	525.0728	633.4008	676.0519	787.3311	826.9322	850.5936	860.5013	918.0846	1021.8438	1030.9561	1047.9494	1063.9954	1071.5494	1094.8281	1133.9378	1169.9105	1177.8551	1201.5396	1236.1137	1283.4481	1347.7056	1400.078	1412.546	1435.9788	1462.2809	1503.5693	1840.6991	1875.9936	2891.4572	2956.7683	2983.1197	3143.9866	3145.4395	3151.6977	3229.0519	3242.0087
O=COC(C=O)C1CC1	O=CO[C@@H](C=O)C1CC1	
InChI=1S/C6H8O3/c7-3-6(9-4-8)5-1-2-5/h3-6H,1-2H2	InChI=1S/C6H8O3/c7-3-6(9-4-8)5-1-2-5/h3-6H,1-2H2/t6-/m0/s1
