19
gdb 103398	2.34524	1.55054	1.40345	1.3517	76.8	-0.2368	0.0033	0.2401	1059.0184	0.158002	-419.155094	-419.146073	-419.145129	-419.188482	33.741	
C	-0.1529290087	 1.322210484	 0.0933747037	-0.2636
O	 0.1282870577	-0.0707490402	 0.0634547244	-0.289466
C	 0.7040383357	-0.5485493587	-1.1326101942	 0.339309
C	 2.0888830517	 0.0292909501	-1.4153670563	-0.463487
C	 0.6426371653	-2.0787670636	-1.2135198167	-0.067378
C	-0.7441169262	-2.5521627565	-1.2276615052	-0.251742
N	-0.1822694625	-2.02965092	-2.5130628476	-0.177962
C	-0.2028551943	-0.5848808419	-2.3768465371	 0.324565
N	-0.6998021564	 0.3133097588	-3.1019472762	-0.540286
H	 0.762044163	 1.9260022739	 0.1603691223	 0.109712
H	-0.7229818516	 1.6370929258	-0.7881255134	 0.146731
H	-0.7484972234	 1.4946735002	 0.9928065051	 0.125874
H	 2.7321430317	-0.1087110171	-0.5404488712	 0.125503
H	 2.5465755563	-0.4724694025	-2.2725517514	 0.131898
H	 2.029198542	 1.0949409793	-1.6479138288	 0.140033
H	 1.500470631	-2.7363974089	-1.1389318209	 0.108024
H	-0.9165381665	-3.6227148786	-1.2650100579	 0.133461
H	-1.5102706409	-1.9732322853	-0.7219383406	 0.141903
H	-1.2091398439	-0.1023795685	-3.887964128	 0.226909
106.9826	126.4201	159.8225	209.1986	223.262	244.2253	299.0914	317.2137	395.5261	484.3218	513.7535	659.2505	679.642	721.2497	771.6467	836.9079	886.7692	920.1955	942.9538	968.6824	996.1202	1047.5172	1083.8823	1115.1099	1141.7674	1149.9801	1174.0692	1184.1424	1212.6364	1231.5706	1255.1563	1294.0572	1371.7887	1399.9954	1475.9536	1483.1603	1487.0582	1499.9907	1503.2921	1515.2384	1802.8813	3007.581	3043.2374	3075.4333	3117.6819	3122.1076	3128.569	3129.4345	3190.2275	3221.8147	3426.1712
COC1(C)C2CN2C1=N	CO[C@@]1(C)[C@H]2CN2[C]1[NH]	
InChI=1S/C6H10N2O/c1-6(9-2)4-3-8(4)5(6)7/h4,7H,3H2,1-2H3	InChI=1S/C6H10N2O/c1-6(9-2)4-3-8(4)5(6)7/h4,7H,3H2,1-2H3/t4-,6+,8?/m1/s1
