21
gdb 113559	2.84945	1.02044	0.92958	1.9964	79.96	-0.2492	0.0673	0.3164	1364.9401	0.181246	-424.188883	-424.179177	-424.178233	-424.223683	36.074	
O	-0.0921957891	 1.3402211032	-0.4233253244	-0.418316
C	-0.0328543212	 0.0522702438	 0.178364654	-0.102203
C	-1.4074045068	-0.5554366725	 0.1245209869	-0.030527
C	-1.8723443101	-1.2621243739	-1.1275907578	-0.361871
C	-1.597685188	-2.0479304165	 0.1183235709	 0.315547
C	-0.5426252968	-3.1259468859	 0.4180716213	-0.310701
C	-1.4183072889	-3.572381255	 1.6258377897	-0.251611
C	-2.6034967958	-2.7614507638	 1.0238349082	 0.06924
O	-3.3416961373	-1.9056835143	 1.8654609	-0.429879
H	 0.766695473	 1.7588211901	-0.3124009349	 0.282757
H	 0.6836159451	-0.5973853839	-0.3503019804	 0.077918
H	 0.3036536468	 0.1235128467	 1.2258231943	 0.084257
H	-2.1622191855	 0.0021245332	 0.6703200912	 0.107928
H	-2.9047671674	-1.1340921246	-1.4381634793	 0.109662
H	-1.1644679549	-1.3468693533	-1.9471680772	 0.107287
H	-0.4867290561	-3.8869130958	-0.3664930255	 0.101959
H	 0.4723106697	-2.7929504683	 0.6465061929	 0.102715
H	-1.5610231917	-4.6440563592	 1.7843701701	 0.089903
H	-1.0883426527	-3.1071404961	 2.5582625768	 0.108628
H	-3.2742689258	-3.4096659668	 0.439540888	 0.063297
H	-4.0275541564	-2.4213671171	 2.3001601953	 0.284012
69.7387	88.2254	144.8504	150.3874	218.7938	234.7103	262.481	304.7838	397.6564	421.0622	479.1626	531.1771	566.4013	715.8022	783.1157	854.6941	868.7931	899.106	904.6351	936.585	949.8051	1024.6792	1059.2236	1068.2624	1077.6372	1094.6862	1120.0566	1149.3387	1167.5963	1182.8918	1210.9228	1232.1347	1249.4518	1253.942	1264.5513	1282.636	1303.4598	1338.7229	1411.1879	1435.3209	1467.9101	1475.4037	1493.1351	1505.193	1519.8056	2957.1604	2979.6193	2984.2606	3051.5237	3061.1974	3099.1925	3117.0453	3122.0795	3165.0245	3201.6471	3823.2945	3825.7057
OCC1CC11CCC1O	OC[C@H]1C[C@]21CC[C@H]2O	
InChI=1S/C7H12O2/c8-4-5-3-7(5)2-1-6(7)9/h5-6,8-9H,1-4H2	InChI=1S/C7H12O2/c8-4-5-3-7(5)2-1-6(7)9/h5-6,8-9H,1-4H2/t5-,6-,7+/m1/s1
