18
gdb 47511	2.98343	1.40752	1.07382	5.255	73.1	-0.2376	0.0597	0.2973	1127.5717	0.149341	-439.122634	-439.114727	-439.113783	-439.15537	30.585	
O	-0.0073913505	-0.0306221292	 0.1365955808	-0.394269
C	-0.0220493041	 1.1680095654	 0.0061545729	 0.458667
N	-1.1752610055	 1.9107382205	 0.0345929306	-0.426384
C	-1.286982395	 3.3453842391	-0.0141703715	 0.403004
C	-2.1880740148	 3.9724957414	-1.0556893072	-0.306597
C	-2.5836021713	 3.9670445845	 0.4091455516	-0.3391
C	 0.0420455324	 3.9784464101	 0.3224042217	-0.290721
C	 1.1173663309	 3.2497637759	-0.4723958207	-0.069215
O	 1.1418980713	 1.8523872836	-0.1573949677	-0.244747
H	-1.999204129	 1.3535183078	 0.1950520597	 0.254941
H	-1.8884322473	 4.9134971479	-1.5054945015	 0.118048
H	-2.7214878154	 3.3041314555	-1.7224489247	 0.121748
H	-3.3886047159	 3.3050585581	 0.7133158835	 0.119473
H	-2.5479513217	 4.8994511564	 0.9625437874	 0.124599
H	 0.0404266434	 5.0422335443	 0.0698542281	 0.111088
H	 0.2522334376	 3.8815815083	 1.3941046084	 0.121491
H	 0.9482669275	 3.3745239201	-1.550056851	 0.115562
H	 2.1191559373	 3.6160034904	-0.2371645103	 0.122413
71.0682	105.693	220.0331	269.4263	344.5816	394.9842	465.5633	481.6633	498.7838	519.7792	649.4249	746.4439	757.9835	768.5977	855.0883	880.7637	909.5719	941.8644	981.3067	1009.6038	1013.2444	1055.621	1079.3748	1105.7455	1117.0232	1187.5632	1213.0103	1271.4429	1281.156	1324.9294	1345.555	1376.1062	1434.9298	1456.6076	1468.6551	1482.6339	1506.1016	1515.7691	1843.2663	3022.8774	3042.1847	3101.5023	3105.7043	3125.9822	3131.1117	3206.9011	3223.6821	3642.2088
O=C1NC2(CC2)CCO1	O=C1NC2(CC2)CCO1	
InChI=1S/C6H9NO2/c8-5-7-6(1-2-6)3-4-9-5/h1-4H2,(H,7,8)	InChI=1S/C6H9NO2/c8-5-7-6(1-2-6)3-4-9-5/h1-4H2,(H,7,8)
