18
gdb 78631	4.86426	1.06208	0.99169	4.2074	78.55	-0.2311	0.0207	0.2518	1226.2347	0.147251	-401.877169	-401.869443	-401.868499	-401.909534	29.669	
C	-0.1570125089	 1.5870782792	 0.1216053853	-0.417135
C	-0.0301376954	 0.0716477851	 0.1056171197	-0.015255
C	 1.0514138951	-0.5858141399	-0.7837191785	-0.065446
C	 2.1929352451	-0.3047098457	 0.2527755514	-0.01938
C	 0.9129869552	-0.6193940583	 1.1172939624	-0.06692
C	 1.1543141756	-1.8328554828	 0.1517098854	-0.035659
N	 2.6384515358	-1.722432926	 0.2146102627	-0.082557
C	 3.4918338165	-2.3229021513	 1.0990202289	 0.126707
O	 4.4322281847	-1.7787040351	 1.6369872295	-0.320286
H	 0.8193768276	 2.0755797211	 0.2052840816	 0.119838
H	-0.6339584549	 1.9503422817	-0.7950509869	 0.121446
H	-0.7695163877	 1.9205500308	 0.9660676686	 0.12215
H	-1.0152782149	-0.4028372651	 0.0243211404	 0.073441
H	 1.1621168178	-0.5923788301	-1.8684235621	 0.08716
H	 2.8881405178	 0.5273367431	 0.3188830757	 0.11525
H	 0.8667802094	-0.6595532429	 2.2066840441	 0.090029
H	 0.6203947377	-2.780346137	 0.0886532152	 0.099078
H	 3.2749070337	-3.4066805068	 1.2057163866	 0.067539
90.2336	143.9093	209.221	239.3476	255.5548	317.2204	454.4554	551.4667	636.1445	712.9929	754.1503	813.251	820.2539	838.0318	843.833	872.1674	963.9511	1018.6855	1027.8897	1031.8718	1047.134	1056.5457	1108.8969	1122.5437	1127.3687	1140.6989	1173.045	1173.7004	1187.3112	1238.2097	1247.5269	1318.7818	1372.0793	1404.465	1417.5709	1421.5392	1493.0203	1500.0486	1788.182	2912.2801	3031.6681	3036.2212	3096.361	3102.6139	3108.1741	3114.6711	3132.447	3167.8019
CC1C2C3C1C2N3C=O	C[C@H]1[C@H]2[C@H]3[C@@H]1[C@@H]2N3C=O	
InChI=1S/C7H9NO/c1-3-4-6-5(3)7(4)8(6)2-9/h2-7H,1H3	InChI=1S/C7H9NO/c1-3-4-6-5(3)7(4)8(6)2-9/h2-7H,1H3/t3-,4-,5+,6-,7+
