18
gdb 99068	3.79494	0.80202	0.73164	2.6746	75.17	-0.2497	0.0143	0.264	1565.0715	0.146249	-435.28453	-435.274296	-435.273352	-435.320622	35.569	
C	 0.0545664718	 1.3566816589	 0.147218355	-0.224698
O	 0.0675044728	-0.0582132117	-0.0491452848	-0.256333
C	 0.6338503871	-0.4915355588	-1.193593508	 0.511809
N	 1.1570518622	 0.3124249554	-2.0304738106	-0.593232
N	 0.4971381057	-1.8679565045	-1.2488665897	-0.352793
C	 1.293146311	-2.6753194061	-2.155148659	-0.119859
C	 2.7714894345	-2.8246338291	-1.7415752303	-0.389012
C	 0.6574358779	-3.9951933389	-2.2954232279	 0.274316
N	 0.1866141042	-5.0454060819	-2.3906182802	-0.306892
H	 1.0721704729	 1.7547866429	 0.1671324567	 0.139947
H	-0.4985965204	 1.8540844154	-0.6533053077	 0.142085
H	-0.4379213764	 1.5118112874	 1.1079375873	 0.128731
H	 1.5397261677	-0.1570776202	-2.8449331766	 0.217493
H	 0.231360148	-2.2974519007	-0.374852865	 0.258977
H	 1.2466979333	-2.2023352043	-3.1440515347	 0.142939
H	 3.3253054912	-3.4067857793	-2.4829497882	 0.141861
H	 3.2202918254	-1.8319256299	-1.6599510457	 0.145856
H	 2.8481781211	-3.3284059345	-0.7745807305	 0.138805
53.5258	58.9151	124.3399	135.5109	167.3949	189.5709	240.6026	285.4189	338.9683	386.0014	435.2964	466.1115	560.7098	579.4351	695.9963	736.8428	749.0247	839.8874	922.9965	954.8926	1059.2483	1082.1574	1107.3257	1120.3751	1182.71	1200.6938	1220.5585	1296.9746	1330.8172	1367.3725	1406.3805	1467.3789	1476.2595	1489.071	1493.7566	1500.2985	1529.9824	1727.6544	2366.9812	3036.4245	3050.9534	3051.2568	3126.2536	3131.2475	3138.4756	3152.803	3546.6852	3614.5002
COC(=N)NC(C)C#N	COC(=N)N[C@@H](C)C#N	
InChI=1S/C5H9N3O/c1-4(3-6)8-5(7)9-2/h4H,1-2H3,(H2,7,8)	InChI=1S/C5H9N3O/c1-4(3-6)8-5(7)9-2/h4H,1-2H3,(H2,7,8)/t4-/m0/s1
