22
gdb 96425	2.12289	1.53891	0.97765	4.0717	83.96	-0.2337	0.0346	0.2683	1262.1096	0.196755	-404.399713	-404.39101	-404.390066	-404.433078	33.869	
C	-0.1701451602	 1.5391877675	-0.0416766337	-0.430089
C	 0.0382661757	 0.0260861859	 0.0090437458	 0.06318
C	 0.815414228	-0.4736824623	-1.2256596082	-0.175914
C	 1.0081769578	-1.9956574989	-1.2036615044	-0.209452
C	 1.6488635459	-2.44786562	 0.1141556873	-0.190439
C	 0.8542516201	-1.9137313476	 1.3097529748	-0.171937
N	 0.6982284332	-0.4623527052	 1.2265463428	-0.057923
C	 1.168812445	 0.3132085298	 2.2438162765	 0.140445
O	 1.7206972383	-0.1047911415	 3.2450116794	-0.353607
H	 0.7784451105	 2.0846355172	-0.0634144996	 0.130922
H	-0.7121896295	 1.7816627	-0.9602924398	 0.12278
H	-0.763135591	 1.9057206688	 0.8005651167	 0.130044
H	-0.9583280839	-0.4452678971	-0.0173767738	 0.082074
H	 0.2787512666	-0.1695995227	-2.1315680411	 0.09525
H	 1.7926621611	 0.0269126855	-1.24489405	 0.100583
H	 0.0301761535	-2.4838886246	-1.3171965289	 0.095173
H	 1.6152590684	-2.3121227013	-2.0583962226	 0.09786
H	 1.6980213063	-3.5408639583	 0.1672927281	 0.098211
H	 2.6785005746	-2.0746720184	 0.1769010715	 0.108889
H	-0.14344209	-2.3777100884	 1.3294941914	 0.098611
H	 1.3476910751	-2.1253829116	 2.2583903479	 0.147275
H	 1.0036982346	 1.3888902234	 2.0769199098	 0.078063
58.3034	152.091	214.3626	270.9337	289.1855	309.026	344.0044	366.8082	416.206	459.5126	476.1905	564.4003	634.7596	794.6107	836.0046	836.9097	884.897	907.8203	949.3523	997.0049	1012.7753	1024.7783	1073.9131	1091.8677	1122.2133	1149.1235	1168.4685	1196.3591	1263.755	1273.7252	1293.1411	1337.6638	1348.1439	1372.3256	1378.1557	1389.9289	1397.2145	1410.8343	1441.3073	1471.1447	1476.9105	1483.8485	1489.3108	1497.3389	1500.3414	1506.5671	1772.6425	2960.6106	2993.6253	3012.6512	3013.1253	3020.6051	3031.9865	3042.6195	3067.4107	3071.1334	3079.8379	3112.2669	3117.1126	3136.4209
CC1CCCCN1C=O	C[C@H]1CCCCN1C=O	
InChI=1S/C7H13NO/c1-7-4-2-3-5-8(7)6-9/h6-7H,2-5H2,1H3	InChI=1S/C7H13NO/c1-7-4-2-3-5-8(7)6-9/h6-7H,2-5H2,1H3/t7-/m0/s1
