21
gdb 93802	2.39409	1.36584	1.02398	2.7669	78.66	-0.23	-0.018	0.212	1249.3181	0.182023	-424.259257	-424.249994	-424.24905	-424.293205	34.938	
C	-0.1527605097	 1.5769127391	 0.0119863022	-0.404258
C	-0.0329406764	 0.0519209888	-0.036283126	 0.003711
C	 0.757762857	-0.4219013758	-1.2573805838	-0.079211
O	 0.8042630813	-1.8370690843	-1.3338598967	-0.264316
C	 1.4451398561	-2.4926607163	-0.242919523	 0.032402
C	 2.9781245797	-2.4170021709	-0.3221464916	-0.41504
C	 0.9516812853	-1.9966778714	 1.1231766278	 0.364654
O	 0.8679793598	-2.7529144302	 2.0623837597	-0.31164
C	 0.6362426685	-0.5129230617	 1.2299384664	-0.31378
H	 0.8354633499	 2.0490383193	 0.0649889891	 0.116161
H	-0.6622619515	 1.9640335886	-0.8764941114	 0.118443
H	-0.7206092035	 1.8987585446	 0.890560863	 0.122117
H	-1.0380199751	-0.3824491335	-0.1178168346	 0.091469
H	 0.2768777284	-0.0950432141	-2.1843545295	 0.110742
H	 1.7708244063	 0.014683151	-1.2404534467	 0.086005
H	 1.1413703325	-3.5402486303	-0.3206514847	 0.109534
H	 3.3489494548	-1.3950725631	-0.1982483773	 0.118692
H	 3.4214604694	-3.0362287797	 0.4625719237	 0.13885
H	 3.3095675029	-2.7867891466	-1.2960849219	 0.131659
H	 1.5963900311	 0.0053966978	 1.3809051496	 0.121503
H	 0.0417043533	-0.3491740712	 2.1330524558	 0.122302
68.3653	111.548	209.9388	212.9809	230.0123	261.2906	274.4899	356.1583	406.8608	412.4012	483.0024	498.8726	594.7456	652.8142	776.6193	860.9339	863.3125	878.2887	946.5491	968.3698	994.8063	1016.7484	1075.4674	1099.9755	1136.4396	1155.338	1170.9299	1206.6886	1258.7203	1287.3332	1302.0577	1319.6133	1336.699	1367.9923	1373.6337	1391.9024	1406.3877	1416.6652	1458.0935	1484.768	1495.5987	1497.3489	1498.8334	1505.8565	1816.4822	2964.226	2996.4083	3024.6752	3029.3715	3045.2835	3076.6122	3080.316	3092.1025	3096.3793	3104.284	3119.5234	3127.5734
CC1COC(C)C(=O)C1	C[C@H]1CO[C@@H](C)C(=O)C1	
InChI=1S/C7H12O2/c1-5-3-7(8)6(2)9-4-5/h5-6H,3-4H2,1-2H3	InChI=1S/C7H12O2/c1-5-3-7(8)6(2)9-4-5/h5-6H,3-4H2,1-2H3/t5-,6+/m1/s1
