17
gdb 62480	2.48076	1.50151	1.25708	2.1524	68.87	-0.2384	-0.0387	0.1997	1057.1373	0.132062	-458.937639	-458.928532	-458.927587	-458.971816	33.56	
C	-0.3588296189	 1.5056847584	 0.0280303306	-0.461403
C	-0.0104325042	 0.0281167245	 0.0265758054	 0.186285
O	-1.1222539762	-0.7992484056	-0.2756371449	-0.454492
C	 1.2280790273	-0.4125775349	-0.8139439365	 0.367333
O	 1.5206399642	-0.2549498127	-1.9637608853	-0.303031
C	 1.8785899828	-1.1315624901	 0.3808665792	-0.463857
C	 0.740587796	-0.5661514676	 1.2466534199	 0.43323
C	 0.7808237121	-0.0748249134	 2.6239629417	-0.261215
O	 0.1010040538	-1.2880657624	 2.2711194419	-0.256432
H	 0.4952869491	 2.1194948208	 0.3306595693	 0.122549
H	-0.6576112279	 1.8224799925	-0.9773766838	 0.128741
H	-1.1906291669	 1.6939485331	 0.7137681039	 0.135318
H	-1.3777969865	-0.6155646262	-1.1877720519	 0.291589
H	 1.8460864014	-2.2220153409	 0.2850607486	 0.156878
H	 2.9009507465	-0.8269473819	 0.6196033926	 0.138159
H	 1.6893938997	-0.2001407228	 3.2117752146	 0.119308
H	 0.1354859078	 0.7469083592	 2.9304908547	 0.121042
31.8094	152.867	190.0528	203.9541	247.9519	257.5835	314.7597	329.9418	392.3852	469.0938	505.8719	514.8693	583.0754	689.9057	763.4786	832.8234	857.1403	911.4423	959.0773	988.8935	1020.9287	1080.7919	1118.2413	1132.4678	1142.8923	1164.8727	1176.2342	1201.0237	1251.6768	1359.862	1399.4673	1414.3028	1442.3658	1484.7654	1489.0488	1535.7486	1894.6415	3031.6396	3056.8733	3082.4184	3102.5351	3112.9056	3114.3886	3170.5761	3790.7067
CC1(O)C(=O)CC11CO1	C[C@@]1(O)C(=O)C[C@]21CO2	
InChI=1S/C6H8O3/c1-5(8)4(7)2-6(5)3-9-6/h8H,2-3H2,1H3	InChI=1S/C6H8O3/c1-5(8)4(7)2-6(5)3-9-6/h8H,2-3H2,1H3/t5-,6-/m1/s1
