18
gdb 23243	2.71803	1.30945	1.10173	0.9916	76.13	-0.2361	0.0032	0.2393	1160.8146	0.146444	-439.0066	-438.997827	-438.996883	-439.039733	33.594	
C	-0.0776399837	 1.5446876209	-0.0390783786	-0.419245
C	 0.103328933	 0.0402365693	-0.0800080412	-0.017849
C	 0.7561334915	-0.7375407446	-1.1780541929	-0.084623
C	 1.3955347659	-0.6875372102	 0.2451320234	-0.174253
C	 2.5585321248	-0.0024539385	-0.3666382322	 0.397709
N	 3.7418584154	 0.1574761043	 0.0611019753	-0.269103
O	 4.552559557	 0.6879125175	-0.9855597275	-0.412453
C	 1.9524753901	 0.0220288108	-1.7766198742	 0.046257
O	 2.685738739	-0.7818751543	-2.6715325353	-0.444568
H	 0.8098118862	 2.0801794721	-0.3838869743	 0.131376
H	-0.9220138343	 1.8520560174	-0.6653983355	 0.122067
H	-0.2823738714	 1.8747283913	 0.9845671846	 0.123474
H	-0.7451109339	-0.5002872838	 0.3365919504	 0.098159
H	 0.2992925485	-1.5876369512	-1.6673736144	 0.10907
H	 1.4525569207	-1.447914273	 1.0137205887	 0.105365
H	 5.4235666058	 0.70648943	-0.5759382491	 0.309476
H	 1.7288385843	 1.005795343	-2.2100639961	 0.081147
H	 3.5951920012	-0.4584466511	-2.6346283311	 0.297995
89.7593	163.5795	184.8763	207.0132	261.5792	310.6691	345.4613	386.0353	425.168	451.8313	473.9294	572.8312	673.526	703.555	748.0806	845.5689	876.6564	904.7399	948.6701	951.4775	962.698	1027.4157	1053.7738	1064.6919	1120.2379	1149.0662	1182.2542	1198.6175	1209.6665	1283.2713	1315.1636	1352.4698	1395.6924	1409.7993	1420.5374	1438.6387	1493.3331	1503.4011	1772.4538	3008.0091	3039.2189	3098.2394	3117.0274	3134.4009	3194.8519	3209.3316	3774.4629	3827.6638
CC1C2C1C(=NO)C2O	C[C@H]1[C@@H]2[C@H]1[C]([N]O)[C@H]2O	
InChI=1S/C6H9NO2/c1-2-3-4(2)6(8)5(3)7-9/h2-4,6,8-9H,1H3	InChI=1S/C6H9NO2/c1-2-3-4(2)6(8)5(3)7-9/h2-4,6,8-9H,1H3/t2-,3+,4-,6+/m1/s1
