18
gdb 30697	3.80435	1.04368	0.86962	0.9639	73.76	-0.2385	0.0069	0.2454	1333.4338	0.147196	-439.106562	-439.097639	-439.096695	-439.14105	31.747	
C	-0.0773954759	 1.3955052219	 0.0571652663	-0.233317
O	 0.1426396366	 0.0080206183	-0.0471740354	-0.248648
C	 0.6910261409	-0.5941110937	 1.1160880896	 0.017191
C	-0.3418184017	-0.7755440994	 2.2357068528	-0.402692
C	 1.2626421892	-1.9077502891	 0.6774364682	 0.243277
C	 1.2941764565	-2.4563449682	-0.5598829933	-0.101478
O	 1.9205777201	-3.6720850304	-0.4676844748	-0.142764
C	 2.2355288882	-3.7848923803	 0.8394998183	 0.070415
N	 1.8765467113	-2.7821220167	 1.5714994732	-0.31633
H	 0.8445210471	 1.933073551	 0.3288891492	 0.106589
H	-0.4093280308	 1.7411686066	-0.924926141	 0.127987
H	-0.8531074146	 1.6465458707	 0.7943806044	 0.110447
H	 1.5152476925	 0.0332610384	 1.4983355863	 0.081894
H	-1.2009205554	-1.3398042059	 1.8613585515	 0.124104
H	 0.1087557821	-1.3298220075	 3.06266268	 0.144074
H	-0.6905457692	 0.1886145229	 2.6158399075	 0.11232
H	 0.9518333909	-2.1533856289	-1.5318164349	 0.157584
H	 2.7478711621	-4.6848622598	 1.1414997721	 0.149348
57.8328	71.5611	149.3329	167.3348	203.6946	244.2428	326.1971	367.9068	434.0217	481.069	641.7969	685.6763	742.1895	788.8968	845.4391	864.9995	936.8201	975.9349	1045.7428	1076.3004	1091.4133	1107.7789	1134.6194	1159.8211	1183.6545	1221.1378	1241.1854	1258.8822	1338.9197	1356.1107	1386.9728	1396.3305	1478.0324	1482.9797	1493.1941	1500.1158	1513.2692	1555.4052	1633.6367	2950.2293	2980.3532	3031.4032	3046.8052	3113.1551	3120.9938	3132.9927	3275.8411	3319.5219
COC(C)C1=COC=N1	CO[C@@H](C)c1cocn1	
InChI=1S/C6H9NO2/c1-5(8-2)6-3-9-4-7-6/h3-5H,1-2H3	InChI=1S/C6H9NO2/c1-5(8-2)6-3-9-4-7-6/h3-5H,1-2H3/t5-/m0/s1
