23
gdb 76375	2.31292	1.14211	1.1111	2.6948	87.48	-0.2359	-0.0047	0.2312	1327.212	0.20261	-388.315069	-388.30409	-388.303146	-388.350968	40.071	
C	-0.1372899187	 0.8397594019	-1.9593623996	-0.422433
C	 0.0488034207	-0.2762731688	-0.9554422049	-0.032354
C	 1.3405829182	-0.5830158702	-0.2677757716	-0.032432
C	 2.6254630815	 0.184164471	-0.488542103	-0.422423
C	 0.1696182683	-0.0184033701	 0.5586315712	 0.174096
C	 0.220958104	 1.3999934194	 1.0959462004	-0.485983
C	-0.523404494	-1.0609981803	 1.3938222701	 0.333273
C	-1.1335630841	-0.6402861087	 2.7204002046	-0.490264
O	-0.5985575525	-2.2166030782	 1.0226134559	-0.324732
H	 0.4930643373	 1.7100458194	-1.7633600708	 0.115379
H	 0.1079832956	 0.4822511111	-2.9656640542	 0.123956
H	-1.1777356625	 1.1818869011	-1.977824764	 0.120695
H	-0.5490374532	-1.1591732183	-1.1653312872	 0.107038
H	 1.4891178857	-1.6430926649	-0.0803970976	 0.107058
H	 2.4666968539	 1.240289363	-0.7178263958	 0.115361
H	 3.2718636748	 0.1303262478	 0.3941861826	 0.120683
H	 3.1803759028	-0.2495777479	-1.3279020073	 0.123932
H	 0.7431607873	 2.0746016635	 0.4164834792	 0.118232
H	-0.7830577665	 1.8116018171	 1.2447990602	 0.119141
H	 0.7435727131	 1.4482599338	 2.0573114099	 0.119169
H	-1.8882486203	 0.140186042	 2.5743063296	 0.136861
H	-1.5923576258	-1.5100644902	 3.1910512683	 0.13887
H	-0.3715291956	-0.2206681537	 3.3861943538	 0.136879
48.9664	103.5132	147.6958	168.4367	177.485	185.9128	215.8857	236.2384	264.0064	332.7108	357.2694	429.5706	444.9633	535.3954	574.9816	600.5922	657.8484	742.8614	792.603	877.9665	957.6747	970.1767	1013.8719	1026.5195	1033.9016	1055.0243	1097.0125	1098.3865	1140.3465	1142.0617	1198.2035	1199.2589	1283.3572	1319.3126	1370.6123	1381.4202	1416.3433	1418.974	1430.8707	1440.1457	1459.1708	1473.4185	1485.1494	1493.6241	1494.1173	1503.7531	1508.5535	1521.0782	1771.9211	3033.5908	3033.9936	3037.126	3041.1997	3087.0945	3089.6368	3090.4128	3099.5786	3113.0549	3119.0493	3139.0249	3146.078	3152.7243	3153.97
CC1C(C)C1(C)C(C)=O	C[C@H]1[C@@H](C)[C@]1(C)C(=O)C	
InChI=1S/C8H14O/c1-5-6(2)8(5,4)7(3)9/h5-6H,1-4H3	InChI=1S/C8H14O/c1-5-6(2)8(5,4)7(3)9/h5-6H,1-4H3/t5-,6+,8+
