16
gdb 52020	2.34419	1.05772	0.78877	3.2134	77.91	-0.2554	0.0166	0.272	1409.1368	0.121377	-400.699064	-400.68922	-400.688276	-400.73552	34.673	
O	 0.2494552836	 0.7083950201	 1.1698312491	-0.318214
C	 0.129249267	 1.3119886608	 0.1255967366	 0.151247
N	 1.0923428888	 1.4127275896	-0.8340751991	-0.272274
C	 2.4233658694	 0.8815384424	-0.6478528694	-0.168055
C	 3.427865386	 1.9540607373	-0.115978271	-0.34494
C	 4.7462878062	 1.3530359895	 0.0913078718	 0.325365
C	 5.808252853	 0.816906946	 0.2539927611	-0.4316
C	 3.4837165366	 3.1039099927	-1.0239213527	 0.329235
C	 3.4865477836	 4.0284070665	-1.7913290779	-0.463458
H	-0.8004681712	 1.8370684058	-0.1685911364	 0.080725
H	 0.9359358481	 2.0439835496	-1.6044861084	 0.256101
H	 2.3586398401	 0.0751664911	 0.0832943276	 0.160321
H	 2.8003059978	 0.4805354834	-1.5919552278	 0.129184
H	 3.0381676092	 2.2935241591	 0.8535413395	 0.156921
H	 6.7537153256	 0.3572688561	 0.4053548017	 0.203856
H	 3.5167889564	 4.8578724001	-2.4542334746	 0.205585
17.8341	65.2068	123.0066	136.3593	178.3835	237.4834	297.6441	343.951	395.771	487.1571	537.6756	560.7464	564.2781	636.4259	644.3737	659.0022	661.467	743.0139	846.2909	981.188	995.3967	1028.5233	1043.8887	1086.9899	1211.1738	1238.7514	1294.5719	1335.7927	1382.3811	1429.3576	1470.2556	1529.6023	1806.6399	2237.5523	2245.3124	2945.1002	3018.8916	3076.3744	3148.1143	3501.3019	3503.8422	3631.4558
O=CNCC(C#C)C#C	O=CNCC(C#C)C#C	
InChI=1S/C7H7NO/c1-3-7(4-2)5-8-6-9/h1-2,6-7H,5H2,(H,8,9)	InChI=1S/C7H7NO/c1-3-7(4-2)5-8-6-9/h1-2,6-7H,5H2,(H,8,9)
