23
gdb 57287	3.46015	0.69195	0.68655	0.2415	97.44	-0.2259	0.057	0.2828	1841.3947	0.203281	-351.129697	-351.118847	-351.117903	-351.167774	39.892	
C	-0.1723926579	 1.537611838	-0.0680752264	-0.389108
C	 0.0253422314	 0.0071216189	 0.0209944414	 0.079052
C	 0.8214916797	-0.3369654116	 1.3004653323	-0.388881
C	-1.3535340583	-0.6898864424	 0.0671971113	-0.388675
C	 0.7700408862	-0.4534348195	-1.1582054001	 0.13812
C	 1.3822235088	-0.8307044897	-2.1269518416	-0.007359
C	 2.1102183281	-1.2734664377	-3.2821376305	-0.152859
C	 3.2178259582	-2.3064411671	-3.1449924467	-0.25167
C	 1.9287471345	-2.6875363884	-3.8113725737	-0.251629
H	 0.7909282787	 2.0543476285	-0.1018887835	 0.118707
H	-0.7337451712	 1.8070218099	-0.9672443236	 0.118591
H	-0.7268193036	 1.8981334658	 0.8053678016	 0.107224
H	 0.2768208221	 0.00272509	 2.1883536721	 0.106995
H	 0.9768329213	-1.4163971942	 1.3850728542	 0.11646
H	 1.8022063667	 0.1470118447	 1.2916154535	 0.118556
H	-1.9366451151	-0.4605300808	-0.8291752146	 0.118543
H	-1.2398637178	-1.7760346892	 0.1287381136	 0.116502
H	-1.9194902227	-0.3529855027	 0.9427817165	 0.106756
H	 2.2755252203	-0.5107205817	-4.038080812	 0.106033
H	 4.1011626883	-2.1738069247	-3.759592671	 0.115591
H	 3.4106191334	-2.6907319941	-2.1505608126	 0.123777
H	 1.2456639827	-3.3307533178	-3.2696991957	 0.12368
H	 1.9190972562	-2.8189446341	-4.8875908844	 0.115595
5.8866	79.8847	86.3631	182.1433	196.9284	216.3943	271.9549	273.3681	320.5082	349.3812	354.3347	467.3516	474.3049	555.8627	557.7875	619.2577	776.7046	807.5737	820.1808	894.4172	896.5903	928.9271	930.224	963.6652	1018.046	1048.9388	1049.2405	1062.0023	1078.3831	1119.2321	1153.0209	1200.9834	1217.2857	1222.6915	1222.9773	1293.3185	1391.1312	1393.6139	1393.7204	1426.5241	1466.4375	1474.0587	1484.8047	1485.1997	1496.9525	1498.023	1498.2285	1517.7913	2353.6114	3029.2912	3029.8348	3036.4531	3100.7973	3101.6067	3107.7979	3112.33	3116.3298	3116.8831	3138.1528	3138.6215	3144.4728	3223.095	3238.3137
CC(C)(C)C#CC1CC1	CC(C)(C)C#CC1CC1	
InChI=1S/C9H14/c1-9(2,3)7-6-8-4-5-8/h8H,4-5H2,1-3H3	InChI=1S/C9H14/c1-9(2,3)7-6-8-4-5-8/h8H,4-5H2,1-3H3
