16
gdb 18682	3.05757	2.33581	1.5102	3.3447	64.48	-0.231	-0.0179	0.2131	831.2502	0.132049	-383.742942	-383.736231	-383.735287	-383.773957	25.809	
O	 0.0173848191	-0.0229780075	-0.1054595298	-0.321926
C	 0.0094337182	 1.186308054	-0.0569203006	 0.38934
C	-1.2979080034	 1.9825007165	-0.0023787943	-0.197617
O	-1.2362891196	 3.1250614566	-0.8350654712	-0.233913
C	-0.2930832844	 4.0779103675	-0.3778566819	-0.098058
C	 1.1207959924	 3.5140576213	-0.2248993535	-0.056518
C	 1.5466090028	 2.932947148	 1.0860506209	-0.291842
C	 1.2524958013	 2.0049976847	-0.0890692163	-0.114344
H	-2.1027011676	 1.343629719	-0.3706612927	 0.138107
H	-1.5288879621	 2.2620311779	 1.0420337156	 0.102922
H	-0.2977346821	 4.8766337575	-1.1235596083	 0.119804
H	-0.6349222698	 4.508332094	 0.5783693014	 0.094457
H	 1.8865913124	 4.0011343187	-0.8191833537	 0.103718
H	 2.5839804327	 3.012978071	 1.3894720736	 0.129616
H	 0.8375994672	 2.9549322654	 1.9076816064	 0.124352
H	 2.1019614428	 1.5025998555	-0.5373679656	 0.111902
85.2019	191.2423	268.0515	376.3153	415.091	458.5633	477.6269	585.7342	707.242	752.1324	813.5363	858.4973	905.1117	927.9192	945.5239	980.3427	1019.9456	1061.6516	1096.7538	1119.5382	1124.6794	1171.6625	1205.9913	1233.8382	1265.3754	1320.5105	1349.7025	1363.9204	1390.4576	1406.1677	1468.8927	1487.3585	1499.7929	1809.1338	2941.6104	2963.282	3095.1821	3119.5482	3132.697	3163.325	3181.9624	3221.8958
O=C1COCC2CC12	O=C1COC[C@H]2C[C@@H]12	
InChI=1S/C6H8O2/c7-6-3-8-2-4-1-5(4)6/h4-5H,1-3H2	InChI=1S/C6H8O2/c7-6-3-8-2-4-1-5(4)6/h4-5H,1-3H2/t4-,5-/m1/s1
