23
gdb 86546	3.7319	0.96003	0.93946	1.4719	86.22	-0.2397	0.0842	0.3239	1414.3573	0.204696	-388.273058	-388.263405	-388.26246	-388.307803	36.671	
C	-0.5592018345	 1.299333422	 0.1078676203	-0.397674
C	 0.1150630967	-0.0366724429	-0.1406505735	 0.176297
C	 1.0645621834	-0.1467951743	-1.3534024335	-0.333358
C	 2.1758913173	-0.3644035385	-0.2980274113	 0.092768
O	 1.208318882	-0.2825757197	 0.7807468893	-0.316528
C	 2.9564534442	-1.6569640132	-0.2953713986	 0.371596
C	 2.1396639699	-2.9339664162	-0.266469395	-0.479291
C	 4.2632745517	-1.64412171	-1.0573856416	-0.3095
C	 4.2718515797	-1.6424197327	 0.4506236239	-0.303207
H	 0.1587477265	 2.1212968847	 0.0208692549	 0.116702
H	-1.3652705442	 1.4633365014	-0.6162879148	 0.112615
H	-0.9914731075	 1.3274638489	 1.1130097788	 0.125596
H	-0.623488131	-0.847219124	-0.0761758633	 0.072731
H	 0.8800457529	-0.9901639247	-2.020205321	 0.107988
H	 1.1628815461	 0.7637250659	-1.9478710842	 0.103253
H	 2.8837882768	 0.4746084464	-0.2392863116	 0.062816
H	 1.5257632467	-3.0487552612	-1.1672642857	 0.110669
H	 2.7911270564	-3.8105797534	-0.2030089072	 0.110297
H	 1.4739109661	-2.9398696404	 0.6016457422	 0.134538
H	 4.5544361446	-2.552953363	-1.5731550059	 0.109518
H	 4.5532371335	-0.7329375746	-1.571175086	 0.108366
H	 4.5627787861	-0.7294582572	 0.9595418131	 0.113681
H	 4.5723898263	-2.5501964631	 0.9625412808	 0.110127
50.4155	72.6838	165.6173	204.7714	237.1779	240.9107	293.9201	318.0889	357.562	396.1872	472.1366	516.4034	691.8036	755.469	784.1312	843.2709	869.2272	897.1448	907.7234	921.9887	937.4144	958.4047	1001.4167	1029.9814	1032.9643	1060.0912	1078.2137	1092.0605	1095.5642	1123.8009	1135.2871	1187.8954	1201.7665	1251.9589	1275.4366	1295.8683	1327.8544	1345.9194	1380.4286	1401.6838	1408.0515	1431.184	1468.4689	1480.7622	1485.2606	1493.1722	1496.3326	1502.6656	1511.6323	2992.3258	3005.7373	3029.5865	3030.3131	3075.952	3091.6817	3102.0541	3109.8676	3112.6611	3125.937	3131.0632	3132.4701	3204.0962	3219.2795
CC1CC(O1)C1(C)CC1	C[C@H]1C[C@@H](O1)C1(C)CC1	
InChI=1S/C8H14O/c1-6-5-7(9-6)8(2)3-4-8/h6-7H,3-5H2,1-2H3	InChI=1S/C8H14O/c1-6-5-7(9-6)8(2)3-4-8/h6-7H,3-5H2,1-2H3/t6-,7+/m0/s1
