12
gdb 133458	3.52756	1.2334	1.08706	2.7119	53.32	-0.2492	-0.0135	0.2357	1043.6893	0.074937	-567.017378	-567.010258	-567.009314	-567.050094	25.802	
F	-0.5181892344	 0.1537715237	-0.2953080762	-0.070929
C	-0.0455606233	 1.3615306052	 0.0480422505	 0.234264
F	 1.282094985	 1.2628857984	 0.1897111456	-0.070439
F	-0.2943011945	 2.1819057578	-0.9838237571	-0.070786
C	-0.6465561925	 1.8582454277	 1.3160666905	 0.198446
C	-0.0969250807	 2.202230869	 2.5091570615	-0.272568
C	-1.1920409594	 2.6048976558	 3.3387108589	-0.169756
C	-2.3099090078	 2.4703249686	 2.5773423673	-0.012852
O	-1.9944189419	 2.0148692082	 1.337988991	-0.17354
H	 0.9500846827	 2.1723877605	 2.7627385195	 0.135306
H	-1.1472171931	 2.946584091	 4.3603906814	 0.125187
H	-3.3579528502	 2.646439784	 2.7542962271	 0.147667
44.9429	133.1033	176.871	373.6217	377.3293	410.9201	545.9299	581.5673	613.0814	713.1235	745.5905	769.3126	832.0032	875.3509	902.2237	937.7292	1033.8694	1097.4031	1119.7945	1177.2687	1194.3319	1216.2141	1259.0043	1333.3808	1425.0473	1530.1632	1645.0474	3261.5271	3276.82	3291.075
FC(F)(F)C1=CC=CO1	FC(F)(F)c1ccco1	
InChI=1S/C5H3F3O/c6-5(7,8)4-2-1-3-9-4/h1-3H	InChI=1S/C5H3F3O/c6-5(7,8)4-2-1-3-9-4/h1-3H
