20
gdb 100133	4.01726	0.71796	0.70055	5.3971	75.99	-0.2742	0.0425	0.3167	1637.2246	0.168488	-440.302857	-440.29225	-440.291306	-440.338696	38.266	
C	-0.0753886863	 1.5962059796	 0.0946529878	-0.431056
C	-0.0284328218	 0.0643120392	-0.0368346396	 0.359508
O	 0.6799121969	-0.5033114123	 1.0629955421	-0.477487
C	-1.4545329442	-0.5099002325	-0.0336070197	-0.116589
O	-2.0058224772	-0.2241154722	 1.2491429806	-0.434621
C	 0.6995515161	-0.3992631164	-1.3074167534	-0.207137
C	 2.1962091927	-0.0273638201	-1.3065207513	-0.353849
C	 2.8951567584	-0.5678581206	-2.4692287381	 0.258201
N	 3.4321908278	-1.0003467075	-3.3967549896	-0.310369
H	 0.927455673	 2.0019592543	 0.2468381302	 0.122437
H	-0.5108386937	 2.060180366	-0.7968449474	 0.111924
H	-0.6875563586	 1.8753925077	 0.9556776417	 0.135076
H	 0.0743770832	-0.4629374379	 1.8144010353	 0.28804
H	-2.0560713787	-0.0575877054	-0.8357729427	 0.095536
H	-1.4033729089	-1.5939878329	-0.2027513905	 0.099177
H	-2.7909364261	-0.7631358657	 1.3764555635	 0.298622
H	 0.6160016982	-1.4882132407	-1.3813861682	 0.121697
H	 0.2124680084	 0.0269024778	-2.190493011	 0.115222
H	 2.3314286473	 1.0589943535	-1.3014014332	 0.149684
H	 2.6620062934	-0.4129158239	-0.3948507564	 0.175984
60.1861	87.6479	109.0154	142.4532	213.4067	235.7357	244.6016	279.1123	337.9409	364.2533	391.195	406.82	447.6283	451.7625	530.1672	639.0435	762.6887	784.2429	909.124	937.8159	944.9906	979.9655	1003.619	1038.8778	1075.0702	1144.4644	1150.5843	1185.8589	1224.408	1242.3714	1282.59	1300.68	1345.4552	1369.9682	1399.1285	1416.6132	1447.3002	1468.1075	1483.327	1493.3263	1504.3803	1511.2454	2361.548	2989.5988	3035.7531	3042.4724	3049.0119	3061.8833	3089.3785	3111.6496	3116.3217	3132.0065	3772.8199	3848.1424
CC(O)(CO)CCC#N	C[C@@](O)(CO)CCC#N	
InChI=1S/C6H11NO2/c1-6(9,5-8)3-2-4-7/h8-9H,2-3,5H2,1H3	InChI=1S/C6H11NO2/c1-6(9,5-8)3-2-4-7/h8-9H,2-3,5H2,1H3/t6-/m0/s1
