14
gdb 30453	3.99763	1.22499	0.94312	2.5536	70.78	-0.244	-0.058	0.186	1174.4361	0.101819	-470.046089	-470.0383	-470.037356	-470.078996	27.833	
C	-0.04929049	 1.368569395	-0.1205043607	-0.329995
N	 0.0886632399	-0.0714474804	-0.018592082	-0.294342
C	 0.6275842419	-0.5651602141	 0.9992147626	 0.450512
O	 0.697450647	-2.0045259097	 0.9649142424	-0.203199
C	 1.2463484769	-2.6158722499	 1.9882937887	 0.527015
O	 1.2435988683	-3.9265054712	 1.8243409992	-0.361577
N	 1.7459295632	-2.0681176832	 3.0532318278	-0.414385
C	 1.6571402568	-0.6963357771	 3.0416095716	 0.075447
N	 1.1495341301	 0.0492259799	 2.1169720521	-0.305072
H	 0.4604908226	 1.7080099324	-1.0292368826	 0.129691
H	-1.110243035	 1.613012506	-0.2450049526	 0.129685
H	 0.3478283347	 1.9153431142	 0.7410306813	 0.134101
H	 1.6611327829	-4.3024208425	 2.6135890138	 0.326381
H	 2.0668809107	-0.2027499295	 3.9204949983	 0.135737
72.5073	114.6055	178.6422	223.3552	255.0567	372.3021	421.0477	508.2044	575.3228	592.0275	639.2549	745.1545	797.5923	798.4974	924.8124	984.17	1001.9162	1015.7007	1132.9425	1136.2821	1166.5849	1197.1532	1325.5856	1421.2207	1435.7593	1492.3894	1494.208	1495.1931	1570.3691	1684.4277	1792.4087	3020.9982	3079.8953	3098.9145	3161.8566	3766.8217
CN=C1OC(O)=NC=N1	C[N]C1=NC=N[C@H](O1)O	
InChI=1S/C4H5N3O2/c1-5-3-6-2-7-4(8)9-3/h2H,1H3,(H,5,6,7,8)	InChI=1S/C4H6N3O2/c1-5-3-6-2-7-4(8)9-3/h2,4,8H,1H3/t4-/m0/s1
