17
gdb 133106	2.67648	1.47359	1.02754	1.3458	78.27	-0.2482	-0.0263	0.2219	1153.7266	0.136703	-426.042554	-426.034574	-426.03363	-426.075868	29.826	
C	-0.1473972765	 1.5380152356	 0.0244005606	-0.380289
C	 0.0739806766	 0.0158732199	-0.0284138708	-0.272971
C	 0.770303997	-0.5101519826	 1.2011294021	 0.200897
N	 2.0820941459	-0.7607314244	 1.1359903256	-0.310848
C	 2.7096669241	-1.2118042636	 2.2256544251	-0.012221
C	 2.0731587687	-1.4426558953	 3.4403283816	-0.119296
C	 0.7077733964	-1.186671337	 3.5290691607	-0.196042
C	 0.073090516	-0.7160510599	 2.3948765594	 0.233902
F	-1.240313523	-0.4493911362	 2.4326943133	-0.081923
H	 0.8058962864	 2.0655269049	 0.1246412595	 0.127523
H	-0.6364936733	 1.8878524725	-0.8896029962	 0.116707
H	-0.7809769972	 1.8119639326	 0.8731935941	 0.125997
H	-0.8930788297	-0.4856421327	-0.143636183	 0.111219
H	 0.6937267535	-0.2431991031	-0.8905500005	 0.119462
H	 3.7748743732	-1.3999430883	 2.1188704451	 0.109556
H	 2.6275549792	-1.8130033834	 4.2950753843	 0.107886
H	 0.1421692227	-1.342632569	 4.4405375493	 0.120441
38.1997	124.7078	214.2371	225.9772	303.2314	351.3826	445.5541	488.3375	542.9063	574.3628	598.0843	737.6416	779.6071	799.6542	831.1743	864.8486	951.253	980.4488	982.0665	1042.6136	1078.7057	1086.7464	1139.1623	1199.3471	1268.0657	1278.6507	1294.219	1332.7792	1356.6774	1404.2936	1474.3443	1481.9427	1490.6338	1500.6305	1508.2687	1612.445	1638.1357	3040.1869	3048.1667	3098.2754	3112.9874	3122.2791	3160.103	3193.8276	3208.652
CCC1=NC=CC=C1F	CCc1ncccc1F	
InChI=1S/C7H8FN/c1-2-7-6(8)4-3-5-9-7/h3-5H,2H2,1H3	InChI=1S/C7H8FN/c1-2-7-6(8)4-3-5-9-7/h3-5H,2H2,1H3
