20
gdb 5867	4.02735	1.00871	0.99054	4.4367	76.2	-0.2421	0.0263	0.2684	1278.0444	0.175079	-345.195733	-345.185965	-345.185021	-345.23028	35.563	
C	-0.0696090811	 1.5605845282	 0.0737190501	-0.395506
C	 0.0258525728	 0.0260283034	 0.0529896209	 0.275596
C	 0.689445675	-0.4815962078	 1.3507715302	-0.407213
C	-1.385419221	-0.5692537077	-0.0680020013	-0.407917
N	 0.7411940087	-0.3997843467	-1.1719063759	-0.311117
C	 2.1396504092	-0.0047297391	-1.2959647692	-0.279706
C	 2.6987457734	-0.5068976453	-2.5551377954	 0.262748
N	 3.1497301985	-0.921347534	-3.5344098346	-0.301348
H	 0.904270133	 2.0342407642	 0.2340365195	 0.110996
H	-0.4819812904	 1.930421799	-0.8692005944	 0.127598
H	-0.7218484148	 1.8855478397	 0.8896446346	 0.117682
H	 0.0996046469	-0.1929674416	 2.2267357496	 0.118743
H	 0.7691063698	-1.5743801603	 1.3471135136	 0.109829
H	 1.6935304088	-0.0673703817	 1.4867311187	 0.113304
H	-1.8691804695	-0.2254761017	-0.9861137642	 0.12835
H	-1.3473898521	-1.6645834492	-0.0928850004	 0.109089
H	-2.0039282548	-0.2788574307	 0.786170764	 0.11611
H	 0.6749944301	-1.4088940265	-1.2620366698	 0.224606
H	 2.2099314558	 1.0883511362	-1.3121196448	 0.156885
H	 2.8017484115	-0.3487447587	-0.4822235112	 0.131271
47.7995	98.4487	128.6893	216.9031	248.6903	267.8008	276.2245	337.3728	338.7572	388.8048	397.0975	444.8252	490.6519	548.2219	736.1744	765.2961	909.1516	917.8654	932.8207	958.1996	961.6502	1003.2713	1048.2046	1055.8466	1121.4255	1223.6623	1237.2178	1252.6152	1283.2002	1368.5292	1395.3078	1400.5685	1426.3205	1475.4395	1482.1213	1486.4077	1488.8376	1493.4236	1504.7338	1519.6362	1522.4586	2367.2206	2951.2339	3027.7312	3032.3754	3040.6997	3067.96	3096.0283	3099.43	3101.3367	3106.4895	3119.1712	3124.9283	3515.5617
CC(C)(C)NCC#N	CC(C)(C)NCC#N	
InChI=1S/C6H12N2/c1-6(2,3)8-5-4-7/h8H,5H2,1-3H3	InChI=1S/C6H12N2/c1-6(2,3)8-5-4-7/h8H,5H2,1-3H3
