21
gdb 74042	2.62134	1.55499	1.05138	1.8336	85.92	-0.2199	0.022	0.2419	1190.5909	0.184168	-387.11389	-387.105489	-387.104545	-387.14696	32.127	
C	-0.032305923	 1.4578853979	-0.0987795481	-0.496651
C	-0.0278576644	-0.032474145	 0.0058400511	 0.113197
C	-1.0407353644	-0.8808916056	 0.1601233218	 0.24081
C	-2.5386024114	-0.8563285902	 0.0531716087	-0.332433
C	-2.8750278567	-2.2976441332	-0.4715944945	-0.209571
C	-1.5241679165	-2.933068298	-0.8974879407	-0.23548
C	-0.5409542863	-2.2976313599	 0.0978566705	 0.081244
O	 0.8240443224	-2.2090617354	-0.2805587224	-0.28411
C	 1.2433532773	-0.8505397497	-0.1315898819	-0.153807
H	 0.5182565327	 1.9198984311	 0.7309744567	 0.13008
H	 0.4562414121	 1.7938116863	-1.0223649954	 0.125951
H	-1.0499213763	 1.8574065661	-0.0840780086	 0.125826
H	-3.0345424654	-0.6650896091	 1.0115699505	 0.110553
H	-2.8787298394	-0.0755206221	-0.6349845673	 0.111838
H	-3.3223707401	-2.8862664801	 0.3361286238	 0.105174
H	-3.6007300347	-2.2828176019	-1.2882460786	 0.103148
H	-1.5455968107	-4.0257462346	-0.8746784514	 0.09603
H	-1.2439173233	-2.6156491168	-1.907747507	 0.104116
H	-0.6216366377	-2.8165649731	 1.070881715	 0.067918
H	 1.8271621171	-0.5545933307	-1.015910386	 0.10217
H	 1.9108131888	-0.7480977161	 0.742349134	 0.093997
88.3764	155.512	162.2873	178.4659	211.775	283.2898	404.2255	447.0986	558.0645	577.2034	632.5934	674.7303	755.4086	826.9938	882.4164	905.8774	924.5211	954.5342	976.7062	989.364	1017.3102	1046.8091	1088.9998	1100.0543	1128.2717	1159.8406	1176.8392	1191.4436	1202.2429	1230.9237	1262.4008	1290.057	1301.1026	1331.3613	1339.0674	1374.3732	1386.8587	1414.4338	1477.9263	1480.699	1489.3788	1490.6274	1505.0461	1520.2677	1776.6243	2924.8282	2945.8792	3001.4371	3016.0372	3033.8968	3049.3486	3051.6171	3060.4668	3068.2332	3097.9525	3108.581	3109.6736
CC1=C2CCCC2OC1	CC1=C2CCC[C@H]2OC1	
InChI=1S/C8H12O/c1-6-5-9-8-4-2-3-7(6)8/h8H,2-5H2,1H3	InChI=1S/C8H12O/c1-6-5-9-8-4-2-3-7(6)8/h8H,2-5H2,1H3/t8-/m1/s1
