22
gdb 106674	2.68502	1.20259	1.01953	1.0126	83.2	-0.2167	0.0765	0.2932	1298.4819	0.192702	-404.315254	-404.305327	-404.304383	-404.349699	37.489	
C	 0.0219387761	 1.5020768876	 0.3281487316	-0.372318
C	 0.0370019694	 0.0275625393	-0.1019701788	-0.311984
C	-1.3354306803	-0.566570762	-0.2179808043	 0.313871
C	-2.3794449242	-0.2922683055	-1.3114916359	-0.308219
C	-2.9158580744	-1.7547648552	-1.1060784404	 0.097117
O	-2.6698045996	-2.6233376078	-2.1932609834	-0.442058
C	-1.8444537136	-1.958413751	-0.0262063678	 0.267381
C	-1.1758308257	-3.2527367727	 0.3123149752	-0.517394
N	-2.1466709114	-0.9118577791	 0.9875592603	-0.421062
H	 1.0382420259	 1.9016472189	 0.3965095127	 0.111551
H	-0.5318050381	 2.1156244196	-0.3898935904	 0.12212
H	-0.4580364262	 1.6223589337	 1.3043989835	 0.12397
H	 0.5496083831	-0.0675794324	-1.0679793399	 0.103582
H	 0.6243149706	-0.5604945197	 0.6160521347	 0.092774
H	-3.0730428112	 0.5303311157	-1.1187402616	 0.095902
H	-1.9355379149	-0.1964519228	-2.3061752221	 0.095561
H	-3.9501311202	-1.8347197621	-0.7454939545	 0.067566
H	-3.2747737445	-2.3907364309	-2.9044322729	 0.284408
H	-0.9175001378	-3.7939192272	-0.6020765642	 0.1439
H	-0.2584180973	-3.0868795137	 0.8875599683	 0.112007
H	-1.8349833132	-3.8948789421	 0.908814481	 0.124703
H	-1.4882578323	-1.0579118805	 1.7548901991	 0.216623
81.3075	113.1057	148.974	201.3678	215.1358	231.0427	250.7689	272.5059	348.6378	421.6044	466.4428	494.0308	501.0393	591.6669	708.9576	730.8683	784.0324	836.1106	874.0706	920.2371	957.7539	998.0813	1012.0575	1034.4069	1068.6097	1084.5681	1104.5027	1120.7198	1167.3792	1178.9673	1209.3371	1224.7489	1272.6974	1279.9203	1338.3378	1341.1507	1369.9276	1406.779	1412.4077	1418.4971	1446.0401	1477.2189	1479.5573	1493.6728	1497.6215	1501.9954	1510.9506	3010.5543	3012.8725	3026.2124	3037.4239	3046.6969	3053.8452	3085.3713	3106.6176	3110.4772	3114.379	3116.9595	3444.4677	3820.8205
CCC12CC(O)C1(C)N2	CC[C@@]12C[C@@H](O)[C@]1(C)N2	
InChI=1S/C7H13NO/c1-3-7-4-5(9)6(7,2)8-7/h5,8-9H,3-4H2,1-2H3	InChI=1S/C7H13NO/c1-3-7-4-5(9)6(7,2)8-7/h5,8-9H,3-4H2,1-2H3/t5-,6+,7-/m1/s1
