20
gdb 118892	3.49461	1.03126	0.95025	3.5719	75.39	-0.2273	0.0711	0.2984	1322.5966	0.16983	-440.217305	-440.208232	-440.207288	-440.251319	34.051	
C	 0.0715749293	 1.3729565829	-0.055778476	-0.227063
O	-0.0018112123	-0.0269067665	 0.0955677854	-0.254913
C	-1.3175229295	-0.5407199088	-0.0156575886	-0.129341
C	-1.1928039111	-2.0572355813	 0.0471480288	 0.405485
O	-0.3123568685	-2.4919864465	-0.9683503246	-0.48901
C	-0.916160452	-2.7433962703	 1.4209439151	-0.219575
N	-2.1154034011	-3.6500672649	 1.2724378245	-0.126095
C	-3.2790896157	-2.7517648711	 1.2256387646	-0.249687
C	-2.4657403154	-2.8960449389	 0.0006483011	-0.08373
H	 1.1221368129	 1.6578303443	 0.0378900746	 0.132325
H	-0.301148737	 1.694127652	-1.0402704898	 0.111727
H	-0.5092690013	 1.8937633035	 0.720300149	 0.110854
H	-1.9550703601	-0.1496335344	 0.7909990732	 0.088384
H	-1.7658911498	-0.2477585806	-0.9793928295	 0.095377
H	 0.430353728	-1.8742903813	-0.9499805836	 0.286319
H	 0.0031601205	-3.3290880782	 1.3946482328	 0.119144
H	-0.9428156218	-2.1228280195	 2.32318257	 0.094758
H	-4.2267229446	-3.2813106599	 1.2547512533	 0.123775
H	-3.2634929138	-1.8281743064	 1.8007311756	 0.108102
H	-2.8109939366	-3.4043149739	-0.8934879058	 0.103164
72.5588	100.4977	135.3002	196.5217	232.0004	286.496	353.7987	390.0163	439.3994	449.8709	481.3571	504.6503	706.9321	754.9227	788.3889	866.3017	904.794	945.1854	967.2984	985.2007	1007.7625	1054.5292	1087.498	1109.957	1114.0433	1148.0063	1163.6871	1183.3843	1197.5567	1217.539	1221.9687	1245.8035	1271.6483	1284.6167	1348.2559	1392.107	1442.256	1477.7496	1479.88	1485.9535	1497.8975	1506.2634	1519.9004	2967.2712	2982.2555	3014.3484	3029.3017	3044.8014	3103.5277	3118.2859	3132.1208	3171.5407	3193.8569	3769.8868
COCC1(O)CN2CC12	COC[C@@]1(O)CN2C[C@@H]12	
InChI=1S/C6H11NO2/c1-9-4-6(8)3-7-2-5(6)7/h5,8H,2-4H2,1H3	InChI=1S/C6H11NO2/c1-9-4-6(8)3-7-2-5(6)7/h5,8H,2-4H2,1H3/t5-,6-,7?/m0/s1
