18
gdb 109603	1.98883	1.37779	1.03458	4.2086	73.66	-0.2705	0.005	0.2755	1223.3428	0.145988	-439.075245	-439.065453	-439.064509	-439.109877	35.528	
C	 0.0395205311	 1.5858539272	 0.2156587615	-0.427936
C	 0.0021708741	 0.0889917367	-0.0037324189	-0.089187
C	 0.5011445585	-0.5925218487	-1.2594772843	-0.097591
C	 1.1409209459	 0.150113811	-2.4204504234	-0.079834
O	 2.219927092	-0.5754019145	-2.9792499959	-0.422154
C	 1.2981919431	-0.7225292438	 0.0236650635	 0.214481
O	 2.5294121798	-0.0523358541	 0.0085688422	-0.456399
C	 1.3138243546	-1.9814376545	 0.7330684351	 0.251684
N	 1.329635673	-2.9729852251	 1.3292100316	-0.341942
H	 0.9960154852	 2.0183637088	-0.0828744387	 0.136381
H	-0.7525485822	 2.0826550256	-0.3534408071	 0.134064
H	-0.1184692146	 1.8176774807	 1.2739134743	 0.127905
H	-0.8383849222	-0.409692556	 0.4706769622	 0.113618
H	-0.0287098844	-1.4929455265	-1.5538208397	 0.120885
H	 0.4010109255	 0.2640442459	-3.219418938	 0.116907
H	 1.4508572807	 1.1567750964	-2.1170423717	 0.099691
H	 2.9106671822	-0.6037537534	-2.3073380087	 0.296373
H	 2.7611370776	 0.2005338842	 0.9097885861	 0.303053
80.7031	105.3265	149.2302	160.957	195.1975	219.2285	291.4598	313.9598	339.242	428.7605	450.1979	507.1277	540.5884	581.4956	598.4721	718.3299	799.6145	830.3074	967.4977	1002.2633	1022.2685	1057.8723	1075.4199	1085.7069	1132.359	1154.1176	1208.0428	1248.6507	1271.5048	1326.4174	1368.0942	1399.9552	1415.6003	1428.0878	1441.628	1498.5165	1500.7603	1510.1167	2345.0314	3034.6776	3043.8835	3080.1705	3101.3483	3132.5739	3151.1763	3166.8421	3795.7025	3804.7935
CC1C(CO)C1(O)C#N	C[C@H]1[C@@H](CO)[C@]1(O)C#N	
InChI=1S/C6H9NO2/c1-4-5(2-8)6(4,9)3-7/h4-5,8-9H,2H2,1H3	InChI=1S/C6H9NO2/c1-4-5(2-8)6(4,9)3-7/h4-5,8-9H,2H2,1H3/t4-,5+,6-/m0/s1
