14
gdb 130282	7.37741	0.85194	0.76654	1.7695	70.1	-0.2343	-0.0137	0.2206	1394.0611	0.101138	-469.990088	-469.98195	-469.981006	-470.023726	29.235	
N	-0.020848633	 1.3558659878	 0.2030065161	-0.586474
C	 0.0318462431	-0.0137010297	 0.0406970976	 0.459958
N	-1.0773830864	-0.7182168528	-0.0707992979	-0.243112
O	-0.6377529391	-2.0701193631	-0.1332154321	-0.235198
C	 0.6937701502	-2.077079439	-0.0627444084	 0.59382
O	 1.3455693132	-3.2460858725	-0.1296871895	-0.22627
C	 0.6591583692	-4.4228573798	 0.0582090032	 0.103381
N	 1.2893371282	-5.4959089062	-0.1084107562	-0.416259
C	 1.2057020374	-0.8255438307	 0.0456748348	-0.493986
H	 0.7381848005	 1.8604401814	-0.2305693285	 0.258893
H	-0.9229542185	 1.7501699676	-0.0276373314	 0.263107
H	-0.381798655	-4.2771696984	 0.3472233895	 0.149281
H	 0.6790492868	-6.2899242276	 0.0760527134	 0.244617
H	 2.2373626232	-0.5363658771	 0.1401983694	 0.128241
44.3814	81.7272	162.4402	223.8291	300.8469	359.7185	394.6177	451.9058	515.3268	618.6971	676.644	704.0236	730.9033	775.0371	802.963	834.4876	920.032	983.3269	1017.2883	1048.7934	1060.7146	1135.5211	1210.5086	1264.4798	1341.9683	1411.8155	1514.344	1559.6293	1646.0326	1672.5956	1756.1298	3136.0136	3290.5111	3520.9196	3561.8777	3664.481
NC1=NOC(OC=N)=C1	Nc1noc(O[CH][NH])c1	
InChI=1S/C4H5N3O2/c5-2-8-4-1-3(6)7-9-4/h1-2,5H,(H2,6,7)	InChI=1S/C4H5N3O2/c5-2-8-4-1-3(6)7-9-4/h1-2,5H,(H2,6,7)
