17
gdb 61155	3.12683	0.91076	0.79776	0.6038	75.35	-0.253	-0.1002	0.1528	1429.9962	0.131516	-421.814034	-421.803948	-421.803004	-421.849856	35.13	
C	 0.2981323734	 1.4093914286	 0.2396197352	-0.412929
C	-0.013641102	-0.0530630018	-0.1469421226	-0.090116
C	-1.5256971633	-0.3645624207	-0.1054548053	-0.367936
C	-2.0869190693	-0.2379264863	 1.2328841589	 0.291643
C	-2.5282540888	-0.1325723173	 2.3461187195	-0.431103
C	 0.5413647955	-0.3353165584	-1.5268398384	 0.284218
O	-0.121537933	-0.4392132875	-2.5339417578	-0.28554
C	 2.0639210922	-0.5089537297	-1.6637735884	 0.098121
O	 2.8270149255	-0.5112587919	-0.7345635097	-0.219698
H	 1.3750434966	 1.5884808963	 0.2634653778	 0.141567
H	-0.1599549434	 2.105972251	-0.4704822655	 0.12756
H	-0.109963429	 1.6141728213	 1.2321354722	 0.148047
H	 0.5187148091	-0.7011668561	 0.5587316448	 0.121358
H	-2.0478646992	 0.3031233129	-0.800532359	 0.145683
H	-1.6978920676	-1.3787198113	-0.4844011957	 0.139728
H	-2.9339656026	-0.0445953984	 3.3233774354	 0.197241
H	 2.3789342959	-0.6559003206	-2.7186064515	 0.112157
53.8093	67.3925	118.0808	123.9628	198.9096	219.4073	240.2108	279.1537	345.3445	355.344	494.259	516.9405	596.8661	622.4117	639.4531	650.4361	783.6761	863.5581	906.8442	977.2544	992.2478	1063.5078	1092.1498	1112.4754	1160.2429	1253.5976	1307.2091	1320.651	1363.5129	1381.2162	1403.4248	1464.679	1499.6308	1504.0481	1796.5039	1823.8611	2238.6248	2923.6844	3037.854	3043.7334	3053.1429	3073.4637	3120.5855	3138.9973	3506.3347
CC(CC#C)C(=O)C=O	C[C@@H](CC#C)C(=O)C=O	
InChI=1S/C7H8O2/c1-3-4-6(2)7(9)5-8/h1,5-6H,4H2,2H3	InChI=1S/C7H8O2/c1-3-4-6(2)7(9)5-8/h1,5-6H,4H2,2H3/t6-/m0/s1
