19
gdb 33034	4.30594	0.83591	0.73312	3.4562	80.98	-0.1868	0.0346	0.2214	1574.6227	0.159214	-419.244383	-419.234997	-419.234053	-419.279396	33.961	
C	 0.1213883824	 1.5377362749	 0.1285211217	-0.382879
C	 0.0709474152	 0.0108409236	 0.0504704533	-0.159516
C	 0.5754205197	-0.5278026356	-1.3028400599	-0.30651
C	 0.5738159368	-2.0085647095	-1.3939272422	 0.351769
C	-0.0756024281	-2.8955744928	-2.1580429431	-0.204088
N	 0.3422875162	-4.1665121135	-1.7628710177	-0.328869
C	 1.2586531437	-4.0597922052	-0.7410804098	 0.45859
N	 1.8439339334	-5.0116571895	-0.1419469267	-0.60959
O	 1.4024309058	-2.7036710721	-0.5129267109	-0.251765
H	 1.1440308401	 1.9081759855	-0.0041355537	 0.117271
H	-0.4995320585	 1.9973998766	-0.648831974	 0.113626
H	-0.2390759567	 1.896575511	 1.097195448	 0.116498
H	 0.6768452827	-0.4262688409	 0.8516271452	 0.117674
H	-0.954826739	-0.3416138948	 0.2116511869	 0.101097
H	-0.0465955934	-0.1377149834	-2.1167010622	 0.110318
H	 1.593182501	-0.1515953525	-1.4785189715	 0.116255
H	-0.7919276491	-2.7419361459	-2.946442512	 0.144334
H	 0.0500863306	-5.0513799402	-2.1338035587	 0.273968
H	 2.4724118772	-4.6532526957	 0.5715011072	 0.221818
64.4329	82.6067	95.9938	117.8034	239.6149	261.1597	294.2326	329.9623	402.5935	482.0638	610.0547	683.3492	709.8687	731.7815	747.2676	757.8508	784.0212	868.4412	896.1447	945.901	966.1804	1038.7708	1047.9769	1087.9054	1107.6821	1111.9085	1213.782	1259.9984	1262.9332	1314.1136	1327.4416	1377.666	1389.6993	1408.9838	1412.8542	1468.8584	1492.6761	1498.9546	1509.4879	1725.8428	1792.8755	3008.1579	3029.1443	3037.6949	3059.4403	3077.3795	3100.0541	3105.7866	3288.191	3544.5622	3714.8572
CCCC1=CNC(=N)O1	CCCC1=CN[C@@H]([NH])O1	
InChI=1S/C6H10N2O/c1-2-3-5-4-8-6(7)9-5/h4H,2-3H2,1H3,(H2,7,8)	InChI=1S/C6H11N2O/c1-2-3-5-4-8-6(7)9-5/h4,6-8H,2-3H2,1H3/t6-/m1/s1
