25
gdb 100937	1.81603	1.00793	0.78814	2.5155	85.11	-0.2529	0.0651	0.318	1627.6105	0.227002	-426.628493	-426.616931	-426.615987	-426.665517	42.111	
C	 0.1161889946	 1.7417987619	-0.1244302576	-0.390994
C	-0.0096971948	 0.2143128933	-0.0964710603	-0.218338
C	 0.595247108	-0.4360606961	 1.1694749688	 0.04281
C	-0.3348994079	-0.2489529597	 2.3878298892	-0.186578
C	 0.3600344868	-0.3933040767	 3.745286997	-0.392024
C	 0.9251882409	-1.9287206454	 0.9644019939	 0.07855
O	-0.1956424623	-2.6813674482	 0.475495778	-0.44837
C	 2.1394616614	-2.2081821371	 0.0725512313	-0.076279
O	 2.3485005928	-3.5988795931	-0.0598646873	-0.426541
H	 1.1681620232	 2.0470583095	-0.1207346904	 0.118553
H	-0.3484957284	 2.1578705012	-1.0235585921	 0.114985
H	-0.3663194394	 2.2070921843	 0.7405527142	 0.123491
H	-1.0703883773	-0.0615619226	-0.1691966538	 0.100539
H	 0.4767520214	-0.18264237	-0.996121459	 0.093913
H	 1.5499699644	 0.0688378337	 1.3811922974	 0.068854
H	-0.8011151082	 0.7414278142	 2.3383294251	 0.090847
H	-1.1509810318	-0.9771182231	 2.3041186277	 0.110925
H	 1.1482246207	 0.3583338876	 3.8667342579	 0.113573
H	-0.3527922856	-0.2624022302	 4.5653462821	 0.114806
H	 0.8211046513	-1.3782674716	 3.8709368065	 0.122161
H	 1.1382911812	-2.386486809	 1.9364271771	 0.094198
H	-0.4839718427	-2.276817941	-0.3510139454	 0.285371
H	 2.0077433287	-1.7328577496	-0.9155338441	 0.076755
H	 3.0416335647	-1.778165904	 0.5224247353	 0.10506
H	 1.4636132684	-3.9799367081	-0.1352378215	 0.283734
71.1263	77.8377	88.5016	108.2011	176.6061	200.8261	214.6632	248.7314	275.1614	314.5673	327.2267	363.4638	413.7057	449.1982	505.6086	534.1727	650.7835	762.6286	789.9363	843.2885	873.3969	918.8648	980.5944	1022.8234	1030.4593	1044.4795	1053.1967	1076.1409	1088.8115	1115.9396	1163.9766	1186.2341	1204.4818	1271.3857	1271.9126	1304.5844	1310.3543	1330.5663	1346.9256	1373.9233	1386.2144	1401.5275	1412.7835	1415.0744	1430.5473	1443.0069	1487.0039	1493.0342	1500.6877	1503.989	1506.7538	1508.1609	1508.7038	2947.2893	2992.4695	3012.5274	3031.2792	3033.2043	3036.3876	3048.0463	3054.384	3065.0932	3067.783	3099.6816	3102.8311	3104.029	3108.536	3760.4856	3795.7508
CCC(CC)C(O)CO	CCC(CC)[C@@H](O)CO	
InChI=1S/C7H16O2/c1-3-6(4-2)7(9)5-8/h6-9H,3-5H2,1-2H3	InChI=1S/C7H16O2/c1-3-6(4-2)7(9)5-8/h6-9H,3-5H2,1-2H3/t7-/m0/s1
