15
gdb 28163	5.21492	1.29393	1.04344	1.2829	74.19	-0.1993	0.0206	0.2199	1097.6239	0.114147	-420.660546	-420.653498	-420.652554	-420.691975	27.145	
C	 0.1174466106	 1.4375335698	 0.0356234135	-0.487295
C	-0.0790084777	-0.0330086152	 0.0038668527	 0.359764
C	-1.1694071331	-0.8299963921	-0.1899663879	-0.46271
C	-0.700442424	-2.1913376919	-0.102773336	 0.226145
C	 0.6324830662	-2.0555260509	 0.1360539165	 0.396279
O	 1.3120982345	-3.1962913417	 0.2608248131	-0.210531
C	 0.3284462031	-4.167784497	 0.0866245489	-0.018576
C	-0.8984451779	-3.6178634301	-0.1349068607	-0.349057
O	 1.0763793201	-0.7995757596	 0.2128444733	-0.241307
H	 0.8208935463	 1.7701809362	-0.7365517679	 0.139445
H	-0.8392252512	 1.9357935889	-0.13718041	 0.137409
H	 0.50892906	 1.7743634799	 1.0025859066	 0.139442
H	-2.1700936633	-0.468948788	-0.370248149	 0.114692
H	 0.6861022082	-5.180610243	 0.1529108193	 0.139316
H	-1.808783892	-4.1736153552	-0.2968206225	 0.116984
136.3055	139.8328	254.6321	275.3433	343.4421	503.0274	560.4434	591.8773	612.4296	675.6478	744.5008	749.8275	797.3249	804.5746	818.4749	901.6049	942.5643	1013.4868	1022.5431	1064.7063	1129.5375	1145.1135	1192.5003	1238.9889	1302.3405	1411.5926	1441.6465	1469.0956	1485.6728	1513.3418	1545.5177	1599.5785	1637.6028	3027.244	3076.224	3128.1122	3253.9395	3255.9834	3298.0789
CC1=CC2=C(OC=C2)O1	Cc1cc2c(occ2)o1	
InChI=1S/C7H6O2/c1-5-4-6-2-3-8-7(6)9-5/h2-4H,1H3	InChI=1S/C7H6O2/c1-5-4-6-2-3-8-7(6)9-5/h2-4H,1H3
