17
gdb 125647	3.23903	1.48844	1.0397	1.0727	75.06	-0.2263	0.023	0.2494	1117.1605	0.138429	-418.021441	-418.013531	-418.012587	-418.054275	28.96	
C	-0.0018404692	 1.4994816871	-0.0793809323	-0.498128
C	-0.0024102487	 0.0088489404	 0.0440707279	 0.184633
N	 0.000451246	-0.75904189	-1.0500106627	-0.28602
N	-0.0008939889	-2.0414033208	-0.5974699456	-0.335071
C	-0.0045976792	-2.089449543	 0.7496139294	 0.315631
C	-0.0056790859	-0.8014337948	 1.2047006411	 0.142542
C	-0.0097174441	-0.824289886	 2.6990279708	-0.192469
O	-0.0109328296	-2.231339892	 3.0331208172	-0.281842
C	-0.0077521694	-3.0717351994	 1.8727919186	-0.172154
H	 0.8790902824	 1.9405724371	 0.4003492568	 0.127903
H	 0.0003105784	 1.7838817676	-1.133520523	 0.143156
H	-0.8844522925	 1.9409457675	 0.3968900993	 0.127885
H	 0.0008057563	-2.7903077308	-1.2676623341	 0.272335
H	 0.875836002	-0.3563977958	 3.1522203047	 0.111182
H	-0.8974979145	-0.3560330695	 3.1474542405	 0.111189
H	-0.8957029256	-3.7215500227	 1.8843568309	 0.114617
H	 0.8800748227	-3.721619995	 1.8892373204	 0.11461
85.352	115.7848	157.6388	224.5687	241.3568	331.561	456.0447	485.4923	584.231	631.693	665.1444	689.7513	803.8117	854.339	891.1595	1003.2988	1019.1033	1055.1896	1059.2534	1073.0775	1091.484	1139.6004	1161.7529	1210.7796	1215.5104	1309.061	1342.6688	1396.882	1411.9602	1424.1989	1484.0757	1491.7186	1513.2878	1520.6288	1530.7799	1557.261	1609.9774	2981.3906	2993.6097	3001.4105	3013.9752	3033.1546	3083.1189	3134.0501	3682.9428
CC1=NNC2=C1COC2	Cc1n[nH]c2c1COC2	
InChI=1S/C6H8N2O/c1-4-5-2-9-3-6(5)8-7-4/h2-3H2,1H3,(H,7,8)	InChI=1S/C6H8N2O/c1-4-5-2-9-3-6(5)8-7-4/h2-3H2,1H3,(H,7,8)
