21
gdb 69530	2.94415	1.52479	1.37126	1.1437	81.8	-0.2415	0.0845	0.326	1050.93	0.183444	-387.053654	-387.045765	-387.044821	-387.085192	33.241	
C	-0.0432870079	 1.5136990864	 0.0304918963	-0.501177
C	 0.0297771353	 0.0037795997	 0.053076261	 0.34276
C	 0.8875819804	-0.827665002	-0.9769778034	-0.25153
C	 0.7315194818	-1.9343262701	 0.1199796232	-0.10121
C	 0.836088701	-0.7707397779	 1.1384908335	-0.27689
C	-0.7852093651	-2.2011077186	 0.0025883782	 0.420107
O	-1.2063875114	-3.1335526834	-0.9465412146	-0.473582
C	-1.7315907671	-1.7285794097	 1.0795558245	-0.387612
C	-1.2981077732	-0.7887977611	-0.0364181959	-0.123017
H	 0.9562822502	 1.9606188079	 0.0540059091	 0.110177
H	-0.548670928	 1.8722336686	-0.8737934537	 0.114918
H	-0.6019701901	 1.8948658616	 0.8929110624	 0.117071
H	 0.4474742504	-1.0309229583	-1.9567074522	 0.100368
H	 1.9117215653	-0.4568220532	-1.0815847276	 0.084166
H	 1.3854500107	-2.806255932	 0.1697171143	 0.052731
H	 1.8597958083	-0.3947014275	 1.2106761113	 0.093018
H	 0.4263890538	-0.8849105651	 2.1432917499	 0.089771
H	-1.13592929	-4.0095692546	-0.5520843266	 0.280611
H	-2.7434416414	-2.1060131646	 0.9664493511	 0.110537
H	-1.4311570148	-1.5849371927	 2.110858445	 0.108382
H	-2.0349246881	-0.4820456036	-0.7706880359	 0.090398
176.9766	219.6573	251.6223	285.7983	322.7529	354.402	403.3684	463.7489	518.3548	544.9335	580.7197	617.8366	719.5173	774.0936	836.2379	859.0967	882.7083	899.4994	938.4255	959.3397	968.2642	990.6792	1017.1113	1024.3366	1045.4462	1051.5586	1074.4341	1093.4445	1128.9878	1187.5407	1194.2928	1223.6566	1224.2736	1230.1884	1253.5337	1278.3071	1302.4281	1350.3745	1397.9792	1414.0085	1478.593	1492.7934	1493.9322	1497.4426	1535.1965	3023.2085	3049.5321	3067.8692	3086.4998	3093.4541	3102.8885	3113.6535	3117.6063	3131.5662	3172.7952	3211.3127	3794.2573
CC12CC(C1)C1(O)CC21	C[C@@]12C[C@@H](C1)[C@@]1(O)C[C@@H]21	
InChI=1S/C8H12O/c1-7-2-5(3-7)8(9)4-6(7)8/h5-6,9H,2-4H2,1H3	InChI=1S/C8H12O/c1-7-2-5(3-7)8(9)4-6(7)8/h5-6,9H,2-4H2,1H3/t5-,6-,7+,8-/m0/s1
