15
gdb 19547	4.22877	1.7671	1.7245	2.9062	66.78	-0.249	-0.0311	0.2179	807.6362	0.119783	-362.60342	-362.597067	-362.596123	-362.634091	24.241	
O	-0.2570832877	 0.0709859763	-0.2141212291	-0.270078
C	-0.0283197522	 1.2380238856	 0.001406287	 0.005048
C	 1.3050303641	 1.8331353079	 0.0358939142	 0.293055
C	 1.9212614605	 2.8324494945	 0.9784115652	-0.072554
C	 3.2244101727	 2.0315429156	 1.0251531632	-0.241678
C	 2.7782344204	 1.4347816491	-0.3368720652	-0.138153
C	 2.7434557781	 2.6825685137	-1.2336437497	-0.148471
N	 1.6116608044	 3.2435471865	-0.4109931651	-0.179733
H	-0.8376776641	 1.9753828989	 0.2019811087	 0.083151
H	 1.4340788866	 3.3937993482	 1.7652481223	 0.115568
H	 4.1728550909	 2.5780681398	 1.0533782765	 0.104558
H	 3.1924635962	 1.2930060985	 1.8288946041	 0.121697
H	 3.1298196486	 0.4652805435	-0.6780225483	 0.098755
H	 3.6361782643	 3.3167974216	-1.2729510256	 0.105516
H	 2.3686232472	 2.4929882402	-2.2411532283	 0.123318
100.6985	166.2533	254.9497	421.6367	477.2924	491.0452	656.0729	727.2375	753.8648	807.1655	844.1562	913.4576	950.2188	966.774	988.4788	1000.221	1027.0174	1043.2222	1078.1111	1124.5452	1149.3284	1169.8408	1193.8341	1227.7447	1256.525	1280.3194	1320.2069	1373.1079	1429.0542	1490.7046	1512.0188	1797.4853	2883.7594	3041.7104	3050.6737	3118.4456	3121.6399	3163.4023	3206.2481
O=CC12C3CC1CN23	O=C[C@@]12[C@H]3C[C@@H]1CN23	
InChI=1S/C6H7NO/c8-3-6-4-1-5(6)7(6)2-4/h3-5H,1-2H2	InChI=1S/C6H7NO/c8-3-6-4-1-5(6)7(6)2-4/h3-5H,1-2H2/t4-,5-,6+,7?/m1/s1
