17
gdb 82458	2.42281	1.78542	1.39655	3.5102	67.17	-0.2287	0.0542	0.2829	966.2141	0.13502	-458.898587	-458.890544	-458.8896	-458.930449	32.224	
O	 0.2120184473	 1.4106262473	 0.0408176486	-0.444192
C	 0.0476780674	 0.0178632433	 0.0805711836	 0.109308
C	 0.2121112335	-0.7769553367	 1.4252602169	-0.112383
C	-0.8312740001	-0.1483830073	 2.3948075675	-0.304755
C	-1.8591268069	-0.7410601756	 1.440017835	 0.28625
O	-3.2370989725	-0.7940470595	 1.5425569509	-0.473765
C	-0.8840821392	-1.7806454063	 0.9059915369	-0.256208
C	-1.3237617583	-0.6232230833	 0.0087178399	 0.331781
O	-2.1899840179	-0.6152519825	-1.0552237081	-0.473498
H	-0.5203951106	 1.8168659381	 0.5146363152	 0.285147
H	 0.7160690915	-0.3950334257	-0.6805333678	 0.097953
H	 1.1989555727	-1.0588236365	 1.7798032667	 0.081601
H	-0.8319094721	-0.6580816448	 3.3634721821	 0.096355
H	-0.798945143	 0.936809391	 2.553196728	 0.084631
H	-3.4843910589	-1.4709727528	 2.1814195073	 0.295568
H	-0.9228332393	-2.8518488527	 0.7807323796	 0.102446
H	-3.0857145737	-0.5975574561	-0.6909410723	 0.293761
156.5407	215.825	241.0765	271.4839	307.1906	313.2393	365.4974	417.8324	473.432	515.2289	607.9896	627.4	682.8876	695.1375	788.3963	814.5209	862.4962	884.5211	963.2702	975.4452	1001.9	1047.4352	1069.0314	1092.6829	1124.0103	1138.3599	1172.3506	1228.0404	1244.0509	1260.7356	1281.9489	1295.9744	1350.5306	1407.5041	1424.3231	1468.041	1510.4247	3022.9976	3080.6576	3084.0423	3163.0538	3238.9299	3750.8644	3804.3098	3825.2393
OC1C2CC3(O)C2C13O	O[C@H]1[C@H]2C[C@]3(O)[C@H]2[C@]13O	
InChI=1S/C6H8O3/c7-4-2-1-5(8)3(2)6(4,5)9/h2-4,7-9H,1H2	InChI=1S/C6H8O3/c7-4-2-1-5(8)3(2)6(4,5)9/h2-4,7-9H,1H2/t2-,3-,4-,5-,6-/m0/s1
