15
gdb 52638	2.69675	0.68756	0.56454	4.2094	89.76	-0.2668	-0.046	0.2208	1881.6917	0.110973	-379.619413	-379.609195	-379.608251	-379.657095	34.122	
C	-0.0276306489	 1.5005476843	 0.0347492495	-0.499003
C	 0.0037866832	 0.0462232178	 0.0126800015	 0.073439
C	 0.0284343013	-1.1561348574	 0.0001763394	 0.134009
C	 0.0614569222	-2.62033101	-0.0316928911	-0.376218
N	-1.2900794467	-3.1786385706	 0.1503517977	-0.479883
C	 0.7261159342	-3.0874992504	-1.2640669433	 0.187075
C	 1.2295423379	-3.5185116655	-2.2751690085	-0.028822
C	 1.7989545745	-3.9984866389	-3.4191289153	 0.210961
N	 2.2824484621	-4.4091955686	-4.3925090405	-0.335652
H	 0.713424656	 1.9003497656	 0.7349068699	 0.15697
H	 0.188031692	 1.9156153562	-0.9554363445	 0.157672
H	-1.0118704457	 1.8671001984	 0.3449702521	 0.157798
H	 0.6652435208	-2.9755024096	 0.8163029986	 0.154603
H	-1.8848815388	-2.8610695648	-0.610223746	 0.244693
H	-1.2433295241	-4.1922480666	 0.0839042305	 0.24236
15.6394	49.1245	97.5196	126.2147	153.5822	238.0735	257.2759	287.3019	322.3218	380.4406	459.2356	478.778	556.8107	574.9245	600.7866	744.1175	773.4319	900.1219	1050.3202	1052.1224	1053.2907	1131.7637	1173.9781	1194.1729	1314.2355	1386.1438	1413.5369	1475.2567	1475.9595	1652.5739	2258.2497	2381.085	2395.9338	3002.441	3033.3083	3097.5777	3097.6388	3485.1013	3571.0664
CC#CC(N)C#CC#N	CC#C[C@@H](N)C#CC#N	
InChI=1S/C7H6N2/c1-2-4-7(9)5-3-6-8/h7H,9H2,1H3	InChI=1S/C7H6N2/c1-2-4-7(9)5-3-6-8/h7H,9H2,1H3/t7-/m1/s1
