16
gdb 38546	3.12126	2.32028	1.94917	3.6237	69.65	-0.2277	-0.0211	0.2066	763.5215	0.12769	-400.695008	-400.689538	-400.688594	-400.724434	24.179	
C	-0.027896548	 1.5252029777	-0.0649659898	-0.241631
C	 1.4314327132	 2.0368043897	 0.0351478422	-0.080659
C	 2.2795154527	 1.6717215985	 1.2570878199	-0.017055
N	 1.5029564512	 0.9797674545	 2.2608911245	-0.216018
C	 1.0876831787	-0.0591127018	 1.6577987962	 0.260496
O	-0.2357612718	-0.4588105153	 1.5191180829	-0.273519
C	-0.0041455015	-0.0241001266	 0.1038529233	 0.064142
C	 1.5248932482	-0.3330705275	 0.2252070847	-0.133414
C	 2.3736946196	 0.8647000061	-0.0667768513	-0.105668
H	-0.6988718144	 1.9753967318	 0.670725852	 0.140908
H	-0.4097295188	 1.769467275	-1.0615237939	 0.112543
H	 1.6754782892	 2.9635507874	-0.4727455058	 0.093416
H	 3.0607781154	 2.3491115148	 1.5805553011	 0.096286
H	-0.6539892627	-0.6019186609	-0.5533984177	 0.105312
H	 1.8451700887	-1.3398311953	-0.0279327541	 0.098768
H	 3.2585621701	 0.8420100219	-0.6868412243	 0.096093
267.4279	394.9795	501.4684	530.0658	619.8998	669.4888	683.0987	701.1029	737.6002	770.4285	801.1966	826.8632	851.0418	902.4691	914.6867	957.0567	976.9895	983.2747	1005.8176	1021.0276	1053.111	1080.1498	1094.6094	1111.877	1149.3093	1199.3455	1224.3291	1264.8319	1286.1218	1309.9341	1314.3984	1329.3366	1379.7236	1468.0093	1650.3498	3057.5107	3111.6804	3119.0325	3158.7914	3168.4657	3187.68	3215.0001
C1C2C3N=C4OC1C4C23	C1[C@H]2[C@H]3[N][C]4O[C@@H]1[C@H]4[C@@H]23	
InChI=1S/C7H7NO/c1-2-4-5-3(1)9-7(5)8-6(2)4/h2-6H,1H2	InChI=1S/C7H7NO/c1-2-4-5-3(1)9-7(5)8-6(2)4/h2-6H,1H2/t2-,3+,4-,5+,6-/m1/s1
