17
gdb 124726	2.6718	1.46905	0.97932	6.1247	70.71	-0.2182	0.0143	0.2325	1167.3032	0.13709	-455.143949	-455.135777	-455.134832	-455.176807	31.023	
C	 0.0965256031	 1.3963643709	 1.2244989255	-0.39209
C	-0.1877686895	 0.5328607044	-0.009719106	-0.110224
N	 0.8348330498	-0.524401308	-0.2395503188	-0.535676
H	-0.1727470605	-1.78645573	-1.1902910591	 0.313217
H	 1.7127081244	-0.1052496108	-0.5312125815	 0.243174
H	 1.0192361271	-1.0085401317	 0.6369979411	 0.244111
C	-1.5299006823	-0.1435453817	 0.0380065198	 0.02869
C	-1.8345637205	-1.3324361923	-0.5819401531	 0.446715
O	-1.0854723287	-2.1624597565	-1.286988252	-0.401219
O	-3.1076913574	-1.6671015778	-0.3997999221	-0.206084
N	-3.7272425451	-0.6589933541	 0.3787506306	-0.16326
C	-2.7745628401	 0.2111226172	 0.6158007316	-0.061264
H	 1.0807316793	 1.8694684637	 1.1461606098	 0.112064
H	-0.6483777979	 2.1914432499	 1.3301904018	 0.129895
H	 0.072596642	 0.78945708	 2.1362409817	 0.123387
H	-0.1343449439	 1.1805906728	-0.8966257885	 0.105049
H	-3.0203313597	 1.0843813539	 1.2055248392	 0.123515
70.2456	168.5676	209.5585	252.4763	295.2983	321.2489	355.8687	421.6312	469.3241	520.4078	626.882	655.2355	735.3186	749.9233	859.2371	890.842	896.355	912.3421	948.1698	969.3641	1011.1201	1076.6145	1111.2732	1189.6086	1211.3947	1222.3871	1294.766	1352.9029	1388.4455	1406.6177	1419.0793	1485.5359	1489.9394	1499.6081	1567.6306	1641.1054	1670.6562	2996.4232	3030.5904	3104.3896	3106.7351	3228.3372	3301.9862	3476.8182	3563.2494
CC([NH3+])C1=C([O-])ON=C1	C[C@@H](N)c1c(O)onc1	
InChI=1S/C5H8N2O2/c1-3(6)4-2-7-9-5(4)8/h2-3,8H,6H2,1H3	InChI=1S/C5H8N2O2/c1-3(6)4-2-7-9-5(4)8/h2-3,8H,6H2,1H3/t3-/m1/s1
