18
gdb 107081	3.12803	1.12949	0.96781	4.2351	76.77	-0.2602	0.0027	0.263	1265.1565	0.146673	-401.922493	-401.913807	-401.912862	-401.956219	32.165	
C	-0.1147961229	 1.5117861653	-0.051592028	-0.379442
C	 0.1067523285	-0.0041590422	 0.0470454843	-0.292049
C	 0.7154283971	-0.5685597659	-1.1958379203	 0.491218
C	 0.0273162393	-1.0022655577	-2.4523668705	-0.346522
C	 0.9602934594	-1.9620801751	-1.7367198809	-0.198021
C	 2.3959852011	-1.4860510594	-1.9651259371	-0.039679
O	 2.0627225587	-0.1468211317	-1.5260730508	-0.318792
C	 3.3858592171	-2.1090856115	-1.0814137403	 0.291172
N	 4.1616148134	-2.6205948605	-0.3949129847	-0.317095
H	 0.8306517925	 2.0281995894	-0.2402031153	 0.141167
H	-0.8025332495	 1.7581925284	-0.8666542898	 0.120316
H	-0.5353877466	 1.9024756344	 0.8790876302	 0.118112
H	 0.7602353008	-0.2318878965	 0.8972720512	 0.120801
H	-0.8450253233	-0.5175335518	 0.2276296479	 0.107951
H	-1.0238200283	-1.2539999637	-2.3498488002	 0.125779
H	 0.3065966475	-0.5655772281	-3.4073011362	 0.12201
H	 0.6716468633	-2.9361604004	-1.3685059713	 0.124657
H	 2.7704184918	-1.500711413	-2.9957124282	 0.128416
69.9615	96.6227	170.5278	187.9097	214.0015	307.6071	370.1241	406.0665	443.4794	498.6619	553.1461	685.8984	780.9406	826.6113	831.9014	888.3356	922.0231	966.1455	967.2022	983.7814	996.7024	1039.6307	1048.6659	1071.7356	1092.6099	1128.1328	1193.8554	1238.7319	1259.7207	1300.3394	1346.6868	1364.0498	1407.1821	1417.4619	1474.8952	1488.1045	1498.7213	1511.1581	2360.5668	3034.4787	3041.7985	3042.9783	3072.3536	3114.2351	3116.2068	3121.5668	3208.2225	3220.0685
CCC12CC1C(O2)C#N	CC[C@]12C[C@H]1[C@@H](O2)C#N	
InChI=1S/C7H9NO/c1-2-7-3-5(7)6(4-8)9-7/h5-6H,2-3H2,1H3	InChI=1S/C7H9NO/c1-2-7-3-5(7)6(4-8)9-7/h5-6H,2-3H2,1H3/t5-,6-,7-/m0/s1
