20
gdb 83776	2.95619	1.73608	1.52049	1.2552	77.27	-0.2085	0.0742	0.2827	968.1066	0.173583	-403.101981	-403.094937	-403.093993	-403.132977	29.368	
C	 0.1149577844	 1.3196358098	-0.295178256	-0.329275
N	 0.0265245278	-0.0919019119	 0.0518759593	-0.097608
C	-1.2777575837	-0.4827200598	 0.7069446979	-0.045682
C	-1.523387005	-1.9569478219	 0.3828706068	-0.199162
C	-0.1802865527	-2.7029486784	 0.6060341406	-0.210892
C	 0.5672892557	-1.9396381278	 1.6952689091	 0.07236
O	-0.3869132125	-1.6346160592	 2.7653515782	-0.305526
C	-0.6159513327	-0.3651083699	 2.1455594749	 0.109571
C	 0.6848041052	-0.408461707	 1.3389446183	-0.038008
H	 1.1385977521	 1.5549114987	-0.6057007273	 0.118958
H	-0.5470933339	 1.5253788119	-1.1424365798	 0.119902
H	-0.1571607268	 2.0124789738	 0.5227032899	 0.092224
H	-2.1192366852	 0.1744739121	 0.4745940021	 0.065371
H	-2.294814856	-2.3533469888	 1.0493751213	 0.108583
H	-1.8716845728	-2.0701503685	-0.6474538222	 0.09775
H	-0.3468662991	-3.739512729	 0.9131440344	 0.099235
H	 0.4165677544	-2.7094593027	-0.3102377045	 0.113329
H	 1.4558946202	-2.44270548	 2.0833771815	 0.076738
H	-0.9676134986	 0.4031313584	 2.8361774476	 0.079819
H	 1.6214311092	 0.0997689902	 1.573718318	 0.072313
169.2805	231.7215	261.8323	304.126	366.6814	416.3115	465.5902	579.7838	676.2456	721.4149	768.8814	798.6236	812.0877	839.2397	874.3913	889.2633	938.3341	964.0626	993.9067	1008.3541	1048.2662	1064.8162	1077.6178	1118.5981	1137.4468	1153.8437	1171.916	1192.1314	1206.3141	1240.2568	1247.7333	1270.0482	1296.1037	1313.2796	1328.9687	1354.7873	1358.8293	1367.1222	1454.9387	1465.2814	1483.0515	1492.6125	1502.3094	2932.2199	3052.7387	3056.3028	3060.3307	3078.1744	3083.0963	3092.3134	3095.7063	3098.7864	3106.1257	3111.7228
CN1C2CCC3OC2C13	CN1[C@H]2CC[C@@H]3O[C@H]2[C@H]13	
InChI=1S/C7H11NO/c1-8-4-2-3-5-6(8)7(4)9-5/h4-7H,2-3H2,1H3	InChI=1S/C7H11NO/c1-8-4-2-3-5-6(8)7(4)9-5/h4-7H,2-3H2,1H3/t4-,5-,6+,7+/m0/s1
