15
gdb 11658	3.08021	2.10097	1.562	1.0316	62.29	-0.2528	-0.046	0.2067	825.0359	0.118591	-399.727552	-399.720357	-399.719413	-399.759291	26.66	
O	-0.1150916096	 1.5079519702	 0.1221053825	-0.434609
C	-0.0924088994	 0.1145870494	 0.0277059534	 0.107736
C	-0.0073910652	-0.7046125244	 1.3435621897	-0.055022
C	-1.4636194326	-0.2898077488	 1.6666909141	-0.234432
C	-1.4070284787	-0.7115500867	 0.160807453	 0.19933
N	-0.5962694683	-1.9087775563	 0.6172676786	-0.355514
C	-2.5377344985	-0.77549431	-0.8062588433	 0.020019
O	-2.7686416932	 0.1179934485	-1.586721143	-0.258444
H	-0.6055480982	 1.8405068225	-0.6384544895	 0.299202
H	 0.5724578245	-0.2423379544	-0.7734819996	 0.069612
H	 0.8350680118	-0.8091552081	 2.0269001575	 0.094227
H	-2.0137902053	-0.971962285	 2.3140668794	 0.114413
H	-1.6447074999	 0.7643264396	 1.8629100228	 0.127584
H	 0.0398204833	-2.1906656179	-0.1389514269	 0.210736
H	-3.1671035006	-1.6907929985	-0.7593496986	 0.095164
77.9088	110.9158	256.6266	318.7055	328.231	384.8843	455.2724	564.5523	601.7584	721.7805	804.7101	813.5051	905.5406	914.0676	954.2579	991.3816	1037.3105	1059.6224	1103.5163	1128.2747	1150.5922	1178.0864	1201.6792	1219.1683	1261.5348	1301.3531	1313.9974	1323.301	1408.3317	1411.6215	1482.6456	1803.7631	2899.2642	2994.4477	3101.8044	3122.6234	3191.5419	3353.3671	3803.2879
OC1C2CC1(N2)C=O	O[C@H]1[C@H]2C[C@@]1(N2)C=O	
InChI=1S/C5H7NO2/c7-2-5-1-3(6-5)4(5)8/h2-4,6,8H,1H2	InChI=1S/C5H7NO2/c7-2-5-1-3(6-5)4(5)8/h2-4,6,8H,1H2/t3-,4+,5-/m1/s1
