15
gdb 124076	5.02078	1.05315	0.99696	1.6587	66.53	-0.2635	-0.0357	0.2278	1168.5285	0.114392	-453.918555	-453.911303	-453.910359	-453.951794	25.567	
C	-0.0162933496	 1.4856839335	-0.1264018769	-0.082686
O	 1.3801546101	 1.5683927766	 0.206733317	-0.264514
C	 1.4357728212	 0.1695410995	 0.5351986825	-0.082578
C	-0.0078225657	-0.0626800079	 0.0079104908	-0.157729
C	-0.9943342053	-0.698550656	 0.9089002962	 0.423813
N	-1.7849185535	-1.7031012194	 0.6599429762	-0.320098
C	-2.4531992389	-1.8377473724	 1.8516994387	 0.035338
N	-2.115099929	-0.9892832811	 2.7823291066	-0.108212
O	-1.1297664522	-0.2165311455	 2.1540472629	-0.198846
H	-0.6491601703	 1.9962417351	 0.6092648476	 0.121991
H	-0.2296771509	 1.8735552922	-1.1277477935	 0.118394
H	 2.2288410632	-0.3549772607	-0.0075599582	 0.118436
H	 1.5523297318	 0.0007015792	 1.6123791002	 0.121903
H	-0.043470678	-0.5827294327	-0.9479664952	 0.123519
H	-3.2103020229	-2.5880246604	 2.0278215151	 0.151269
42.6968	77.9262	147.7792	215.9967	384.7818	401.1147	618.1882	657.7262	768.8076	827.8335	888.8922	916.3971	932.672	933.0507	980.1681	1009.2679	1013.5438	1041.8112	1050.6107	1106.6842	1166.013	1171.2335	1186.2575	1251.0928	1262.441	1313.7946	1323.6594	1340.7341	1386.2178	1509.2809	1516.4001	1536.6363	1622.1012	3022.7402	3032.8108	3079.1114	3079.6126	3134.4851	3261.562
C1OCC1C1=NC=NO1	C1OCC1c1ncno1	
InChI=1S/C5H6N2O2/c1-4(2-8-1)5-6-3-7-9-5/h3-4H,1-2H2	InChI=1S/C5H6N2O2/c1-4(2-8-1)5-6-3-7-9-5/h3-4H,1-2H2
