19
gdb 10083	2.16226	1.59137	1.03574	3.2782	70.38	-0.2605	0.0173	0.2777	1182.6196	0.163704	-402.197628	-402.18804	-402.187096	-402.23283	33.435	
C	-0.3826378223	 1.5199153982	-0.3783756848	-0.394725
C	-0.2194579646	 0.0209031883	-0.1209981942	-0.170884
C	 0.6459787682	-0.3005814167	 1.0947929951	 0.083432
C	 0.8244326125	-1.8035978664	 1.3341118965	-0.064602
O	 1.4601504328	-2.4396915293	 0.2463196534	-0.415537
O	 1.9584752394	 0.25390331	 0.8629515345	-0.20569
C	 2.6110694987	 0.8027129778	 1.9066542742	 0.126376
N	 3.827172614	 1.1200892272	 1.7955962446	-0.442079
H	 0.5859560412	 1.9927889378	-0.5602387111	 0.138894
H	-1.0152881108	 1.6971712619	-1.2528237189	 0.11819
H	-0.8492935288	 2.0238155022	 0.476136955	 0.108541
H	-1.1992894284	-0.4442662917	 0.0422354467	 0.100656
H	 0.2191226853	-0.4766527064	-0.9914439629	 0.123574
H	 0.2157866236	 0.1615601917	 1.9959961289	 0.0775
H	 1.3847637463	-1.9519174432	 2.2719522824	 0.088359
H	-0.1552787741	-2.278301487	 1.4548478326	 0.111952
H	 2.280368403	-1.9565811197	 0.0871388379	 0.297351
H	 1.9766667984	 0.9413142044	 2.7934999198	 0.088008
H	 4.1543187557	 1.5506075209	 2.6578907403	 0.230683
44.8729	96.854	107.3033	120.751	191.767	220.5897	268.1621	300.497	366.3349	437.9795	476.9557	576.246	683.0358	787.0474	822.2349	862.3116	901.9253	966.5921	996.8922	1043.478	1050.8951	1089.7171	1106.2044	1141.851	1168.2815	1234.2789	1281.5806	1288.2101	1316.4071	1367.6589	1376.3112	1408.4911	1412.8242	1423.6475	1430.3727	1482.7023	1498.8579	1499.7861	1509.7749	1741.9944	2969.0206	2997.0507	3019.408	3034.8776	3039.4231	3074.5291	3085.8284	3105.496	3123.8646	3519.387	3787.2959
CCC(CO)OC=N	CC[C@@H](CO)O[CH][NH]	
InChI=1S/C5H11NO2/c1-2-5(3-7)8-4-6/h4-7H,2-3H2,1H3	InChI=1S/C5H11NO2/c1-2-5(3-7)8-4-6/h4-7H,2-3H2,1H3/t5-/m0/s1
