17
gdb 88248	3.72913	0.72386	0.64081	3.9253	83.28	-0.2363	0.0071	0.2434	1703.7913	0.134628	-380.819072	-380.809553	-380.808609	-380.855598	33.13	
C	-0.3971170587	 1.3360616685	 0.0859629483	-0.312339
N	 0.0473531197	-0.0512853876	 0.0305962893	-0.073878
C	 1.4294224389	-0.2920936638	-0.3311551099	-0.237769
C	 0.9661226669	-0.5343732851	 1.0780904477	-0.17702
C	 1.4229888145	 0.318034056	 2.1414109152	 0.136631
C	 1.778372186	 1.0057531892	 3.0636956282	 0.055074
C	 2.2261594	 1.8370383533	 4.1777838169	-0.475759
C	 1.1339931127	 2.5835023007	 4.8183901801	 0.280191
N	 0.2847835964	 3.1772709683	 5.3274861991	-0.299133
H	 0.376037907	 2.0385252907	 0.4300506137	 0.111936
H	-0.7184250044	 1.6321383023	-0.9169555696	 0.127714
H	-1.2549978834	 1.4119901216	 0.7600122863	 0.136081
H	 1.6174516537	-1.1395326591	-0.9850803581	 0.124403
H	 2.0803937492	 0.5671668385	-0.485152007	 0.117999
H	 0.7658676409	-1.5597366991	 1.3805945268	 0.11969
H	 2.711786985	 1.2179360293	 4.9432861959	 0.184538
H	 2.9833786855	 2.5588607164	 3.8448571072	 0.18164
13.913	62.4047	115.2574	149.3632	218.6052	264.5897	309.4883	367.1471	379.1095	384.4351	467.1634	539.4509	620.7039	724.2516	774.8565	874.8222	920.7011	934.5982	982.038	1027.9281	1068.0632	1114.2864	1126.123	1162.3797	1198.9282	1209.0885	1235.4523	1322.3027	1338.4103	1377.7483	1445.9225	1451.3966	1490.9341	1493.9607	1507.6151	2365.1973	2373.2898	2997.4227	3024.4523	3054.6345	3082.7885	3093.4411	3116.5719	3129.4223	3184.1874
CN1CC1C#CCC#N	CN1C[C@H]1C#CCC#N	
InChI=1S/C7H8N2/c1-9-6-7(9)4-2-3-5-8/h7H,3,6H2,1H3	InChI=1S/C7H8N2/c1-9-6-7(9)4-2-3-5-8/h7H,3,6H2,1H3/t7-,9?/m1/s1
