23
gdb 121562	5.60235	0.41409	0.40045	0.7707	94.57	-0.2401	0.0443	0.2844	2847.7134	0.202643	-388.263368	-388.25167	-388.250725	-388.302631	39.763	
C	-0.376978458	 1.4463045699	 0.3803037989	-0.38175
C	-0.2623818122	-0.0735330655	 0.5110123976	-0.153931
C	 1.2023740133	-0.5441721509	 0.6199560921	-0.339007
C	 1.3399167021	-1.9900569672	 0.7480310703	 0.103329
C	 1.4248275943	-3.1856779534	 0.8606605011	 0.044053
C	 1.5403575481	-4.6334918414	 0.9680219433	-0.208402
O	 1.4820966203	-5.0328407729	 2.3245286095	-0.240747
C	 1.5914601062	-6.4337340307	 2.4792507017	-0.014777
C	 1.5174043741	-6.760803292	 3.9606960208	-0.386176
H	 0.1447777221	 1.8094316338	-0.5123518211	 0.11496
H	-1.4227355948	 1.7587948057	 0.3042407097	 0.114621
H	 0.0597993513	 1.9539892968	 1.2476361703	 0.116077
H	-0.8106586348	-0.4197237136	 1.394096496	 0.111434
H	-0.7276512598	-0.5630534666	-0.351887482	 0.10748
H	 1.7608294068	-0.2004011936	-0.2615047103	 0.12485
H	 1.6774241174	-0.056566312	 1.4821332296	 0.128312
H	 0.7314323246	-5.1177893448	 0.3925621194	 0.109923
H	 2.4887060134	-4.9688768888	 0.5117128325	 0.110533
H	 0.7813402712	-6.9428497341	 1.9286409001	 0.084204
H	 2.5433047769	-6.7920147319	 2.0499863145	 0.084365
H	 1.5983870122	-7.840641962	 4.1174042715	 0.113493
H	 2.3295668633	-6.2681993932	 4.5025723849	 0.128658
H	 0.5680288818	-6.4178971118	 4.3814155295	 0.128498
22.3288	60.4767	63.6842	101.5192	107.6588	120.3641	235.2791	240.433	244.2394	280.9195	297.3038	363.9012	414.362	490.6444	549.2861	742.676	806.6434	822.6626	871.5526	894.6311	910.4189	1029.5964	1030.5292	1042.8038	1108.8265	1121.294	1129.7645	1149.4259	1179.592	1189.2094	1254.8567	1260.0983	1295.2947	1306.7846	1322.4492	1379.73	1381.8897	1405.5992	1412.8423	1449.0183	1469.9292	1483.3172	1491.9899	1497.2467	1499.0384	1502.1578	1509.523	1532.1873	2372.8476	2937.6721	2951.3313	2955.2008	2971.4116	3009.5953	3029.4878	3036.3885	3042.2414	3045.6101	3073.7624	3100.1853	3105.4254	3119.5541	3123.3214
CCCC#CCOCC	CCCC#CCOCC	
InChI=1S/C8H14O/c1-3-5-6-7-8-9-4-2/h3-5,8H2,1-2H3	InChI=1S/C8H14O/c1-3-5-6-7-8-9-4-2/h3-5,8H2,1-2H3
