23
gdb 109389	2.98302	1.08351	0.86921	1.154	88.9	-0.2308	0.0155	0.2463	1432.9219	0.206997	-388.2991	-388.289825	-388.28888	-388.333407	35.32	
C	 0.2503670446	 1.6131109927	-0.0931195205	-0.372058
C	-0.1197221662	 0.1293362285	 0.0843686633	-0.279172
C	 0.6162920413	-0.5418622191	 1.221022267	 0.321774
C	-0.0230469966	-0.9435172698	 2.3231524041	-0.159222
C	 0.5932291165	-1.5897437063	 3.5427830074	-0.257678
C	 1.5050155772	-2.7960995181	 3.2639071417	-0.187581
C	 2.7984499934	-2.4522848112	 2.524736618	-0.063966
O	 2.6094556244	-2.0268020863	 1.1898403225	-0.235018
C	 2.1194065885	-0.7058716313	 1.0395402379	-0.17282
H	 1.3190891787	 1.7448084007	-0.2932709028	 0.118412
H	-0.2977022845	 2.0533950263	-0.9321009976	 0.113668
H	 0.0083023703	 2.1832723631	 0.8094032086	 0.118585
H	-1.1992022824	 0.0461931432	 0.2505605028	 0.098437
H	 0.0963274597	-0.4034103091	-0.8525710175	 0.103443
H	-1.0997119026	-0.7868158078	 2.3665622749	 0.076912
H	 1.1693408504	-0.8386685174	 4.1062993757	 0.104806
H	-0.2105308441	-1.9064970498	 4.2155422371	 0.099268
H	 1.7804717097	-3.2625862113	 4.2189347828	 0.089593
H	 0.9573904847	-3.5469264217	 2.6831308404	 0.106434
H	 3.357373467	-1.6844749084	 3.0891019752	 0.078787
H	 3.4353161301	-3.3413124454	 2.4619854377	 0.101679
H	 2.3966308936	-0.4114783942	 0.0221183533	 0.102808
H	 2.6579757062	-0.0303453672	 1.7277001578	 0.092908
62.5638	81.7012	168.9802	209.0402	219.1893	278.5776	339.4957	354.7973	410.4126	424.5917	497.1935	549.8846	638.9545	778.2283	795.516	819.8756	853.8921	901.1051	913.3874	936.7267	979.8617	1006.4362	1025.2579	1062.1963	1085.5522	1103.8748	1130.623	1147.1632	1196.8978	1219.0392	1271.1945	1281.8371	1291.1819	1338.3875	1346.248	1368.1514	1373.5446	1392.1043	1406.7836	1409.7443	1424.9838	1471.6043	1476.3976	1480.3563	1486.126	1497.2999	1499.7176	1506.7422	1731.7234	2945.1048	2950.7771	2984.399	3007.5761	3020.7356	3032.2063	3061.904	3063.2336	3064.5504	3068.6684	3075.0545	3101.0012	3107.4397	3133.5179
CCC1=CCCCOC1	CCC1=CCCCOC1	
InChI=1S/C8H14O/c1-2-8-5-3-4-6-9-7-8/h5H,2-4,6-7H2,1H3	InChI=1S/C8H14O/c1-2-8-5-3-4-6-9-7-8/h5H,2-4,6-7H2,1H3
