17
gdb 30760	2.93178	1.2959	0.93384	1.8356	72.95	-0.1883	0.0266	0.2149	1217.6185	0.13722	-455.153706	-455.144707	-455.143763	-455.187299	33.683	
N	 0.102759454	 1.3879583757	 0.1623643462	-0.618847
C	 0.0169433918	-0.0083332074	 0.0173860453	 0.176349
C	-1.0660377596	-0.8255160605	-0.1094121586	-0.112563
O	-0.6788806622	-2.133563303	-0.1351532783	-0.196568
C	 0.6874899982	-2.1506362489	-0.0365953229	 0.256782
C	 1.3862021352	-3.465250408	-0.0463839566	-0.185311
O	 2.4581025101	-3.5022486785	 0.9015739556	-0.412947
C	 1.1635212575	-0.8745162778	 0.068317301	 0.097386
N	 2.491326746	-0.4283039798	 0.1389024443	-0.628041
H	 0.7863140405	 1.7840594422	-0.4748709242	 0.249333
H	-0.7854952291	 1.8492857762	 0.0101721296	 0.242555
H	-2.1252907143	-0.6407563294	-0.1754732484	 0.118857
H	 0.6514675146	-4.2644443135	 0.1285465424	 0.112246
H	 1.8683299928	-3.6732101221	-1.0096525605	 0.123552
H	 2.0759928107	-3.2897796182	 1.7606425766	 0.282662
H	 3.1152042823	-1.1849580451	 0.3966005864	 0.250982
H	 2.5912706515	 0.3348436781	 0.7997704421	 0.243573
76.773	126.9197	194.2055	200.3662	235.4045	286.1812	354.5969	388.1153	395.8518	441.8211	496.7865	591.6541	619.0403	674.9181	698.7231	729.043	773.1931	815.6238	853.2495	943.0082	1001.9231	1032.6101	1120.2039	1141.9324	1178.3731	1233.3332	1257.7781	1305.339	1325.7177	1373.8822	1417.7367	1497.8866	1502.3482	1613.0612	1634.9051	1655.6371	1708.4093	3003.2871	3044.7449	3274.2643	3504.672	3508.0684	3597.7509	3604.8625	3798.5081
NC1=COC(CO)=C1N	Nc1coc(CO)c1N	
InChI=1S/C5H8N2O2/c6-3-2-9-4(1-8)5(3)7/h2,8H,1,6-7H2	InChI=1S/C5H8N2O2/c6-3-2-9-4(1-8)5(3)7/h2,8H,1,6-7H2
