22
gdb 123212	10.53147	0.37384	0.36591	3.9521	84.66	-0.2693	0.0375	0.3068	2824.8599	0.192895	-404.369023	-404.357938	-404.356994	-404.406738	38.025	
O	-0.0642629968	 1.4852760256	 0.0107779554	-0.421168
C	 0.0400561398	 0.0694065823	 0.0020398518	-0.074436
C	-1.3706989959	-0.5042402873	 0.0124516492	-0.166343
C	-1.3946371748	-2.0352405256	 0.0043170692	-0.191999
C	-2.8145640049	-2.6118156022	 0.0147829026	-0.183276
C	-2.8374026231	-4.142793942	 0.0066614051	-0.181702
C	-4.2746849624	-4.7009325961	 0.0174997316	-0.341871
C	-4.3135448292	-6.1617270299	 0.0101761481	 0.256592
N	-4.3247568137	-7.3172974705	 0.0039213255	-0.30534
H	 0.8240259151	 1.8534833283	 0.0042710707	 0.286141
H	 0.5794269226	-0.2852962875	-0.8919252512	 0.084351
H	 0.5964541217	-0.2949874614	 0.8815550553	 0.084351
H	-1.893092486	-0.1226474137	 0.8984490677	 0.105961
H	-1.9099708992	-0.1130473444	-0.8591292603	 0.105961
H	-0.8602302533	-2.407791937	-0.8804801147	 0.098776
H	-0.8433930531	-2.4173778494	 0.8745777013	 0.098776
H	-3.3509950523	-2.2428549731	 0.899778414	 0.100705
H	-3.3678328029	-2.2332923605	-0.8556876495	 0.100705
H	-2.314209036	-4.522413625	-0.8783991321	 0.120352
H	-2.2973240994	-4.5319548046	 0.877315348	 0.12035
H	-4.8134007378	-4.3444483823	 0.9035285033	 0.151553
H	-4.8303078985	-4.3350699238	-0.8541763909	 0.15156
43.5495	66.2318	77.8739	104.0142	146.9365	152.1933	159.9509	248.0911	266.8241	293.4391	400.8654	423.9267	484.7946	565.0395	735.27	751.0905	798.7145	884.8175	933.4778	993.9639	995.8086	1008.8692	1049.8889	1062.4183	1071.0405	1096.777	1142.3164	1198.6277	1220.1427	1254.0412	1268.0261	1301.4807	1309.4083	1316.006	1333.7956	1337.409	1355.6015	1391.6162	1406.3887	1466.2743	1468.8441	1486.0534	1488.69	1499.5123	1512.2596	1529.9253	2362.1258	2957.395	2982.2218	3005.0462	3011.3658	3029.0383	3030.3182	3034.5871	3044.8023	3047.3904	3067.6246	3076.0545	3091.745	3829.1648
OCCCCCCC#N	OCCCCCCC#N	
InChI=1S/C7H13NO/c8-6-4-2-1-3-5-7-9/h9H,1-5,7H2	InChI=1S/C7H13NO/c8-6-4-2-1-3-5-7-9/h9H,1-5,7H2
