19
gdb 39082	3.44711	1.71715	1.46897	1.6798	79.05	-0.2218	0.0104	0.2322	942.9014	0.162579	-385.859151	-385.852789	-385.851845	-385.889383	27.796	
C	-0.0657101505	 1.6234681891	 0.2585740732	-0.285541
C	 1.4536368343	 1.4079712811	 0.0278367379	-0.124868
C	 1.7327060883	 0.4586888343	 1.2246274011	-0.08443
O	 0.5853239925	-0.4426786949	 1.1579646468	-0.352719
C	-0.0553857369	 0.0742080834	-0.003740394	 0.496794
C	-1.1452583503	-0.6056722717	-0.7564586607	-0.226917
C	-0.9567595944	-0.3657376258	-2.0611181192	-0.047902
C	 0.2983664611	 0.4665745106	-2.3455954665	-0.350204
C	 1.0801227825	 0.3146428019	-1.0231753151	 0.005444
H	-0.3969232341	 1.952565662	 1.2461230103	 0.095982
H	-0.5577724759	 2.1980274206	-0.525226803	 0.105255
H	 2.1676109704	 2.2164507742	-0.1315861677	 0.068493
H	 2.6582344456	-0.1189864264	 1.1199872245	 0.101508
H	 1.7390715809	 0.9786499686	 2.1887892192	 0.102105
H	-1.9864047299	-1.1258906455	-0.3159490533	 0.104145
H	-1.6385730041	-0.6664939243	-2.8499702711	 0.09703
H	 0.8582264927	 0.1005981355	-3.2121563333	 0.10604
H	 0.0220588014	 1.5042007803	-2.5738756379	 0.114704
H	 1.7888617064	-0.515936553	-1.1001034412	 0.075081
235.5451	278.5916	345.2672	404.8824	473.2054	495.7725	558.9777	629.9944	686.2389	735.8472	764.3258	829.9229	863.1591	895.1482	905.5819	912.9043	933.966	950.2307	961.2491	995.0667	1020.4987	1044.0677	1063.7227	1077.5345	1103.9718	1145.879	1150.9167	1173.2247	1181.9186	1215.9514	1242.4129	1254.9884	1268.5131	1306.9779	1348.1759	1374.0403	1391.445	1479.2193	1505.3686	1524.67	1641.1651	3025.98	3028.5283	3052.3518	3072.0341	3074.0065	3076.7969	3112.2055	3148.9478	3183.7235	3218.7624
C1C2COC11C=CCC21	C1[C@H]2CO[C@]31C=CC[C@@H]23	
InChI=1S/C8H10O/c1-2-7-6-4-8(7,3-1)9-5-6/h1,3,6-7H,2,4-5H2	InChI=1S/C8H10O/c1-2-7-6-4-8(7,3-1)9-5-6/h1,3,6-7H,2,4-5H2/t6-,7-,8-/m0/s1
