17
gdb 32757	3.15776	1.10922	0.85476	1.7775	72.32	-0.1922	0.0276	0.2198	1343.551	0.134856	-458.975795	-458.966894	-458.96595	-459.010228	32.292	
C	-0.0937207183	 1.4695576827	 0.0372623169	-0.387009
C	-0.1971406524	 0.003836401	-0.3351503455	-0.060574
O	-1.2372127547	-0.5862621901	 0.4752400312	-0.288002
C	-1.4861261837	-1.8838114736	 0.2398426237	 0.268604
C	-2.6194906636	-2.5026696185	-0.1903172735	 0.196477
O	-3.7990291355	-1.9370364181	-0.565451898	-0.448233
C	-2.3458433506	-3.9082409457	-0.1694024846	-0.25966
C	-1.0650270979	-4.0301933876	 0.2664826293	-0.005287
O	-0.5215651044	-2.8091105106	 0.5316031477	-0.17884
H	 0.6922932813	 1.9511580259	-0.551695951	 0.123397
H	-1.0374746908	 1.9877276654	-0.1555091505	 0.126062
H	 0.1496411167	 1.5800858652	 1.0974969187	 0.135221
H	-0.4536064706	-0.1291603716	-1.3944612723	 0.104889
H	 0.7445447755	-0.5229414408	-0.1440416971	 0.121691
H	-3.7268224113	-0.987283478	-0.4156729086	 0.2989
H	-3.0204116865	-4.7017787357	-0.4478970879	 0.117961
H	-0.4184961932	-4.8751058198	 0.4327699615	 0.134402
56.3431	68.4698	121.3315	233.835	268.6758	290.5041	331.204	347.106	397.7828	522.5614	619.9803	649.2342	671.0067	717.826	777.1737	813.4714	816.9126	884.4115	919.2071	1044.4827	1062.0964	1103.4892	1132.1514	1171.5007	1182.7836	1216.8613	1290.7035	1300.7112	1346.9654	1399.0266	1421.801	1483.2332	1499.7779	1500.5442	1524.8358	1552.5197	1717.1802	3017.2869	3047.1275	3067.1598	3121.9399	3126.3269	3262.3847	3289.3786	3805.6598
CCOC1=C(O)C=CO1	CCOc1c(O)cco1	
InChI=1S/C6H8O3/c1-2-8-6-5(7)3-4-9-6/h3-4,7H,2H2,1H3	InChI=1S/C6H8O3/c1-2-8-6-5(7)3-4-9-6/h3-4,7H,2H2,1H3
