18
gdb 76586	3.13665	0.80693	0.7631	5.8385	93.15	-0.2597	-0.0363	0.2234	1552.3969	0.146485	-364.800875	-364.791208	-364.790263	-364.835901	34.537	
C	-0.1583506147	 1.5518039894	 0.0593518996	-0.413677
C	 0.0216792682	 0.0542504758	-0.0391195129	-0.018282
C	 0.6852023294	-0.6247033964	-1.2016503724	-0.018289
C	 1.2419315034	 0.1189672415	-2.3940358848	-0.41368
C	 1.3955622708	-0.6059085905	 0.1617027523	-0.254212
C	 2.5591991032	 0.1869634372	 0.3627922174	 0.144381
C	 3.5567658425	 0.8500612524	 0.5450177003	 0.004059
C	 4.6767182786	 1.6004288884	 0.7465501572	 0.198491
N	 5.6308205323	 2.2429974924	 0.9165459575	-0.343881
H	 0.7013626922	 2.1007271668	-0.3299674091	 0.135361
H	-1.0442433244	 1.8681846477	-0.5011997353	 0.125991
H	-0.2956765536	 1.854773394	 1.1021336209	 0.131204
H	-0.7825132412	-0.5132228816	 0.4219232488	 0.101498
H	 0.2841224242	-1.6046574146	-1.4468758244	 0.101496
H	 1.7188556861	 1.0597279049	-2.1120689383	 0.135365
H	 1.9933298813	-0.4878559977	-2.9090188018	 0.131199
H	 0.4449097008	 0.3446808957	-3.1102285172	 0.125992
H	 1.4014015307	-1.5423596554	 0.711962412	 0.126984
71.4558	74.4542	163.4296	164.9625	177.6231	193.1946	248.0568	337.4145	369.2023	475.3438	492.1886	555.5595	579.9026	618.3062	724.9339	724.9926	784.8145	906.3929	922.8154	968.86	1032.3431	1070.3174	1073.5823	1126.3076	1149.8776	1190.2068	1198.6333	1264.5757	1375.1811	1378.6208	1422.4457	1425.4935	1430.8513	1484.0048	1491.9282	1498.9788	1510.9899	2255.7249	2383.663	3040.8588	3044.2099	3101.5496	3102.9073	3120.8812	3130.6342	3140.1839	3144.2033	3156.2073
CC1C(C)C1C#CC#N	C[C@H]1[C@@H](C)[C@H]1C#CC#N	
InChI=1S/C8H9N/c1-6-7(2)8(6)4-3-5-9/h6-8H,1-2H3	InChI=1S/C8H9N/c1-6-7(2)8(6)4-3-5-9/h6-8H,1-2H3/t6-,7+,8-
