19
gdb 66131	2.48034	1.57391	1.29526	0.9178	74.31	-0.2531	-0.0307	0.2224	1053.0321	0.158599	-423.034572	-423.026122	-423.025178	-423.067779	32.011	
C	 0.1188194406	 1.6024956975	 0.2408592667	-0.457784
C	 0.0138172473	 0.074855967	 0.0926407883	 0.168501
C	 0.6870118659	-0.4730248453	-1.1921052974	-0.259561
C	 1.2508392812	-1.869065624	-0.8335548425	-0.252796
C	 1.4913971631	-1.7968083134	 0.6596025627	 0.053916
O	 2.1742991186	-0.5990953937	 1.0776705203	-0.267964
C	 0.7531014222	-0.6603282563	 1.2179114227	 0.010195
C	-1.4536989853	-0.324920942	 0.1830825764	 0.133342
O	-2.058396748	-0.96352507	-0.6391001334	-0.250562
H	 1.1695189768	 1.8851435966	 0.3465903407	 0.144873
H	-0.2924936701	 2.1126482559	-0.6357695441	 0.128117
H	-0.4210005542	 1.9612950412	 1.1244706423	 0.116766
H	-0.0284885584	-0.5199745163	-2.0145734913	 0.120739
H	 1.4996374683	 0.1968165471	-1.479351058	 0.111038
H	 0.5140972935	-2.6551819216	-1.0332919451	 0.121121
H	 2.1574792962	-2.1121237535	-1.3956086916	 0.110853
H	 1.7255896031	-2.6855378127	 1.2398522868	 0.097495
H	 0.3787042629	-0.6247981024	 2.2391762952	 0.094553
H	-1.9619858538	 0.0318469359	 1.1103413313	 0.077157
60.1786	120.8377	195.6459	237.376	289.1753	310.3278	326.5115	377.9585	432.018	561.3524	640.2194	689.9134	780.068	825.2224	837.8161	871.9741	911.8576	929.0986	956.2839	1000.9917	1005.6309	1016.3111	1043.6048	1112.9468	1154.2458	1160.1025	1202.4854	1247.5725	1256.5861	1265.7619	1317.3039	1331.4032	1359.9436	1400.1394	1423.8336	1439.3106	1473.7264	1486.5023	1495.2399	1500.7452	1827.9108	2850.0664	3032.3612	3048.3744	3079.3922	3093.7844	3099.3897	3120.8927	3129.9169	3133.2906	3153.4773
CC1(CCC2OC12)C=O	C[C@]1(CC[C@H]2O[C@@H]12)C=O	
InChI=1S/C7H10O2/c1-7(4-8)3-2-5-6(7)9-5/h4-6H,2-3H2,1H3	InChI=1S/C7H10O2/c1-7(4-8)3-2-5-6(7)9-5/h4-6H,2-3H2,1H3/t5-,6-,7+/m1/s1
