21
gdb 57434	2.5235	1.29562	1.11545	3.1004	83.72	-0.2474	0.0139	0.2613	1207.8731	0.180196	-383.259833	-383.249848	-383.248904	-383.294142	37.686	
C	 0.3142479161	 1.5662196818	 0.1842120529	-0.441869
C	-0.0537146864	 0.0712920435	 0.1308620318	 0.266408
C	 0.5066893652	-0.6644214626	 1.3564113993	-0.40429
C	-1.5850019663	-0.0691016942	 0.0869006617	-0.385219
N	 0.4242799225	-0.6673722112	-1.0687199475	-0.086777
C	 0.7543695594	-0.0345523207	-2.3214691676	-0.246109
C	 1.8108428517	-0.7444813878	-1.5181601236	-0.150006
C	 2.8955980542	 0.0168542946	-0.9416643748	 0.296426
N	 3.7976346048	 0.5750300651	-0.4784894375	-0.351481
H	 1.3927846598	 1.7364032041	 0.1795004827	 0.14993
H	-0.1325993254	 2.1210621342	-0.6468987498	 0.113141
H	-0.0817689068	 1.9987202885	 1.1081163829	 0.120515
H	 0.0667355809	-0.2620200231	 2.2735519433	 0.116774
H	 0.2723019511	-1.7312730817	 1.2999556512	 0.12134
H	 1.5922593408	-0.5513192963	 1.4280707354	 0.134163
H	-1.993021047	 0.4009503885	-0.8139700394	 0.112452
H	-1.8746415183	-1.1229509654	 0.0810818896	 0.121727
H	-2.039333046	 0.4164327237	 0.9561116249	 0.112902
H	 0.3699529649	-0.5071570915	-3.2221069342	 0.129102
H	 0.8390970348	 1.0486565444	-2.3695936603	 0.133719
H	 2.1247644801	-1.7421821437	-1.8174263209	 0.137155
63.1114	130.4281	199.4703	203.4352	234.4348	255.4133	266.6483	293.8528	334.9647	360.9539	389.3979	446.2029	474.7273	559.6867	636.874	662.2143	785.6007	818.4323	916.1946	923.7428	936.7075	962.7065	995.782	1025.1841	1045.4176	1056.0557	1114.0849	1125.5103	1151.9023	1221.036	1250.8383	1264.0883	1327.9599	1368.0154	1398.2075	1400.0907	1429.4513	1475.6174	1484.7352	1487.2231	1499.047	1503.7102	1510.4618	1520.8336	2343.0443	3035.7101	3040.6889	3046.2504	3099.5267	3101.9246	3107.4319	3116.15	3118.4432	3123.6946	3129.9299	3136.7119	3186.9979
CC(C)(C)N1CC1C#N	CC(C)(C)N1C[C@H]1C#N	
InChI=1S/C7H12N2/c1-7(2,3)9-5-6(9)4-8/h6H,5H2,1-3H3	InChI=1S/C7H12N2/c1-7(2,3)9-5-6(9)4-8/h6H,5H2,1-3H3/t6-,9?/m1/s1
