20
gdb 22384	3.90863	1.06782	0.95355	0.8776	82.48	-0.2394	0.0115	0.2509	1287.1661	0.170872	-403.120489	-403.111877	-403.110933	-403.153418	33.879	
C	-0.5022203449	 1.4712818653	 0.1693517978	-0.482326
C	 0.0824895156	 0.0908146641	-0.0060870204	 0.357225
C	-0.6078516593	-1.1038458751	 0.6087986307	-0.33108
C	 0.7428719981	-0.6714423367	 1.1317929154	-0.078561
C	 1.9470869358	-1.4344373298	 0.6018553882	-0.311212
C	 1.7901522615	-1.3489661646	-0.9031636862	 0.379724
C	 0.8803875831	-0.1960238573	-1.2760728734	-0.354494
N	 2.2781254093	-2.1172342995	-1.7916994616	-0.221734
O	 3.1044985831	-3.1049613938	-1.221049574	-0.395156
H	 0.2708038064	 2.2447721722	 0.0873980922	 0.113994
H	-1.262719897	 1.6825188571	-0.5918918919	 0.118408
H	-0.9790137553	 1.5776163817	 1.1489043761	 0.114637
H	-1.4718419977	-0.9073403628	 1.2348505182	 0.107988
H	-0.6727478361	-2.0292194783	 0.0425103738	 0.115078
H	 0.7959009326	-0.2400196762	 2.1254618931	 0.080484
H	 2.8866415139	-0.9555085292	 0.908533217	 0.120347
H	 2.0026340341	-2.4764195138	 0.9302270547	 0.130216
H	 0.2648702217	-0.427957528	-2.1504696157	 0.119137
H	 1.4860052431	 0.6848286328	-1.5333635496	 0.112657
H	 3.3569174119	-3.624332768	-1.9915576542	 0.30467
73.8392	186.1373	212.3332	241.4582	294.9531	312.2456	369.6948	383.1115	394.4154	474.8202	511.556	599.0044	686.7597	707.1347	817.1463	837.0064	871.9344	899.4587	915.3812	953.7927	972.8395	995.8992	1055.8883	1059.0066	1073.4905	1098.3482	1108.3737	1181.4078	1207.4368	1222.8943	1238.0789	1289.9605	1306.1761	1325.7723	1402.577	1404.2976	1423.4487	1470.5304	1475.4113	1490.6426	1494.9854	1504.6207	1756.052	3007.6096	3020.2903	3025.4585	3077.2288	3080.4351	3085.2093	3097.8877	3117.5727	3166.5804	3204.2462	3821.3433
CC12CC1CC(C2)=NO	C[C@]12C[C@H]1CC(=NO)C2	
InChI=1S/C7H11NO/c1-7-3-5(7)2-6(4-7)8-9/h5,9H,2-4H2,1H3	InChI=1S/C7H11NO/c1-7-3-5(7)2-6(4-7)8-9/h5,9H,2-4H2,1H3/t5-,7-/m1/s1
