15
gdb 130352	3.35113	1.12026	0.8411	4.5786	81.48	-0.1841	-0.0211	0.163	1294.9776	0.113705	-450.124009	-450.115475	-450.114531	-450.157312	31.152	
N	 0.005159695	 1.3525572053	 0.0741952228	-0.500195
C	 0.0619708175	-0.0037331974	 0.0229590254	 0.10917
N	 1.1834777381	-0.6304111355	-0.0071115168	-0.375121
C	 1.2107922012	-1.9944369299	-0.0150510031	 0.474803
C	 2.3019846486	-2.8255547723	 0.0113616969	 0.015745
N	 3.6500706613	-2.4635204946	 0.1363578676	-0.614736
C	 1.7275383782	-4.1224112269	-0.0173898971	 0.003362
N	 0.415226252	-4.0941336951	-0.064201819	-0.162653
O	 0.0743731401	-2.7433502009	-0.0488990879	-0.235722
H	 0.8593894154	 1.8650457484	-0.0804874816	 0.265455
H	-0.8585545649	 1.8197859654	-0.1383590805	 0.26749
H	-0.9107298017	-0.5003435545	 0.0454968389	 0.137014
H	 3.7566180522	-1.4617837177	 0.0228195827	 0.249846
H	 4.2490811639	-2.9393551573	-0.5277748396	 0.24363
H	 2.2308998031	-5.0797035069	-0.0095721887	 0.12191
97.0552	130.9711	150.0479	227.3139	282.2957	283.6168	304.2608	387.8633	419.8806	539.4056	576.1619	635.4968	677.8468	719.2363	782.3281	812.715	898.8999	947.0968	949.6311	999.1761	1069.607	1111.0864	1201.8588	1229.2935	1304.2513	1311.6317	1402.3449	1454.8288	1522.7856	1621.9571	1642.7863	1698.067	1722.7502	3108.4935	3234.3663	3516.4847	3598.63	3606.023	3732.1402
NC=NC1=C(N)C=NO1	NC=Nc1c(N)cno1	
InChI=1S/C4H6N4O/c5-2-7-4-3(6)1-8-9-4/h1-2H,6H2,(H2,5,7)	InChI=1S/C4H6N4O/c5-2-7-4-3(6)1-8-9-4/h1-2H,6H2,(H2,5,7)
