18
gdb 39369	2.40336	2.15762	1.60598	2.3122	75.95	-0.2339	0.0072	0.241	900.8627	0.151566	-401.958477	-401.951701	-401.950757	-401.989412	27.552	
C	-0.011533907	 1.4873449764	 0.0834414201	-0.238683
C	 1.4688223643	 1.8979047669	-0.0365609083	-0.076692
C	 2.1615981225	 1.8750658169	 1.3299726161	-0.067835
O	 2.2538580201	 0.6028810709	 1.9887765142	-0.236703
C	 1.2895026841	-0.3565009652	 2.0439168455	 0.134822
N	 0.3382059857	-0.6996516662	 1.2860800002	-0.263701
C	 0.0610091014	-0.0507886962	 0.0042031112	-0.015028
C	 1.235114019	-0.2488238756	-0.9509686477	-0.068563
C	 2.0162203088	 0.8283482316	-0.9650059249	-0.067864
H	-0.4945477123	 1.835541393	 1.0007764673	 0.09877
H	-0.5760898821	 1.8707152257	-0.7722907403	 0.101838
H	 1.591299752	 2.9152757238	-0.4269534449	 0.077054
H	 3.203146652	 2.1978479993	 1.2399095126	 0.117328
H	 1.6499271418	 2.571717999	 2.0083738909	 0.109663
H	 1.475808928	-0.9485350988	 2.9410767231	 0.118592
H	-0.8684664798	-0.4846260501	-0.3742913773	 0.076601
H	 1.418027006	-1.1875086961	-1.4594025783	 0.102467
H	 2.9574596156	 0.9301138048	-1.4933523794	 0.097936
132.6445	211.6666	291.7605	342.0874	360.4713	486.4868	560.9656	584.3164	722.9076	767.1108	779.0192	819.8184	832.811	855.6464	922.605	932.8459	949.0398	969.5015	974.9582	1008.4593	1027.8718	1070.4869	1100.7002	1131.8653	1142.1351	1214.1636	1239.5499	1270.4946	1309.9116	1327.1045	1333.1884	1358.4495	1367.2511	1418.5198	1436.0353	1485.6274	1501.1158	1675.5641	1723.4161	3010.4992	3038.0148	3052.02	3067.5243	3084.0966	3102.3055	3128.5985	3189.3041	3218.6746
C1C2COC=NC1C=C2	C1[C@H]2COC=N[C@@H]1C=C2	
InChI=1S/C7H9NO/c1-2-7-3-6(1)4-9-5-8-7/h1-2,5-7H,3-4H2	InChI=1S/C7H9NO/c1-2-7-3-6(1)4-9-5-8-7/h1-2,5-7H,3-4H2/t6-,7+/m0/s1
