18
gdb 128467	3.76839	1.0152	0.84859	3.9851	73.9	-0.2527	-0.0071	0.2456	1356.4974	0.146744	-439.067654	-439.058697	-439.057753	-439.102355	31.842	
C	 0.169153597	 1.2844466655	-0.2399431634	-0.236434
O	 0.0344108953	-0.1068118104	-0.0580011714	-0.248305
C	-1.3022601172	-0.5615220678	 0.0977488097	-0.001924
C	-2.0547288305	-0.6101523318	-1.2398506186	-0.39999
C	-1.2164271733	-1.9135152263	 0.7427933139	 0.149805
C	-0.1006395468	-2.5875328241	 1.1271163026	 0.004392
O	-0.4233561177	-3.7720693006	 1.6687254327	-0.168298
N	-1.8052045582	-3.9123688268	 1.657589786	-0.134987
C	-2.2590201387	-2.8125447507	 1.108837921	-0.061676
H	 1.2398362002	 1.5017720908	-0.2498066059	 0.132014
H	-0.2640903861	 1.6320209415	-1.188430983	 0.111252
H	-0.2993506045	 1.8476485179	 0.5819865679	 0.108793
H	-1.8377382454	 0.1266119686	 0.7754171473	 0.079522
H	-2.1344521819	 0.3854858811	-1.684805374	 0.119733
H	-1.5321190882	-1.2694636911	-1.9381475241	 0.133542
H	-3.0704514634	-0.9908721651	-1.0955062364	 0.121775
H	 0.9486238435	-2.3501913378	 1.0760809783	 0.162545
H	-3.3274836242	-2.6926706628	 0.9933088875	 0.128243
45.2711	74.2933	146.547	166.363	203.4562	251.7847	329.2488	369.0762	425.5304	480.4609	622.3235	663.4144	733.9749	857.3768	862.6083	906.3061	908.8821	941.1693	992.2759	1046.7769	1078.7282	1107.9506	1145.1969	1155.7585	1183.0488	1205.5946	1224.4906	1275.6281	1344.2267	1358.2558	1399.8453	1413.7818	1473.8465	1478.5269	1483.574	1493.2418	1503.0537	1513.0706	1653.6818	2944.6345	2982.066	3033.335	3045.5133	3115.138	3116.8905	3128.1484	3238.0944	3290.646
COC(C)C1=CON=C1	CO[C@@H](C)c1conc1	
InChI=1S/C6H9NO2/c1-5(8-2)6-3-7-9-4-6/h3-5H,1-2H3	InChI=1S/C6H9NO2/c1-5(8-2)6-3-7-9-4-6/h3-5H,1-2H3/t5-/m0/s1
