18
gdb 77031	2.52647	1.25134	1.05354	1.8676	79.95	-0.2365	-0.0386	0.1978	1211.7947	0.144396	-401.88618	-401.8766	-401.875656	-401.92086	34.737	
C	-0.0320557316	 1.5208431621	 0.6348445602	-0.432368
C	 0.1738142544	 0.0580481285	 0.3130537166	 0.00832
C	 0.4644635507	-0.4587052574	-1.0929207721	-0.120525
C	 0.5816136303	 0.4817653473	-2.2351203281	 0.15451
O	 1.1096432521	 1.5732076939	-2.2213629358	-0.277092
N	 1.4476860773	-0.5407204805	 0.0019082762	-0.0985
C	 2.6744644715	 0.269377715	-0.0419379151	-0.324381
C	 3.7193787556	-0.4290168931	-0.7832021171	 0.319638
C	 4.5799423802	-0.9876746664	-1.4077081747	-0.436695
H	 0.35660821	 1.7421709105	 1.6350805967	 0.127767
H	 0.449244864	 2.1809418269	-0.0864804214	 0.163721
H	-1.1033400416	 1.7449045872	 0.6430056655	 0.12533
H	-0.4583518853	-0.6094074708	 0.8995243422	 0.106483
H	 0.0495582494	-1.4239956185	-1.3758214483	 0.100889
H	 0.1226740745	 0.0921648752	-3.1703482684	 0.087352
H	 2.5313111341	 1.2615469791	-0.4849229096	 0.161952
H	 2.9903806594	 0.4068777537	 0.9993921428	 0.135903
H	 5.344886775	-1.4805824026	-1.9547296697	 0.197694
43.6491	113.7679	178.8576	183.8339	203.7243	210.504	262.6802	334.4906	368.4133	391.1595	489.733	543.3318	606.2614	660.4793	696.603	774.9903	826.8813	849.3326	943.0765	967.7879	995.4616	1028.4843	1047.5187	1067.4452	1109.2455	1158.168	1176.7414	1269.3303	1339.7637	1375.7713	1383.0067	1402.1991	1421.7739	1433.7063	1473.0728	1496.5292	1505.2202	1786.9989	2244.4775	2889.5331	3027.8349	3041.9569	3067.8334	3096.6981	3099.7837	3130.2026	3156.8515	3507.2662
CC1C(C=O)N1CC#C	C[C@H]1[C@@H](C=O)N1CC#C	
InChI=1S/C7H9NO/c1-3-4-8-6(2)7(8)5-9/h1,5-7H,4H2,2H3	InChI=1S/C7H9NO/c1-3-4-8-6(2)7(8)5-9/h1,5-7H,4H2,2H3/t6-,7+,8?/m0/s1
