21
gdb 91197	3.0193	1.37573	1.06928	1.3632	83.18	-0.2371	0.0245	0.2616	1168.639	0.185115	-387.095175	-387.087218	-387.086274	-387.127386	32.219	
O	 0.2076845619	 1.3603090662	-0.2460798782	-0.431469
C	 0.0303254774	-0.0241209417	-0.0839208481	 0.142495
C	 0.3721918252	-0.7053235354	 1.2688334869	-0.291738
C	-0.8426197526	-1.6615082279	 1.0231737478	-0.020314
C	-1.7557005647	-2.0269433514	 2.1490736485	-0.072118
C	-3.002199127	-1.5612402755	 2.2427566662	-0.055878
C	-3.5827981129	-0.5712146467	 1.2617944867	-0.259533
C	-2.4762396923	 0.2590676939	 0.5909229257	-0.21948
C	-1.4001055621	-0.6442679799	-0.0184241514	-0.055635
H	-0.2447584804	 1.8069950723	 0.4764625315	 0.279471
H	 0.5996188503	-0.4837524008	-0.8973291877	 0.089769
H	 1.3660170854	-1.144208112	 1.382274619	 0.099411
H	 0.1860458228	-0.0353601432	 2.1147690024	 0.09505
H	-0.489235268	-2.5704227786	 0.5226060828	 0.078901
H	-1.3737561049	-2.7179245445	 2.8981472898	 0.082511
H	-3.6408883412	-1.8858109023	 3.0606593134	 0.084249
H	-4.1760317515	-1.096444944	 0.4985412665	 0.109844
H	-4.2878650733	 0.091770826	 1.7771850322	 0.099428
H	-2.8923455199	 0.9242435589	-0.1727290049	 0.101887
H	-2.0386185077	 0.904610559	 1.3647208752	 0.081179
H	-1.7706679445	-1.0793519124	-0.951674304	 0.061968
104.7554	174.4498	205.0853	274.129	304.1659	387.7546	436.2142	470.7727	496.6733	555.2638	634.9926	723.4568	738.9724	774.5471	810.1067	883.879	912.9832	934.6436	978.9288	984.9451	1002.1048	1026.9558	1049.4118	1078.1651	1089.7514	1107.3358	1151.7529	1161.3402	1179.3812	1219.8209	1250.0249	1254.7123	1273.0766	1290.4174	1312.8155	1331.806	1347.5797	1361.3167	1394.03	1416.1522	1440.5312	1478.0423	1483.9357	1494.8513	1713.4544	2998.927	3010.342	3030.4056	3047.717	3050.1741	3051.7488	3067.3957	3074.9567	3111.8398	3136.446	3162.601	3818.1122
OC1CC2C=CCCC12	O[C@H]1C[C@H]2C=CCC[C@@H]12	
InChI=1S/C8H12O/c9-8-5-6-3-1-2-4-7(6)8/h1,3,6-9H,2,4-5H2	InChI=1S/C8H12O/c9-8-5-6-3-1-2-4-7(6)8/h1,3,6-9H,2,4-5H2/t6-,7-,8+/m1/s1
