17
gdb 48991	3.2998	1.44776	1.2804	2.0039	67.45	-0.2618	-0.0398	0.222	998.9326	0.137371	-458.973478	-458.966262	-458.965318	-459.005382	27.831	
O	-0.0457866118	 0.0086531961	-0.025181897	-0.245551
C	 0.0425698378	 1.2098498474	 0.0270197694	 0.061725
C	 1.3325517112	 1.9683717589	 0.0028281745	 0.130329
C	 2.6305460835	 1.1474241758	-0.0946302523	-0.103081
O	 3.609817799	 2.1270927644	-0.5090936782	-0.268959
C	 2.9025746094	 3.3458466131	-0.6187109063	 0.207264
C	 1.5458003545	 2.9354024335	-1.1976511477	-0.296738
O	 2.5717559537	 3.8482390797	 0.6665864183	-0.264076
C	 1.5306781919	 2.9842804615	 1.1568290638	-0.111386
H	-0.8663154624	 1.8514874903	 0.0904901295	 0.081283
H	 2.9260883127	 0.7114580032	 0.8648773585	 0.116514
H	 2.5582755454	 0.3478348384	-0.838816776	 0.121126
H	 3.5209658754	 4.0765460576	-1.1365026117	 0.100883
H	 1.6168264332	 2.4238398111	-2.1589077836	 0.125501
H	 0.8261334136	 3.7547659912	-1.2422072671	 0.118352
H	 0.6247716799	 3.5706153002	 1.3609656998	 0.106455
H	 1.8542210629	 2.4966075476	 2.0826122662	 0.120358
83.9233	164.8233	215.6606	284.4023	395.0898	424.9825	481.1389	516.386	595.8097	717.4403	801.4638	815.2966	900.8893	907.7754	938.5026	948.8761	966.7187	983.4869	1025.2717	1049.8608	1065.1075	1100.8882	1137.9297	1172.1866	1201.2783	1234.5218	1252.4187	1270.7325	1309.5174	1321.3946	1373.084	1394.4519	1428.1537	1487.6698	1515.4386	1532.8154	1819.6936	2868.2845	3012.3432	3043.9492	3067.9274	3081.2658	3089.4188	3145.8151	3154.6665
O=CC12COC(C1)OC2	O=C[C@@]12CO[C@@H](C1)OC2	
InChI=1S/C6H8O3/c7-2-6-1-5(8-3-6)9-4-6/h2,5H,1,3-4H2	InChI=1S/C6H8O3/c7-2-6-1-5(8-3-6)9-4-6/h2,5H,1,3-4H2/t5-,6-
