16
gdb 52175	3.83087	0.88761	0.7589	3.5086	67.87	-0.2701	-0.0037	0.2664	1432.7481	0.123446	-475.040127	-475.031535	-475.030591	-475.07486	30.032	
N	-0.4330163924	 1.1282778806	 0.3657364687	-0.435032
C	-0.4330508589	-0.1307536463	 0.3916689999	 0.13346
O	-0.7461921326	-0.8185494438	-0.7349047002	-0.184749
C	-0.8299188871	-2.2299586728	-0.6281102204	-0.108011
C	-2.2031155899	-2.6850835455	-0.177198246	 0.126385
C	-2.3883132753	-4.1880120098	 0.0977748002	-0.441761
C	-2.6081200078	-3.729949654	 1.5408824088	 0.454201
O	-2.844137354	-4.2154611373	 2.5969314583	-0.304871
O	-2.4332448434	-2.3964409011	 1.2478622718	-0.251937
H	-0.1600161192	 1.494243047	 1.2754120025	 0.234089
H	-0.193308366	-0.7755220552	 1.2455276335	 0.101365
H	-0.6310174038	-2.6237004301	-1.6299049164	 0.134237
H	-0.0641896415	-2.6232487075	 0.0548100651	 0.116505
H	-2.9848516693	-2.2112050125	-0.7747112357	 0.122862
H	-3.2540091232	-4.6646705539	-0.3632473699	 0.155605
H	-1.5059910355	-4.816875348	-0.0415304403	 0.147651
56.576	73.048	98.8338	127.3138	217.0797	347.5784	359.6502	447.4344	517.2786	523.9937	647.2206	730.2789	818.8929	836.5974	877.2763	940.6139	968.7106	1012.4487	1036.6745	1052.8458	1090.2766	1121.6298	1147.2809	1174.453	1225.7107	1247.563	1296.8637	1320.9089	1373.7876	1411.9606	1428.7651	1456.2038	1485.4018	1749.3638	1948.6182	3016.5327	3052.455	3087.0251	3087.769	3103.9262	3148.3848	3521.1966
N=COCC1CC(=O)O1	[NH][CH]OC[C@H]1CC(=O)O1	
InChI=1S/C5H7NO3/c6-3-8-2-4-1-5(7)9-4/h3-4,6H,1-2H2	InChI=1S/C5H7NO3/c6-3-8-2-4-1-5(7)9-4/h3-4,6H,1-2H2/t4-/m1/s1
