23
gdb 91315	2.39492	1.48519	1.19434	1.622	84.68	-0.251	0.0649	0.3159	1170.3868	0.205731	-388.266537	-388.257496	-388.256552	-388.299494	36.514	
C	 0.4323438883	 1.3675527626	-0.4198326467	-0.469932
C	 0.0672508949	-0.0859254569	-0.105018028	 0.342355
C	-1.4556579158	-0.2341243129	-0.0789568282	-0.43588
C	 0.7603941215	-1.1559840307	-1.0208206323	-0.284181
C	 1.4948516389	-1.7423960407	 0.2027777865	-0.003219
C	 2.8246225788	-1.0176279635	 0.5680190439	-0.293556
C	 2.0803724105	-0.2924554243	 1.7275050353	 0.150755
O	 2.3515259103	 1.0479584278	 2.0521183332	-0.435289
C	 0.7164903935	-0.7642804187	 1.1605076258	-0.112953
H	 1.5057346429	 1.5020098683	-0.5959273219	 0.103432
H	-0.0709787044	 1.692256869	-1.3382137368	 0.114379
H	 0.1213425886	 2.044650073	 0.383354557	 0.124804
H	-1.8907840212	 0.0328523763	-1.0493591908	 0.109026
H	-1.7509942346	-1.2638630298	 0.1480600506	 0.112243
H	-1.9020461564	 0.4165847208	 0.6822573653	 0.113597
H	 0.0418348114	-1.845220605	-1.4740710774	 0.094228
H	 1.4051367925	-0.7650648964	-1.8152120586	 0.088975
H	 1.4895711684	-2.8238535141	 0.3369345434	 0.06378
H	 3.6660379382	-1.6467276428	 0.8677301792	 0.101189
H	 3.1715130723	-0.3430129992	-0.2222413049	 0.090871
H	 2.2534323003	-0.8430789308	 2.6584418556	 0.091312
H	 2.2474410467	 1.5799027554	 1.2588968056	 0.278635
H	-0.0158666257	-1.0969635275	 1.8993091941	 0.055431
92.8489	177.3306	219.2651	270.4385	278.1112	309.7815	341.8667	352.9985	381.7269	405.637	430.172	542.9835	613.768	649.4267	753.5964	820.6563	832.2637	849.352	910.2867	936.3286	948.2284	970.0881	987.0074	1017.6026	1026.4778	1053.9415	1067.1765	1125.097	1141.1408	1170.309	1189.1834	1205.4988	1228.7785	1232.7565	1261.2084	1282.0815	1296.8609	1304.0126	1318.197	1342.1446	1396.7643	1416.4426	1441.4339	1478.276	1486.5873	1489.542	1492.1219	1504.4852	1518.7987	3015.8296	3020.5576	3037.6326	3043.6882	3048.9121	3075.8796	3079.0192	3083.4979	3088.1108	3093.6137	3093.9332	3098.8081	3113.899	3851.0002
CC1(C)CC2CC(O)C12	CC1(C)C[C@H]2C[C@@H](O)[C@@H]12	
InChI=1S/C8H14O/c1-8(2)4-5-3-6(9)7(5)8/h5-7,9H,3-4H2,1-2H3	InChI=1S/C8H14O/c1-8(2)4-5-3-6(9)7(5)8/h5-7,9H,3-4H2,1-2H3/t5-,6-,7+/m1/s1
