16
gdb 13177	4.09296	1.39443	1.2304	2.0751	65.82	-0.2475	0.0231	0.2706	995.5939	0.128879	-383.670082	-383.661754	-383.66081	-383.703322	29.771	
O	-0.3068031367	 1.3525213816	 0.0883387409	-0.412448
C	-0.0451484862	-0.0449309126	 0.0144372362	-0.07222
C	 0.7310477628	-0.3894088776	-1.1807461244	 0.289492
C	 1.4110225733	-0.644697213	-2.1388902648	-0.445537
C	 0.6393353183	-0.5851544636	 1.2802422177	-0.035651
C	 1.9555208502	 0.0919214751	 1.7190866729	-0.081853
O	 1.3722478895	 0.5277916192	 2.9599774958	-0.269649
C	 0.0971501328	-0.063169834	 2.6292831216	-0.094934
H	 0.5173626566	 1.8201108564	-0.0855284564	 0.292564
H	-1.037686932	-0.5079139779	-0.0582842642	 0.122576
H	 1.9920925955	-0.8761539023	-2.9975435912	 0.204723
H	 0.7052145287	-1.6728585509	 1.207818469	 0.094157
H	 2.8088969913	-0.5787913373	 1.8732285467	 0.105742
H	 2.2882853734	 0.935980544	 1.0984427265	 0.086538
H	-0.6926881427	 0.6908761647	 2.5450931776	 0.118371
H	-0.1986058849	-0.8314814117	 3.3534564762	 0.098129
70.2515	80.9475	144.155	203.4097	273.7803	276.2501	319.081	451.4395	547.5682	631.5183	643.6799	676.6489	749.1722	854.8438	889.6596	930.1158	995.136	1011.9057	1032.7495	1047.5355	1116.2571	1134.2511	1159.2916	1172.5038	1243.5227	1258.9367	1311.523	1325.7959	1347.2457	1392.8711	1417.9654	1507.6474	1536.5069	2231.4873	2998.3429	3024.9629	3030.3831	3047.9166	3075.124	3092.5126	3502.2757	3814.0017
OC(C#C)C1COC1	O[C@@H](C#C)C1COC1	
InChI=1S/C6H8O2/c1-2-6(7)5-3-8-4-5/h1,5-7H,3-4H2	InChI=1S/C6H8O2/c1-2-6(7)5-3-8-4-5/h1,5-7H,3-4H2/t6-/m0/s1
