18
gdb 46049	3.76121	1.02952	0.91945	4.4584	71.55	-0.2556	0.0103	0.266	1279.4991	0.149344	-439.100699	-439.092702	-439.091758	-439.134129	29.705	
O	-0.3676954469	 0.3469428934	-0.8906123719	-0.332318
C	-0.2342923237	 1.3951544668	-0.3322492751	 0.433196
C	-1.1900867493	 2.0879646965	 0.6347209708	-0.372105
C	-0.6797592161	 3.5364182284	 0.694092057	-0.061827
C	 0.813407597	 3.3371063198	 0.3452462932	-0.094268
O	 0.8754435692	 2.1712158293	-0.489763902	-0.216583
C	-1.3788284491	 4.4332417356	-0.306365512	 0.031993
C	-2.5658083536	 5.2277752238	 0.0896897928	-0.253672
N	-1.2806630169	 5.896327778	-0.1948084136	-0.323682
H	-2.2203990781	 1.983447908	 0.2915036761	 0.144511
H	-1.1104512446	 1.5857214068	 1.6049892533	 0.139093
H	-0.7849300842	 3.9702749293	 1.694032914	 0.077704
H	 1.2392211913	 4.1729796955	-0.2142061323	 0.136753
H	 1.4221423575	 3.1612662814	 1.2400366345	 0.114326
H	-1.3219964582	 4.0831544701	-1.3368232944	 0.109021
H	-3.3559801754	 5.4294719275	-0.6273906624	 0.127779
H	-2.8997144409	 5.1616835739	 1.1226256497	 0.112633
H	-0.828315678	 6.1477513259	 0.6821815222	 0.227446
70.2004	76.7759	149.6187	217.3642	304.4866	324.4827	439.0997	523.1143	554.9998	688.7475	740.6532	778.4659	840.2786	865.2309	896.2467	913.2431	955.6297	975.5083	994.3057	1030.4621	1066.7125	1097.6449	1135.925	1152.9774	1164.4343	1172.8999	1213.6819	1245.9302	1256.1883	1273.0022	1294.5559	1306.0694	1331.0647	1398.6673	1439.8772	1461.646	1512.8104	1522.4425	1887.8415	3033.4531	3050.3893	3063.4479	3107.1165	3109.5605	3113.307	3127.9768	3193.7362	3482.0875
O=C1CC(CO1)C1CN1	O=C1C[C@@H](CO1)[C@H]1CN1	
InChI=1S/C6H9NO2/c8-6-1-4(3-9-6)5-2-7-5/h4-5,7H,1-3H2	InChI=1S/C6H9NO2/c8-6-1-4(3-9-6)5-2-7-5/h4-5,7H,1-3H2/t4-,5+/m0/s1
