21
gdb 113973	3.36672	0.74516	0.6579	1.1328	86.28	-0.2486	0.0339	0.2825	1762.4876	0.179361	-387.029435	-387.019104	-387.01816	-387.065771	37.283	
C	 0.380583748	 1.3701620682	 0.3311057268	-0.37294
C	-0.2747592438	 0.1008046482	-0.223533601	-0.188318
C	 0.502630473	-0.5021338715	-1.3763956505	-0.027499
C	 1.7017594992	-1.3968849301	-1.110377081	-0.325693
C	 0.4250294144	-1.9649192365	-1.6869645637	 0.119249
O	-0.402259614	-2.7428759688	-0.8762898647	-0.247639
C	 0.0394143352	-4.08910626	-0.7837551145	-0.203881
C	-0.8545693357	-4.844542739	 0.0831967591	 0.280601
C	-1.5747552718	-5.490155273	 0.7947565229	-0.419434
H	 1.389100696	 1.1626364421	 0.7041617051	 0.115421
H	 0.4671218965	 2.1434299855	-0.4405338326	 0.110574
H	-0.2045584861	 1.7882036729	 1.1561822124	 0.110765
H	-0.3805425838	-0.6476885108	 0.567477274	 0.111985
H	-1.2939741805	 0.3299069414	-0.5599641052	 0.09932
H	 0.5852293606	 0.1447531769	-2.2471365894	 0.083743
H	 2.5809201983	-1.3206584749	-1.7409157975	 0.109733
H	 1.9067816718	-1.6321772696	-0.0704491651	 0.117911
H	 0.4314670144	-2.2724880359	-2.7342605768	 0.083595
H	 0.0652690051	-4.5518370966	-1.7844202074	 0.119189
H	 1.0674673544	-4.1278422779	-0.3903889842	 0.123006
H	-2.2162470713	-6.0559805003	 1.4241587032	 0.200312
45.8409	71.183	86.7545	125.8673	172.5685	218.9114	260.4039	293.2349	331.4544	372.9192	464.5108	518.5735	608.4509	611.1223	675.7142	750.5138	788.9558	834.4699	865.9215	954.8239	964.8891	991.5354	1017.9678	1034.7967	1038.2518	1058.4097	1086.4052	1116.0726	1142.535	1185.4029	1200.7716	1247.0141	1252.5367	1290.1617	1339.1259	1369.9404	1407.7605	1413.3008	1431.585	1482.1201	1492.1149	1497.9954	1501.2509	1508.6424	2248.1553	2965.4414	2992.5628	3028.9955	3030.2668	3077.2926	3080.2914	3100.6007	3103.9966	3126.8207	3131.4328	3215.3461	3506.389
CCC1CC1OCC#C	CC[C@H]1C[C@H]1OCC#C	
InChI=1S/C8H12O/c1-3-5-9-8-6-7(8)4-2/h1,7-8H,4-6H2,2H3	InChI=1S/C8H12O/c1-3-5-9-8-6-7(8)4-2/h1,7-8H,4-6H2,2H3/t7-,8+/m0/s1
