21
gdb 113725	2.57459	1.10295	0.86931	4.8806	83.36	-0.2587	0.0396	0.2983	1421.3916	0.181897	-383.266258	-383.256091	-383.255147	-383.302183	36.517	
C	-0.231646412	 1.6231386721	-0.3991346638	-0.376446
C	 0.0347636047	 0.2407559779	 0.2086929148	-0.211978
C	-1.2486009859	-0.5385491461	 0.3938275342	-0.005233
N	-1.8171861913	-1.2407137218	-0.771691171	-0.326994
C	-1.4138936563	-2.0194134859	 0.4001201638	-0.024151
C	-0.3476810095	-3.102910119	 0.2332426874	-0.155039
C	-1.0128059543	-4.4470028998	-0.1419452603	-0.390064
C	 0.6913200627	-2.7937561341	-0.7539750951	 0.301094
N	 1.5344007701	-2.620388506	-1.5251467404	-0.342861
H	 0.6988148578	 2.1852913578	-0.5201396333	 0.116455
H	-0.6980204454	 1.524660385	-1.3842323911	 0.131064
H	-0.9012492849	 2.2174319495	 0.2334658812	 0.106228
H	 0.7234025979	-0.3127661877	-0.4316278577	 0.143828
H	 0.5205598016	 0.3506749295	 1.1872420216	 0.094232
H	-1.9681841727	-0.0231984596	 1.0336156333	 0.081714
H	-2.8260421728	-1.1376913051	-0.822202463	 0.234505
H	-2.207319438	-2.3837236123	 1.0539089963	 0.086641
H	 0.1604612925	-3.2245591084	 1.1995275098	 0.129498
H	-1.729147259	-4.7346163593	 0.6330168174	 0.120994
H	-1.5439669583	-4.3521402524	-1.0924900159	 0.148285
H	-0.2681867167	-5.2403653143	-0.2381738782	 0.138228
36.6483	68.4863	129.0586	166.0192	199.3695	223.2625	232.245	265.5505	293.2743	374.8107	441.4776	535.1099	589.906	655.7195	736.1868	766.2687	825.7133	859.6698	905.2143	952.6144	977.9016	1008.1645	1042.4201	1051.6895	1091.9602	1095.6699	1130.8247	1156.1128	1206.1783	1250.3365	1279.2504	1303.5263	1310.9485	1348.2307	1353.7802	1403.9301	1408.9734	1426.9636	1480.6624	1482.1626	1492.614	1498.9053	1501.2781	1508.158	2358.7513	3023.4491	3027.7626	3031.6647	3047.9859	3076.3136	3094.0286	3096.1599	3113.9736	3124.7164	3130.6881	3134.9618	3515.7471
CCC1NC1C(C)C#N	CC[C@H]1N[C@H]1[C@@H](C)C#N	
InChI=1S/C7H12N2/c1-3-6-7(9-6)5(2)4-8/h5-7,9H,3H2,1-2H3	InChI=1S/C7H12N2/c1-3-6-7(9-6)5(2)4-8/h5-7,9H,3H2,1-2H3/t5-,6+,7-/m0/s1
