17
gdb 75806	3.13976	1.28718	1.07173	0.8145	69.76	-0.2544	0.0111	0.2655	1133.8339	0.136322	-455.108206	-455.099818	-455.098873	-455.14166	30.81	
N	 0.1844185786	 1.3443484767	-0.3638703462	-0.512843
C	 0.119325406	-0.0619972267	-0.0447135495	-0.194476
C	 0.1319534322	-0.5513028208	 1.4012347258	 0.399922
N	 0.8802201267	-0.3758018747	 2.3903119564	-0.546184
O	-1.0587039393	-1.2450546324	 1.2740725368	-0.280015
C	-1.2665709758	-0.7549600149	-0.0812433417	 0.364976
C	-2.5737210055	-0.0135161801	-0.386758864	-0.128569
O	-2.8945037543	-0.9517948935	-1.4366140061	-0.271139
C	-1.7355326685	-1.7567057126	-1.1408523862	-0.134194
H	-0.2134656213	 1.9011760946	 0.3865339172	 0.241332
H	 1.1505326599	 1.6383787393	-0.4564877462	 0.249161
H	 0.8476909841	-0.6012614777	-0.6574042231	 0.117401
H	 0.5233160348	-0.8455199575	 3.2244011557	 0.231659
H	-3.2988145484	-0.0369825978	 0.4358379575	 0.113419
H	-2.458446126	 1.0077701031	-0.7661914049	 0.122094
H	-1.0817382258	-1.8823734305	-2.0124363404	 0.110073
H	-1.9975771573	-2.7397924845	-0.7302225311	 0.117382
76.0864	87.2862	190.4211	194.1081	245.3468	284.2376	360.9935	426.6944	473.6546	548.5861	674.1365	777.8775	817.5703	836.198	873.5042	876.7486	939.2464	949.2552	982.9557	1013.2315	1034.9043	1075.3453	1134.9051	1154.4614	1160.6147	1177.6976	1210.4838	1244.8607	1264.5553	1297.9715	1304.6703	1383.7127	1429.5614	1492.2395	1518.7009	1671.721	1826.1721	3013.2884	3026.454	3065.0781	3075.5224	3080.0251	3473.4856	3507.3133	3586.344
NC1C(=N)OC11COC1	N[C@H]1[C]([NH])OC21COC2	
InChI=1S/C5H8N2O2/c6-3-4(7)9-5(3)1-8-2-5/h3,7H,1-2,6H2	InChI=1S/C5H8N2O2/c6-3-4(7)9-5(3)1-8-2-5/h3,7H,1-2,6H2/t3-/m0/s1
