23
gdb 96588	2.29045	1.4405	1.0214	1.1054	82.09	-0.2391	0.0793	0.3184	1260.4159	0.20704	-425.419927	-425.410886	-425.409942	-425.453438	35.187	
C	 0.1431297811	 1.6449641285	 0.0792665628	-0.398599
C	 0.0032992478	 0.1263608602	 0.008094721	 0.140635
C	 0.5973625292	-0.4363943789	-1.2985457455	-0.214677
C	 1.0046956855	-1.9100707298	-1.254152664	-0.068677
O	-0.0459499021	-2.85852164	-1.2060020376	-0.262847
C	-0.8582521265	-2.9408032672	-0.0450846831	-0.049122
C	-0.1483067497	-2.7954919252	 1.3118476631	-0.234907
C	-0.073736138	-1.3759913369	 1.8936453277	-0.072702
O	 0.6643715336	-0.427916152	 1.148130174	-0.259562
H	 1.2019891634	 1.9199025396	 0.1192277807	 0.124457
H	-0.3034057534	 2.1191925565	-0.8009134444	 0.111563
H	-0.3470217601	 2.0392420138	 0.9738020767	 0.114636
H	-1.0638019629	-0.1275588335	 0.0588724193	 0.072037
H	-0.1068849026	-0.2647941092	-2.1214044875	 0.10151
H	 1.5085061645	 0.1293299971	-1.537130529	 0.09667
H	 1.5417611563	-2.1523442546	-2.1769492143	 0.101503
H	 1.7056350723	-2.0516650354	-0.4215828016	 0.100479
H	-1.690743524	-2.2199117983	-0.1007671053	 0.084103
H	-1.308162976	-3.9373214738	-0.1076309875	 0.104327
H	-0.7096606309	-3.3932943882	 2.042077125	 0.099339
H	 0.8499461152	-3.2436890473	 1.2559677665	 0.117883
H	-1.1001307255	-1.0058940773	 2.0564394619	 0.087116
H	 0.4122712128	-1.420756218	 2.8747414409	 0.104834
75.7022	142.4209	201.6749	236.3185	256.7534	283.01	315.9803	356.7903	380.4308	461.1841	490.9916	538.2013	557.1558	757.9336	788.6848	820.4758	879.2968	902.1458	931.6884	981.7823	992.0001	998.8703	1052.5133	1107.6153	1110.9756	1123.905	1146.7336	1156.5791	1185.7313	1236.3206	1259.1271	1298.9708	1316.9919	1326.5292	1348.9239	1376.4767	1385.4021	1390.2434	1403.9032	1413.5581	1419.6803	1433.2343	1462.5723	1468.6874	1485.8584	1491.5572	1498.3367	1503.0803	1519.1869	2960.8902	2964.9672	3008.0518	3016.8469	3023.5256	3027.3799	3036.3318	3058.6854	3062.9988	3066.9193	3075.8077	3079.8537	3109.7004	3116.0112
CC1CCOCCCO1	C[C@H]1CCOCCCO1	
InChI=1S/C7H14O2/c1-7-3-6-8-4-2-5-9-7/h7H,2-6H2,1H3	InChI=1S/C7H14O2/c1-7-3-6-8-4-2-5-9-7/h7H,2-6H2,1H3/t7-/m0/s1
