14
gdb 56615	2.59962	1.21661	1.06707	4.572	68.55	-0.28	-0.0634	0.2166	1145.3272	0.09765	-436.657389	-436.64816	-436.647215	-436.691826	32.329	
O	 0.2996023766	 1.4524437413	-0.0870227496	-0.406962
C	 0.1145560462	 0.0661333186	-0.0329859663	-0.022503
C	 0.7061035231	-0.6299117022	-1.1998308955	 0.264122
N	 1.1614223842	-1.1851432573	-2.1047708387	-0.315389
C	 0.6540075845	-0.5761816811	 1.2820839749	-0.29319
C	 2.1399818785	-0.2612803416	 1.5058201595	 0.168918
O	 2.7710650482	 0.5117268953	 0.83175661	-0.243628
C	-0.0780790405	-0.13077739	 2.461265863	 0.298597
C	-0.6425460679	 0.2520243824	 3.4500586857	-0.409707
H	 1.255383211	 1.6042488775	-0.0463065489	 0.310978
H	-0.9660750258	-0.1054936059	-0.0661223249	 0.154913
H	 0.5697374631	-1.6697216547	 1.1973885552	 0.150784
H	 2.5955855301	-0.7893533628	 2.3663564243	 0.127695
H	-1.1594535014	 0.5855634706	 4.3165938612	 0.215371
69.7913	95.3721	116.8854	161.3631	226.0059	232.2957	282.9803	346.8802	457.1858	486.6881	530.8822	576.521	594.8366	640.4595	677.1275	763.894	834.1398	921.5448	956.281	1007.3915	1067.6998	1123.6398	1233.2353	1258.7447	1322.2097	1336.0815	1414.0891	1451.1667	1818.0033	2238.3953	2356.869	2948.4176	3011.0085	3072.2585	3499.0511	3734.2186
OC(C#N)C(C=O)C#C	O[C@@H](C#N)[C@@H](C=O)C#C	
InChI=1S/C6H5NO2/c1-2-5(4-8)6(9)3-7/h1,4-6,9H	InChI=1S/C6H5NO2/c1-2-5(4-8)6(9)3-7/h1,4-6,9H/t5-,6+/m1/s1
