16
gdb 24774	4.19059	1.3795	1.05172	6.7157	82.67	-0.1987	-0.0192	0.1795	1093.4135	0.127728	-396.944802	-396.937668	-396.936724	-396.976859	27.08	
N	-0.0609215723	 1.2973135819	 0.4096134114	-0.542486
C	-0.0038609804	 0.0696499295	 0.0441523161	 0.34481
C	-1.2337962388	-0.7364502808	-0.031022726	-0.341538
C	-1.1014558217	-2.0094689603	-0.4194772813	 0.437995
C	-1.805241548	-3.3243147212	-0.711577609	-0.375215
C	-0.3767556641	-3.8843757676	-1.060919525	-0.175435
N	 0.1355756251	-2.5437842198	-0.736141734	-0.086508
C	 1.2617256925	-1.7885013826	-0.6624651327	 0.064436
N	 1.2323678166	-0.553738343	-0.2984642489	-0.336693
H	 0.8864753736	 1.6807915861	 0.3982163772	 0.20771
H	-2.1794972036	-0.2788160798	 0.2254151579	 0.116006
H	-2.2846527712	-3.7984580798	 0.1466873732	 0.143327
H	-2.5051572215	-3.3035737454	-1.5488070461	 0.143326
H	-0.0055146285	-4.6725677214	-0.4001977691	 0.135745
H	-0.2272099575	-4.1750385356	-2.1043606951	 0.135752
H	 2.2035089697	-2.2681231601	-0.9249222986	 0.128769
78.5209	104.3831	199.478	360.3653	440.3584	446.3042	525.1553	535.4286	637.6125	737.5342	788.6341	791.8399	845.743	874.1119	878.5908	901.3648	942.0167	960.188	1059.2163	1073.9672	1122.9715	1145.1026	1186.4074	1191.5273	1231.2043	1279.3189	1300.6769	1326.0586	1408.68	1456.9567	1480.3982	1514.6264	1614.4342	1672.213	1740.9081	3054.9023	3085.5258	3105.3065	3138.2777	3142.9054	3229.8093	3457.281
N=C1C=C2CCN2C=N1	[NH]C1=NCN2C(=C1)CC2	
InChI=1S/C6H7N3/c7-6-3-5-1-2-9(5)4-8-6/h3-4,7H,1-2H2	InChI=1S/C6H8N3/c7-6-3-5-1-2-9(5)4-8-6/h3,7H,1-2,4H2
