19
gdb 107981	2.6588	1.38593	1.33924	1.118	76.02	-0.2524	0.0753	0.3276	1071.8633	0.158398	-422.944451	-422.936007	-422.935063	-422.977372	32.732	
O	-0.076361607	 1.3988266952	 0.0463835415	-0.422938
C	-0.0454383046	-0.0239590142	 0.0273420642	-0.230116
C	-1.4595086169	-0.518944854	 0.0802383179	 0.347757
C	-2.5106499624	-0.320973441	 1.1945412336	-0.315249
C	-3.2484834584	-1.1487802925	 0.1238138595	-0.120035
C	-2.5433219101	-0.4029184038	-1.0556548473	-0.075671
C	-2.0930172061	-1.710548676	-1.7422003309	-0.337161
C	-1.948788725	-1.9702777573	-0.2279199452	 0.354434
O	-1.43806836	-3.0742533062	 0.4308340305	-0.479808
H	 0.8305973086	 1.7153010812	 0.0924383807	 0.286986
H	 0.4491542188	-0.401770297	-0.8827414434	 0.086462
H	 0.5114733289	-0.4233533081	 0.8898496969	 0.095813
H	-2.3084949692	-0.8192424076	 2.1473530601	 0.095561
H	-2.8604812188	 0.7022891696	 1.3554462926	 0.098802
H	-4.2730029525	-1.5251135818	 0.1149056171	 0.064342
H	-2.8794848351	 0.5259657056	-1.5092214405	 0.086197
H	-2.8694929369	-2.2761807763	-2.2688984765	 0.085135
H	-1.1729691799	-1.6756379105	-2.3340057822	 0.095527
H	-1.9997213331	-3.8328053253	 0.2378030714	 0.283962
74.3982	137.2555	229.7994	245.5865	278.3023	280.2175	316.9399	409.3029	454.7457	541.9077	638.0066	670.4253	724.6248	783.7901	871.121	882.3509	916.1522	934.6548	941.0942	983.5338	1012.7154	1050.8077	1054.804	1077.7936	1109.8721	1111.4965	1143.4937	1144.3152	1186.5942	1200.6171	1220.065	1248.0698	1252.5607	1278.4153	1291.9645	1326.6817	1384.013	1466.2725	1504.6523	1508.1031	1515.8085	2963.2063	2992.3777	3034.8086	3049.4096	3092.7856	3097.0646	3109.6927	3153.4382	3804.8537	3827.6067
OCC12CC3C1CC23O	OC[C@@]12C[C@H]3[C@@H]1C[C@@]23O	
InChI=1S/C7H10O2/c8-3-6-1-5-4(6)2-7(5,6)9/h4-5,8-9H,1-3H2	InChI=1S/C7H10O2/c8-3-6-1-5-4(6)2-7(5,6)9/h4-5,8-9H,1-3H2/t4-,5-,6-,7-/m0/s1
