21
gdb 88199	3.32402	1.19697	1.03449	1.9693	78.66	-0.2574	0.082	0.3394	1234.2719	0.183808	-424.214837	-424.206403	-424.205459	-424.247658	32.818	
C	-0.086604633	 1.5296646778	-0.1024921331	-0.414512
C	 0.0339859866	 0.0242104877	 0.0162111141	-0.054684
C	 1.3571460468	-0.681028767	-0.1796549934	-0.323922
C	 0.7058021255	-0.6616004443	 1.1806693164	 0.333447
C	 1.3548760716	 0.111230546	 2.3137222007	-0.169495
O	 2.2462162422	-0.7345056927	 3.0361610289	-0.235543
C	 1.5880738455	-1.8805943992	 3.5056181324	 0.021407
O	 1.0648747528	-2.6738627802	 2.4735854385	-0.2346
C	 0.1033552264	-1.9464297442	 1.7166986868	-0.160376
H	 0.8129580088	 2.0425110606	 0.2500494425	 0.118203
H	-0.2366319735	 1.8203473353	-1.147865387	 0.121808
H	-0.9365962153	 1.9129393954	 0.4730137922	 0.118778
H	-0.8320590218	-0.5085879781	-0.3737548147	 0.081
H	 1.3783598538	-1.6157121647	-0.7304373153	 0.11335
H	 2.2391217304	-0.0636564302	-0.322237784	 0.111767
H	 1.9516862966	 0.9534756161	 1.9582389811	 0.10828
H	 0.5823925396	 0.5019718266	 2.9996371349	 0.086831
H	 2.3304442924	-2.4845021801	 4.0309270585	 0.116805
H	 0.7737822534	-1.5855802304	 4.1979682241	 0.06948
H	-0.7699010997	-1.7170897934	 2.3533547904	 0.085829
H	-0.2274136991	-2.6057679309	 0.909370876	 0.106147
102.9639	155.6385	200.2702	204.128	270.5805	322.6932	366.5719	421.5641	437.044	491.0332	515.0331	639.9677	746.2014	851.0513	887.3975	931.2205	936.4582	955.7839	976.1406	984.6539	1003.5507	1044.694	1055.0941	1069.4303	1096.0478	1132.2257	1157.9258	1184.8718	1199.6184	1241.1318	1270.9159	1308.2632	1335.8744	1351.9656	1374.3595	1406.3792	1414.2646	1438.2057	1444.3916	1484.9146	1488.5132	1495.5972	1498.2506	1506.1549	1512.4471	2900.238	2944.7572	2954.3105	3031.4875	3085.1604	3089.8231	3097.1458	3105.4459	3114.07	3120.3334	3122.6498	3205.6988
CC1CC11COCOC1	C[C@H]1CC21COCOC2	
InChI=1S/C7H12O2/c1-6-2-7(6)3-8-5-9-4-7/h6H,2-5H2,1H3	InChI=1S/C7H12O2/c1-6-2-7(6)3-8-5-9-4-7/h6H,2-5H2,1H3/t6-/m0/s1
