17
gdb 57724	3.73024	0.88231	0.86638	4.4963	72.08	-0.2744	0.0113	0.2858	1371.795	0.131449	-458.946039	-458.93591	-458.934966	-458.981256	36.128	
C	-0.106526076	 1.5669569976	 0.0178607375	-0.426227
C	-0.2178226874	 0.0351826181	-0.0356705744	 0.132245
O	 0.0543396748	-0.5418602903	 1.2422003104	-0.442656
C	-1.6567788225	-0.4165597433	-0.3617223215	-0.092803
O	-2.5913172529	 0.1409887185	 0.555547026	-0.187364
C	-2.8749091985	-0.573709879	 1.6705264638	 0.175716
O	-3.5771050294	-0.1467342674	 2.5349266145	-0.276439
C	 0.6808111902	-0.5188087422	-1.0598344835	 0.332024
C	 1.4161622308	-0.9734584724	-1.8948268085	-0.474247
H	 0.9114888628	 1.8592998471	 0.292885624	 0.119282
H	-0.3295062342	 2.0079851637	-0.9575292268	 0.131716
H	-0.8074998439	 1.9578191979	 0.7574937271	 0.152845
H	 0.9227415704	-0.2414129502	 1.5307076518	 0.290685
H	-1.9429862434	-0.0678390233	-1.3552480624	 0.134665
H	-1.695211479	-1.51112584	-0.342439195	 0.130636
H	-2.4074966463	-1.5737714116	 1.6689670753	 0.093591
H	 2.0698650946	-1.3765223731	-2.6291172783	 0.206331
66.0575	77.0559	140.6241	176.9122	191.8083	241.0011	251.4154	283.146	319.5307	394.6676	409.741	443.3554	552.4088	566.3655	645.9523	675.0607	680.1637	757.1007	905.7009	954.5317	966.7938	1032.833	1056.3963	1107.496	1136.2828	1190.6117	1195.6017	1325.2483	1351.1696	1393.1338	1410.2916	1429.0176	1482.8359	1492.8813	1494.2378	1869.3464	2231.7537	2990.0698	3046.7814	3054.1605	3117.3395	3130.3788	3147.286	3498.4659	3816.5295
CC(O)(COC=O)C#C	C[C@@](O)(COC=O)C#C	
InChI=1S/C6H8O3/c1-3-6(2,8)4-9-5-7/h1,5,8H,4H2,2H3	InChI=1S/C6H8O3/c1-3-6(2,8)4-9-5-7/h1,5,8H,4H2,2H3/t6-/m0/s1
