17
gdb 123729	5.00737	0.99561	0.9561	4.1799	75.67	-0.2645	-0.0358	0.2287	1253.4917	0.137124	-417.980586	-417.973023	-417.972079	-418.013614	28.103	
C	-0.0449285373	 1.516142788	-0.1194830282	-0.215862
C	 1.5048709847	 1.511832655	-0.0578047645	-0.228002
C	 1.4373225296	 0.0966925536	 0.603445386	-0.089997
C	-0.0204834644	-0.0252108781	 0.0517903292	-0.228019
C	 2.4380184331	-0.9236754377	 0.2194820282	 0.41996
C	 3.2902263077	-1.7178806115	 0.9281476075	-0.224315
N	 3.9896973198	-2.4768447307	 0.0223598293	-0.109035
N	 3.6356092439	-2.210215125	-1.1517895452	-0.013774
O	 2.6160787559	-1.1935310839	-1.0756786294	-0.225026
H	-0.4841749281	 2.0139841976	 0.7494573709	 0.10801
H	-0.511532356	 1.9148773538	-1.0218706234	 0.108656
H	 1.9510015543	 1.4515919042	-1.0532595406	 0.126568
H	 2.0052234894	 2.2987137837	 0.5101596278	 0.108557
H	 1.4303344089	 0.1813468711	 1.6931312835	 0.090111
H	-0.7598521665	-0.487494837	 0.7088655287	 0.108556
H	-0.0267022864	-0.5412326702	-0.9111552496	 0.126579
H	 3.4497083513	-1.799715473	 1.9894497397	 0.137034
51.4712	109.0106	134.5945	224.3934	380.3508	380.8533	542.8584	646.6073	696.8555	725.1318	727.5099	792.6886	822.7353	854.9803	913.6853	937.935	943.7634	988.032	999.2768	1032.5082	1062.1951	1113.1823	1127.7556	1207.4064	1239.5037	1254.0706	1254.5909	1258.6007	1276.8746	1283.6832	1327.3635	1394.8842	1460.0632	1476.0092	1488.3743	1508.9144	1603.0454	3065.1641	3068.4729	3072.4285	3076.587	3113.6749	3126.0077	3136.2362	3290.3107
C1CC(C1)C1=CN=NO1	C1CC(C1)c1cnno1	
InChI=1S/C6H8N2O/c1-2-5(3-1)6-4-7-8-9-6/h4-5H,1-3H2	InChI=1S/C6H8N2O/c1-2-5(3-1)6-4-7-8-9-6/h4-5H,1-3H2
