18
gdb 126180	3.99017	0.98069	0.84745	3.2603	73.9	-0.2647	-0.0168	0.248	1369.7355	0.147046	-439.082395	-439.07344	-439.072496	-439.116883	32.349	
C	-0.0263536673	 1.5624003785	 0.1209383297	-0.386209
C	-0.1133947155	 0.0436436643	 0.2770379127	-0.175041
C	-1.476050458	-0.5116574637	-0.1858349772	 0.026016
O	-1.7380803807	-0.1681235675	-1.5328901148	-0.435337
C	-1.5469232852	-2.0014292785	 0.0295126504	 0.380619
N	-1.5551669369	-2.7958229781	-1.0128399378	-0.217334
O	-1.5851937262	-4.0930450427	-0.5171840968	-0.170059
C	-1.5971261267	-4.0344690187	 0.8221686409	 0.086108
C	-1.5731877362	-2.7466620569	 1.2454632805	-0.34471
H	 0.9627445518	 1.9304875441	 0.4087669631	 0.110544
H	-0.2147820074	 1.8482408516	-0.9165687317	 0.140287
H	-0.7680966536	 2.0681187697	 0.7495765359	 0.111502
H	 0.6705410411	-0.4463978827	-0.3133796699	 0.104122
H	 0.0518271519	-0.2438087601	 1.3232388599	 0.092383
H	-2.262179013	-0.039543525	 0.422304969	 0.093518
H	-1.5490183974	-0.9442853779	-2.0748030309	 0.300339
H	-1.6265296742	-4.9850903932	 1.3320396136	 0.157013
H	-1.5794071565	-2.3785523631	 2.2575836734	 0.12624
44.3361	96.2513	124.8173	209.8741	229.6583	254.2332	284.1587	354.5669	431.5577	510.0026	610.5157	689.7094	763.3343	796.3423	808.4167	874.2906	894.6199	922.296	964.0817	993.9699	1023.8301	1070.8363	1077.6723	1121.4363	1138.6358	1160.1138	1246.1173	1278.7868	1310.2611	1338.9829	1378.0013	1407.4296	1421.0179	1461.9307	1474.2908	1486.8432	1495.5215	1509.7364	1608.0458	2995.985	3023.9897	3036.916	3064.3856	3102.7117	3130.0487	3262.4122	3287.2873	3775.6714
CCC(O)C1=NOC=C1	CC[C@@H](O)c1nocc1	
InChI=1S/C6H9NO2/c1-2-6(8)5-3-4-9-7-5/h3-4,6,8H,2H2,1H3	InChI=1S/C6H9NO2/c1-2-6(8)5-3-4-9-7-5/h3-4,6,8H,2H2,1H3/t6-/m1/s1
