17
gdb 57765	2.88692	0.70883	0.65	3.5757	78.33	-0.2665	-0.001	0.2655	1757.389	0.134097	-417.971889	-417.961401	-417.960457	-418.009637	36.225	
C	 0.0047450977	 1.578357266	 0.0921328122	-0.389304
C	 0.0073126465	 0.043180457	 0.0935855986	-0.022085
O	 0.7608918797	-0.4868504831	 1.1782970266	-0.408931
C	-1.359846276	-0.4951029801	 0.0734659771	 0.072318
C	-2.4872136731	-0.9186616582	 0.1075016748	 0.08069
C	-3.8376605122	-1.5023218532	 0.1200899822	-0.307749
N	-3.898998762	-2.969466792	 0.0305669005	-0.48282
C	-4.5676123428	-1.063554799	 1.3277426521	 0.319336
N	-5.127441932	-0.7123554469	 2.2744045602	-0.316392
H	 1.0357657919	 1.9402940203	 0.1106978642	 0.131134
H	-0.4963061084	 1.9675612118	-0.7987821007	 0.128767
H	-0.5211764218	 1.9618326217	 0.9723341015	 0.125223
H	 0.533982664	-0.3091114965	-0.8015483237	 0.123318
H	 0.2945596356	-0.2653864039	 1.9926134548	 0.287023
H	-4.3967275826	-1.1080888931	-0.7395961975	 0.164106
H	-3.4419278345	-3.2530755718	-0.831814477	 0.246198
H	-3.3519320502	-3.3703886691	 0.788003824	 0.249167
10.5509	65.1919	84.9415	183.544	200.9503	218.6243	252.2784	261.3881	306.5499	363.2142	383.0745	461.7786	497.0326	557.6693	603.4894	626.8273	743.4324	855.4347	887.2724	922.2987	1021.1127	1066.4843	1101.3639	1113.6094	1163.8368	1194.487	1286.6019	1308.4549	1334.2688	1389.2718	1400.5718	1417.3276	1488.2551	1491.6595	1661.2957	2353.698	2369.9328	3023.3859	3039.5209	3043.2313	3116.9113	3130.8401	3489.9702	3571.1168	3799.2153
CC(O)C#CC(N)C#N	C[C@@H](O)C#C[C@@H](N)C#N	
InChI=1S/C6H8N2O/c1-5(9)2-3-6(8)4-7/h5-6,9H,8H2,1H3	InChI=1S/C6H8N2O/c1-5(9)2-3-6(8)4-7/h5-6,9H,8H2,1H3/t5-,6-/m1/s1
