18
gdb 94335	2.72465	1.23247	1.07472	1.5846	78.79	-0.2461	0.0259	0.272	1193.3152	0.145552	-401.865811	-401.856816	-401.855872	-401.899765	33.415	
C	-0.309629823	 1.419193834	 0.0929980964	-0.394156
C	 0.1261397552	-0.0229743554	-0.0495398885	 0.083838
O	 1.3703621086	-0.1752629353	-0.7959260938	-0.297286
C	 2.0366291097	-0.8220719712	 0.3041141706	-0.149508
C	 0.7804849756	-0.6946342101	 1.1574825798	 0.275689
N	 0.6402260107	-0.2556971415	 2.5291185839	-0.35755
C	 0.2117172282	-1.6362295771	 2.1591642513	-0.334217
C	-1.1938755071	-1.9272724765	 2.2037805439	 0.378685
C	-2.3671629059	-2.1900269822	 2.2073011402	-0.436271
H	 0.4674947628	 2.0166818332	 0.5772126319	 0.119897
H	-0.520749947	 1.8466328523	-0.8918721539	 0.123517
H	-1.2173835274	 1.4762308372	 0.7013158011	 0.132636
H	-0.6677280974	-0.6291952156	-0.5054939467	 0.089328
H	 2.3534232384	-1.844695525	 0.0609450225	 0.107857
H	 2.9068647394	-0.2513966983	 0.6580746945	 0.10406
H	 1.5337077781	-0.2968903395	 3.0160968041	 0.237384
H	 0.8607764352	-2.4541270723	 2.4673162252	 0.1145
H	-3.404724184	-2.4157983967	 2.2226118876	 0.201597
67.5713	92.7099	153.7981	198.4707	211.9566	276.6014	329.7447	391.0867	458.9608	526.3629	561.9063	599.5972	629.1777	665.5197	791.8635	823.3493	872.4505	888.8477	934.2149	961.8424	1016.8466	1041.7799	1067.6925	1083.6008	1098.5355	1141.7679	1155.7755	1188.1842	1259.5408	1277.1118	1318.6776	1364.2744	1386.7506	1403.947	1469.159	1485.279	1490.6887	1517.1594	2239.9641	2995.4043	3020.4138	3038.8954	3042.7252	3118.0649	3120.25	3123.83	3483.998	3503.6069
CC1OCC11NC1C#C	C[C@H]1OC[C@]21N[C@H]2C#C	
InChI=1S/C7H9NO/c1-3-6-7(8-6)4-9-5(7)2/h1,5-6,8H,4H2,2H3	InChI=1S/C7H9NO/c1-3-6-7(8-6)4-9-5(7)2/h1,5-6,8H,4H2,2H3/t5-,6+,7-/m1/s1
