18
gdb 31969	2.91094	1.11167	0.8495	2.8228	78.16	-0.1807	0.0277	0.2084	1361.2866	0.14755	-439.100318	-439.090955	-439.090011	-439.135499	33.397	
C	-0.321172214	 1.4362498617	 0.2997521114	-0.330118
N	-0.1729023071	 0.090122256	-0.2420673432	-0.387754
C	-1.209153089	-0.8114194918	-0.0993107856	 0.415781
C	-1.2546554597	-2.175498307	-0.0254574922	-0.291707
C	-2.6483229967	-2.5123538206	 0.0131337211	-0.248889
C	-3.3505542692	-1.3533971668	-0.0363015859	 0.318107
C	-4.7871521886	-0.9866512031	 0.0155040355	-0.1803
O	-5.1953359601	-0.4036153857	 1.254538048	-0.414691
O	-2.4593771319	-0.2910074493	-0.1080683889	-0.222434
H	 0.5758410529	 2.0096536344	 0.0558568856	 0.127209
H	-1.1758545627	 1.9258595844	-0.1711457514	 0.148841
H	-0.4699973859	 1.459138252	 1.3899953552	 0.115754
H	 0.7194941601	-0.3338844176	-0.035297613	 0.245103
H	-0.4117860825	-2.8472616347	-0.003372224	 0.094915
H	-3.0730726145	-3.5025561346	 0.0781617107	 0.108882
H	-5.0359784615	-0.3144829538	-0.8211063533	 0.096752
H	-5.3829250691	-1.8956372048	-0.1030331122	 0.12175
H	-4.6200372704	 0.3523952314	 1.4104059621	 0.282798
50.2245	62.7166	118.757	161.745	191.3991	246.9078	301.6345	348.2553	418.5128	468.502	570.795	627.3461	680.2541	711.4555	735.6926	763.1242	834.9875	933.6281	980.609	993.4349	1023.1291	1035.4435	1076.3831	1148.461	1157.8337	1182.1945	1238.5418	1253.2037	1313.5436	1365.6462	1395.3297	1418.0494	1450.7621	1486.4961	1488.3331	1489.2371	1517.4399	1629.6121	1665.2167	2976.6029	2988.7646	3095.4622	3098.1307	3137.1507	3247.9767	3262.9454	3606.7371	3818.5587
CNC1=CC=C(CO)O1	CNc1ccc(CO)o1	
InChI=1S/C6H9NO2/c1-7-6-3-2-5(4-8)9-6/h2-3,7-8H,4H2,1H3	InChI=1S/C6H9NO2/c1-7-6-3-2-5(4-8)9-6/h2-3,7-8H,4H2,1H3
