17
gdb 46696	2.98931	1.7914	1.38033	2.7302	70.79	-0.2278	-0.0211	0.2067	938.1851	0.137916	-421.810681	-421.803897	-421.802953	-421.841867	27.32	
O	 0.0077893507	-0.0044306324	 0.4438067378	-0.316778
C	-0.039657141	 1.1404424425	 0.0617099986	 0.378178
C	-1.3478751846	 1.7766198392	-0.4165300331	-0.184561
O	-1.3180426865	 3.1943834434	-0.3979167298	-0.258063
C	-0.231371435	 3.7623823476	-1.0810052625	 0.111071
C	 0.9768790953	 4.2242233106	-0.3193389888	-0.088626
C	 1.1758233315	 3.3167444172	 0.8954854813	-0.252437
C	 1.1611111802	 2.0543678417	-0.0514301551	-0.130668
C	 1.0483421141	 3.0072243149	-1.2595240295	-0.143077
H	-1.557848074	 1.3884156879	-1.4270127562	 0.121584
H	-2.1667914741	 1.463922147	 0.2352898915	 0.141004
H	-0.5365168067	 4.3929159769	-1.912721324	 0.099411
H	 1.3895232719	 5.2175172063	-0.4457385023	 0.093168
H	 2.1581959753	 3.4306214693	 1.3556261998	 0.117722
H	 0.4057520851	 3.367260633	 1.6695735024	 0.117318
H	 2.0766658938	 1.4674675341	 0.0076586195	 0.097924
H	 1.5358173439	 2.874483711	-2.2175082195	 0.09683
96.1977	210.8978	271.888	401.4365	427.3967	460.9823	520.2722	608.3175	639.5199	745.7108	762.604	796.9067	828.8025	901.3199	938.7238	962.6478	974.0475	1015.0388	1017.2059	1032.8572	1056.9843	1078.4737	1092.5531	1141.4376	1189.2351	1219.8214	1243.0707	1255.0879	1263.2257	1288.4349	1295.3998	1334.5475	1355.2342	1418.4183	1464.5844	1484.4279	1823.0109	2975.2211	3068.1838	3111.3753	3120.0073	3132.6536	3137.8759	3182.0793	3193.8146
O=C1COC2C3CC1C23	O=C1CO[C@H]2[C@H]3C[C@@H]1[C@@H]23	
InChI=1S/C7H8O2/c8-5-2-9-7-4-1-3(5)6(4)7/h3-4,6-7H,1-2H2	InChI=1S/C7H8O2/c8-5-2-9-7-4-1-3(5)6(4)7/h3-4,6-7H,1-2H2/t3-,4-,6+,7-/m0/s1
