17
gdb 90468	2.24871	1.86178	1.38291	3.6638	71.88	-0.2454	0.0133	0.2587	976.1641	0.137048	-417.99226	-417.984167	-417.983223	-418.025257	30.245	
O	-0.4871004281	 1.3002812949	-0.6968044682	-0.416807
C	-0.0569668826	 0.0948269489	-0.0895126967	 0.103042
C	-1.3060089612	-0.7858924475	 0.1343569107	-0.244055
C	-1.1994420953	-1.9175922815	-0.8728720038	-0.035612
C	-1.0376474594	-1.6547085351	-2.3401362344	-0.163692
C	-1.2499386188	-0.3893050525	-2.992669939	 0.308481
N	-1.4147413363	 0.5671392202	-3.6219974535	-0.34747
N	 0.1365920816	-1.9534213534	-1.4838531221	-0.112001
C	 0.8780577701	-0.7812796976	-0.9727646432	-0.205909
H	 0.2738928647	 1.7577643699	-1.0674077593	 0.287843
H	 0.4388376553	 0.3188134095	 0.8658906614	 0.079285
H	-1.3108919787	-1.2144195331	 1.1404959519	 0.115465
H	-2.2079330539	-0.1801841168	 0.0215629842	 0.143478
H	-1.6298156911	-2.8789099175	-0.6040541136	 0.106164
H	-1.2690885126	-2.4822049124	-3.0076910139	 0.139548
H	 1.3102396679	-0.2082680635	-1.7998503376	 0.122448
H	 1.7037910684	-1.1798796724	-0.375348873	 0.119792
64.9921	110.1	146.8728	237.6379	320.3422	360.2019	403.0118	418.3069	557.3113	586.3437	704.2472	720.6115	738.6002	820.917	830.7426	889.9522	904.096	991.5327	997.4068	1021.1197	1048.0951	1104.2363	1122.6322	1152.2952	1206.0208	1220.4612	1263.5259	1287.0109	1313.2745	1337.1233	1351.786	1373.9589	1396.8396	1425.4395	1475.9106	1486.0045	2350.2162	2989.8722	3048.8719	3068.2669	3093.3464	3118.9425	3128.456	3142.8229	3827.21
OC1CC2C(C#N)N2C1	O[C@H]1C[C@H]2[C@@H](C#N)N2C1	
InChI=1S/C6H8N2O/c7-2-6-5-1-4(9)3-8(5)6/h4-6,9H,1,3H2	InChI=1S/C6H8N2O/c7-2-6-5-1-4(9)3-8(5)6/h4-6,9H,1,3H2/t4-,5-,6+,8?/m0/s1
