17
gdb 85324	2.32931	1.86263	1.1996	5.2697	67.59	-0.2507	-0.0074	0.2433	1033.6774	0.136779	-458.983487	-458.975762	-458.974818	-459.0161	28.831	
C	 0.048398647	 1.5507902133	-0.1495846434	-0.40805
C	 0.0218226863	 0.0434602617	 0.0312378751	 0.114111
O	 0.6279061805	-0.5841851803	-1.1245966236	-0.234617
C	 1.3136849721	-1.7152077256	-0.7989734045	 0.421267
O	 1.7470096777	-2.4693970822	-1.6178696283	-0.329115
C	 1.4653678688	-1.79088483	 0.7261825696	-0.015482
O	 2.7623018042	-1.2998180079	 1.1219649436	-0.279872
C	 2.1885057728	-0.0508062578	 1.5765324443	-0.08917
C	 0.7555377045	-0.5340882636	 1.251801133	-0.117189
H	 1.0715628618	 1.9250468755	-0.235085247	 0.135242
H	-0.4924798224	 1.8313229623	-1.0567339327	 0.141591
H	-0.4334136139	 2.039042192	 0.70348697	 0.124581
H	-1.0222615373	-0.2954345086	 0.0608186964	 0.098143
H	 1.251403719	-2.7890438094	 1.1153859975	 0.109485
H	 2.3921351822	 0.1187849266	 2.6389974595	 0.115764
H	 2.559292736	 0.8035185436	 0.9998514237	 0.115953
H	 0.1000029707	-0.6379183595	 2.115350157	 0.097359
86.4573	109.8854	213.5868	240.9566	254.6754	324.3214	477.538	496.3877	604.5047	668.4498	730.8238	758.5459	849.4093	875.1333	913.6141	954.7149	970.0928	1006.7007	1027.18	1038.5098	1082.0516	1131.1812	1157.0031	1169.8811	1198.9326	1236.1766	1252.9977	1303.5587	1332.8844	1349.5859	1384.4392	1389.0168	1414.089	1483.5819	1499.1406	1523.3307	1887.0745	3015.4093	3034.7701	3047.898	3079.8633	3089.0723	3120.5299	3123.9668	3130.9124
CC1OC(=O)C2OCC12	C[C@H]1OC(=O)[C@H]2OC[C@@H]12	
InChI=1S/C6H8O3/c1-3-4-2-8-5(4)6(7)9-3/h3-5H,2H2,1H3	InChI=1S/C6H8O3/c1-3-4-2-8-5(4)6(7)9-3/h3-5H,2H2,1H3/t3-,4+,5+/m1/s1
