19
gdb 80723	3.5201	1.00744	0.93451	3.1158	79.85	-0.2448	0.0334	0.2782	1298.5024	0.159586	-382.033003	-382.024389	-382.023444	-382.066778	32.231	
C	-0.5618213992	 1.1994536247	-0.0233204721	-0.319616
N	-0.1032542294	-0.1483575816	 0.2720766182	-0.062775
C	 1.1640931107	-0.6842338793	-0.1473471	-0.040572
C	 2.3275534636	 0.3200777119	-0.0037378756	-0.280808
C	 2.0333880284	 0.3903076489	 1.529411421	 0.017194
C	 1.8600172063	 1.7356058787	 2.2563421112	-0.370471
C	 3.1094957955	 2.493724469	 2.3104930068	 0.258775
N	 4.1081936474	 3.0748752406	 2.3366124441	-0.307326
C	 0.8107782279	-0.5317622955	 1.3202528749	-0.095272
H	 0.2290008044	 1.9503347379	-0.1542469098	 0.107898
H	-1.1412296085	 1.1685080846	-0.9516170576	 0.129548
H	-1.2293481997	 1.5332475806	 0.7771045251	 0.125938
H	 1.1784630447	-1.5784882939	-0.7610138687	 0.10024
H	 3.3035579977	-0.1160395573	-0.2209431802	 0.120044
H	 2.2339056362	 1.2495608076	-0.5724487965	 0.112591
H	 2.8043857237	-0.1783534464	 2.0576440467	 0.103937
H	 1.1003295996	 2.3583748196	 1.7771219728	 0.151759
H	 1.5168547663	 1.5578426522	 3.2827024398	 0.152254
H	 0.4772318544	-1.2764362624	 2.0364176499	 0.096664
50.3125	107.2829	160.4034	233.3476	250.8332	295.7484	362.6553	390.703	445.6014	513.9601	592.0886	708.8083	760.1108	817.4198	837.7761	880.0224	904.2117	941.4642	972.5087	1008.9336	1032.23	1051.0228	1079.4444	1107.4067	1139.1401	1159.902	1185.4991	1220.5253	1238.344	1257.5895	1263.844	1289.1144	1319.2926	1381.7812	1400.7859	1451.5913	1464.7721	1480.5698	1504.4954	1511.3531	2359.7884	3003.6299	3046.9277	3062.0094	3066.9314	3072.9534	3104.1167	3106.2641	3125.897	3155.9204	3172.6122
CN1C2CC(CC#N)C12	CN1[C@H]2C[C@@H](CC#N)[C@@H]12	
InChI=1S/C7H10N2/c1-9-6-4-5(2-3-8)7(6)9/h5-7H,2,4H2,1H3	InChI=1S/C7H10N2/c1-9-6-4-5(2-3-8)7(6)9/h5-7H,2,4H2,1H3/t5-,6+,7-,9?/m1/s1
