15
gdb 8172	3.08082	2.58493	1.78469	0.9879	60.74	-0.2315	-0.0255	0.206	748.0984	0.120294	-399.777917	-399.771611	-399.770667	-399.808048	25.35	
O	 0.051797141	 1.4253179014	-0.0064605392	-0.479681
C	-0.0202307905	 0.0581226847	 0.0489998126	 0.31006
C	 0.2895402336	-0.8446317419	 1.2903252352	-0.244389
N	-0.4482220794	-1.9277260446	 0.5279103019	-0.125736
C	-1.3198776752	-0.8127189169	-0.0158685511	-0.244364
C	 0.4820608667	-2.1423904229	-0.6234816972	-0.289015
C	 0.8033230111	-0.6868750698	-0.9838626588	 0.369475
O	 1.4967143233	-0.1766642023	-1.8257447815	-0.349912
H	 0.6522607546	 1.6371192729	-0.7405317895	 0.291771
H	 1.327188737	-1.0742057585	 1.5474815476	 0.114584
H	-0.2735386681	-0.5535338995	 2.1791050018	 0.126998
H	-2.0667653449	-0.5179813287	 0.7237363794	 0.127004
H	-1.7901960387	-1.0123995115	-0.9825520642	 0.114588
H	 1.3667397877	-2.7076171533	-0.3174171511	 0.13931
H	-0.0126366882	-2.6803377789	-1.4369307359	 0.139306
154.8271	262.0411	352.6576	429.7638	461.5813	467.9173	520.2521	621.9238	630.9004	670.9752	762.6348	834.7078	859.585	930.0525	971.6812	976.279	1015.0923	1020.0348	1083.9717	1085.3501	1159.6231	1205.1497	1205.6823	1223.7007	1236.4406	1290.2219	1368.3472	1410.2744	1464.6971	1495.9501	1531.1286	1862.8678	3059.583	3061.1855	3067.3447	3115.4807	3129.7939	3131.1034	3672.1492
OC12CN(C1)CC2=O	O[C@@]12CN(C1)CC2=O	
InChI=1S/C5H7NO2/c7-4-1-6-2-5(4,8)3-6/h8H,1-3H2	InChI=1S/C5H7NO2/c7-4-1-6-2-5(4,8)3-6/h8H,1-3H2
