18
gdb 16962	3.39593	2.11838	1.93274	1.8738	65.51	-0.2491	0.0826	0.3318	796.9714	0.15657	-384.951843	-384.945252	-384.944307	-384.982425	26.327	
C	-0.1964275125	 1.5676685711	-0.021732042	-0.423432
C	 0.0407862671	 0.058813848	-0.0071313517	 0.044787
C	 0.8001818721	-0.5182472518	-1.247484017	-0.259914
C	 1.8993396895	-1.3331957617	-0.5407516854	 0.192255
O	 2.9015644956	-0.4320675149	-0.0674388329	-0.275944
C	 2.3282160713	 0.1406594297	 1.1202933667	-0.087042
C	 0.9302096178	-0.5026907943	 1.1339220964	 0.017791
O	 1.2607221798	-1.80968444	 0.6292458471	-0.250831
H	 0.7278690821	 2.1270737961	-0.1963551504	 0.125394
H	-0.8949592284	 1.8375179752	-0.8200365045	 0.122033
H	-0.6284258677	 1.9149942896	 0.923586747	 0.114348
H	-0.9266374071	-0.4453691632	 0.0813408656	 0.083352
H	 0.1607824384	-1.154819825	-1.8644926139	 0.103597
H	 1.2369015544	 0.2581260806	-1.8800604255	 0.108514
H	 2.3700151423	-2.1465593467	-1.092251935	 0.090236
H	 2.9174108222	-0.1549323736	 1.996320843	 0.105847
H	 2.3185409458	 1.2322937863	 1.0490296941	 0.104124
H	 0.4568331571	-0.5816382254	 2.1120585684	 0.084887
115.5454	218.406	294.8755	333.2482	402.1272	485.8756	547.6723	640.6652	749.7117	804.3672	823.246	858.8993	888.4181	936.2467	951.4628	971.3541	982.7092	1012.5222	1043.0853	1073.5198	1098.2691	1110.0037	1136.3253	1193.8516	1209.0708	1246.3525	1266.7324	1309.9716	1313.3473	1327.3718	1355.1934	1373.8084	1380.0478	1413.8831	1485.5927	1497.2949	1499.3144	1528.0479	3031.1708	3033.8481	3049.3848	3064.9973	3083.1665	3096.0293	3108.2473	3116.7266	3129.1694	3135.2949
CC1CC2OCC1O2	C[C@H]1C[C@H]2OC[C@@H]1O2	
InChI=1S/C6H10O2/c1-4-2-6-7-3-5(4)8-6/h4-6H,2-3H2,1H3	InChI=1S/C6H10O2/c1-4-2-6-7-3-5(4)8-6/h4-6H,2-3H2,1H3/t4-,5-,6-/m0/s1
