20
gdb 52249	3.46813	0.98396	0.92029	3.6826	79.28	-0.2439	0.0326	0.2766	1341.0303	0.172036	-403.143152	-403.134443	-403.133499	-403.177628	32.422	
O	 0.5908291135	 0.6183851145	 1.5161509469	-0.328734
C	 0.3304676482	 1.4231009125	 0.6451553427	 0.159992
N	 1.1464158298	 1.754730023	-0.389384302	-0.268459
C	 2.4826638077	 1.1973128147	-0.5595901446	-0.186941
C	 3.5897719032	 2.1435584897	-0.0971152625	 0.013993
C	 3.7259529128	 2.4679817079	 1.4325207444	-0.2564
C	 5.1839481905	 1.9900412782	 1.3809396905	-0.033883
C	 5.2369171476	 0.5546093779	 0.9496179179	-0.276664
C	 5.0342818384	 1.6193272297	-0.0973682819	-0.069276
H	-0.6306858648	 1.9740088779	 0.6021902088	 0.073458
H	 0.8357589249	 2.4764356496	-1.0202602619	 0.244943
H	 2.5012576447	 0.2700705671	 0.0162119887	 0.144089
H	 2.6271558164	 0.9386665946	-1.6158264166	 0.104036
H	 3.5258202346	 3.0763617071	-0.6685561217	 0.063697
H	 3.6195228875	 3.534128121	 1.6428136267	 0.097939
H	 3.0645874684	 1.9078196469	 2.1000218117	 0.126008
H	 6.0192808361	 2.4715945338	 1.8740591166	 0.08429
H	 6.2240969142	 0.1033343327	 0.9473614071	 0.10984
H	 4.4399217764	-0.1315951512	 1.2250987843	 0.117812
H	 5.7409039598	 1.7507250222	-0.9086166852	 0.080259
46.748	57.9194	141.4191	194.1764	238.1733	302.8188	374.1823	446.5776	485.3014	529.4462	675.2971	748.1766	780.6894	802.1315	836.2309	887.0555	939.8943	960.3166	977.9575	990.2585	1023.0056	1029.915	1039.2204	1064.3482	1087.114	1098.0339	1132.9898	1161.1666	1201.0232	1219.1776	1244.8841	1262.91	1287.5178	1302.5196	1348.402	1373.0189	1404.7025	1430.3726	1473.1724	1485.543	1501.6577	1534.1423	1799.9213	2929.6454	3030.4838	3036.8598	3059.6109	3111.597	3113.8621	3124.6534	3170.6641	3184.3566	3201.1332	3632.8733
O=CNCC1CC2CC12	O=CNC[C@H]1C[C@H]2C[C@@H]12	
InChI=1S/C7H11NO/c9-4-8-3-6-1-5-2-7(5)6/h4-7H,1-3H2,(H,8,9)	InChI=1S/C7H11NO/c9-4-8-3-6-1-5-2-7(5)6/h4-7H,1-3H2,(H,8,9)/t5-,6+,7+/m0/s1
