16
gdb 14432	4.0939	2.22436	1.76845	1.7355	71.35	-0.2085	-0.0326	0.1759	762.0142	0.130822	-346.495969	-346.489638	-346.488694	-346.525808	26.247	
O	-0.0873091727	 1.3205519596	-0.1114276128	-0.449437
C	 0.0129263872	-0.059760656	-0.0621849951	 0.363125
C	 0.5750853968	-0.9078361406	-1.2740493448	-0.322306
C	-0.2258920637	-2.0068787353	-0.5709536987	 0.054415
C	 0.4319075183	-2.7627032359	 0.3310613064	-0.096754
C	 0.2451677399	-2.1811175468	 1.7304475715	-0.262539
C	-0.2897058661	-0.7928836194	 1.3323821395	-0.103234
C	-1.1424660279	-0.9790476977	 0.1237746511	-0.161098
H	 0.757623582	 1.6931734531	 0.1636376591	 0.286936
H	 0.1508437136	-0.486932086	-2.1929681987	 0.110584
H	 1.6517877843	-1.0683574956	-1.3867757051	 0.094568
H	 1.3384671903	-3.307834878	 0.082829965	 0.095602
H	-0.455117186	-2.6929294157	 2.4073458213	 0.10703
H	 1.2191562193	-2.1673747153	 2.2359078793	 0.104802
H	-0.5854917501	-0.0717643046	 2.0919128374	 0.082254
H	-2.2035327252	-0.8215108859	-0.0195673154	 0.096053
250.3269	275.5972	321.5965	368.4561	394.8712	439.9928	549.1511	639.3465	686.3423	733.2148	799.1263	857.6076	884.9961	909.7538	913.0585	937.7247	966.8624	1003.0595	1008.5363	1039.9335	1061.3625	1094.3589	1137.5479	1182.13	1190.6519	1215.4752	1247.3595	1271.665	1291.1065	1316.0737	1418.4715	1478.9998	1500.3836	1597.3536	2990.2211	3027.1358	3041.3416	3090.4935	3136.8142	3163.2234	3197.4009	3795.0814
OC12CC3=CCC1C23	O[C@@]12C[C]3[CH]C[C@@H]1[C@@H]23	
InChI=1S/C7H8O/c8-7-3-4-1-2-5(7)6(4)7/h1,5-6,8H,2-3H2	InChI=1S/C7H8O/c8-7-3-4-1-2-5(7)6(4)7/h1,5-6,8H,2-3H2/t5-,6+,7+/m1/s1
