13
gdb 20333	5.66266	1.36661	1.30817	0.1699	64.91	-0.2654	-0.0087	0.2567	932.448	0.096729	-357.605209	-357.598284	-357.59734	-357.637458	24.573	
C	-0.021258866	-1.2175630556	-0.0057628456	-0.446515
C	 0.0117927486	-0.0179132319	 0.0014071155	 0.331583
C	 0.0297947819	 1.4417499188	 0.0103814653	-0.293554
N	 1.3757210923	 2.00170328	 0.0002200247	 0.16075
N	 2.0498334625	 2.2309107516	 1.1215323054	-0.220802
C	 3.231971745	 2.6696121891	 0.6865273953	-0.055965
C	 3.2171732911	 2.6797048339	-0.7154382738	-0.055976
N	 2.0260555852	 2.247119886	-1.1316678204	-0.220797
H	-0.0438328672	-2.2795017193	-0.0118708756	 0.209899
H	-0.4835342166	 1.8382484059	-0.8695430999	 0.16791
H	-0.4656613618	 1.8271105329	 0.9053779674	 0.167886
H	 4.0072790572	 2.9551419835	 1.3791884221	 0.12779
H	 3.9777244078	 2.9752997952	-1.4201319102	 0.127791
35.5371	93.6562	248.6729	315.6339	349.2283	470.8165	626.1105	676.8911	681.3576	689.7598	785.3729	849.6372	899.5991	958.4906	960.1376	983.7317	996.2398	1097.9637	1164.0749	1239.3831	1296.5824	1377.4511	1377.6953	1387.7329	1444.3069	1454.5514	1507.6044	2249.4758	3070.4963	3118.6737	3264.9576	3282.1921	3505.0652
C#CCN1N=CC=N1	C#CCn1nccn1	
InChI=1S/C5H5N3/c1-2-5-8-6-3-4-7-8/h1,3-4H,5H2	InChI=1S/C5H5N3/c1-2-5-8-6-3-4-7-8/h1,3-4H,5H2
