16
gdb 104939	2.92105	0.86003	0.71695	4.8056	84.57	-0.2827	-0.0544	0.2283	1543.3129	0.122492	-400.716642	-400.707416	-400.706471	-400.751414	32.582	
C	-0.4102760965	 1.4160134008	-0.0296456919	-0.385417
C	 0.21411656	 0.0237520334	 0.1073888984	-0.269823
C	 0.8303750402	-0.4746428134	-1.1895344796	 0.158984
C	 0.7071152665	-1.8927922049	-1.598306115	-0.211617
O	-0.1045120216	-0.8932055057	-2.2019390041	-0.247846
C	 1.9572697614	 0.2760722907	-1.6906532695	 0.099461
C	 2.9031964332	 0.9205951513	-2.079255293	 0.096809
C	 3.974356167	 1.6399082304	-2.5243664577	 0.196923
N	 4.8875219238	 2.2519753928	-2.9002310511	-0.331478
H	 0.3403767621	 2.163237297	-0.3041437587	 0.133779
H	-1.1872008047	 1.4153636778	-0.7993876045	 0.138872
H	-0.8646480632	 1.7265704204	 0.9149540666	 0.123807
H	 0.9877030742	 0.024494794	 0.8841346538	 0.118328
H	-0.5470450989	-0.7033430282	 0.4084706321	 0.116544
H	 1.4648065808	-2.3360273066	-2.2412063141	 0.133958
H	 0.1936672157	-2.57832637	-0.9255916516	 0.128716
65.4063	89.6425	106.5528	198.4325	215.1805	254.227	265.6522	334.7017	425.5815	509.2858	546.1266	567.5063	595.082	608.5218	764.5523	824.3067	861.5189	941.9903	993.2973	1038.2333	1095.1021	1104.6822	1136.508	1171.1413	1264.4159	1296.0476	1349.4457	1389.4016	1413.2798	1471.0192	1498.1365	1506.9521	1518.5008	2263.1583	2395.7904	3040.9368	3046.5022	3083.6743	3089.2035	3119.4533	3124.0347	3184.5116
CCC1(CO1)C#CC#N	CC[C@]1(CO1)C#CC#N	
InChI=1S/C7H7NO/c1-2-7(6-9-7)4-3-5-8/h2,6H2,1H3	InChI=1S/C7H7NO/c1-2-7(6-9-7)4-3-5-8/h2,6H2,1H3/t7-/m1/s1
