18
gdb 10147	4.03611	1.11347	0.88828	3.0489	74.85	-0.2259	-0.0648	0.1611	1304.5725	0.151026	-381.126762	-381.116948	-381.116004	-381.162037	33.45	
C	 0.0586720746	 1.5046699725	 0.0088225433	-0.407342
C	-0.0583152868	-0.0141188261	-0.054554866	-0.095111
N	 0.7132642828	-0.5461927441	-1.1650098066	-0.337707
C	 0.8040442125	-1.9071649472	-1.3709020878	 0.299594
C	 1.5133377069	-2.231342776	-2.6636139033	 0.104283
O	 1.7103162962	-3.341009263	-3.0858984499	-0.24051
N	 0.3504646135	-2.7296711461	-0.5051941032	-0.302971
C	 0.5128715677	-4.1655560161	-0.6490153249	-0.305734
H	 1.1010996677	 1.8152720491	 0.1290141803	 0.128052
H	-0.334803683	 1.9746674645	-0.9004382915	 0.11512
H	-0.5146360874	 1.894304117	 0.8541423596	 0.128542
H	 0.3201368158	-0.4767878186	 0.8621654273	 0.132606
H	-1.1118478356	-0.3225498312	-0.1315860768	 0.109441
H	 0.7716781376	 0.0385420705	-1.9849916053	 0.236897
H	 1.8581864349	-1.3342661134	-3.2326336782	 0.07284
H	-0.0418477583	-4.5619021616	-1.5084359001	 0.125953
H	 1.5574375318	-4.469765574	-0.7854582125	 0.125443
H	 0.127392299	-4.6442324662	 0.2558908656	 0.110603
51.3907	68.5288	128.8019	142.2308	174.9862	235.5939	246.9152	282.0318	352.9381	378.9886	415.1567	456.4061	548.5914	762.7127	804.1642	850.6269	922.9347	1004.9091	1059.7966	1098.4599	1104.7894	1129.6212	1160.2013	1197.6466	1273.0081	1287.3395	1375.6417	1414.4967	1434.9514	1446.4185	1478.5432	1492.5054	1498.1775	1500.2048	1521.0632	1525.9717	1694.738	1828.5349	2836.4979	2995.8122	3011.8265	3032.1895	3066.2655	3073.8485	3091.2368	3102.0504	3121.3676	3611.4618
CCNC(C=O)=NC	CCNC(=NC)C=O	
InChI=1S/C5H10N2O/c1-3-7-5(4-8)6-2/h4H,3H2,1-2H3,(H,6,7)	InChI=1S/C5H10N2O/c1-3-7-5(4-8)6-2/h4H,3H2,1-2H3,(H,6,7)
