19
gdb 27148	2.97596	1.28587	0.97275	3.5141	83.94	-0.1993	0.0351	0.2344	1243.6311	0.160719	-382.105059	-382.096414	-382.09547	-382.139244	32.098	
C	 0.1434332023	 1.525295809	 0.1369359348	-0.492866
C	-0.0087342704	 0.043111661	 0.0132747659	 0.184462
C	-0.1323640952	-0.7231823897	-1.1250078512	 0.266837
N	-0.2421665701	-2.0250292765	-0.6636578242	-0.325997
C	-0.1810902675	-1.9838716418	 0.6983319403	-0.001555
N	-0.0412037398	-0.7592437539	 1.1388799279	-0.306887
C	-0.1566288904	-0.3652726534	-2.5530607326	-0.084673
C	 0.4680120256	-1.2488833158	-3.6157530608	-0.274666
C	-1.028152076	-1.1004941252	-3.5531397364	-0.274665
H	 0.1511501219	 2.0155002371	-0.8402934872	 0.113569
H	-0.674940979	 1.9562925133	 0.724101144	 0.131764
H	 1.076151201	 1.7826350762	 0.6508149966	 0.131764
H	-0.3476808494	-2.8506898375	-1.2283326174	 0.259193
H	-0.2442763347	-2.8763090626	 1.3033931715	 0.123367
H	-0.0577171722	 0.701622002	-2.7179824022	 0.093774
H	 1.0030311019	-0.7693208092	-4.4278579977	 0.120571
H	 0.9082973778	-2.187608042	-3.2950949843	 0.107718
H	-1.6158906207	-1.9372595124	-3.1894588213	 0.107718
H	-1.524071015	-0.5186834886	-4.3221006358	 0.120571
46.0713	70.5316	159.8129	166.1519	257.11	280.3554	409.0054	460.7558	489.6484	593.9319	674.7732	702.7573	710.8929	790.0119	797.5275	813.8088	904.1647	913.8607	958.4845	982.1503	1058.1801	1062.2255	1063.9103	1071.1892	1099.2421	1125.1876	1141.7049	1198.9671	1215.8826	1273.8897	1283.195	1373.1453	1401.0276	1415.5224	1467.38	1473.795	1474.2339	1493.3825	1505.0014	1530.2111	1636.7435	3031.9951	3083.8491	3112.6933	3127.7991	3132.7999	3172.4315	3205.7946	3222.5204	3246.1708	3665.5273
CC1=C(NC=N1)C1CC1	Cc1c([nH]cn1)C1CC1	
InChI=1S/C7H10N2/c1-5-7(6-2-3-6)9-4-8-5/h4,6H,2-3H2,1H3,(H,8,9)	InChI=1S/C7H10N2/c1-5-7(6-2-3-6)9-4-8-5/h4,6H,2-3H2,1H3,(H,8,9)
