22
gdb 53530	3.47966	0.7657	0.7107	1.3845	92.04	-0.2336	0.0635	0.2972	1726.8157	0.191469	-367.176102	-367.164996	-367.164051	-367.213731	39.26	
C	 0.0545657071	 1.4791847288	-0.355974803	-0.497183
C	 0.0247614731	 0.0514453066	-0.0699171911	 0.07333
C	 0.0117451809	-1.1302110824	 0.161853493	 0.065789
C	-0.0175442964	-2.5645368386	 0.4398921349	-0.404817
C	-1.3938587332	-3.1964339155	 0.2179553597	 0.325067
C	-2.5112462579	-2.5639475825	 1.0237837745	-0.462512
N	-1.6714959642	-3.5955781206	-1.1726423433	-0.362035
C	-1.5227257628	-4.6396270568	-0.13969166	-0.041781
C	-0.3840427241	-5.6204477708	-0.2964476752	-0.400643
H	 1.0396877744	 1.7912462866	-0.720563714	 0.14633
H	-0.6798281088	 1.7472678615	-1.1237671112	 0.145913
H	-0.1696617893	 2.0729799174	 0.5373469363	 0.143225
H	 0.7155998606	-3.068791025	-0.1959023	 0.131181
H	 0.2905022081	-2.7436412419	 1.4797049155	 0.118833
H	-2.6255866053	-1.5077005254	 0.7606820029	 0.134777
H	-3.4627843994	-3.0737995465	 0.8416934798	 0.106733
H	-2.3029083894	-2.616200729	 2.0987129437	 0.118617
H	-2.6517485457	-3.4438387202	-1.3969858223	 0.223233
H	-2.4438052645	-5.1028605563	 0.2163313217	 0.075001
H	 0.5039056108	-5.1462089342	-0.7191763953	 0.127605
H	-0.1159248758	-6.0685076266	 0.6668921264	 0.114237
H	-0.6750779981	-6.4314828684	-0.972885123	 0.119099
26.2487	42.0988	81.9709	154.1913	192.7684	204.5665	215.962	253.9891	265.9006	349.7114	380.7984	393.5581	459.7498	469.9048	510.6767	725.5464	764.5844	794.1966	875.5608	914.2348	961.497	979.6665	1033.3282	1044.3531	1052.7685	1054.5246	1096.6238	1123.2523	1139.8319	1166.0811	1230.1401	1245.9946	1311.9157	1324.9493	1369.6765	1409.6167	1414.5218	1416.6324	1456.9935	1463.5757	1479.7264	1479.8633	1483.8443	1491.056	1498.9096	1509.21	2371.8697	3011.2515	3024.7262	3027.8608	3034.4137	3082.0696	3083.6818	3084.7616	3090.9905	3092.3961	3093.8129	3107.0123	3130.0574	3495.3298
CC#CCC1(C)NC1C	CC#CC[C@@]1(C)N[C@H]1C	
InChI=1S/C8H13N/c1-4-5-6-8(3)7(2)9-8/h7,9H,6H2,1-3H3	InChI=1S/C8H13N/c1-4-5-6-8(3)7(2)9-8/h7,9H,6H2,1-3H3/t7-,8+/m0/s1
