15
gdb 124935	2.13358	0.94324	0.68662	3.9667	68.58	-0.2429	-0.0433	0.1996	1576.0994	0.104913	-454.019694	-454.007462	-454.006518	-454.06345	36.311	
C	-0.1079515808	 1.6041327497	-0.0170714057	-0.489675
C	-0.159643666	 0.0987882367	 0.1801964308	 0.360876
C	-1.5065256515	-0.5095458527	 0.2109794269	-0.21622
C	-2.8116821573	 0.247951661	 0.0576056115	-0.480644
C	-1.5216003794	-1.8258897771	 0.3896784973	 0.520323
O	-1.5447712759	-2.9703816606	 0.5467744074	-0.196661
N	 1.5185599243	-3.3190903188	-1.0210852514	 0.003483
N	 2.4895368796	-3.4987622091	-0.5396648615	-0.008216
O	 0.8550715126	-0.5640036095	 0.3068248601	-0.343149
H	 0.9353265947	 1.9202894253	-0.0173932908	 0.147864
H	-0.5787406327	 1.8914243039	-0.9637096673	 0.13974
H	-0.6487801134	 2.1234381372	 0.7816984962	 0.139367
H	-2.8624682903	 0.761121738	-0.9085384339	 0.142001
H	-3.6701184043	-0.4255121666	 0.1156061871	 0.139293
H	-2.9307101896	 0.9993682527	 0.8453888933	 0.141619
9.0077	13.2287	38.8511	45.3337	70.4104	84.4237	122.835	143.3219	168.0046	244.6399	246.3959	403.9116	478.0743	547.733	630.3164	650.8444	699.7902	954.4639	986.9883	1027.1846	1064.4193	1115.4235	1271.4832	1367.1206	1393.2646	1420.6459	1461.9103	1471.6012	1488.4662	1505.0232	1738.0103	2224.1527	2432.5817	3031.5489	3037.6255	3088.7509	3098.409	3118.6668	3156.4042	9.0063	13.2295	38.8513	45.3338	70.4105	84.4233	122.8342	143.3222	168.0042	244.6399	246.3959	403.9117	478.0743	547.7328	630.3163	650.8444	699.7902	954.4639	986.9884	1027.1848	1064.4194	1115.4236	1271.4834	1367.1207	1393.2648	1420.6459	1461.9107	1471.6015	1488.4664	1505.0232	1738.0103	2224.153	2432.5817	3031.5489	3037.6255	3088.7508	3098.409	3118.6668	3156.4042
CC1=C(C)C(=O)N=NO1	CC(=O)[C](C)[C][O].N#N	
InChI=1S/C5H6N2O2/c1-3-4(2)9-7-6-5(3)8/h1-2H3	InChI=1S/C5H6O2.N2/c1-4(3-6)5(2)7;1-2/h1-2H3;
