21
gdb 76742	2.01765	1.73483	1.14346	0.9402	78.83	-0.2423	0.0693	0.3116	1157.1321	0.179991	-424.20067	-424.190674	-424.18973	-424.234695	37.883	
C	-0.1184880983	 1.6017179581	 0.0705481166	-0.411413
C	 0.0286509807	 0.0861250142	 0.0292013052	-0.074183
C	 1.1119352271	-0.5344847339	-0.9415716291	 0.016647
O	 1.982851341	 0.3353925013	-1.638522165	-0.433898
C	 1.756847843	-1.2216369991	 0.2493778533	 0.359891
O	 2.249554642	-2.5161281755	 0.2264933896	-0.473432
C	 2.1581750865	-0.2185109749	 1.295520268	-0.404397
C	 0.7070888941	-0.6483965284	 1.2007279342	 0.284418
C	-0.0173988359	-1.3148768206	 2.334334536	-0.498071
H	 0.8408691459	 2.1010293469	 0.2270340634	 0.126271
H	-0.5360971367	 1.9801524373	-0.8698468678	 0.102394
H	-0.7957639841	 1.9073326739	 0.8751277449	 0.114422
H	-0.9458329282	-0.3710715323	-0.1780669702	 0.065902
H	 0.6613534468	-1.2712043893	-1.6191051193	 0.071726
H	 1.5017145223	 0.7144146133	-2.380933128	 0.282961
H	 3.1921430936	-2.476585241	 0.0306974679	 0.287657
H	 2.6909922056	-0.6612341984	 2.1319445801	 0.107626
H	 2.4895081907	 0.779235158	 1.0249821628	 0.117489
H	-0.384730069	-0.5838359613	 3.0643524184	 0.117283
H	-0.8808087657	-1.8841471637	 1.9710876725	 0.11534
H	 0.6419338088	-2.0111214648	 2.8623908967	 0.125367
105.3679	164.9421	171.4841	190.7218	213.7241	248.2946	255.5433	275.1175	293.44	334.9767	399.7944	486.8546	503.2932	601.826	657.6282	683.4778	742.7011	812.2397	841.6519	908.1345	968.0571	980.7231	1004.2178	1048.9824	1057.3002	1088.3809	1126.201	1139.0218	1160.2859	1188.9802	1230.1867	1248.6662	1279.7426	1304.4233	1346.8464	1359.9063	1396.9376	1411.3195	1424.824	1438.6878	1485.9033	1492.8368	1496.7195	1497.8547	1515.0123	3015.0151	3021.1181	3029.8732	3039.3729	3078.5563	3087.9779	3099.0296	3117.0839	3121.1224	3204.5149	3793.72	3816.3637
CC1C(O)C2(O)CC12C	C[C@H]1[C@@H](O)[C@@]2(O)C[C@@]12C	
InChI=1S/C7H12O2/c1-4-5(8)7(9)3-6(4,7)2/h4-5,8-9H,3H2,1-2H3	InChI=1S/C7H12O2/c1-4-5(8)7(9)3-6(4,7)2/h4-5,8-9H,3H2,1-2H3/t4-,5+,6-,7-/m0/s1
