18
gdb 112599	3.26989	0.92013	0.84475	4.4582	72.98	-0.2767	0.013	0.2898	1392.438	0.146094	-439.077381	-439.067915	-439.066971	-439.112046	34.501	
O	 0.0512383662	 1.374358816	-0.3230048565	-0.42006
C	 0.0837549864	-0.0037618764	 0.011027946	-0.095035
C	-1.3471532645	-0.4954411934	 0.0602301697	 0.049241
C	-2.1388317833	-0.559899955	-1.2733739038	-0.264998
C	-2.7176955171	-1.9338584252	-0.8389764622	 0.271564
O	-2.7207116815	-2.8826077919	-1.8785422159	-0.455431
C	-1.5850983208	-2.0185697411	 0.2405178283	-0.319012
C	-4.0511042796	-1.8289954794	-0.2257411623	 0.22578
N	-5.0981978464	-1.7840565119	 0.2626898265	-0.338155
H	 0.9555695775	 1.6971069141	-0.3754831211	 0.290466
H	 0.6452398336	-0.5855924182	-0.7394278521	 0.083314
H	 0.5682258614	-0.1724919026	 0.9870197808	 0.09071
H	-1.8979663578	 0.0810515756	 0.8087642252	 0.099916
H	-2.8466150927	 0.2361561948	-1.5018384019	 0.129806
H	-1.4804962254	-0.7223338528	-2.1310099453	 0.12416
H	-3.1062588863	-3.7041037151	-1.5523090261	 0.292389
H	-0.7643508509	-2.6128957229	-0.1718079281	 0.115604
H	-1.8514176688	-2.3917722846	 1.2305615591	 0.119741
54.9722	97.4518	146.3035	179.4567	232.8302	261.9425	297.7736	346.7683	365.6792	414.8603	435.7493	535.5421	590.437	646.875	716.9304	835.0887	854.3527	926.9799	945.0422	1000.9633	1027.8234	1057.7368	1077.4005	1096.645	1144.5045	1171.5089	1227.3466	1241.832	1258.5788	1271.7517	1288.526	1298.0353	1359.7787	1376.5268	1463.7062	1465.5215	1488.1907	1520.0447	2347.0573	2954.0655	2983.4195	3061.7158	3072.3626	3078.8344	3131.0911	3147.5707	3799.3349	3831.0069
OCC1CC(O)(C1)C#N	OC[C@H]1C[C@@](O)(C1)C#N	
InChI=1S/C6H9NO2/c7-4-6(9)1-5(2-6)3-8/h5,8-9H,1-3H2	InChI=1S/C6H9NO2/c7-4-6(9)1-5(2-6)3-8/h5,8-9H,1-3H2/t5-,6+
