16
gdb 47425	2.80901	1.53002	1.21963	1.7273	65.27	-0.2665	0.016	0.2825	1030.0187	0.125119	-475.004078	-474.996382	-474.995437	-475.036848	28.123	
N	 0.0518519257	 1.2986121176	 0.1315530871	-0.539839
C	-0.037516206	 0.0536502006	-0.0326968387	 0.402248
O	 0.9863112108	-0.8363513852	-0.1305681865	-0.233084
C	 0.4365295061	-2.1523792029	-0.2066966876	 0.020263
O	-0.9108807754	-2.0105386728	-0.5927577251	-0.255733
C	-1.3362678931	-0.7273312631	-0.1570871315	-0.037312
C	-2.0890590477	-0.7706426615	 1.1615244287	 0.066808
C	-2.7824599116	-1.9833210945	 1.602411422	-0.176134
O	-1.5201785412	-1.6034826796	 2.1699982327	-0.236827
H	 1.0255651726	 1.5937056354	 0.2118560744	 0.231093
H	 0.9725121261	-2.7170025778	-0.974558594	 0.12736
H	 0.5248252744	-2.6284955621	 0.776915916	 0.129332
H	-1.9768643876	-0.2873187375	-0.9278269043	 0.12694
H	-2.4314101467	 0.2058052223	 1.5037624005	 0.121736
H	-3.6354194823	-1.898914983	 2.2730283347	 0.121978
H	-2.7529533842	-2.8662463159	 0.9695154814	 0.131172
91.5434	103.9616	176.7761	188.7862	254.1912	358.6781	458.2974	569.1782	634.4063	718.3824	754.3638	800.3049	886.0207	899.1558	914.4692	950.3009	983.931	1001.1755	1041.1503	1092.9797	1106.1611	1145.2844	1163.2412	1168.1448	1181.4072	1222.0265	1272.9204	1280.4127	1313.6168	1351.4157	1419.4897	1449.3703	1518.5196	1540.3872	1796.1911	3034.6501	3069.8967	3100.4087	3101.3444	3123.9611	3197.9783	3486.1027
N=C1OCOC1C1CO1	[NH][C]1OCO[C@H]1[C@H]1CO1	
InChI=1S/C5H7NO3/c6-5-4(3-1-7-3)8-2-9-5/h3-4,6H,1-2H2	InChI=1S/C5H7NO3/c6-5-4(3-1-7-3)8-2-9-5/h3-4,6H,1-2H2/t3-,4+/m1/s1
