16
gdb 93202	2.89818	1.32712	0.94101	6.1004	66.59	-0.2427	-0.0628	0.1799	1172.9131	0.124806	-475.067821	-475.059521	-475.058577	-475.101104	30.764	
O	-0.0463854704	 1.4383907357	-0.0109522724	-0.418764
C	 0.094896181	 0.0307470366	-0.0133698288	 0.08472
C	 0.6201020947	-0.4750904041	 1.3351106058	-0.185695
N	 0.6285708193	-1.9289924078	 1.367590672	-0.327687
C	-0.2630864085	-2.7687735328	 0.7565459529	 0.31492
O	-0.260728244	-3.9689027304	 0.9175999479	-0.337991
C	-1.2757871602	-2.0861109399	-0.207169812	 0.293645
O	-2.0195610028	-2.7736858675	-0.854115025	-0.267254
C	-1.2843514802	-0.5678750949	-0.27144089	-0.311128
H	 0.8298887889	 1.8365067629	-0.0318856677	 0.290801
H	 0.7861508805	-0.29684674	-0.8057435034	 0.090851
H	 1.6431114647	-0.1188720815	 1.4992868787	 0.110525
H	-0.007419176	-0.0472948662	 2.1307270682	 0.123552
H	 1.2531033478	-2.3940843502	 2.0116184766	 0.256264
H	-1.9663320718	-0.20080282	 0.5097277345	 0.141946
H	-1.6930103331	-0.2519681199	-1.2337128874	 0.141294
62.2938	105.3477	208.1143	280.3431	311.7364	344.6001	376.0675	399.351	432.2324	467.9441	597.4655	614.3479	631.187	722.7137	753.8934	897.612	921.0611	1036.7472	1057.5691	1094.9224	1111.814	1156.9359	1178.6928	1237.4618	1279.0035	1305.4379	1315.1117	1365.625	1387.7637	1440.0553	1458.2426	1477.5688	1519.6311	1803.5338	1835.4311	2980.7706	3001.5847	3020.2082	3062.5055	3114.5115	3598.9115	3817.3209
OC1CNC(=O)C(=O)C1	O[C@H]1CNC(=O)C(=O)C1	
InChI=1S/C5H7NO3/c7-3-1-4(8)5(9)6-2-3/h3,7H,1-2H2,(H,6,9)	InChI=1S/C5H7NO3/c7-3-1-4(8)5(9)6-2-3/h3,7H,1-2H2,(H,6,9)/t3-/m1/s1
