21
gdb 114820	2.52319	1.33355	1.17	2.2554	78.76	-0.2369	0.0761	0.313	1192.4074	0.181245	-424.184245	-424.175056	-424.174112	-424.218257	34.214	
C	 0.036864113	 1.5126964299	 0.2152598071	-0.237234
O	 0.5954207065	 0.2451208332	-0.049826469	-0.241403
C	 0.7210881601	-0.5605025602	 1.0914766394	 0.079866
C	-0.5645086204	-1.2260772458	 1.6909189635	-0.277629
C	 0.0775058743	-2.6159251995	 1.4621582154	 0.066666
O	-0.3258045847	-3.2079344752	 0.2160680289	-0.29302
C	 0.7910453527	-2.6049261484	-0.4835726155	-0.122088
C	 1.3344016012	-1.9562830131	 0.808933577	 0.270801
C	 2.7773314958	-2.201522211	 1.1851590309	-0.511623
H	 0.6499186433	 2.0827570249	 0.931071034	 0.104328
H	 0.0003808084	 2.0566626742	-0.7315138311	 0.128587
H	-0.9833069046	 1.4368294846	 0.619572131	 0.11162
H	 1.2929125927	-0.0251985176	 1.8665252627	 0.060544
H	-0.7631986009	-0.9664311349	 2.7337547812	 0.097804
H	-1.4713322569	-1.0872753896	 1.0979567218	 0.114881
H	 0.0938565334	-3.3335504557	 2.2869276148	 0.071305
H	 1.4500377584	-3.370720148	-0.9120123245	 0.094399
H	 0.4722134481	-1.9126238444	-1.2685205989	 0.117775
H	 3.4510334188	-1.6459249124	 0.5216156882	 0.127247
H	 2.9846804947	-1.8788539887	 2.2114131508	 0.115422
H	 3.034132306	-3.2634029126	 1.1086667923	 0.121751
74.0194	105.0058	173.4332	194.2441	204.3464	223.369	311.7191	327.9708	405.7926	444.6774	493.1996	631.6818	668.0162	784.578	850.4858	872.4268	902.727	967.4759	973.5259	999.8248	1002.466	1047.5181	1061.0646	1122.7467	1152.5452	1164.1363	1176.4512	1180.0063	1186.8823	1193.554	1247.5776	1254.2478	1269.0876	1295.5399	1330.2187	1364.4471	1400.4301	1412.0082	1456.9713	1481.4237	1485.9955	1491.8242	1492.9105	1508.3624	1522.0196	2963.8129	2977.0967	3016.3877	3023.0997	3025.92	3060.2106	3073.7661	3084.7625	3086.093	3095.4218	3116.3287	3125.6803
COC1CC2OCC12C	CO[C@H]1C[C@H]2OC[C@@]12C	
InChI=1S/C7H12O2/c1-7-4-9-6(7)3-5(7)8-2/h5-6H,3-4H2,1-2H3	InChI=1S/C7H12O2/c1-7-4-9-6(7)3-5(7)8-2/h5-6H,3-4H2,1-2H3/t5-,6+,7-/m0/s1
