15
gdb 30630	4.52792	1.00755	0.82836	5.1796	69.78	-0.2363	-0.0289	0.2074	1298.8724	0.113405	-453.990397	-453.982167	-453.981223	-454.023903	29.389	
O	 0.0365380791	 1.3702131086	 0.0089345257	-0.401515
C	-0.019226535	-0.0336259652	 0.0027496276	-0.180478
C	-1.4760519703	-0.4799657434	 0.0118144416	 0.281532
O	-2.4042938955	 0.2991406348	 0.0223877904	-0.310594
C	-1.6918135088	-1.9399425876	 0.0062918455	 0.192897
C	-2.910206574	-2.5808095495	 0.01243489	-0.147975
N	-2.6153558707	-3.9155745715	 0.0036635697	-0.236634
C	-1.2505024006	-4.0361958635	-0.0073405447	 0.01017
N	-0.6651816668	-2.8665435985	-0.006149838	-0.311657
H	 0.9634698013	 1.6247091348	 0.0014915844	 0.28969
H	 0.4617034404	-0.4820684169	-0.8820693729	 0.117973
H	 0.4751262757	-0.4903096891	 0.8758966934	 0.11794
H	-3.9169303924	-2.2003169872	 0.0219941922	 0.162757
H	-3.2817614571	-4.6703369847	 0.0050661894	 0.275974
H	-0.7587957851	-4.997485301	-0.0157988041	 0.13992
75.6938	92.6339	147.8766	199.3479	237.5479	289.7078	371.8507	498.2659	546.6996	573.5188	669.4869	715.4066	758.5007	794.9997	840.6196	923.6507	948.2451	1014.1946	1030.0097	1097.8374	1124.3375	1147.4753	1229.2478	1244.2048	1245.5478	1316.945	1367.51	1432.072	1449.2758	1483.3466	1533.8388	1572.963	1791.6864	2973.5308	2995.2717	3253.8169	3293.7871	3659.6999	3838.209
OCC(=O)C1=CNC=N1	OCC(=O)c1c[nH]cn1	
InChI=1S/C5H6N2O2/c8-2-5(9)4-1-6-3-7-4/h1,3,8H,2H2,(H,6,7)	InChI=1S/C5H6N2O2/c8-2-5(9)4-1-6-3-7-4/h1,3,8H,2H2,(H,6,7)
