19
gdb 38905	3.55134	1.51736	1.20177	1.6367	81.16	-0.2241	0.0139	0.238	1052.1909	0.162118	-385.882085	-385.87512	-385.874176	-385.913412	28.452	
C	-0.0093417712	 1.500544543	 0.1264698167	-0.272069
C	 1.2993278742	 0.7733182049	-0.021779927	-0.029899
C	 2.0977453239	 0.4674826952	 1.2627335831	-0.280722
C	 1.4493135617	-0.8365774878	 1.779476007	 0.101174
O	 1.3746189216	-1.0445622566	 3.1780991796	-0.281095
C	 0.0600511324	-1.5379903363	 3.4726443335	-0.113694
C	-0.7883592369	-1.1556904091	 2.27583721	-0.286036
C	 0.0198581875	-0.7432661273	 1.3068612155	 0.337714
C	-0.0170905723	-0.0120127896	 0.0163803782	-0.177108
H	-0.2526811534	 1.9453446636	 1.0860236279	 0.116474
H	-0.3776169865	 2.0537997493	-0.7316378777	 0.111224
H	 1.841286163	 0.8877663394	-0.9532775449	 0.086528
H	 3.1648799655	 0.3537722995	 1.0580308939	 0.10172
H	 1.982132313	 1.2573745386	 2.012300037	 0.110037
H	 1.9573576074	-1.6921744233	 1.2956583512	 0.070569
H	 0.0882183158	-2.6287037505	 3.6415220441	 0.0979
H	-0.2891644936	-1.0741785344	 4.4046358347	 0.110003
H	-1.8704513113	-1.1854794305	 2.2839229903	 0.101451
H	-0.4413632206	-0.4643760683	-0.8726388031	 0.09583
120.0763	148.1592	278.8751	362.6783	395.0881	435.157	581.2169	643.7357	658.4036	758.4966	791.9607	817.5725	822.7696	823.327	907.6338	931.9316	944.4058	978.3383	990.4931	1011.1216	1041.1441	1068.8427	1076.6199	1099.7003	1107.4249	1122.3637	1177.9934	1181.6031	1200.5617	1208.1551	1254.6884	1269.2295	1316.1863	1334.0069	1359.4722	1370.2518	1387.1913	1479.7708	1497.8357	1517.7087	1743.9317	2915.6249	2949.6202	3027.7217	3051.4398	3103.5563	3123.7919	3169.3693	3177.3453	3211.9517	3214.926
C1C2CC3OCC=C3C12	C1[C@H]2C[C@H]3OCC=C3[C@@H]12	
InChI=1S/C8H10O/c1-2-9-8-4-5-3-7(5)6(1)8/h1,5,7-8H,2-4H2	InChI=1S/C8H10O/c1-2-9-8-4-5-3-7(5)6(1)8/h1,5,7-8H,2-4H2/t5-,7-,8+/m0/s1
