19
gdb 125620	3.08396	1.18206	0.87635	3.4587	79.53	-0.2195	0.0308	0.2503	1328.8534	0.159017	-419.237592	-419.227738	-419.226794	-419.272738	34.841	
C	-0.0247657515	 1.4523921174	-0.0926498978	-0.493687
C	 0.0256785206	-0.0366262947	 0.0411730359	 0.287847
N	 0.0691637274	-0.8147687289	-1.0389918962	-0.298204
N	 0.1201530845	-2.0683073445	-0.549766954	-0.251665
C	 0.0821448021	-2.1149489366	 0.8040291928	 0.321655
C	 0.1498371476	-3.4200691563	 1.527311822	-0.196222
O	-0.3752382725	-4.4247792247	 0.665169215	-0.423823
C	 0.0272007883	-0.8031980179	 1.2392460743	 0.028852
C	-0.0127761345	-0.2955548983	 2.6479562684	-0.516473
H	 0.8564225046	 1.9299487598	 0.3518422147	 0.122411
H	-0.0681447037	 1.7282811573	-1.1483330353	 0.138919
H	-0.9040987238	 1.8724719993	 0.4097644602	 0.122535
H	 0.0766924362	-2.8614902644	-1.1665440881	 0.274097
H	 1.1919975155	-3.6534533779	 1.8005965587	 0.109082
H	-0.4200170324	-3.3513840355	 2.4665035064	 0.108778
H	-0.1629678679	-5.2837603411	 1.0412388393	 0.294768
H	 0.9622543328	 0.0795961648	 2.9845814085	 0.126345
H	-0.7239173394	 0.5311660026	 2.7528674718	 0.127695
H	-0.3163275137	-1.0783002003	 3.3507072034	 0.117091
61.0078	91.6052	123.7617	140.2933	191.8668	235.1151	254.8229	282.152	317.4228	358.6861	514.6428	536.9111	596.5617	677.0514	708.4061	734.6453	765.3107	962.1581	1003.643	1028.4588	1051.8648	1055.2279	1075.1223	1127.9067	1174.1574	1216.4703	1230.0255	1247.4725	1317.8364	1401.3588	1414.6919	1422.1886	1461.2213	1478.8671	1480.9548	1486.7056	1498.9926	1508.7689	1514.9897	1529.054	1631.6334	2963.1905	2996.0113	3017.9776	3026.8873	3068.1664	3073.729	3095.1112	3130.3144	3682.2834	3836.5304
CC1=NNC(CO)=C1C	Cc1n[nH]c(CO)c1C	
InChI=1S/C6H10N2O/c1-4-5(2)7-8-6(4)3-9/h9H,3H2,1-2H3,(H,7,8)	InChI=1S/C6H10N2O/c1-4-5(2)7-8-6(4)3-9/h9H,3H2,1-2H3,(H,7,8)
