17
gdb 89672	2.88503	1.32307	1.09436	2.6425	77.71	-0.2211	0.0194	0.2405	1148.4858	0.132314	-421.747119	-421.738006	-421.737061	-421.780538	34.403	
C	-0.0931182827	 1.5121726156	-0.0390616275	-0.422813
C	 0.126885164	 0.0165094792	 0.0193420622	 0.098507
O	 1.2412700494	-0.4486559306	-0.8060248208	-0.3373
C	 1.7704333837	-1.2227724673	 0.2789517614	 0.265646
C	 2.1895354425	-0.288883859	 1.4002560886	-0.415232
C	 0.7364939106	-0.6518646156	 1.2519279015	 0.240056
O	-0.0121838362	-1.2745273677	 2.2219901189	-0.448791
C	 2.2853706798	-2.5226442208	 0.0488362969	 0.221385
C	 2.7191415159	-3.6287304637	-0.1415404441	-0.418597
H	 0.7900035902	 2.0622392423	 0.2971237476	 0.120841
H	-0.3195498036	 1.8227767372	-1.0637342932	 0.134865
H	-0.9429866102	 1.7899186163	 0.5936561339	 0.122739
H	-0.7809149795	-0.5258711929	-0.2750252317	 0.098077
H	 2.6811570263	-0.7899655069	 2.2287620469	 0.131056
H	 2.5717353821	 0.6969325978	 1.1499777756	 0.121819
H	 0.1351222647	-0.8275793949	 3.0620399559	 0.295105
H	 3.0999053829	-4.6048820491	-0.313307432	 0.192638
104.6812	125.2463	162.2334	213.8118	224.282	249.8222	349.0353	355.7239	453.5444	462.993	543.5229	557.3464	578.3892	620.4362	688.5987	718.3007	751.5469	830.7782	872.0329	914.8045	956.9634	1034.0978	1057.2172	1082.4138	1114.3446	1126.9103	1193.24	1243.4136	1313.4755	1344.1152	1371.4781	1402.6552	1421.7011	1482.596	1493.8805	1496.996	2233.8422	3028.6071	3039.0782	3108.2789	3113.8467	3120.4425	3212.1024	3502.3358	3807.9216
CC1OC2(CC12O)C#C	C[C@H]1O[C@]2(C[C@@]12O)C#C	
InChI=1S/C7H8O2/c1-3-6-4-7(6,8)5(2)9-6/h1,5,8H,4H2,2H3	InChI=1S/C7H8O2/c1-3-6-4-7(6,8)5(2)9-6/h1,5,8H,4H2,2H3/t5-,6+,7-/m1/s1
