20
gdb 36434	4.15887	0.94205	0.87427	4.2456	82.76	-0.2795	0.0385	0.3181	1363.8363	0.172351	-366.004126	-365.995781	-365.994837	-366.037925	31.603	
N	 0.007302726	-1.1366287427	-0.2686402641	-0.309974
C	-0.0221272951	 0.0085043232	-0.1145456555	 0.261858
C	-0.0284689935	 1.4577237683	 0.0778644894	-0.369065
C	 1.3885827307	 2.0471017461	 0.084099404	 0.039431
C	 2.2286638659	 2.0436356796	-1.2273618891	-0.255605
C	 2.6484094832	 3.5197012401	-0.9558986061	-0.005103
C	 1.8579844268	 4.5737257428	-1.761809592	-0.2187
C	 0.6970755908	 4.4841900298	-0.7248665566	-0.237278
C	 1.5769263944	 3.5814969709	 0.1947078765	-0.055903
H	-0.6325385707	 1.90519807	-0.7193348436	 0.147732
H	-0.5374539463	 1.6816486243	 1.0233003278	 0.149287
H	 1.9571501153	 1.5629647016	 0.8841741782	 0.094273
H	 3.0360250715	 1.3099409157	-1.258123009	 0.114988
H	 1.6321428523	 1.9259661469	-2.1381987717	 0.101888
H	 3.7122465761	 3.6877848903	-0.7859275448	 0.068414
H	 2.3394742944	 5.5552922984	-1.7570452146	 0.103328
H	 1.6216699278	 4.3140184248	-2.7981622479	 0.098094
H	 0.4170417373	 5.4382704328	-0.2734565197	 0.10856
H	-0.2192669301	 4.0185681907	-1.098520377	 0.097409
H	 1.7798328133	 3.9820395865	 1.1892259658	 0.066366
58.5952	71.4304	120.1674	225.4861	320.4277	349.4009	396.3775	455.9474	491.5112	644.1087	726.3629	746.4119	789.6701	840.1885	850.7027	893.9089	898.3001	933.7676	956.4887	971.2511	1017.6581	1052.0468	1071.5738	1097.2578	1119.1192	1140.6357	1180.2607	1208.7986	1228.4143	1239.5663	1260.5896	1262.9321	1271.4617	1293.7103	1308.4059	1315.6095	1339.0749	1380.5278	1463.8995	1476.946	1482.7316	1497.3258	2359.375	3037.7009	3047.8815	3049.1383	3053.7464	3060.6023	3080.0795	3085.725	3095.6429	3100.5329	3113.8006	3119.9942
N#CCC1CC2CCC12	N#CC[C@H]1C[C@H]2CC[C@@H]12	
InChI=1S/C8H11N/c9-4-3-7-5-6-1-2-8(6)7/h6-8H,1-3,5H2	InChI=1S/C8H11N/c9-4-3-7-5-6-1-2-8(6)7/h6-8H,1-3,5H2/t6-,7+,8-/m1/s1
