20
gdb 90777	3.65366	1.36018	1.22059	1.8855	77.67	-0.2277	0.0672	0.2948	1090.4014	0.172317	-403.123076	-403.115057	-403.114113	-403.155172	31.988	
C	-0.0876484019	 1.505304758	 0.0690656924	-0.496799
C	 0.0870865871	 0.0192996152	-0.03853608	 0.352422
C	-0.039048042	-0.7862437168	-1.3298152871	-0.305628
C	-0.6345244043	-1.909084189	-0.4467867911	 0.000407
C	 0.4130189401	-2.9386248798	-0.0339996753	 0.136988
O	 0.89430414	-3.6130548191	-1.1826319453	-0.43641
C	 1.4623272792	-2.0693574222	 0.7129719056	-0.296
C	 0.6789928857	-0.8097922635	 1.045820283	-0.065931
N	-0.7757589236	-0.9631618661	 0.7370953777	-0.20071
H	 0.7829353211	 2.030892998	-0.3413107941	 0.119216
H	-0.9734031222	 1.8372578546	-0.4835562363	 0.121094
H	-0.2065082617	 1.8101052057	 1.1131735705	 0.125996
H	-0.7887898182	-0.3502821561	-1.9943226874	 0.104277
H	 0.8621581155	-1.0114388859	-1.9065582308	 0.107706
H	-1.5831514514	-2.3401611845	-0.7641827226	 0.078357
H	-0.0455665275	-3.6492513401	 0.6700529104	 0.074223
H	 1.5135316937	-4.2914416777	-0.897601275	 0.286482
H	 1.836511975	-2.5561149286	 1.6182241006	 0.100214
H	 2.3185889332	-1.8755706966	 0.0581458957	 0.108831
H	 0.8692492121	-0.3053311853	 1.9884004893	 0.085262
115.8909	182.7515	218.2629	258.8479	269.1986	334.0156	399.0445	434.5371	518.666	552.9117	670.3802	698.9819	751.7904	789.2095	833.5147	870.2129	923.0328	946.	971.1361	990.0553	1019.5158	1039.2595	1059.0543	1086.0892	1105.6644	1129.2825	1138.1855	1199.0261	1207.4573	1230.8759	1254.3121	1266.2366	1290.2933	1310.574	1343.309	1361.6427	1409.7637	1427.9132	1440.0127	1482.3326	1492.2827	1492.6565	1509.6043	2985.9187	3025.3547	3045.7048	3058.7026	3087.4878	3089.7836	3107.1396	3108.0372	3123.0222	3156.05	3827.3772
CC12CC3C(O)CC1N23	C[C@@]12C[C@H]3[C@@H](O)C[C@@H]1N23	
InChI=1S/C7H11NO/c1-7-3-4-5(9)2-6(7)8(4)7/h4-6,9H,2-3H2,1H3	InChI=1S/C7H11NO/c1-7-3-4-5(9)2-6(7)8(4)7/h4-6,9H,2-3H2,1H3/t4-,5-,6-,7+,8?/m0/s1
