15
gdb 86841	2.91508	1.32502	1.07557	2.6204	66.91	-0.2941	-0.0064	0.2876	1118.1831	0.112354	-453.965925	-453.957709	-453.956765	-453.999279	29.553	
C	-0.0059714193	 1.5779666626	-0.0529825332	-0.403421
C	 0.0502473909	 0.0687106254	 0.0690855127	 0.022639
O	 0.8396350629	-0.4930308989	-0.99571931	-0.242629
C	 1.422235808	-1.6497182212	-0.4847152888	 0.042366
O	 1.6094448478	-1.4512217829	 0.912114545	-0.227101
C	 0.7626778501	-0.4398068853	 1.3085213253	 0.403245
N	 0.6187853275	-0.0142918693	 2.4802576691	-0.524543
C	 0.5663661028	-2.8497175467	-0.7027376685	 0.286024
N	-0.0907569961	-3.7790497548	-0.8966983145	-0.308847
H	 1.0029841319	 1.9968405821	-0.0732318457	 0.135771
H	-0.5321166413	 1.8681344458	-0.9653052276	 0.136056
H	-0.5359622834	 1.982530416	 0.812336204	 0.156433
H	-0.9617970938	-0.3615201028	 0.0397239143	 0.12908
H	 2.3952168534	-1.8073364952	-0.9576366309	 0.154865
H	 1.1951748088	-0.5297771348	 3.1460985389	 0.24006
77.7759	82.9745	195.1273	209.8356	250.1615	277.1333	387.3369	443.7345	520.8514	576.1119	615.9718	691.2202	794.8531	828.0688	879.3578	894.3072	929.4409	998.4977	1008.5725	1071.1775	1105.0667	1143.9428	1156.5328	1262.5211	1327.0276	1347.1284	1375.5082	1383.2972	1408.1258	1483.2986	1494.2763	1810.0357	2362.1419	3004.8259	3057.5365	3090.285	3138.2498	3143.6845	3491.6663
CC1OC(OC1=N)C#N	C[C@H]1O[C@@H](O[C]1[NH])C#N	
InChI=1S/C5H6N2O2/c1-3-5(7)9-4(2-6)8-3/h3-4,7H,1H3	InChI=1S/C5H6N2O2/c1-3-5(7)9-4(2-6)8-3/h3-4,7H,1H3/t3-,4+/m1/s1
