19
gdb 76492	3.19412	1.08423	1.00665	1.6241	72.26	-0.2149	0.041	0.2559	1268.1553	0.156796	-460.115071	-460.10573	-460.104786	-460.149357	34.89	
C	-0.7212700848	 1.3110417503	 0.16934666	-0.397636
C	 0.0773941438	 0.0343211113	 0.0204676786	 0.153297
C	 0.9118647142	-0.1628753217	-1.2712051521	-0.372795
C	 2.0837720298	-0.2226214067	-0.3093925291	 0.388552
O	 1.2865373889	 0.042779769	 0.8394347286	-0.328341
C	 3.2373666875	-1.1874653962	-0.3469836165	-0.004565
O	 3.4166449414	-1.9787934503	-1.4838728325	-0.430047
C	 3.4695192594	 0.3150871183	-0.4792163591	-0.066467
O	 3.7799172637	 0.7919945258	-1.7656890237	-0.426694
H	-0.1152768968	 2.1816090269	-0.0996338318	 0.122987
H	-1.6039969091	 1.2848189086	-0.4792900389	 0.116713
H	-1.0600215173	 1.4324424067	 1.2030242119	 0.127256
H	-0.5366320223	-0.8382642991	 0.2766208967	 0.08223
H	 0.7280972463	-1.0788396288	-1.8345559663	 0.121591
H	 0.9137632219	 0.6952133463	-1.946652482	 0.118216
H	 3.5432036449	-1.6834689808	 0.5700207324	 0.10977
H	 3.5989549876	-1.3645047801	-2.2085027719	 0.285279
H	 3.9102357962	 0.8561820818	 0.3566468051	 0.102916
H	 4.7400129148	 0.8025502987	-1.8529236397	 0.297737
49.9984	124.6509	150.1093	221.7737	239.1626	263.3786	271.4864	338.743	385.3004	474.0586	478.922	500.5808	622.4765	648.9421	770.7839	830.0416	883.4537	890.1653	917.8637	931.3901	970.7557	1057.3291	1070.2473	1092.5697	1109.3058	1135.1314	1156.4373	1174.5411	1198.4822	1227.8632	1248.7761	1290.5873	1328.059	1329.7193	1382.5754	1400.011	1408.9778	1480.3631	1484.9936	1495.2681	1500.8541	3022.2363	3033.1343	3075.2907	3105.1332	3114.198	3118.3295	3132.6372	3153.4793	3742.0418	3792.8679
CC1CC2(O1)C(O)C2O	C[C@H]1C[C@@]2(O1)[C@@H](O)[C@H]2O	
InChI=1S/C6H10O3/c1-3-2-6(9-3)4(7)5(6)8/h3-5,7-8H,2H2,1H3	InChI=1S/C6H10O3/c1-3-2-6(9-3)4(7)5(6)8/h3-5,7-8H,2H2,1H3/t3-,4-,5+,6+/m0/s1
