21
gdb 59549	2.5594	1.32404	1.03135	2.1602	78.32	-0.229	0.0608	0.2897	1244.2495	0.18008	-424.184138	-424.174533	-424.173589	-424.218301	36.455	
C	 0.0197084382	 1.4698971163	-0.2162640568	-0.393351
C	 0.0837376728	-0.029641927	 0.1032553499	 0.004781
C	 0.726308299	-0.2946666614	 1.4720302836	-0.389113
C	-1.3065501744	-0.6452689017	 0.0531140906	 0.091669
O	-1.9772278278	-0.5077370486	-1.2410965352	-0.311576
C	-2.3003633799	-1.899169589	-1.2470449675	 0.049013
C	-1.0487400596	-2.7352319484	-1.3127258103	-0.368663
C	-1.5201376862	-2.1646867685	 0.009848918	 0.292152
O	-1.8488941916	-2.934378867	 1.1075936719	-0.457933
H	 1.0227303195	 1.9081916055	-0.2392429362	 0.107555
H	-0.4535612328	 1.6381570792	-1.1870175063	 0.136165
H	-0.5622621846	 2.0073731195	 0.5419682852	 0.111196
H	 0.6931592128	-0.5169570245	-0.6686077029	 0.072856
H	 0.1463879296	 0.1720534051	 2.2766409948	 0.11937
H	 0.7925997878	-1.3661398754	 1.6894328118	 0.102312
H	 1.7398053039	 0.1162729357	 1.5116752943	 0.116265
H	-1.9479181394	-0.2072495348	 0.8317050924	 0.083261
H	-3.2812582185	-2.201597675	-1.5923497646	 0.112066
H	-1.2325636637	-3.8023595118	-1.4013945029	 0.11642
H	-0.1678042379	-2.366284114	-1.8301746632	 0.116056
H	-1.062944367	-3.4146059543	 1.3895920136	 0.289499
64.9864	133.5472	156.7546	212.0182	237.8418	253.4513	286.4329	333.1611	345.9228	415.8645	425.3808	486.488	516.0929	670.1767	732.9135	856.6598	868.9589	907.3804	920.39	931.2331	950.5237	975.1804	994.8586	1012.9245	1030.0947	1077.7979	1107.8699	1123.2962	1168.3264	1204.2751	1213.5033	1241.5884	1274.3501	1314.4749	1326.2848	1346.4192	1394.5273	1396.1702	1417.0427	1425.8179	1486.2204	1490.0482	1491.61	1503.8078	1511.3487	3003.9837	3025.9034	3027.2343	3032.3284	3091.2769	3095.2801	3103.1953	3113.7654	3120.6928	3192.5073	3207.7429	3798.1052
CC(C)C1OC2CC12O	CC(C)[C@H]1O[C@H]2C[C@@]12O	
InChI=1S/C7H12O2/c1-4(2)6-7(8)3-5(7)9-6/h4-6,8H,3H2,1-2H3	InChI=1S/C7H12O2/c1-4(2)6-7(8)3-5(7)9-6/h4-6,8H,3H2,1-2H3/t5-,6+,7-/m0/s1
