16
gdb 47349	2.98692	1.27857	0.93722	3.7318	71.87	-0.2569	0.0002	0.2571	1190.8639	0.126369	-434.073978	-434.066066	-434.065121	-434.106891	29.353	
N	-0.0418394864	 1.2884682809	 0.2235783387	-0.491281
C	-0.0107056046	 0.0608733389	-0.0620598493	 0.41019
C	-1.2736662714	-0.7697106466	-0.0917318014	-0.242414
N	-1.1715971682	-1.8485640047	-1.0715201579	-0.317171
C	-0.0174419714	-2.6820410114	-0.7836741845	-0.189699
C	 1.2125798996	-1.8024564446	-1.0224208761	-0.003095
O	 1.1837610796	-0.5987135514	-0.2419482101	-0.264473
C	 2.4561482804	-2.5054272539	-0.6873925749	 0.28217
N	 3.4199395598	-3.0948783662	-0.4497593099	-0.306614
H	 0.9039035306	 1.6748381663	 0.2530424288	 0.229984
H	-1.4366959191	-1.1433861937	 0.9371787317	 0.116302
H	-2.1018709966	-0.1054845313	-0.3400387873	 0.147534
H	-2.0217701303	-2.3994707704	-1.0758557048	 0.237774
H	 0.0125018384	-3.0705586181	 0.2499526456	 0.112127
H	 0.0173153931	-3.5313162488	-1.4711908096	 0.133825
H	 1.2388058665	-1.5273159351	-2.0848475089	 0.144842
83.8631	110.8209	150.9871	250.6315	353.2938	400.7609	417.2872	462.9472	509.6571	544.3983	580.1568	655.7473	763.5792	863.5195	917.2285	927.0531	971.1401	1003.0766	1018.7261	1088.8778	1099.8352	1124.184	1167.2988	1222.0938	1277.6016	1292.9958	1316.8865	1344.9166	1370.3475	1423.2721	1481.1865	1484.2475	1497.355	1769.3704	2371.5538	2926.2368	2950.0299	3032.4215	3097.4648	3129.2744	3470.3094	3547.0479
N=C1CNCC(O1)C#N	[NH][C]1CNC[C@@H](O1)C#N	
InChI=1S/C5H7N3O/c6-1-4-2-8-3-5(7)9-4/h4,7-8H,2-3H2	InChI=1S/C5H7N3O/c6-1-4-2-8-3-5(7)9-4/h4,7-8H,2-3H2/t4-/m0/s1
