20
gdb 117201	3.05515	0.97456	0.87995	1.5324	77.08	-0.2553	0.0173	0.2726	1436.4983	0.168367	-440.274865	-440.264742	-440.263798	-440.310863	36.061	
C	-0.1252045908	 1.4466800244	-0.3188505103	-0.391004
C	-0.0036372217	-0.0416004088	-0.052989553	-0.033701
O	 0.6316057378	-0.6342498423	-1.1986765129	-0.24592
C	 0.8334567399	-1.9611946555	-1.1630939575	 0.361499
N	 0.5013178516	-2.6659305289	-0.1600660128	-0.53913
C	 1.5044469163	-2.408449188	-2.443398667	 0.330596
C	 2.8300986053	-1.7490288827	-2.7496277114	-0.468495
C	 1.1597432189	-3.7209186263	-3.0051268433	-0.226716
O	 0.605208828	-2.5249511233	-3.5581285673	-0.263468
H	 0.8596282352	 1.8997261073	-0.464961762	 0.125835
H	-0.7264001541	 1.6354883631	-1.2126335091	 0.131807
H	-0.6072081282	 1.9373393844	 0.5319479973	 0.121091
H	 0.5976366358	-0.255833663	 0.836807641	 0.119763
H	-0.9793346433	-0.5156903999	 0.0950817079	 0.123133
H	 0.750911892	-3.6405648844	-0.3108059296	 0.221277
H	 3.5633231511	-1.9708432525	-1.966970685	 0.126932
H	 3.2157652937	-2.1068001106	-3.7072477032	 0.127616
H	 2.7045462666	-0.664892245	-2.801738777	 0.147014
H	 1.8885018482	-4.2347734189	-3.6309003099	 0.114681
H	 0.4481542676	-4.369552659	-2.4966284651	 0.117189
33.9705	81.3186	109.8797	135.7092	194.886	235.0217	282.1946	286.8365	328.0421	351.3752	385.3524	508.9902	549.6196	740.2117	772.584	806.7322	843.0755	861.3395	875.8236	928.2242	933.4907	1029.7788	1042.3758	1101.9986	1118.4204	1135.0776	1137.655	1176.6825	1182.9747	1234.3833	1289.5903	1349.67	1389.0552	1405.1946	1413.3874	1440.2531	1477.2189	1485.0223	1496.2671	1499.1168	1520.07	1529.3933	1717.0461	3044.3791	3045.6093	3048.1752	3083.0027	3084.9417	3116.3299	3120.0028	3124.9467	3135.2768	3168.487	3518.2419
CCOC(=N)C1(C)CO1	CCO[C]([NH])[C@@]1(C)CO1	
InChI=1S/C6H11NO2/c1-3-8-5(7)6(2)4-9-6/h7H,3-4H2,1-2H3	InChI=1S/C6H11NO2/c1-3-8-5(7)6(2)4-9-6/h7H,3-4H2,1-2H3/t6-/m1/s1
