19
gdb 37801	2.44387	2.17023	1.69977	2.028	72.92	-0.2431	0.0764	0.3195	887.2554	0.163667	-423.021804	-423.015385	-423.014441	-423.052233	27.404	
C	-0.070333182	 1.5459413829	 0.1034196823	-0.265182
C	 1.3482642264	 2.0644738243	-0.0892160032	-0.105933
C	 2.3010492296	 0.9363630032	 0.3149029201	-0.088283
C	 1.4434609043	-0.2960166238	 0.580290565	-0.228827
C	 0.0552765583	 0.0173724325	-0.0333969639	 0.093867
O	-0.0523619256	-0.4420174816	-1.3840534179	-0.259816
C	 0.545570886	 0.3683049991	-2.3583716952	 0.011375
O	 1.917212908	 0.5835225805	-2.1604950542	-0.245938
C	 2.2804652564	 1.4304599006	-1.1025527936	 0.106446
H	-0.3952793946	 1.784672965	 1.1230840469	 0.104476
H	-0.8155666205	 1.9671858871	-0.5772441947	 0.111121
H	 1.5521296357	 3.096386559	 0.1767515829	 0.08512
H	 3.1782509189	 1.1081543321	 0.9290601637	 0.080805
H	 1.8526150808	-1.2117458187	 0.1445548015	 0.117132
H	 1.3403584077	-0.4507686595	 1.6603416033	 0.098641
H	-0.742135915	-0.511175743	 0.4935260747	 0.086461
H	 0.4535936537	-0.1815672185	-3.2975120565	 0.11512
H	 0.0291614962	 1.3359069513	-2.4424938065	 0.086269
H	 3.1135801457	 2.0573677574	-1.4064483748	 0.097146
171.2445	290.068	355.1918	388.1376	446.6073	498.8165	525.0279	646.2255	716.9139	753.1522	764.2906	799.1269	805.9065	878.2279	897.9997	930.9791	981.5962	997.9373	1034.2184	1047.4777	1052.7033	1086.0597	1099.723	1112.3204	1116.1689	1181.0269	1188.5252	1224.6512	1240.5829	1262.6408	1311.6682	1315.3429	1319.452	1352.1619	1368.1947	1393.5688	1421.5699	1448.3697	1471.3962	1492.2597	1520.5637	2991.8317	3037.3567	3043.0033	3087.9959	3088.2629	3098.9261	3108.7739	3147.4389	3158.7256	3170.9243
C1C2C3CC1OCOC23	C1[C@H]2[C@H]3C[C@@H]1OCO[C@@H]23	
InChI=1S/C7H10O2/c1-4-2-6-5(1)7(6)9-3-8-4/h4-7H,1-3H2	InChI=1S/C7H10O2/c1-4-2-6-5(1)7(6)9-3-8-4/h4-7H,1-3H2/t4-,5+,6-,7+
