17
gdb 85156	2.09842	1.75086	1.01935	1.5698	70.79	-0.2621	-0.0118	0.2504	1145.6638	0.135783	-455.225654	-455.21661	-455.215666	-455.259725	32.754	
C	-0.0768581021	 1.5763380468	 0.0480896606	-0.406614
C	 0.0164544608	 0.0611739386	 0.005268661	 0.060711
C	 0.734102063	-0.5938413276	-1.2204244968	-0.402926
C	 1.7485775368	-1.1405518889	-0.2049481877	 0.439144
O	 2.733596002	-1.8366962865	-0.2153033359	-0.380257
N	 1.0864511905	-0.5227285041	 0.8417871049	-0.157853
C	 1.2548431937	-0.5265943584	 2.2380337695	 0.46712
N	 2.3670035435	-1.2033996515	 2.623152072	-0.565822
O	 0.4662155763	 0.0371443335	 2.9684416673	-0.394287
H	 0.8850755005	 2.0346037356	-0.204183366	 0.119547
H	-0.8265670609	 1.9283980456	-0.6674924774	 0.1226
H	-0.3656747105	 1.9046653616	 1.0490633568	 0.158943
H	-0.9520262902	-0.3948853944	 0.2305453751	 0.10639
H	 0.1720157321	-1.3640111572	-1.7513395165	 0.14111
H	 1.1583187611	 0.1112836946	-1.9383076563	 0.139833
H	 2.9253289481	-1.7007032331	 1.9432854888	 0.283978
H	 2.5306224853	-1.3108050448	 3.6086440906	 0.268383
76.8084	104.1986	114.7596	174.9448	245.8794	283.1523	295.4162	405.7213	423.2113	457.2551	534.0145	605.7007	626.6727	686.7098	732.7927	777.3135	835.885	910.2777	1004.9894	1056.2555	1066.3923	1103.6834	1110.8441	1174.311	1188.0177	1229.309	1242.5415	1353.3203	1384.7864	1388.693	1411.3034	1457.0914	1486.019	1503.672	1616.8042	1812.241	1856.0685	3040.0051	3067.3189	3085.476	3111.3141	3134.0746	3143.3632	3554.3865	3728.8073
CC1CC(=O)N1C(N)=O	C[C@H]1CC(=O)N1C(=O)N	
InChI=1S/C5H8N2O2/c1-3-2-4(8)7(3)5(6)9/h3H,2H2,1H3,(H2,6,9)	InChI=1S/C5H8N2O2/c1-3-2-4(8)7(3)5(6)9/h3H,2H2,1H3,(H2,6,9)/t3-/m0/s1
