16
gdb 93612	2.44317	1.40743	1.15517	4.491	68.84	-0.2688	-0.0536	0.2151	1107.8853	0.123678	-437.914817	-437.906301	-437.905357	-437.948598	30.518	
C	-0.0924877958	 1.6055266353	 0.1112451811	-0.410378
C	 0.163953442	 0.1061698481	-0.023326706	-0.111907
C	 1.1783109451	-0.3430462935	-1.0804845877	-0.11461
O	 1.6529962507	-1.623266986	-0.6302504971	-0.238552
C	 1.7998524207	-1.5623922885	 0.769492987	-0.147779
C	 3.1516192704	-1.1362397787	 1.1737727741	 0.288617
N	 4.2092108297	-0.7777360349	 1.4707872595	-0.314797
C	 0.740413925	-0.5184965273	 1.2473264199	 0.384206
O	 0.4589623203	-0.2786544166	 2.3847839689	-0.287044
H	 0.8453786965	 2.1531316543	 0.2467981771	 0.135661
H	-0.5930934566	 1.999123048	-0.777522642	 0.127529
H	-0.7245716124	 1.7999674026	 0.9811834573	 0.149364
H	-0.7834790941	-0.4206593834	-0.206572707	 0.126441
H	 0.7540678536	-0.4941596173	-2.0738013561	 0.132221
H	 2.0124826574	 0.3699042664	-1.1550665333	 0.121361
H	 1.5870559774	-2.5453921485	 1.2007692244	 0.159666
48.2737	126.6352	153.5304	194.7628	236.4833	271.857	350.1168	409.8806	484.286	560.748	573.7149	643.9607	679.1788	824.2544	898.14	920.9425	950.4432	963.6423	1031.7662	1088.4354	1101.5771	1154.7969	1161.0827	1221.549	1241.6148	1298.2214	1307.7049	1333.5962	1387.8953	1414.0413	1496.5538	1497.7049	1516.379	1873.6391	2353.5162	3004.0458	3018.7884	3046.4252	3075.6508	3116.7508	3126.1436	3129.4966
CC1COC(C#N)C1=O	C[C@H]1CO[C@@H](C#N)C1=O	
InChI=1S/C6H7NO2/c1-4-3-9-5(2-7)6(4)8/h4-5H,3H2,1H3	InChI=1S/C6H7NO2/c1-4-3-9-5(2-7)6(4)8/h4-5H,3H2,1H3/t4-,5-/m0/s1
