20
gdb 77078	2.6732	1.12296	0.97883	5.1194	80.21	-0.2736	0.0329	0.3065	1290.7786	0.169258	-403.165677	-403.155984	-403.15504	-403.199771	36.508	
C	-0.6765101698	 1.072865331	-0.0943767306	-0.432073
C	 0.0116080641	-0.2613245393	 0.1312529554	 0.005763
C	 1.3394878489	-0.5794537953	-0.6328987819	-0.162323
C	 1.8300076615	-1.3507340321	 0.6301835049	-0.296515
C	 0.7511081708	-0.5887838885	 1.4625017239	 0.388046
C	 1.3107362362	 0.6141767733	 2.2151022449	-0.457092
O	-0.0686107797	-1.3772798408	 2.299580245	-0.474632
C	 1.2488932763	-1.2975025581	-1.8910407708	 0.269821
N	 1.1629117102	-1.8794667914	-2.8869483581	-0.330563
H	 0.0060921927	 1.9159720598	 0.0538867975	 0.114974
H	-1.0682822818	 1.1365575878	-1.1147635716	 0.133028
H	-1.5196308514	 1.1950757043	 0.5932164458	 0.132094
H	-0.688437841	-1.0841826524	-0.0403042028	 0.109885
H	 1.924291215	 0.3324321695	-0.788806428	 0.116496
H	 1.5820062551	-2.4116546512	 0.5688850162	 0.12987
H	 2.8801564324	-1.2296152393	 0.9047927783	 0.107511
H	 1.9212149168	 1.255103784	 1.5716296264	 0.123452
H	 0.5019310047	 1.2181148268	 2.6363745455	 0.131894
H	 1.9538667506	 0.2767900272	 3.0375403815	 0.112989
H	 0.3773602385	-1.4964459153	 3.1452107586	 0.277377
76.9274	134.6615	191.409	210.8366	234.4093	266.6173	275.3877	283.6148	342.2074	390.3698	423.3622	495.4713	528.4561	575.497	587.7844	728.9374	811.866	879.0131	892.8805	936.4775	974.3018	1022.4863	1045.6008	1055.218	1097.0375	1130.3889	1156.2701	1185.5864	1200.6014	1234.0837	1246.3766	1295.4514	1349.2167	1369.1524	1394.296	1410.8433	1415.128	1483.7285	1487.1411	1490.3144	1500.4102	1504.7878	2351.7566	3025.6112	3033.9055	3059.6779	3072.3341	3076.3134	3091.1722	3104.0953	3105.9356	3117.223	3139.9547	3802.9813
CC1C(CC1(C)O)C#N	C[C@H]1[C@@H](C[C@]1(C)O)C#N	
InChI=1S/C7H11NO/c1-5-6(4-8)3-7(5,2)9/h5-6,9H,3H2,1-2H3	InChI=1S/C7H11NO/c1-5-6(4-8)3-7(5,2)9/h5-6,9H,3H2,1-2H3/t5-,6-,7-/m0/s1
