16
gdb 12790	3.84355	1.5317	1.32261	2.7291	60.36	-0.2401	0.0589	0.299	944.4117	0.129252	-420.814913	-420.807152	-420.806208	-420.846971	29.213	
O	 0.0415320374	 1.3912383051	-0.3008568459	-0.418865
C	 0.0891721965	 0.0558172127	 0.1668760788	-0.084931
C	-1.2900097585	-0.5729087843	 0.1246406162	 0.060816
O	-1.8526930639	-0.5390533104	-1.2277537187	-0.318418
C	-2.1809068975	-1.9299374944	-1.1470258553	 0.056266
C	-0.9357114172	-2.768427821	-1.0406049189	-0.36812
C	-1.5060130414	-2.0893711958	 0.189364101	 0.286891
O	-1.9302827099	-2.7632437249	 1.3144095803	-0.45312
H	-0.3856768395	 1.3569870833	-1.1652583335	 0.295625
H	 0.799953438	-0.5490616596	-0.4163637033	 0.085598
H	 0.4495659165	 0.0918695723	 1.2013341777	 0.109596
H	-1.9726643753	-0.0515029469	 0.8064016679	 0.099346
H	-3.1333361633	-2.2573577345	-1.5446538552	 0.117579
H	-1.1224062774	-3.8386030099	-1.052137044	 0.121269
H	-0.0135800285	-2.4492408856	-1.5171909708	 0.118334
H	-1.1751367159	-3.2188017858	 1.7022037338	 0.292134
84.1201	165.018	195.4949	263.2564	300.341	372.3769	433.7022	435.379	502.6976	523.7371	649.7855	747.8498	834.8253	869.1198	905.8841	973.4132	997.9075	1016.8721	1035.5424	1073.6128	1079.0005	1092.4651	1132.5777	1200.7931	1217.9291	1236.7415	1277.5975	1320.8574	1346.107	1392.4014	1416.3996	1437.0825	1491.0418	1500.8254	2989.0053	3043.795	3069.3568	3115.6152	3196.0399	3209.3749	3791.8434	3797.2676
OCC1OC2CC12O	OC[C@H]1O[C@H]2C[C@@]12O	
InChI=1S/C5H8O3/c6-2-4-5(7)1-3(5)8-4/h3-4,6-7H,1-2H2	InChI=1S/C5H8O3/c6-2-4-5(7)1-3(5)8-4/h3-4,6-7H,1-2H2/t3-,4+,5-/m0/s1
