19
gdb 98529	3.71392	1.12173	1.00603	1.7925	77.23	-0.2602	0.0084	0.2686	1247.7595	0.159423	-423.00885	-423.000238	-422.999293	-423.044579	31.304	
C	-0.0325686539	 1.3005655553	 0.0621437401	-0.239402
O	 0.0405180197	-0.127004713	-0.0338925532	-0.235548
C	 0.6475308758	-0.5986312337	-1.1438588836	 0.280228
O	 1.1048249984	 0.1060204096	-2.0090495212	-0.375163
C	 0.6690637813	-2.0939742925	-1.1444022371	 0.284195
C	-0.559743856	-3.0599074769	-1.1438191845	-0.24828
C	 0.7021411296	-3.970584181	-1.1604062274	-0.055627
C	 1.3042128384	-3.0049948547	-2.2259465681	-0.248983
C	 1.300800448	-3.0357655748	-0.0695254628	-0.248413
H	 0.9686319137	 1.739277854	 0.0630560708	 0.14008
H	-0.5946343017	 1.7160363396	-0.7782934904	 0.139971
H	-0.5419551058	 1.5101113058	 1.0028574715	 0.131517
H	-1.1676773509	-3.0698590987	-0.2363417818	 0.101072
H	-1.1761094351	-3.0523564569	-2.0466109351	 0.098622
H	 0.7244073585	-5.0598828327	-1.1748555847	 0.077935
H	 0.8279377744	-2.9951285167	-3.2090337324	 0.09952
H	 2.3933392507	-2.9749081449	-2.3064775811	 0.099049
H	 2.3905074725	-3.0066170952	 0.0126093973	 0.098105
H	 0.8192358324	-3.0440980325	 0.9108391536	 0.101122
7.2427	109.3998	126.2137	137.2319	246.6216	307.8368	374.849	452.8281	535.9249	559.6432	722.8483	796.6578	806.6386	819.0684	891.1366	928.8832	958.4543	963.6068	966.4377	996.8333	1018.6523	1096.2397	1101.3376	1135.0139	1141.2572	1164.7007	1165.2316	1168.7833	1178.4826	1215.3478	1231.8682	1233.5945	1252.7697	1344.2865	1473.301	1481.6649	1497.4354	1498.431	1500.4112	1554.0973	1813.9465	3050.1909	3054.4951	3056.6205	3063.8486	3117.5935	3122.5796	3123.8031	3127.8169	3129.1966	3157.1921
COC(=O)C12CC(C1)C2	COC(=O)[C@@]12C[C@@H](C1)C2	
InChI=1S/C7H10O2/c1-9-6(8)7-2-5(3-7)4-7/h5H,2-4H2,1H3	InChI=1S/C7H10O2/c1-9-6(8)7-2-5(3-7)4-7/h5H,2-4H2,1H3/t5-,7-
