18
gdb 44231	4.01542	1.23237	1.12725	2.2466	76.32	-0.2282	-0.0288	0.1993	1113.3728	0.147283	-401.902455	-401.894817	-401.893873	-401.9348	30.075	
O	-0.3167164399	 0.2693454668	 0.6891626434	-0.284671
C	-0.1530454548	 1.3420856309	 0.1904270993	 0.399305
C	-1.0554182773	 2.3861957987	-0.4921935342	-0.312036
N	 0.1492241958	 3.2229082494	-0.809691067	-0.173981
C	 0.4569176886	 4.2228090291	 0.2448223992	 0.379506
C	 0.6887940929	 5.6670261108	-0.0655230999	-0.322795
C	-0.5079328749	 5.2419845553	 0.7640278724	-0.326327
C	 1.3898038728	 3.2795175233	 1.0146228528	-0.347834
C	 1.0625051285	 2.2352835368	-0.0873539568	-0.107644
H	-1.5569009758	 2.0142636026	-1.392169096	 0.136701
H	-1.7994855922	 2.8621011752	 0.1553838471	 0.133124
H	 1.5096654133	 6.1745960008	 0.4308718143	 0.113701
H	 0.5029412117	 5.984956237	-1.085491442	 0.125961
H	-1.48590674	 5.3003318884	 0.2964703192	 0.120818
H	-0.508706272	 5.4550193265	 1.8282880937	 0.119105
H	 2.4377222461	 3.5860684181	 1.0395083294	 0.120287
H	 1.0797762792	 3.0016009757	 2.025456412	 0.121291
H	 1.896090948	 1.7913945846	-0.6363505969	 0.105491
58.0304	156.6457	234.0296	290.438	320.2079	412.7516	450.8398	512.7616	541.2966	673.1191	747.8846	781.8096	788.3748	846.9746	880.2199	897.7141	914.5954	935.0492	972.3145	981.6567	1034.8201	1047.8112	1062.4784	1074.2101	1106.0127	1127.382	1171.9489	1179.3706	1188.8338	1240.7119	1244.297	1255.6709	1280.149	1369.7037	1448.986	1454.6209	1487.6548	1497.9427	1902.0687	3041.2514	3060.7798	3087.3629	3092.212	3114.4592	3123.8764	3130.047	3205.0431	3223.2708
O=C1CN2C3(CC3)CC12	O=C1CN2C3(CC3)C[C@@H]12	
InChI=1S/C7H9NO/c9-6-4-8-5(6)3-7(8)1-2-7/h5H,1-4H2	InChI=1S/C7H9NO/c9-6-4-8-5(6)3-7(8)1-2-7/h5H,1-4H2/t5-/m0/s1
