23
gdb 78053	2.75285	1.15096	1.05523	1.332	86.06	-0.2376	0.076	0.3136	1308.1314	0.203664	-388.265301	-388.255381	-388.254437	-388.299112	38.654	
C	-0.4093195614	 1.4867257565	 0.3762630021	-0.406354
C	-0.1465395951	-0.0044621356	 0.1900457211	-0.012623
C	 0.3174457634	-0.3892693183	-1.224136854	-0.126072
C	 1.6377437447	-0.9484157374	-0.6616579581	-0.085925
C	 1.2070879873	-0.5820331194	 0.7670389338	-0.01232
C	 2.1460433001	 0.396071762	 1.4659632064	-0.407622
C	 0.6654116455	-1.8529251558	-1.3568708906	 0.388821
C	-0.0922046226	-2.9924297506	-0.7129449676	-0.462711
O	 1.1607757306	-2.1815042883	-2.6381162225	-0.474082
H	 0.4128000052	 2.100080288	-0.0048444063	 0.117436
H	-1.3136917566	 1.7783021808	-0.1693759839	 0.111133
H	-0.5621494969	 1.7407376327	 1.4302732803	 0.1122
H	-1.0313129657	-0.5547201942	 0.5339362458	 0.061879
H	 0.1650964943	 0.2109825152	-2.1154573651	 0.074834
H	 2.6415579518	-0.8440345928	-1.0583818239	 0.086006
H	 1.0610272343	-1.4481952819	 1.4240567914	 0.063897
H	 2.3856518429	 1.2578575305	 0.8356649041	 0.117211
H	 1.7165105635	 0.768617572	 2.401598847	 0.11167
H	 3.0908584216	-0.1022330205	 1.7095505701	 0.113534
H	-0.4313570293	-2.7552786475	 0.2975615491	 0.122684
H	-0.9799608857	-3.2457770734	-1.3063255151	 0.103522
H	 0.5429995965	-3.8825181138	-0.6632335304	 0.124737
H	 0.4034289716	-2.2804321582	-3.2257626038	 0.278146
106.9432	179.4651	201.5909	210.2115	227.4164	245.8718	275.9977	288.4093	306.0153	330.4925	431.5752	457.3031	484.4089	506.219	687.2828	739.544	763.7551	845.232	883.8208	924.2976	928.1811	960.826	997.4931	1006.2245	1010.2273	1042.3448	1088.3726	1103.5098	1112.4359	1123.7955	1138.9121	1188.5209	1230.6779	1254.4547	1272.5902	1284.7713	1313.6858	1366.9758	1370.9835	1402.6901	1411.8549	1415.7494	1435.3508	1483.0381	1489.6509	1491.7068	1499.4762	1502.6334	1512.4931	3010.9888	3021.859	3026.8382	3028.3153	3034.9671	3088.6087	3091.0746	3095.7988	3100.7909	3111.6681	3126.1292	3157.9961	3175.5473	3792.2358
CC1C2C(C1C)C2(C)O	C[C@H]1[C@H]2[C@@H]([C@H]1C)[C@]2(C)O	
InChI=1S/C8H14O/c1-4-5(2)7-6(4)8(7,3)9/h4-7,9H,1-3H3	InChI=1S/C8H14O/c1-4-5(2)7-6(4)8(7,3)9/h4-7,9H,1-3H3/t4-,5+,6+,7-,8-
