20
gdb 98662	4.19706	0.83622	0.741	3.4906	77.97	-0.234	0.0339	0.2679	1562.4398	0.169277	-440.300659	-440.290515	-440.289571	-440.337416	35.278	
C	-0.3217656915	 1.5386690377	 0.0862606115	-0.370501
C	-0.000070452	 0.0463073496	 0.0457995578	-0.29667
C	 0.7743478914	-0.4128197461	 1.2788852681	 0.385447
O	 1.188640679	 0.3480622776	 2.1375657226	-0.375424
N	 0.9703084475	-1.756055938	 1.3699881541	-0.082452
C	 0.8168637744	-2.8756369422	 0.4376164364	-0.191172
C	 1.5880262639	-3.7631119577	 1.447373625	 0.103022
O	 2.7205081726	-4.3473705294	 0.8568179404	-0.424803
C	 1.81463716	-2.482967961	 2.3152290863	-0.196944
H	 0.5928519568	 2.1271907034	 0.1864535965	 0.135639
H	-0.8409813141	 1.8467466825	-0.8257949573	 0.103492
H	-0.9551899466	 1.7779538586	 0.9442421979	 0.129066
H	-0.9154034121	-0.552462953	-0.0437630257	 0.11454
H	 0.5976422316	-0.1962475762	-0.8436883646	 0.11945
H	-0.2184223094	-3.1633277563	 0.2264925057	 0.114517
H	 1.3636990929	-2.7596837571	-0.5056331119	 0.125174
H	 0.9547969516	-4.5103832665	 1.9403737608	 0.082113
H	 3.1906407437	-4.8509008447	 1.5291916616	 0.290073
H	 2.8563819318	-2.142783284	 2.3225504262	 0.119654
H	 1.4303621884	-2.5035036374	 3.3398256388	 0.115781
33.0628	46.8099	102.1716	115.9017	145.6007	201.6675	267.2836	287.2273	356.7323	389.4599	462.9905	550.4297	573.4464	695.1858	790.187	812.3827	876.7438	909.9911	975.5113	985.5745	1025.0505	1058.2595	1096.88	1110.012	1133.5268	1153.3329	1190.6939	1199.3111	1239.8512	1282.7522	1288.6214	1312.2171	1318.725	1342.1676	1413.0086	1427.748	1457.8018	1463.1623	1490.6457	1496.3389	1499.068	1517.3644	1761.2589	3018.003	3025.198	3028.2784	3037.4637	3049.9487	3051.9044	3076.7607	3087.7741	3121.2919	3133.1521	3818.0985
CCC(=O)N1CC(O)C1	CCC(=O)N1CC(O)C1	
InChI=1S/C6H11NO2/c1-2-6(9)7-3-5(8)4-7/h5,8H,2-4H2,1H3	InChI=1S/C6H11NO2/c1-2-6(9)7-3-5(8)4-7/h5,8H,2-4H2,1H3
