14
gdb 42162	3.95916	1.00126	0.85192	4.6497	69.69	-0.2791	-0.129	0.1501	1297.0938	0.099168	-436.699311	-436.690636	-436.689692	-436.733928	29.898	
O	 0.0305635883	-0.0513931006	 0.0552730577	-0.244547
C	-0.0088977063	 1.150428413	 0.0076643371	 0.196972
C	 1.2149333194	 1.9580328014	-0.1456084243	 0.26897
N	 2.2084146808	 2.5364454589	-0.2670398741	-0.293113
C	-1.3084174976	 1.9764670537	 0.0981599103	 0.301155
O	-1.2206036993	 3.1835384235	 0.038189527	-0.297325
C	-2.5531407146	 1.2088275833	 0.2513705546	-0.130731
C	-3.6671506	 1.8538083426	 1.0771689459	-0.247325
C	-3.8097601239	 1.7906583456	-0.3977027662	-0.247326
H	-2.4436348056	 0.1335708867	 0.2868620054	 0.126934
H	-4.2525589847	 1.1839584347	 1.6956284089	 0.134887
H	-3.4247707075	 2.8131508	 1.5197611157	 0.14828
H	-3.6641387408	 2.7071196732	-0.9579675625	 0.148274
H	-4.497246538	 1.0758387239	-0.8338936356	 0.134897
41.4094	67.2165	123.7095	214.188	230.1872	270.9631	280.4635	386.8423	486.966	511.6958	663.9601	741.9237	799.1424	809.2179	830.763	861.1114	911.4147	978.736	1069.1558	1101.2457	1110.2813	1134.591	1205.9651	1211.1551	1218.1143	1417.291	1456.4657	1487.7924	1781.4746	1794.171	2342.5341	3145.5304	3146.9202	3214.3478	3233.8588	3248.8041
O=C(C#N)C(=O)C1CC1	O=C(C#N)C(=O)C1CC1	
InChI=1S/C6H5NO2/c7-3-5(8)6(9)4-1-2-4/h4H,1-2H2	InChI=1S/C6H5NO2/c7-3-5(8)6(9)4-1-2-4/h4H,1-2H2
