13
gdb 132808	2.35157	1.76428	1.00801	1.7262	64.16	-0.2301	-0.0016	0.2285	1039.686	0.088547	-505.874264	-505.867171	-505.866227	-505.905699	27.585	
O	 0.0787406953	 1.3764140234	 0.0941130938	-0.4325
C	 0.0535189144	 0.0219300666	 0.0476374821	 0.121748
C	 0.0487187291	-0.6838519238	-1.1548595584	 0.198469
F	 0.0707076587	 0.060586352	-2.2792029499	-0.099351
C	 0.0230999675	-2.0653557685	-1.2163504114	-0.250059
C	 0.0011262112	-2.782502481	-0.0221398339	-0.108453
C	 0.0050924267	-2.1134882748	 1.2001114988	-0.245149
C	 0.0310504532	-0.7276023295	 1.2249406657	 0.23106
F	 0.0351460322	-0.0741204127	 2.3879121678	-0.066491
H	 0.0911951768	 1.6978031941	-0.8161021187	 0.306713
H	 0.0207559809	-2.5529374535	-2.1833560992	 0.116626
H	-0.0191438981	-3.8653497272	-0.0433311954	 0.111585
H	-0.0116515679	-2.6474327553	 2.1425070787	 0.115802
157.5806	260.5926	283.5505	307.1648	313.4556	425.9161	487.3513	503.8135	556.1805	576.5532	584.5799	698.1402	706.426	773.7589	841.0762	883.0488	929.2807	1005.0977	1079.4008	1165.2899	1252.923	1273.4565	1286.3818	1330.8657	1392.4195	1514.1155	1548.6048	1654.5016	1658.0706	3196.819	3209.5373	3217.7557	3793.9603
OC1=C(F)C=CC=C1F	Oc1c(F)cccc1F	
InChI=1S/C6H4F2O/c7-4-2-1-3-5(8)6(4)9/h1-3,9H	InChI=1S/C6H4F2O/c7-4-2-1-3-5(8)6(4)9/h1-3,9H
