19
gdb 41328	2.88242	1.88442	1.71533	1.8401	77.98	-0.2343	0.0082	0.2425	893.6039	0.162732	-385.828053	-385.821711	-385.820767	-385.858233	27.816	
C	 0.0624233637	 1.5404586948	 0.2718162286	-0.181762
O	 1.4875843154	 1.4434343077	-0.0915088204	-0.366892
C	 1.1414143114	 0.2877736354	-0.8962272593	 0.431649
C	 0.5817542535	 0.7027204445	-2.3100013079	-0.26119
C	-0.7523266623	-0.0905950261	-2.3917460466	-0.198585
C	-0.7154339461	-0.9409042101	-1.0842944301	-0.14439
C	 0.5422242651	-1.8450091377	-1.2173291303	-0.063592
C	 1.6696578302	-1.1191174499	-1.0707578681	-0.199302
C	-0.0931763489	 0.0277745965	-0.0589003692	-0.00304
H	-0.0588870565	 1.8246739607	 1.319563804	 0.113441
H	-0.4666589919	 2.2508497021	-0.3723079845	 0.106751
H	 0.4248019095	 1.7822171065	-2.359316458	 0.106843
H	 1.2829517336	 0.4345639703	-3.1020666624	 0.100018
H	-1.617600631	 0.5800498226	-2.383669166	 0.098731
H	-0.8299935125	-0.716127559	-3.2841783912	 0.099189
H	-1.6411695523	-1.4687996148	-0.8518998479	 0.062854
H	 0.4893240767	-2.8824793268	-1.5261307756	 0.09794
H	 2.6882005412	-1.4478035245	-1.2327961762	 0.106442
H	 0.1795992713	-0.5170807123	 0.8457213213	 0.094896
213.4485	326.9621	360.5978	397.6991	438.0708	524.6	574.9283	662.4098	680.0284	726.6636	747.5209	817.8574	837.8506	858.945	873.2439	906.0116	934.1428	935.4893	969.0255	989.9782	1003.9734	1057.9052	1075.0275	1085.6902	1123.5165	1139.0071	1162.5217	1176.8483	1199.7262	1222.4313	1257.1725	1272.271	1294.5644	1315.8544	1329.8785	1337.9998	1398.2313	1489.6024	1500.2044	1522.5123	1578.9682	3042.2997	3049.1474	3076.7887	3091.6062	3095.2312	3104.4354	3113.0545	3123.2208	3194.6452	3221.3429
C1OC23CCC(C=C2)C13	C1O[C@@]23CC[C@@H](C=C2)[C@H]13	
InChI=1S/C8H10O/c1-3-8-4-2-6(1)7(8)5-9-8/h1,3,6-7H,2,4-5H2	InChI=1S/C8H10O/c1-3-8-4-2-6(1)7(8)5-9-8/h1,3,6-7H,2,4-5H2/t6-,7+,8-/m1/s1
