17
gdb 23078	4.75796	1.06071	0.89898	2.7868	82.9	-0.1939	-0.0045	0.1894	1252.3239	0.137724	-417.943831	-417.936205	-417.935261	-417.97589	29.905	
O	-0.2103807258	 1.3835871066	-0.0150320702	-0.403607
N	-0.0056148872	-0.0167610065	-0.0037669809	-0.25733
C	-1.1218908625	-0.6401714358	-0.0230206753	 0.400246
C	-1.1487389703	-2.1821081872	 0.0275971631	-0.334557
C	-2.5796293979	-2.4834081562	-0.4502732812	-0.06909
C	-3.7977851418	-3.106789857	 0.3205333441	-0.202618
N	-4.5162148341	-1.8047289724	 0.0787284131	-0.37691
C	-3.2917291789	-1.1975563485	-0.1777781242	 0.368606
C	-2.5004631082	-0.1302860556	 0.0293828351	-0.361517
H	 0.6925622187	 1.7146521538	 0.0181845814	 0.300071
H	-0.3627614333	-2.6347211867	-0.5796447242	 0.119848
H	-0.9988125021	-2.5049674014	 1.064573185	 0.120992
H	-2.6120685966	-2.7798546606	-1.5023748299	 0.106926
H	-4.2900692061	-3.9750355501	-0.1230678634	 0.117666
H	-3.5919944355	-3.2840097813	 1.3819864963	 0.115913
H	-5.1529011469	-1.4176648952	 0.7650889794	 0.242755
H	-2.7577862814	 0.875194984	 0.3231827419	 0.112607
93.6516	197.639	226.9202	272.2019	325.7834	370.4159	408.8808	498.9688	599.7111	612.5192	659.8836	692.7824	777.7855	809.4892	856.1682	863.0461	905.0077	947.1128	958.0571	966.937	1050.7136	1094.5508	1133.9602	1169.1196	1179.54	1202.8468	1218.4046	1237.5048	1269.7027	1331.5547	1348.7534	1358.5388	1393.4009	1477.455	1504.9797	1691.8115	1734.1577	3039.0037	3043.2043	3067.2745	3111.0111	3116.7747	3256.0656	3553.2885	3827.2247
ON=C1CC2CNC2=C1	ON=C1C[C@H]2CN[C]2[CH]1	
InChI=1S/C6H8N2O/c9-8-5-1-4-3-7-6(4)2-5/h2,4,7,9H,1,3H2	InChI=1S/C6H8N2O/c9-8-5-1-4-3-7-6(4)2-5/h2,4,7,9H,1,3H2/t4-/m0/s1
