19
gdb 71000	3.10632	1.58155	1.45248	2.2282	76.	-0.2326	0.045	0.2776	988.7825	0.159442	-422.912272	-422.904905	-422.903961	-422.943493	30.381	
C	-0.1760947977	 1.5619886035	 0.0172083993	-0.488729
C	 0.0135189988	 0.0721852805	 0.0184197506	 0.353748
C	 1.1101667401	-0.7122198743	-0.8976561133	-0.372044
C	 0.7362566384	-1.8475858334	 0.1198823629	 0.164328
C	 1.1228692629	-2.7458061017	 1.3279699527	-0.20203
O	 0.4650719913	-1.7645775998	 2.2183724368	-0.325128
C	 0.725958918	-0.7748204424	 1.1563893504	 0.110248
C	-0.7700530496	-1.9869448245	-0.1990668064	-0.093715
O	-1.1835336596	-0.6081496634	-0.2904275298	-0.289676
H	 0.7518703349	 2.0698618396	 0.292218383	 0.120722
H	-0.4832658261	 1.9084130986	-0.9743190002	 0.13231
H	-0.956576538	 1.8404589082	 0.7316004252	 0.139219
H	 0.8130292992	-0.8318376958	-1.9426306777	 0.111224
H	 2.1269171785	-0.3312247935	-0.8142706602	 0.113987
H	 0.6617991559	-3.734294029	 1.405558383	 0.116724
H	 2.1961707421	-2.8015612139	 1.540696375	 0.112996
H	 1.7106203238	-0.3336423413	 1.3533319412	 0.079973
H	-0.9429924753	-2.4913522461	-1.1570503226	 0.098073
H	-1.3364839976	-2.4886959112	 0.58975661	 0.117769
196.4611	216.7773	262.6199	270.1577	329.635	371.9157	469.3604	485.8089	597.0099	608.9588	652.8069	752.4048	821.1605	827.5118	855.852	901.6479	916.3754	955.1454	966.5427	996.8652	1007.9974	1023.323	1025.2975	1103.0516	1127.2557	1146.134	1175.4933	1187.5051	1203.5186	1240.0429	1248.3936	1287.6856	1303.1192	1376.1556	1391.3018	1413.9022	1477.5008	1481.4061	1489.5351	1507.713	1514.7178	3021.661	3031.886	3037.5085	3043.9027	3071.353	3094.5812	3103.9653	3114.3148	3124.7949	3156.7874
CC12CC3(COC13)CO2	C[C@@]12C[C@]3(CO[C@H]13)CO2	
InChI=1S/C7H10O2/c1-6-2-7(4-9-6)3-8-5(6)7/h5H,2-4H2,1H3	InChI=1S/C7H10O2/c1-6-2-7(4-9-6)3-8-5(6)7/h5H,2-4H2,1H3/t5-,6-,7+/m1/s1
