20
gdb 103242	2.75738	1.60841	1.23936	1.4392	78.53	-0.2198	0.0591	0.2789	1077.1762	0.169415	-403.039275	-403.030555	-403.029611	-403.072419	33.577	
C	 0.1770112435	 1.3207100217	-0.1997322387	-0.260255
O	-0.2763162928	 0.0438613039	 0.2199743469	-0.285206
C	 0.5612771715	-0.5888624873	 1.150346992	 0.408257
C	 0.4764002299	 0.0363069741	 2.5380394919	-0.450033
C	 0.7240474246	-2.0770808973	 1.198195323	-0.159027
C	 1.0091994214	-2.7820032581	-0.1377629722	-0.041953
C	 1.0376164048	-1.9330758362	-1.3445395286	-0.255548
N	 2.2078050827	-1.9223296199	-0.4255860672	-0.162942
C	 1.9226403713	-1.1741592585	 0.8581421673	-0.08535
H	 1.2035761711	 1.2751889768	-0.5881155182	 0.121437
H	-0.4948566152	 1.6455284218	-0.9975909491	 0.12849
H	 0.1396193724	 2.0615699966	 0.6097209093	 0.114544
H	-0.5645290774	 0.0395454133	 2.8754490455	 0.129593
H	 1.0740996512	-0.521483192	 3.2633340814	 0.124751
H	 0.8392249357	 1.0684957158	 2.5343191571	 0.122091
H	 0.5221605101	-2.6354912313	 2.1043325206	 0.090381
H	 1.0958407507	-3.8635273885	-0.1793826584	 0.098014
H	 1.2933016598	-2.4391147847	-2.2721487827	 0.115152
H	 0.3852643798	-1.0802740273	-1.4388882668	 0.151223
H	 2.7952926649	-0.9152422929	 1.4475266467	 0.096381
77.5919	143.6547	169.8625	191.1316	268.6822	297.5864	338.7224	384.2739	402.316	568.8753	612.1343	653.1742	705.9777	743.5171	779.0863	834.3089	889.9705	897.9781	979.7237	990.186	1010.9647	1035.0767	1055.9824	1068.4232	1085.4256	1111.3203	1121.1318	1139.302	1163.2899	1179.5155	1219.509	1233.4551	1265.7054	1276.8239	1354.177	1396.5507	1411.2648	1470.4795	1481.7226	1487.2665	1492.3667	1506.9292	1510.5588	3000.1551	3042.0886	3056.3868	3109.3835	3118.7006	3122.1327	3130.0175	3152.1918	3166.3403	3183.3726	3277.6944
COC1(C)C2C3CN3C12	CO[C@@]1(C)[C@H]2[C@H]3CN3[C@@H]12	
InChI=1S/C7H11NO/c1-7(9-2)5-4-3-8(4)6(5)7/h4-6H,3H2,1-2H3	InChI=1S/C7H11NO/c1-7(9-2)5-4-3-8(4)6(5)7/h4-6H,3H2,1-2H3/t4-,5+,6-,7+,8?/m1/s1
