16
gdb 125077	3.04341	1.32772	0.92979	4.693	75.42	-0.2169	-0.0145	0.2024	1200.2287	0.125949	-434.120484	-434.11202	-434.111076	-434.154922	30.062	
C	-0.0204652314	 1.5608646208	 0.0559134576	-0.532999
C	-0.0082767257	 0.0634821915	 0.0307287536	 0.078837
C	 0.0102263438	-0.7731299956	-1.0743637329	 0.426238
N	 0.0214887452	-0.4483330676	-2.4315699323	-0.404359
C	 0.0374723115	-1.3452243886	-3.4595172101	 0.149983
O	 0.0442778163	-2.5532856219	-3.3263547367	-0.325388
N	 0.0163238539	-2.0497634362	-0.6240315162	-0.250932
N	 0.0030202851	-2.1169008924	 0.7228345966	-0.237289
C	-0.0120793071	-0.8462250701	 1.1125816752	-0.062435
H	 0.872065678	 1.9960512498	-0.4117486362	 0.12434
H	-0.896004174	 1.9819014612	-0.4548028831	 0.123676
H	-0.048589612	 1.923153914	 1.0868788412	 0.139515
H	 0.0170857358	 0.5339357652	-2.659378543	 0.268115
H	 0.0431677215	-0.8441218443	-4.4435390933	 0.098318
H	 0.0278870825	-2.8698119063	-1.2109214389	 0.295027
H	-0.0252066236	-0.6081492195	 2.1669461988	 0.109352
27.0712	81.917	172.4859	204.219	242.7804	263.4345	385.2912	420.5982	550.764	592.623	610.8316	688.6646	698.7869	721.2185	878.0768	880.0669	961.9475	998.3574	1008.533	1065.0505	1116.1702	1143.7187	1199.6216	1247.6131	1316.7284	1379.1794	1410.3315	1423.9894	1433.7547	1488.4168	1491.7177	1513.6841	1555.9573	1653.5323	1783.9739	2982.284	3012.5313	3055.5422	3110.9451	3236.7517	3632.2639	3643.8634
CC1=C(NC=O)NN=C1	Cc1c(NC=O)[nH]nc1	
InChI=1S/C5H7N3O/c1-4-2-7-8-5(4)6-3-9/h2-3H,1H3,(H2,6,7,8,9)	InChI=1S/C5H7N3O/c1-4-2-7-8-5(4)6-3-9/h2-3H,1H3,(H2,6,7,8,9)
