18
gdb 89188	2.54056	1.57885	1.2249	1.744	72.69	-0.2632	0.0204	0.2836	1065.8609	0.147395	-439.072183	-439.063867	-439.062923	-439.104914	32.018	
C	-0.0748034946	 1.5310105528	 0.1149202354	-0.495763
C	 0.0402640907	 0.033016718	-0.0291800581	 0.195597
C	-1.2461264836	-0.8614271979	 0.0781710978	-0.334964
C	-0.5255332664	-1.7819820919	 1.1215565471	 0.155969
O	-0.4373349836	-3.1561640042	 0.8846158314	-0.434221
C	 0.7699300944	-0.9638147784	 0.9279787537	 0.010677
O	 1.5263683568	-1.4943113516	-0.2103401641	-0.295173
C	 0.9746560252	-0.5441724471	-1.0677177187	 0.408579
N	 1.2222073721	-0.2982803235	-2.2695184625	-0.548851
H	 0.9085954775	 2.0024936559	 0.2042477906	 0.12963
H	-0.5672471694	 1.95453488	-0.7662860723	 0.145816
H	-0.6680486904	 1.7982878063	 0.9952221553	 0.119089
H	-2.1087490718	-0.3282920163	 0.4844437956	 0.112414
H	-1.5417307949	-1.3563529998	-0.8489223991	 0.120609
H	-0.9403457487	-1.6509394344	 2.1252660223	 0.097355
H	 0.1971040322	-3.2721253095	 0.1652194902	 0.290579
H	 1.4297063338	-0.7124477766	 1.7583991667	 0.092096
H	 1.9397489006	-0.9197993618	-2.6460851014	 0.230561
86.7836	168.1775	193.5117	238.6795	256.085	282.2664	399.29	419.7227	454.6027	579.2889	614.3385	668.0585	717.3501	795.5325	819.2956	864.6775	868.5868	903.7201	941.5274	960.1033	991.7328	1022.8658	1060.3358	1132.8784	1145.2723	1167.3944	1209.7089	1213.3625	1229.0029	1267.796	1309.9996	1326.0913	1363.1255	1415.5851	1439.1482	1478.205	1489.2859	1492.9912	1826.5352	3036.2826	3066.7268	3072.3912	3106.7315	3109.5436	3118.2415	3129.2135	3478.9478	3767.8198
CC12CC(O)C1OC2=N	C[C@]12C[C@@H](O)[C@H]1O[C]2[NH]	
InChI=1S/C6H9NO2/c1-6-2-3(8)4(6)9-5(6)7/h3-4,7-8H,2H2,1H3	InChI=1S/C6H9NO2/c1-6-2-3(8)4(6)9-5(6)7/h3-4,7-8H,2H2,1H3/t3-,4-,6+/m1/s1
