20
gdb 85828	2.47874	1.31698	1.09095	4.8614	80.18	-0.2233	0.0263	0.2495	1208.1318	0.170028	-399.309323	-399.299498	-399.298554	-399.343464	36.475	
C	-0.1824469689	 1.5458688496	 0.1222169013	-0.426534
C	 0.0392786635	 0.0396225671	-0.0062215728	 0.016783
N	 1.1674400139	-0.4170093374	-0.8490037355	-0.058687
C	 1.6160580574	 0.3337640227	-1.9984508999	-0.329245
C	 2.051416754	-0.5925680134	 0.3026276068	-0.214258
C	 0.7812887552	-0.6114248976	 1.2248274232	 0.10773
N	 0.735167343	 0.1188327147	 2.4776529773	-0.565131
C	 0.319665632	-1.980085804	 1.4616539323	 0.301717
N	-0.0285919647	-3.0636680048	 1.6616915448	-0.341163
H	 0.7408674734	 2.0925488166	 0.3413328838	 0.111787
H	-0.5904276701	 1.9490850865	-0.8094056169	 0.127119
H	-0.8982683319	 1.7493162541	 0.9230682891	 0.14344
H	-0.9082341522	-0.4438093327	-0.2689755159	 0.097997
H	 1.9593001562	 1.3579510682	-1.7652987617	 0.093691
H	 2.4490086404	-0.1971022249	-2.471519332	 0.128056
H	 0.8088492083	 0.40397749	-2.7347784273	 0.127202
H	 2.6871845078	-1.4837706239	 0.2770469445	 0.118454
H	 2.6769774341	 0.2864719289	 0.5416932099	 0.077848
H	 1.1711041357	-0.4161289551	 3.2216853263	 0.245852
H	 1.242436013	 0.9930966255	 2.3936394828	 0.237342
82.8677	144.0766	185.7701	215.1215	217.6726	226.6763	243.0673	270.3158	316.4575	375.5174	429.2886	472.2176	530.0879	575.6625	636.5511	728.789	811.128	826.2152	888.7247	960.5057	1007.0494	1030.0943	1055.9766	1080.0036	1107.2137	1121.9986	1173.4779	1192.197	1233.7025	1273.0985	1291.4531	1328.3782	1345.8211	1384.7852	1398.1036	1452.6726	1483.8477	1490.5155	1496.8292	1507.5862	1520.032	1655.5518	2359.4835	2936.5176	2942.8506	3036.9144	3040.0046	3058.3518	3062.6348	3099.8086	3105.7957	3122.7099	3508.6637	3592.7155
CC1N(C)CC1(N)C#N	C[C@H]1N(C)C[C@]1(N)C#N	
InChI=1S/C6H11N3/c1-5-6(8,3-7)4-9(5)2/h5H,4,8H2,1-2H3	InChI=1S/C6H11N3/c1-5-6(8,3-7)4-9(5)2/h5H,4,8H2,1-2H3/t5-,6-/m1/s1
