18
gdb 14913	4.58821	1.38738	1.13635	0.8133	73.77	-0.2508	0.0553	0.3061	1045.3603	0.15487	-347.781546	-347.773997	-347.773053	-347.813169	29.327	
C	 0.0104086687	-1.2313317338	-0.0182878804	-0.438061
C	-0.0017237991	-0.0290990243	-0.0046601003	 0.298432
C	-0.0029100419	 1.4286347314	 0.0345218599	-0.173157
C	-0.7352492715	 1.9773801508	 1.2813080625	-0.199796
C	-0.6413951415	 3.5040921741	 1.316669082	-0.083121
O	 0.7014534119	 3.9547067521	 1.2879670952	-0.241331
C	 1.3766963459	 3.5380177076	 0.114282624	-0.083123
C	 1.4281042374	 2.0137502408	-0.0076612166	-0.199795
H	 0.0162015103	-2.2928676759	-0.0383529778	 0.191739
H	-0.5388028785	 1.7947728707	-0.8545644112	 0.100737
H	-1.7841820762	 1.6633734735	 1.2765075255	 0.105585
H	-0.2701490512	 1.5622961844	 2.1821706849	 0.115424
H	-1.2012773162	 3.9322134173	 0.4658853021	 0.083691
H	-1.0786318797	 3.9006954952	 2.2374846852	 0.109038
H	 0.8843914423	 3.9672860304	-0.7767582898	 0.083691
H	 2.3844882673	 3.9589005163	 0.1741564515	 0.109039
H	 2.0092418205	 1.6005863595	 0.824047848	 0.115423
H	 1.9306451915	 1.72583696	-0.9368781647	 0.105585
113.0242	147.5189	235.6958	267.9193	361.8622	397.5354	460.3517	504.8127	523.6873	590.0857	625.7891	635.4477	811.8169	818.8089	868.4364	913.8563	976.8088	994.1858	1018.5922	1077.5562	1096.2282	1134.4164	1156.0699	1189.28	1263.0661	1275.3056	1295.3307	1316.1965	1341.9454	1354.3836	1384.6985	1388.2853	1423.4409	1471.5061	1484.7216	1491.432	1503.1616	2235.5893	2944.4027	2950.9275	2986.983	3043.0463	3045.6458	3083.6618	3086.4549	3091.1492	3094.0369	3505.1182
C#CC1CCOCC1	C#CC1CCOCC1	
InChI=1S/C7H10O/c1-2-7-3-5-8-6-4-7/h1,7H,3-6H2	InChI=1S/C7H10O/c1-2-7-3-5-8-6-4-7/h1,7H,3-6H2
