23
gdb 123182	5.00414	0.52145	0.50744	2.3195	83.88	-0.2595	0.0845	0.344	2236.2547	0.20466	-425.400366	-425.389871	-425.388926	-425.437655	37.378	
O	-0.0416767976	 1.4223730388	-0.3418422406	-0.422056
C	-0.0722238076	 0.0608723018	 0.0372717221	-0.057646
C	-1.4992781888	-0.4610808454	 0.1027974906	-0.070104
O	-2.0555112114	-0.2832976051	-1.1861623725	-0.261172
C	-3.4327933713	-0.5936064636	-1.2667249629	-0.041618
C	-3.9077319727	-0.3445027054	-2.6937698747	-0.226759
C	-5.3734662322	-0.6701507354	-2.8809983575	 0.032473
C	-6.4347677577	 0.3471189267	-2.5351873301	-0.255279
C	-6.1697304148	-0.0104865799	-3.9769357328	-0.276263
H	-0.616859143	 1.485377336	-1.1137423896	 0.287622
H	 0.5058144117	-0.5651644009	-0.6615017054	 0.091749
H	 0.3968244603	-0.0150158983	 1.023782718	 0.106284
H	-1.5157771578	-1.5236541154	 0.3970789316	 0.085763
H	-2.0747701742	 0.1105363381	 0.8488124756	 0.093736
H	-3.5996673962	-1.6475454809	-0.9860981049	 0.085641
H	-4.0072937182	 0.0238476504	-0.5568393333	 0.09304
H	-3.7244836413	 0.7072448487	-2.9460650442	 0.098758
H	-3.2917735196	-0.9427253886	-3.3764346703	 0.10726
H	-5.6319924118	-1.706077952	-2.6731987938	 0.081839
H	-7.3561943216	 0.0032939617	-2.0785277541	 0.111348
H	-6.1064360091	 1.3222061916	-2.1892131451	 0.111296
H	-5.6647074205	 0.7238759818	-4.5960269235	 0.11213
H	-6.9086078448	-0.6020688148	-4.5059765526	 0.111957
37.5865	51.5128	85.8715	120.0826	132.6556	170.9586	234.0211	300.4219	339.0536	412.2176	446.2373	456.8921	560.6634	774.2273	784.5193	826.822	835.8558	873.8082	907.619	921.2028	965.3738	1035.5316	1050.7215	1064.2445	1076.6488	1082.4824	1099.2212	1138.3838	1142.9538	1156.7249	1195.0515	1199.1599	1228.2506	1239.5032	1250.1521	1266.2549	1303.6331	1314.8702	1383.3885	1387.0717	1416.9299	1439.2285	1449.2942	1469.0285	1488.7245	1500.1391	1504.0872	1508.1524	1531.9205	2954.5626	2966.9562	2975.9807	2987.7322	3005.9511	3026.6414	3066.9442	3078.4084	3128.1353	3129.8394	3134.2751	3206.1948	3221.4327	3792.8955
OCCOCCC1CC1	OCCOCCC1CC1	
InChI=1S/C7H14O2/c8-4-6-9-5-3-7-1-2-7/h7-8H,1-6H2	InChI=1S/C7H14O2/c8-4-6-9-5-3-7-1-2-7/h7-8H,1-6H2
