18
gdb 79268	2.55407	1.61905	1.27893	2.69	75.9	-0.2448	-0.0362	0.2086	1036.8089	0.147071	-401.887613	-401.879611	-401.878667	-401.920435	30.321	
C	 0.0192265149	 1.5915123115	 0.0529688831	-0.428889
C	 0.0880129067	 0.0709079658	 0.0672947095	-0.029367
C	 1.0706623433	-0.7065892945	-0.8097975361	-0.053775
C	 1.2236782742	-1.7739766171	 0.2006701095	-0.109078
N	 2.3856284727	-0.8999053832	-0.0918630201	-0.146062
C	 2.2124340093	-0.2257963008	 1.2395000681	-0.196836
C	 0.7524520715	-0.6955480983	 1.2722185124	 0.195671
C	-0.0156902639	-0.92324633	 2.5232464265	 0.029607
O	 0.3405558692	-0.5546444538	 3.6164856439	-0.248514
H	 1.003713202	 2.055123143	 0.1499686239	 0.129561
H	-0.4148269947	 1.9380825751	-0.8911454395	 0.124602
H	-0.6141818727	 1.9645778303	 0.8649690882	 0.127275
H	-0.9109504084	-0.3520676193	-0.0927906103	 0.087335
H	 1.107956206	-0.7725302367	-1.8894730905	 0.102884
H	 1.229480668	-2.8553672232	 0.1699858251	 0.108769
H	 2.8327979066	-0.7440283438	 1.9732442576	 0.125788
H	 2.4297142832	 0.8454937259	 1.2638423907	 0.108342
H	-0.9758484778	-1.4738455707	 2.388065058	 0.072687
61.9606	150.0593	183.9119	211.4384	269.5136	305.0799	439.1063	494.2564	557.3719	671.7518	711.3631	765.3828	779.8582	800.2333	861.5081	901.1174	959.5601	972.4864	1002.4393	1014.6803	1038.6844	1078.9817	1096.7927	1119.9146	1126.1034	1159.5432	1173.7666	1196.9113	1231.2852	1266.1664	1329.4726	1337.042	1386.9318	1412.3686	1425.1799	1488.9224	1494.3147	1518.7942	1808.6664	2858.633	3035.619	3040.152	3063.8613	3098.1316	3120.8377	3127.7068	3197.3013	3211.3708
CC1C2C3N2CC13C=O	C[C@H]1[C@@H]2[C@H]3N2C[C@@]13C=O	
InChI=1S/C7H9NO/c1-4-5-6-7(4,3-9)2-8(5)6/h3-6H,2H2,1H3	InChI=1S/C7H9NO/c1-4-5-6-7(4,3-9)2-8(5)6/h3-6H,2H2,1H3/t4-,5+,6+,7+,8?/m0/s1
