23
gdb 118950	2.86999	0.89418	0.84456	1.2618	81.82	-0.2524	0.0745	0.3269	1500.1335	0.203731	-425.410307	-425.399666	-425.398722	-425.445931	39.3	
C	 0.0228911928	 1.5973776154	 0.1175791796	-0.436787
C	-0.0229061345	 0.0683242482	 0.0172248135	 0.301566
C	-1.437117433	-0.4593688757	-0.2397915261	-0.243223
C	-2.0744706122	 0.0101101141	-1.5435991806	-0.085765
O	-3.2978496826	-0.6974857814	-1.6990383707	-0.419685
C	 1.1172879628	-0.487506569	-0.9016446116	-0.256838
C	 2.000918978	-0.7090835883	 0.3558163304	-0.276479
C	 0.7139393614	-0.6082808273	 1.2141389665	 0.107982
O	 0.7289713894	 0.1507406918	 2.4016681465	-0.433087
H	 1.0254502014	 1.9534419412	 0.3689169425	 0.116724
H	-0.2653674216	 2.0594408131	-0.8322128283	 0.106254
H	-0.6546334197	 1.958536468	 0.8968553681	 0.124044
H	-1.4156365783	-1.5560079784	-0.2653002824	 0.096815
H	-2.0934345912	-0.1790800409	 0.5940215534	 0.106257
H	-2.2504774412	 1.0957802572	-1.5176579328	 0.087792
H	-1.3919223744	-0.1900049592	-2.3863904154	 0.084773
H	-3.729760697	-0.377053975	-2.4960987905	 0.283441
H	 0.8358315529	-1.4291538528	-1.3820223305	 0.097942
H	 1.5061528022	 0.1891783367	-1.6665437738	 0.096314
H	 2.5828370769	-1.632089761	 0.416767319	 0.090629
H	 2.6618363194	 0.1398232378	 0.5493445284	 0.107433
H	 0.2908804841	-1.6079540023	 1.3944849777	 0.060735
H	 1.2005751642	-0.3487537722	 3.0753453773	 0.283162
74.9255	86.894	128.1923	140.1772	212.4972	223.9283	266.2205	271.5429	285.103	322.622	350.2147	399.3874	458.1445	555.0936	635.3237	738.3341	792.8856	804.5619	890.0825	906.8459	947.8522	960.0366	990.9338	1008.3574	1029.8379	1069.1313	1111.1787	1121.9617	1167.1184	1178.0214	1206.9439	1210.791	1241.4329	1247.8523	1257.8042	1276.8454	1302.3734	1332.1968	1333.0998	1349.671	1406.0415	1427.2957	1458.4563	1475.5666	1484.0698	1494.1594	1496.0817	1501.699	1528.5089	2962.2942	2982.357	2998.6178	3021.7249	3038.4072	3052.3155	3060.8309	3064.6007	3099.5577	3105.067	3113.9161	3119.9108	3820.8053	3828.8009
CC1(CCO)CCC1O	C[C@@]1(CCO)CC[C@H]1O	
InChI=1S/C7H14O2/c1-7(4-5-8)3-2-6(7)9/h6,8-9H,2-5H2,1H3	InChI=1S/C7H14O2/c1-7(4-5-8)3-2-6(7)9/h6,8-9H,2-5H2,1H3/t6-,7+/m1/s1
