13
gdb 127912	3.99534	1.20284	0.9298	3.5876	69.01	-0.2808	-0.1064	0.1744	1169.1314	0.087741	-486.046166	-486.038058	-486.037114	-486.079533	28.483	
C	 0.0804409742	 1.4405850452	-0.1066042579	-0.336311
N	-0.0116096671	-0.0042498411	-0.1262490995	-0.294885
C	-1.1066576309	-0.602527464	 0.0550567644	 0.508949
N	-1.1853092796	-1.9861903138	 0.0354654377	-0.43792
C	-2.3255967254	-2.731135454	 0.2217643884	 0.521893
O	-2.3621396297	-3.9268649371	 0.1990349082	-0.351137
O	-3.4526283084	-1.993749753	 0.4422809529	-0.274495
N	-3.4095331398	-0.5053541593	 0.4712863263	 0.062166
N	-2.349357951	 0.061640598	 0.2949302987	-0.119253
H	 0.8029689489	 1.7318482101	 0.6635988851	 0.144255
H	 0.491862664	 1.7750994497	-1.0652173269	 0.144259
H	-0.8689962882	 1.9527671706	 0.0770232868	 0.144366
H	-0.330616047	-2.4991976115	-0.1305197042	 0.288114
60.2846	113.0556	146.7541	225.7382	243.4379	353.8689	384.877	427.6896	502.5167	627.6982	630.1094	683.4744	753.2193	757.6243	763.8654	920.4436	964.1719	1051.72	1132.1983	1159.7014	1260.3141	1331.8813	1423.9923	1439.8949	1487.252	1495.8757	1677.0056	1772.667	1881.0037	3027.1606	3087.2373	3108.0147	3619.0372
CN=C1NC(=O)ON=N1	C[N]c1[nH]c(=O)onn1	
InChI=1S/C3H4N4O2/c1-4-2-5-3(8)9-7-6-2/h1H3,(H,4,5,8)	InChI=1S/C3H7N4O2/c1-4-2-5-3(8)9-7-6-2/h2,6-7H,1H3,(H,5,8)
