19
gdb 74593	3.42354	1.70321	1.36659	0.4979	83.59	-0.2099	0.033	0.2429	988.3768	0.161325	-348.714204	-348.707356	-348.706412	-348.745001	29.147	
C	 0.0030743881	 1.5299395385	 0.0608454228	-0.49473
C	-0.0048012005	 0.0328392738	-0.0435681757	 0.350773
C	-0.0450578567	-0.6547501945	-1.1913545444	-0.202277
C	-0.0469941011	-2.121950455	-1.1215953489	-0.067646
C	 0.7409390636	-2.8817765307	-0.0504876001	-0.100618
C	-0.7662640542	-2.8774090204	-0.0002653747	-0.100612
C	-0.7192575249	-2.0992720038	 1.3314201965	-0.098414
C	 0.7871722739	-2.1036642709	 1.2812404406	-0.09841
C	 0.0340157493	-0.7730229643	 1.1917991571	-0.137896
H	 0.9018090395	 1.8916023197	 0.5771418268	 0.121826
H	-0.0287958945	 1.9961143374	-0.9280587662	 0.11892
H	-0.8568374474	 1.8967336824	 0.636252866	 0.121819
H	-0.0759155719	-0.1654239211	-2.1597267633	 0.079248
H	-0.0800805836	-2.6533192506	-2.0680725499	 0.081363
H	 1.4229837843	-3.6796435831	-0.3116377015	 0.086965
H	-1.4687883831	-3.671263898	-0.2152771231	 0.086965
H	-1.384031916	-2.2798861636	 2.1653405619	 0.08745
H	 1.504902832	-2.2883127298	 2.0691093037	 0.08745
H	 0.0667449634	-0.2173158761	 2.1255210326	 0.077823
155.5306	182.5019	307.3824	379.7599	467.7821	473.6431	567.1944	654.399	695.4893	711.6716	726.4406	760.5396	808.4592	809.7223	868.3787	892.8883	894.6345	914.0045	960.4792	961.7237	991.1183	1022.9515	1035.1561	1042.3112	1061.5835	1071.715	1086.9538	1127.3928	1142.1206	1203.1308	1224.497	1261.6494	1287.2156	1303.2789	1354.7602	1398.1209	1413.2458	1451.661	1479.0683	1494.2328	1718.2612	3012.0913	3057.4016	3105.8494	3143.6344	3153.1392	3174.9298	3190.0883	3199.9591	3201.2692	3212.2899
CC1=CC2C3C2C2C3C12	CC1=C[C@H]2[C@@H]3[C@H]2[C@H]2[C@@H]3[C@@H]12	
InChI=1S/C9H10/c1-3-2-4-6-7(4)9-5(3)8(6)9/h2,4-9H,1H3	InChI=1S/C9H10/c1-3-2-4-6-7(4)9-5(3)8(6)9/h2,4-9H,1H3/t4-,5+,6+,7-,8+,9-
