14
gdb 29092	3.1471	1.48475	1.01518	3.9914	67.88	-0.2427	-0.0645	0.1782	1097.9235	0.100668	-473.864131	-473.856354	-473.85541	-473.896749	28.545	
C	 0.0470712317	 1.5221313981	 0.186620863	-0.472447
C	-0.0479447853	 0.0436661704	 0.0296542401	 0.301794
C	-1.0999879831	-0.6240906594	-0.4336248885	-0.095724
O	-1.1282174584	-2.001522116	-0.5568217562	-0.194438
C	-0.0442958091	-2.7214114216	-0.1942276218	 0.355813
O	-0.0414124994	-3.9155386595	-0.2903920629	-0.311823
C	 1.163303458	-1.964650856	 0.3367475043	 0.249437
N	 2.2220391825	-2.5414496929	 0.7011252481	-0.461264
O	 1.0973625442	-0.6058191245	 0.422027116	-0.225646
H	 0.8759733157	 1.9189176608	-0.4090673192	 0.152248
H	-0.8785082995	 2.0036234979	-0.1340202529	 0.140261
H	 0.2381896052	 1.7859672365	 1.2322007495	 0.152241
H	-2.0214850656	-0.1651363292	-0.7545275308	 0.149964
H	 2.1014565532	-3.5472644747	 0.5721664316	 0.259584
87.1321	110.2046	188.6103	287.4656	305.0128	369.1984	453.2239	467.7187	513.401	569.1773	596.1187	665.9202	781.8428	793.1119	805.7053	925.4206	977.4441	1012.0106	1069.3096	1098.8945	1155.0564	1182.6047	1254.2859	1364.2369	1389.6521	1422.9521	1466.3817	1488.9367	1734.8281	1765.7731	1848.521	3040.3864	3097.3078	3140.0046	3266.1109	3494.2961
CC1=COC(=O)C(=N)O1	CC1=COC(=O)[C]([NH])O1	
InChI=1S/C5H5NO3/c1-3-2-8-5(7)4(6)9-3/h2,6H,1H3	InChI=1S/C5H5NO3/c1-3-2-8-5(7)4(6)9-3/h2,6H,1H3
