15
gdb 131652	3.02972	1.25204	0.89084	5.0791	73.96	-0.2347	-0.0671	0.1676	1223.6366	0.112203	-453.918059	-453.909895	-453.908951	-453.951325	29.658	
O	 0.0158409612	 1.4287157427	 0.1112119026	-0.407415
C	-0.0011262852	 0.029719702	-0.0448568691	-0.165628
C	-1.4212872332	-0.4592389334	-0.0253326013	 0.24668
C	-2.49185153	 0.3398163275	 0.1172387994	-0.228402
C	-3.8269463342	-0.2244969116	 0.1240074048	 0.409614
N	-4.8780568385	 0.4748643693	 0.2547223478	-0.524933
O	-3.925175915	-1.6091638877	-0.0227239762	-0.289232
N	-2.8222302738	-2.4407375303	-0.1704532029	-0.070046
C	-1.6667482133	-1.8789092161	-0.1682182333	-0.014396
H	 0.9284866812	 1.7293586878	 0.0898179821	 0.300176
H	 0.4659680594	-0.2839222373	-0.9949406412	 0.114887
H	 0.5578655382	-0.4806341281	 0.7591090885	 0.114788
H	-2.4076800545	 1.4117231926	 0.2304385334	 0.15494
H	-5.710596344	-0.1161539362	 0.2327259031	 0.227702
H	-0.8417421984	-2.5770114911	-0.2869916275	 0.131266
75.3677	126.1043	169.3139	185.4409	225.1544	371.1545	380.2373	452.1745	554.9621	575.4938	590.4301	708.5129	725.5677	857.5291	880.9888	904.5371	927.1006	942.8919	1021.9482	1045.742	1089.4336	1098.9485	1170.5529	1225.5096	1253.9884	1283.4808	1350.4261	1370.6986	1466.0795	1505.7951	1626.8973	1695.6022	1740.8155	2947.928	2965.5433	3167.4258	3245.4089	3480.7156	3845.7291
OCC1=CC(=N)ON=C1	OC[C]1C=C([NH])ON=C1	
InChI=1S/C5H6N2O2/c6-5-1-4(3-8)2-7-9-5/h1-2,6,8H,3H2	InChI=1S/C5H6N2O2/c6-5-1-4(3-8)2-7-9-5/h1-2,6,8H,3H2
