17
gdb 61372	3.57574	0.82861	0.72392	3.2918	78.89	-0.2416	-0.072	0.1696	1532.2954	0.132712	-417.983035	-417.972807	-417.971863	-418.019013	35.753	
C	-0.0326735263	 1.6003318133	-0.0592607716	-0.38807
C	-0.0047455101	 0.0611776919	 0.0107390612	-0.107031
N	 0.7822150689	-0.4173435127	 1.1481470656	-0.331609
C	 2.137323569	-0.5469276962	 1.0812219416	 0.295915
N	 2.8266723873	-0.1693392808	 0.0714652057	-0.5217
C	 2.7548740771	-1.1739070203	 2.3142768688	 0.108206
O	 3.9366900723	-1.3635197775	 2.4202324983	-0.232317
C	-1.3489313362	-0.5088127747	 0.0791108241	 0.290051
C	-2.4596257237	-0.9597085066	 0.1620639984	-0.433205
H	 0.9916244445	 1.9715868509	-0.1301084368	 0.151085
H	-0.5908025594	 1.9252007414	-0.9413671767	 0.128428
H	-0.5114356894	 2.0164569895	 0.8309731559	 0.120601
H	 0.5021866553	-0.3050276883	-0.891538255	 0.145446
H	 0.2846446737	-0.8076987699	 1.9306679089	 0.252143
H	 3.8091884473	-0.3764792973	 0.2577005809	 0.235807
H	 2.0460095031	-1.4540657856	 3.1267895298	 0.082186
H	-3.4401577532	-1.3648763571	 0.2142373208	 0.204063
51.2066	58.8344	116.4235	156.7629	185.1674	228.9071	242.7568	269.5951	305.011	372.2578	432.936	535.4827	553.3811	589.4453	627.0776	673.8484	744.3422	837.6898	861.7538	940.3643	960.3323	1022.3931	1086.9592	1093.7064	1141.9976	1175.8325	1284.3588	1344.9155	1371.3694	1399.7919	1430.6219	1486.358	1497.2161	1544.401	1695.218	1836.0861	2240.9574	2872.2044	3029.5547	3051.0607	3128.5989	3144.1341	3475.01	3502.3165	3655.0323
CC(NC(=N)C=O)C#C	C[C@@H](NC(=N)C=O)C#C	
InChI=1S/C6H8N2O/c1-3-5(2)8-6(7)4-9/h1,4-5H,2H3,(H2,7,8)	InChI=1S/C6H8N2O/c1-3-5(2)8-6(7)4-9/h1,4-5H,2H3,(H2,7,8)/t5-/m1/s1
