25
gdb 59989	3.29977	0.77322	0.72574	1.6677	89.36	-0.2608	0.0788	0.3396	1721.4325	0.226817	-389.480055	-389.469099	-389.468155	-389.516759	40.236	
C	-0.0776363234	 1.5146443964	-0.2132366009	-0.382117
C	 0.0275822714	-0.0095345536	-0.0627032592	 0.024759
C	 0.8568790867	-0.607773239	-1.2083612511	-0.387797
C	 0.6291605874	-0.431127859	 1.2913045021	-0.159394
C	-0.1193163926	 0.0166989052	 2.5669933196	-0.027382
C	-1.5358399532	-0.5649429865	 2.6547394328	-0.411131
C	 0.7415567677	-0.3430653993	 3.7681687369	 0.097824
C	 0.240449779	-0.7547747773	 5.0856765971	-0.19118
O	 0.7756089	-1.7166592205	 4.1725505496	-0.239524
H	 0.9067889811	 1.9869253284	-0.1063701534	 0.109713
H	-0.4668035201	 1.782744463	-1.2010376897	 0.109673
H	-0.7430512595	 1.9600698922	 0.5324645695	 0.113065
H	-0.9849278595	-0.4276980803	-0.1393230486	 0.075309
H	 1.8824711423	-0.2193207494	-1.1935789005	 0.11067
H	 0.9146105438	-1.6986532551	-1.1324665328	 0.111573
H	 0.423136329	-0.3605877201	-2.1830316042	 0.107537
H	 0.7165769056	-1.5249813135	 1.3180461627	 0.106144
H	 1.658127608	-0.04572521	 1.3402925238	 0.084937
H	-0.187809055	 1.1134563768	 2.5628370511	 0.076488
H	-2.1078517373	-0.3514793058	 1.7485485948	 0.116661
H	-1.4956891063	-1.6507400485	 2.7851836551	 0.134248
H	-2.0935645585	-0.1397831978	 3.4944089697	 0.110736
H	 1.7317159882	 0.1194277802	 3.7487627252	 0.085439
H	 0.8461092431	-0.5653331605	 5.9714869711	 0.110382
H	-0.8285617276	-0.833895136	 5.2689340791	 0.113366
41.7135	56.2827	105.5057	151.6948	205.3573	225.7419	239.9497	254.4731	294.7754	320.1851	364.2353	416.4392	427.5746	498.9706	592.3629	765.5921	817.1585	838.3539	862.2789	897.1095	929.7877	954.3651	959.6611	969.005	1008.3617	1028.5274	1070.4136	1097.4438	1129.7944	1155.8263	1163.2062	1180.4602	1191.6942	1198.147	1265.7343	1298.1934	1300.8159	1345.7657	1363.6222	1376.8418	1392.214	1399.9597	1402.045	1423.2421	1438.901	1479.8681	1488.3429	1495.3117	1498.7838	1505.4552	1509.3726	1511.6146	1531.9745	2998.7153	3008.8708	3018.2639	3022.3513	3028.0713	3044.0776	3051.0501	3074.4533	3086.5481	3087.9119	3093.603	3098.6168	3102.1595	3109.7597	3121.6621	3174.3624
CC(C)CC(C)C1CO1	CC(C)C[C@@H](C)[C@H]1CO1	
InChI=1S/C8H16O/c1-6(2)4-7(3)8-5-9-8/h6-8H,4-5H2,1-3H3	InChI=1S/C8H16O/c1-6(2)4-7(3)8-5-9-8/h6-8H,4-5H2,1-3H3/t7-,8-/m1/s1
