18
gdb 74862	2.29376	1.75243	1.1272	1.7239	83.37	-0.2281	0.0131	0.2412	1103.4889	0.147331	-364.761071	-364.752735	-364.75179	-364.793763	32.389	
C	 0.084487778	 1.4690464495	 0.0228508512	-0.490434
C	-0.0084374505	-0.019736563	-0.0370241019	 0.309975
C	-0.1653558495	-0.7945628158	-1.1141466458	-0.160414
C	-0.1088816189	-2.2416549858	-0.7641291793	-0.085753
N	 1.2123950891	-2.6274580614	-0.1847834372	-0.322446
C	 0.0844261985	-2.308232817	 0.7065754342	-0.058314
C	 0.0890812571	-0.8696842819	 1.2432526885	-0.264301
C	 1.2322898188	-0.5456783039	 2.0905104241	 0.358744
C	 2.1610833827	-0.2650393758	 2.7999931165	-0.484135
H	 1.04527129	 1.7803534498	 0.4486040884	 0.145677
H	-0.0163643043	 1.9152441893	-0.9697694257	 0.123015
H	-0.6950244004	 1.8902509681	 0.6712155994	 0.122942
H	-0.2730778881	-0.4295777643	-2.1290852065	 0.095245
H	-0.676610465	-2.9836651488	-1.3151824951	 0.089624
H	 1.3057856786	-3.6416159008	-0.2206754938	 0.228061
H	-0.3423914527	-3.0927243618	 1.3210769043	 0.092986
H	-0.8255090815	-0.7136075089	 1.8371250349	 0.106503
H	 2.9907678382	-0.0298763575	 3.4192279739	 0.193025
103.065	132.9734	176.294	193.1471	310.5253	339.8419	403.1565	477.5048	499.8527	568.1818	617.1105	634.6832	662.1588	705.1384	804.4341	822.1963	869.3714	874.3029	896.92	964.7494	977.7866	1027.3787	1049.3163	1061.3506	1083.4365	1127.7805	1158.9271	1188.6535	1252.8949	1268.4319	1294.0176	1315.8685	1368.8623	1408.4955	1415.833	1475.3447	1487.1848	1709.3395	2235.7791	2978.5044	3020.3327	3073.3959	3117.0147	3165.4804	3176.0776	3198.2059	3474.6879	3504.8757
CC1=CC2NC2C1C#C	CC1=C[C@H]2N[C@H]2[C@H]1C#C	
InChI=1S/C8H9N/c1-3-6-5(2)4-7-8(6)9-7/h1,4,6-9H,2H3	InChI=1S/C8H9N/c1-3-6-5(2)4-7-8(6)9-7/h1,4,6-9H,2H3/t6-,7+,8-/m0/s1
