20
gdb 117233	2.41208	1.10515	0.89564	1.4339	78.18	-0.2609	0.0119	0.2728	1402.849	0.16886	-440.276894	-440.266896	-440.265952	-440.312625	35.579	
C	 2.1245743103	 2.977049453	-1.9345163239	-0.392714
C	 1.075464173	 1.885838542	-1.840575702	-0.03405
O	 1.6012458747	 0.7213220857	-2.5024867302	-0.232083
C	 0.7943162969	-0.3474568878	-2.5630078522	 0.38849
N	-0.3682621641	-0.3444119782	-2.0467590413	-0.535989
C	 1.4085346405	-1.5103251397	-3.2841947772	-0.046986
O	 2.5052594047	-1.2921834022	-4.1657387487	-0.240724
C	 2.7490249742	-2.0739933084	-2.9978607982	 0.084444
C	 3.7114417763	-1.5381329036	-1.9713654773	-0.433568
H	 3.0506332853	 2.6781985247	-1.4347821199	 0.126761
H	 2.3562148636	 3.2061867461	-2.9783286538	 0.133067
H	 1.7541361592	 3.8876214765	-1.4541626712	 0.121295
H	 0.8355621233	 1.6293593272	-0.803441948	 0.11991
H	 0.1374180353	 2.1724941255	-2.3264098339	 0.124696
H	-0.8350244883	-1.2352291645	-2.2079424315	 0.221025
H	 0.652173513	-2.1984723501	-3.6648706218	 0.099569
H	 2.8536907567	-3.1412871095	-3.2084166778	 0.09419
H	 3.5450739748	-0.4762145902	-1.7939445037	 0.150541
H	 3.5979234462	-2.0843929985	-1.028742926	 0.122526
H	 4.7403381244	-1.681372258	-2.3178164612	 0.129599
48.6393	86.9503	108.8694	128.9925	179.27	218.3829	259.1698	282.9125	355.5036	389.3656	444.9306	480.5002	648.2046	738.8278	789.0316	806.7604	835.0075	851.7599	883.7884	943.1982	998.178	1023.8776	1074.0764	1088.681	1119.3024	1137.4214	1170.5264	1172.0036	1182.7968	1290.3914	1294.1217	1370.0106	1380.1637	1409.0097	1412.0031	1445.0539	1453.9478	1485.3764	1493.0121	1496.7727	1501.9754	1520.4497	1707.9513	3042.0404	3045.7119	3050.0685	3076.6379	3086.8791	3100.1961	3100.6311	3119.2277	3125.7986	3164.4146	3502.1139
CCOC(=N)C1OC1C	CCO[C]([NH])[C@H]1O[C@H]1C	
InChI=1S/C6H11NO2/c1-3-8-6(7)5-4(2)9-5/h4-5,7H,3H2,1-2H3	InChI=1S/C6H11NO2/c1-3-8-6(7)5-4(2)9-5/h4-5,7H,3H2,1-2H3/t4-,5-/m0/s1
