17
gdb 51776	2.52348	1.08541	0.82721	2.2233	69.2	-0.2553	-0.0452	0.2101	1345.3055	0.132777	-458.950206	-458.940914	-458.93997	-458.986451	31.286	
O	-0.7713809787	 1.0867063621	 0.7253004969	-0.232421
C	 0.1300309996	 1.1169244694	-0.0710562121	 0.153456
C	 1.3263268914	 2.0395255141	 0.0099299272	-0.298567
C	 1.3809066461	 2.9663815319	-1.206665979	-0.073599
C	 0.4693838802	 4.2171461043	-1.1916159155	-0.078354
O	 1.6066426227	 5.1088801933	-1.2306965379	-0.285927
C	 2.5328148935	 4.0134129461	-1.2826735929	 0.032816
C	 3.5390445972	 4.0536201662	-0.1504870181	 0.121682
O	 4.2797325138	 3.1396672671	 0.1090283829	-0.241718
H	 0.1305794336	 0.4457035943	-0.9626495064	 0.076533
H	 1.2728764515	 2.6031761147	 0.9460370769	 0.126989
H	 2.2379853169	 1.428058661	 0.0301500213	 0.148579
H	 1.2976218408	 2.3809726575	-2.12588465	 0.097242
H	-0.1761648673	 4.3433828434	-2.0677373705	 0.114571
H	-0.126387289	 4.3547899128	-0.2815904568	 0.12249
H	 3.091904868	 3.9854376803	-2.2296782242	 0.114339
H	 3.5327541197	 5.0059921115	 0.4251728181	 0.101888
37.6641	65.5486	81.471	86.0713	145.3211	232.7335	313.7244	376.3893	408.3736	506.0318	579.051	745.0902	797.9207	869.0118	905.3961	936.5479	965.2059	1008.3995	1037.2133	1056.2567	1099.9081	1118.6321	1147.3972	1170.2152	1214.7829	1224.962	1264.4628	1293.8901	1329.3466	1352.574	1382.5137	1396.023	1427.9723	1462.0898	1527.2708	1822.9749	1837.2825	2852.0224	2893.8992	2998.1729	3027.8787	3033.8469	3067.372	3080.8387	3102.433
O=CCC1COC1C=O	O=CC[C@H]1CO[C@H]1C=O	
InChI=1S/C6H8O3/c7-2-1-5-4-9-6(5)3-8/h2-3,5-6H,1,4H2	InChI=1S/C6H8O3/c7-2-1-5-4-9-6(5)3-8/h2-3,5-6H,1,4H2/t5-,6-/m0/s1
