19
gdb 106754	2.20304	1.63366	1.13655	2.0649	78.79	-0.2301	0.0193	0.2494	1147.3866	0.157666	-419.159464	-419.150158	-419.149214	-419.19341	34.576	
C	 0.1554846445	 1.3516200231	 0.1742868375	-0.264393
O	-0.1431324744	-0.0204745777	-0.0753743129	-0.279393
C	 0.5157373598	-0.5272900026	-1.1603143908	 0.318694
C	 1.9640314759	-1.0259962796	-1.0947814231	-0.370651
C	 0.8714678459	-1.9661124408	-1.5075621086	 0.258037
C	 0.5084423372	-3.2770056055	-0.8917666988	-0.502802
N	 0.6210283705	-1.671449885	-2.9601552152	-0.40297
C	 0.0854275666	-0.3864071219	-2.5977628913	 0.316864
N	-0.5938232019	 0.4928871248	-3.1924106529	-0.547401
H	 1.2284739026	 1.4940040714	 0.362218662	 0.110377
H	-0.1500810486	 1.977799	-0.671041077	 0.147699
H	-0.4084246247	 1.6367578462	 1.0646876299	 0.126341
H	 2.7128110398	-0.71193771	-1.815747419	 0.120008
H	 2.3059997301	-1.1387822062	-0.0696194762	 0.121582
H	 0.6423997407	-3.2363101361	 0.1925114952	 0.140487
H	-0.5378025852	-3.5332152531	-1.0933814615	 0.126637
H	 1.1400227504	-4.0837096279	-1.2811410632	 0.132551
H	-0.0466646096	-2.2841148245	-3.4191050054	 0.232422
H	-0.7833554998	 0.2278816752	-4.1616289385	 0.215909
81.5955	132.8896	134.5279	173.1467	200.9697	259.0736	286.013	360.5013	423.1826	471.8653	488.3714	548.3438	626.31	662.5568	715.9413	828.2865	861.6729	885.9286	899.8425	955.809	988.838	1022.653	1056.7949	1067.5468	1103.7829	1119.2845	1181.3997	1208.8024	1218.4503	1235.4809	1282.8327	1375.5754	1404.6345	1429.2797	1474.4723	1480.6695	1485.5486	1494.2418	1508.6688	1521.6375	1800.6272	3006.3753	3028.0504	3080.4096	3087.3995	3113.6726	3117.1462	3130.7934	3211.002	3448.9794	3525.4999
COC12CC1(C)NC2=N	CO[C@@]12C[C@]1(C)N[C]2[NH]	
InChI=1S/C6H10N2O/c1-5-3-6(5,9-2)4(7)8-5/h3H2,1-2H3,(H2,7,8)	InChI=1S/C6H10N2O/c1-5-3-6(5,9-2)4(7)8-5/h3H2,1-2H3,(H2,7,8)/t5-,6+/m0/s1
