17
gdb 73750	2.64753	1.51176	1.1293	5.2021	81.86	-0.2448	-0.0438	0.201	1098.9311	0.137741	-380.845304	-380.837594	-380.83665	-380.877594	29.42	
C	-0.0170366375	 1.4659116096	 0.082046919	-0.526537
C	 0.0038564715	-0.0152737979	 0.0133097934	 0.26921
C	-0.0090349306	-0.8672524657	-1.0302027632	 0.194149
C	-0.0564838726	-0.6104071703	-2.4134964573	 0.154925
N	-0.1038819807	-0.4142289319	-3.5558803522	-0.359882
C	 0.0567573251	-2.2410917659	-0.3360911868	-0.124787
C	-1.0078206884	-2.044577723	 0.787227368	-0.223254
C	 0.0704728504	-0.9891693874	 1.1982593186	-0.110281
N	 1.1499669888	-1.933544979	 0.6781588692	-0.312203
H	 0.8875233042	 1.842346656	 0.5759420566	 0.149103
H	-0.0784387794	 1.9105512697	-0.9140242955	 0.153411
H	-0.8686714364	 1.8212780711	 0.675628526	 0.140313
H	 0.1454772154	-3.1346270158	-0.9510597701	 0.091938
H	-2.0102426798	-1.7032760838	 0.5121474734	 0.107153
H	-1.0587430245	-2.8885493099	 1.4823652749	 0.102978
H	 0.1734437862	-0.581631132	 2.2034767632	 0.079899
H	 1.1882626482	-2.7264395437	 1.3259268329	 0.213866
132.7448	133.6012	167.113	188.3844	294.9224	449.1101	484.4992	520.7178	578.4896	604.3218	676.4997	689.414	816.1556	846.426	854.7702	892.8542	912.7554	997.7491	1023.7026	1042.1946	1061.571	1094.6218	1116.8445	1147.3313	1159.4151	1202.3169	1235.7634	1257.848	1288.9544	1308.7567	1363.6134	1412.1803	1475.0639	1477.0032	1498.1131	1687.8583	2327.8874	3021.6852	3041.9878	3069.6924	3107.4374	3124.3604	3128.6809	3145.4842	3400.5747
CC1=C(C#N)C2CC1N2	CC1=C(C#N)[C@@H]2C[C@H]1N2	
InChI=1S/C7H8N2/c1-4-5(3-8)7-2-6(4)9-7/h6-7,9H,2H2,1H3	InChI=1S/C7H8N2/c1-4-5(3-8)7-2-6(4)9-7/h6-7,9H,2H2,1H3/t6-,7+/m1/s1
