20
gdb 11898	4.53551	1.43698	1.22793	0.3092	81.31	-0.2241	0.0362	0.2603	1060.7103	0.177501	-311.879055	-311.87116	-311.870215	-311.911507	30.646	
C	-0.3416297023	 1.4523101887	 0.0889501671	-0.490352
C	-0.0064982912	-0.0027798641	-0.003225496	 0.340625
C	-0.1156242383	-0.7922007331	-1.0739963163	-0.162478
C	 0.344264866	-2.2046112765	-0.8189977185	-0.338211
C	 0.5960993882	-2.2168641896	 0.6984130498	 0.381995
C	 0.0102083764	-3.3132997851	 1.5527265443	-0.303361
C	 1.5027065032	-3.2335366057	 1.3366787981	-0.31244
C	 0.5560998972	-0.7597962088	 1.1815275036	-0.383515
H	 0.5373304816	 2.0449405127	 0.374654253	 0.122299
H	-0.7182681699	 1.8415271853	-0.861041435	 0.120957
H	-1.1020691615	 1.6375057908	 0.8586616753	 0.122446
H	-0.4722123008	-0.4635147684	-2.0451017329	 0.07986
H	-0.4003338424	-2.9526543932	-1.121698225	 0.09981
H	 1.2565924826	-2.4339081197	-1.3899737139	 0.101236
H	-0.3790300764	-3.0475151868	 2.5308947892	 0.105728
H	-0.5355954629	-4.1110249225	 1.058210744	 0.106397
H	 1.9671045239	-3.9780468997	 0.6972541712	 0.106086
H	 2.1234574648	-2.915923541	 2.1689202193	 0.105604
H	 1.5560752667	-0.3801632753	 1.4420938487	 0.099785
H	-0.0593613449	-0.6345423779	 2.0828820539	 0.097528
40.2085	178.3097	227.7282	242.9316	311.0738	376.1505	401.0532	441.4542	474.2851	635.9812	778.3902	782.3008	816.1487	869.3449	881.1853	901.0649	924.0573	982.3047	988.671	998.5087	1026.0638	1036.6743	1056.3239	1075.0759	1086.2286	1166.468	1184.3791	1190.1337	1205.3233	1261.7936	1277.8913	1299.3222	1343.6151	1378.6269	1414.3477	1466.9701	1479.1645	1484.6146	1490.4235	1492.6283	1503.379	1727.6387	2985.7803	2989.9049	3013.3874	3020.5762	3025.2458	3057.5988	3107.1066	3115.2777	3119.9555	3179.2675	3192.8536	3208.7157
CC1=CCC2(CC2)C1	CC1=CCC2(CC2)C1	
InChI=1S/C8H12/c1-7-2-3-8(6-7)4-5-8/h2H,3-6H2,1H3	InChI=1S/C8H12/c1-7-2-3-8(6-7)4-5-8/h2H,3-6H2,1H3
