16
gdb 36377	3.77877	0.95348	0.86332	5.6781	69.78	-0.2853	0.0285	0.3139	1323.4378	0.123197	-437.848186	-437.839724	-437.83878	-437.882379	30.023	
N	 0.0199139205	-0.7394548873	-1.1115991628	-0.301552
C	-0.0113640562	 0.2812463159	-0.5713813871	 0.261877
C	-0.0391931475	 1.5678552751	 0.1236851351	-0.383898
C	 1.3621102348	 2.1048345271	 0.3675882389	 0.058977
O	 1.963094296	 2.8567184953	-0.6876217428	-0.241155
C	 1.666924488	 3.5385392112	 0.5278935	 0.017429
C	 0.6745799283	 4.6620271519	 0.4789125374	 0.040567
C	 0.4781540218	 5.4428929682	-0.7515898269	-0.171237
O	-0.5058706381	 4.5053128715	-0.3034937076	-0.227288
H	-0.6101950234	 2.2951268119	-0.4566792256	 0.194005
H	-0.5522810178	 1.4322168239	 1.0835047912	 0.154643
H	 2.0401673082	 1.3940079768	 0.84144915	 0.116347
H	 2.5443878805	 3.7892118358	 1.129420935	 0.104509
H	 0.5181424508	 5.154459698	 1.4396267968	 0.107619
H	 0.185264599	 6.4886329218	-0.6875422339	 0.125998
H	 1.0193003652	 5.1444638429	-1.6459936078	 0.143156
49.8206	90.9405	115.9504	197.4892	217.8222	310.3042	376.9006	390.5439	521.4162	561.4344	657.7216	743.2536	827.3434	861.4695	911.5898	921.3439	963.3725	974.3987	1016.5907	1074.5264	1100.6024	1137.8662	1151.5495	1167.465	1172.1797	1239.4246	1276.8523	1298.4731	1317.3906	1399.7446	1428.8191	1457.7735	1488.7504	1517.1538	2365.4547	3048.7206	3078.2973	3101.0234	3105.2003	3110.5721	3128.935	3200.6554
N#CCC1OC1C1CO1	N#CC[C@H]1O[C@H]1[C@H]1CO1	
InChI=1S/C6H7NO2/c7-2-1-4-6(9-4)5-3-8-5/h4-6H,1,3H2	InChI=1S/C6H7NO2/c7-2-1-4-6(9-4)5-3-8-5/h4-6H,1,3H2/t4-,5-,6-/m1/s1
