21
gdb 99032	3.44676	0.89504	0.85065	2.9648	75.94	-0.2545	0.0026	0.2571	1481.0972	0.179151	-461.410729	-461.400028	-461.399084	-461.446797	38.684	
C	 1.3528032649	-3.3186409186	 2.3481389269	-0.243653
O	 0.76780492	-2.7476808895	 1.1675572804	-0.223379
C	 1.5744040449	-2.6711990682	 0.0981031112	 0.454498
O	 2.7179438395	-3.0766964418	 0.107330735	-0.377424
C	 0.889903554	-2.005075462	-1.0752412476	-0.352959
C	 1.4374041839	-2.4592384859	-2.452402628	 0.353106
C	 1.1895475463	-3.9618854449	-2.6751903806	-0.418102
C	 0.7676848756	-1.6386172862	-3.556715396	-0.396855
O	 2.8261400958	-2.1677316084	-2.5377844095	-0.471067
H	 1.6759991602	-4.3447484168	 2.1578381335	 0.144642
H	 2.2157300591	-2.7317154115	 2.6717406031	 0.144722
H	 0.5689680222	-3.2974059186	 3.1047713218	 0.137677
H	-0.1889227532	-2.1628595018	-0.9960203173	 0.123068
H	 1.066893828	-0.9270129048	-0.9717292354	 0.138806
H	 0.1207582202	-4.2016578122	-2.6521317995	 0.10502
H	 1.5890675103	-4.2567053676	-3.6492425304	 0.123038
H	 1.6935586841	-4.559336626	-1.9097993814	 0.121191
H	 0.9612293256	-0.5720669428	-3.4103383483	 0.116975
H	 1.178290251	-1.9266678906	-4.5283595273	 0.123511
H	-0.3141822604	-1.8019307403	-3.5732437883	 0.106694
H	 3.2353895578	-2.5698155514	-1.7574232622	 0.290491
36.3446	101.4701	122.9433	156.3412	192.7594	209.638	251.2486	285.4	308.1739	334.861	371.79	400.2446	453.301	515.3907	589.744	610.6871	735.4673	791.9538	881.8546	902.0527	928.8322	943.8352	998.5552	1020.1027	1029.7066	1144.4818	1162.7991	1177.7263	1208.1464	1236.3163	1239.9881	1283.811	1360.296	1392.6274	1411.7154	1439.1907	1446.9507	1474.3499	1477.3137	1481.7188	1490.0482	1495.7705	1500.995	1510.6914	1781.8121	3033.4056	3038.5657	3043.6552	3055.5158	3101.0148	3105.8228	3117.0352	3117.7307	3122.1655	3131.9869	3164.0332	3717.8928
COC(=O)CC(C)(C)O	COC(=O)CC(C)(C)O	
InChI=1S/C6H12O3/c1-6(2,8)4-5(7)9-3/h8H,4H2,1-3H3	InChI=1S/C6H12O3/c1-6(2,8)4-5(7)9-3/h8H,4H2,1-3H3
