23
gdb 77500	1.86151	1.6834	1.23858	1.5427	86.45	-0.2426	0.0725	0.315	1189.8673	0.203657	-388.256694	-388.246572	-388.245627	-388.290678	38.835	
C	-0.1709275263	 1.5655000646	-0.0361120931	-0.450622
C	 0.0261110543	 0.055220121	-0.0090192219	-0.041036
C	 1.2052627693	-0.644442022	-0.776389982	 0.274643
C	 1.4609070526	-0.6471960001	-2.2595985925	-0.51806
C	 2.1466396246	-0.152273946	 0.363825399	-0.313235
C	 0.8729268322	-0.6540074422	 1.1084294326	 0.274638
C	 0.6059106021	-0.6717993844	 2.5895291145	-0.518059
C	 0.9580977719	-1.8839896612	 0.1454708599	 0.118639
O	-0.120966122	-2.7577121142	-0.0492275419	-0.455951
H	 0.7486466693	 2.1320278078	 0.1292321458	 0.119458
H	-0.5816590648	 1.8803663505	-1.0021595526	 0.117507
H	-0.8883230924	 1.8714917163	 0.733821604	 0.117504
H	-0.9565290728	-0.4053368225	-0.1846229422	 0.028584
H	 1.5409074743	 0.3703236137	-2.6579908929	 0.116912
H	 2.3921738641	-1.173207901	-2.4969595802	 0.120076
H	 0.6483949503	-1.1542906494	-2.792205326	 0.118687
H	 3.0610153268	-0.7338333751	 0.5221010322	 0.085183
H	 2.3614315019	 0.9152130718	 0.4071133174	 0.093463
H	 0.5431085913	 0.341611505	 3.0012532676	 0.116912
H	-0.3388927687	-1.1826688179	 2.8071286572	 0.118687
H	 1.400742125	-1.2017656693	 3.1258735974	 0.120075
H	 1.8296527456	-2.5284872405	 0.2958750692	 0.072865
H	-0.9252296287	-2.2478084752	-0.1884693413	 0.283131
166.6612	172.8099	180.7784	183.8198	197.6148	198.9642	205.0954	239.906	277.5687	393.5107	406.3485	500.857	550.2746	585.3578	632.404	655.097	750.9348	783.2594	798.5873	872.5239	909.0902	1001.9562	1005.8706	1010.5465	1075.622	1089.2995	1105.1893	1110.9379	1127.3856	1158.0565	1177.6059	1188.9718	1206.0763	1224.6499	1274.8961	1305.1752	1349.9415	1405.857	1407.3387	1413.6733	1438.7085	1457.8016	1488.0842	1488.7388	1489.784	1489.9694	1497.6723	1503.9338	1538.581	2983.6893	3024.158	3024.5454	3031.9672	3049.953	3069.8504	3085.0754	3090.4414	3090.5009	3092.3258	3092.4449	3113.2202	3135.4274	3817.6504
CC1C2(C)CC1(C)C2O	C[C@H]1[C@@]2(C)C[C@]1(C)[C@H]2O	
InChI=1S/C8H14O/c1-5-7(2)4-8(5,3)6(7)9/h5-6,9H,4H2,1-3H3	InChI=1S/C8H14O/c1-5-7(2)4-8(5,3)6(7)9/h5-6,9H,4H2,1-3H3/t5-,6-,7+,8-
