18
gdb 65285	2.6202	1.33457	1.09719	3.9672	76.76	-0.2585	0.0256	0.2841	1153.6003	0.146846	-401.927745	-401.91894	-401.917996	-401.961357	32.275	
C	-0.0285149581	 1.5270290123	-0.0607094882	-0.463581
C	 0.0046197865	 0.0081221413	-0.0118031296	 0.102407
C	 1.3384646005	-0.7195275045	-0.1798182915	-0.381881
C	 0.6789861611	-0.695710782	 1.1539641975	 0.252509
C	 1.1344448696	-0.0800489103	 2.4738459874	-0.13859
O	 0.5669304107	-1.1853288722	 3.205136386	-0.271371
C	 0.1411089948	-1.8496704407	 1.9933932318	-0.140643
C	-1.1591819555	-0.6491386627	-0.552667077	 0.247362
N	-2.1000452315	-1.1801655551	-0.9676843826	-0.349308
H	 0.8822407463	 1.9401334332	 0.381522111	 0.127468
H	-0.0959660927	 1.8817669295	-1.0930882697	 0.14346
H	-0.8860613433	 1.921630041	 0.4920588563	 0.143588
H	 1.3416965839	-1.6513336244	-0.7351278372	 0.141883
H	 2.2082142926	-0.0901110731	-0.3414427946	 0.129056
H	 2.2219587203	-0.0096775834	 2.6086168124	 0.108738
H	 0.6747840088	 0.8778372204	 2.7485823643	 0.109748
H	-0.9439819508	-2.0029216749	 1.959359803	 0.128136
H	 0.649338527	-2.8117992943	 1.8520995708	 0.111021
86.2526	121.3617	143.5015	196.1344	213.5846	234.5727	358.3972	379.1276	416.5362	500.1848	573.3583	631.6075	665.4914	839.4324	877.5828	885.3994	935.0102	958.4659	990.5099	1001.6655	1034.3232	1070.2787	1106.1655	1120.2407	1152.8973	1157.6191	1182.5038	1198.1185	1287.0628	1312.4315	1352.9141	1417.3089	1429.4985	1483.619	1488.9438	1502.7569	1510.5026	1534.3268	2346.2138	3003.5766	3019.1129	3043.1187	3047.9567	3064.9801	3115.9344	3119.5032	3128.6639	3219.1434
CC1(CC11COC1)C#N	C[C@]1(CC21COC2)C#N	
InChI=1S/C7H9NO/c1-6(3-8)2-7(6)4-9-5-7/h2,4-5H2,1H3	InChI=1S/C7H9NO/c1-6(3-8)2-7(6)4-9-5-7/h2,4-5H2,1H3/t6-/m0/s1
