12
gdb 129061	5.25828	1.15404	0.94634	2.4183	72.92	-0.2677	-0.1009	0.1668	1120.7884	0.077604	-464.937633	-464.930444	-464.9295	-464.97015	25.64	
N	-0.1028058108	 1.2776652581	 0.3462520495	-0.481571
C	-0.0463563702	 0.0475637213	 0.0235434652	 0.345025
C	-1.2416453966	-0.7702687863	-0.1166442672	 0.029074
N	-1.1944233447	-2.0132991757	-0.4420795293	-0.175551
N	 0.0519959379	-2.5178793689	-0.6481646055	 0.010175
C	 0.1108669212	-3.8938977217	-1.0088024742	 0.210631
O	 1.1202647236	-4.4904195508	-1.2244248362	-0.237546
N	 1.2304289477	-1.8275514124	-0.5401063265	-0.018528
N	 1.1982500475	-0.6142304464	-0.2232913252	-0.22414
H	 0.8449049861	 1.6627728662	 0.3890592551	 0.242693
H	-2.2193857897	-0.3316453113	 0.0561279712	 0.166008
H	-0.914699982	-4.2933520622	-1.0506023868	 0.13373
43.055	150.1021	224.0161	252.5177	408.3862	430.6152	465.6574	473.6206	612.5874	683.5325	773.7063	778.2439	817.6704	927.2977	959.736	967.3881	1029.7504	1078.8945	1128.979	1281.5119	1322.8381	1382.4304	1405.8518	1552.0599	1658.6032	1722.4622	1861.8233	3030.0829	3192.0509	3448.903
N=C1C=NN(C=O)N=N1	[NH]c1cnn(C=O)nn1	
InChI=1S/C3H3N5O/c4-3-1-5-8(2-9)7-6-3/h1-2,4H	InChI=1S/C3H8N5O/c4-3-1-5-8(2-9)7-6-3/h2-7H,1H2
