19
gdb 124851	3.57397	1.12489	1.06539	2.1596	80.67	-0.2318	0.0248	0.2566	1212.9417	0.161269	-382.082119	-382.073878	-382.072934	-382.115571	31.643	
C	-0.1992625194	 1.3886620545	 0.5756622939	-0.454443
C	 0.0167226475	-0.0191138527	 0.0382791422	 0.243674
C	 1.3632871736	-0.3360166739	-0.5727119529	-0.304688
C	 0.9995444345	-0.9034639506	 0.7779148511	-0.291851
C	-1.1956686307	-0.6542541023	-0.5495181499	 0.146483
C	-1.5133081256	-0.8241269025	-1.8840579633	-0.138289
N	-2.7352509956	-1.4093052201	-1.9235092062	-0.178204
N	-3.2524299102	-1.6386332813	-0.7018838133	-0.224507
C	-2.3235780639	-1.1796219554	 0.1308367965	-0.091185
H	 0.724156158	 1.7918713303	 1.0044274997	 0.108503
H	-0.5287930526	 2.0662007819	-0.2196464687	 0.116272
H	-0.9661962826	 1.3988039188	 1.3578562628	 0.119171
H	 1.3993315431	-1.0202408276	-1.4129954695	 0.108112
H	 2.0991667795	 0.4601204522	-0.6127717495	 0.107269
H	 1.4883584401	-0.4924015435	 1.6549811209	 0.107652
H	 0.7830059312	-1.9639308979	 0.8391073801	 0.114619
H	-0.970319789	-0.5768968606	-2.7826525089	 0.131698
H	-3.2613187996	-1.6856776784	-2.734675089	 0.272936
H	-2.4837035181	-1.243740291	 1.197694364	 0.106779
33.6644	141.5456	177.8015	242.7665	298.8171	331.6499	404.2624	488.3381	509.0268	527.582	676.3115	709.4022	788.4866	799.1956	836.5384	869.7836	891.3793	943.3196	949.5389	952.1771	998.6996	1042.2714	1058.9532	1071.8695	1082.6156	1121.2801	1160.2481	1191.837	1196.5105	1259.1721	1303.6832	1348.3992	1388.9368	1413.4955	1417.1484	1466.5874	1489.6864	1491.6385	1498.9243	1508.952	1611.7856	3025.5747	3091.777	3098.8676	3130.5553	3135.2151	3211.2222	3225.2991	3239.236	3259.6489	3677.2646
CC1(CC1)C1=CNN=C1	CC1(CC1)c1c[nH]nc1	
InChI=1S/C7H10N2/c1-7(2-3-7)6-4-8-9-5-6/h4-5H,2-3H2,1H3,(H,8,9)	InChI=1S/C7H10N2/c1-7(2-3-7)6-4-8-9-5-6/h4-5H,2-3H2,1H3,(H,8,9)
