14
gdb 27427	2.62023	1.74014	1.19901	2.8982	71.57	-0.2478	-0.0888	0.159	1005.6973	0.101135	-432.897589	-432.889927	-432.888982	-432.929917	27.741	
C	-0.0099561295	 1.4230951057	 0.228090529	-0.441783
C	-0.0422936825	-0.0263803276	-0.1622227274	 0.345952
N	-1.1824361884	-0.6042074787	-0.3515136746	-0.274486
C	-1.318707024	-1.9604879848	-0.5824219117	 0.336953
O	-1.991182741	-2.4738611643	-1.4424853891	-0.313428
C	-0.5904503719	-2.7657180063	 0.4678804328	-0.057384
N	 0.6830033171	-2.7207741686	 0.5872935463	-0.169491
C	 1.453325544	-1.8216652123	-0.1185605464	 0.078431
N	 1.2082907458	-0.5828117596	-0.3813440262	-0.256325
H	 0.4782561355	 2.0037939827	-0.5609004035	 0.157902
H	-1.0196808627	 1.7972607663	 0.3927949863	 0.148073
H	 0.5921234895	 1.5529850846	 1.1334601726	 0.14599
H	-1.161041713	-3.4310942575	 1.1181692072	 0.155528
H	 2.4414300608	-2.2010907297	-0.3763655752	 0.144066
120.7514	123.5607	160.7126	248.2594	293.8116	373.5473	405.1353	455.3814	544.6297	604.7844	692.1161	700.3726	823.5325	866.687	907.9271	954.3503	1006.6736	1045.9062	1063.6222	1093.9668	1206.1026	1269.0102	1363.2944	1402.6982	1431.7505	1465.211	1473.0654	1557.2711	1656.8467	1685.8112	1806.4651	3048.5198	3107.195	3121.3129	3146.9752	3165.84
CC1=NC(=O)C=NC=N1	Cc1nc(=O)cncn1	
InChI=1S/C5H5N3O/c1-4-7-3-6-2-5(9)8-4/h2-3H,1H3	InChI=1S/C5H5N3O/c1-4-7-3-6-2-5(9)8-4/h2-3H,1H3
