16
gdb 46452	3.78708	1.18611	1.07989	3.3273	76.3	-0.2401	0.0128	0.2529	1124.1642	0.124992	-400.748731	-400.740864	-400.73992	-400.781023	30.445	
O	-0.0066685477	-0.0295306889	-0.0825247889	-0.380864
C	 0.016985141	 1.1767467004	 0.0123558259	 0.430327
N	-1.0712344469	 1.9947390237	 0.2131329411	-0.330165
C	-0.8339426323	 3.4128481579	 0.012246026	-0.236765
C	 0.6991296312	 3.5127813207	-0.0393409928	 0.168268
C	 1.4304371658	 2.9544528568	 1.1607995565	-0.315308
C	 1.2252293375	 2.0763790321	-0.0480239135	-0.208554
C	 1.2838141983	 4.5599994614	-0.8187287384	 0.171204
C	 1.7563857747	 5.4498420778	-1.4756984033	-0.383201
H	-1.9958258598	 1.5958810505	 0.241410021	 0.254952
H	-1.2620061044	 3.7709792302	-0.9323535614	 0.12426
H	-1.252366373	 4.0158794659	 0.8267927306	 0.120861
H	 2.433386205	 3.3279680398	 1.3285251949	 0.136508
H	 0.8576273756	 2.7421218349	 2.0578582431	 0.13053
H	 2.0690426634	 1.7634181362	-0.646861793	 0.125443
H	 2.1807223316	 6.2314190605	-2.0558508976	 0.192505
103.4702	147.9694	156.436	274.3587	352.3836	420.4989	472.639	502.2569	529.104	559.7454	591.5172	655.2657	662.5489	723.8966	769.7559	824.5447	879.7688	936.16	988.3567	1007.6165	1046.4812	1069.0484	1082.8876	1094.4203	1208.6817	1218.6117	1243.3468	1279.6803	1341.9036	1381.0798	1443.0251	1483.0824	1529.0128	1833.016	2239.952	3018.9004	3054.7961	3134.5432	3221.0791	3233.1808	3502.607	3647.6436
O=C1NCC2(CC12)C#C	O=C1NC[C@]2(C[C@@H]12)C#C	
InChI=1S/C7H7NO/c1-2-7-3-5(7)6(9)8-4-7/h1,5H,3-4H2,(H,8,9)	InChI=1S/C7H7NO/c1-2-7-3-5(7)6(9)8-4-7/h1,5H,3-4H2,(H,8,9)/t5-,7+/m0/s1
