16
gdb 115142	2.59697	1.39373	1.09152	5.3782	65.62	-0.2418	-0.0999	0.1419	1113.1216	0.123959	-475.032254	-475.023881	-475.022937	-475.065835	30.532	
O	 0.3349433287	 1.2289904148	 0.2012516072	-0.419356
C	 0.1037522955	-0.1346743802	-0.057298429	-0.057339
C	-1.3991838368	-0.4445816027	-0.0279623868	-0.136732
N	-2.0156113174	 0.1077522541	 1.1921929843	-0.339045
C	-3.4089123558	 0.5007954349	 0.9396198151	-0.286492
C	-3.4362849313	 0.8664547144	-0.5354940117	 0.323852
O	-4.2743844142	 1.4810951715	-1.1329840331	-0.265975
C	-2.1576695267	 0.2416234058	-1.158564152	 0.343424
O	-1.8636465475	 0.2749670972	-2.3202841672	-0.280704
H	-0.2439927787	 1.4456213474	 0.9462714211	 0.282457
H	 0.4902309935	-0.3599596805	-1.0561345324	 0.133063
H	 0.6232974633	-0.7852373089	 0.6662545561	 0.084653
H	-1.5529875675	-1.5319768831	-0.1479004184	 0.100898
H	-1.9311617151	-0.5202067142	 1.9809175921	 0.239187
H	-4.1401340704	-0.311727647	 1.0944250861	 0.129957
H	-3.7167305794	 1.3451863365	 1.5633264386	 0.14815
61.5378	105.1933	135.263	229.0059	266.248	314.835	359.0455	493.2634	545.2119	553.729	575.9795	591.0308	685.1473	729.1231	847.8958	899.2677	939.689	993.5596	1036.9277	1059.605	1091.6618	1127.982	1152.5387	1191.5695	1217.9872	1251.0512	1292.5598	1354.3784	1382.7059	1437.127	1448.7465	1482.0143	1505.6563	1853.2491	1873.0013	2943.5365	2959.2737	2966.005	3080.7071	3087.0102	3562.4092	3729.0425
OCC1NCC(=O)C1=O	OC[C@H]1NCC(=O)C1=O	
InChI=1S/C5H7NO3/c7-2-3-5(9)4(8)1-6-3/h3,6-7H,1-2H2	InChI=1S/C5H7NO3/c7-2-3-5(9)4(8)1-6-3/h3,6-7H,1-2H2/t3-/m1/s1
