15
gdb 130359	7.42838	0.81722	0.73705	3.3354	80.23	-0.2024	-0.0182	0.1842	1461.8938	0.113544	-450.133938	-450.125318	-450.124374	-450.167499	31.352	
N	 0.0163475758	 1.3375076644	-0.0908185677	-0.494786
C	-0.1034227176	-0.003680585	-0.2121683432	 0.118759
N	-1.031352034	-0.6513927835	 0.3994905855	-0.375008
C	-1.0830939092	-2.0128370934	 0.2799581373	 0.559697
C	-1.9904593874	-2.8970436727	 0.7891371711	-0.459973
C	-1.529515395	-4.1603739899	 0.3250882817	 0.435989
N	-2.144713603	-5.390294333	 0.5066203402	-0.591775
N	-0.4294730272	-4.0617340546	-0.3933780192	-0.245754
O	-0.1463973791	-2.6801417241	-0.4329216526	-0.240719
H	 0.6366849577	 1.8506877724	-0.6903300443	 0.270442
H	-0.702832784	 1.8433291287	 0.4013637544	 0.270284
H	 0.6550338164	-0.4726514737	-0.8434566961	 0.139825
H	-2.858363253	-2.6697617486	 1.3838084072	 0.107491
H	-2.5556436296	-5.5096472515	 1.421656051	 0.250768
H	-1.5353724007	-6.1633385356	 0.2722416747	 0.25476
57.648	128.6566	146.1697	213.2387	264.3033	298.3214	353.9562	406.5447	417.308	510.9943	606.6262	643.161	691.8136	713.7975	743.8156	788.0203	794.1223	949.9923	996.3561	1018.2095	1023.8674	1074.5964	1141.4486	1212.5739	1287.1077	1321.8212	1385.7364	1506.0139	1548.1957	1616.9753	1644.0464	1671.7839	1719.0442	3108.0319	3282.1406	3551.0147	3606.2954	3650.6571	3745.7403
NC=NC1=CC(N)=NO1	NC=Nc1cc(N)no1	
InChI=1S/C4H6N4O/c5-2-7-4-1-3(6)8-9-4/h1-2H,(H2,5,7)(H2,6,8)	InChI=1S/C4H6N4O/c5-2-7-4-1-3(6)8-9-4/h1-2H,(H2,5,7)(H2,6,8)
