15
gdb 66910	2.93288	1.96898	1.36782	3.1544	74.34	-0.2404	-0.0783	0.1621	901.537	0.112033	-420.548434	-420.54154	-420.540596	-420.579396	27.888	
O	 0.2185751685	 1.3029708052	-0.2182626661	-0.473932
C	 0.0081507533	-0.0306852152	 0.016658707	 0.339283
C	-0.7903928087	-0.7930370405	-1.1120559831	-0.117484
C	-0.8482223547	-2.3766569683	-1.0076518978	-0.265714
C	-0.8380745768	-2.0513070376	 0.4761648189	 0.09173
C	 0.3325017613	-2.0656530639	 1.1695356779	-0.248306
C	 0.8983750869	-0.6953428739	 1.039908711	 0.316641
O	 1.8977302935	-0.1724413153	 1.4859191347	-0.368524
C	-1.3713312769	-0.6469796122	 0.2567951039	-0.188576
H	 0.978872676	 1.5345087426	 0.3396487327	 0.302115
H	-1.0431282235	-0.2331543356	-2.008909333	 0.118031
H	-1.8042396635	-2.6877983465	-1.4416133191	 0.127581
H	-0.0270257031	-2.9860673138	-1.3927404917	 0.120126
H	 1.0034785359	-2.9163743137	 1.2294837729	 0.122908
H	-2.2367224281	-0.1339514512	 0.6495076116	 0.124119
126.3508	262.1398	270.1206	378.5487	402.2602	441.5989	458.3946	561.5103	636.6372	664.7246	731.7528	760.1868	783.547	828.4513	855.563	877.1623	903.1591	961.8833	969.4581	1022.498	1047.059	1069.7704	1104.6738	1143.4486	1181.4047	1192.0233	1262.246	1268.9849	1347.4166	1417.4817	1490.457	1546.8718	1782.5887	3046.2267	3116.549	3151.2728	3187.4874	3231.0787	3693.7957
OC12C3CC(=CC1=O)C23	O[C@@]12[C@H]3C[C]([CH]C1=O)[C@@H]23	
InChI=1S/C7H6O2/c8-5-2-3-1-4-6(3)7(4,5)9/h2,4,6,9H,1H2	InChI=1S/C7H6O2/c8-5-2-3-1-4-6(3)7(4,5)9/h2,4,6,9H,1H2/t4-,6+,7-/m0/s1
