21
gdb 41935	3.18277	1.44352	1.05523	1.748	83.42	-0.2316	0.0221	0.2536	1164.6127	0.186061	-387.109212	-387.101591	-387.100647	-387.141366	30.469	
C	-0.0412859593	 1.4209262387	 0.0409589975	-0.073417
C	 1.4225501939	 1.9546425106	-0.005255278	-0.303597
C	 2.2117058311	 0.7203675767	 0.4397877387	 0.055157
C	 3.6721299743	 0.4944224588	 0.0730730606	-0.253727
C	 4.123852681	-0.870893094	 0.6536262437	-0.257445
C	 3.046414656	-1.9355945232	 0.6660568079	-0.034037
C	 1.772957685	-1.7322298529	 0.3233538202	-0.125293
C	 1.3508770877	-0.3833894776	-0.1687937326	 0.138076
O	 0.022315668	-0.0093314438	 0.1656058108	-0.287809
H	-0.5968979339	 1.8033050258	 0.903741625	 0.105655
H	-0.5957239414	 1.6943855832	-0.8667247495	 0.095453
H	 1.6978691539	 2.2461570536	-1.0249208816	 0.10149
H	 1.5669527946	 2.8248960028	 0.639803552	 0.10169
H	 2.1068098275	 0.6211135874	 1.5290475094	 0.079969
H	 3.7793663782	 0.4909218678	-1.0194587372	 0.098906
H	 4.3203465219	 1.2925049862	 0.4501564901	 0.094936
H	 4.9978158158	-1.2421204421	 0.1030635473	 0.106475
H	 4.4770608717	-0.733010038	 1.6863710628	 0.111663
H	 3.3625903886	-2.9229819981	 0.9959251303	 0.087539
H	 1.0378784212	-2.5310374235	 0.348646653	 0.095897
H	 1.4625479042	-0.3537970985	-1.2717769605	 0.06242
93.3533	145.7922	193.9695	297.8372	344.2863	408.309	446.4618	530.7558	572.1951	663.3569	700.5795	760.0402	823.7297	850.3558	873.638	891.5396	933.4408	983.5873	990.6043	1002.3818	1012.9107	1067.8205	1093.9763	1105.968	1127.8368	1128.9068	1188.9223	1201.8473	1217.6493	1233.0841	1252.2391	1292.0363	1307.1945	1338.629	1355.037	1364.6572	1377.4183	1392.3014	1408.5019	1418.9683	1474.8013	1495.4674	1500.5557	1524.9312	1708.298	2884.1093	3000.3574	3008.6067	3010.3997	3023.1812	3039.0792	3046.7591	3061.9107	3071.4015	3102.5002	3145.9101	3180.823
C1CC2CCC=CC2O1	C1C[C@@H]2CCC=C[C@H]2O1	
InChI=1S/C8H12O/c1-2-4-8-7(3-1)5-6-9-8/h2,4,7-8H,1,3,5-6H2	InChI=1S/C8H12O/c1-2-4-8-7(3-1)5-6-9-8/h2,4,7-8H,1,3,5-6H2/t7-,8+/m0/s1
