19
gdb 82647	1.98944	1.76402	1.55523	0.9386	74.66	-0.2135	0.0668	0.2803	1023.6637	0.157491	-422.959028	-422.950341	-422.949397	-422.991728	33.504	
C	-0.2411142874	 1.4734724003	-0.0540893668	-0.410485
C	-0.0357516513	-0.0354430715	-0.0366479138	-0.067796
C	 1.1980141835	-0.5372413488	-0.8414122759	 0.010315
O	 1.1460289745	-1.9881027462	-0.7070402683	-0.296751
C	 1.5201769912	-1.780169283	 0.6549296035	-0.057564
C	 2.0943099092	-0.4098809166	 0.4578236312	 0.242575
C	 3.397444298	 0.2363320018	 0.7947180574	-0.536226
C	 0.7569527661	-0.5404662819	 1.1743200633	 0.290417
O	 0.5391166124	-0.2807864922	 2.511031187	-0.462218
H	 0.7005098256	 2.0070767851	 0.1151969717	 0.118005
H	-0.6522963149	 1.8042766318	-1.0136972503	 0.112689
H	-0.9358523093	 1.7799029819	 0.7342240307	 0.123806
H	-0.9632125167	-0.5679369509	-0.2815388717	 0.066697
H	 1.4197545423	-0.1913846727	-1.8500100183	 0.084017
H	 1.8296149502	-2.6187286597	 1.2669336719	 0.104948
H	 4.2161961845	-0.1694905873	 0.1904298435	 0.127137
H	 3.3648003415	 1.3200043007	 0.636229416	 0.125478
H	 3.6390980633	 0.0665303424	 1.8490449591	 0.135454
H	-0.0970532329	-0.9215163131	 2.8488850201	 0.289502
152.3111	172.7644	189.9095	197.0862	211.805	291.2229	307.0392	369.1615	395.2999	505.469	577.5673	624.1931	666.7814	770.1072	774.6189	811.4886	891.1664	913.0747	940.6756	956.2997	1006.2546	1037.8124	1063.3512	1095.1984	1119.7881	1131.2535	1161.123	1179.1967	1216.6243	1247.9497	1267.7879	1298.0348	1333.5539	1380.5245	1407.6632	1416.0815	1484.1715	1484.3638	1492.7093	1497.5157	1504.7485	3025.8862	3028.9185	3031.1562	3086.7109	3098.6236	3100.1188	3101.7344	3131.3474	3195.0815	3787.0667
CC1C2OC3C2(C)C13O	C[C@H]1[C@@H]2O[C@H]3[C@]2(C)[C@@]13O	
InChI=1S/C7H10O2/c1-3-4-6(2)5(9-4)7(3,6)8/h3-5,8H,1-2H3	InChI=1S/C7H10O2/c1-3-4-6(2)5(9-4)7(3,6)8/h3-5,8H,1-2H3/t3-,4-,5-,6+,7+/m0/s1
