17
gdb 25620	3.45304	0.97213	0.7658	3.4066	90.8	-0.201	0.002	0.203	1474.7057	0.136046	-380.904542	-380.895168	-380.894224	-380.94063	32.541	
C	-0.1237017832	 1.4986006391	-0.0456044804	-0.509895
C	-0.048206845	 0.0464578067	-0.0296341231	 0.168409
C	 0.0211448507	-1.159680348	-0.0164735316	-0.060711
C	 0.1047564217	-2.5637539998	-0.0012394741	 0.113822
C	 1.1821189601	-3.4356048197	 0.0057021279	 0.171832
C	 2.6340149156	-3.092209743	-0.0015539281	-0.503356
N	 0.7389985316	-4.7357111202	 0.0210259098	-0.296208
C	-0.574252628	-4.6693183505	 0.0234400194	-0.003828
N	-1.0152395269	-3.3864408078	 0.0104556352	-0.325472
H	 0.8780341564	 1.9404481086	-0.006027634	 0.154859
H	-0.6110640816	 1.867635181	-0.9554657416	 0.149408
H	-0.6869191743	 1.8820131332	 0.8130170402	 0.149457
H	 3.1370356687	-3.4973925504	 0.8831133704	 0.133938
H	 3.1331798617	-3.5186613565	-0.8783658846	 0.133957
H	 2.7753959386	-2.0088351397	-0.0149242632	 0.126929
H	-1.2502621827	-5.5115185972	 0.034277432	 0.129298
H	-1.9695313434	-3.0676090457	 0.0091528659	 0.267561
17.9322	85.0328	91.3448	109.6354	242.0835	261.0086	288.1715	357.1979	468.9225	481.6643	516.6374	539.9714	673.5217	692.4967	716.3019	815.6947	956.6091	973.4119	998.2165	1050.7044	1051.0179	1063.3753	1122.1149	1157.9906	1284.4031	1292.2933	1385.8569	1409.6868	1415.337	1460.8142	1473.5912	1478.2454	1478.3363	1488.8462	1509.0581	1605.3807	2348.2972	3022.7766	3035.2738	3079.3131	3088.4081	3088.5105	3124.8501	3249.6648	3667.265
CC#CC1=C(C)N=CN1	CC#Cc1c(C)nc[nH]1	
InChI=1S/C7H8N2/c1-3-4-7-6(2)8-5-9-7/h5H,1-2H3,(H,8,9)	InChI=1S/C7H8N2/c1-3-4-7-6(2)8-5-9-7/h5H,1-2H3,(H,8,9)
