18
gdb 31631	3.59744	1.12567	0.89033	4.0572	79.01	-0.1678	0.0472	0.215	1318.7384	0.147491	-435.279187	-435.269641	-435.268697	-435.314356	33.76	
C	-0.1106461567	 1.4039059887	 0.3232799361	-0.334108
N	-0.1321653007	 0.1412880075	-0.421817186	-0.387221
C	-1.1857054846	-0.7192557303	-0.1824411036	 0.370007
C	-1.2924748816	-2.0253038559	 0.104130923	-0.245581
N	-2.6644441619	-2.3416250439	 0.0625706493	-0.083335
C	-3.2663979605	-3.6224698369	 0.3390231596	-0.339162
C	-3.3809008093	-1.1976744115	-0.1835442678	 0.462764
N	-4.6455383052	-1.0824791524	-0.2355508546	-0.622322
O	-2.4500905488	-0.1851244847	-0.3626623166	-0.238811
H	 0.7189824135	 2.0131552919	-0.0424755186	 0.12699
H	-1.0404574114	 1.9428241846	 0.1331144116	 0.156269
H	-0.0038395118	 1.2685620512	 1.410090518	 0.113293
H	 0.7509688514	-0.3490348567	-0.381721539	 0.241268
H	-0.5405852232	-2.7655371778	 0.3125584069	 0.130164
H	-3.0925147315	-3.9348602925	 1.3764905473	 0.125341
H	-4.3397636751	-3.5197451188	 0.1756287337	 0.178083
H	-2.8710264116	-4.3943357279	-0.3310653758	 0.126217
H	-4.912829351	-0.1287378245	-0.4586045236	 0.220143
57.1967	72.7789	101.0773	150.8896	175.4844	215.4767	286.8994	339.2369	382.7567	536.0872	578.6121	624.9324	666.613	670.0499	685.2748	711.2924	730.4188	848.9879	962.0198	1021.1522	1048.4074	1065.5925	1144.6934	1148.7794	1158.2764	1195.8241	1218.4955	1334.006	1357.4787	1417.4362	1448.3975	1461.707	1485.8125	1493.0315	1496.5394	1513.4249	1519.9282	1731.1614	1787.9981	2990.9203	3015.15	3066.9919	3098.6018	3142.8492	3151.8951	3290.5616	3553.2446	3586.8237
CNC1=CN(C)C(=N)O1	CNC1=CN(C)[C@@H]([NH])O1	
InChI=1S/C5H9N3O/c1-7-4-3-8(2)5(6)9-4/h3,6-7H,1-2H3	InChI=1S/C5H10N3O/c1-7-4-3-8(2)5(6)9-4/h3,5-7H,1-2H3/t5-/m1/s1
