16
gdb 15122	8.0001	0.7704	0.73145	5.0967	66.67	-0.2536	0.0193	0.2729	1471.1204	0.130263	-379.891292	-379.88293	-379.881986	-379.925345	28.665	
N	 0.1117549623	-1.1030318406	 0.4169811293	-0.295271
C	 0.0724869308	 0.0355509391	 0.2280676432	 0.260046
C	 0.0146090971	 1.4843892276	 0.0143070739	-0.260272
N	 1.350900616	 2.0601167169	-0.0558136231	-0.301094
C	 1.3327791087	 3.5078523202	-0.2412690622	-0.157847
C	 2.7463349215	 4.0284455787	-0.2550730615	 0.079016
C	 3.1005699511	 5.3213768162	 0.3387372851	-0.177572
O	 3.3837898683	 4.1016065501	 1.0261734511	-0.236034
H	-0.5005418635	 1.6704166544	-0.9368024613	 0.15614
H	-0.6254561491	 1.9189744785	 0.8046110968	 0.133356
H	 1.8633420266	 1.8425436282	 0.7938043495	 0.245924
H	 0.8526859286	 3.7286372547	-1.2043180276	 0.113434
H	 0.7599137876	 4.039544431	 0.5399703868	 0.091212
H	 3.380414003	 3.6219556435	-1.0429271957	 0.108981
H	 3.9693221359	 5.8627832404	-0.0317801661	 0.122796
H	 2.3239177749	 5.9402572112	 0.7861913019	 0.117184
49.446	96.3195	99.3819	139.473	228.0813	318.0173	392.6025	406.5282	467.5542	582.9089	786.5478	805.4708	868.2009	937.0122	950.9253	970.9292	1003.5785	1079.1615	1121.5607	1142.529	1150.3298	1164.376	1173.3137	1232.8221	1291.2637	1295.1431	1333.8598	1393.0739	1457.4086	1486.901	1496.2031	1501.7902	1532.3603	2369.9073	2934.7309	2941.3774	3033.9758	3044.2324	3087.0968	3119.1885	3174.2994	3518.8755
N#CCNCC1CO1	N#CCNC[C@H]1CO1	
InChI=1S/C5H8N2O/c6-1-2-7-3-5-4-8-5/h5,7H,2-4H2	InChI=1S/C5H8N2O/c6-1-2-7-3-5-4-8-5/h5,7H,2-4H2/t5-/m0/s1
