21
gdb 120784	3.89581	0.77972	0.72288	1.4758	80.97	-0.2339	0.07	0.304	1614.1846	0.18288	-420.335259	-420.32592	-420.324976	-420.370441	34.447	
O	 0.601854272	 1.1230064344	-0.5216235975	-0.421698
C	 0.3670918617	-0.2418171861	-0.2513336807	-0.049199
C	-1.0777024795	-0.4757004047	 0.1916825224	-0.149055
N	-1.9572518269	 0.0548046032	-0.8512824817	-0.103561
C	-2.5912711924	-0.8762082647	-1.7796830897	-0.269621
C	-3.4046366849	-0.134346733	-0.7712222279	-0.008801
C	-4.0630602833	-0.8486643359	 0.3668609596	 0.011883
C	-4.8413432128	-0.0707759398	 1.3659288374	-0.246206
N	-5.532614537	-0.9413067558	 0.4005892764	-0.324502
H	-0.176103957	 1.4134789791	-1.0174453091	 0.284695
H	 0.5813095367	-0.8709675735	-1.1326528073	 0.0823
H	 1.0561646391	-0.5456119415	 0.5441804053	 0.103123
H	-1.239478237	-1.5446788314	 0.4017213634	 0.087329
H	-1.2675437152	 0.086778568	 1.11260476	 0.115491
H	-2.5983593959	-0.5858886307	-2.8268087768	 0.119959
H	-2.4456578653	-1.9417072232	-1.6035361899	 0.115743
H	-3.9690945324	 0.737253258	-1.1089706163	 0.08534
H	-3.572465148	-1.760972287	 0.6954581986	 0.095644
H	-4.8902589843	-0.4023127581	 2.3990748801	 0.123452
H	-4.897525042	 1.0069313046	 1.2322614933	 0.115667
H	-5.9300489757	-0.3794907818	-0.3498023295	 0.232018
46.0112	74.1118	116.3047	151.4483	199.1274	272.242	311.2547	369.8894	447.8001	484.2606	502.4992	607.9042	725.5864	786.9352	852.3845	886.6094	899.2582	918.0815	955.0381	961.463	966.2112	1034.1393	1075.4931	1090.8013	1100.5361	1121.259	1129.1512	1136.3623	1157.6268	1170.729	1221.5771	1246.9291	1252.3154	1274.0599	1294.8752	1328.631	1335.7713	1378.3096	1383.3698	1445.6607	1457.7318	1479.4683	1508.3623	1510.1839	1514.3269	2955.1941	2977.9375	3064.3557	3073.8698	3080.4048	3088.989	3107.1084	3142.6695	3178.5489	3193.7382	3485.2856	3744.6946
OCCN1CC1C1CN1	OCCN1C[C@H]1[C@H]1CN1	
InChI=1S/C6H12N2O/c9-2-1-8-4-6(8)5-3-7-5/h5-7,9H,1-4H2	InChI=1S/C6H12N2O/c9-2-1-8-4-6(8)5-3-7-5/h5-7,9H,1-4H2/t5-,6+,8?/m1/s1
