22
gdb 7835	4.00249	1.05715	0.93256	1.6057	79.16	-0.2566	0.0834	0.34	1351.1538	0.198082	-350.199869	-350.190059	-350.189115	-350.234985	35.589	
C	 0.006425629	 1.4128932652	 0.4805446735	-0.388938
C	 0.0012167489	-0.0033989059	-0.1117106597	 0.059414
C	-1.3995572352	-0.6224168865	-0.0257074367	-0.391842
C	 0.5123151585	-0.0377997877	-1.5676159147	-0.225306
C	 1.9544200959	 0.3864394619	-1.7139573774	 0.060916
O	 2.9511753185	-0.4646171905	-1.1263928039	-0.266891
C	 2.9622612568	-0.2943393134	-2.5480270741	 0.077044
C	 2.71514556	-1.5148251671	-3.3974114469	-0.419073
H	 1.0102011365	 1.8472875824	 0.5007968935	 0.11897
H	-0.6389495679	 2.083960753	-0.1000334555	 0.107447
H	-0.367511905	 1.4051586593	 1.5096134644	 0.111702
H	 0.6874427614	-0.6234915163	 0.4797754989	 0.092258
H	-2.1219078044	-0.0442120658	-0.6150029951	 0.109186
H	-1.4075186575	-1.6496271279	-0.4056651801	 0.109452
H	-1.7591555726	-0.644797177	 1.0082754113	 0.110237
H	 0.382446153	-1.0514545522	-1.9585117407	 0.095012
H	-0.1090151857	 0.623209445	-2.1890795398	 0.092775
H	 2.1354469055	 1.4464058134	-1.5222756881	 0.085834
H	 3.7901765172	 0.3265126626	-2.9000184826	 0.083067
H	 1.8897789843	-2.1189948297	-3.0165368007	 0.129121
H	 2.4910248258	-1.2236358939	-4.4295481291	 0.120509
H	 3.6109778672	-2.1445481689	-3.4156914265	 0.129106
37.0652	79.1056	128.6675	176.4331	217.0268	233.5948	255.7103	327.3842	359.7074	409.6563	418.3179	502.1542	524.1952	761.0536	817.917	825.9123	886.8373	928.6305	943.1052	953.4912	968.2959	1007.526	1057.922	1081.4518	1147.2511	1153.2672	1179.2102	1188.2991	1194.1745	1267.4561	1302.0889	1314.2378	1366.7356	1371.0463	1399.4016	1404.3652	1420.5732	1422.5743	1468.3003	1472.0725	1488.0516	1491.6839	1494.9469	1504.5039	1510.5073	1513.4161	3009.7267	3021.2679	3022.3204	3030.4216	3038.1693	3066.7338	3077.6974	3085.4683	3089.1861	3093.5178	3098.1803	3099.1235	3106.2748	3134.5062
CC(C)CC1OC1C	CC(C)C[C@H]1O[C@H]1C	
InChI=1S/C7H14O/c1-5(2)4-7-6(3)8-7/h5-7H,4H2,1-3H3	InChI=1S/C7H14O/c1-5(2)4-7-6(3)8-7/h5-7H,4H2,1-3H3/t6-,7+/m0/s1
