16
gdb 55247	4.08163	0.9632	0.91447	6.0333	65.52	-0.2628	0.0024	0.2652	1268.6375	0.125174	-475.104363	-475.095868	-475.094923	-475.138679	30.441	
N	-0.1017419869	 1.2639856945	 0.6680962162	-0.526903
C	-0.0072780994	 0.2115590629	-0.188973838	 0.40296
O	 0.9927626393	-0.0234425356	-0.8403721083	-0.363565
C	-1.2541205227	-0.6640643177	-0.2999426327	-0.124653
C	-1.7816323906	-0.7123482647	-1.7526220076	-0.089761
O	-2.3852262204	-2.0022112892	-1.9137247593	-0.216254
C	-1.930623251	-2.8770280235	-0.9722153601	 0.429714
O	-2.2750280466	-4.0205323447	-0.9389451734	-0.331064
C	-0.9613547335	-2.1488658933	-0.048118601	-0.368145
H	 0.707222278	 1.8507301731	 0.7950915272	 0.268346
H	-0.9112474518	 1.424860259	 1.2405661476	 0.264464
H	-2.0487112096	-0.3167266467	 0.3681460557	 0.079229
H	-2.5416738117	 0.0422056153	-1.963948231	 0.125634
H	-0.9524082034	-0.608981691	-2.4594894158	 0.143392
H	 0.0604384772	-2.3852165282	-0.3657790917	 0.166811
H	-1.089699937	-2.4798791204	 0.9825255321	 0.139797
33.5519	86.7898	174.9654	192.9798	220.3828	284.8258	356.2977	490.4189	531.7645	593.6948	622.6509	629.0782	695.8446	768.1129	837.4782	867.2254	919.7199	978.068	1054.0859	1063.0195	1079.5636	1102.6564	1170.712	1189.311	1246.5022	1268.8843	1294.9201	1318.671	1390.7433	1417.6738	1460.7979	1521.1938	1619.1267	1795.7719	1890.3949	3051.6475	3059.9267	3064.1299	3121.4609	3138.5622	3601.8219	3739.3995
NC(=O)C1COC(=O)C1	NC(=O)[C@H]1COC(=O)C1	
InChI=1S/C5H7NO3/c6-5(8)3-1-4(7)9-2-3/h3H,1-2H2,(H2,6,8)	InChI=1S/C5H7NO3/c6-5(8)3-1-4(7)9-2-3/h3H,1-2H2,(H2,6,8)/t3-/m1/s1
