19
gdb 47482	2.83822	1.4373	1.10624	2.3263	76.98	-0.2487	0.0204	0.2691	1126.3748	0.161843	-419.201389	-419.193514	-419.19257	-419.233938	30.776	
N	-0.1252819863	 1.3075445145	 0.1803402498	-0.501566
C	-0.0300825345	 0.0661819153	-0.0474065172	 0.381231
C	-1.2540612706	-0.8274241911	-0.0162216372	-0.348605
C	-1.1681703941	-1.970284312	-1.0083707778	 0.327487
C	-2.3993968731	-2.6406811027	-1.478741186	-0.306455
N	-1.6316470849	-1.7681717682	-2.3935164516	-0.352766
C	 0.1555705859	-2.6956017059	-0.8876167076	-0.2698
C	 1.2737970197	-1.6812994239	-1.0979273664	-0.076427
O	 1.1794526933	-0.5464071743	-0.2163911008	-0.258976
H	 0.8036496615	 1.7348637309	 0.1559947222	 0.21887
H	-1.3233559609	-1.2437373159	 0.9987153505	 0.131387
H	-2.1382196414	-0.2052391918	-0.1701490299	 0.124858
H	-2.3817727637	-3.6971155025	-1.7339056297	 0.118367
H	-3.3538634407	-2.2842206026	-1.0987439264	 0.114419
H	-2.0978126176	-0.8678955028	-2.4806981247	 0.234504
H	 0.2442908386	-3.1591685901	 0.1024543905	 0.1064
H	 0.235831813	-3.4812355387	-1.6441674274	 0.115101
H	 2.258546416	-2.1106809027	-0.9016259469	 0.117559
H	 1.2498711199	-1.3217747657	-2.1345629234	 0.124411
84.1032	113.7628	210.1746	283.2812	360.6313	377.3681	447.9849	456.5072	481.1027	565.2488	635.1085	741.5813	812.0684	846.6921	884.028	918.1421	927.3589	937.9956	963.8368	991.0039	1006.2884	1045.2371	1089.8717	1096.8089	1133.4293	1143.9555	1192.0065	1223.1923	1261.2771	1275.9941	1292.718	1321.5187	1345.8973	1373.4557	1419.6821	1430.4972	1458.0531	1474.5585	1508.4802	1517.1567	1748.4758	3016.8501	3028.725	3039.2164	3100.302	3102.9734	3109.2641	3109.4493	3187.2127	3456.6801	3493.5413
N=C1CC2(CN2)CCO1	[NH][C]1C[C@]2(CN2)CCO1	
InChI=1S/C6H10N2O/c7-5-3-6(4-8-6)1-2-9-5/h7-8H,1-4H2	InChI=1S/C6H10N2O/c7-5-3-6(4-8-6)1-2-9-5/h7-8H,1-4H2/t6-/m0/s1
