19
gdb 83483	2.84786	1.50235	1.44377	4.5526	73.68	-0.2562	0.019	0.2752	1013.238	0.162114	-423.087753	-423.08037	-423.079426	-423.119311	29.623	
C	-0.1493421633	 1.5454344312	-0.0094993224	-0.437056
C	 0.0531453289	 0.0346872622	 0.0307610564	 0.011447
C	 1.0749553723	-0.5715297161	-0.9511819073	 0.092781
C	 2.4306488354	-0.0141490167	-0.4813654224	-0.223538
C	 2.2511601065	-0.0089518385	 1.0683383842	-0.233731
C	 0.8047547179	-0.5669090784	 1.2454487591	-0.170366
C	 0.8883044393	-2.0181945098	 0.7870783411	 0.439988
O	 0.8599340085	-3.0394065974	 1.4078685714	-0.353171
O	 1.0531284013	-1.9764823018	-0.5753166465	-0.242492
H	 0.778340594	 2.1043586534	 0.1368291987	 0.124157
H	-0.5723063409	 1.8503611976	-0.9726965521	 0.124372
H	-0.8505062729	 1.8573421624	 0.7708102891	 0.128107
H	-0.9137993706	-0.4620480553	-0.1056741756	 0.093128
H	 0.8616057339	-0.5062009056	-2.0174691046	 0.088252
H	 3.2433558074	-0.6625024429	-0.8139921383	 0.122298
H	 2.6118800658	 0.9862172256	-0.8831112787	 0.108331
H	 2.986325694	-0.6303280471	 1.5838439669	 0.125995
H	 2.3248383417	 0.9978568265	 1.4856057508	 0.11094
H	 0.3738821508	-0.4553532693	 2.2382093501	 0.090559
148.8765	183.244	250.3032	267.0191	274.8841	417.9334	461.3923	529.6365	604.1661	688.1292	745.2005	777.9184	812.3132	855.4744	874.3862	896.6398	918.5991	953.794	981.0027	987.2578	1039.0688	1058.165	1079.0084	1123.1027	1139.6089	1175.1775	1194.2419	1215.7509	1253.3621	1273.1602	1296.1842	1327.8857	1340.4279	1346.2995	1399.3249	1415.7853	1479.8052	1496.6402	1504.3748	1511.213	1893.2146	3040.2997	3050.6006	3068.3211	3076.023	3101.696	3109.5329	3119.4541	3128.158	3130.4888	3145.1582
CC1C2CCC1C(=O)O2	C[C@H]1[C@H]2CC[C@@H]1C(=O)O2	
InChI=1S/C7H10O2/c1-4-5-2-3-6(4)9-7(5)8/h4-6H,2-3H2,1H3	InChI=1S/C7H10O2/c1-4-5-2-3-6(4)9-7(5)8/h4-6H,2-3H2,1H3/t4-,5+,6-/m1/s1
