19
gdb 42119	2.33574	1.72161	1.0811	0.7407	78.67	-0.2396	0.0372	0.2768	1125.4273	0.160664	-422.985561	-422.977238	-422.976294	-423.018245	31.7	
C	 0.13494728	 1.4950684877	-0.2048517369	-0.062489
C	 1.6822804311	 1.4429191341	-0.1982406461	-0.34196
C	 2.0866855763	 1.0167196906	 1.133669978	 0.068865
C	 2.016118604	 0.5660137912	 2.2476191675	 0.069033
C	 1.4497250412	-0.0249424744	 3.4514178305	-0.341974
C	 0.0543471316	-0.5765108706	 3.0697104264	-0.062489
O	-0.7505437518	 0.4574429535	 2.5155703171	-0.231579
C	-1.3059258927	 0.2215772292	 1.2475765543	 0.011297
O	-0.4031640677	 0.2331782804	 0.1720498116	-0.231574
H	-0.1962367668	 2.2781065262	 0.4861950647	 0.113718
H	-0.22204207	 1.7410658445	-1.2143786714	 0.097392
H	 2.0280541801	 0.7351315364	-0.96114925	 0.132097
H	 2.0740866928	 2.4289266855	-0.4762800212	 0.119838
H	 2.056671207	-0.8414482392	 3.8612518007	 0.119838
H	 1.342863697	 0.7233919182	 4.2458538226	 0.132097
H	 0.1807868797	-1.3943118725	 2.3516629941	 0.113718
H	-0.445958394	-0.9679842763	 3.9661159241	 0.097393
H	-1.7756598232	-0.7699725701	 1.2009654698	 0.098389
H	-2.0676000646	 1.0041433356	 1.1316638042	 0.098389
128.3885	146.0272	164.6538	244.0801	262.6346	335.8629	362.1579	372.2752	429.9576	533.7119	567.0774	597.4503	736.714	826.154	827.9054	902.3519	946.7183	973.2724	990.6759	1035.0086	1077.3693	1089.0824	1144.0622	1164.3895	1172.1818	1225.7758	1243.6771	1271.9431	1277.4163	1327.3079	1350.6043	1352.8583	1399.7792	1412.0257	1443.686	1469.2196	1471.0373	1490.4586	1498.6662	1500.0462	2359.9083	2998.9107	3005.2014	3009.428	3030.0691	3031.0374	3053.0784	3058.9095	3059.2173	3076.0218	3076.8885
C1CC#CCCOCO1	C1CC#CCCOCO1	
InChI=1S/C7H10O2/c1-2-4-6-9-7-8-5-3-1/h3-7H2	InChI=1S/C7H10O2/c1-2-4-6-9-7-8-5-3-1/h3-7H2
