18
gdb 39858	3.12601	1.8786	1.52614	2.1205	74.6	-0.2163	0.0611	0.2774	902.6829	0.152009	-398.025057	-398.01874	-398.017796	-398.055467	26.941	
C	 0.0060012314	 1.4547636865	-0.0272488393	-0.321236
N	 1.2178305778	 0.5939807899	 0.057111685	-0.404102
C	-0.114042956	-0.0074141854	-0.0133056557	 0.474784
C	-0.5782788097	-0.9380847441	 1.1101836353	-0.10721
N	 0.242702325	-2.164170531	 0.8808247233	-0.308633
C	-0.5338675973	-2.2968575897	-0.358837885	-0.029244
C	-1.758674555	-1.6549968777	 0.3230281109	-0.003655
N	-2.1149275694	-0.792314695	-0.8375591027	-0.331317
C	-0.6388873979	-0.8818640037	-1.1398323499	-0.17145
H	-0.2003534902	 2.029250317	 0.8715199766	 0.121012
H	-0.1975946587	 1.9808524157	-0.9562488872	 0.115785
H	 1.6679107636	 0.5578880201	-0.8552197896	 0.22831
H	-0.660151822	-0.5565446291	 2.1263615467	 0.076813
H	 1.233365268	-1.9489235864	 0.7616275533	 0.22026
H	-0.5156777903	-3.2287731483	-0.9249248624	 0.07553
H	-2.5319381396	-2.1787216993	 0.8806452732	 0.084832
H	-2.6110379717	-1.3894197478	-1.5009451621	 0.21491
H	-0.3063146782	-0.7030972618	-2.1623431804	 0.064612
161.1469	264.9265	306.6362	438.0521	464.9681	558.8868	602.3202	720.3712	760.2698	792.4367	828.6661	846.8042	859.9234	910.9981	918.494	930.3971	953.6461	968.7375	984.1662	996.0319	1027.6406	1049.4874	1068.2192	1083.8238	1111.5579	1130.8669	1148.4111	1161.6411	1191.1246	1217.1245	1243.1784	1264.0676	1279.3779	1301.5472	1329.2853	1338.2225	1355.5553	1444.1167	1522.5539	3108.7947	3109.0427	3121.6151	3135.1246	3148.8243	3192.7727	3441.9534	3447.3724	3483.1822
C1NC11C2NC3C2NC13	C1N[C@]21[C@@H]1N[C@H]3[C@@H]1N[C@@H]23	
InChI=1S/C6H9N3/c1-6(7-1)4-2-3(9-4)5(6)8-2/h2-5,7-9H,1H2	InChI=1S/C6H9N3/c1-6(7-1)4-2-3(9-4)5(6)8-2/h2-5,7-9H,1H2/t2-,3-,4+,5+/m0/s1
