18
gdb 37865	3.24242	2.20742	1.7891	1.4064	79.52	-0.2308	0.0029	0.2337	822.4141	0.151545	-364.736184	-364.730498	-364.729554	-364.765677	25.736	
C	-0.0694201459	 1.5621262138	-0.0112759814	-0.32771
C	 1.4497239999	 1.1957928948	-0.041904884	-0.055651
C	 1.2352059092	 0.2095372847	 1.1417706321	-0.015726
C	 1.7472917246	-1.2254775891	 0.915304662	-0.139252
C	 2.0520339697	-1.04203246	-0.6149789067	-0.169533
N	 1.1284794217	 0.04927834	-0.9737459021	-0.153173
C	 0.0309693169	 0.0434325992	 0.1906740156	 0.344613
C	-0.5806064621	-1.2723550667	 0.5024116073	-0.241726
C	 0.4387738874	-2.0188137166	 0.9725556134	-0.070875
H	-0.4201256271	 2.1424877814	 0.8442929238	 0.099099
H	-0.4865267746	 1.9116080479	-0.9565291769	 0.110609
H	 2.2913530507	 1.8617652268	-0.2444164147	 0.074697
H	 1.0591479303	 0.5520499688	 2.1637288947	 0.0698
H	 2.5680468379	-1.6067872575	 1.5226438539	 0.062368
H	 3.0882179202	-0.7327026251	-0.789917768	 0.101826
H	 1.8426329477	-1.9354926638	-1.2076468643	 0.10185
H	-1.5914503077	-1.5983003286	 0.2969618117	 0.108592
H	 0.3916332913	-3.0754873101	 1.2111658636	 0.100193
350.9959	373.2259	411.3104	456.0777	540.2814	623.1545	652.9443	726.3673	741.7796	783.4743	812.5585	851.7682	859.8545	870.2141	904.4547	917.2478	938.1557	965.502	976.8371	1015.6797	1036.4337	1061.5891	1068.5695	1099.7928	1129.3669	1131.6399	1176.5696	1193.7106	1204.8151	1206.9082	1221.0436	1259.8435	1290.9984	1295.2107	1327.19	1372.0054	1495.4194	1498.6668	1588.8891	3047.184	3073.3789	3085.6639	3096.4351	3105.4371	3115.4528	3147.9806	3192.6166	3225.6641
C1C2C3C4CN2C13C=C4	C1[C@H]2[C@@H]3[C@@H]4CN2[C@]13C=C4	
InChI=1S/C8H9N/c1-2-8-3-6-7(8)5(1)4-9(6)8/h1-2,5-7H,3-4H2	InChI=1S/C8H9N/c1-2-8-3-6-7(8)5(1)4-9(6)8/h1-2,5-7H,3-4H2/t5-,6-,7-,8+/m0/s1
