18
gdb 67279	3.09496	1.94848	1.75686	0.4013	73.41	-0.2198	0.0434	0.2632	868.3737	0.149584	-401.864743	-401.858257	-401.857312	-401.895176	27.236	
C	-0.0793135123	 1.5404819233	 0.0245242644	-0.532609
C	 0.007804589	 0.047045067	 0.0141883433	 0.351859
C	 0.7637378742	-0.8779156521	-0.9789151822	 0.025223
O	 1.6394302222	-1.3652012908	 0.0634946779	-0.292462
C	 0.6865604968	-0.8964223978	 1.044916799	 0.025223
C	-0.6213928992	-1.7604860128	 1.0084096942	-0.026056
C	-0.5057863763	-2.8850761947	-0.0322096353	-0.235448
C	-0.5425960421	-1.7415906324	-1.0579005995	-0.026056
N	-1.2443307654	-0.8257333256	-0.04154173	-0.21251
H	 0.9195539919	 1.9880811095	 0.0666582566	 0.127767
H	-0.5842813121	 1.9045939528	-0.8765214927	 0.12947
H	-0.651598327	 1.8884368745	 0.8910525507	 0.129469
H	 1.2979649657	-0.6001389061	-1.8887874782	 0.080611
H	 1.149754788	-0.635678154	 1.9977491854	 0.080611
H	-1.1545668968	-1.9066974984	 1.9494741257	 0.073871
H	 0.3787102258	-3.5233080302	-0.0043165448	 0.116298
H	-1.4174187909	-3.4845563493	-0.0724556707	 0.11087
H	-1.0024563815	-1.870221123	-2.0393470939	 0.073871
211.3779	231.7817	237.5221	367.0115	476.9032	525.6933	575.9554	702.4409	705.4932	794.7763	807.2439	820.2219	857.2024	875.5908	907.0059	917.0706	939.4334	963.3213	976.0123	982.6973	1032.3194	1081.6056	1100.1011	1151.8671	1153.2197	1175.102	1179.616	1182.9047	1243.7841	1244.1992	1276.3041	1286.5863	1298.1827	1334.9872	1368.1558	1411.8483	1465.834	1479.8916	1487.9978	3029.1324	3074.1746	3088.9998	3090.0415	3099.6931	3101.1985	3102.6412	3106.686	3137.9521
CC12C3OC1C1CC3N21	C[C@@]12[C@H]3O[C@@H]1[C@@H]1C[C@H]3N21	
InChI=1S/C7H9NO/c1-7-5-3-2-4(8(3)7)6(7)9-5/h3-6H,2H2,1H3	InChI=1S/C7H9NO/c1-7-5-3-2-4(8(3)7)6(7)9-5/h3-6H,2H2,1H3/t3-,4+,5+,6-,7-
