18
gdb 62102	2.33111	1.06487	0.93476	3.5703	71.77	-0.2359	0.0194	0.2553	1335.0923	0.148372	-472.441663	-472.43212	-472.431175	-472.476835	34.639	
N	-0.8575778558	 1.0238899557	 0.0535323549	-0.537898
C	-0.0088639595	-0.1732841987	-0.0615919816	-0.131084
C	-0.2583135399	-0.9964655985	-1.3377654331	-0.156215
N	-0.2192709193	-0.1155029495	-2.4886052534	-0.246867
C	 0.665261667	-0.347913833	-3.3739149725	 0.115196
N	 0.7750146149	 0.383956055	-4.5250934694	-0.500661
H	 0.2758286701	 1.2610943355	-4.5415141214	 0.256322
H	 1.6665811241	 0.3845095539	-4.9925877708	 0.261696
C	 1.4756741884	 0.2519112517	 0.0144116418	 0.443477
O	 2.3859896668	-0.477861119	-0.2841527268	-0.357404
O	 1.648576753	 1.4970504784	 0.465293633	-0.369651
H	-1.7297468796	 0.8136262144	 0.5248353311	 0.241273
H	 0.7304267279	 1.8405838423	 0.5769256297	 0.305155
H	-0.1787767498	-0.812032177	 0.8133696992	 0.109228
H	 0.4861291041	-1.8038617256	-1.3794780269	 0.114379
H	-1.254982686	-1.4523362323	-1.2673899273	 0.091228
H	-1.0813501134	 1.3327874977	-0.8911711483	 0.252292
H	 1.3786432269	-1.179350031	-3.3114774582	 0.109534
55.0256	66.3609	106.0253	175.248	226.7426	303.4374	333.6174	356.1461	375.4265	425.6636	512.1233	533.5576	575.5216	597.4833	611.8488	772.5516	817.4977	883.1205	912.2614	959.7464	984.1394	1013.2944	1063.7882	1114.1061	1162.6263	1195.0712	1227.766	1254.6417	1298.6033	1312.5218	1371.1466	1395.571	1418.2934	1444.7746	1488.5728	1628.6919	1647.435	1759.2977	1859.3574	2998.1089	3042.0562	3047.578	3048.8105	3408.4999	3477.4517	3580.5904	3581.2626	3704.4309
NC(CNC=[NH2+])C([O-])=O	N[C@@H](CN=CN)C(=O)O	
InChI=1S/C4H9N3O2/c5-2-7-1-3(6)4(8)9/h2-3H,1,6H2,(H2,5,7)(H,8,9)	InChI=1S/C4H9N3O2/c5-2-7-1-3(6)4(8)9/h2-3H,1,6H2,(H2,5,7)(H,8,9)/t3-/m0/s1
