20
gdb 87774	3.92415	1.04198	1.03641	1.1086	80.52	-0.2384	0.0779	0.3163	1281.439	0.169295	-403.092006	-403.083101	-403.082157	-403.125308	34.195	
C	-0.1272064854	 1.4974775521	-0.0929202418	-0.390995
C	-0.0468245979	-0.00004074	 0.0716865392	-0.071114
N	 1.2914734988	-0.6161854285	-0.1112639893	-0.39328
C	 0.6522458212	-0.6409703957	 1.2032490184	 0.357348
C	 1.3413593906	-0.0714176145	 2.4681678354	-0.371006
C	 0.9293921251	-1.3737376315	 3.1954810643	 0.420428
C	 1.6069543893	-2.0515536996	 4.3403580351	-0.499148
O	-0.5042522902	-1.4420787263	 3.111014153	-0.283614
C	 0.2666956286	-1.8874397941	 1.980280025	-0.158843
H	 0.7587538493	 1.9788543458	 0.3292973041	 0.1265
H	-0.1874915641	 1.7716621834	-1.1516057744	 0.119412
H	-1.013808824	 1.8951846381	 0.4123721341	 0.120291
H	-0.8963153901	-0.5517534597	-0.3305501046	 0.083327
H	 1.2075016792	-1.5235893941	-0.5653000647	 0.227313
H	 2.4198027505	 0.0288489596	 2.3224000402	 0.116287
H	 0.9305435078	 0.8453768415	 2.898102227	 0.107915
H	 1.5095292197	-1.456603194	 5.2555985835	 0.131843
H	 1.158253426	-3.0316470009	 4.5229400226	 0.133627
H	 2.6746058769	-2.1832405513	 4.1377408408	 0.126608
H	 0.0970440885	-2.8990302102	 1.6235181621	 0.0971
88.4642	139.7949	186.7505	192.6778	225.3409	285.2321	334.9681	412.2526	430.4604	450.1445	512.3876	558.9943	670.4475	772.3085	798.7029	850.905	861.3966	922.0428	945.3091	965.53	990.4083	1014.2751	1033.0038	1052.5359	1069.6882	1101.7514	1121.5724	1159.682	1201.5725	1213.0594	1240.3261	1245.2119	1274.1246	1356.1142	1402.6215	1411.1292	1450.2363	1466.1655	1478.7016	1484.7377	1491.4916	1495.436	1510.459	3034.0209	3034.5696	3063.3581	3096.6508	3097.7931	3103.2721	3120.664	3124.1923	3124.8984	3163.0334	3481.1317
CC1NC11CC2(C)OC12	C[C@H]1N[C@]21C[C@@]1(C)O[C@@H]21	
InChI=1S/C7H11NO/c1-4-7(8-4)3-6(2)5(7)9-6/h4-5,8H,3H2,1-2H3	InChI=1S/C7H11NO/c1-4-7(8-4)3-6(2)5(7)9-6/h4-5,8H,3H2,1-2H3/t4-,5-,6-,7+/m1/s1
