17
gdb 49824	2.59306	1.3391	0.99931	0.7133	75.21	-0.253	-0.0348	0.2182	1175.3723	0.133786	-421.830892	-421.822272	-421.821328	-421.865139	31.247	
O	 0.4121059499	-0.2321578923	-0.0957159	-0.255564
C	 0.2107753834	 0.9452506244	 0.0546301277	 0.167072
C	 1.2533786534	 2.0237554239	-0.0701479193	-0.18853
C	 0.7763880925	 3.2998174612	-0.8520111258	-0.384909
C	 0.9982233541	 4.1266099321	 0.4312993024	 0.357274
O	 0.8920554352	 5.2864105067	 0.7114079326	-0.305901
C	 1.4131670268	 2.9053154735	 1.1959899798	 0.208862
C	 1.0552486475	 2.6083723338	 2.6425255299	-0.313356
C	 2.4779205587	 2.8582798297	 2.2702704754	-0.304483
H	-0.8039643091	 1.3266513862	 0.321080421	 0.074728
H	 2.1849826436	 1.5888187051	-0.4357685001	 0.100911
H	 1.3971828532	 3.5869953146	-1.7035732777	 0.145335
H	-0.2698932288	 3.2764665887	-1.1749558568	 0.139226
H	 0.5116389523	 3.3851660963	 3.169309298	 0.142823
H	 0.7558272323	 1.5928719826	 2.8788141798	 0.138186
H	 3.1608088848	 2.0159725329	 2.2440406968	 0.135262
H	 2.9244873802	 3.8098467405	 2.5385028263	 0.143063
51.8085	61.7763	172.2225	186.0272	213.1576	289.3419	389.3112	438.1079	480.4947	522.8612	606.5063	725.3554	786.9916	801.2891	848.0253	873.3442	939.5437	958.1278	1011.9667	1037.6012	1054.1707	1067.3826	1076.6574	1095.1434	1157.6986	1194.2917	1200.4293	1227.3402	1243.8469	1292.6398	1346.9667	1429.2595	1433.9788	1456.8021	1487.1042	1829.7172	1885.4477	2848.3049	3056.8883	3102.9644	3122.8946	3134.0343	3135.5492	3218.6907	3233.1224
O=CC1CC(=O)C11CC1	O=C[C@H]1CC(=O)C21CC2	
InChI=1S/C7H8O2/c8-4-5-3-6(9)7(5)1-2-7/h4-5H,1-3H2	InChI=1S/C7H8O2/c8-4-5-3-6(9)7(5)1-2-7/h4-5H,1-3H2/t5-/m1/s1
