20
gdb 26166	2.52618	1.36885	1.08604	3.084	82.83	-0.208	0.0351	0.2432	1214.7638	0.171374	-399.361772	-399.352251	-399.351307	-399.396579	34.681	
C	 0.2578316453	 1.022506778	-0.5555308258	-0.32079
N	 0.0508063612	-0.12490844	 0.3270215176	-0.174171
C	 0.499871058	 0.1496868926	 1.6912934034	-0.320742
C	-1.2688361	-0.6302646332	 0.2728415704	 0.230859
C	-1.6319777914	-1.8778464259	-0.1750046002	 0.238893
C	-0.8163443765	-3.0049008144	-0.7034924418	-0.510504
N	-3.0062933351	-1.908384497	-0.0378824891	-0.303258
C	-3.3986819841	-0.7044669783	 0.4745708882	-0.000627
N	-2.3786379573	 0.0914596966	 0.6750357765	-0.293673
H	 1.3222660075	 1.2813744848	-0.5682683434	 0.106848
H	-0.044329745	 0.7592464426	-1.572878194	 0.114141
H	-0.3132112242	 1.9127761105	-0.2453073931	 0.113053
H	-0.053211389	 0.9749713695	 2.1686538412	 0.113112
H	 0.3734046971	-0.7469296727	 2.3042279948	 0.114157
H	 1.5640366889	 0.4095175744	 1.6761585783	 0.10683
H	-0.9115019538	-3.9119698713	-0.09379171	 0.12382
H	-1.0871702948	-3.2706029131	-1.7328768825	 0.123857
H	 0.2316202205	-2.6973289382	-0.6954920331	 0.153257
H	-3.6065298532	-2.6806335744	-0.2741928787	 0.260877
H	-4.4354228641	-0.4771133804	 0.6757274615	 0.12406
29.7659	156.9303	158.8951	172.2055	229.3311	236.4525	237.3655	285.5478	373.9193	448.4416	508.4841	511.7467	613.4191	670.0272	709.2979	774.0606	801.8635	934.3787	974.8148	983.9943	1059.1807	1069.7309	1108.0536	1115.2859	1141.1048	1185.7023	1211.3118	1227.1821	1261.3284	1343.4974	1371.2842	1413.1953	1435.7626	1446.9772	1473.3561	1477.1921	1488.0338	1489.6074	1494.9102	1501.0063	1513.2356	1539.0359	1646.7142	2972.1	2977.9854	3017.6235	3059.8229	3061.4035	3062.8487	3106.1146	3109.0693	3129.8524	3241.9757	3662.011
CN(C)C1=C(C)NC=N1	CN(C)c1c(C)[nH]cn1	
InChI=1S/C6H11N3/c1-5-6(9(2)3)8-4-7-5/h4H,1-3H3,(H,7,8)	InChI=1S/C6H11N3/c1-5-6(9(2)3)8-4-7-5/h4H,1-3H3,(H,7,8)
