18
gdb 13268	7.18743	0.77965	0.75947	1.7964	78.52	-0.2417	0.0299	0.2717	1556.9676	0.152884	-347.759181	-347.750214	-347.74927	-347.796155	30.563	
C	-0.6592171439	 1.5444747365	-0.1880480162	-0.364726
C	 0.2771552691	 0.3774580116	 0.1745540663	-0.31573
C	 0.9922708012	-0.166107717	-0.9746632185	 0.080781
C	 1.5667382595	-0.6033270923	-1.9398798773	 0.071775
C	 2.2719767576	-1.1285711128	-3.0942542631	-0.027267
C	 3.6948765318	-1.7159311545	-2.8755239408	-0.283406
C	 3.1031496383	-3.0015231638	-3.4817484911	-0.058244
O	 1.7832174205	-2.4218822811	-3.5476882287	-0.280168
H	-0.096285696	 2.3721395662	-0.6279736742	 0.127572
H	-1.4124754329	 1.2259653178	-0.9134733247	 0.131523
H	-1.1729256168	 1.912746737	 0.7049741213	 0.114502
H	 1.0024862397	 0.7079703135	 0.9293835429	 0.129409
H	-0.3019827869	-0.4257393607	 0.6481256316	 0.13393
H	 2.2302827708	-0.4015313988	-3.9173025016	 0.097632
H	 4.4940559855	-1.2319344187	-3.4379159669	 0.112915
H	 3.9777974425	-1.7928849472	-1.8258465496	 0.121544
H	 3.4823863783	-3.264965276	-4.477390491	 0.10024
H	 3.1256127915	-3.8942832398	-2.8464436085	 0.107717
5.0338	56.0923	98.0037	117.9283	197.8464	225.0766	337.6771	466.7084	484.4205	529.1025	684.1637	782.9266	788.479	831.6126	903.5941	944.0994	974.2532	1009.1737	1032.9279	1079.8915	1088.5133	1102.9159	1164.1816	1185.0085	1214.5436	1256.0623	1262.6823	1285.5684	1348.928	1353.0861	1369.6011	1408.7716	1471.0988	1487.9461	1494.7798	1505.1157	1531.7904	2359.2187	2999.0864	3016.1843	3019.969	3044.8404	3047.4281	3058.7461	3089.8366	3118.1642	3125.0731	3149.9803
CCC#CC1CCO1	CCC#C[C@H]1CCO1	
InChI=1S/C7H10O/c1-2-3-4-7-5-6-8-7/h7H,2,5-6H2,1H3	InChI=1S/C7H10O/c1-2-3-4-7-5-6-8-7/h7H,2,5-6H2,1H3/t7-/m0/s1
