22
gdb 87978	3.53956	1.01387	0.92749	2.4868	82.83	-0.2215	0.0718	0.2933	1360.6866	0.19432	-404.328726	-404.319563	-404.318619	-404.36284	35.411	
C	-0.0836397092	 1.4265178831	-0.2290290565	-0.315112
N	 0.0803877039	 0.0009431365	-0.0020432484	-0.11839
C	 1.4369828678	-0.5319628975	-0.0514873108	-0.309733
C	 0.6920594798	-0.4769003915	 1.2403571473	 0.359435
C	 1.1545547566	 0.4470479974	 2.3888602227	-0.301218
C	 0.5698392959	-0.1952818829	 3.6601302507	-0.243536
C	 0.5271730403	-1.6974644179	 3.3288999283	 0.132895
O	-0.3572812596	-2.4589363035	 4.1316811114	-0.436257
C	 0.0524922356	-1.7147562124	 1.8736998851	-0.276232
H	 0.7641146409	 2.0453406674	 0.1087726377	 0.098225
H	-0.2134209297	 1.596999478	-1.3027410755	 0.122679
H	-0.9879302176	 1.7788755005	 0.2788563927	 0.119985
H	 1.5643007394	-1.4744511017	-0.5805295768	 0.107978
H	 2.2562576085	 0.1762554906	-0.1846091084	 0.097449
H	 2.2486286499	 0.4681120686	 2.4388403374	 0.10459
H	 0.8262270674	 1.4816072351	 2.2600104978	 0.10577
H	 1.1464692115	 0.0352333431	 4.5616970637	 0.085406
H	-0.460851227	 0.1391541875	 3.8273229171	 0.107174
H	 1.5491441155	-2.1089122078	 3.3878597905	 0.062182
H	-0.0234498583	-2.4504745282	 5.0341206719	 0.279868
H	-1.0387343349	-1.6121774282	 1.8677783497	 0.116356
H	 0.2996690034	-2.6413525662	 1.3502845422	 0.100486
37.3235	138.9992	204.0414	221.8062	240.8562	281.5816	310.3957	402.8352	426.2399	447.3511	474.9061	509.8187	560.2907	728.2745	746.5862	833.4651	888.0316	907.5627	920.9601	951.9491	996.066	1027.9531	1050.442	1067.2968	1098.5502	1116.1664	1135.1431	1149.7318	1183.846	1203.8582	1206.9302	1211.4272	1245.5092	1276.2852	1292.6073	1313.5691	1318.9757	1371.9971	1401.9884	1435.3658	1448.2878	1482.656	1486.4354	1492.2503	1500.6162	1505.9678	1512.4778	2954.2029	2964.537	3036.4857	3042.3586	3048.6779	3060.6607	3069.9179	3082.9946	3095.6968	3097.5225	3103.0179	3155.9704	3819.0588
CN1CC11CCC(O)C1	CN1C[C@]21CC[C@@H](O)C2	
InChI=1S/C7H13NO/c1-8-5-7(8)3-2-6(9)4-7/h6,9H,2-5H2,1H3	InChI=1S/C7H13NO/c1-8-5-7(8)3-2-6(9)4-7/h6,9H,2-5H2,1H3/t6-,7+,8?/m1/s1
