17
gdb 45492	3.0258	1.76612	1.5646	4.0198	70.68	-0.2411	0.0091	0.2501	900.4753	0.140248	-418.029376	-418.022954	-418.02201	-418.060043	26.517	
O	 0.0471488165	-0.0477620551	-0.0246072076	-0.376856
C	 0.0223470701	 1.1622381845	-0.0416537726	 0.399454
N	-1.1066092084	 1.9541035262	-0.0317906687	-0.304208
C	-0.8279449497	 3.3774996377	 0.1619014291	-0.041066
C	-0.8257115096	 3.7318008585	 1.6613827762	-0.211455
C	 0.4651934308	 3.0352024582	 2.1496732367	-0.170624
N	 1.4091268517	 3.0788056406	 1.001176867	-0.107535
C	 0.6681610069	 3.4851687123	-0.1917582769	-0.052705
C	 1.2049753395	 2.1046185242	-0.1038836585	-0.144807
H	-1.9773810785	 1.5425990224	 0.2726489001	 0.247208
H	-1.4836973698	 3.9996325597	-0.4507278612	 0.089081
H	-0.7457167928	 4.8174901029	 1.7849731708	 0.111486
H	-1.7270857693	 3.3974274244	 2.1835465865	 0.103502
H	 0.9267851271	 3.5594906905	 2.9896940651	 0.116481
H	 0.2807765999	 2.0036129508	 2.4657449144	 0.125983
H	 1.0570723737	 4.2770660005	-0.8219040097	 0.102047
H	 2.110915012	 1.749849822	-0.5812415508	 0.114013
133.2868	211.7893	385.07	396.6535	467.2966	533.1586	597.891	632.9511	689.4389	732.6385	774.0414	837.8744	852.3725	867.8498	888.3348	919.7218	932.4782	965.5662	1011.5118	1018.9479	1054.4797	1092.73	1118.282	1181.8758	1206.838	1240.3207	1257.4617	1274.506	1289.2451	1315.8346	1334.2199	1361.3995	1377.4619	1423.4591	1483.6974	1514.9198	1828.9537	3045.759	3056.0603	3089.9492	3092.7784	3106.3238	3171.4731	3187.239	3607.5285
O=C1NC2CCN3C2C13	O=C1N[C@H]2CCN3[C@H]2[C@H]13	
InChI=1S/C6H8N2O/c9-6-5-4-3(7-6)1-2-8(4)5/h3-5H,1-2H2,(H,7,9)	InChI=1S/C6H8N2O/c9-6-5-4-3(7-6)1-2-8(4)5/h3-5H,1-2H2,(H,7,9)/t3-,4+,5+,8?/m0/s1
