22
gdb 77909	2.04985	1.5269	1.39034	1.8117	82.66	-0.2195	0.0613	0.2808	1139.5115	0.192755	-404.307475	-404.297545	-404.2966	-404.34131	37.764	
C	-0.0859117592	 1.4778369645	-0.2684591455	-0.438034
C	 0.0487453084	-0.0214411403	-0.0866996644	-0.01503
N	 1.1948065514	-0.8953990674	-0.4321921469	-0.213888
C	 2.4974627816	-0.2663807426	-0.0027538224	 0.044125
C	 3.0538996139	 0.9089258195	-0.7900130984	-0.418966
C	 2.0036946064	-0.1218506876	 1.4703581578	 0.000214
O	 1.8654462754	 1.1552541886	 2.0655428828	-0.423857
C	 0.6922391807	-0.761822712	 1.0211371767	 0.321284
C	 0.0329314044	-1.8866428578	 1.7669713944	-0.497919
H	 0.6434685876	 2.0449531981	 0.3047650861	 0.151961
H	-0.0127586883	 1.7467577572	-1.3279755609	 0.116322
H	-1.0813322281	 1.7795226277	 0.0764124996	 0.114251
H	-0.8479361004	-0.5376144364	-0.4320128301	 0.090237
H	 3.2303278308	-1.0793980766	-0.0460821759	 0.078646
H	 2.4890735408	 1.8301698013	-0.6513270932	 0.126997
H	 4.0906714909	 1.102036236	-0.4910994643	 0.107142
H	 3.0584190802	 0.6667748329	-1.8580248671	 0.127794
H	 2.5593407257	-0.7901291406	 2.1410350907	 0.073148
H	 2.7306352324	 1.4338326285	 2.3822810906	 0.285233
H	-0.4610641629	-1.5116558077	 2.6713255829	 0.125794
H	-0.7230838389	-2.3756662661	 1.1463516156	 0.12742
H	 0.7616703872	-2.6454901492	 2.0731632419	 0.117125
133.4259	161.2328	170.9995	184.926	217.0853	248.0722	249.4924	272.117	308.7485	336.487	357.9834	492.6898	560.9441	598.11	658.9973	718.6641	741.3547	815.076	829.9123	919.705	934.3459	1011.0019	1032.0633	1062.465	1087.8768	1123.5549	1136.0305	1138.9774	1158.0102	1193.131	1212.6274	1259.2537	1291.4794	1331.8399	1358.1429	1386.7878	1406.3476	1411.0702	1411.9414	1435.0431	1474.7518	1484.0004	1488.8458	1492.559	1496.4753	1508.7812	1526.8387	3007.7178	3025.8189	3034.6504	3036.4964	3044.4883	3085.2343	3087.3566	3094.5967	3096.3967	3112.0379	3157.5282	3181.5667	3815.5505
CC1N2C(C)C(O)C12C	C[C@H]1N2[C@@H](C)[C@@H](O)[C@@]12C	
InChI=1S/C7H13NO/c1-4-6(9)7(3)5(2)8(4)7/h4-6,9H,1-3H3	InChI=1S/C7H13NO/c1-4-6(9)7(3)5(2)8(4)7/h4-6,9H,1-3H3/t4-,5+,6+,7+,8?/m0/s1
