17
gdb 85598	2.70775	1.39178	0.98377	1.9601	68.55	-0.2542	-0.0467	0.2075	1154.9494	0.135801	-459.014091	-459.005868	-459.004924	-459.047282	30.876	
O	 0.0070202911	 1.4061878722	 0.0979108318	-0.435485
C	 0.0240790377	 0.0121039915	 0.0083510337	 0.040237
C	-1.4094933543	-0.5688456563	 0.0278484597	-0.31849
C	-1.4224008985	-2.0727042118	-0.2208461757	 0.371174
O	-1.9878876292	-2.8513740504	 0.507423242	-0.292224
C	-0.6679866069	-2.5212211953	-1.4708534319	-0.305539
C	 0.7626233186	-1.9332566961	-1.5216150981	-0.315165
C	 0.7479322689	-0.4420250474	-1.2591077096	 0.362098
O	 1.2514266663	 0.3812426309	-1.991576417	-0.321249
H	 0.5176621781	 1.7174727918	-0.6677873002	 0.293924
H	 0.5775496277	-0.4183423129	 0.8622030005	 0.104026
H	-1.8993709687	-0.3500909651	 0.9779658298	 0.138923
H	-1.9775054961	-0.0755448955	-0.7721543161	 0.131412
H	-0.650810189	-3.6121126028	-1.5014367155	 0.134436
H	-1.2295683447	-2.1680739515	-2.3460781396	 0.134607
H	 1.3740575906	-2.4070026611	-0.7423680506	 0.139662
H	 1.2419405586	-2.1212384203	-2.4843827332	 0.137654
76.5415	105.8574	135.94	302.8911	332.7736	373.4667	392.3336	423.8962	453.1444	518.3786	593.5364	608.6285	724.5907	738.3869	803.6424	860.0069	903.4397	978.7534	1024.4647	1063.6531	1080.534	1123.7891	1152.6664	1205.779	1213.0176	1243.4995	1276.0947	1299.6114	1313.271	1350.3441	1366.3741	1438.4533	1466.515	1472.5266	1479.4734	1807.1886	1825.4833	2947.497	3026.4542	3032.8612	3037.9956	3116.5154	3120.2446	3126.3994	3672.6727
OC1CC(=O)CCC1=O	O[C@H]1CC(=O)CCC1=O	
InChI=1S/C6H8O3/c7-4-1-2-5(8)6(9)3-4/h6,9H,1-3H2	InChI=1S/C6H8O3/c7-4-1-2-5(8)6(9)3-4/h6,9H,1-3H2/t6-/m0/s1
