17
gdb 102001	2.4097	1.3394	0.92368	1.5482	80.08	-0.2522	-0.0669	0.1853	1243.8177	0.136078	-414.206023	-414.196511	-414.195567	-414.241265	33.413	
C	-0.0222357965	 1.578869988	 0.0076648851	-0.383941
C	-0.0243437986	 0.0505497391	 0.0397785647	-0.167366
N	-1.3793420592	-0.5238402813	 0.0187490045	-0.109391
C	-1.9985876887	-0.7424822591	-1.2108990469	 0.094377
N	-1.4051275049	-0.4531426864	-2.2978602842	-0.474252
C	-2.0776242078	-0.8052265146	 1.1800720362	 0.330566
N	-3.2741906678	-1.2586569214	 1.1864241541	-0.515954
C	-1.3613626689	-0.5524674716	 2.4211293959	 0.220619
N	-0.8759645313	-0.3775816921	 3.4562922224	-0.329822
H	 1.0087311008	 1.9453624601	 0.0084222741	 0.126998
H	-0.5153236966	 1.9425777657	-0.8966115989	 0.147302
H	-0.5295532935	 1.9972186254	 0.8822996718	 0.126713
H	 0.4865494245	-0.3453616186	-0.8387827125	 0.151407
H	 0.4883979179	-0.321912121	 0.9291420106	 0.139498
H	-2.9944288721	-1.1700807485	-1.1009754921	 0.156893
H	-1.9970715841	-0.6922257405	-3.0908885724	 0.235976
H	-3.6049694433	-1.4116704533	 2.1350974977	 0.250377
42.5469	65.3166	136.5926	165.4743	210.7986	226.5724	291.2033	325.1376	381.1877	431.3683	495.4456	523.3695	660.7017	722.7074	744.0601	793.6005	814.1569	831.4104	953.6696	997.6896	1081.3379	1098.8191	1109.3073	1163.5007	1217.6429	1328.9574	1344.	1390.4712	1403.6719	1414.8055	1458.5375	1482.1023	1493.2086	1503.4819	1663.0313	1709.6021	2345.0628	3045.9296	3082.7881	3112.779	3129.2869	3144.4475	3145.781	3510.6333	3539.2486
CCN(C=N)C(=N)C#N	CCN(C=N)C(=N)C#N	
InChI=1S/C5H8N4/c1-2-9(4-7)5(8)3-6/h4,7-8H,2H2,1H3	InChI=1S/C5H8N4/c1-2-9(4-7)5(8)3-6/h4,7-8H,2H2,1H3
