14
gdb 26812	3.76643	1.12069	0.86526	1.4049	80.05	-0.1801	-0.0094	0.1707	1249.0194	0.09923	-436.673395	-436.664365	-436.663421	-436.707571	32.382	
N	 0.0387847138	 1.5138377225	-0.1094662532	-0.622232
C	 0.0642737729	 0.1061915418	-0.0365764954	 0.159809
C	-0.9969370975	-0.7539415725	-0.050238342	 0.329599
O	-2.3168324171	-0.4930591795	-0.0674664064	-0.440397
O	-0.6077463383	-2.0447317773	-0.0602954888	-0.223606
C	 0.7799884327	-2.0380489175	-0.0339503628	 0.210378
C	 1.2151212475	-0.7399948439	-0.0259010092	-0.359785
C	 1.439512192	-3.2720967825	-0.0275479238	 0.261489
C	 2.0163146349	-4.3315219151	-0.0212224102	-0.42718
H	 0.5805487347	 1.9423726556	 0.6328847027	 0.244689
H	-0.9095679009	 1.8654833352	-0.0515086777	 0.248634
H	-2.7912941687	-1.3210533505	-0.2056386189	 0.312137
H	 2.2468249255	-0.4247907882	-0.0203435799	 0.116665
H	 2.5259682086	-5.2626403082	-0.0170829744	 0.1898
47.8251	124.4073	140.9975	159.5568	254.6145	264.0114	323.1448	417.2608	448.1213	484.0247	532.4887	588.3012	647.0821	658.2248	665.0428	695.7936	795.6861	821.5619	842.9876	971.0144	1086.7462	1139.2274	1177.2419	1230.978	1329.0957	1358.1339	1475.9686	1577.3687	1651.8787	1726.7937	2220.2139	3260.2557	3504.5406	3514.1673	3602.8045	3819.53
NC1=C(O)OC(=C1)C#C	Nc1c(O)oc(c1)C#C	
InChI=1S/C6H5NO2/c1-2-4-3-5(7)6(8)9-4/h1,3,8H,7H2	InChI=1S/C6H5NO2/c1-2-4-3-5(7)6(8)9-4/h1,3,8H,7H2
