23
gdb 59959	2.78171	0.83735	0.77055	2.7065	83.22	-0.2631	-0.0245	0.2386	1630.7794	0.202016	-425.460345	-425.449076	-425.448132	-425.497602	40.461	
C	-0.0106756649	 1.5456483792	 0.3090047823	-0.390514
C	-0.0454477825	 0.0449921465	-0.0101844425	 0.050911
C	-1.4919380118	-0.450881798	-0.1373269391	-0.394809
C	 0.7463555272	-0.3024938402	-1.2845222357	-0.203751
C	 2.2598846686	-0.0290715962	-1.1698678582	 0.024301
O	 2.8012183891	-0.6718154939	-0.0466321713	-0.436255
C	 3.0071099914	-0.479790266	-2.4271093972	 0.36896
C	 2.6262343094	 0.1235225077	-3.7591986345	-0.479931
O	 3.8854689475	-1.310992154	-2.3201721362	-0.322448
H	 1.007550185	 1.9055019854	 0.4840333442	 0.12209
H	-0.4423901979	 2.1343550492	-0.510369516	 0.104453
H	-0.5916927543	 1.7626043512	 1.2111970541	 0.11314
H	 0.4325640232	-0.4919442514	 0.8169374895	 0.10199
H	-2.0115521155	 0.0515865846	-0.9626785044	 0.107228
H	-1.5307352071	-1.5288156701	-0.3268674471	 0.110817
H	-2.0578516777	-0.2514620002	 0.7785425695	 0.111827
H	 0.6112402578	-1.3687555879	-1.5074912465	 0.098721
H	 0.3367326755	 0.2607216242	-2.1339252079	 0.089145
H	 2.4174851489	 1.0607616974	-1.0885466118	 0.086934
H	 3.4956579112	-1.2522272796	-0.4008209532	 0.291243
H	 1.7127779386	-0.3566520456	-4.128706618	 0.156837
H	 2.4158098671	 1.1932057341	-3.6696667123	 0.139845
H	 3.4255168312	-0.0472654563	-4.4815854077	 0.149267
38.3077	62.6192	103.8093	114.2114	131.2542	222.5399	238.3574	253.7096	319.9012	332.9832	393.9343	410.4591	425.9951	463.6486	488.2496	588.0184	636.0396	803.1525	829.2972	876.6934	931.119	949.006	966.2426	975.0694	992.2204	1032.8794	1117.1828	1140.5365	1165.0254	1193.3731	1212.7006	1255.7267	1271.8514	1310.3829	1361.2457	1371.8518	1381.4887	1387.3966	1401.234	1420.5667	1438.5511	1463.2304	1470.6992	1476.5612	1488.9712	1496.147	1506.2332	1511.9492	1791.8259	2951.1156	3010.8778	3021.0537	3025.3408	3041.872	3044.8793	3060.3094	3085.7105	3094.3381	3099.2493	3105.756	3106.8591	3152.2133	3660.7893
CC(C)CC(O)C(C)=O	CC(C)C[C@@H](O)C(=O)C	
InChI=1S/C7H14O2/c1-5(2)4-7(9)6(3)8/h5,7,9H,4H2,1-3H3	InChI=1S/C7H14O2/c1-5(2)4-7(9)6(3)8/h5,7,9H,4H2,1-3H3/t7-/m1/s1
