21
gdb 85043	2.37433	1.41888	1.03545	2.3117	77.87	-0.2354	-0.0152	0.2202	1214.2465	0.181403	-424.264615	-424.255072	-424.254128	-424.298601	36.249	
C	 0.5227128277	 1.7101548328	-0.1184867225	-0.396411
C	 0.1059579111	 0.2364688528	-0.0315534867	-0.037002
C	 0.626004769	-0.5970921419	-1.229455795	 0.117135
O	 0.4597351606	 0.12144891	-2.4377839383	-0.433632
C	 2.0844768391	-0.9272466604	-0.8661980797	-0.366726
C	 2.1033615271	-0.9568587069	 0.6655531162	 0.403929
O	 3.0391437514	-1.2671533993	 1.3570904808	-0.322047
C	 0.7219011348	-0.5169263702	 1.1722945537	-0.086948
C	 0.7558015538	 0.168980015	 2.5347086515	-0.415178
H	 1.6104201653	 1.8373230065	-0.0770401996	 0.11436
H	 0.1745683012	 2.1445378746	-1.0572319446	 0.138366
H	 0.0934860831	 2.2832034579	 0.7079102092	 0.11583
H	-0.9873574827	 0.189195011	-0.0009568889	 0.07658
H	 0.0468750034	-1.534076519	-1.2655674142	 0.069321
H	 0.7729299798	-0.4294864198	-3.1615251618	 0.285617
H	 2.4687087174	-1.8607260522	-1.2868084185	 0.120243
H	 2.7448192793	-0.1191902328	-1.203738552	 0.140394
H	 0.1673605897	-1.4649204536	 1.2772693191	 0.101684
H	 1.2891679536	 1.1224279911	 2.4907873942	 0.125507
H	-0.2545259097	 0.359890971	 2.9087502545	 0.112028
H	 1.2795369152	-0.4666610467	 3.2530678026	 0.13695
71.8347	128.6605	192.8442	221.8148	246.7446	258.9974	267.8213	296.0922	341.5675	431.0762	480.4118	502.4199	549.0316	593.0646	675.9734	725.3694	796.811	853.1177	918.4245	965.5411	1001.0975	1015.1251	1042.4883	1061.9402	1108.0551	1134.4302	1157.61	1172.3923	1186.6707	1234.3958	1256.0436	1265.0162	1305.8369	1346.5374	1368.9331	1385.3283	1405.1797	1411.4265	1429.6627	1453.518	1492.1512	1493.5401	1502.3639	1510.8253	1841.9755	2961.0439	2970.1946	3039.0655	3046.5615	3047.9906	3052.8071	3098.9328	3105.6438	3115.9998	3125.6178	3136.8559	3825.6744
CC1C(O)CC(=O)C1C	C[C@H]1[C@@H](O)CC(=O)[C@H]1C	
InChI=1S/C7H12O2/c1-4-5(2)7(9)3-6(4)8/h4-6,8H,3H2,1-2H3	InChI=1S/C7H12O2/c1-4-5(2)7(9)3-6(4)8/h4-6,8H,3H2,1-2H3/t4-,5+,6+/m1/s1
