23
gdb 109166	2.76226	1.11027	0.94054	1.41	88.13	-0.2393	0.0188	0.2582	1394.5749	0.205457	-388.315178	-388.30515	-388.304206	-388.350171	37.613	
C	-0.2274958624	 1.5374818056	-0.0387816379	-0.373
C	 0.0841891254	 0.0315705308	 0.0230454102	-0.293751
C	 0.7939877994	-0.4776758775	-1.1971985623	 0.300188
C	 2.0452183847	-0.9399952416	-1.2848272396	-0.180474
C	 2.411464272	-1.4030821629	-2.672708563	-0.2752
C	 1.235882586	-0.8795208344	-3.5387070174	 0.002323
C	 0.8688842416	-1.750666947	-4.7370325618	-0.393159
C	 0.0775504584	-0.6400165252	-2.527350339	 0.029293
O	-0.8867834193	-1.6967668846	-2.4531868171	-0.431085
H	 0.6925552194	 2.1245219485	-0.1227043248	 0.117346
H	-0.85864753	 1.7797626707	-0.8994648382	 0.122267
H	-0.75697648	 1.861213459	 0.8625497062	 0.113255
H	 0.6862690541	-0.1801689252	 0.9139480188	 0.096867
H	-0.8578805301	-0.5205359258	 0.1364509746	 0.111727
H	 2.7351567814	-1.0025015993	-0.4480248102	 0.086466
H	 3.3777184166	-1.0104105701	-3.0106192588	 0.103762
H	 2.5016255926	-2.4988950846	-2.7161325249	 0.098599
H	 1.5262082935	 0.1143398188	-3.9016826718	 0.076903
H	 0.5335538001	-2.7419488936	-4.4181889641	 0.110502
H	 0.056100406	-1.3046497184	-5.3188300648	 0.116097
H	 1.7292239811	-1.8800000593	-5.4020927874	 0.106734
H	-0.5181416532	 0.2326531238	-2.8150685298	 0.079499
H	-0.4557840274	-2.4469449178	-2.0281668371	 0.274839
64.356	72.2994	158.4866	188.0573	208.4681	247.1945	272.6448	274.3378	348.6893	359.1258	419.7611	483.9106	590.6712	659.7905	683.7083	795.0119	820.0918	842.328	884.2199	907.7861	940.8142	965.7672	993.9331	1004.8683	1063.4557	1070.8811	1094.4551	1117.5754	1153.3128	1169.7411	1210.8987	1242.6355	1268.2439	1286.7188	1306.6066	1332.1762	1353.302	1355.2112	1373.2076	1409.0315	1411.6179	1428.2026	1479.2191	1490.6355	1491.6172	1495.751	1499.0794	1506.1959	1712.0222	2997.3013	3020.7256	3021.6811	3035.4217	3036.748	3049.4434	3056.9845	3062.4132	3101.3636	3107.8161	3109.1993	3110.1931	3171.124	3796.5251
CCC1=CCC(C)C1O	CCC1=CC[C@@H](C)[C@H]1O	
InChI=1S/C8H14O/c1-3-7-5-4-6(2)8(7)9/h5-6,8-9H,3-4H2,1-2H3	InChI=1S/C8H14O/c1-3-7-5-4-6(2)8(7)9/h5-6,8-9H,3-4H2,1-2H3/t6-,8-/m1/s1
