18
gdb 96624	2.74859	1.26091	0.89008	1.9318	77.73	-0.2351	-0.032	0.2031	1300.7866	0.146808	-435.267692	-435.258155	-435.257211	-435.302305	34.237	
C	-0.0144948723	 1.445623166	-0.0693246307	-0.339526
N	 0.0646052759	-0.0000377019	-0.1670506141	-0.283402
C	 0.6404633689	-0.6152147035	 0.7952003953	 0.26811
N	 1.218981467	-0.0855916552	 1.9163096557	-0.544862
C	 0.7500630562	-2.1316166463	 0.7782728357	 0.354495
O	 1.1333325137	-2.7311686637	 1.7680811355	-0.370701
N	 0.4773490196	-2.747139889	-0.414705877	-0.063162
C	-0.7312697005	-2.7218125462	-1.1994689141	-0.200042
C	-0.2302421752	-3.9941662326	-0.5712660293	-0.233436
H	 0.9802478886	 1.9096785071	 0.0203071319	 0.118513
H	-0.4962772724	 1.8488449121	-0.963217691	 0.124683
H	-0.6065576876	 1.7745943198	 0.8014488925	 0.106822
H	 0.9727400154	 0.8438063266	 2.2096522739	 0.256763
H	 1.4514112738	-0.7604475349	 2.6306301012	 0.272319
H	-1.600146831	-2.24015834	-0.7634573111	 0.138443
H	-0.598927652	-2.5509192845	-2.2635783612	 0.130812
H	 0.259310025	-4.7439696726	-1.186003579	 0.128816
H	-0.7491484131	-4.3787271311	 0.3029263358	 0.135353
66.4075	109.8999	153.2563	158.6475	175.4174	237.1271	259.4899	337.825	362.5688	416.2495	475.0713	566.3173	612.9314	659.2442	741.8987	796.474	820.7382	918.1644	989.3227	1001.9744	1044.8823	1100.2883	1105.9211	1128.4828	1132.1347	1152.531	1169.1148	1184.1613	1203.5967	1350.7069	1429.9482	1453.7871	1492.4064	1498.0292	1503.1279	1528.4428	1598.3388	1727.6102	1757.0737	2958.7241	3007.9922	3102.6537	3113.8185	3126.5411	3199.4389	3218.2664	3578.7004	3715.7076
CN=C(N)C(=O)N1CC1	CN=C(N)C(=O)N1CC1	
InChI=1S/C5H9N3O/c1-7-4(6)5(9)8-2-3-8/h2-3H2,1H3,(H2,6,7)	InChI=1S/C5H9N3O/c1-7-4(6)5(9)8-2-3-8/h2-3H2,1H3,(H2,6,7)
