17
gdb 77962	3.45472	1.26207	1.03912	1.8402	74.43	-0.2438	0.0146	0.2585	1133.5013	0.135833	-417.934593	-417.926548	-417.925604	-417.966988	30.942	
C	 0.0554539276	 1.4653430512	 0.04769997	-0.362749
N	 0.0742572267	 0.0046210552	 0.0252130219	-0.139052
C	-1.0985818388	-0.8111427428	 0.5316096197	-0.095609
C	-0.09073584	-2.0159390344	 0.5002815269	 0.202067
O	 0.3720392635	-2.4599912466	-0.7162287844	-0.442853
C	 0.629446173	-0.7987306761	 1.1844463878	-0.095629
C	-0.6775580054	-0.6198468695	 2.0270416026	-0.137349
C	-0.9660820822	 0.5923427086	 2.7674421268	 0.272876
N	-1.2211720036	 1.5097446948	 3.4248821259	-0.337578
H	 1.0720353545	 1.819109831	-0.1513149822	 0.130745
H	-0.580467922	 1.8075647553	-0.7748941785	 0.13075
H	-0.2968830842	 1.9313725449	 0.9728330204	 0.151621
H	-2.0978613478	-0.7270644451	 0.1033599547	 0.104759
H	-0.3242901543	-2.8713176591	 1.1347429709	 0.098595
H	 0.5530157629	-1.6424197433	-1.2108585518	 0.285735
H	 1.6611204268	-0.7000744137	 1.523483854	 0.104759
H	-0.9157523467	-1.4716422604	 2.6737541253	 0.128911
127.0886	160.3026	163.0915	244.3783	293.016	341.1534	374.3001	465.1982	488.7407	568.3942	645.01	681.8697	725.844	782.4221	799.0838	839.8553	889.4327	907.6807	1034.2889	1063.4375	1091.236	1095.925	1131.7373	1136.4059	1171.5004	1196.3769	1197.905	1199.7654	1235.1031	1282.2654	1322.6968	1377.7838	1448.9161	1469.0691	1497.621	1504.5921	2346.107	3034.754	3049.3601	3104.5771	3106.273	3116.9867	3117.3145	3127.8748	3666.8595
CN1C2C(O)C1C2C#N	CN1[C@H]2[C@@H](O)[C@@H]1[C@H]2C#N	
InChI=1S/C6H8N2O/c1-8-4-3(2-7)5(8)6(4)9/h3-6,9H,1H3	InChI=1S/C6H8N2O/c1-8-4-3(2-7)5(8)6(4)9/h3-6,9H,1H3/t3-,4+,5-,6+
