19
gdb 55469	3.33618	1.10794	0.96991	2.2452	72.48	-0.2079	0.0203	0.2283	1253.1068	0.1615	-456.369689	-456.361025	-456.360081	-456.403415	32.685	
N	 0.0242298167	 1.2947050053	 0.1637670877	-0.525372
C	 0.039360813	-0.0586582043	 0.0091121855	 0.40763
O	 1.0572445927	-0.6875822434	-0.2159637549	-0.369667
C	-1.3267325128	-0.7426564238	 0.043512744	-0.076476
C	-1.8610928648	-0.8597336748	-1.4042601704	-0.08147
O	-3.0371563759	-1.6431934744	-1.4494375337	-0.247309
C	-2.8037035656	-2.9599738015	-0.9671209591	-0.074499
C	-2.3266510907	-2.9169617084	 0.4852791065	-0.162577
N	-1.1697414992	-2.0447886275	 0.6842183173	-0.30352
H	 0.9088532409	 1.7771140052	 0.1775134655	 0.263256
H	-0.7870465408	 1.7755281681	 0.5114403634	 0.262772
H	-2.0473070649	-0.1499253906	 0.6243389121	 0.074474
H	-2.1222046621	 0.1216601149	-1.8127835834	 0.104395
H	-1.0730506218	-1.3059077277	-2.0336854294	 0.099762
H	-3.7523605638	-3.4975394219	-1.0633756211	 0.104125
H	-2.0518499272	-3.4635416435	-1.5992583918	 0.084811
H	-3.1498342176	-2.5477216431	 1.1119040076	 0.105477
H	-2.0735807355	-3.9226081545	 0.8372605881	 0.103334
H	-0.3154727208	-2.461730794	 0.3234972062	 0.230856
48.4302	115.1359	184.6797	248.8268	271.8091	298.1869	345.9649	393.6128	457.2232	505.2682	569.1752	587.8544	642.8502	744.3905	786.3679	842.4546	882.1523	918.1721	951.5305	1008.168	1036.0806	1074.3759	1094.4781	1132.2964	1155.2561	1182.9352	1232.5038	1246.1637	1305.8705	1326.7125	1343.0241	1376.0278	1387.0509	1402.5888	1413.3341	1471.8884	1481.2778	1492.7464	1496.056	1618.1431	1792.3883	2957.9153	2972.1455	3007.9564	3017.584	3077.182	3078.303	3079.8556	3508.5157	3595.9064	3731.3795
NC(=O)C1COCCN1	NC(=O)[C@H]1COCCN1	
InChI=1S/C5H10N2O2/c6-5(8)4-3-9-2-1-7-4/h4,7H,1-3H2,(H2,6,8)	InChI=1S/C5H10N2O2/c6-5(8)4-3-9-2-1-7-4/h4,7H,1-3H2,(H2,6,8)/t4-/m1/s1
