22
gdb 11572	3.57993	1.10216	0.95101	1.0187	79.13	-0.2476	0.0871	0.3347	1330.2008	0.198624	-350.187691	-350.178012	-350.177068	-350.222586	34.995	
C	-0.2034807602	 1.466336746	 0.0062651923	-0.233812
O	-0.0687932476	 0.0717695529	 0.1350148177	-0.245799
C	-1.287567588	-0.6609026913	 0.042178908	 0.150551
C	-1.7509087804	-0.8028201133	-1.41026659	-0.402424
C	-1.0273596771	-2.0196504777	 0.6983880066	-0.218755
C	-0.6760923515	-1.9166979293	 2.1666105636	 0.03792
C	-1.765437934	-1.8776637454	 3.2107035078	-0.259217
C	-0.8761214282	-3.0919039865	 3.0866819705	-0.278881
H	 0.7841354116	 1.9026539684	 0.1781425131	 0.124205
H	-0.5458656046	 1.7719017859	-0.9935935662	 0.103545
H	-0.9052879723	 1.8781975274	 0.7488508036	 0.102475
H	-2.0645201303	-0.1324438222	 0.6209378332	 0.062962
H	-2.6921428778	-1.3597032642	-1.4605187405	 0.112628
H	-1.9187850283	 0.1712920016	-1.8784964548	 0.11385
H	-0.9988588641	-1.339325199	-1.9977985591	 0.121623
H	-1.9186322279	-2.6473024192	 0.5732679121	 0.086632
H	-0.2134007298	-2.511762341	 0.1497128543	 0.102052
H	 0.1915357651	-1.295438852	 2.3630794296	 0.094609
H	-1.6390127257	-1.2305008385	 4.071735271	 0.107827
H	-2.7943912816	-1.9711526315	 2.8765272139	 0.103765
H	-1.3109819552	-3.9952904188	 2.6703825626	 0.105785
H	-0.1403054121	-3.2741050224	 3.8623379708	 0.108462
62.3742	84.0302	96.2432	147.9671	202.1325	234.6223	272.6966	332.4585	338.9539	398.6846	478.8328	529.9713	773.7953	797.8468	814.1094	840.502	889.6188	920.873	936.667	989.7303	1028.2416	1058.0616	1077.1537	1118.3328	1119.2017	1148.1498	1161.4014	1169.2104	1185.3304	1200.3981	1223.4279	1230.1455	1284.3197	1305.4535	1372.1315	1386.3099	1404.1486	1418.3205	1466.	1473.2454	1479.0036	1482.865	1494.0949	1503.5172	1508.4576	1513.3829	2955.0028	2974.6399	3017.7523	3020.6253	3038.9552	3058.9081	3106.0864	3108.8915	3113.9853	3124.4146	3129.6758	3165.3059	3201.6727	3217.5665
COC(C)CC1CC1	CO[C@@H](C)CC1CC1	
InChI=1S/C7H14O/c1-6(8-2)5-7-3-4-7/h6-7H,3-5H2,1-2H3	InChI=1S/C7H14O/c1-6(8-2)5-7-3-4-7/h6-7H,3-5H2,1-2H3/t6-/m0/s1
