17
gdb 24305	2.93029	2.25929	1.46748	3.0971	76.94	-0.2084	-0.0213	0.187	880.4817	0.139843	-380.824661	-380.818314	-380.81737	-380.855244	25.894	
C	-0.1070224278	 1.5269852849	-0.1457886925	-0.184412
C	 1.4430296457	 1.6983495752	 0.0199092747	-0.083186
C	 2.0744681391	 2.2230318408	 1.3632693996	-0.234666
C	 2.4676423704	 0.9387580401	 2.2136444185	-0.296865
C	 1.6073910949	-0.1220263315	 1.5585888502	 0.174973
C	 1.3551266594	 0.2301901058	 0.2777675277	 0.081818
N	-0.0030769643	-0.0281480199	-0.0133739085	-0.121036
C	-0.4066202269	-0.7291773305	 1.1348894293	-0.018657
N	 0.5246882581	-0.8464722992	 2.0560792643	-0.258726
H	-0.6988418586	 1.9305028234	 0.6760881934	 0.139198
H	-0.526010478	 1.8061884573	-1.1119802479	 0.135956
H	 1.93719059	 2.0806019773	-0.8753260905	 0.084767
H	 2.9388027878	 2.866488649	 1.1734251704	 0.106946
H	 1.348081513	 2.829243037	 1.9160255645	 0.109053
H	 3.5420588166	 0.7384410723	 2.1463432456	 0.116869
H	 2.2254668167	 1.0589747769	 3.271892791	 0.122488
H	-1.3794537862	-1.200139879	 1.2007927202	 0.125479
117.1134	262.7249	306.4918	352.1481	493.4436	588.6157	656.0404	691.9085	711.5418	742.7795	776.7007	829.0635	850.3909	862.4857	892.6401	937.6575	972.0473	1008.8001	1038.0517	1095.7442	1107.8722	1133.6155	1163.7913	1186.1458	1221.911	1233.8033	1262.8942	1280.4106	1295.6092	1314.0758	1321.3014	1350.6638	1444.9697	1473.1022	1478.7899	1492.9797	1594.0799	3042.1269	3048.1373	3076.5344	3086.2814	3092.5112	3111.6103	3162.5768	3221.96
C1C2CCC3=C2N1C=N3	C1[C@H]2CC[C]3[C]2N1C=N3	
InChI=1S/C7H8N2/c1-2-6-7-5(1)3-9(7)4-8-6/h4-5H,1-3H2	InChI=1S/C7H8N2/c1-2-6-7-5(1)3-9(7)4-8-6/h4-5H,1-3H2/t5-/m1/s1
