19
gdb 33204	5.44213	0.77939	0.69243	3.3706	78.82	-0.2129	0.0395	0.2524	1630.4655	0.160111	-419.242144	-419.233018	-419.232074	-419.277814	32.231	
C	-0.1486159383	 1.5018653562	 0.089457526	-0.389588
C	-0.0658623969	-0.0109279263	-0.0144231676	-0.024861
O	-1.3739318797	-0.5430249787	 0.0867249229	-0.263121
C	-1.415006672	-1.9526081231	-0.0046485913	-0.168461
C	-2.8488854241	-2.3779035484	 0.0431256798	 0.334185
N	-3.2982528351	-3.6021644144	 0.2064111027	-0.319434
C	-4.6701809595	-3.4935981177	 0.1475726108	-0.090673
C	-5.0449378114	-2.190952997	-0.0492795235	-0.115542
N	-3.8633192343	-1.4863249484	-0.119578377	-0.254645
H	 0.8499301641	 1.9424681169	 0.0169318744	 0.121123
H	-0.7656847896	 1.9102645478	-0.7162135757	 0.124586
H	-0.589555861	 1.798172803	 1.0454445856	 0.129254
H	 0.3896191865	-0.3118049395	-0.9724413734	 0.09265
H	 0.5686399252	-0.4214686225	 0.7879204415	 0.094767
H	-0.9449330459	-2.2910715606	-0.9439745426	 0.112384
H	-0.8599838382	-2.4272886851	 0.8190929306	 0.120758
H	-5.3066954934	-4.3588112122	 0.2540243252	 0.103019
H	-6.0042434459	-1.7093733423	-0.1371625214	 0.12291
H	-3.7313932005	-0.4947272675	-0.227609197	 0.27069
26.4084	69.354	104.4403	111.7489	238.8135	257.1397	281.8832	357.7326	499.0918	580.748	656.8823	695.5209	728.0819	745.07	821.2441	854.0868	907.9843	933.4875	992.7846	1041.448	1044.5348	1094.6915	1135.502	1143.558	1164.5479	1183.0006	1188.5216	1233.4191	1274.6001	1297.4439	1362.9894	1393.2512	1405.3524	1443.481	1477.4006	1484.4132	1499.5803	1508.9105	1512.7333	1534.9493	1593.6997	2954.7188	2966.0141	2990.9155	2999.6485	3044.8722	3119.4168	3121.6666	3247.6874	3281.4599	3673.6493
CCOCC1=NC=CN1	CCOCc1ncc[nH]1	
InChI=1S/C6H10N2O/c1-2-9-5-6-7-3-4-8-6/h3-4H,2,5H2,1H3,(H,7,8)	InChI=1S/C6H10N2O/c1-2-9-5-6-7-3-4-8-6/h3-4H,2,5H2,1H3,(H,7,8)
