18
gdb 14279	3.32971	1.77086	1.70688	2.7931	70.61	-0.2386	-0.0147	0.2239	873.4052	0.154515	-347.829645	-347.822271	-347.821327	-347.86124	28.528	
C	-0.3820179553	 1.4224614431	-0.0993431052	-0.428213
C	-0.0233273691	-0.0445056535	 0.0200761588	-0.004443
C	 1.3345145877	-0.6186145058	-0.3214419085	-0.068195
C	 2.5223097417	 0.3166605039	-0.4253817978	-0.329062
C	 2.6299459404	 1.0194717534	 0.9387034456	 0.384633
O	 3.3224040106	 1.9730512118	 1.1804490915	-0.312527
C	 1.7053193563	 0.3096568006	 1.9424398318	-0.329062
C	 0.8360549257	-0.6228895337	 1.1232094151	-0.068195
H	 0.4341230841	 2.0920277364	 0.1842293626	 0.134314
H	-0.6602292263	 1.6700402499	-1.1295965673	 0.121838
H	-1.2367886997	 1.6650982311	 0.5414480421	 0.121838
H	-0.8430960767	-0.7000865869	-0.2647154944	 0.086533
H	 1.3651787331	-1.5412605594	-0.8896055267	 0.085328
H	 3.4509524265	-0.2445826617	-0.590095162	 0.129967
H	 2.4637846012	 1.0655715348	-1.2215159437	 0.129976
H	 2.3358236707	-0.2541391303	 2.641796384	 0.129967
H	 1.1669356837	 1.0544561117	 2.5370319356	 0.129977
H	 0.5115177852	-1.5485813956	 1.5845076083	 0.085328
81.7581	161.6316	208.2924	241.2089	412.0029	452.0554	462.8661	512.6462	630.3971	653.7012	754.9451	759.8265	775.8775	825.01	883.7693	955.3472	979.1754	996.2315	1051.8407	1057.7383	1084.1193	1123.475	1141.9997	1149.2516	1165.5909	1212.2855	1232.0945	1282.2876	1284.9129	1351.9507	1368.8557	1427.6777	1434.1121	1448.1307	1461.4809	1497.1851	1508.0388	1843.9917	3034.7016	3035.3238	3038.6696	3082.3524	3082.7583	3090.7653	3112.5039	3133.6678	3164.4957	3175.212
CC1C2CC(=O)CC12	C[C@H]1[C@H]2CC(=O)C[C@@H]12	
InChI=1S/C7H10O/c1-4-6-2-5(8)3-7(4)6/h4,6-7H,2-3H2,1H3	InChI=1S/C7H10O/c1-4-6-2-5(8)3-7(4)6/h4,6-7H,2-3H2,1H3/t4-,6+,7-
