18
gdb 84962	2.24294	1.64205	1.06534	5.8292	72.99	-0.2313	-0.0599	0.1714	1141.8292	0.147527	-439.148357	-439.139528	-439.138584	-439.181943	32.895	
C	 0.1880846459	 1.6085344164	-0.215683713	-0.386524
C	 0.0040261559	 0.1070085169	 0.0269773854	-0.005049
N	 0.526067158	-0.6880841642	-1.087008754	-0.314599
C	 1.7297935671	-1.3026831568	-0.8880676596	 0.32052
O	 2.4029097894	-1.8980934533	-1.6956823122	-0.354453
C	 2.0432685761	-1.0672513163	 0.6071957208	 0.296499
O	 3.0864999929	-1.3193162605	 1.1443184141	-0.291423
C	 0.7940388681	-0.4648341466	 1.240197153	-0.108248
C	 1.0742736258	 0.4543196113	 2.4242235622	-0.410149
H	 1.2470829579	 1.8666095225	-0.3173927506	 0.132268
H	-0.3199234592	 1.9066363489	-1.1384622888	 0.12
H	-0.2367931891	 2.194305686	 0.6042838561	 0.129677
H	-1.0658991955	-0.0996677289	 0.1446096747	 0.094446
H	 0.136152661	-0.627081076	-2.015941959	 0.256863
H	 0.227544603	-1.3381188492	 1.5976358346	 0.124391
H	 1.62957521	 1.3461504941	 2.1227396237	 0.130798
H	 0.1485108309	 0.7737133878	 2.9116736665	 0.118867
H	 1.6852798318	-0.079755632	 3.1560675063	 0.146116
67.215	105.9434	197.2788	231.7345	265.6209	282.8284	320.9877	368.6894	427.4373	476.3855	541.6171	581.4423	628.7726	672.6405	709.5179	806.7547	825.4703	944.8999	992.9607	1010.3798	1031.2238	1091.0617	1105.2113	1155.8566	1171.635	1239.5155	1280.4176	1328.9061	1344.3632	1387.4735	1409.461	1413.9445	1433.8356	1488.6472	1489.6824	1501.1527	1506.7898	1840.4472	1862.6571	2999.0469	3033.6055	3037.192	3049.781	3107.3787	3118.928	3121.3399	3129.8893	3618.8215
CC1NC(=O)C(=O)C1C	C[C@H]1NC(=O)C(=O)[C@H]1C	
InChI=1S/C6H9NO2/c1-3-4(2)7-6(9)5(3)8/h3-4H,1-2H3,(H,7,9)	InChI=1S/C6H9NO2/c1-3-4(2)7-6(9)5(3)8/h3-4H,1-2H3,(H,7,9)/t3-,4+/m0/s1
