21
gdb 74638	4.05357	1.29199	1.19208	0.6274	89.71	-0.229	0.0231	0.2521	1135.4557	0.184483	-349.89985	-349.892462	-349.891518	-349.93119	31.	
C	-0.1088637156	 1.5048456635	 0.0793822306	-0.489483
C	 0.022729974	 0.0175217271	-0.0262336755	 0.355109
C	-0.0313514749	-0.7163716393	-1.1540442326	-0.262968
C	-0.0203651166	-2.1845522192	-0.8157494658	 0.001646
C	 1.0937205142	-3.2955691338	-0.8327380162	-0.085613
C	 2.0301488524	-2.3048999391	-0.1143908824	-0.237058
C	 0.6368474214	-2.1442664173	 0.5835297454	 0.343734
C	 0.5597007478	-3.7007257921	 0.5974369162	-0.312614
C	 0.2217705527	-0.8421832326	 1.2406756515	-0.456303
H	 0.786436456	 1.9534134442	 0.5288349494	 0.124154
H	-0.26634863	 1.9672473023	-0.8990207219	 0.122073
H	-0.9510933406	 1.7823733896	 0.7267059452	 0.124029
H	-0.2050804866	-0.2925420673	-2.1381317335	 0.080602
H	-1.0340226775	-2.6071047287	-0.8569548801	 0.066793
H	 1.3480516223	-3.985613668	-1.6396142396	 0.065582
H	 2.8243742011	-2.7411211664	 0.4983317057	 0.080281
H	 2.3908641238	-1.453302924	-0.6929110249	 0.094145
H	-0.4395423854	-4.1430196418	 0.6427494108	 0.089788
H	 1.2665702108	-4.238303306	 1.2357689347	 0.088456
H	 0.9767202913	-0.4197050597	 1.9142530236	 0.101431
H	-0.7165398007	-0.9128643612	 1.8093126394	 0.106217
141.1134	186.4119	268.8817	310.6596	370.1591	434.2074	474.7645	486.0297	560.6198	694.7749	714.4941	766.5641	806.8703	832.0314	846.7299	880.6534	900.1132	948.1051	962.6648	983.0715	1010.3356	1023.7607	1034.5105	1053.217	1072.4995	1106.0671	1122.9487	1136.034	1143.5204	1179.6391	1199.0385	1213.0013	1224.1587	1245.583	1252.5752	1309.5135	1321.1965	1363.0642	1411.7397	1473.468	1478.5006	1486.1848	1495.8971	1535.5609	1665.2961	2999.2903	3007.1575	3014.8179	3045.5723	3054.8099	3055.5049	3059.5016	3090.5728	3107.9406	3112.3734	3128.5475	3176.2528
CC1=CC2C3CC2(C3)C1	CC1=C[C@H]2[C@H]3C[C@@]2(C3)C1	
InChI=1S/C9H12/c1-6-2-8-7-4-9(8,3-6)5-7/h2,7-8H,3-5H2,1H3	InChI=1S/C9H12/c1-6-2-8-7-4-9(8,3-6)5-7/h2,7-8H,3-5H2,1H3/t7-,8-,9+/m0/s1
