16
gdb 26540	2.41013	1.86793	1.0593	4.9812	78.43	-0.1971	-0.0118	0.1854	1078.6425	0.126443	-434.122455	-434.114463	-434.113519	-434.154877	30.337	
C	 0.012610204	 1.5304639586	 0.0091379649	-0.504793
C	-0.0462878041	 0.0370600049	 0.0158859903	 0.222395
C	-1.1691550911	-0.7115427207	-0.069161451	 0.288843
O	-2.4031398646	-0.1902760195	-0.1732866914	-0.43918
C	-1.1001943255	-2.1768358922	-0.0516325506	 0.280594
N	-2.2333263505	-2.7826059193	-0.137831885	-0.592422
N	 0.1454144572	-2.7866998288	 0.053460233	-0.337686
C	 1.1847818835	-2.0206450349	 0.1312420342	 0.082959
N	 1.1577999924	-0.6673619401	 0.1190644667	-0.35184
H	 0.6045931948	 1.9071943105	-0.8346443098	 0.13292
H	-0.9962658197	 1.9350762987	-0.0746230371	 0.169445
H	 0.4636710384	 1.9207236127	 0.9303023681	 0.132931
H	-2.9736199471	-0.990733419	-0.2123251754	 0.304779
H	-2.1125175289	-3.7933779103	-0.1197816446	 0.219828
H	 2.1744807174	-2.464583373	 0.2143627066	 0.12747
H	 2.0212186238	-0.1522584877	 0.182694211	 0.263756
115.6601	128.3414	182.9687	272.736	317.0963	334.3433	438.5992	503.9045	522.7979	529.378	560.4581	590.8392	690.3084	704.5091	795.3701	841.8503	887.5051	946.3276	960.7894	1040.9181	1062.17	1094.2348	1185.8087	1263.4532	1298.0661	1362.121	1414.1156	1424.8953	1455.5003	1484.8546	1489.1215	1544.8444	1638.9368	1664.8275	1743.2425	3017.753	3063.8958	3152.7033	3157.562	3468.2488	3509.9739	3640.9412
CC1=C(O)C(=N)N=CN1	CC1=C(O)C(=NCN1)[NH]	
InChI=1S/C5H7N3O/c1-3-4(9)5(6)8-2-7-3/h2,9H,1H3,(H2,6,7,8)	InChI=1S/C5H8N3O/c1-3-4(9)5(6)8-2-7-3/h6-7,9H,2H2,1H3
