22
gdb 31223	2.02252	1.36808	0.90334	1.7709	90.49	-0.1901	0.0485	0.2386	1391.12	0.194799	-367.265429	-367.255568	-367.254624	-367.301122	36.419	
C	-0.0253265711	 1.701503107	 0.4891106569	-0.363413
C	 0.0144488136	 0.2328641943	 0.0265689194	-0.302315
C	-1.3355304132	-0.4059815829	-0.0856923105	 0.208826
C	-2.1007479246	-0.755023562	-1.1845131267	 0.203824
C	-1.7247244064	-0.6222275896	-2.6340163116	-0.301488
C	-1.3585388391	-1.9622437748	-3.295874782	-0.359258
C	-3.3235187709	-1.3034769892	-0.6868398557	-0.230379
C	-3.273441432	-1.2721727677	 0.6841424493	-0.092567
N	-2.0661260536	-0.7262097647	 1.0392443611	-0.290716
H	 0.9844075926	 2.1189832707	 0.5600325832	 0.11011
H	-0.6023677829	 2.312932026	-0.210942395	 0.124992
H	-0.4961199181	 1.7967710471	 1.4733693171	 0.107484
H	 0.5092648418	 0.1740666882	-0.9475619107	 0.114118
H	 0.645970433	-0.3443281144	 0.7166270982	 0.098736
H	-2.5575298742	-0.1696906495	-3.1877227935	 0.099031
H	-0.8841660772	 0.0730819386	-2.7408353313	 0.091969
H	-1.1121010672	-1.8274149794	-4.3546089115	 0.102554
H	-0.4966148433	-2.4196912047	-2.7995422335	 0.112958
H	-2.1898653486	-2.6712569782	-3.2293407084	 0.11702
H	-4.1453105162	-1.6747845796	-1.2814106047	 0.084683
H	-3.9843529912	-1.5867830758	 1.4312630809	 0.11101
H	-1.7528827013	-0.5832860294	 1.983424599	 0.252822
38.0503	51.0832	142.4405	162.2723	196.6624	222.8049	295.4546	331.848	373.5273	449.4843	475.0781	607.0247	652.8131	663.9295	698.5083	742.83	779.7224	788.7563	822.739	912.8647	951.4996	976.0447	1021.4168	1052.8575	1075.5673	1086.109	1094.613	1130.0854	1182.9725	1252.0503	1267.1007	1305.1525	1318.3048	1353.9638	1359.7363	1407.6288	1408.9357	1437.2868	1473.1329	1483.5707	1490.9897	1495.8034	1496.3854	1505.8219	1506.1901	1516.6198	1625.8318	3007.6664	3019.8156	3030.7519	3033.1725	3054.6814	3076.2761	3100.1693	3102.2117	3107.0411	3112.5365	3235.0779	3265.9415	3678.1013
CCC1=C(CC)C=CN1	CCc1c(CC)cc[nH]1	
InChI=1S/C8H13N/c1-3-7-5-6-9-8(7)4-2/h5-6,9H,3-4H2,1-2H3	InChI=1S/C8H13N/c1-3-7-5-6-9-8(7)4-2/h5-6,9H,3-4H2,1-2H3
