21
gdb 101004	2.736	1.06285	1.00309	1.9932	74.32	-0.2537	0.0505	0.3043	1325.3776	0.180381	-461.339107	-461.329093	-461.328149	-461.374045	37.029	
C	-0.0621279846	 1.5819888145	 0.0551419449	-0.385318
C	-0.0183457145	 0.0539692168	 0.1260917946	-0.197847
C	-1.4057844595	-0.5796134245	-0.0500925825	 0.125359
O	-2.0005327293	-0.2167340155	-1.2904120805	-0.447192
C	-1.3862680536	-2.1063411196	 0.0598954657	 0.310431
O	-0.5693741832	-2.5630386315	-0.9975440189	-0.489688
C	-1.1539473131	-2.6820261985	 1.4793440293	-0.131834
O	-2.5516095621	-3.0086472281	 1.6048404903	-0.271304
C	-2.7906895129	-2.7370258209	 0.2088141673	-0.136895
H	 0.9417804667	 2.009996685	 0.1317604898	 0.108404
H	-0.5063347117	 1.9079592159	-0.8887346421	 0.131408
H	-0.6663734538	 1.9993564042	 0.8686461126	 0.111627
H	 0.6461002784	-0.3451121031	-0.6488151443	 0.108127
H	 0.4025383051	-0.264947387	 1.0880977647	 0.092857
H	-2.0808467336	-0.1950274332	 0.7246213156	 0.091286
H	-1.5206107553	-0.7131271117	-1.9653985286	 0.285505
H	-0.6653575433	-3.5174781561	-1.0769624519	 0.286502
H	-0.5120157472	-3.5754713195	 1.4826504757	 0.09088
H	-0.8166071886	-1.9954853539	 2.2636688235	 0.109102
H	-3.6511965681	-2.0819333932	 0.0431973852	 0.125442
H	-2.9211979458	-3.6613103701	-0.3757907806	 0.083147
77.2078	98.4125	109.3883	164.2146	219.3752	251.5437	300.0351	309.8562	322.0105	354.7755	441.0997	482.4285	504.2559	511.0447	757.2815	781.4138	829.3372	880.6427	935.0355	957.3295	991.7643	1002.0825	1026.2464	1058.8322	1077.6189	1108.3354	1134.6311	1138.6009	1144.7121	1160.4457	1196.0582	1265.6751	1291.8322	1308.0395	1340.2771	1366.7752	1382.6094	1403.8838	1409.6902	1436.5272	1484.5796	1496.4522	1505.8696	1510.2331	1531.441	2977.4599	2994.8078	3029.2608	3035.7502	3037.5756	3062.9902	3072.0345	3082.7851	3101.8852	3124.3977	3780.9455	3818.1719
CCC(O)C1(O)COC1	CC[C@@H](O)C1(O)COC1	
InChI=1S/C6H12O3/c1-2-5(7)6(8)3-9-4-6/h5,7-8H,2-4H2,1H3	InChI=1S/C6H12O3/c1-2-5(7)6(8)3-9-4-6/h5,7-8H,2-4H2,1H3/t5-/m1/s1
