17
gdb 102426	3.00026	0.75054	0.61649	1.8395	87.85	-0.25	-0.0287	0.2213	1741.734	0.132619	-421.752697	-421.742488	-421.741544	-421.788488	35.971	
C	-0.0906225051	 1.3239444247	-0.0831384667	-0.241102
O	 0.2345582788	-0.0483672072	 0.0363317183	-0.242093
C	 0.7445804522	-0.6348692468	-1.1549677554	-0.158742
C	 1.3182292512	-1.9961840571	-0.7218720954	-0.064372
O	 2.3057499549	-1.8233395218	 0.2653416433	-0.41488
C	-0.2737626339	-0.7760150937	-2.194773424	 0.490932
C	-1.1148517063	-0.9179867831	-3.0540799549	-0.30715
C	-2.0586218377	-1.0758058347	-4.0211841715	 0.296099
C	-2.8957374699	-1.2155792363	-4.8799818329	-0.555101
H	 0.78654625	 1.9193909976	-0.3768049731	 0.112674
H	-0.889505595	 1.4863437569	-0.8182483621	 0.127242
H	-0.4352288715	 1.6547462057	 0.8988751292	 0.133725
H	 1.5750641607	-0.0191158171	-1.5392155181	 0.105989
H	 0.485903188	-2.6264069769	-0.3748679835	 0.107128
H	 1.786111649	-2.4851406289	-1.5802971026	 0.122555
H	 1.8989650643	-1.2782546195	 0.9500664884	 0.291184
H	-3.6320986597	-1.3398490918	-5.6348379291	 0.195913
63.5692	82.2565	107.4068	150.6372	191.2242	210.4812	244.8247	294.0314	337.6533	424.3858	466.5749	504.9326	517.6648	544.4934	577.2202	596.3716	620.7681	791.3499	854.1275	1027.6424	1067.5331	1090.7922	1137.1768	1166.4016	1185.1066	1195.0396	1255.0597	1288.9583	1360.272	1383.8173	1430.5117	1478.8708	1484.9003	1497.5786	1509.9479	2180.0649	2356.7658	2966.112	2992.4746	3002.0397	3054.2302	3102.3557	3125.8852	3504.0446	3789.6046
COC(CO)C#CC#C	CO[C@@H](CO)C#CC#C	
InChI=1S/C7H8O2/c1-3-4-5-7(6-8)9-2/h1,7-8H,6H2,2H3	InChI=1S/C7H8O2/c1-3-4-5-7(6-8)9-2/h1,7-8H,6H2,2H3/t7-/m1/s1
