18
gdb 73643	2.39956	1.70343	1.45229	2.8722	72.27	-0.2629	0.0259	0.2888	995.9391	0.148718	-439.094657	-439.08682	-439.085876	-439.12682	30.15	
C	-0.0934623162	 1.4770416376	 0.0258135218	-0.480891
C	 0.01952858	-0.0366186237	-0.0196051031	 0.134918
C	-1.316190266	-0.7995887148	-0.0877263003	-0.129884
O	-1.063955675	-2.0896810207	 0.4529871654	-0.249116
C	-0.1483604002	-1.9155616315	 1.5256860779	-0.110357
C	 0.8079143838	-0.8284207117	 1.0650005051	 0.071553
O	 1.7399667266	-1.3072919105	 0.0415401208	-0.276125
C	 1.0749145989	-0.6149256666	-0.9488249475	 0.423053
N	 1.3030039169	-0.511494565	-2.176089904	-0.554618
H	 0.8861601433	 1.946453327	 0.1512596677	 0.131119
H	-0.5201475629	 1.8506982763	-0.9100657624	 0.146198
H	-0.7399284044	 1.7985517765	 0.8489212696	 0.119517
H	-2.0750252105	-0.26414313	 0.5075276941	 0.090243
H	-1.6884558233	-0.9262114989	-1.1066811934	 0.135821
H	-0.663673481	-1.583320683	 2.4431329671	 0.094758
H	 0.3426380568	-2.8722309211	 1.718726761	 0.129024
H	 1.3346838377	-0.2905371261	 1.8543576065	 0.095649
H	 2.1215884356	-1.0544779337	-2.4559191162	 0.22914
114.9353	187.7269	203.3259	232.0944	274.7587	289.711	366.572	497.9367	567.7555	641.5466	693.5823	754.9494	783.7666	861.3273	866.6998	896.7027	943.6418	955.5719	992.209	1009.5436	1022.0073	1061.1664	1104.0713	1165.1455	1186.2918	1217.3114	1223.4366	1239.2238	1286.1446	1296.9307	1349.1391	1365.8439	1400.4025	1417.3097	1488.8399	1490.9159	1496.2652	1508.5685	1826.7258	2962.2258	2968.6937	3038.4992	3106.7902	3107.8102	3110.3189	3112.0352	3115.9112	3477.2026
CC12COCC1OC2=N	C[C@]12COC[C@H]1O[C]2[NH]	
InChI=1S/C6H9NO2/c1-6-3-8-2-4(6)9-5(6)7/h4,7H,2-3H2,1H3	InChI=1S/C6H9NO2/c1-6-3-8-2-4(6)9-5(6)7/h4,7H,2-3H2,1H3/t4-,6+/m1/s1
