21
gdb 76398	2.95427	1.08207	1.00985	2.0274	78.91	-0.2233	0.0549	0.2782	1294.6477	0.180813	-424.183422	-424.17364	-424.172696	-424.218001	37.083	
O	 0.0759191581	 1.4033782569	-0.0072641996	-0.437739
C	-0.0375336995	 0.0154633365	-0.0761446834	 0.056251
C	-0.4625191067	-0.7008901131	 1.1855455294	-0.013645
O	-0.7796629571	 0.1361928212	 2.274390572	-0.432659
C	-1.4074031622	-0.6621869346	-0.0009231214	 0.241132
C	-2.6418287253	 0.2115409963	 0.0869920023	-0.473819
C	-1.5178108777	-1.9691094381	-0.744282139	-0.026946
C	-2.7872223682	-2.7852114847	-0.7887372787	-0.277535
C	-2.2734553538	-2.1170473914	-2.0420162501	-0.279428
H	-0.1564430355	 1.6429646997	 0.9010249633	 0.282921
H	 0.7164619101	-0.4241062603	-0.7237840101	 0.093167
H	-0.0209929445	-1.6567316191	 1.4622130591	 0.086009
H	-0.0007913146	 0.1877632779	 2.8393754593	 0.295814
H	-2.3906010577	 1.2092589544	 0.4471520681	 0.123798
H	-3.1039108423	 0.3328211744	-0.8976138771	 0.119024
H	-3.3876912534	-0.2128346984	 0.7661658419	 0.121168
H	-0.6043876679	-2.5579895233	-0.6926331343	 0.07317
H	-2.7098416824	-3.8637273027	-0.7047035188	 0.108413
H	-3.677552047	-2.3695527689	-0.3304783166	 0.114815
H	-2.8250907969	-1.2645181894	-2.4217717695	 0.116579
H	-1.8348409353	-2.7363241331	-2.8167397867	 0.109511
53.5228	118.0209	151.5363	192.2257	228.0011	245.1714	280.1162	311.7671	352.4557	381.5345	497.2345	533.0562	538.2397	656.2066	701.0725	784.1488	810.6713	821.1003	866.725	902.3493	944.8379	974.1958	1015.0357	1059.9925	1069.1633	1079.7441	1091.4793	1094.9848	1141.0472	1143.8397	1165.4022	1199.1287	1216.893	1244.5214	1249.5018	1323.2156	1339.4406	1402.2532	1411.8199	1427.4077	1461.6412	1466.8479	1493.1469	1504.1231	1511.7453	3046.2585	3103.5464	3109.5036	3120.4031	3134.8783	3138.8026	3141.2727	3144.6685	3211.6075	3226.0212	3732.3548	3801.951
OC1C(O)C1(C)C1CC1	O[C@H]1[C@@H](O)[C@]1(C)C1CC1	
InChI=1S/C7H12O2/c1-7(4-2-3-4)5(8)6(7)9/h4-6,8-9H,2-3H2,1H3	InChI=1S/C7H12O2/c1-7(4-2-3-4)5(8)6(7)9/h4-6,8-9H,2-3H2,1H3/t5-,6+,7+
