16
gdb 9494	3.17072	1.65526	1.50931	2.2391	66.98	-0.2509	0.0225	0.2734	918.939	0.127307	-383.682341	-383.673662	-383.672718	-383.715583	31.444	
C	-0.3274660144	 1.4594598198	 0.1128290551	-0.399323
C	 0.1661204278	 0.0400344364	-0.0574135738	 0.122193
O	 1.3906649542	-0.0489324399	-0.8215544337	-0.289602
C	 2.0576468253	-0.7941528673	 0.2082535446	-0.108789
C	 0.8409122948	-0.6580080713	 1.1704840112	 0.153093
O	 1.0351633507	 0.2540633311	 2.2354650898	-0.457932
C	 0.2369857198	-1.898358712	 1.6314102573	 0.286522
C	-0.2409053404	-2.923736623	 2.0394018867	-0.480607
H	 0.4208984707	 2.0774161614	 0.6112865406	 0.137602
H	-0.5434335373	 1.8850406093	-0.8721085275	 0.12443
H	-1.2472495383	 1.4753968319	 0.7057243718	 0.122664
H	-0.610857805	-0.5927260321	-0.5050386308	 0.082341
H	 2.2966686755	-1.8181997729	-0.1015328703	 0.104625
H	 2.9574957665	-0.2887626553	 0.5770816461	 0.108049
H	 1.2939680991	-0.2497022127	 3.0141173059	 0.289333
H	-0.671909679	-3.8286975435	 2.3913482171	 0.205401
51.8124	139.6901	166.5011	200.6736	219.5584	262.8646	354.6651	382.7286	484.62	526.0669	556.2842	632.8385	638.2058	668.1192	791.0841	883.0027	921.4089	969.2996	1028.367	1035.3699	1091.2528	1126.5486	1138.6257	1159.3081	1219.5726	1290.8968	1322.4452	1367.2747	1395.7386	1406.1518	1481.1483	1488.1647	1507.4945	2231.237	3017.3297	3025.1016	3046.3823	3076.3585	3113.7592	3145.0944	3498.4071	3819.735
CC1OCC1(O)C#C	C[C@H]1OC[C@]1(O)C#C	
InChI=1S/C6H8O2/c1-3-6(7)4-8-5(6)2/h1,5,7H,4H2,2H3	InChI=1S/C6H8O2/c1-3-6(7)4-8-5(6)2/h1,5,7H,4H2,2H3/t5-,6-/m1/s1
