23
gdb 59773	3.14004	1.08889	0.85894	1.2625	88.15	-0.2414	0.0226	0.264	1417.9321	0.20614	-388.300453	-388.29105	-388.290106	-388.334671	36.034	
C	-0.1013348234	 1.5291332037	 0.0064388707	-0.398681
C	 0.0459679157	-0.000135863	-0.0535777564	 0.030895
C	 0.8079608501	-0.3880950073	-1.3300247444	-0.395132
C	 0.726558767	-0.5739157122	 1.2184331624	-0.029391
C	 0.0882301978	-0.0502994481	 2.5162520341	-0.106657
O	 0.6014474388	-0.7107120516	 3.6600168279	-0.25028
C	 0.2650414521	-2.0819102358	 3.6998184869	-0.116342
C	 0.4483255831	-2.7655575625	 2.3755034636	-0.093311
C	 0.6895068662	-2.0856433862	 1.2570836861	-0.057885
H	 0.8740089599	 2.0116530836	 0.1444770717	 0.113859
H	-0.5269730621	 1.9092434856	-0.9279311948	 0.110081
H	-0.7549861992	 1.8554563143	 0.8198158359	 0.118587
H	-0.9620479744	-0.4359072485	-0.1114035373	 0.073788
H	 1.8219107461	 0.0294620439	-1.3183652356	 0.114045
H	 0.8956127685	-1.4698984988	-1.4593046486	 0.116257
H	 0.2989153796	 0.0058681967	-2.2156703725	 0.111418
H	 1.7772617804	-0.242335467	 1.2032825141	 0.08245
H	 0.3040995157	 1.0090739156	 2.6695551442	 0.107601
H	-1.0080688972	-0.1707894323	 2.4614114474	 0.084292
H	 0.9146680696	-2.5340410591	 4.4593561344	 0.115054
H	-0.7750874337	-2.2180078467	 4.0530535466	 0.093689
H	 0.3798602477	-3.8505253247	 2.3718464484	 0.089136
H	 0.8464395619	-2.6231989696	 0.3265759552	 0.086526
61.6766	91.6692	188.63	211.3669	248.2648	277.876	307.8606	335.1478	399.096	422.9502	459.5718	503.1432	555.8033	685.5601	771.4602	866.9678	889.2334	912.1696	927.7791	963.4176	967.3446	982.715	994.6899	1026.5118	1060.3293	1085.6076	1127.33	1153.5716	1163.8052	1189.4413	1224.0396	1248.2165	1276.1528	1308.5319	1340.851	1353.6649	1365.7662	1373.2173	1400.0578	1412.5418	1422.8741	1427.1386	1485.8159	1486.8857	1493.5059	1499.6301	1505.9093	1514.5397	1722.6367	2923.2231	2951.7833	2976.0564	3002.6657	3026.3808	3032.0721	3044.2681	3089.0468	3096.1867	3098.6189	3109.9755	3112.7729	3152.3919	3176.7924
CC(C)C1COCC=C1	CC(C)[C@H]1COCC=C1	
InChI=1S/C8H14O/c1-7(2)8-4-3-5-9-6-8/h3-4,7-8H,5-6H2,1-2H3	InChI=1S/C8H14O/c1-7(2)8-4-3-5-9-6-8/h3-4,7-8H,5-6H2,1-2H3/t8-/m1/s1
