18
gdb 87297	2.07719	1.32188	0.95367	4.4126	83.12	-0.2545	0.0286	0.2832	1282.2157	0.145315	-364.784701	-364.775041	-364.774096	-364.819456	35.311	
C	 0.0329742686	 1.5007733163	-0.0967429952	-0.421039
C	 0.1244866698	-0.0058873857	 0.0030096974	-0.042651
C	 1.4417037995	-0.7260640458	-0.0088474229	-0.311063
C	 0.5987104353	-0.7417516181	 1.2603435111	 0.115785
C	 1.0860561392	 0.0554997161	 2.474613257	-0.427219
C	 2.1532319085	-0.629624123	 3.206783777	 0.282396
N	 3.0048786407	-1.1611272706	 3.778335352	-0.306468
C	-0.0855699618	-1.9610939078	 1.5985653518	 0.294105
C	-0.6662165099	-2.9702435011	 1.9000471505	-0.442133
H	 0.9031932961	 2.0044734875	 0.3334741457	 0.121316
H	-0.0186808331	 1.7993318688	-1.149135614	 0.131554
H	-0.8637166023	 1.8848657509	 0.4011247541	 0.128606
H	-0.6874944916	-0.5257084785	-0.4968159509	 0.109775
H	 1.5366486901	-1.6548618659	-0.5576784049	 0.134874
H	 2.3458869505	-0.1256600354	 0.0226340855	 0.12441
H	 1.4642067675	 1.0338388588	 2.1659242783	 0.148364
H	 0.2522818731	 0.2364464933	 3.1616792732	 0.159459
H	-1.1667851002	-3.8685883997	 2.1646257643	 0.199929
52.2512	112.3389	135.7301	159.7117	185.3216	245.2041	299.0771	373.7893	387.7842	431.8757	484.7671	540.0048	556.593	593.3771	662.4487	709.4004	799.3742	885.5716	900.812	925.6943	949.5582	957.2801	1028.7338	1073.712	1090.511	1127.4153	1185.0464	1211.336	1282.6579	1305.828	1336.5045	1407.0047	1426.1962	1457.3709	1487.4187	1493.0508	1504.2249	2236.3149	2365.0431	3035.0504	3054.8512	3096.6683	3100.2059	3109.4178	3135.0893	3156.5625	3229.4301	3502.166
CC1CC1(CC#N)C#C	C[C@H]1C[C@]1(CC#N)C#C	
InChI=1S/C8H9N/c1-3-8(4-5-9)6-7(8)2/h1,7H,4,6H2,2H3	InChI=1S/C8H9N/c1-3-8(4-5-9)6-7(8)2/h1,7H,4,6H2,2H3/t7-,8+/m0/s1
