18
gdb 121052	3.41435	0.99297	0.87256	3.7713	70.59	-0.2547	0.056	0.3107	1379.382	0.147516	-476.245018	-476.236193	-476.235249	-476.279822	31.367	
C	-0.0743426533	 1.4068356746	-0.2558945846	-0.387444
C	-0.0242321278	-0.0975921679	-0.0651568951	-0.052823
O	-1.3655526096	-0.5940170042	-0.0913571512	-0.245517
C	-1.4775802921	-1.9545318931	 0.1310618039	 0.184659
C	-2.9560767576	-2.3488471636	 0.0899839486	-0.128107
O	-3.1284022467	-2.8693029691	-1.2283041864	-0.247919
C	-1.9072599042	-3.1132397202	-1.7825227871	 0.486154
N	-1.6693205153	-3.6337312815	-2.8999905989	-0.57637
O	-0.9182881034	-2.7232289858	-0.9362594482	-0.227542
H	 0.9378309077	 1.8211530927	-0.2391051024	 0.122658
H	-0.5344102427	 1.6563169216	-1.2159058331	 0.135544
H	-0.6573829302	 1.8800898263	 0.5391976637	 0.126767
H	 0.5609773429	-0.5781594867	-0.8579779026	 0.127142
H	 0.4394456857	-0.3584060938	 0.8993680868	 0.09419
H	-0.9455231644	-2.2568672821	 1.0421716292	 0.09104
H	-3.1984388097	-3.1214108005	 0.8268452804	 0.123758
H	-3.6016605888	-1.480244001	 0.2249895159	 0.141599
H	-2.5403744506	-3.8903236957	-3.3585378091	 0.232211
45.2803	81.7847	124.1697	139.7845	198.301	251.7804	358.4509	397.8952	480.7262	562.7632	715.9196	732.0657	808.6919	815.5374	823.4819	863.3554	900.3679	942.4789	1001.4474	1019.2246	1054.1456	1082.6927	1111.8809	1150.2105	1168.6672	1188.2317	1230.9809	1266.0242	1297.8367	1369.0383	1373.9093	1406.1291	1417.83	1447.9715	1484.0659	1500.5021	1510.1215	1527.53	1805.2119	2984.3708	3031.2036	3047.5717	3056.3207	3057.1425	3123.1118	3125.6628	3133.9079	3536.2281
CCOC1COC(=N)O1	CCO[C@H]1CO[C]([NH])O1	
InChI=1S/C5H9NO3/c1-2-7-4-3-8-5(6)9-4/h4,6H,2-3H2,1H3	InChI=1S/C5H9NO3/c1-2-7-4-3-8-5(6)9-4/h4,6H,2-3H2,1H3/t4-/m1/s1
