16
gdb 88334	4.24943	0.83978	0.80945	1.6178	70.31	-0.2804	-0.0396	0.2408	1443.05	0.121962	-475.030848	-475.021748	-475.020804	-475.065717	31.583	
C	-0.0234542575	 1.365267007	-0.5463506211	-0.437104
C	-0.1240017678	 0.0033232332	 0.0853607617	 0.091481
O	 1.064908517	-0.767598134	 0.1984156587	-0.229242
C	 0.4472863217	-0.35798592	 1.4104246409	-0.087449
C	 1.1935941756	 0.6458921786	 2.2306207984	 0.463492
O	 2.0520380323	 1.3930127844	 1.8514035092	-0.340738
O	 0.7223701301	 0.589930736	 3.5194501207	-0.208281
C	 1.2664613993	 1.4502130015	 4.4441541471	 0.117595
N	 0.8131405425	 1.4117258193	 5.6155646473	-0.416277
H	 0.8525453901	 1.9036224056	-0.1837264343	 0.163803
H	 0.0546163831	 1.2585737335	-1.6331354969	 0.136172
H	-0.9250556085	 1.9485546457	-0.3317208754	 0.126894
H	-0.9981928944	-0.5837981026	-0.2039290102	 0.106775
H	-0.0338450247	-1.1411705344	 1.9920792824	 0.122908
H	 2.0534366754	 2.0783206171	 4.0269046969	 0.14719
H	 1.3015646359	 2.0911982393	 6.1972945946	 0.242779
44.7706	109.0378	124.2309	152.287	185.0863	225.1493	292.4149	364.2925	400.3898	450.802	531.944	729.5266	774.3547	811.0408	849.2025	855.0613	939.7294	986.8773	1025.0361	1049.7677	1072.7715	1083.4839	1154.7425	1168.0199	1183.0297	1260.0617	1287.0399	1384.9892	1394.9196	1416.2794	1451.6778	1492.6384	1502.2248	1747.9593	1842.6101	3044.204	3090.4224	3105.1854	3142.1427	3143.9635	3157.9033	3507.6788
CC1OC1C(=O)OC=N	C[C@H]1O[C@H]1C(=O)O[CH][NH]	
InChI=1S/C5H7NO3/c1-3-4(9-3)5(7)8-2-6/h2-4,6H,1H3	InChI=1S/C5H7NO3/c1-3-4(9-3)5(7)8-2-6/h2-4,6H,1H3/t3-,4-/m1/s1
