18
gdb 33504	2.68624	1.21232	0.98813	3.5937	77.03	-0.2622	0.0167	0.2789	1249.5524	0.146214	-401.917789	-401.909006	-401.908061	-401.952067	32.638	
N	 0.3045528565	-1.1818859913	 0.3734170601	-0.354179
C	 0.1531230622	-0.0544170407	 0.1637832971	 0.240389
C	-0.0642781512	 1.3544786092	-0.1005457121	 0.301731
C	 0.0856798967	 2.3254758278	 1.0591216484	-0.310202
C	 1.1181944432	 2.2862043699	-0.0347969303	-0.312041
O	-0.9840087344	 1.6261923753	-1.1123740136	-0.281253
C	-2.2993327884	 1.199495746	-0.844977573	 0.118528
C	-3.2728498095	 2.1472964902	-0.1970030052	-0.287804
C	-3.3639809389	 1.8286294083	-1.6773599316	-0.289445
H	-0.6119507743	 3.1532307438	 1.0668838225	 0.136887
H	 0.3384872943	 1.9221928506	 2.0325375785	 0.141521
H	 2.0909867392	 1.8586045066	 0.1745104294	 0.143149
H	 1.1061097549	 3.080614246	-0.771671656	 0.142873
H	-2.3747208083	 0.139212182	-0.6140003026	 0.116863
H	-4.0176005924	 1.7410150948	 0.4783035988	 0.121875
H	-2.9104063693	 3.1340280993	 0.0660221733	 0.118423
H	-3.0442836412	 2.602048348	-2.3664243851	 0.129246
H	-4.1729313193	 1.203829464	-2.0375650387	 0.123439
40.1885	94.8254	143.3292	192.6149	219.453	322.2622	367.7545	379.8902	474.8234	577.5964	601.1132	691.5241	754.2027	771.7599	820.8138	827.8609	896.1757	914.8609	943.4964	973.5367	1006.2297	1027.6519	1058.3516	1068.1219	1076.1744	1089.6032	1133.8925	1188.667	1191.3667	1197.0327	1238.9761	1276.5849	1305.2336	1403.5275	1450.8957	1455.2742	1482.3701	1499.2104	2347.2779	3132.6869	3140.3535	3145.311	3150.4386	3153.3771	3223.8003	3237.4026	3239.8385	3252.6572
N#CC1(CC1)OC1CC1	N#CC1(CC1)OC1CC1	
InChI=1S/C7H9NO/c8-5-7(3-4-7)9-6-1-2-6/h6H,1-4H2	InChI=1S/C7H9NO/c8-5-7(3-4-7)9-6-1-2-6/h6H,1-4H2
