17
gdb 77183	3.13765	1.14848	0.95845	2.2795	69.16	-0.2501	0.0071	0.2572	1225.7397	0.136075	-455.123814	-455.11512	-455.114176	-455.157822	31.487	
O	 0.3365522261	 1.2303017839	 0.291569381	-0.429791
C	 0.0960901242	-0.1339403492	 0.0699598036	-0.038063
C	-1.4167860535	-0.523228147	 0.0582544388	 0.002127
N	-1.1956532798	-1.0469161181	-1.308282943	-0.353593
C	 0.0881452521	-0.5546967095	-1.4215269663	 0.397571
O	 0.8472628425	-0.4287075655	-2.3436439415	-0.359064
C	-1.8953149038	-1.5258100332	 1.0784516073	 0.000608
C	-2.8474952832	-2.6022421001	 0.7156209962	-0.245168
N	-1.4427014442	-2.9217190329	 1.0296497897	-0.316455
H	 1.1245176442	 1.4687260907	-0.2110964544	 0.302476
H	 0.7020993144	-0.782031526	 0.717170998	 0.107967
H	-2.0342346409	 0.3814798604	 0.0770479568	 0.106279
H	-1.8649579949	-1.2183496121	-2.0468933217	 0.255317
H	-1.9419493077	-1.1144811886	 2.0852917067	 0.107207
H	-3.5760347636	-2.9538025403	 1.4401542281	 0.125729
H	-3.1710423736	-2.6719439463	-0.3203260809	 0.102578
H	-0.9428897683	-3.0733005963	 0.1544652715	 0.234273
75.0859	81.8394	139.2131	176.8833	231.4386	265.6789	333.0679	393.4907	480.3625	546.3971	614.9977	737.7012	746.3418	804.174	848.9861	886.724	937.4696	946.9766	986.1531	1030.5736	1050.9122	1122.8149	1130.7798	1149.6133	1173.0058	1187.4864	1188.4087	1245.5803	1273.616	1303.2894	1332.2206	1343.3826	1375.0283	1404.8733	1420.0157	1511.507	1896.6776	3019.3459	3054.228	3107.5299	3127.229	3193.0221	3475.9698	3583.2876	3796.4846
OC1C(NC1=O)C1CN1	O[C@H]1[C@@H](NC1=O)[C@H]1CN1	
InChI=1S/C5H8N2O2/c8-4-3(2-1-6-2)7-5(4)9/h2-4,6,8H,1H2,(H,7,9)	InChI=1S/C5H8N2O2/c8-4-3(2-1-6-2)7-5(4)9/h2-4,6,8H,1H2,(H,7,9)/t2-,3+,4+/m1/s1
