21
gdb 103881	3.50424	0.81745	0.74665	4.7807	84.21	-0.258	0.0387	0.2967	1587.9332	0.181442	-383.27283	-383.26261	-383.261666	-383.30869	36.958	
C	 0.0101942464	 1.4656013253	-0.4894902756	-0.386825
C	-0.0314338492	 0.1444241575	 0.2889136911	-0.225974
C	-1.3995433087	-0.5239794284	 0.2625183331	 0.322899
C	-2.5009632176	 0.2326259923	 0.9846715718	-0.468124
N	-1.7408737915	-1.1856184303	-1.0134856194	-0.356322
C	-1.5516128997	-2.0077232462	 0.1877001332	-0.066843
C	-0.394415844	-2.9979008506	 0.1647949702	-0.352807
C	-0.8043291338	-4.291241829	-0.3838398432	 0.260274
N	-1.1490515466	-5.3095639686	-0.807372916	-0.306162
H	 1.0240977789	 1.8759463162	-0.5000857322	 0.115619
H	-0.3029702445	 1.3051280343	-1.5255373391	 0.134179
H	-0.6455232743	 2.2226288181	-0.0486780684	 0.116402
H	 0.7140719514	-0.532034464	-0.1378996285	 0.100299
H	 0.2596438376	 0.3143395995	 1.3337632205	 0.096715
H	-2.6862694734	 1.2049715754	 0.5165596476	 0.130249
H	-3.4402450638	-0.3293186352	 0.9714846718	 0.11666
H	-2.2337244484	 0.4151181513	 2.0313962083	 0.1258
H	-2.7288100183	-1.0834637163	-1.2307758737	 0.232996
H	-2.4429584425	-2.412147818	 0.6645348708	 0.098672
H	 0.425188257	-2.6091146346	-0.4442906741	 0.161633
H	-0.0078855349	-3.1587672487	 1.1783718719	 0.150658
44.3089	68.5219	109.6028	173.1405	199.6542	224.1739	252.0991	286.0519	368.2913	385.7219	401.734	452.3171	507.4254	593.6073	690.8528	781.577	826.0726	860.4728	944.1149	947.9549	972.8063	994.4279	1014.1642	1018.8713	1056.4823	1094.3735	1130.6456	1146.7794	1206.9989	1258.0396	1280.2595	1314.9114	1329.8722	1338.299	1388.1912	1406.5525	1419.0103	1451.5475	1466.4601	1475.0114	1489.5684	1501.7017	1507.4064	1510.1184	2362.3587	3026.6158	3031.1445	3041.6036	3047.0203	3083.3284	3096.6467	3101.2315	3107.0981	3112.3424	3117.4763	3123.8522	3503.1131
CCC1(C)NC1CC#N	CC[C@@]1(C)N[C@H]1CC#N	
InChI=1S/C7H12N2/c1-3-7(2)6(9-7)4-5-8/h6,9H,3-4H2,1-2H3	InChI=1S/C7H12N2/c1-3-7(2)6(9-7)4-5-8/h6,9H,3-4H2,1-2H3/t6-,7+/m0/s1
