20
gdb 94279	2.85085	1.63512	1.23241	2.5023	78.89	-0.228	0.0611	0.2891	1056.6945	0.172304	-403.051739	-403.044043	-403.043098	-403.083679	31.202	
O	 0.5346100911	 0.8827015083	-0.6707483681	-0.424562
C	 0.1372963348	-0.2394072418	 0.0807539321	 0.043521
C	 0.0434844015	-0.1453229157	 1.6260298452	-0.270481
C	-1.2070285052	-1.064770077	 1.5687034053	-0.335162
C	-1.3293900048	-0.7381247305	 0.0645739446	 0.383464
C	-2.5120355249	 0.0241449221	-0.5815390006	-0.146421
C	-1.9576093199	-0.5457844874	-1.9066399897	-0.181068
N	-1.8426015361	-1.7614123577	-0.9614904277	-0.191471
C	-3.240524587	-1.3313022292	-0.4762061872	-0.175243
H	-0.0155285957	 1.6279675648	-0.406502442	 0.280468
H	 0.8029994368	-1.0534897977	-0.2242959268	 0.107236
H	 0.9055600537	-0.4798034309	 2.2056419028	 0.107663
H	-0.2180686319	 0.8710029993	 1.9402392565	 0.094405
H	-0.9591679323	-2.1184798491	 1.7249644969	 0.120691
H	-2.046957038	-0.801546323	 2.2149484037	 0.104785
H	-2.8919412087	 1.0297283629	-0.3604727041	 0.056895
H	-2.6672743071	-0.7090498463	-2.7224529958	 0.095191
H	-1.0003009021	-0.1703404826	-2.2667268161	 0.128264
H	-3.501181696	-1.7134603615	 0.5131535225	 0.102881
H	-4.0311598282	-1.5397350967	-1.2024898815	 0.098942
104.7104	166.9019	228.2212	283.6815	323.913	369.7633	463.0939	474.6581	605.4137	630.5767	686.5778	761.1787	779.7909	805.616	825.6472	905.6954	920.9826	932.7403	961.5541	1008.3925	1030.4215	1052.3715	1063.3398	1097.6629	1106.6325	1125.2812	1152.9296	1167.9244	1193.2033	1200.3384	1222.6994	1226.6619	1228.8936	1257.8828	1265.537	1289.2104	1301.7022	1322.3135	1429.2644	1476.8719	1493.7384	1513.5762	1548.0821	3014.553	3048.6631	3055.0387	3061.4955	3064.5164	3067.2164	3110.5522	3121.5775	3123.7187	3154.0074	3805.8861
OC1CCC11C2CN1C2	O[C@H]1CC[C@]21[C@H]1CN2C1	
InChI=1S/C7H11NO/c9-6-1-2-7(6)5-3-8(7)4-5/h5-6,9H,1-4H2	InChI=1S/C7H11NO/c9-6-1-2-7(6)5-3-8(7)4-5/h5-6,9H,1-4H2/t6-,7+/m0/s1
