19
gdb 117595	2.12719	1.10453	0.90842	1.4104	83.86	-0.2687	0.0097	0.2784	1404.0178	0.154041	-385.813742	-385.802891	-385.801947	-385.849474	39.518	
C	 0.0275561234	 1.6096049673	 0.0292016163	-0.389982
C	 0.0056515493	 0.0787340998	 0.0179153148	-0.176491
C	 0.665155094	-0.5017861648	-1.2350032633	-0.188404
C	 0.7191752414	-2.0572669694	-1.2510047811	-0.05073
O	 1.3923061703	-2.5518188537	-0.0853840855	-0.44038
C	-0.6383852143	-2.6225019599	-1.2290790541	 0.397036
C	-1.7583150338	-3.054400957	-1.2307093716	-0.479143
C	 1.42084715	-2.5046750673	-2.4676309607	 0.306242
C	 2.048349527	-2.8305975454	-3.4391724191	-0.445759
H	 1.0529206698	 1.9954359905	 0.0008998609	 0.11204
H	-0.5037633659	 2.0231967879	-0.8352939987	 0.114539
H	-0.4498313881	 2.0030816029	 0.9318539436	 0.114738
H	 0.5191515588	-0.3131488567	 0.9017538988	 0.111563
H	-1.0283308448	-0.2786387406	 0.0776630585	 0.111922
H	 0.1432717451	-0.1684216697	-2.1390286128	 0.114749
H	 1.7002558088	-0.1467018783	-1.3201233082	 0.095736
H	 2.3335457085	-2.3888212682	-0.2177556827	 0.287173
H	-2.7436028399	-3.4513061008	-1.229385007	 0.202995
H	 2.5862129703	-3.1374986168	-4.3023351482	 0.202155
75.1383	99.279	116.0379	129.1349	184.3821	216.9605	242.4445	243.5997	285.6913	330.4013	408.0111	477.1717	513.1715	556.6887	613.2506	635.429	641.042	670.5275	671.6419	731.8197	754.1054	867.3979	906.8839	994.9211	1031.5246	1046.362	1078.4252	1138.1314	1158.1937	1256.8931	1303.611	1324.5311	1378.9086	1398.7245	1413.5902	1474.6354	1495.2968	1499.2681	1511.9442	2233.2597	2245.7165	3024.4731	3029.1042	3048.4818	3067.9761	3081.456	3102.641	3104.7028	3499.8711	3501.4385	3801.8295
CCCC(O)(C#C)C#C	CCCC(O)(C#C)C#C	
InChI=1S/C8H10O/c1-4-7-8(9,5-2)6-3/h2-3,9H,4,7H2,1H3	InChI=1S/C8H10O/c1-4-7-8(9,5-2)6-3/h2-3,9H,4,7H2,1H3
