13
gdb 43558	2.16465	1.65245	1.06139	2.6622	69.8	-0.2851	-0.0194	0.2657	1080.32	0.087869	-415.568827	-415.560678	-415.559734	-415.602133	29.25	
N	-0.0923536413	 1.2344862918	-0.4858552636	-0.521432
C	-0.0327528471	 0.0612478425	-0.0738301424	 0.457442
O	 1.0379078611	-0.6984545892	 0.3735082459	-0.246045
C	 0.1910786093	-1.8489408151	 0.6494499828	-0.034842
C	 0.1939529481	-2.2189857315	 2.058722349	 0.313032
N	 0.1986892105	-2.5388997958	 3.1682828793	-0.305958
C	-1.0564444251	-1.0622383085	 0.1054016748	-0.360794
C	-2.1822663354	-0.8345614719	 0.9789885391	 0.353093
C	-3.1143590786	-0.6577694607	 1.7142656866	-0.420315
H	 0.8156575369	 1.7004323199	-0.4730510367	 0.24582
H	 0.4886638217	-2.7036708517	 0.0373065581	 0.149384
H	-1.3785236076	-1.4630934166	-0.8604828723	 0.153961
H	-3.9337480825	-0.4930842231	 2.3702242394	 0.216653
69.7714	101.6512	141.0042	205.5809	268.762	371.7801	425.8348	453.6402	521.9111	604.6304	649.1072	654.5282	676.2526	775.9226	799.5988	865.4016	924.841	953.2993	994.4461	1050.3562	1103.4649	1168.2094	1196.403	1281.7861	1318.0427	1366.9589	1849.006	2251.5147	2368.4363	3070.62	3092.2878	3493.5505	3501.4789
N=C1OC(C#N)C1C#C	[NH][C]1O[C@@H](C#N)[C@H]1C#C	
InChI=1S/C6H4N2O/c1-2-4-5(3-7)9-6(4)8/h1,4-5,8H	InChI=1S/C6H4N2O/c1-2-4-5(3-7)9-6(4)8/h1,4-5,8H/t4-,5+/m1/s1
