16
gdb 112402	2.23986	1.47643	0.94792	2.1378	67.79	-0.2525	0.0026	0.255	1184.9105	0.12604	-471.262249	-471.253821	-471.252877	-471.295728	31.109	
O	 0.0863587135	 1.3719862064	-0.293335225	-0.417932
C	 0.0628855987	-0.0188758649	-0.0171403542	-0.072751
C	-1.3796313012	-0.5409619012	 0.0656935732	-0.076599
N	-2.1346579219	-0.2819325855	-1.1488996821	-0.34362
C	-2.4371029729	-1.4340542846	-1.8371250553	 0.450225
O	-2.9287535448	-1.5551911312	-2.9313552325	-0.390602
N	-2.0632242081	-2.4876396876	-0.9802909434	-0.396014
C	-1.4362859488	-2.0618140418	 0.1757866402	 0.392713
N	-0.9561452918	-2.702726575	 1.1608124517	-0.54516
H	-0.1579588411	 1.8428454877	 0.5102890859	 0.290952
H	 0.5778794674	-0.5034026222	-0.8528636802	 0.122105
H	 0.5919821087	-0.2785836637	 0.9078849676	 0.126022
H	-1.8704353287	-0.0950739812	 0.9404873862	 0.111051
H	-2.0100183618	 0.580595206	-1.6543515938	 0.267938
H	-2.2330949194	-3.4466457965	-1.2353731833	 0.266871
H	-1.0695829577	-3.7116570246	 1.0548408048	 0.214801
77.0822	120.0411	143.5841	179.8313	313.562	317.2699	396.2535	464.8421	468.4634	520.2789	588.0148	629.7396	650.0687	711.8255	764.163	860.4955	885.7485	972.04	990.6925	1030.0524	1082.9873	1099.4692	1131.4996	1205.9897	1226.9649	1285.7092	1346.7059	1358.152	1385.4352	1403.4762	1410.8865	1418.4206	1496.2344	1765.675	1873.7674	3021.6835	3033.3467	3094.0703	3468.6328	3655.2711	3662.8029	3813.7464
OCC1NC(=O)NC1=N	OC[C@H]1NC(=O)N[C]1[NH]	
InChI=1S/C4H7N3O2/c5-3-2(1-8)6-4(9)7-3/h2,8H,1H2,(H3,5,6,7,9)	InChI=1S/C4H7N3O2/c5-3-2(1-8)6-4(9)7-3/h2,8H,1H2,(H3,5,6,7,9)/t2-/m1/s1
