18
gdb 41415	3.41119	1.9065	1.5592	2.5996	73.78	-0.2106	0.0754	0.286	885.4978	0.15028	-401.868685	-401.862396	-401.861451	-401.898948	26.807	
C	-0.0378124753	 1.4032606084	 0.1137020709	-0.165229
C	 1.496114795	 1.5283434449	-0.0872197054	-0.344965
C	 1.4525288322	 0.0784823047	-0.5577044095	 0.300085
C	 2.3180802188	-1.1102361446	-0.2024830086	-0.131852
O	 1.5563549466	-2.2118439769	-0.7295349551	-0.27339
C	 0.6499729678	-1.6815214346	-1.6761409554	 0.114638
C	-0.3790400871	-0.6454541206	-1.2436573705	-0.070537
C	 0.9064644804	-0.2471443432	-1.9771668763	-0.210976
N	 0.0478492457	-0.1038061747	 0.0499889765	-0.144919
H	-0.4403750355	 1.7593016733	 1.064102664	 0.10969
H	-0.6176664616	 1.8382785425	-0.7078415252	 0.102122
H	 1.8659645333	 2.2735850265	-0.7935612605	 0.107978
H	 2.0304789835	 1.6356962995	 0.8604266077	 0.116065
H	 3.3168945735	-1.0731673328	-0.6639791393	 0.090554
H	 2.4164891368	-1.245531614	 0.8782530753	 0.116254
H	 0.3745065263	-2.3899689295	-2.4477999767	 0.106846
H	-1.4158429238	-0.6538307922	-1.5667130054	 0.088216
H	 1.1534082933	 0.2079685033	-2.9292270365	 0.089421
203.4523	246.1886	317.2005	394.7589	468.1872	549.7825	680.4092	692.2355	718.6288	771.9999	780.7679	806.2187	831.6376	898.2532	929.7202	944.4487	957.9295	961.5609	992.3469	1028.8716	1053.7878	1071.7132	1089.9885	1106.429	1118.3133	1157.1103	1197.3374	1203.6856	1215.8582	1222.8279	1268.9407	1280.1583	1302.499	1308.129	1372.4834	1404.6867	1480.7804	1500.5028	1502.5151	2986.7043	3039.676	3066.5156	3090.4548	3103.4374	3124.6167	3153.5791	3170.7709	3197.3534
C1CC23COC4C(C24)N13	C1C[C@]23CO[C@H]4[C@H]([C@@H]24)N13	
InChI=1S/C7H9NO/c1-2-8-5-4-6(5)9-3-7(1,4)8/h4-6H,1-3H2	InChI=1S/C7H9NO/c1-2-8-5-4-6(5)9-3-7(1,4)8/h4-6H,1-3H2/t4-,5+,6-,7+/m1/s1
