20
gdb 79136	2.48566	1.79023	1.27683	0.9864	77.32	-0.2279	0.0677	0.2957	1045.312	0.172514	-403.109285	-403.101475	-403.100531	-403.141178	31.441	
C	-0.0712436849	 1.4974963905	 0.0430080688	-0.416882
C	-0.0094562766	-0.0241690426	-0.011731797	 0.008569
C	 0.7924635367	-0.5428710344	-1.2189777187	-0.042831
C	 1.9720897664	-0.8563300376	-0.3567865273	-0.073833
C	 1.0972642098	-0.6461796427	 0.9069747321	-0.072616
C	 0.7091600505	-2.0655623028	 1.3158340963	 0.11515
O	-0.4586374357	-2.0415293072	 2.1206616656	-0.435942
C	 0.5309612399	-2.7513935049	-0.0702870862	-0.205403
N	 1.2614498171	-1.9285633801	-1.05422776	-0.107735
H	 0.9260743007	 1.9397989939	-0.0619336938	 0.11409
H	-0.6976933525	 1.8959570284	-0.7629048752	 0.113272
H	-0.4936295277	 1.8372481918	 0.9943370668	 0.119797
H	-1.0106312717	-0.4447032873	 0.125349137	 0.080482
H	 0.7514752158	-0.152693059	-2.2314741395	 0.085466
H	 3.0372361939	-0.7141628688	-0.4939201399	 0.088576
H	 1.4621659993	-0.0163885259	 1.718084492	 0.071145
H	 1.5399532786	-2.5366545093	 1.8651148684	 0.064503
H	-0.6758545867	-2.9465697907	 2.3634550504	 0.285822
H	 0.9489816289	-3.7627977493	-0.090317353	 0.099447
H	-0.5315890021	-2.8177722119	-0.3260477665	 0.108923
141.8765	171.0678	239.8311	259.6269	280.9221	331.6893	395.4186	482.7681	525.692	614.7341	692.2018	778.3694	794.5064	848.0814	851.294	888.2563	905.8048	946.1731	954.2189	1012.07	1024.2437	1040.3037	1058.7173	1083.7223	1096.5627	1116.2538	1145.7655	1180.0129	1205.2127	1225.9806	1234.3025	1246.3143	1275.6122	1284.6588	1317.2648	1346.2067	1353.1038	1381.6298	1411.5912	1430.2053	1496.4308	1498.6593	1503.3688	2968.8567	3025.3739	3043.514	3055.9753	3088.8668	3091.8398	3099.1899	3117.716	3153.7758	3184.2975	3824.8118
CC1C2C3C1C(O)CN23	C[C@H]1[C@H]2[C@H]3[C@@H]1[C@@H](O)CN23	
InChI=1S/C7H11NO/c1-3-5-4(9)2-8-6(3)7(5)8/h3-7,9H,2H2,1H3	InChI=1S/C7H11NO/c1-3-5-4(9)2-8-6(3)7(5)8/h3-7,9H,2H2,1H3/t3-,4+,5+,6+,7-,8?/m1/s1
