14
gdb 20495	8.98389	1.00228	0.90679	2.8674	78.12	-0.2216	-0.0115	0.2102	1233.2611	0.10869	-341.589712	-341.582096	-341.581152	-341.623765	26.369	
C	-0.0915521392	 1.4630605793	 0.0105500409	-0.509096
C	-0.0016140236	 0.0122092709	 0.0025688619	 0.173826
C	 0.0814172316	-1.1917583552	-0.0040915782	-0.037653
C	 0.1619871878	-2.5992775908	-0.0117953891	 0.242918
C	 1.2412319742	-3.4745086686	-0.0227728968	-0.328194
C	 0.6658181904	-4.7576805689	-0.0258961749	-0.014937
N	-0.6660799159	-4.7078257612	-0.017619336	-0.211317
N	-0.947567809	-3.3974301245	-0.009207505	-0.278243
H	 0.9056521632	 1.9162015196	 0.0033838112	 0.157293
H	-0.6315789247	 1.8345799687	-0.8676023617	 0.153976
H	-0.6149394236	 1.8259189211	 0.9022973963	 0.153978
H	 2.2835667622	-3.2031140443	-0.0276517025	 0.109411
H	 1.1639324885	-5.7159268117	-0.0338085011	 0.112699
H	-1.906538562	-3.0923206443	-0.0018574049	 0.27534
11.6108	98.5979	109.8746	279.3492	312.9833	461.9906	476.7473	525.4121	528.9279	681.7257	706.3786	812.7815	895.5609	933.4062	949.6404	1050.5044	1050.7643	1058.6483	1085.0157	1146.8924	1264.2855	1290.5474	1363.0147	1412.8209	1426.8452	1472.2334	1473.1993	1476.1365	1593.0708	2358.2337	3026.6045	3085.7473	3092.5307	3247.5156	3279.8922	3669.9355
CC#CC1=CC=NN1	CC#Cc1ccn[nH]1	
InChI=1S/C6H6N2/c1-2-3-6-4-5-7-8-6/h4-5H,1H3,(H,7,8)	InChI=1S/C6H6N2/c1-2-3-6-4-5-7-8-6/h4-5H,1H3,(H,7,8)
