23
gdb 104089	2.31591	1.35992	1.1545	1.572	85.79	-0.2484	0.0118	0.2602	1225.4349	0.205244	-388.306775	-388.297064	-388.29612	-388.340743	37.766	
C	 0.101337909	 1.5560947851	-0.0513294132	-0.398233
C	-0.0046169287	 0.0275555669	 0.0053399135	-0.199886
C	-1.4376664925	-0.5335663635	 0.0010735237	 0.265588
C	-2.2320565163	-0.0496410753	 1.2282203921	-0.431819
C	-2.2333450484	-0.180924021	-1.2943719042	-0.300379
C	-3.002729263	-1.439927608	-1.6043294971	-0.063175
C	-2.6111817202	-2.4714211107	-0.8568720927	-0.115222
C	-1.4451301723	-2.1093302766	 0.0288826066	 0.066545
O	-0.244912478	-2.741167023	-0.4229390245	-0.433168
H	 1.1503146357	 1.8642243919	-0.1039220116	 0.111626
H	-0.4050021773	 1.9660639649	-0.9321342917	 0.112747
H	-0.3337748383	 2.0328531445	 0.8322575815	 0.11643
H	 0.5404034112	-0.4010022976	-0.8423896665	 0.084599
H	 0.5141849326	-0.3401982539	 0.8993113579	 0.096787
H	-2.3717437488	 1.0351816408	 1.2181118882	 0.113219
H	-3.2253311894	-0.5103999274	 1.253353707	 0.11566
H	-1.7160751036	-0.314180881	 2.1579423964	 0.111652
H	-2.894206503	 0.6816269108	-1.1480344821	 0.103995
H	-1.5718718824	 0.0865144578	-2.1308559414	 0.100415
H	-3.7804036196	-1.4757127306	-2.3607373217	 0.095773
H	-2.999106476	-3.482607665	-0.911456292	 0.095772
H	-1.5559588756	-2.4648013614	 1.0593158824	 0.077447
H	-0.2387861351	-2.6898252277	-1.3850730806	 0.273627
85.328	104.6731	186.1249	212.6629	248.4138	284.5337	304.2955	330.9201	349.2838	361.9258	409.8142	494.2802	528.518	626.1324	743.8222	766.2368	782.8775	795.468	898.934	916.8208	927.3127	974.0359	982.2977	1000.0791	1016.4646	1023.1452	1050.7059	1079.1384	1131.9544	1141.6059	1182.2215	1204.6283	1245.5567	1262.0397	1293.8623	1314.2032	1345.6803	1363.2242	1376.243	1403.1815	1412.2369	1432.8244	1473.3691	1482.8688	1498.056	1498.6951	1506.6995	1511.2757	1681.744	3004.755	3027.3683	3032.2213	3033.8777	3046.6541	3050.4291	3065.5289	3095.3202	3098.2746	3101.3715	3109.1294	3175.6067	3203.6042	3800.949
CCC1(C)CC=CC1O	CC[C@@]1(C)CC=C[C@H]1O	
InChI=1S/C8H14O/c1-3-8(2)6-4-5-7(8)9/h4-5,7,9H,3,6H2,1-2H3	InChI=1S/C8H14O/c1-3-8(2)6-4-5-7(8)9/h4-5,7,9H,3,6H2,1-2H3/t7-,8+/m1/s1
