19
gdb 30164	3.75393	1.33256	1.11419	1.9655	82.54	-0.1632	0.0502	0.2133	1129.4401	0.16279	-382.100599	-382.092821	-382.091877	-382.13269	31.022	
C	 0.2167654599	 1.4695534978	 0.0596981103	-0.393537
C	-0.0411940635	-0.0367755125	-0.0339475058	 0.05502
C	 0.679558043	-0.6670824877	-1.2831530061	-0.368302
C	 1.885667195	-1.240998053	-0.6180592104	 0.279172
C	 1.7481505484	-1.2801492103	 0.7413562504	 0.303904
N	 0.4975807146	-0.7656903173	 1.159789313	-0.415585
C	 2.8761313483	-1.9418303063	 1.2921624126	-0.314686
C	 3.6695803233	-2.2918192412	 0.2121050683	-0.071883
N	 3.054867168	-1.880747946	-0.9493802796	-0.372766
H	 1.2928536449	 1.6714436843	 0.0942573134	 0.126492
H	-0.2047322467	 1.9944714276	-0.8044512986	 0.112516
H	-0.2430511193	 1.8918359258	 0.9603045415	 0.110046
H	-1.1199927749	-0.2120138611	-0.0950877592	 0.075929
H	 0.0479806933	-1.4335483488	-1.7542879907	 0.106074
H	 0.8776543667	 0.09711776	-2.0451380447	 0.09749
H	 0.5540207129	-0.1538515542	 1.9671233125	 0.216944
H	 3.0997077488	-2.1432539819	 2.3282186796	 0.086552
H	 4.6284457251	-2.784338668	 0.1826443121	 0.110969
H	 3.432307272	-1.9980609572	-1.8723333785	 0.25565
80.3317	178.7874	246.6435	273.5295	345.5627	383.8788	411.016	455.0711	620.2654	624.665	659.4912	679.3338	715.3646	740.9322	791.1065	815.042	856.9567	923.0017	937.8783	944.4471	1042.9407	1070.3125	1085.2032	1093.5044	1129.0488	1163.5912	1200.6477	1246.5113	1283.274	1321.9543	1343.77	1374.5853	1400.1152	1402.2205	1459.5594	1479.3968	1493.3453	1494.7006	1501.1313	1541.0676	1633.8751	2993.1164	3024.2562	3030.9095	3048.0592	3092.2081	3104.2037	3245.7429	3266.5529	3516.6546	3690.7717
CC1CC2=C(N1)C=CN2	C[C@H]1Cc2c(N1)cc[nH]2	
InChI=1S/C7H10N2/c1-5-4-7-6(9-5)2-3-8-7/h2-3,5,8-9H,4H2,1H3	InChI=1S/C7H10N2/c1-5-4-7-6(9-5)2-3-8-7/h2-3,5,8-9H,4H2,1H3/t5-/m0/s1
