15
gdb 133220	4.74939	1.00625	0.89368	3.7861	69.88	-0.2493	-0.0834	0.1659	1261.1866	0.112482	-458.113351	-458.105573	-458.104629	-458.146758	28.035	
C	 0.0343955376	 1.5020911516	-0.3086457318	-0.375981
C	-0.0323563457	 0.0406289928	 0.167234902	-0.27
C	-1.4281080441	-0.5174907904	 0.0928508602	 0.332617
C	-1.8752523746	-1.3281880058	-0.9592781113	-0.051971
N	-3.120763215	-1.7784590642	-1.0071887349	-0.2794
C	-3.8670970388	-1.3880572156	 0.0140280317	 0.389678
F	-5.1146692722	-1.8032772995	 0.0129759834	-0.045302
N	-3.5215673432	-0.6344071935	 1.0453140502	-0.241881
N	-2.2693781796	-0.1928380562	 1.0785075909	-0.226689
H	 1.0534925824	 1.888682045	-0.2203207383	 0.12427
H	-0.2742727893	 1.5939085788	-1.3550329769	 0.120881
H	-0.6264452284	 2.1291309425	 0.2961196961	 0.144516
H	 0.6399050413	-0.5811873628	-0.4338974911	 0.109881
H	 0.3053844985	-0.0200248516	 1.2061341359	 0.133872
H	-1.2108067288	-1.6193429108	-1.7699704161	 0.135511
40.0324	90.6527	208.0057	217.7626	329.4699	399.4367	436.7932	485.317	528.5669	607.6691	663.6748	759.7842	791.9669	840.0877	897.8941	977.6646	982.008	1065.0427	1080.9252	1084.1097	1150.3763	1256.5756	1275.341	1346.8704	1362.7141	1381.6242	1409.0964	1473.1656	1480.7883	1496.8836	1507.7996	1563.5801	1605.4325	3040.8653	3047.7236	3090.5497	3115.0143	3125.8846	3156.7159
CCC1=CN=C(F)N=N1	CCc1cnc(F)nn1	
InChI=1S/C5H6FN3/c1-2-4-3-7-5(6)9-8-4/h3H,2H2,1H3	InChI=1S/C5H6FN3/c1-2-4-3-7-5(6)9-8-4/h3H,2H2,1H3
