17
gdb 110751	2.36952	1.3905	1.26545	2.0683	70.44	-0.2392	-0.011	0.2282	1095.3456	0.133759	-458.934698	-458.925834	-458.92489	-458.968585	32.349	
C	-0.3282828215	 1.0359669103	-0.0727611536	-0.244261
O	 0.6018725324	-0.0159533305	 0.1184836098	-0.238687
C	 0.9349677314	-0.6722721463	-1.0610101083	 0.077688
C	 1.4307718541	-2.0636005037	-1.0058486392	-0.206911
C	 0.6434827889	-2.8615684267	 0.039221406	-0.34406
C	-0.6018321796	-2.6427175665	-0.8480333884	 0.331435
O	-1.5993252135	-3.2957183888	-1.0278878408	-0.346577
C	 0.0329059767	-1.6542654807	-1.7539382261	 0.244445
O	-0.3365883545	-1.467540797	-3.0537787013	-0.443508
H	 0.0707993968	 1.808669295	-0.7460987229	 0.112952
H	-1.2751954574	 0.6653754107	-0.488233762	 0.124939
H	-0.51383431	 1.4792822328	 0.9075291646	 0.133616
H	 1.4362022561	-0.0369098868	-1.7975151025	 0.106897
H	 2.3528485574	-2.3842123532	-1.4719146229	 0.120729
H	 0.8986340716	-3.9220680814	 0.0928541499	 0.128331
H	 0.6174187273	-2.4264247446	 1.0387093784	 0.138873
H	-0.8291868661	-2.2548577226	-3.3241382307	 0.304099
64.145	103.4519	155.3349	179.1752	225.391	271.0629	357.9652	407.3698	442.3756	467.9404	533.8478	630.5995	674.8467	711.2416	764.5824	861.1152	900.1237	952.4333	1006.7043	1013.8962	1049.6576	1092.4823	1118.9628	1153.0046	1180.5099	1206.3557	1219.5894	1249.4781	1295.6662	1356.2824	1389.4178	1451.3623	1466.6546	1486.8272	1495.859	1511.0208	1836.8695	2991.6645	3048.1403	3069.4847	3082.263	3128.2199	3141.1823	3213.4289	3755.3198
COC1C2CC(=O)C12O	CO[C@H]1[C@H]2CC(=O)[C@@]12O	
InChI=1S/C6H8O3/c1-9-5-3-2-4(7)6(3,5)8/h3,5,8H,2H2,1H3	InChI=1S/C6H8O3/c1-9-5-3-2-4(7)6(3,5)8/h3,5,8H,2H2,1H3/t3-,5+,6-/m1/s1
