18
gdb 80636	2.72339	1.64705	1.28915	3.7252	74.93	-0.2316	0.0167	0.2483	1009.8635	0.150846	-398.095034	-398.087394	-398.08645	-398.126992	30.069	
N	-0.089032982	 1.4692234638	 0.1886565332	-0.512685
C	-0.0636043656	 0.0373325977	-0.0156064419	 0.00975
C	-1.4493485169	-0.5729878023	-0.2899568941	-0.01913
C	-1.067522409	-1.9898958604	-0.7716100325	-0.187083
N	-0.4853673135	-1.3040981394	-2.0005033381	-0.122965
C	-1.6192776179	-0.3099228086	-1.8087401425	-0.199008
C	 0.6365033086	-0.5679750984	-1.3370466	-0.170844
C	 1.2040237745	 0.4619456389	-2.1989164487	 0.292578
N	 1.6466472252	 1.3165376462	-2.8394558348	-0.330878
H	 0.8392400229	 1.8200458676	 0.4016368597	 0.240291
H	-0.3908167045	 1.9609632226	-0.6468286755	 0.239087
H	 0.3952749583	-0.4130243211	 0.869425687	 0.091641
H	-2.2201649142	-0.3681371119	 0.4526151408	 0.082974
H	-0.3542670383	-2.5805639205	-0.1880757102	 0.105147
H	-1.9164060971	-2.6083318609	-1.0680575544	 0.119345
H	-2.5380451696	-0.7239079495	-2.2274397246	 0.120876
H	-1.4405912754	 0.6855402073	-2.2235823625	 0.118206
H	 1.4255217243	-1.282622471	-1.0864291408	 0.122697
119.9797	147.8288	210.9814	233.658	339.0663	407.1585	478.8606	502.926	534.0814	603.7382	708.8447	778.9934	825.6489	831.4639	860.7724	870.7307	891.3426	931.44	968.1172	1012.3381	1031.6274	1052.5275	1085.7803	1109.2934	1135.6909	1173.5128	1207.7586	1214.5841	1236.5726	1261.6342	1268.6364	1296.251	1309.2431	1352.4513	1435.9793	1503.4912	1536.6019	1662.6589	2354.9498	3053.7235	3062.6017	3067.9935	3076.8306	3122.1335	3126.5275	3131.4189	3505.0892	3579.9909
NC1C2CN(C2)C1C#N	N[C@H]1[C@@H]2CN(C2)[C@H]1C#N	
InChI=1S/C6H9N3/c7-1-5-6(8)4-2-9(5)3-4/h4-6H,2-3,8H2	InChI=1S/C6H9N3/c7-1-5-6(8)4-2-9(5)3-4/h4-6H,2-3,8H2/t5-,6-/m0/s1
