22
gdb 13416	5.33911	0.93804	0.84226	1.3794	78.06	-0.2609	0.0803	0.3412	1400.8451	0.201616	-350.21991	-350.210874	-350.20993	-350.254709	32.76	
O	-0.0073406434	 1.4465828876	-0.1758213985	-0.421353
C	 0.0478351541	 0.0319811551	-0.0542234566	-0.077658
C	-1.3829297675	-0.4865594852	 0.0241077968	-0.189721
C	-1.4865021975	-2.011033969	 0.0945109457	 0.046052
C	-0.8846411892	-2.65414976	 1.3663214812	-0.202187
C	-1.6186831462	-4.0134232924	 1.5486077988	-0.206048
C	-2.7768751128	-4.0140795267	 0.5142907165	-0.204725
C	-2.9298537453	-2.5442271449	 0.093299567	-0.209466
H	 0.8936932489	 1.7812943567	-0.1989038248	 0.28357
H	 0.5586592104	-0.4217248259	-0.9203817076	 0.080547
H	 0.6087621368	-0.265526526	 0.8457187382	 0.086074
H	-1.8692115641	-0.0403159769	 0.9014613575	 0.098825
H	-1.923870171	-0.1146978974	-0.854873804	 0.100261
H	-0.9747620811	-2.436171134	-0.782483142	 0.063989
H	 0.2008965452	-2.772468673	 1.3038822728	 0.092722
H	-1.0800806678	-2.0001489471	 2.2251057157	 0.094681
H	-0.9469923667	-4.8618695584	 1.3900953105	 0.095747
H	-2.0018178209	-4.1094377385	 2.5687990725	 0.098203
H	-2.5011865495	-4.6171355888	-0.3584481672	 0.095531
H	-3.7001703202	-4.44165111	 0.9150493464	 0.092261
H	-3.5209309877	-1.9932755099	 0.8377481475	 0.09217
H	-3.4300987043	-2.4213619854	-0.8724137662	 0.090526
35.5208	89.1095	101.6932	129.1751	216.8131	268.3213	329.8263	358.3653	444.0069	588.8682	629.2915	767.9646	795.7655	831.2973	870.0519	897.276	943.6715	948.7343	988.7813	1008.7352	1037.9669	1044.1233	1066.8441	1109.0736	1117.1837	1196.4804	1207.7986	1214.2907	1241.3855	1252.6821	1278.4807	1293.2824	1308.3831	1317.4377	1323.7323	1342.6885	1347.4521	1362.0215	1392.9982	1461.9586	1487.1828	1489.4928	1495.2247	1497.06	1518.2843	1527.8533	2956.8121	2984.0047	2988.799	3016.575	3022.9523	3029.4859	3036.6052	3054.5078	3064.721	3072.0576	3080.7355	3085.9224	3101.4731	3830.0711
OCCC1CCCC1	OCCC1CCCC1	
InChI=1S/C7H14O/c8-6-5-7-3-1-2-4-7/h7-8H,1-6H2	InChI=1S/C7H14O/c8-6-5-7-3-1-2-4-7/h7-8H,1-6H2
