18
gdb 115074	3.2566	1.33128	1.0457	1.1579	71.96	-0.238	0.0127	0.2507	1137.6141	0.14929	-439.076751	-439.068845	-439.067901	-439.109444	30.325	
O	 0.0956513805	 1.3831590049	-0.046971195	-0.422907
C	 0.0537623475	-0.027435672	-0.0843716208	-0.059894
C	-1.3602084253	-0.5647134821	 0.1130617709	 0.077238
O	-2.1415550637	 0.0200495783	-0.9596595094	-0.265328
C	-3.2856990759	-0.6073357929	-1.3382492735	 0.115979
N	-3.6227425836	-1.8111389505	-1.1526923838	-0.253691
C	-2.6939252233	-2.6692553304	-0.4812658616	 0.008154
C	-1.3316973302	-2.8959372634	-1.1073668718	-0.302269
C	-1.4592690093	-2.0719096484	 0.1483155443	-0.069436
H	-0.5412781305	 1.6924372154	-0.7010047082	 0.292081
H	 0.4559484134	-0.4260221482	-1.0287404592	 0.095237
H	 0.6901837569	-0.3891210814	 0.7300736585	 0.11119
H	-1.7623149111	-0.1572514029	 1.0508165491	 0.098325
H	-3.9293363239	 0.0781501048	-1.8853749368	 0.126238
H	-3.1669157815	-3.5180331163	-0.0004779754	 0.100533
H	-0.8889777655	-3.882384957	-1.0264086172	 0.120574
H	-1.1369637185	-2.388950482	-2.0463491552	 0.129949
H	-1.099444746	-2.5091757358	 1.0750749651	 0.098027
81.6608	120.7617	171.6025	266.1385	326.9002	374.9003	417.8397	471.7302	544.411	573.7547	638.9111	770.8375	801.7886	827.0334	866.3413	911.4455	937.261	980.4274	995.4833	1043.796	1057.3335	1087.1213	1105.5761	1111.0519	1124.6798	1147.7814	1175.9951	1216.9375	1237.8789	1315.2513	1361.0144	1376.4894	1394.6811	1407.1615	1411.6143	1436.6154	1481.9421	1494.9676	1723.3062	2988.849	3017.7824	3080.071	3135.7436	3151.3697	3164.3152	3171.2462	3224.7528	3806.0338
OCC1OC=NC2CC12	OC[C@H]1OC=N[C@H]2C[C@@H]12	
InChI=1S/C6H9NO2/c8-2-6-4-1-5(4)7-3-9-6/h3-6,8H,1-2H2	InChI=1S/C6H9NO2/c8-2-6-4-1-5(4)7-3-9-6/h3-6,8H,1-2H2/t4-,5+,6-/m1/s1
