24
gdb 100125	2.6705	0.86541	0.77806	2.9853	90.84	-0.2406	0.0328	0.2735	1659.0179	0.213389	-405.559528	-405.547976	-405.547031	-405.596257	41.741	
C	 0.1008052169	 1.5906673854	 0.0453227628	-0.399707
C	 0.0585276856	 0.0629375906	-0.049531887	-0.181421
C	 0.6790385449	-0.5384006185	-1.3253380893	 0.348761
C	 0.6247625933	-2.0697892205	-1.2469470601	-0.416711
C	-0.0138264978	-0.0195362572	-2.5930647513	-0.419708
O	 2.060923997	-0.0872211056	-1.2742769936	-0.247371
C	 2.9118513317	-0.4224962171	-2.2587392231	 0.125721
N	 4.1108399094	-0.036568985	-2.2229196772	-0.21422
C	 4.966490779	-0.4383272205	-3.318471652	-0.312793
H	 1.1236015059	 1.9557451641	-0.0738414205	 0.144448
H	-0.5242776555	 2.068722709	-0.7151532943	 0.112476
H	-0.2670156878	 1.918446329	 1.0222666907	 0.112172
H	 0.5947929283	-0.3654046852	 0.8048266618	 0.106757
H	-0.9766536304	-0.2919939576	 0.0192215518	 0.093102
H	-0.4144099346	-2.4054961853	-1.1770320678	 0.120041
H	 1.0648845035	-2.5410105138	-2.1304637859	 0.114445
H	 1.1627777501	-2.4242834299	-0.3633521422	 0.130071
H	 0.1357387485	 1.0563383824	-2.7069284345	 0.135105
H	 0.3608468038	-0.5134166403	-3.4939517273	 0.115784
H	-1.0892481956	-0.2144376049	-2.5356561782	 0.120739
H	 2.4899259925	-1.0375677827	-3.0657499925	 0.07362
H	 4.4614370772	-1.0532009225	-4.0829453348	 0.090127
H	 5.377410097	 0.4499896922	-3.8125880442	 0.124235
H	 5.8199743673	-1.008094006	-2.9323905613	 0.124328
62.7553	81.2188	97.9945	135.6207	202.9131	207.268	225.1588	241.2836	271.9411	312.8063	323.3737	346.1603	371.1689	409.1611	475.858	524.8887	563.7522	753.8471	789.7766	884.6088	925.8543	947.7702	981.7233	1002.883	1012.1245	1062.6451	1075.1439	1085.4276	1141.3407	1149.9518	1200.49	1220.2876	1244.6583	1270.05	1326.9864	1377.8161	1400.3487	1405.5886	1409.0256	1425.7537	1449.8098	1471.752	1479.7864	1481.6008	1491.5692	1498.2888	1502.1516	1506.2513	1508.0434	1515.0302	1767.5205	2956.4821	3013.9799	3032.2919	3041.9128	3044.2821	3049.6116	3051.7085	3070.6991	3071.2346	3106.2023	3109.312	3115.3402	3121.2129	3130.4525	3132.9564
CCC(C)(C)OC=NC	CCC(C)(C)OC=NC	
InChI=1S/C7H15NO/c1-5-7(2,3)9-6-8-4/h6H,5H2,1-4H3	InChI=1S/C7H15NO/c1-5-7(2,3)9-6-8-4/h6H,5H2,1-4H3
