19
gdb 96288	2.05765	1.74168	1.13342	4.3657	71.92	-0.259	0.0129	0.2718	1123.8268	0.159853	-460.1896	-460.181048	-460.180104	-460.223273	31.927	
C	 0.4038393391	 1.2809817168	 0.2023257362	-0.40727
C	-0.2630139769	-0.0436470692	-0.152707653	 0.134291
C	 0.2819036306	-0.6272119339	-1.482963832	-0.123946
O	 0.1500042648	-2.025404675	-1.5620309922	-0.232856
C	 1.2689313097	-2.7212147845	-1.0378155593	-0.071417
C	 1.7892650879	-2.1313623215	 0.2827138468	-0.374824
C	 0.6709211334	-1.8791662344	 1.2789808484	 0.420985
O	 0.5540792325	-2.4950787862	 2.3036729203	-0.319334
O	-0.2478847045	-0.9290823789	 0.9853810806	-0.234447
H	 1.4762694234	 1.1491563019	 0.3818447045	 0.123876
H	 0.2834010551	 1.9972256601	-0.6176442197	 0.125125
H	-0.0457973786	 1.7074246396	 1.1019131961	 0.141391
H	-1.3360580132	 0.1224859385	-0.2868853547	 0.109319
H	-0.3119991688	-0.1993320523	-2.2973890263	 0.120852
H	 1.3227807423	-0.3137765267	-1.6500605227	 0.095226
H	 0.9321488519	-3.7500590062	-0.882940781	 0.132275
H	 2.0895495295	-2.7373846873	-1.7720665627	 0.099846
H	 2.4815411717	-2.8353071899	 0.7478812382	 0.138208
H	 2.3378848202	-1.2021918509	 0.0987470024	 0.122701
58.7457	81.1435	206.4855	231.8526	254.1711	336.2066	360.1806	392.8752	444.4497	510.8129	551.3369	640.677	698.6641	764.0301	863.2439	871.8462	923.9663	947.4039	981.4059	1014.9353	1080.2332	1083.6797	1125.4846	1165.5092	1183.2368	1216.6659	1251.7989	1269.0876	1315.9161	1347.7135	1353.1104	1397.5934	1409.2728	1419.4546	1431.5461	1475.9709	1485.2486	1496.6808	1506.4545	1518.7021	1837.6029	2983.7894	2995.3007	3036.5078	3055.5856	3060.6312	3076.7342	3091.7143	3105.5698	3127.0032	3129.191
CC1COCCC(=O)O1	C[C@H]1COCCC(=O)O1	
InChI=1S/C6H10O3/c1-5-4-8-3-2-6(7)9-5/h5H,2-4H2,1H3	InChI=1S/C6H10O3/c1-5-4-8-3-2-6(7)9-5/h5H,2-4H2,1H3/t5-/m0/s1
