16
gdb 86516	4.11484	0.95021	0.83729	3.9901	71.27	-0.2728	-0.0889	0.1839	1353.3098	0.122235	-437.885761	-437.876736	-437.875792	-437.92092	31.246	
C	-0.5956193747	 1.2783433695	 0.1210125279	-0.401056
C	 0.2033797873	 0.0073005994	-0.0577961593	 0.164268
C	 1.0817714187	-0.1378079872	-1.3249555108	-0.317686
C	 2.2407240625	-0.2987709751	-0.3017467541	 0.026396
O	 1.3837116446	-0.0318890326	 0.7975890861	-0.281935
C	 2.8351428631	-1.6957848777	-0.2673311883	 0.277083
O	 2.5569648456	-2.5573065642	 0.5219855192	-0.251148
C	 3.809655933	-1.940316281	-1.3594175087	 0.209939
N	 4.5580753376	-2.101954842	-2.2260653621	-0.292285
H	 0.0210928098	 2.1594199081	-0.0808189134	 0.124135
H	-1.4532956153	 1.2857958888	-0.5602824925	 0.125049
H	-0.9728676379	 1.3480018603	 1.1457448024	 0.138928
H	-0.4206885561	-0.8741300098	 0.1341209148	 0.098701
H	 0.8762773671	-0.9941468758	-1.9684460558	 0.131402
H	 1.1551641515	 0.765526446	-1.9315700835	 0.129738
H	 3.0613916132	 0.4260517232	-0.3956947916	 0.118471
44.7363	46.1106	121.2197	186.1192	229.5581	237.4299	292.6139	350.5713	416.9446	500.1943	576.8772	698.9961	746.3592	780.1318	880.7324	890.4778	918.6219	974.2108	1033.4885	1066.1227	1085.4051	1123.1401	1140.5333	1196.5738	1239.3879	1253.202	1311.0412	1361.4984	1391.6088	1411.1372	1481.5733	1488.123	1493.9517	1810.7628	2334.466	3013.4463	3031.3947	3036.3449	3086.6987	3110.4762	3117.3675	3145.5046
CC1CC(O1)C(=O)C#N	C[C@H]1C[C@@H](O1)C(=O)C#N	
InChI=1S/C6H7NO2/c1-4-2-6(9-4)5(8)3-7/h4,6H,2H2,1H3	InChI=1S/C6H7NO2/c1-4-2-6(9-4)5(8)3-7/h4,6H,2H2,1H3/t4-,6+/m0/s1
