15
gdb 76941	3.09156	1.2175	1.1336	2.7356	72.01	-0.2451	-0.0529	0.1923	1104.1954	0.109112	-457.712232	-457.70348	-457.702536	-457.74531	32.83	
O	 0.1638335343	 1.187398668	 0.2971547829	-0.434161
C	 0.0589195397	-0.1906708669	 0.1911949501	 0.028278
C	-0.5738825308	-0.9842070043	 1.3282591703	-0.263303
C	-1.0549884689	-0.2834527601	 2.5193122656	 0.164417
O	-1.1987491708	 0.927292139	 2.5942754792	-0.312608
C	-1.3238166808	-0.7255840097	-0.0630717442	 0.16499
O	-2.3391556296	 0.2029655537	-0.0978552676	-0.43759
C	-1.5271486141	-1.8984972883	-0.8605280321	 0.314891
C	-1.6744007824	-2.8921075533	-1.5213220303	-0.410165
H	-0.2056235648	 1.4410070218	 1.1673364548	 0.317868
H	 0.8952593668	-0.6464476538	-0.3293882159	 0.13138
H	-0.2518546234	-2.0087765715	 1.4687352213	 0.123273
H	-1.299224153	-0.9239384355	 3.3887890485	 0.110043
H	-1.9072854517	 1.0691790967	-0.1761874714	 0.298459
H	-1.8143445005	-3.7615479558	-2.1154758411	 0.204229
119.741	125.9445	163.5095	218.5268	251.8791	290.6126	378.4449	400.0038	419.1212	507.9483	522.4088	584.0778	599.3635	682.586	690.9107	730.1046	778.1658	832.8478	847.2588	970.091	1017.1401	1069.2902	1090.8569	1100.6622	1198.8497	1283.0414	1341.5536	1357.6976	1424.0344	1427.5949	1484.397	1744.5084	2237.0268	2945.2847	3164.2568	3194.391	3499.4009	3511.4071	3689.5689
OC1C(C=O)C1(O)C#C	O[C@H]1[C@@H](C=O)[C@]1(O)C#C	
InChI=1S/C6H6O3/c1-2-6(9)4(3-7)5(6)8/h1,3-5,8-9H	InChI=1S/C6H6O3/c1-2-6(9)4(3-7)5(6)8/h1,3-5,8-9H/t4-,5+,6-/m1/s1
