23
gdb 112615	2.92992	0.91983	0.838	2.6385	82.	-0.2501	0.0699	0.3199	1500.5044	0.203707	-425.414666	-425.404196	-425.403252	-425.450241	39.159	
C	 0.280175284	 1.167536525	 0.4385654597	-0.409047
C	 0.2310947963	-0.2823642886	-0.0551900293	-0.221824
C	 0.6861919349	-0.465004878	-1.506746205	 0.434715
O	-0.1271044002	 0.2814549891	-2.3998106259	-0.484869
C	 2.2282050761	-0.3183591405	-1.7481800927	-0.323934
C	 2.3189385306	-1.8409701432	-2.0570642797	 0.042887
C	 3.0734657837	-2.6553526218	-1.0225539824	-0.087239
O	 2.8994662886	-4.0293287825	-1.3352144385	-0.420851
C	 0.7691498547	-1.9394820787	-1.9794144751	-0.276309
H	 1.2861804926	 1.5928518521	 0.3475840663	 0.118621
H	-0.4101902381	 1.8069399319	-0.1231017495	 0.112593
H	-0.0111644723	 1.2340656055	 1.490827913	 0.119554
H	 0.8558159705	-0.9099416175	 0.5919685974	 0.094012
H	-0.7929192403	-0.6672217498	 0.0280706453	 0.103087
H	-0.0338999689	 1.214916351	-2.1816609925	 0.273761
H	 2.4462309782	 0.3141031979	-2.6113207345	 0.099341
H	 2.8211891936	 0.0308166363	-0.8960173613	 0.087373
H	 2.7280052706	-2.0769041342	-3.0425343319	 0.079609
H	 4.1393439069	-2.3719834372	-1.0362771234	 0.08284
H	 2.6910423374	-2.428387358	-0.0127526955	 0.080536
H	 3.3449667512	-4.5516169086	-0.6619391632	 0.285686
H	 0.3787290316	-2.6900531955	-1.287132512	 0.099668
H	 0.2873621384	-2.0690348747	-2.9497891894	 0.10979
45.1303	103.806	127.9746	173.0853	220.7054	245.998	259.2051	288.8352	314.644	351.362	363.4783	429.3858	480.8182	487.8742	654.4387	782.9171	788.199	823.4521	842.0566	910.6993	925.6116	965.4743	988.6006	1013.0316	1021.5815	1058.9281	1078.7566	1098.409	1111.4663	1171.9667	1184.7081	1223.346	1242.7506	1261.7531	1269.9318	1283.1443	1296.0044	1318.883	1334.5199	1364.8042	1387.0191	1409.6247	1458.7634	1461.068	1477.5063	1481.0041	1500.5103	1512.8049	1518.5083	2951.318	2977.2683	3024.8319	3029.8134	3043.0117	3060.5964	3066.6794	3073.6421	3094.3299	3104.6907	3111.0309	3128.3736	3806.5757	3830.1235
CCC1(O)CC(CO)C1	CC[C@@]1(O)C[C@@H](CO)C1	
InChI=1S/C7H14O2/c1-2-7(9)3-6(4-7)5-8/h6,8-9H,2-5H2,1H3	InChI=1S/C7H14O2/c1-2-7(9)3-6(4-7)5-8/h6,8-9H,2-5H2,1H3/t6-,7-
