16
gdb 33994	3.42833	1.37585	1.16134	1.5573	75.73	-0.243	0.0168	0.2597	1056.2279	0.124719	-400.70812	-400.700439	-400.699495	-400.740268	29.698	
C	-0.0710718561	-1.2089036666	-0.3035813717	-0.397721
C	-0.025161141	-0.0195585929	-0.1273886852	 0.219367
C	 0.011089339	 1.3974401147	 0.0934163627	 0.058498
C	 0.4716721891	 2.2964214595	-1.0568401147	-0.345556
C	 1.3614332337	 2.0852752315	 0.1271738427	 0.082836
O	 1.5810689727	 3.1438105283	 1.0245988696	-0.223112
C	 0.5102888112	 3.6045165445	 1.724074338	 0.126716
N	-0.6703935288	 3.1656417422	 1.7750211258	-0.265676
C	-1.0420897991	 1.9585475098	 1.0558950432	-0.23158
H	-0.1095010347	-2.2583847442	-0.4602990026	 0.193355
H	 0.7421535836	 1.8265556973	-1.9945162939	 0.134426
H	-0.0206122887	 3.2598587207	-1.1403167427	 0.136051
H	 2.2586796852	 1.4876477088	 0.0281111063	 0.127133
H	 0.8053646648	 4.4819857355	 2.2949799387	 0.128628
H	-1.9793826535	 2.1520962894	 0.5199736875	 0.12261
H	-1.2705847573	 1.1886718118	 1.8014878863	 0.134026
97.3822	142.6973	168.3824	282.8488	394.9583	438.1421	495.8402	513.3631	535.443	549.0256	596.3099	648.8706	687.0242	788.3029	880.609	899.0439	928.7929	952.9835	976.977	1016.0891	1035.0646	1054.9815	1066.7039	1131.4228	1194.3481	1236.5755	1280.3632	1293.4483	1352.9015	1400.2157	1426.4191	1474.0185	1487.4337	1748.1235	2233.9304	3027.9597	3062.1287	3139.2684	3169.5685	3197.5106	3237.3267	3502.604
C#CC12CC1OC=NC2	C#C[C@]12C[C@H]1OC=NC2	
InChI=1S/C7H7NO/c1-2-7-3-6(7)9-5-8-4-7/h1,5-6H,3-4H2	InChI=1S/C7H7NO/c1-2-7-3-6(7)9-5-8-4-7/h1,5-6H,3-4H2/t6-,7-/m1/s1
