16
gdb 113288	2.37278	1.17628	0.90578	2.4931	71.65	-0.2789	-0.0573	0.2216	1271.1896	0.122515	-437.887468	-437.878211	-437.877267	-437.921864	32.672	
O	 0.114533622	 1.2815792862	-0.2688387031	-0.406437
C	 0.0722409367	-0.0806730999	 0.1256062035	-0.114089
C	-1.3575799385	-0.5879848956	 0.0913118002	-0.051933
C	-1.9574750256	-1.2092973854	-1.1144640932	-0.313777
C	-1.7002520033	-2.1046689259	 0.1072316489	 0.046531
C	-0.604796934	-3.1246509239	-0.0088871779	 0.100087
O	 0.3073762735	-3.0451901049	-0.7930271924	-0.257788
C	-2.8188066273	-2.5058969187	 0.9172569869	 0.220891
N	-3.7066545536	-2.8477393562	 1.5755082034	-0.327654
H	-0.0662187545	 1.3231027815	-1.213594272	 0.288911
H	 0.7233589817	-0.7101703011	-0.4892933818	 0.132142
H	 0.4497375778	-0.1048919217	 1.1526563225	 0.126087
H	-2.0328229875	-0.00693711	 0.7125529077	 0.135563
H	-2.99366688	-1.0120676216	-1.3609338838	 0.152369
H	-1.3016730259	-1.4367088154	-1.9493000775	 0.154497
H	-0.7018176614	-3.9805065375	 0.6885940087	 0.1146
80.7495	131.1061	137.7927	145.8877	175.6304	251.0809	271.7359	323.8038	401.0754	420.4413	529.9554	557.5654	591.7378	731.4124	804.9017	893.4244	899.5169	941.0901	1028.8658	1046.6116	1066.698	1082.8912	1109.8219	1151.1955	1231.7202	1253.8074	1282.6682	1367.3141	1409.9786	1426.7075	1434.8903	1474.1891	1513.0325	1809.8191	2351.4008	2938.1837	3050.5648	3098.2268	3138.8563	3166.0326	3239.2137	3816.2795
OCC1CC1(C=O)C#N	OC[C@H]1C[C@]1(C=O)C#N	
InChI=1S/C6H7NO2/c7-3-6(4-9)1-5(6)2-8/h4-5,8H,1-2H2	InChI=1S/C6H7NO2/c7-3-6(4-9)1-5(6)2-8/h4-5,8H,1-2H2/t5-,6-/m1/s1
