22
gdb 103949	3.58375	1.02204	0.95859	2.5106	83.06	-0.2395	0.0799	0.3195	1345.6976	0.192638	-404.30381	-404.294272	-404.293328	-404.33793	36.491	
C	-0.222456681	 1.6413916039	 0.3316935919	-0.252676
O	-0.0305103089	 0.2489339829	 0.4502894404	-0.288233
C	-1.0797083675	-0.5596154789	-0.0437293712	 0.438949
C	-2.3799239975	-0.3853145597	 0.7385652397	-0.451043
C	-1.2821759439	-0.5433089412	-1.6018099012	-0.377827
C	-1.1970285352	-2.072359221	-1.5614641751	 0.384824
C	-2.1761031985	-3.0214037154	-2.1350373801	-0.308236
N	-0.7774035085	-2.9835052242	-2.617237398	-0.369263
C	-0.6194840393	-2.040198252	-0.1458466866	-0.345566
H	 0.717442397	 2.1158197407	 0.6247132709	 0.126967
H	-0.4564517494	 1.938509195	-0.7017570043	 0.104691
H	-1.0197375361	 2.0178376491	 0.9878219331	 0.107751
H	-2.8037021924	 0.6157868222	 0.612045219	 0.114272
H	-3.1280317358	-1.1054134213	 0.3937477749	 0.122025
H	-2.203216819	-0.5560192767	 1.8053369476	 0.123007
H	-2.1963062932	-0.0911666389	-1.9968944362	 0.095674
H	-0.4108192965	-0.1010344087	-2.0957449792	 0.10663
H	-2.444596688	-3.9258963699	-1.5947709182	 0.117326
H	-2.9616514732	-2.6263059021	-2.7754393153	 0.108098
H	-0.7310799241	-2.4903937671	-3.5064256246	 0.227495
H	 0.4716295609	-2.0992782	-0.1496069514	 0.116907
H	-1.0233380599	-2.7399567966	 0.589931024	 0.098227
67.0753	103.6171	180.9443	212.1198	245.1871	284.3028	313.4279	337.9573	346.6709	360.8444	434.0802	490.3807	559.4712	692.4685	797.867	845.9269	870.6557	882.6943	911.2425	919.9922	941.3777	967.2067	989.383	1016.9816	1079.0925	1102.7206	1121.0223	1136.6055	1166.7687	1182.2872	1189.4081	1219.0577	1232.116	1263.2062	1277.4022	1293.9619	1300.419	1401.6116	1417.927	1458.204	1475.5621	1481.4308	1484.8893	1492.1362	1506.1535	1511.2735	1516.1936	2985.1027	3031.9546	3038.9254	3042.4654	3062.544	3097.1385	3099.7263	3105.9473	3111.4612	3112.2056	3121.536	3181.5002	3486.6355
COC1(C)CC2(CN2)C1	CO[C@@]1(C)C[C@]2(CN2)C1	
InChI=1S/C7H13NO/c1-6(9-2)3-7(4-6)5-8-7/h8H,3-5H2,1-2H3	InChI=1S/C7H13NO/c1-6(9-2)3-7(4-6)5-8-7/h8H,3-5H2,1-2H3/t6-,7+
