16
gdb 66574	2.39922	2.27662	1.63934	2.1165	66.65	-0.2127	0.0567	0.2694	855.1073	0.124412	-437.774728	-437.767793	-437.766849	-437.805505	28.679	
O	 0.1438434697	 1.3197200022	-0.1357916086	-0.458757
C	 0.1167935612	-0.0435776674	-0.0111741526	 0.362719
C	-1.0344758036	-1.0322442015	 0.1968365671	-0.208246
C	-0.3037694712	-0.9683096716	-1.1274315279	-0.072055
N	 0.5207095332	-2.20236558	-0.8969538718	-0.156042
C	 1.8844941002	-1.6782851693	-0.5134207647	-0.249548
C	 1.1776637902	-0.9570663347	 0.6548259846	 0.28609
O	 1.7607285241	-0.4168692722	 1.7882754899	-0.486656
C	 0.0536899401	-2.0623062619	 0.5671211955	-0.08948
H	 0.1401823388	 1.6968668878	 0.7521277727	 0.297153
H	-2.0831664621	-0.9208140803	 0.4326078514	 0.101022
H	-0.6419054067	-0.6453076781	-2.1037691092	 0.100843
H	 2.5159717395	-2.5156454951	-0.1967510648	 0.097697
H	 2.3953325293	-1.0847831438	-1.2773438041	 0.111723
H	 2.3527455643	-1.0693362973	 2.1767470778	 0.287684
H	-0.0301850969	-2.9550854167	 1.1849611547	 0.075854
193.5583	232.9886	283.4812	363.138	370.5982	397.548	474.5195	569.5564	614.9527	651.4949	740.9191	776.9275	823.9987	845.8713	868.6959	888.562	920.4271	924.2934	949.3218	980.2886	1033.6885	1062.3139	1079.8474	1109.3663	1142.4734	1171.8144	1188.3709	1204.6018	1231.4773	1266.5552	1289.1076	1314.2653	1393.071	1476.9599	1495.1145	3040.5108	3103.9231	3124.4475	3197.4586	3218.4346	3783.6818	3812.1398
OC12C3C1N1CC2(O)C31	O[C@@]12[C@H]3[C@@H]1N1C[C@]2(O)[C@@H]31	
InChI=1S/C6H7NO2/c8-5-1-7-3(5)2-4(7)6(2,5)9/h2-4,8-9H,1H2	InChI=1S/C6H7NO2/c8-5-1-7-3(5)2-4(7)6(2,5)9/h2-4,8-9H,1H2/t2-,3-,4+,5+,6+/m1/s1
