21
gdb 113586	2.61435	1.24572	1.08188	0.4069	78.92	-0.2376	0.0815	0.3191	1231.1452	0.182659	-424.200219	-424.191213	-424.190269	-424.234556	33.335	
C	 0.4665020455	 1.0607523543	-0.2310085781	-0.23972
O	-0.26075196	-0.0001303857	 0.3613435065	-0.231319
C	 0.4774556065	-0.6722146443	 1.3296087113	 0.081299
C	-0.0378393198	-2.0065164292	 1.7739235297	-0.398513
C	 1.2339684671	-1.9308298788	 0.9632075058	 0.313067
C	 1.3178890398	-2.4072585749	-0.4863418503	-0.323668
C	 2.8400873774	-2.6321837454	-0.6833143106	-0.070928
O	 3.4916910987	-2.0440867097	 0.4385523616	-0.24494
C	 2.6120539612	-2.2012130613	 1.5405768542	-0.158816
H	 1.3992397149	 0.7096572608	-0.6941355875	 0.114812
H	-0.1743388409	 1.5024798152	-0.9974637288	 0.127218
H	 0.7201690769	 1.8332789335	 0.5104809565	 0.110004
H	 0.9267261268	-0.0195192439	 2.0819160988	 0.079838
H	 0.0189745214	-2.2564797936	 2.8290395733	 0.112428
H	-0.924868657	-2.3747746204	 1.2686831169	 0.123634
H	 0.7593812391	-3.3344190414	-0.6463156445	 0.104371
H	 0.909888313	-1.6603746318	-1.1715841823	 0.119077
H	 3.0662300735	-3.708814767	-0.7321170289	 0.089387
H	 3.2417336671	-2.1599989105	-1.583640197	 0.107105
H	 2.9135268988	-1.4976289959	 2.3229136291	 0.103345
H	 2.6759384602	-3.2245866099	 1.9521931144	 0.08232
47.6942	119.7495	130.0587	171.1149	221.0815	237.944	320.6918	372.0787	455.1835	492.0537	574.5934	680.8777	785.0514	808.897	841.9064	886.0065	904.4621	948.1692	971.461	1018.7122	1044.9396	1057.963	1075.4176	1097.4355	1121.7118	1132.9426	1175.5581	1185.1441	1212.9221	1230.5764	1238.3974	1257.0086	1273.3072	1287.3665	1331.1747	1356.0292	1400.782	1414.4928	1470.3236	1485.4547	1494.3021	1501.6604	1508.9035	1514.9288	1527.6028	2941.6095	2979.5622	2985.4273	3037.541	3057.3921	3070.7042	3075.5453	3084.8591	3106.3479	3120.6358	3123.0399	3211.45
COC1CC11CCOC1	CO[C@H]1C[C@]21CCOC2	
InChI=1S/C7H12O2/c1-8-6-4-7(6)2-3-9-5-7/h6H,2-5H2,1H3	InChI=1S/C7H12O2/c1-8-6-4-7(6)2-3-9-5-7/h6H,2-5H2,1H3/t6-,7+/m0/s1
