17
gdb 117111	2.48417	1.07404	0.79061	2.1146	70.89	-0.2828	-0.0032	0.2796	1430.1151	0.134031	-455.156447	-455.146481	-455.145537	-455.192347	34.519	
C	-0.2530913166	 0.9996615196	 1.1735412638	-0.391771
C	-0.0868416523	-0.0679313794	 0.1106921278	-0.039238
O	-1.2880065224	-0.8685391635	 0.1086612248	-0.240255
C	-1.3339727793	-1.8822340896	-0.7584018923	 0.386197
N	-0.4095773312	-2.1756679655	-1.5675103332	-0.531602
C	-2.6932242837	-2.602048641	-0.6552555336	-0.087099
O	-2.7428805122	-3.759100645	-1.4573077138	-0.399772
C	-3.0398326374	-2.894224419	 0.7471090873	 0.261048
N	-3.3043733976	-3.1830797984	 1.8338071289	-0.315288
H	 0.6419763617	 1.6276096845	 1.2072250062	 0.125785
H	-1.1139826141	 1.6380410746	 0.9562554954	 0.130994
H	-0.3974886766	 0.5495174908	 2.159398316	 0.138069
H	 0.0510596575	 0.3564194309	-0.8888732336	 0.126177
H	 0.7674571256	-0.7223900637	 0.3093157232	 0.128772
H	-0.695429955	-2.9691122138	-2.140571076	 0.234585
H	-3.4542834273	-1.9208855332	-1.0541046096	 0.168516
H	-2.245574019	-4.4582993483	-1.0160159411	 0.304881
44.7955	84.7346	94.7686	129.2073	194.1325	240.0025	262.6465	314.9784	331.1012	360.3003	420.6622	482.2673	579.1957	608.8604	774.309	808.2063	868.8422	884.263	917.5607	989.9932	1038.587	1110.0927	1119.023	1138.919	1182.3224	1266.6581	1284.9723	1290.9348	1355.391	1404.5177	1411.7483	1431.3103	1484.9407	1496.001	1518.8526	1745.8211	2360.1113	3048.3895	3053.515	3056.723	3092.6678	3123.3066	3129.456	3499.166	3798.6675
CCOC(=N)C(O)C#N	CCO[C]([NH])[C@@H](O)C#N	
InChI=1S/C5H8N2O2/c1-2-9-5(7)4(8)3-6/h4,7-8H,2H2,1H3	InChI=1S/C5H8N2O2/c1-2-9-5(7)4(8)3-6/h4,7-8H,2H2,1H3/t4-/m0/s1
