18
gdb 95493	2.24966	1.55104	1.00341	3.3426	74.38	-0.2354	-0.0572	0.1781	1162.2692	0.148388	-439.087438	-439.078893	-439.077949	-439.120845	32.195	
O	-0.0124435377	 1.4232033151	 0.0283939995	-0.430071
C	 0.053592031	 0.0000243878	 0.0341312192	 0.112125
C	 0.7641842719	-0.5030563704	 1.3176532673	-0.212882
N	 0.3394052838	-1.8312837848	 1.779047945	-0.309046
C	 0.3687794766	-2.8505439086	 0.7784191598	-0.05006
C	-0.5157811577	-2.9622687432	-0.2205170525	-0.134156
C	-1.5460028503	-1.9508494556	-0.5739908956	 0.35431
O	-2.4656981457	-2.2462412569	-1.3108345945	-0.320996
C	-1.3906142984	-0.5079872845	-0.0761799997	-0.325452
H	 0.8871289789	 1.7655446572	 0.0057062728	 0.285373
H	 0.6062037416	-0.3477461812	-0.851369534	 0.077993
H	 1.8513952492	-0.5063012193	 1.1722796073	 0.106854
H	 0.5399359343	 0.2100067652	 2.1177905633	 0.119076
H	-0.6081995197	-1.7512652855	 2.1311932001	 0.237879
H	 1.162619508	-3.5878853465	 0.8928190874	 0.117663
H	-0.496598404	-3.831239926	-0.8720844045	 0.112319
H	-1.9020208136	-0.4032572504	 0.891078867	 0.117243
H	-1.9354856681	 0.1232191775	-0.7815963781	 0.141829
58.6323	133.4478	202.0109	237.3625	268.6036	305.6625	337.9297	388.745	438.9646	516.3978	546.2669	632.2321	688.906	771.5464	825.3193	841.5699	885.9706	893.5288	987.8291	999.3707	1046.6134	1062.0458	1098.7149	1122.9312	1189.1164	1223.617	1241.3977	1263.6008	1298.6091	1313.6876	1340.7489	1379.2776	1407.1558	1438.7091	1462.6194	1470.5877	1489.7426	1670.8954	1765.1106	2984.9007	3021.7388	3029.8545	3086.8675	3113.6285	3131.5213	3181.1636	3525.1871	3814.5272
OC1CNC=CC(=O)C1	O[C@H]1CNC=CC(=O)C1	
InChI=1S/C6H9NO2/c8-5-1-2-7-4-6(9)3-5/h1-2,6-7,9H,3-4H2	InChI=1S/C6H9NO2/c8-5-1-2-7-4-6(9)3-5/h1-2,6-7,9H,3-4H2/t6-/m1/s1
