15
gdb 124421	3.27428	1.28802	0.97196	1.8311	69.95	-0.2748	-0.0058	0.269	1154.2336	0.114936	-413.032364	-413.024347	-413.023403	-413.065926	28.446	
C	 0.12371855	 1.5597270322	 0.1178532771	-0.389379
C	-0.0878533646	 0.0414069188	-0.0832556168	-0.284007
C	-1.5097864357	-0.2923021056	-0.2196053958	 0.285967
N	-2.6243952943	-0.5618375551	-0.3620468283	-0.322723
C	 0.6862385867	-0.4744877454	-1.269569331	 0.422195
N	 1.9897754698	-0.3474348336	-1.437335397	-0.325848
C	 2.2009684434	-0.9626609086	-2.6343717505	 0.025788
N	 1.1193879303	-1.4578386062	-3.2122759551	-0.208447
N	 0.1551825828	-1.13346161	-2.3192752959	-0.247834
H	 1.1944443843	 1.754114457	 0.19524191	 0.163074
H	-0.275800395	 2.1201477196	-0.7304091145	 0.145099
H	-0.3755271118	 1.8954352808	 1.0293665578	 0.140202
H	 0.2861503666	-0.4784182392	 0.8078871361	 0.163767
H	 3.176302032	-1.0469645004	-3.0893049685	 0.134526
H	-0.8063427445	-1.3885016445	-2.4866671176	 0.297621
39.0524	122.6321	163.6732	212.0719	231.4168	340.6236	385.4047	500.7389	558.6337	609.089	689.4948	703.6767	763.936	868.3006	913.7367	981.0632	1009.179	1051.8235	1081.4473	1112.678	1137.4919	1208.754	1288.6126	1293.1801	1309.7255	1314.3969	1406.6602	1426.2841	1490.7629	1494.3775	1498.3221	1580.038	2360.7154	3037.8378	3060.4308	3140.4112	3155.1074	3265.7664	3643.6106
CC(C#N)C1=NC=NN1	C[C@@H](C#N)c1ncn[nH]1	
InChI=1S/C5H6N4/c1-4(2-6)5-7-3-8-9-5/h3-4H,1H3,(H,7,8,9)	InChI=1S/C5H6N4/c1-4(2-6)5-7-3-8-9-5/h3-4H,1H3,(H,7,8,9)/t4-/m0/s1
