21
gdb 86457	1.84707	1.68399	0.92617	3.9491	80.9	-0.2216	0.0338	0.2553	1296.6041	0.183757	-420.446252	-420.43716	-420.436216	-420.479887	34.559	
C	-0.078872479	 1.5421011738	 0.0060852517	-0.4032
C	 0.0298096629	 0.0177152297	-0.0170885549	 0.045282
C	 0.7220086303	-0.4921446826	-1.2803036247	-0.139885
N	 0.9313063615	-1.9268291887	-1.1829564128	-0.081735
C	 1.3289742693	-2.5284099745	-2.4441420277	-0.317349
C	 1.87354384	-2.2406291022	-0.1179512578	-0.257783
C	 1.5659722017	-1.5591413914	 1.2116966644	 0.386977
O	 2.0527532137	-1.9580835128	 2.2531522447	-0.377094
N	 0.7729369714	-0.4509539525	 1.147866149	-0.318112
H	 0.9122117092	 2.0046408729	-0.0334857914	 0.128748
H	-0.6660366327	 1.8976321541	-0.8462047953	 0.122995
H	-0.5787048389	 1.8846117301	 0.9182689079	 0.118885
H	-0.9832349979	-0.4118183348	-0.0029896152	 0.091244
H	 0.0800658103	-0.2838029454	-2.1420483302	 0.10474
H	 1.6710811793	 0.0621535152	-1.4330865021	 0.079329
H	 2.2989097373	-2.1498395401	-2.8202323785	 0.09455
H	 1.4174374752	-3.6126061227	-2.3227062473	 0.124432
H	 0.5678601929	-2.3322351313	-3.2057454161	 0.118926
H	 1.8807825036	-3.3175367668	 0.0705747066	 0.133995
H	 2.9134249016	-1.956147378	-0.380844646	 0.103706
H	 0.5546866284	-0.0485002022	 2.0491551458	 0.241349
102.2309	114.2025	156.0413	245.5703	255.4632	269.0266	323.657	366.3021	428.7158	451.1501	475.9531	520.4388	530.0386	632.3592	657.0705	854.8032	892.3446	907.7658	966.2232	1006.1187	1014.3721	1067.8277	1088.3499	1123.3454	1160.1979	1175.1847	1209.9026	1215.2849	1283.8953	1308.832	1340.4026	1346.6175	1374.1663	1401.7466	1406.2772	1412.8607	1457.7741	1464.0653	1479.636	1486.81	1496.2769	1499.8385	1505.7764	1506.7645	1793.6871	2890.9951	2899.899	2927.5203	2986.2852	3035.4601	3060.7107	3073.6528	3091.0703	3104.2241	3105.5944	3116.0359	3593.2214
CC1CN(C)CC(=O)N1	C[C@H]1CN(C)CC(=O)N1	
InChI=1S/C6H12N2O/c1-5-3-8(2)4-6(9)7-5/h5H,3-4H2,1-2H3,(H,7,9)	InChI=1S/C6H12N2O/c1-5-3-8(2)4-6(9)7-5/h5H,3-4H2,1-2H3,(H,7,9)/t5-/m0/s1
