16
gdb 33570	2.21725	1.58098	1.19987	4.2803	74.92	-0.2763	-0.0053	0.271	1081.6747	0.123435	-400.722902	-400.714336	-400.713392	-400.756562	31.37	
C	-0.0989902625	-1.2822467163	-0.410363105	-0.397024
C	-0.0443802248	-0.1047979262	-0.1851020639	 0.288563
C	 0.0035065696	 1.3250799171	 0.1201531145	 0.06429
C	-0.5069800828	 1.6611866248	 1.5495900684	-0.254431
C	 0.2674179736	 2.9459847962	 1.8583325028	-0.253375
C	 1.6160084493	 2.6711547084	 1.1854552411	-0.068974
O	 1.3496617746	 1.7960727852	 0.0748672849	-0.280625
C	-0.7974466988	 2.073360754	-0.8881733344	 0.276025
N	-1.4180357072	 2.6874280736	-1.644775898	-0.34179
H	-0.1414326167	-2.3225500073	-0.6224361393	 0.208898
H	-1.5917814513	 1.7657293577	 1.5853151819	 0.138522
H	-0.2089651081	 0.8455910747	 2.2133180654	 0.130165
H	-0.2257855275	 3.8086074296	 1.4006888815	 0.134878
H	 0.3633729157	 3.1354552316	 2.9293890353	 0.118314
H	 2.0999345873	 3.5738115484	 0.8020331876	 0.124178
H	 2.3121719996	 2.1651561583	 1.8665580374	 0.112384
53.9044	125.4641	148.0036	170.0522	221.2285	283.7772	463.4169	482.6452	503.2865	579.4078	583.3007	620.7509	649.4374	681.1921	735.9335	873.3717	881.5143	929.8874	957.3955	978.4248	1035.005	1066.4943	1122.6217	1176.5472	1202.3438	1217.9969	1261.7272	1319.705	1344.5237	1386.8075	1482.5913	1494.4148	1529.2048	2248.5119	2354.5061	3023.5006	3064.363	3076.9448	3088.4969	3121.1959	3141.9464	3499.7334
C#CC1(CCCO1)C#N	C#C[C@]1(CCCO1)C#N	
InChI=1S/C7H7NO/c1-2-7(6-8)4-3-5-9-7/h1H,3-5H2	InChI=1S/C7H7NO/c1-2-7(6-8)4-3-5-9-7/h1H,3-5H2/t7-/m0/s1
