16
gdb 32023	2.95519	1.43065	0.97025	5.8649	80.64	-0.2018	-0.0333	0.1685	1170.4426	0.125453	-434.102329	-434.093864	-434.09292	-434.136281	30.354	
C	-0.1203634954	 1.4929661591	 0.0427466168	-0.331317
N	-0.0747015367	 0.0415564527	-0.0411553455	-0.364535
C	-1.1611142344	-0.7558343822	-0.0074244771	 0.521299
C	-1.149951211	-2.1331317856	 0.0189315781	-0.320088
C	-2.4152730823	-2.751353151	 0.038448834	 0.034324
N	-3.566539298	-2.1297576806	 0.0217246064	-0.341302
C	-3.5630153251	-0.7595822423	-0.020967073	 0.420235
N	-4.5468157912	 0.0363945838	-0.0630674358	-0.538231
O	-2.3061635802	-0.0808756086	-0.013473839	-0.233062
H	 0.8389560422	 1.8887074906	-0.2954938356	 0.135085
H	-0.9105042825	 1.8784198125	-0.6026349022	 0.173608
H	-0.3092782685	 1.8440463557	 1.0643476445	 0.143946
H	 0.8151822772	-0.4165427582	 0.0589493383	 0.26386
H	-0.2263826376	-2.693224679	 0.027583845	 0.092433
H	-2.4623890988	-3.8399809541	 0.0709702765	 0.112891
H	-5.3977946378	-0.5232815728	-0.0594230115	 0.230854
60.8502	88.1171	108.7021	183.1632	198.1275	407.213	434.6928	440.0855	502.3186	571.3252	583.6714	709.5924	735.6037	751.6381	763.6451	847.6472	903.3853	979.4369	1004.0052	1023.4583	1089.217	1118.8178	1150.7964	1174.1103	1236.3865	1332.3189	1396.6354	1436.1348	1477.0615	1488.1437	1494.1928	1522.1664	1599.3672	1672.4458	1741.6352	3032.1184	3111.7678	3128.3615	3153.4956	3231.3674	3521.4126	3662.8105
CNC1=CC=NC(=N)O1	CN[C@@H]1C=CN=C([NH])O1	
InChI=1S/C5H7N3O/c1-7-4-2-3-8-5(6)9-4/h2-3,6-7H,1H3	InChI=1S/C5H8N3O/c1-7-4-2-3-8-5(6)9-4/h2-4,6-7H,1H3/t4-/m0/s1
