14
gdb 17053	5.40529	1.32718	1.26113	3.5653	58.57	-0.2602	-0.0131	0.2471	949.9257	0.105721	-419.600474	-419.593211	-419.592267	-419.632328	26.331	
O	-0.0804224346	 1.3915018694	-0.3203522921	-0.423414
C	 0.0230895494	 0.0363663494	 0.0953486034	-0.12689
C	-1.3839007236	-0.5268131867	 0.0946439004	 0.028196
C	-2.0110971841	-0.8430144193	-1.2929672616	-0.07859
O	-1.1083615624	-2.0235008584	-1.3996020814	-0.302305
C	-1.5424320491	-2.0704569826	 0.0227888901	-0.108773
C	-2.9617984672	-1.8362408153	-0.5718283349	 0.47798
O	-4.0662559932	-2.2640997625	-0.5749640006	-0.305502
H	 0.8064802934	 1.7603906427	-0.3668695668	 0.291981
H	 0.6559859258	-0.5517349568	-0.5801693812	 0.114622
H	 0.4403666138	-0.0395101132	 1.1119477118	 0.09242
H	-2.032566808	-0.0013419538	 0.8024970162	 0.101126
H	-2.1249841582	-0.208954737	-2.1683532068	 0.123241
H	-1.127934922	-2.8544272658	 0.6534306135	 0.115907
91.3032	131.8511	178.3273	236.3425	320.4756	395.843	494.1185	562.0636	684.342	763.2285	785.7447	798.6281	844.9784	898.8354	970.6349	1037.441	1068.8309	1076.189	1096.4189	1130.0133	1144.1192	1171.9098	1190.6375	1248.4525	1259.9492	1266.6114	1386.2981	1457.3757	1521.1742	1942.084	2978.3579	3047.8488	3074.1472	3150.823	3169.1201	3831.7126
OCC1C2OC1C2=O	OC[C@H]1[C@H]2O[C@@H]1C2=O	
InChI=1S/C5H6O3/c6-1-2-4-3(7)5(2)8-4/h2,4-6H,1H2	InChI=1S/C5H6O3/c6-1-2-4-3(7)5(2)8-4/h2,4-6H,1H2/t2-,4+,5-
