21
gdb 121033	3.02635	0.9277	0.79789	4.2191	78.9	-0.262	0.0171	0.2791	1520.3416	0.182877	-424.290486	-424.281205	-424.280261	-424.325441	33.933	
C	-0.1335088182	 1.4727787681	-0.3423937583	-0.383728
C	-0.053434201	-0.0346057547	-0.0887083869	-0.16863
C	-1.4328675491	-0.68813704	 0.0461254113	-0.178446
C	-1.3779906899	-2.1950302512	 0.2931604567	 0.103435
C	-2.7607340288	-2.883907886	 0.3388986688	-0.250463
C	-2.9414244323	-3.3882877772	-1.0950995837	-0.357135
C	-1.5153375665	-3.5133014431	-1.6216673396	 0.428231
O	-1.1309523241	-4.0811883785	-2.6018327814	-0.33609
O	-0.6706907533	-2.8477955707	-0.7875158426	-0.22357
H	 0.8641085474	 1.9133547285	-0.4306455932	 0.116703
H	-0.6753714195	 1.6901134758	-1.2696053803	 0.116405
H	-0.6543799392	 1.9878476685	 0.4727438207	 0.111881
H	 0.492642433	-0.5232075333	-0.9023143258	 0.123946
H	 0.5241911629	-0.2245995011	 0.8257332229	 0.095255
H	-1.9810748724	-0.233106663	 0.8822250771	 0.098724
H	-2.0272418317	-0.4928727341	-0.8574089869	 0.097511
H	-0.7951637677	-2.3968463627	 1.1974705972	 0.093378
H	-2.7385571581	-3.724051838	 1.0384371123	 0.117508
H	-3.5451024448	-2.1978215912	 0.6650541768	 0.113553
H	-3.4576766472	-4.3449369373	-1.1840344894	 0.140485
H	-3.4732527596	-2.6720644588	-1.7306689358	 0.141047
61.8598	88.6805	110.5774	136.6193	175.5756	248.3481	319.7783	365.4567	476.422	501.8432	545.443	659.3467	707.0224	757.5283	803.2578	830.1292	897.8319	900.2955	920.9176	988.8581	1004.2084	1039.5654	1055.3073	1077.8321	1115.2047	1139.7517	1171.5835	1198.2124	1232.002	1263.4232	1285.7866	1305.4906	1327.6586	1333.4766	1366.2983	1395.2822	1406.2728	1415.715	1466.2324	1475.3568	1493.337	1498.6604	1501.0943	1510.2587	1881.5352	3008.2553	3023.1414	3029.7583	3041.4986	3058.3235	3062.1444	3070.058	3076.241	3099.5379	3105.1026	3113.8754	3130.2815
CCCC1CCC(=O)O1	CCC[C@H]1CCC(=O)O1	
InChI=1S/C7H12O2/c1-2-3-6-4-5-7(8)9-6/h6H,2-5H2,1H3	InChI=1S/C7H12O2/c1-2-3-6-4-5-7(8)9-6/h6H,2-5H2,1H3/t6-/m0/s1
