18
gdb 90945	2.99807	1.80185	1.62184	1.4641	69.2	-0.2024	0.0699	0.2723	908.1048	0.150286	-439.058781	-439.05187	-439.050926	-439.089923	28.28	
C	-0.4005681015	 1.5068534063	 0.0795503877	-0.379866
C	 0.0626416921	 0.0522237027	-0.0170185741	 0.037226
N	 0.8970747931	-0.1612661409	-1.227917383	-0.330045
C	 2.1965329438	-0.7276095992	-0.9537035548	-0.074634
C	 2.3778875458	-1.698310481	 0.2070903865	 0.016475
O	 1.2595063125	-1.7379423358	 1.0707835222	-0.26297
C	 0.883530655	-0.3723460339	 1.2081152273	 0.139505
O	 2.0930781658	 0.3707793275	 1.2477727619	-0.253985
C	 2.909328002	-0.2887642126	 0.3057203803	 0.035793
H	 0.4626686032	 2.1701644357	 0.1729066819	 0.134202
H	-0.9550286789	 1.7867627006	-0.8201817053	 0.114254
H	-1.0548940628	 1.6564810019	 0.9464966673	 0.103857
H	-0.8143267481	-0.6074573044	-0.0464791922	 0.078715
H	 0.4058036906	-0.752136302	-1.8873531304	 0.225843
H	 2.8107550748	-0.8739497285	-1.8370269873	 0.098934
H	 2.9520859567	-2.6157215207	 0.1961353177	 0.10709
H	 0.3484213794	-0.2369714582	 2.1503201528	 0.097614
H	 3.9468608263	 0.0145942826	 0.3487709016	 0.11199
102.1827	229.7929	259.1319	353.0068	401.3016	476.9861	545.8381	604.2862	695.2425	722.3269	747.5666	760.6074	789.6533	802.3996	903.3798	907.3363	940.0967	962.0873	1020.8471	1039.2868	1054.4362	1075.4381	1096.9602	1114.0869	1128.1789	1130.6844	1156.5145	1209.1938	1260.063	1298.4447	1321.572	1331.6276	1370.8599	1385.582	1401.0089	1424.9118	1472.5305	1490.3529	1497.7534	3015.0414	3033.9476	3100.1923	3106.3538	3131.9703	3154.3859	3195.3665	3206.6267	3540.5941
CC1NC2C3OC1OC23	C[C@H]1N[C@@H]2[C@@H]3O[C@H]1O[C@H]23	
InChI=1S/C6H9NO2/c1-2-6-8-4-3(7-2)5(4)9-6/h2-7H,1H3	InChI=1S/C6H9NO2/c1-2-6-8-4-3(7-2)5(4)9-6/h2-7H,1H3/t2-,3-,4+,5-,6+/m1/s1
