16
gdb 127762	3.3796	1.5754	1.09825	5.9563	71.44	-0.212	-0.0021	0.2099	1058.9173	0.12667	-434.04967	-434.042094	-434.041149	-434.082249	27.415	
C	-0.0011453043	 1.4720776598	-0.0438524971	-0.341567
N	 0.0063189864	 0.0309076966	 0.0785170405	-0.083283
N	 0.035390031	-0.7347240577	-1.0444255906	-0.164235
N	 0.0328719431	-2.007391515	-0.6893499484	-0.304743
C	-0.0033638069	-2.0243602603	 0.6502992218	 0.399219
C	-0.0274046542	-0.7643654677	 1.1704103409	 0.252313
C	 0.0041187248	-0.8145912545	 2.6617262067	-0.379229
C	-0.1815119058	-2.372127101	 2.841164038	-0.081976
O	 0.010914454	-3.0316543276	 1.5562155604	-0.272549
H	 0.8727852259	 1.9071506833	 0.4497867201	 0.144838
H	 0.0288981837	 1.703580819	-1.1085276094	 0.172992
H	-0.9091549822	 1.8937506126	 0.3971075475	 0.144906
H	 0.9549413746	-0.4647296046	 3.0821272568	 0.129541
H	-0.7987952191	-0.2666290492	 3.16431163	 0.128032
H	 0.5335658922	-2.8036780793	 3.5437331543	 0.129345
H	-1.1968098631	-2.5984731645	 3.1821807386	 0.126396
88.4105	109.3046	175.3546	207.6957	258.8185	349.3112	524.0419	598.7593	652.8766	657.3225	727.1064	775.1411	818.1415	843.6908	922.9244	993.1036	1005.6561	1074.8783	1128.556	1151.462	1195.0563	1199.9229	1242.7386	1255.1714	1286.9638	1303.3147	1370.8631	1438.0737	1463.5753	1483.8603	1492.4973	1503.173	1517.8877	1575.5061	1627.0045	3025.425	3045.223	3050.4063	3072.2047	3108.3199	3119.6438	3162.2607
CN1N=NC2=C1CCO2	Cn1nnc2c1CCO2	
InChI=1S/C5H7N3O/c1-8-4-2-3-9-5(4)6-7-8/h2-3H2,1H3	InChI=1S/C5H7N3O/c1-8-4-2-3-9-5(4)6-7-8/h2-3H2,1H3
