21
gdb 41993	3.31126	1.37701	1.03438	1.5119	84.75	-0.2306	0.0216	0.2522	1185.7191	0.18593	-387.114896	-387.107252	-387.106308	-387.147007	30.634	
C	-0.0556464231	 1.535974664	-0.1984032467	-0.208259
C	 1.4024005193	 2.018220061	-0.0440895089	-0.235097
C	 2.2223337937	 0.7976737827	-0.4976916507	-0.058679
C	 3.6716645699	 0.6928525806	-0.0342810099	-0.112948
O	 4.1794941102	-0.5997208037	-0.3321023133	-0.252471
C	 3.5310951816	-1.6411809209	 0.3744006056	-0.108394
C	 2.0390010608	-1.4672723453	 0.4964659046	-0.242024
C	 1.4315872376	-0.3634375313	 0.0729804246	 0.359329
C	-0.0256596033	 0.0406458595	 0.2156515675	-0.314136
H	-0.7629903414	 2.1236115573	 0.392352713	 0.097339
H	-0.3597948919	 1.6274492963	-1.2471486568	 0.102103
H	 1.615885284	 2.9245898479	-0.6179039764	 0.095629
H	 1.6175406079	 2.2355899665	 1.0104806678	 0.097651
H	 2.2080692544	 0.7521952317	-1.5969581125	 0.084377
H	 4.3273468523	 1.3993763965	-0.5518741839	 0.10259
H	 3.7325100986	 0.8977764773	 1.048084023	 0.082713
H	 3.7747671164	-2.564944037	-0.1655912596	 0.114478
H	 3.9651174438	-1.7463493679	 1.3868697972	 0.092788
H	 1.4962916263	-2.2712514313	 0.9892383483	 0.080934
H	-0.3610994063	-0.0930124433	 1.2505419311	 0.11162
H	-0.6906784808	-0.5681445004	-0.4063855441	 0.110457
88.1157	170.3808	232.7429	286.7594	330.7646	342.0629	457.6762	530.3985	578.8036	586.9414	728.6613	754.4789	808.5789	853.9871	890.8297	899.3928	919.4371	960.3389	984.9511	1017.2766	1022.778	1058.8023	1078.1317	1096.2296	1143.2973	1161.9095	1182.2685	1199.1018	1234.1913	1245.3476	1285.2288	1294.2308	1299.6495	1328.0584	1334.7397	1339.4056	1375.5257	1379.2264	1417.2898	1476.8535	1488.5862	1491.3754	1499.8607	1506.4178	1752.7844	2924.9332	2962.116	2991.9669	3024.7487	3034.7485	3036.6782	3042.2395	3066.8868	3079.7522	3088.0961	3099.3692	3148.5504
C1CC2COCC=C2C1	C1C[C@H]2COCC=C2C1	
InChI=1S/C8H12O/c1-2-7-4-5-9-6-8(7)3-1/h4,8H,1-3,5-6H2	InChI=1S/C8H12O/c1-2-7-4-5-9-6-8(7)3-1/h4,8H,1-3,5-6H2/t8-/m0/s1
