21
gdb 42015	3.03462	1.47144	1.11148	1.7558	84.29	-0.2207	0.0221	0.2429	1145.1935	0.185551	-387.113312	-387.105415	-387.104471	-387.146433	30.761	
C	 0.0933240156	 1.4238041777	-0.4327367032	-0.113606
O	 1.2823326141	 1.9126559849	 0.1857222922	-0.282728
C	 1.9396684823	 0.8545947368	 0.8840375739	 0.060706
C	 3.4388807871	 0.7513902455	 0.494195275	-0.219054
C	 3.8710272025	-0.7011947919	 0.2011605786	-0.197789
C	 3.2202224507	-1.6851809678	 1.1841043436	-0.197445
C	 1.6840636116	-1.7306974671	 0.9829039753	-0.317439
C	 1.1708322381	-0.3953386298	 0.5260837134	 0.336009
C	 0.134333541	-0.0663110034	-0.2384523383	-0.254947
H	-0.7949605858	 1.8826582318	 0.0342411087	 0.097869
H	 0.0855599423	 1.7186978992	-1.4930334265	 0.102745
H	 1.8669566332	 1.0498109578	 1.9681422997	 0.073939
H	 3.594730227	 1.3852143576	-0.3832201504	 0.111277
H	 4.0557981681	 1.1625888757	 1.3007976516	 0.095353
H	 3.57929979	-0.9766106107	-0.8205329563	 0.100239
H	 4.9623193878	-0.7787838612	 0.2441325698	 0.092649
H	 3.6383356127	-2.6898667464	 1.0672397492	 0.096657
H	 3.4519082531	-1.3716401586	 2.2101317932	 0.098498
H	 1.4186613978	-2.494152324	 0.2430737145	 0.110886
H	 1.1971291605	-2.0314930577	 1.919991385	 0.111639
H	-0.5933893697	-0.7404956786	-0.6740998391	 0.094541
43.5854	89.5886	235.5811	256.2432	332.4752	383.6388	438.286	467.3704	608.2094	636.5825	730.1521	785.2145	808.4752	854.9133	869.2491	891.1731	924.4257	939.3277	962.4054	1000.0414	1044.2386	1060.8668	1079.0033	1092.0189	1122.7435	1149.8112	1170.5443	1193.9408	1206.1324	1257.7716	1271.2073	1288.0688	1331.5073	1345.2631	1353.1893	1370.5528	1373.3596	1377.948	1389.0512	1474.6962	1483.6557	1493.9201	1502.7034	1523.9477	1731.3137	2935.0402	2955.3377	2993.3214	3013.9269	3022.5622	3029.3698	3040.1001	3056.869	3073.4694	3080.4094	3097.6956	3204.8008
C1OC2CCCCC2=C1	C1O[C@@H]2CCCCC2=C1	
InChI=1S/C8H12O/c1-2-4-8-7(3-1)5-6-9-8/h5,8H,1-4,6H2	InChI=1S/C8H12O/c1-2-4-8-7(3-1)5-6-9-8/h5,8H,1-4,6H2/t8-/m1/s1
