21
gdb 107842	3.50091	1.35578	1.31834	1.4217	81.25	-0.2358	0.0866	0.3224	1091.6578	0.184165	-387.060388	-387.05277	-387.051826	-387.092379	31.145	
C	 0.1441178112	 1.53555616	 0.1010091855	-0.384728
C	-0.0081068228	 0.0164247941	-0.0442442501	-0.304773
C	 0.6257065694	-0.5263102214	-1.2969629409	 0.442144
C	 0.2038603685	-0.0484829681	-2.7072596951	-0.243199
C	 0.9828174738	-1.1625843816	-3.4340990307	-0.091152
C	 0.2342571134	-2.4327850709	-2.9489852743	-0.254891
C	 0.8358762212	-2.0759716752	-1.5804649382	-0.127076
C	 2.0541321538	-1.4320537266	-2.2671585438	 0.118362
O	 2.0811237177	-0.3133070402	-1.3824804117	-0.332767
H	 1.199760405	 1.8192125639	 0.0688968984	 0.139735
H	-0.3723092528	 2.069569736	-0.702915327	 0.117525
H	-0.2736234678	 1.8789396697	 1.0518322806	 0.111186
H	 0.4451263444	-0.4848292041	 0.819010829	 0.105208
H	-1.0695545188	-0.2632350653	-0.0492520543	 0.099649
H	-0.8719432643	-0.0927174426	-2.9008450422	 0.09144
H	 0.572884022	 0.9608614389	-2.8980111521	 0.104689
H	 1.2625533035	-1.0165633082	-4.4758369417	 0.06567
H	-0.8525151034	-2.460270752	-3.073204622	 0.09307
H	 0.6712205532	-3.3585609024	-3.3350705092	 0.099638
H	 0.898445599	-2.7442298244	-0.7226839783	 0.069693
H	 3.0156372938	-1.8946171195	-2.4846198418	 0.080576
82.564	167.7478	206.9051	287.0462	339.3568	454.7453	461.7932	536.654	616.9463	682.0163	736.9665	769.0627	788.8087	836.1507	853.6083	861.0866	913.2977	948.8889	966.0212	975.6852	977.2218	1000.3914	1027.9449	1047.5515	1058.6739	1078.2037	1133.0543	1143.0531	1172.1538	1179.3298	1203.2763	1222.8812	1253.9017	1267.4921	1279.1976	1293.5036	1318.0243	1346.204	1393.6052	1409.8953	1474.6881	1479.9998	1499.0361	1505.7126	1508.5402	3025.8243	3041.5275	3047.3612	3059.8838	3062.3265	3100.4822	3108.2882	3120.3915	3120.8568	3123.6449	3130.1146	3139.4491
CCC12CC3CC1C3O2	CC[C@]12C[C@@H]3C[C@H]1[C@@H]3O2	
InChI=1S/C8H12O/c1-2-8-4-5-3-6(8)7(5)9-8/h5-7H,2-4H2,1H3	InChI=1S/C8H12O/c1-2-8-4-5-3-6(8)7(5)9-8/h5-7H,2-4H2,1H3/t5-,6-,7+,8-/m0/s1
