20
gdb 16069	3.0186	1.74188	1.45391	1.4681	75.08	-0.2277	0.0765	0.3042	989.4707	0.176264	-348.972533	-348.964029	-348.963084	-349.005353	31.805	
C	-0.0480436958	 1.5161065642	-0.1435365642	-0.37546
C	-0.0251034502	 0.009850937	 0.153631666	-0.285254
C	-1.3856498236	-0.6065004154	 0.055392389	 0.468936
O	-2.3679587146	-0.1752648284	 1.0184546268	-0.324709
C	-2.8518698528	-1.5373257846	 1.1565888319	-0.094672
C	-1.9221153759	-2.027642058	 0.056118217	-0.22368
C	-2.066852067	-1.140022155	-1.17441662	-0.060437
C	-3.3812473618	-0.6195616649	-1.7111949849	-0.420712
H	 0.9481299593	 1.9534839499	-0.0288310299	 0.109706
H	-0.3895284503	 1.7108443125	-1.1652606327	 0.116685
H	-0.7275211058	 2.0312257311	 0.5415237106	 0.137459
H	 0.6428586497	-0.50568066	-0.5466457098	 0.099821
H	 0.3735667378	-0.1616070285	 1.1612406818	 0.104053
H	-2.6018041916	-1.9330615191	 2.1475803125	 0.106956
H	-3.9335748687	-1.6143360538	 0.9939451127	 0.101359
H	-1.4022361421	-2.9768335864	 0.0431704305	 0.092422
H	-1.3466834134	-1.4292027892	-1.9386399289	 0.083781
H	-3.9752972671	-0.1663505694	-0.9139775117	 0.135648
H	-3.2098872163	 0.1513630069	-2.4700854572	 0.115407
H	-3.9713585797	-1.4180264289	-2.1740543597	 0.112691
79.6706	136.7385	168.9092	202.1794	255.6167	261.0574	307.922	370.2511	486.8567	548.9309	682.8397	746.3832	765.8732	810.25	886.9432	933.2654	962.3575	971.3327	977.2365	994.4833	1017.3172	1057.4766	1101.6738	1107.2487	1128.2852	1152.8131	1173.6708	1197.5533	1255.8668	1290.8162	1330.3569	1344.4932	1363.5654	1406.6663	1410.9526	1470.4815	1475.5304	1493.5831	1497.4858	1505.288	1511.4892	1521.9711	3021.3617	3025.8177	3034.1075	3039.6202	3064.0756	3066.8606	3090.7457	3108.8095	3115.0285	3118.3148	3129.8585	3192.8062
CCC12OCC1C2C	CC[C@]12OC[C@H]1[C@H]2C	
InChI=1S/C7H12O/c1-3-7-5(2)6(7)4-8-7/h5-6H,3-4H2,1-2H3	InChI=1S/C7H12O/c1-3-7-5(2)6(7)4-8-7/h5-6H,3-4H2,1-2H3/t5-,6+,7-/m1/s1
