25
gdb 64119	2.59723	1.20182	1.14701	1.3702	88.06	-0.257	0.0698	0.3268	1284.8631	0.22769	-389.521531	-389.511335	-389.510391	-389.555643	40.547	
C	 0.3938780194	 1.3970452233	 0.2827585294	-0.420542
C	-0.0916495309	-0.0320821492	-0.0253137879	 0.297865
C	-1.6206615043	-0.0390125031	-0.136074633	-0.439465
C	 0.5838902438	-0.5830112631	-1.3051455204	-0.225366
C	 1.9830215407	-1.0595128083	-0.8648246936	-0.273547
C	 1.8785019222	-1.3840000364	 0.661789211	 0.400849
C	 2.240002725	-2.8351472747	 0.9883258518	-0.440048
O	 2.7139305741	-0.5053351135	 1.4327619039	-0.468823
C	 0.4209578546	-1.0326816653	 1.0371365649	-0.244643
H	 1.4761779492	 1.4350481559	 0.4223567053	 0.131292
H	 0.1189637106	 2.083347901	-0.5264300452	 0.099239
H	-0.0666558563	 1.7688191624	 1.204950192	 0.106268
H	-1.9619111996	 0.632919808	-0.932026309	 0.107411
H	-1.9995626611	-1.0425373178	-0.3604076406	 0.103168
H	-2.0878484245	 0.2944712283	 0.7974315136	 0.108971
H	 0.0018305331	-1.4351978203	-1.6778650279	 0.087876
H	 0.6199418211	 0.1545665702	-2.1134565414	 0.090176
H	 2.3245449262	-1.9216098132	-1.4459996988	 0.09053
H	 2.7265910518	-0.2677661173	-0.9971871455	 0.098154
H	 3.2861012914	-3.0430203458	 0.7304004135	 0.100408
H	 2.1080988804	-3.0322533996	 2.0565566934	 0.121116
H	 1.615601097	-3.5361369543	 0.4246048793	 0.112038
H	 3.6276220904	-0.675938415	 1.1795927386	 0.270311
H	 0.3736556059	-0.6463107065	 2.0591111287	 0.103171
H	-0.1895431102	-1.9425689761	 0.9979619679	 0.083592
67.3881	142.7381	230.0327	232.9637	262.6913	279.3227	298.4753	312.8791	332.2771	360.5219	390.3908	409.4674	432.7643	469.6962	560.5475	590.6633	734.9458	779.1685	838.8878	882.6073	914.8241	925.8391	937.538	953.6986	961.4465	991.8175	1013.5063	1022.2635	1091.8943	1098.6387	1131.8528	1155.0143	1196.2346	1239.3052	1262.291	1279.1978	1288.5277	1307.85	1333.0389	1358.4611	1384.121	1400.5635	1405.6365	1422.7867	1472.1722	1479.4508	1484.2585	1490.9805	1492.14	1493.4398	1504.429	1506.1521	1514.0008	3018.4483	3019.7827	3023.2388	3028.2867	3036.7049	3047.7716	3071.1561	3084.0953	3085.5912	3087.6769	3089.5871	3092.6982	3096.2234	3110.1951	3129.4626	3801.5515
CC1(C)CCC(C)(O)C1	CC1(C)CC[C@@](C)(O)C1	
InChI=1S/C8H16O/c1-7(2)4-5-8(3,9)6-7/h9H,4-6H2,1-3H3	InChI=1S/C8H16O/c1-7(2)4-5-8(3,9)6-7/h9H,4-6H2,1-3H3/t8-/m1/s1
