15
gdb 57123	3.70751	0.77341	0.65613	1.9119	81.5	-0.2657	-0.0518	0.2139	1595.9463	0.111363	-416.834919	-416.825268	-416.824324	-416.87066	33.579	
C	-0.4484951167	 1.9242341046	 0.8672851611	-0.385161
C	-0.219348447	 0.5028343483	 0.3083130289	-0.336738
C	 0.5892809607	-0.3098989558	 1.2002656916	 0.117192
C	 1.2615959664	-0.9802223488	 1.9507598155	 0.04059
C	 2.0177243103	-1.7374789762	 2.7984076194	 0.204192
N	 2.657467613	-2.3869831667	 3.5186820006	-0.332018
C	-1.5854810382	-0.1326040198	-0.0904059479	 0.451235
N	-1.756898814	-1.4377939367	 0.2255096319	-0.538476
O	-2.4069773815	 0.5344448078	-0.6824309187	-0.353673
H	 0.5018619352	 2.4508448001	 0.97497225	 0.13206
H	-1.095102849	 2.4640477532	 0.1746397238	 0.160557
H	-0.9366034665	 1.8812034858	 1.8441680039	 0.137756
H	 0.3227898276	 0.5943767772	-0.6437101674	 0.157339
H	-1.0769672721	-1.9546684428	 0.7557552413	 0.274309
H	-2.6261940381	-1.8779573403	-0.028476564	 0.270838
30.1453	73.189	104.8097	214.982	222.5966	252.0552	275.091	283.0212	395.147	430.4366	492.9999	537.1443	576.5444	594.5445	607.4107	698.9955	759.1189	804.5225	986.7083	1070.3071	1081.6503	1102.1135	1189.7286	1263.8666	1316.4732	1343.1554	1401.8178	1491.9354	1499.4193	1613.3082	1809.5468	2258.1604	2392.6206	3017.5449	3060.0764	3136.2689	3159.0646	3601.1186	3734.8924
CC(C#CC#N)C(N)=O	C[C@@H](C#CC#N)C(=O)N	
InChI=1S/C6H6N2O/c1-5(6(8)9)3-2-4-7/h5H,1H3,(H2,8,9)	InChI=1S/C6H6N2O/c1-5(6(8)9)3-2-4-7/h5H,1H3,(H2,8,9)/t5-/m0/s1
