18
gdb 66798	3.37274	1.95323	1.9504	1.872	76.74	-0.2054	0.0521	0.2575	830.4301	0.149601	-364.685254	-364.679178	-364.678234	-364.715275	26.137	
C	-0.0263043273	 1.5449188821	-0.0022321454	-0.538583
C	 0.0082599568	 0.0446563983	 0.0033021495	 0.382662
C	 0.6444709193	-0.864084463	-1.122918748	-0.129924
C	-0.6199551486	-1.8005735111	-1.088788743	-0.066274
C	 0.0630979343	-2.6490737784	 0.0266178494	-0.005897
C	 1.3369016849	-1.7515121425	-0.0229341881	-0.066275
C	 0.6693511246	-0.8776544006	 1.0806608481	-0.073283
N	-0.5595301449	-1.7889301237	 1.1301373063	-0.182216
C	-1.2188445045	-0.9249947205	 0.0522068601	-0.073285
H	 0.9863007896	 1.9649678158	-0.0303450357	 0.118642
H	-0.5661924729	 1.9260956874	-0.8773467621	 0.118638
H	-0.524639551	 1.9344381326	 0.8933056681	 0.122689
H	 1.1257783996	-0.487403916	-2.0239217608	 0.062683
H	-1.149243903	-2.181412949	-1.9604285527	 0.065047
H	 0.0358965663	-3.7345864034	 0.1265261413	 0.068866
H	 2.3702390219	-2.0931760904	-0.0434444555	 0.065047
H	 1.1229430001	-0.5513064423	 2.0181746767	 0.065733
H	-2.2643904152	-0.6362361252	 0.1731762019	 0.065732
221.2565	237.6631	241.9242	540.6012	632.6214	633.2412	682.6197	744.082	806.6249	842.1309	843.21	844.3358	854.542	869.0705	881.208	885.9821	897.3562	941.3053	964.1051	971.9897	1052.259	1100.8087	1108.5581	1133.9728	1147.1911	1154.8488	1158.3293	1166.7689	1177.7659	1182.0254	1204.3833	1216.7848	1241.8006	1248.8386	1278.2323	1360.549	1410.3557	1487.5692	1488.1723	3015.1837	3079.7312	3082.607	3084.7853	3087.3348	3095.4741	3115.0183	3120.7787	3131.2953
CC12C3C4C5C3C1N5C24	C[C@@]12[C@@H]3[C@H]4[C@H]5[C@@H]3[C@@H]1N5[C@@H]24	
InChI=1S/C8H9N/c1-8-4-2-5-3(4)7(8)9(5)6(2)8/h2-7H,1H3	InChI=1S/C8H9N/c1-8-4-2-5-3(4)7(8)9(5)6(2)8/h2-7H,1H3/t2-,3+,4+,5-,6+,7-,8-
