19
gdb 90883	3.14597	1.71065	1.49427	2.8503	73.27	-0.2452	0.0721	0.3173	941.2471	0.162261	-422.990135	-422.983473	-422.982529	-423.02089	28.368	
O	 0.3484998459	 1.2618185912	-0.4375430586	-0.440956
C	 0.0704605995	-0.060651865	-0.0601565032	 0.145912
C	 0.2485420529	-0.4372725496	 1.447196414	-0.280851
C	-1.246504763	-0.8362988473	 1.5356734539	-0.028406
C	-2.2037356642	 0.2342108765	 2.0920276294	 0.062036
C	-3.4617884262	 0.0767699258	 1.2060806094	-0.23108
C	-2.4490068266	 0.6525520994	 0.188758387	 0.057472
O	-1.8612691775	 1.4255266981	 1.2973793527	-0.317132
C	-1.4347624685	-0.4895210062	 0.012579726	-0.071129
H	-0.1367937282	 1.816733737	 0.1891054363	 0.290227
H	 0.6545096346	-0.6975478381	-0.7295843696	 0.083381
H	 0.9428834559	-1.2629396085	 1.6210422801	 0.098415
H	 0.5419503396	 0.4067867038	 2.0773827113	 0.102127
H	-1.476338578	-1.8434762298	 1.8858098883	 0.071753
H	-2.2358061654	 0.4234934987	 3.16497508	 0.084041
H	-3.8711889222	-0.9233395771	 1.0421518494	 0.099392
H	-4.2402005482	 0.7966317908	 1.4605961393	 0.114184
H	-2.7306161009	 1.264413301	-0.6669340294	 0.091669
H	-1.7634976696	-1.2631887806	-0.6832892064	 0.068947
146.5876	224.5206	302.1862	419.0688	433.2064	503.0385	612.0765	619.1545	659.2718	741.5284	792.7237	816.0374	839.5891	856.8149	873.5588	901.942	919.1924	935.5211	992.2534	998.464	1022.7041	1036.0831	1055.7669	1080.697	1103.4404	1149.6392	1154.4589	1182.8018	1215.5983	1230.8538	1236.5621	1259.6996	1267.0287	1282.0156	1303.7847	1317.357	1322.9214	1344.3496	1458.307	1466.7814	1486.4266	3057.1799	3069.0534	3072.0541	3094.9877	3102.7556	3116.3272	3125.2204	3136.6157	3146.6109	3739.537
OC1CC2C3CC(O3)C12	O[C@H]1C[C@H]2[C@@H]3C[C@@H](O3)[C@@H]12	
InChI=1S/C7H10O2/c8-4-1-3-5-2-6(9-5)7(3)4/h3-8H,1-2H2	InChI=1S/C7H10O2/c8-4-1-3-5-2-6(9-5)7(3)4/h3-8H,1-2H2/t3-,4-,5-,6+,7+/m0/s1
