17
gdb 32814	3.5291	0.74516	0.63574	0.4557	74.94	-0.2343	-0.0791	0.1552	1744.2469	0.13357	-455.17053	-455.160309	-455.159365	-455.208081	34.024	
C	 0.3545153037	 1.9699931752	 0.6111552871	-0.30574
N	-0.4236598777	 0.7647368128	 0.3171137186	-0.500532
H	 0.0316765257	-0.0555997667	 0.7093163681	 0.260644
H	-1.3367761039	 0.8257393654	 0.7565336607	 0.224743
C	-0.0487410881	-1.3208659537	-2.282885073	-0.38962
C	 0.5459357798	-2.4394966216	-1.8587619509	 0.196918
C	 0.9730068191	-2.7198283826	-0.4583014276	 0.394146
O	 0.916722827	-2.107101152	 0.5669249561	-0.318064
O	 1.536930887	-4.0015188859	-0.5210526957	-0.203746
C	 1.4253066365	-4.3787637107	-1.8319900393	 0.107955
N	 0.8820199055	-3.5620258145	-2.6477564051	-0.303188
H	 1.3434059628	 1.8816207328	 0.1503038352	 0.124185
H	-0.1361667345	 2.8420489552	 0.1664242147	 0.118756
H	 0.5036379316	 2.1787495266	 1.6823354057	 0.099994
H	-0.3178572943	-1.2221637558	-3.3287006883	 0.141378
H	-0.2672189961	-0.5053525002	-1.5937047915	 0.190555
H	 1.817749446	-5.3603032942	-2.0637303149	 0.161617
29.4531	59.6447	73.0824	107.314	116.9718	158.0149	182.0134	321.9245	333.5557	402.6623	539.0392	556.3952	653.4554	783.0299	794.0603	834.2012	873.3865	902.6099	933.0663	937.6111	997.5701	1015.2549	1052.0109	1066.2618	1147.1259	1185.4139	1257.99	1342.172	1360.8865	1452.2927	1461.5375	1498.2575	1519.0543	1638.0993	1678.677	1714.9129	1879.9652	2977.2729	3063.4503	3100.4309	3101.5182	3234.2876	3240.3584	3487.8987	3566.3383
C[NH2+]CC1=C([O-])OC=N1	CN.C=C1C(=O)OC=N1	
InChI=1S/C5H8N2O2/c1-6-2-4-5(8)9-3-7-4/h3,6,8H,2H2,1H3	InChI=1S/C4H3NO2.CH5N/c1-3-4(6)7-2-5-3;1-2/h2H,1H2;2H2,1H3
