17
gdb 74370	2.7741	1.33207	1.09332	4.2056	74.02	-0.265	0.0036	0.2686	1146.2108	0.137037	-418.045021	-418.036631	-418.035687	-418.078376	30.608	
C	 0.0356476542	 1.4800879428	-0.0443855317	-0.451809
C	-0.0570418073	-0.0145371107	 0.031085262	 0.407806
N	-1.181690168	-0.6089079756	-0.0372499333	-0.303527
C	-1.2008428839	-2.0732768153	-0.0173935569	-0.127519
C	 0.1542480174	-2.6963148434	-0.4064677061	-0.249667
C	 1.2423440915	-1.9814898321	 0.3778922106	-0.083624
O	 1.1753119191	-0.5641013058	 0.162790769	-0.252393
C	-1.6302311004	-2.548458502	 1.3101659719	 0.293653
N	-1.9394259931	-2.9384957025	 2.3531639629	-0.329516
H	 0.6949748722	 1.7745826402	-0.8667140598	 0.142488
H	-0.9569047283	 1.9018136893	-0.1937527753	 0.15123
H	 0.4717253847	 1.875192387	 0.8784390737	 0.146547
H	-1.9692040663	-2.396396474	-0.7296102804	 0.134281
H	 0.1759196368	-3.7703230354	-0.2042236098	 0.13081
H	 0.3079555345	-2.5467998554	-1.4797983835	 0.124511
H	 1.137528212	-2.1771589703	 1.4521429915	 0.139417
H	 2.2444549351	-2.2820158268	 0.0658609152	 0.127311
79.1037	117.3544	138.1202	185.5022	264.4175	334.5584	346.3109	435.0971	480.3022	565.1069	592.0073	643.4189	717.6515	811.2398	874.8269	901.0707	925.6578	968.9341	1035.2613	1064.449	1096.6085	1097.0132	1150.4671	1230.5336	1246.4054	1277.1726	1322.6284	1337.8702	1370.9503	1405.306	1418.845	1471.9647	1476.0191	1478.1159	1511.6167	1726.6198	2355.7328	3037.4813	3039.3346	3051.9813	3059.8793	3110.0904	3110.7497	3115.5707	3172.95
CC1=NC(CCO1)C#N	CC1=N[C@@H](CCO1)C#N	
InChI=1S/C6H8N2O/c1-5-8-6(4-7)2-3-9-5/h6H,2-3H2,1H3	InChI=1S/C6H8N2O/c1-5-8-6(4-7)2-3-9-5/h6H,2-3H2,1H3/t6-/m0/s1
