23
gdb 87117	2.04358	1.53569	1.24429	2.7734	81.19	-0.2481	0.0653	0.3134	1175.2422	0.2029	-425.413264	-425.402883	-425.401939	-425.447195	41.111	
C	-0.0421013033	 1.5834027539	 0.0371826326	-0.407495
C	 0.0229784297	 0.0507092667	 0.0166587881	 0.2977
C	 0.626672885	-0.4182052586	 1.3536625184	-0.438557
O	-1.3409745738	-0.3791039311	-0.0725610181	-0.476524
C	 0.7710160109	-0.4696407788	-1.2426236877	 0.309476
C	 0.5577649155	 0.3431965476	-2.5107536515	-0.469212
C	 2.0972450482	-1.2081876269	-1.1240231872	-0.385262
C	 0.8347008956	-1.9574735834	-1.4715648207	 0.060621
O	 0.208701621	-2.7965574054	-0.5339059399	-0.425452
H	 0.961108357	 2.0200106552	 0.0236286584	 0.109229
H	-0.6062557289	 1.969171104	-0.8134446555	 0.121467
H	-0.5490650414	 1.9098217506	 0.9492009192	 0.115672
H	-0.0248291012	-0.0732211725	 2.1613621002	 0.115239
H	 0.692711238	-1.5054718818	 1.4090931769	 0.117917
H	 1.6233704433	 0.0044917451	 1.5162496936	 0.106843
H	-1.3208010456	-1.3441854897	-0.0651486652	 0.290432
H	 1.0348437882	 1.3262526747	-2.4524814426	 0.117846
H	 0.9815000615	-0.1732656652	-3.3777294285	 0.10404
H	-0.5110440684	 0.4892943152	-2.6965441159	 0.13414
H	 2.8422063082	-1.0632835358	-1.9004798534	 0.106008
H	 2.5076989562	-1.3686140314	-0.134525031	 0.115374
H	 0.7148392542	-2.2977473148	-2.4997620321	 0.087309
H	 0.7265681701	-3.6029118176	-0.4429251082	 0.29319
87.744	197.9703	221.0764	239.4742	246.0216	271.1204	280.1438	294.3801	313.1605	351.419	382.9776	414.863	440.4652	460.7441	487.2741	519.3453	590.6424	636.7245	800.9667	843.6748	884.097	913.8365	927.7867	942.9689	980.8876	1014.3426	1042.008	1043.4903	1096.6841	1125.1087	1133.1104	1174.414	1186.3247	1208.0797	1274.8401	1290.0672	1330.3579	1382.972	1397.9978	1412.0127	1415.81	1427.6362	1477.568	1482.4595	1489.0301	1497.4524	1503.5877	1510.8102	1524.8994	3033.538	3042.3449	3050.0386	3095.5075	3102.7759	3107.5001	3108.8276	3119.3465	3132.4661	3137.5884	3146.2583	3226.1097	3781.3646	3808.2467
CC(C)(O)C1(C)CC1O	CC(C)(O)[C@@]1(C)C[C@H]1O	
InChI=1S/C7H14O2/c1-6(2,9)7(3)4-5(7)8/h5,8-9H,4H2,1-3H3	InChI=1S/C7H14O2/c1-6(2,9)7(3)4-5(7)8/h5,8-9H,4H2,1-3H3/t5-,7+/m1/s1
