17
gdb 71502	2.99356	1.61962	1.42626	4.4007	71.91	-0.2622	0.0036	0.2658	965.8042	0.137185	-421.829194	-421.822195	-421.821251	-421.860419	28.023	
C	 0.008864176	 1.5126746895	-0.0316772657	-0.523424
C	 0.0216028917	 0.0099088898	-0.0405755731	 0.309954
C	 0.5920041178	-0.9574954184	-1.1095466644	-0.302914
C	 0.0178482878	-1.8954869227	-0.0252757339	-0.078961
C	 0.5721442754	-0.9445089172	 1.0640468059	 0.087573
O	-0.3086882109	-0.9282809468	 2.1965471006	-0.251857
C	-1.5527683452	-0.9340740418	 1.6035042924	 0.445472
O	-2.5836276058	-0.9202027482	 2.2054726215	-0.345826
C	-1.2278108142	-0.9518383232	 0.1274385903	-0.235935
H	 1.0262127841	 1.9091008453	-0.1178397939	 0.127748
H	-0.577788072	 1.907732668	-0.8673453647	 0.129881
H	-0.4257050474	 1.8939217699	 0.8983165686	 0.140936
H	 0.0816425524	-0.9655720879	-2.0752865766	 0.107759
H	 1.6788293442	-0.9586204482	-1.2410332171	 0.099162
H	 0.0031090524	-2.9848004366	-0.0036716249	 0.093805
H	 1.6126617189	-0.945384173	 1.3824405104	 0.100716
H	-2.0464543554	-0.9572082485	-0.5881213354	 0.095908
140.5546	200.9207	233.1911	307.4078	359.471	457.1565	505.8989	614.6053	631.0232	730.3768	738.6489	808.1589	835.3465	884.9076	912.0167	912.7871	923.5676	982.5932	1011.7982	1020.7063	1063.9471	1074.5414	1129.9921	1138.995	1143.8225	1182.6191	1206.3866	1219.7914	1232.1864	1271.0857	1315.1014	1372.536	1414.175	1488.0787	1488.7197	1523.0176	1906.2785	3032.4534	3048.4037	3101.3626	3105.2783	3114.2362	3123.2284	3150.9916	3158.6825
CC12CC3C1OC(=O)C23	C[C@@]12C[C@H]3[C@@H]1OC(=O)[C@@H]23	
InChI=1S/C7H8O2/c1-7-2-3-4(7)6(8)9-5(3)7/h3-5H,2H2,1H3	InChI=1S/C7H8O2/c1-7-2-3-4(7)6(8)9-5(3)7/h3-5H,2H2,1H3/t3-,4+,5+,7+/m1/s1
