15
gdb 27924	2.40205	1.41756	0.89645	5.9843	72.71	-0.2211	-0.0317	0.1894	1218.3228	0.112761	-454.008429	-454.000038	-453.999094	-454.041576	30.45	
C	-0.0471670849	 1.5193605808	 0.0825963119	-0.509848
C	 0.00705231	 0.0343916262	-0.0322799309	 0.261834
C	-0.014339549	-0.8416990656	-1.1012168134	 0.091867
C	-0.1035668577	-0.4812387003	-2.5107369105	 0.078775
O	-0.1202354055	-1.2570108205	-3.4395485624	-0.279342
N	 0.0632500143	-2.1630514742	-0.6589213937	-0.397155
C	 0.1285565059	-2.0694988229	 0.6309913251	 0.446121
O	 0.2168164308	-3.0665409647	 1.5216377404	-0.421916
N	 0.1001952624	-0.7782457867	 1.0816584141	-0.35557
H	 0.8495888434	 1.9190208	 0.571478447	 0.140834
H	-0.1199097073	 1.9789971073	-0.9036291435	 0.15659
H	-0.9147513011	 1.8470967422	 0.6680879216	 0.140723
H	-0.1587673769	 0.6176376063	-2.6874404012	 0.05085
H	 0.2221343611	-3.8871841026	 1.0116200872	 0.321175
H	 0.1376815744	-0.4874319353	 2.0450643186	 0.275061
107.4256	137.8481	181.036	198.7443	229.8173	273.6789	395.0113	433.6546	441.1911	514.2265	546.0239	623.7399	681.2487	689.5813	730.8955	876.8534	997.8173	1018.3417	1043.162	1059.1607	1145.0823	1187.228	1261.3398	1342.8038	1397.3844	1417.2319	1448.9801	1477.6807	1489.7247	1541.3926	1607.961	1655.6703	1793.9796	2858.1517	3024.5506	3071.0057	3144.0706	3655.1364	3797.689
CC1=C(C=O)N=C(O)N1	Cc1c(C=O)nc(O)[nH]1	
InChI=1S/C5H6N2O2/c1-3-4(2-8)7-5(9)6-3/h2H,1H3,(H2,6,7,9)	InChI=1S/C5H6N2O2/c1-3-4(2-8)7-5(9)6-3/h2H,1H3,(H2,6,7,9)
