16
gdb 125628	3.21537	1.37199	0.9686	5.9187	77.21	-0.2155	-0.0239	0.1916	1167.1628	0.125559	-434.107592	-434.099193	-434.098249	-434.140315	31.749	
C	-0.0241810195	 1.460671165	-0.0422858902	-0.455035
C	-0.0223415873	-0.0357858381	-0.0217053752	 0.221175
N	-0.0763365224	-0.6647789674	-1.1543114715	-0.250279
N	-0.0661248123	-2.0187777866	-1.1153834427	-0.291759
C	-0.0135080827	-2.7704609279	 0.0195479963	 0.455513
N	-0.0824162699	-4.1442075036	-0.172982657	-0.587123
C	 0.048293181	-2.1459216524	 1.233878148	-0.337099
C	 0.0377352064	-0.7082201213	 1.3088349394	 0.336894
O	 0.0878189313	-0.0476744104	 2.3438978828	-0.399012
H	 0.8762028403	 1.844238033	 0.4484799173	 0.144318
H	-0.0773651363	 1.8321706933	-1.0665589172	 0.124396
H	-0.8693038345	 1.8423299	 0.539545937	 0.145257
H	-0.2203494174	-2.4530537489	-2.010781973	 0.269693
H	 0.4622468558	-4.4961073421	-0.9496909496	 0.256101
H	 0.1033041472	-4.6723522233	 0.6676517278	 0.26654
H	 0.1174358402	-2.7220859395	 2.1486281677	 0.100422
111.4958	138.5841	179.9067	266.5296	286.671	339.2368	346.2904	419.0588	468.0341	506.2432	532.4228	574.458	619.4168	711.1725	716.8874	768.4706	784.8667	853.7804	965.5064	1048.5498	1052.0432	1108.6133	1164.932	1209.8692	1269.2987	1349.5793	1405.4637	1416.2163	1463.9855	1468.1423	1539.835	1637.1079	1647.5205	1673.0333	1722.5923	3045.8355	3100.1488	3148.2287	3204.8129	3551.573	3644.9389	3652.67
CC1=NNC(N)=CC1=O	Cc1n[nH]c(N)cc1=O	
InChI=1S/C5H7N3O/c1-3-4(9)2-5(6)8-7-3/h2H,1H3,(H3,6,8,9)	InChI=1S/C5H7N3O/c1-3-4(9)2-5(6)8-7-3/h2H,1H3,(H3,6,8,9)
