18
gdb 31731	5.1223	0.85482	0.79002	2.4278	76.47	-0.1948	0.0111	0.2059	1484.6661	0.149069	-435.286137	-435.276912	-435.275968	-435.321101	33.012	
C	-0.0456153535	 1.4051828789	 0.1087727203	-0.328598
N	-0.0116164395	-0.0264969377	-0.1128038506	-0.374662
C	-1.2035870024	-0.7189565089	-0.0930971129	 0.296618
C	-2.4886218162	-0.2827847298	-0.2136468466	-0.142783
O	-3.3014879375	-1.401479146	-0.1952683959	-0.183129
C	-2.4564080357	-2.4421620886	-0.0456103945	 0.372946
C	-3.0529511437	-3.8080652294	 0.0906342853	-0.255093
N	-3.7429900882	-4.0629147808	 1.3634632718	-0.498205
N	-1.203992649	-2.1031428253	 0.0237588686	-0.369053
H	 0.9745454899	 1.794609127	 0.1110319163	 0.128613
H	-0.5855006316	 1.8937989021	-0.7105255419	 0.132908
H	-0.5363599344	 1.6907886006	 1.0534068618	 0.112119
H	 0.7252565425	-0.5236131067	 0.3655068232	 0.245044
H	-2.9737829659	 0.6676491895	-0.3344975291	 0.131215
H	-3.7690847288	-3.9743157646	-0.7213159341	 0.127036
H	-2.2445277202	-4.5335564553	-0.026147769	 0.137945
H	-3.0936824502	-3.9098281384	 2.1307037291	 0.23257
H	-4.4843734657	-3.3781344167	 1.4841603082	 0.234508
33.9873	81.4601	140.8384	180.071	191.833	261.1	324.1615	348.1153	400.2112	490.5441	541.3543	625.0328	665.0975	716.8767	733.6122	781.8923	877.4998	909.5812	984.6261	999.111	1096.4482	1099.2531	1114.8976	1156.0418	1165.9395	1173.4494	1252.0211	1303.0581	1356.8865	1367.6866	1398.8263	1458.9213	1470.1477	1480.3118	1497.8482	1523.1154	1607.6836	1665.8236	1668.8223	2973.3532	3054.1284	3057.5369	3116.1306	3123.3558	3311.3662	3483.9115	3562.6586	3606.9557
CNC1=COC(CN)=N1	CNc1coc(CN)n1	
InChI=1S/C5H9N3O/c1-7-4-3-9-5(2-6)8-4/h3,7H,2,6H2,1H3	InChI=1S/C5H9N3O/c1-7-4-3-9-5(2-6)8-4/h3,7H,2,6H2,1H3
