20
gdb 105399	2.33558	1.21998	0.97604	4.3306	76.46	-0.2315	-0.0106	0.2209	1283.5646	0.167824	-440.251708	-440.241437	-440.240493	-440.287567	36.409	
C	 0.221344641	 1.1073952626	-0.5947740384	-0.316461
N	 0.3564212954	-0.2816723299	-0.1816391677	-0.105408
C	 1.6810170514	-0.8898757141	-0.1760689013	-0.301327
C	 0.9609060078	-0.6333497522	 1.1073698262	 0.330034
C	 1.5003854609	 0.4326308426	 2.0349456793	-0.162251
O	 0.3954743174	 1.0301162991	 2.7036409197	-0.421779
C	 0.2643661646	-1.7847828605	 1.8331879973	-0.337592
C	-0.5398925739	-2.6377069933	 0.8686780913	 0.159454
O	-0.1260620322	-3.6560402565	 0.3733764003	-0.254168
H	 1.1183247111	 1.7225396612	-0.4257083157	 0.098736
H	 0.0003268871	 1.1296872408	-1.6664996409	 0.125393
H	-0.6132448266	 1.5636544655	-0.0557773622	 0.136744
H	 1.7476684244	-1.9009667784	-0.5698079427	 0.136454
H	 2.5336341541	-0.2496105837	-0.4027480711	 0.103866
H	 2.1908666642	-0.040352018	 2.750823143	 0.097173
H	 2.0756357355	 1.1800259869	 1.472160837	 0.091643
H	 0.7345874204	 1.6142443376	 3.388147442	 0.291954
H	 1.0103984702	-2.420069347	 2.3225876221	 0.115826
H	-0.4030393981	-1.3649252533	 2.5938122071	 0.12436
H	-1.5566068447	-2.2587047694	 0.6378934249	 0.087349
60.558	65.8105	93.619	154.5795	184.7483	226.9212	249.555	260.5436	312.1323	388.089	433.8249	448.2536	528.9883	552.1278	703.3484	761.5489	864.207	916.5542	940.273	992.4984	1002.0861	1063.7352	1068.0707	1088.5873	1128.5354	1150.9354	1161.8504	1203.7267	1205.1454	1225.6692	1254.5426	1275.5211	1334.5505	1389.2614	1425.4786	1448.3536	1457.6787	1477.6321	1484.3572	1497.798	1508.1296	1524.1249	1823.8673	2918.2454	2979.155	2985.6516	3025.7724	3040.4993	3072.7655	3084.0561	3096.3013	3116.7555	3177.1807	3832.0535
CN1CC1(CO)CC=O	CN1C[C@]1(CO)CC=O	
InChI=1S/C6H11NO2/c1-7-4-6(7,5-9)2-3-8/h3,9H,2,4-5H2,1H3	InChI=1S/C6H11NO2/c1-7-4-6(7,5-9)2-3-8/h3,9H,2,4-5H2,1H3/t6-,7?/m0/s1
