23
gdb 111235	3.13292	1.18119	1.0844	1.4146	84.83	-0.2311	0.0862	0.3173	1265.7627	0.208079	-388.282507	-388.274076	-388.273131	-388.315412	33.529	
C	-0.0522573833	 1.5689979136	 0.0232143986	-0.382255
C	-0.0389576506	 0.0410987226	-0.1006650781	-0.214691
C	-1.4294811635	-0.5791254278	 0.023300627	 0.0463
C	-1.4890568617	-2.1397437745	 0.05013944	-0.036334
C	-1.3499108506	-2.0558119404	 1.600155905	-0.270323
C	-2.0394039068	-0.6717094807	 1.4559044816	 0.124375
O	-3.4548506762	-0.7813771567	 1.3596943586	-0.279083
C	-3.8949615791	-2.0050709754	 0.7715715338	-0.063724
C	-2.9265677184	-2.5589082404	-0.3000615831	-0.240436
H	 0.9542697884	 1.9847004667	-0.0857655297	 0.110974
H	-0.6857163526	 2.0206009938	-0.7480795907	 0.116743
H	-0.440507568	 1.8896307473	 0.9956655168	 0.119366
H	 0.3831139574	-0.2410921459	-1.0745579829	 0.094138
H	 0.6394675569	-0.379879735	 0.6514628508	 0.093807
H	-2.1072323201	-0.1054556134	-0.6968340086	 0.058968
H	-0.7393491667	-2.695841188	-0.5197859419	 0.056469
H	-1.8336492409	-2.8146396786	 2.2196048335	 0.096582
H	-0.3119481816	-1.951666943	 1.9197991183	 0.103402
H	-1.8371082291	 0.1156962501	 2.1858434491	 0.069762
H	-4.0254851593	-2.75812962	 1.5618646166	 0.094892
H	-4.8857713147	-1.8056896236	 0.3534235085	 0.105243
H	-3.1816575544	-2.1806200434	-1.296784366	 0.100984
H	-3.0270660249	-3.6502011071	-0.3322140974	 0.094842
85.4928	146.8599	181.0591	232.0486	282.5846	312.3455	374.8832	447.5776	456.4553	495.7791	620.151	753.9777	807.3928	822.8363	847.821	867.688	903.0041	916.5209	936.0987	944.6426	970.3782	1020.3906	1052.6363	1067.8711	1078.2913	1087.9909	1121.1309	1153.0799	1157.1692	1168.4979	1225.145	1243.4135	1255.0518	1268.6598	1283.1328	1296.8034	1313.482	1339.8574	1351.0824	1365.2117	1398.438	1411.5744	1414.4408	1483.5045	1491.269	1496.0452	1500.2087	1507.6167	1527.6762	2993.474	3015.3745	3026.3212	3029.5536	3033.1519	3051.5318	3061.7916	3066.5519	3073.911	3082.9618	3084.2292	3100.3018	3103.6039	3127.9213
CCC1C2CC1OCC2	CC[C@H]1[C@H]2C[C@@H]1OCC2	
InChI=1S/C8H14O/c1-2-7-6-3-4-9-8(7)5-6/h6-8H,2-5H2,1H3	InChI=1S/C8H14O/c1-2-7-6-3-4-9-8(7)5-6/h6-8H,2-5H2,1H3/t6-,7+,8+/m1/s1
