20
gdb 91870	2.35594	1.60825	1.04704	3.9169	79.53	-0.2334	0.025	0.2585	1174.9972	0.17322	-403.189624	-403.181373	-403.180429	-403.222474	32.27	
C	 0.1200250084	 1.5635025421	 0.0123246081	-0.410495
C	 0.0394596322	 0.0391022247	-0.012251791	 0.060939
C	 0.5594599145	-0.5491595328	-1.3290260504	-0.212158
C	 0.6768037518	-2.071550354	-1.2738114942	-0.060712
C	 2.0045650715	-2.6952655237	-0.947966682	-0.279916
C	 0.892170394	-2.7103702282	 0.0831750621	-0.116945
C	 1.0206148639	-1.8530739311	 1.3068636266	 0.38311
O	 1.3073558181	-2.307315194	 2.3989698069	-0.379669
N	 0.8220259101	-0.5074998311	 1.1015165897	-0.326067
H	 1.157025704	 1.8979532636	-0.0955689238	 0.12725
H	-0.4684356765	 1.9900710562	-0.8051747049	 0.123838
H	-0.2739319331	 1.9660627031	 0.951856714	 0.118499
H	-1.0174767171	-0.2533974145	 0.1003780843	 0.081369
H	-0.1174803488	-0.2553274936	-2.1375267567	 0.103549
H	 1.5341109653	-0.0988169832	-1.5519771055	 0.104994
H	 0.0393063294	-2.6193677549	-1.9598714093	 0.090976
H	 2.2691674163	-3.6426186634	-1.4037972879	 0.118698
H	 2.8433983115	-2.0292988273	-0.7730040445	 0.124118
H	 0.4429150558	-3.6736315792	 0.293549371	 0.110838
H	 0.8259506289	 0.022433461	 1.9631775577	 0.237783
78.7136	127.7291	206.2147	244.7591	281.0377	378.5154	429.0259	437.0877	448.1661	533.0478	601.9546	667.2745	748.9733	776.8691	818.5691	849.6097	891.7795	909.3191	957.9799	982.0703	1005.8616	1036.1255	1066.3497	1102.7807	1114.0252	1123.1949	1152.1147	1199.5588	1214.9812	1251.3742	1305.175	1330.9352	1367.0006	1375.9542	1392.6878	1406.6572	1411.7874	1450.6809	1478.2577	1492.2604	1496.0848	1500.0599	1789.2396	2960.1339	3031.469	3035.4643	3080.6362	3101.9368	3115.6588	3131.3077	3156.9869	3184.6842	3220.4375	3584.4387
CC1CC2CC2C(=O)N1	C[C@H]1C[C@H]2C[C@H]2C(=O)N1	
InChI=1S/C7H11NO/c1-4-2-5-3-6(5)7(9)8-4/h4-6H,2-3H2,1H3,(H,8,9)	InChI=1S/C7H11NO/c1-4-2-5-3-6(5)7(9)8-4/h4-6H,2-3H2,1H3,(H,8,9)/t4-,5-,6+/m0/s1
