18
gdb 112364	2.38016	1.36683	0.90698	1.378	75.07	-0.2507	0.0064	0.2571	1271.7569	0.149091	-435.340909	-435.332061	-435.331117	-435.374845	32.727	
C	 0.0692348756	 1.5617408297	 0.0284459748	-0.399145
C	 0.0376695072	 0.0331832926	 0.0885830828	-0.162239
C	-1.3774338802	-0.5439452017	-0.022896276	-0.047394
N	-2.0074045719	-0.3394426623	-1.3226211499	-0.351979
C	-2.5166928729	-1.4935203248	-1.8656638974	 0.452267
O	-3.1770157486	-1.6286268015	-2.8668785191	-0.396553
N	-2.0958006367	-2.5233953156	-1.007754874	-0.400493
C	-1.400180605	-2.0702604676	 0.0983551739	 0.397289
N	-0.857294189	-2.6979039989	 1.0581774513	-0.541359
H	 1.0912176664	 1.9348104192	 0.1398023307	 0.124925
H	-0.3114456781	 1.9356874702	-0.9284518925	 0.115154
H	-0.5351473575	 2.0046916257	 0.8282941588	 0.117998
H	 0.6500700306	-0.3910991211	-0.7151554967	 0.104559
H	 0.4561713184	-0.326184549	 1.0337550817	 0.133205
H	-1.9984947005	-0.1259014494	 0.7829442521	 0.112115
H	-2.380322905	 0.5438548645	-1.6250329958	 0.26296
H	-2.2818587216	-3.488057404	-1.2270606649	 0.265501
H	-0.970341201	-3.7084078662	 0.9692274803	 0.213187
77.494	101.9852	126.9833	178.3357	237.8059	308.848	377.4818	413.1375	433.1284	501.4162	570.7782	622.577	637.0008	709.4698	764.5705	794.4992	854.2528	868.7904	955.9707	989.2984	1018.6628	1070.6747	1100.9197	1138.737	1142.236	1227.8129	1282.5641	1293.6151	1343.4361	1352.561	1384.9187	1409.5033	1417.0534	1425.738	1481.1741	1499.4263	1507.6668	1766.7462	1871.0964	2997.9285	3030.3638	3046.1282	3083.3036	3106.2287	3109.8568	3469.1227	3664.5659	3677.4441
CCC1NC(=O)NC1=N	CC[C@H]1NC(=O)N[C]1[NH]	
InChI=1S/C5H9N3O/c1-2-3-4(6)8-5(9)7-3/h3H,2H2,1H3,(H3,6,7,8,9)	InChI=1S/C5H9N3O/c1-2-3-4(6)8-5(9)7-3/h3H,2H2,1H3,(H3,6,7,8,9)/t3-/m1/s1
