20
gdb 39656	3.34484	1.34111	1.22537	1.3693	77.94	-0.2221	0.0706	0.2926	1102.8591	0.172591	-403.070312	-403.062433	-403.061489	-403.103232	30.189	
C	 0.4847075969	 1.5599329664	 0.5091360924	-0.067705
C	 2.0107695069	 1.3539252592	 0.5088825083	-0.291371
C	 1.6901707558	 0.1038194734	 1.3659188552	 0.114973
O	 0.271227031	 0.2747182627	 1.1346336716	-0.288925
C	 2.3196106553	-1.2099310549	 0.9735550651	-0.003361
C	 1.7392002135	-2.5660730445	 0.9616758935	-0.060062
C	 0.3008685662	-2.6263683438	 0.4450062939	-0.242138
C	 0.8209914099	-1.9002924914	-0.8170989642	-0.146511
N	 2.2535414604	-1.9098357154	-0.3257506827	-0.173355
H	 0.1302689433	 2.3798640411	 1.1467598954	 0.103343
H	-0.0099179867	 1.6277561465	-0.4660107429	 0.108135
H	 2.4256317113	 1.1042591451	-0.4690958156	 0.128102
H	 2.6166932069	 2.1299078486	 0.9778607098	 0.110985
H	 1.9131569134	 0.2596147991	 2.4332059034	 0.079159
H	 3.3606179787	-1.2031549956	 1.304453051	 0.09582
H	 2.2637576777	-3.4030852559	 1.4148889511	 0.089994
H	-0.0194379855	-3.649224376	 0.2377488242	 0.102527
H	-0.4559424438	-2.1205919817	 1.0442207801	 0.125344
H	 0.7670393415	-2.5078971808	-1.7228799338	 0.104781
H	 0.4153858874	-0.9100185222	-1.0250186658	 0.110266
69.044	95.4408	171.1324	223.7558	277.267	330.2255	457.5156	626.1656	721.6036	746.521	767.4731	783.788	785.5853	813.0766	879.1099	942.7274	957.4325	963.8927	977.9227	1007.426	1019.1711	1043.5652	1072.7321	1091.7635	1111.2752	1157.0285	1171.4781	1180.6285	1214.7044	1220.3376	1256.2801	1258.6811	1270.998	1282.5735	1299.4866	1349.8978	1367.0778	1391.6784	1454.2314	1481.2922	1491.7806	1505.2436	1531.6997	2974.1396	3017.4979	3063.5177	3072.8018	3082.6504	3083.8945	3086.7394	3127.0605	3141.0467	3142.4507	3146.1453
C1CC(O1)C1C2CCN12	C1C[C@@H](O1)[C@H]1[C@H]2CCN12	
InChI=1S/C7H11NO/c1-3-8-5(1)7(8)6-2-4-9-6/h5-7H,1-4H2	InChI=1S/C7H11NO/c1-3-8-5(1)7(8)6-2-4-9-6/h5-7H,1-4H2/t5-,6-,7-,8?/m1/s1
