16
gdb 29841	3.98436	1.10656	0.87265	4.2831	83.54	-0.1951	0.0117	0.2067	1282.7291	0.124681	-396.938338	-396.9295	-396.928556	-396.971664	32.664	
C	-0.0456838772	 1.458323577	 0.03596225	-0.350862
N	-0.0011320293	 0.0113857095	-0.0051510241	-0.014116
C	 0.0285106866	-0.7902039448	-1.1291498883	-0.225841
C	 0.006117079	-2.0851638521	-0.6710249225	 0.141153
N	-0.0149446532	-2.0985292844	 0.7196378049	-0.378595
C	-0.0172439855	-0.8365088702	 1.0712760896	 0.360384
N	-0.1199055546	-0.3507487935	 2.3752585173	-0.611266
C	 0.0089315876	-3.2668112061	-1.4489331023	 0.229553
C	 0.0125580205	-4.2672289588	-2.11945525	-0.42304
H	 0.9580776612	 1.899360913	 0.0483335866	 0.137914
H	-0.5796832813	 1.8334998939	-0.83965352	 0.148813
H	-0.5817995277	 1.7694272835	 0.9354922833	 0.159576
H	 0.0648960852	-0.3776205649	-2.1230660276	 0.131061
H	-0.1779475729	-1.1348730779	 3.0140147461	 0.264286
H	 0.6537001164	 0.2456146609	 2.6481875016	 0.250146
H	 0.0144095652	-5.1522486452	-2.7051890646	 0.180833
112.7964	119.4572	143.074	193.7161	260.0178	282.6039	298.7342	415.4289	466.6276	533.6998	538.4789	587.3579	655.2198	657.2284	663.4863	713.9178	741.8513	819.7811	827.7383	1007.3843	1072.9937	1142.8213	1152.7714	1185.8879	1258.7675	1302.1913	1385.3749	1442.9531	1489.5022	1508.4289	1516.0516	1571.483	1585.5585	1652.2196	2233.7607	3030.2369	3103.0726	3139.0226	3279.1481	3506.7398	3517.2286	3614.007
CN1C=C(N=C1N)C#C	Cn1cc(nc1N)C#C	
InChI=1S/C6H7N3/c1-3-5-4-9(2)6(7)8-5/h1,4H,2H3,(H2,7,8)	InChI=1S/C6H7N3/c1-3-5-4-9(2)6(7)8-5/h1,4H,2H3,(H2,7,8)
