14
gdb 129035	5.17592	1.0923	0.90196	2.1453	81.43	-0.2371	-0.07	0.1671	1194.0829	0.102873	-432.886723	-432.879552	-432.878608	-432.918656	26.791	
N	-0.0621817819	 1.3192316769	 0.3721382759	-0.521761
C	-0.0321060473	 0.0738763685	 0.0531057803	 0.261072
C	-1.2432331249	-0.7184499627	-0.0767005608	-0.181773
C	-1.1559896129	-2.0161684992	-0.4124964847	 0.046655
N	 0.0658152796	-2.6289072732	-0.6412822033	-0.07441
C	 0.1357007638	-3.9912989968	-0.9925248969	 0.18307
O	 1.1441339632	-4.5965857321	-1.2067508016	-0.256729
N	 1.2471536208	-1.9547788502	-0.5398108092	-0.160879
C	 1.1851452082	-0.7093324616	-0.2188260861	-0.028356
H	 0.8856899181	 1.7017805109	 0.4132006961	 0.2157
H	-2.2024127404	-0.2494641641	 0.0998363063	 0.13167
H	-2.0174226113	-2.6637222662	-0.5262216031	 0.148871
H	-0.8798515495	-4.4246702563	-1.0425449271	 0.101458
H	 2.1487916045	-0.207164174	-0.1482598459	 0.135413
79.197	172.6331	232.1081	291.1736	415.3693	426.5158	435.8241	458.901	633.7885	653.0184	738.1856	814.9114	823.8386	855.2662	880.7951	963.9965	978.3478	982.4486	1016.498	1116.2123	1171.0547	1233.9927	1303.4819	1359.7803	1377.9933	1453.3669	1458.3934	1630.0786	1655.4827	1699.9953	1853.1009	2972.7485	3150.2779	3201.5941	3227.8551	3437.9543
N=C1C=CN(C=O)N=C1	[NH]C1=CCN(C=O)N=C1	
InChI=1S/C5H5N3O/c6-5-1-2-8(4-9)7-3-5/h1-4,6H	InChI=1S/C5H6N3O/c6-5-1-2-8(4-9)7-3-5/h1,3-4,6H,2H2
