21
gdb 58130	2.64251	1.04623	0.91828	3.742	75.72	-0.2672	0.0092	0.2764	1362.2601	0.178139	-461.391928	-461.380975	-461.380031	-461.427547	39.743	
C	 0.0279455828	 1.4965474832	-0.197266418	-0.437802
C	-0.034387273	-0.0171469869	-0.014798915	 0.12269
O	 0.7548591191	-0.4471269398	 1.0894840396	-0.434763
C	-1.4761919039	-0.5964891133	 0.1050968675	 0.338035
C	-1.397901552	-2.1254215923	 0.1300922877	-0.431562
C	-2.2176464992	-0.0421960224	 1.3246144602	-0.437648
O	-2.1053817073	-0.1357220692	-1.1309642195	-0.231774
C	-3.3652656273	-0.4877351797	-1.4276774153	 0.166033
O	-3.9113642413	-0.1236800822	-2.4285581401	-0.282563
H	 1.0650152243	 1.8012031692	-0.3623625324	 0.127555
H	-0.5731602695	 1.8120352234	-1.0515724593	 0.152997
H	-0.3413585104	 2.022867356	 0.6914455937	 0.10862
H	 0.4099450148	-0.4934176122	-0.8968938001	 0.098976
H	 0.6943160156	 0.2228939951	 1.7776475754	 0.285138
H	-0.729948821	-2.4324993974	 0.9374223171	 0.148774
H	-2.3752306997	-2.586881914	 0.295815047	 0.114461
H	-0.9923629231	-2.4987550663	-0.8147927887	 0.130625
H	-2.3730811578	 1.0359515343	 1.2391123831	 0.133874
H	-3.1934717369	-0.5176976706	 1.454099935	 0.124274
H	-1.6351365921	-0.245534619	 2.2277537867	 0.12562
H	-3.842618432	-1.1346245859	-0.6716962346	 0.07844
76.9147	99.5745	134.0503	148.5772	221.9019	241.7011	248.8259	279.4368	282.8719	301.107	338.1157	365.0379	391.6199	435.7852	478.8471	542.3292	649.9911	754.921	873.4	924.9419	928.4182	983.4145	1002.1418	1048.3898	1054.1656	1083.6087	1119.0337	1174.7018	1182.757	1223.0643	1283.1808	1304.4059	1374.6468	1396.4147	1400.9164	1414.4306	1415.568	1435.2591	1480.1109	1492.5642	1493.8614	1499.2017	1509.4775	1513.0654	1851.5096	2986.8896	3032.3328	3042.8991	3047.6089	3052.1854	3105.0701	3116.6124	3119.6758	3130.9945	3140.3942	3145.9894	3818.969
CC(O)C(C)(C)OC=O	C[C@@H](O)C(C)(C)OC=O	
InChI=1S/C6H12O3/c1-5(8)6(2,3)9-4-7/h4-5,8H,1-3H3	InChI=1S/C6H12O3/c1-5(8)6(2,3)9-4-7/h4-5,8H,1-3H3/t5-/m1/s1
