18
gdb 70132	2.36803	1.91818	1.2428	2.692	77.16	-0.2272	-0.0183	0.2089	1028.7156	0.148284	-401.961154	-401.953168	-401.952223	-401.99341	31.183	
C	 0.0437112839	 1.501807632	-0.014975922	-0.477515
C	 0.0653608375	-0.0070035929	-0.0117783323	 0.192705
N	-0.7798454294	-0.7602441973	 0.9486727464	-0.362354
C	 0.6853033836	-0.765956166	 1.132848086	-0.128186
C	 1.3698462186	-2.0577515354	 0.8711353703	-0.015981
C	 1.1825473469	-2.7189601564	-0.2694845185	-0.091175
C	 0.302874928	-2.1837464698	-1.3730625767	-0.374493
C	 0.1793013202	-0.6642308973	-1.3596904674	 0.381284
O	 0.2081603611	-0.0085096824	-2.3780258438	-0.318788
H	 0.9222081882	 1.9028660641	-0.5272271792	 0.141819
H	-0.8377775995	 1.8732420639	-0.5462874277	 0.138173
H	 0.028241959	 1.891762159	 1.0077688643	 0.106355
H	-1.2056293041	-0.0924253328	 1.5886411357	 0.235902
H	 1.0859894128	-0.1542602185	 1.9373472127	 0.092744
H	 2.0089086763	-2.4571783541	 1.6524458774	 0.094614
H	 1.6555744524	-3.6822794107	-0.4353472726	 0.102378
H	 0.659710922	-2.4776710476	-2.3634240049	 0.128276
H	-0.7107097375	-2.5961540976	-1.2612683878	 0.154243
94.8679	168.9348	199.346	254.8581	306.9824	359.5903	426.7006	466.55	488.5935	573.2784	609.2183	640.9346	724.9232	783.7926	835.8439	861.0414	915.1709	949.8749	966.6917	983.5984	990.0546	1044.6775	1081.3675	1100.6275	1137.3244	1167.5807	1192.7323	1218.8293	1296.0576	1324.4745	1374.8993	1403.0258	1416.1637	1437.7943	1446.9229	1475.3769	1496.1338	1717.1612	1799.1556	3012.8288	3038.6506	3098.1588	3109.239	3119.1394	3139.3392	3164.8698	3187.246	3488.4071
CC12NC1C=CCC2=O	C[C@]12N[C@H]1C=CCC2=O	
InChI=1S/C7H9NO/c1-7-5(8-7)3-2-4-6(7)9/h2-3,5,8H,4H2,1H3	InChI=1S/C7H9NO/c1-7-5(8-7)3-2-4-6(7)9/h2-3,5,8H,4H2,1H3/t5-,7-/m0/s1
