19
gdb 110428	2.62222	1.53488	1.18167	3.4002	78.35	-0.2338	0.009	0.2428	1106.4192	0.159326	-385.865182	-385.857191	-385.856247	-385.898035	30.959	
C	 0.0417707961	 1.5022033224	 0.2156539058	-0.380445
C	 0.0268094948	-0.0154930716	 0.0022236995	-0.211284
C	-1.3797659441	-0.6029207308	 0.022375418	 0.020965
C	-1.6031279113	-2.1242074294	 0.0177918579	-0.094858
C	-2.7763976168	-2.0228058184	 0.9303784262	-0.090189
C	-1.4599939215	-2.6329646615	 1.4637215729	-0.195456
C	-1.3189863554	-1.4186287953	 2.3263155543	 0.444479
O	-0.901411407	-1.2177758378	 3.4325725609	-0.349129
C	-2.2020434027	-0.6091189013	 1.3534441702	-0.198273
H	 1.0605570492	 1.8979558691	 0.1695794829	 0.116756
H	-0.5509806364	 2.0170338058	-0.5489361142	 0.112379
H	-0.3722647197	 1.7677664368	 1.1939033661	 0.128364
H	 0.4938533689	-0.2585259417	-0.9611520433	 0.095487
H	 0.6399918946	-0.5011316419	 0.7713278148	 0.111392
H	-1.9916304634	-0.1584815395	-0.7716790801	 0.077327
H	-1.451585603	-2.821136059	-0.7977753053	 0.097418
H	-3.7657849313	-2.4512768379	 0.9519863056	 0.115214
H	-1.2478940435	-3.6682035259	 1.6916718269	 0.109936
H	-2.7639994275	 0.253859668	 1.6990407309	 0.089915
65.6217	130.3069	163.3985	216.0177	278.2875	392.3049	433.0278	537.9897	603.8351	684.3433	756.4372	776.265	792.2477	818.5762	830.4666	850.7393	878.9565	901.6569	939.7782	999.3065	1019.9005	1024.5546	1039.8102	1068.0986	1087.6328	1098.1316	1136.746	1158.0987	1173.6303	1182.1243	1263.253	1284.0835	1299.6012	1339.0413	1352.2101	1401.6225	1414.1721	1483.7856	1501.3035	1505.9752	1876.8275	3020.4723	3031.7965	3034.9176	3058.0843	3099.4787	3108.3281	3165.031	3186.6754	3221.9404	3249.0131
CCC1C2C3C2C(=O)C13	CC[C@H]1[C@@H]2[C@H]3[C@@H]2C(=O)[C@@H]13	
InChI=1S/C8H10O/c1-2-3-4-6-5(3)8(9)7(4)6/h3-7H,2H2,1H3	InChI=1S/C8H10O/c1-2-3-4-6-5(3)8(9)7(4)6/h3-7H,2H2,1H3/t3-,4+,5-,6+,7+/m0/s1
