21
gdb 121731	4.08538	0.61926	0.55789	1.762	76.75	-0.2722	0.0121	0.2843	2026.2394	0.179989	-461.402242	-461.391307	-461.390363	-461.440532	37.44	
C	 0.0534651304	 1.5610792136	 0.2130766018	-0.386858
C	 0.0531498605	 0.0391492813	 0.0532917056	-0.155949
C	 0.693358458	-0.6729364085	 1.2453361935	-0.312603
C	 0.6887346244	-2.1812632908	 1.1104443938	 0.449489
O	 0.2088972304	-2.8079975502	 0.2009806977	-0.348416
O	 1.3088221485	-2.7606839451	 2.1650442173	-0.26601
C	 1.3475260265	-4.2024149702	 2.1665010876	-0.076004
C	 2.1033789064	-4.6043537062	 3.4197925084	-0.068877
O	 1.4545555028	-4.1675536466	 4.5974170187	-0.418317
H	 1.0722970279	 1.9532520577	 0.3086796501	 0.114357
H	-0.4094983745	 2.0471590618	-0.6507422595	 0.117781
H	-0.5030573423	 1.8688317274	 1.1055368309	 0.114498
H	-0.9706921389	-0.3280067375	-0.073219772	 0.115692
H	 0.5854383806	-0.2452078028	-0.860702399	 0.113477
H	 1.7318177735	-0.3504799303	 1.3922438259	 0.129037
H	 0.1768942615	-0.4191580535	 2.1802476191	 0.127684
H	 0.3236814678	-4.5879324846	 2.1796312623	 0.128203
H	 1.8426767237	-4.5596105651	 1.2579707525	 0.120714
H	 2.1546561871	-5.6968324932	 3.4707920455	 0.116807
H	 3.135093988	-4.2230228108	 3.3601659767	 0.09583
H	 1.3383273978	-3.2152827965	 4.5078680831	 0.289465
29.5465	45.8904	65.6129	90.2689	129.3792	181.7419	243.9185	246.8578	293.7968	337.637	386.226	427.7785	509.1234	584.0375	718.2184	749.0178	847.8242	884.9201	887.7528	916.31	971.5876	1033.8286	1052.0568	1093.7724	1121.9819	1126.2433	1130.7216	1195.4628	1235.334	1250.0891	1263.1547	1321.735	1327.4953	1384.6534	1392.5338	1409.6038	1415.9886	1434.4565	1458.4497	1488.8382	1496.129	1499.4963	1500.4505	1508.9175	1823.0455	2984.7508	3028.6433	3031.0368	3051.1261	3053.1844	3057.8057	3078.9054	3082.8882	3102.48	3106.6166	3106.7717	3809.968
CCCC(=O)OCCO	CCCC(=O)OCCO	
InChI=1S/C6H12O3/c1-2-3-6(8)9-5-4-7/h7H,2-5H2,1H3	InChI=1S/C6H12O3/c1-2-3-6(8)9-5-4-7/h7H,2-5H2,1H3
