20
gdb 106508	3.30311	1.42667	1.23848	1.6229	79.47	-0.2087	0.0124	0.2212	1084.2562	0.172099	-403.105072	-403.097184	-403.096239	-403.137112	31.573	
C	 0.0897553461	 1.3922781644	 0.1253585213	-0.26377
O	-0.1613718526	 0.0214461124	-0.1098502453	-0.306079
C	 0.5867953138	-0.5287281659	-1.1552777843	 0.387858
C	 2.1427061734	-0.5783571151	-1.1201658441	-0.234025
N	 2.0534843748	-1.8988153426	-1.8467963091	-0.124497
C	 0.6956759397	-2.0669809312	-1.2082287088	-0.221409
C	 1.8858846657	-1.6424288183	-3.2930928516	-0.218617
C	 0.8150863109	-0.6091135294	-3.5858538273	-0.080032
C	 0.1816118058	-0.0644175111	-2.548225457	-0.126504
H	 1.1419713522	 1.5724057217	 0.3902002695	 0.111914
H	-0.1569143436	 2.0185243431	-0.7441503646	 0.108487
H	-0.5414001211	 1.6942283595	 0.9640510648	 0.129608
H	 2.7037086501	 0.2042680694	-1.6364681365	 0.101385
H	 2.5458433976	-0.7421526245	-0.1157264405	 0.106186
H	 0.8104193198	-2.5172556674	-0.2179555878	 0.108552
H	-0.0430880807	-2.615417621	-1.7967727193	 0.105028
H	 2.8563233828	-1.3290792701	-3.7005232519	 0.113507
H	 1.6448188637	-2.5947970444	-3.7839567254	 0.114691
H	 0.5814298913	-0.3587066466	-4.6172714526	 0.09172
H	-0.6229026596	 0.6566965172	-2.6477645696	 0.095997
115.2406	177.0934	179.3508	287.3463	345.0602	376.0122	428.761	462.9796	496.487	522.6286	628.3475	703.1978	717.9907	797.0407	888.2333	912.3695	919.4265	952.5075	970.0849	986.4245	1003.9701	1025.3936	1088.1006	1098.1157	1115.5623	1147.2276	1181.7238	1201.2939	1227.2945	1239.9545	1243.6239	1271.6087	1275.1137	1300.7549	1350.7938	1385.4163	1473.7083	1481.213	1486.611	1489.6586	1509.0728	1514.7672	1694.7874	2987.5046	3013.1229	3035.2356	3041.4696	3043.2659	3053.5239	3110.9029	3117.9451	3119.876	3156.6959	3190.8677
COC12CN(C1)CC=C2	CO[C@@]12CN(C1)CC=C2	
InChI=1S/C7H11NO/c1-9-7-3-2-4-8(5-7)6-7/h2-3H,4-6H2,1H3	InChI=1S/C7H11NO/c1-9-7-3-2-4-8(5-7)6-7/h2-3H,4-6H2,1H3
