18
gdb 49635	3.31132	1.54358	1.31785	4.2591	77.61	-0.233	0.0334	0.2664	997.7082	0.150338	-401.929738	-401.922968	-401.922024	-401.961452	27.249	
O	-0.0000396934	 0.0425011467	 0.1408881411	-0.342416
C	 0.0767553795	 1.248617153	 0.0170717579	 0.127342
N	 1.2201273122	 1.9451092278	-0.1805358255	 0.002284
C	 2.595752304	 1.4569833543	-0.0723106251	-0.032765
C	 3.2170481472	 2.0832249074	-1.3480899464	-0.233539
C	 2.9603992841	 3.4000055351	-0.599151132	-0.043605
C	 3.2071437619	 2.6754565124	 0.7690915153	-0.042026
C	 2.0478448304	 3.4619324729	 1.3989927332	-0.238428
C	 1.464199526	 3.3801790758	-0.0392452791	-0.048786
H	-0.8090041835	 1.9170883675	 0.0177428682	 0.06462
H	 2.6720526681	 0.409909738	 0.2049967306	 0.10988
H	 4.2904231076	 1.8912922978	-1.4281493121	 0.106766
H	 2.7153090515	 1.8792559318	-2.2971100058	 0.107246
H	 3.3879595312	 4.3655089139	-0.863146114	 0.08026
H	 4.1881205864	 2.5427276192	 1.2208028931	 0.08172
H	 1.4543675444	 3.0228246117	 2.2057895916	 0.106893
H	 2.3676363031	 4.4738146945	 1.6629166499	 0.107098
H	 0.6672138193	 4.0226365502	-0.4095972309	 0.087457
47.4533	205.4132	284.0727	396.8528	419.8523	511.8567	565.532	686.4967	714.7566	771.3926	799.1489	828.1196	856.7326	902.8592	919.6736	923.4081	987.7312	1000.6365	1014.0957	1025.6158	1039.891	1059.6377	1075.2877	1133.3905	1140.1813	1177.4227	1195.6696	1202.4554	1232.3835	1246.0747	1262.7746	1269.5838	1281.1526	1310.2448	1419.8835	1458.3328	1488.4016	1488.7331	1786.5456	2917.6294	3054.3455	3060.2485	3115.791	3121.7272	3131.3623	3137.8148	3143.1905	3178.7099
O=CN1C2CC3C2CC13	O=CN1[C@H]2C[C@@H]3[C@H]2C[C@H]13	
InChI=1S/C7H9NO/c9-3-8-6-1-4-5(6)2-7(4)8/h3-7H,1-2H2	InChI=1S/C7H9NO/c9-3-8-6-1-4-5(6)2-7(4)8/h3-7H,1-2H2/t4-,5-,6+,7+/m1/s1
