20
gdb 128286	3.43874	1.08941	0.84801	1.7949	85.4	-0.1818	0.0355	0.2174	1405.0392	0.171201	-399.354255	-399.344257	-399.343313	-399.389675	35.282	
C	 0.0951767728	 1.3242624988	 0.2260381118	-0.321016
N	-0.0437587989	-0.0417325577	-0.2451635755	-0.368695
C	-1.2779600069	-0.6648219676	-0.1199764442	 0.413081
N	-1.3513366521	-1.9900137901	-0.0170184033	-0.379108
N	-2.687871029	-2.260002891	 0.0016291361	-0.01421
C	-3.1152521034	-3.6232811067	 0.2034364616	-0.320302
C	-3.4451411268	-1.1358786223	-0.0572725874	 0.391291
C	-4.9394319694	-1.1480186767	-0.0304727707	-0.506032
C	-2.5643794837	-0.0722731426	-0.1410200538	-0.4025
H	 1.1320106774	 1.6423838629	 0.0913786884	 0.12095
H	-0.5312736826	 1.9933969757	-0.3731714604	 0.129499
H	-0.1788140287	 1.4634478174	 1.2843911271	 0.107552
H	 0.7052424868	-0.6554204659	 0.0438934049	 0.236567
H	-3.1197251577	-3.8956078679	 1.2663276041	 0.13187
H	-4.1207471902	-3.761845144	-0.1991967607	 0.132057
H	-2.424294201	-4.2847138607	-0.3219030421	 0.15222
H	-5.3341434717	-1.5736723435	 0.8995468004	 0.132767
H	-5.3171306999	-0.1269200916	-0.1145366138	 0.137644
H	-5.3618735281	-1.7268579515	-0.8602607622	 0.134337
H	-2.8243899072	 0.9698634848	-0.2262905402	 0.092027
66.1754	72.9447	127.3198	138.6898	176.7736	194.849	217.8491	279.1313	340.7876	386.9857	518.1043	561.775	625.2872	642.5537	717.4858	723.0594	757.5318	807.2443	989.7203	1016.234	1051.9305	1059.8641	1094.5304	1146.313	1153.9892	1178.7709	1185.6089	1230.7086	1318.153	1395.3859	1413.2264	1446.2884	1452.6919	1462.7989	1480.4182	1486.4774	1488.5032	1496.7809	1508.1223	1518.5501	1538.8252	1554.3237	1617.6051	2971.8931	3023.7266	3026.3513	3065.0204	3074.3299	3103.8322	3113.9361	3126.7787	3146.4219	3266.0632	3589.8083
CNC1=NN(C)C(C)=C1	CNc1nn(C)c(C)c1	
InChI=1S/C6H11N3/c1-5-4-6(7-2)8-9(5)3/h4H,1-3H3,(H,7,8)	InChI=1S/C6H11N3/c1-5-4-6(7-2)8-9(5)3/h4H,1-3H3,(H,7,8)
