18
gdb 62001	3.90321	0.68704	0.63893	2.3968	75.08	-0.2474	0.0305	0.2779	1727.8576	0.14457	-439.082111	-439.071501	-439.070557	-439.119091	37.42	
N	-0.0120828479	 1.3183293404	 0.214159226	-0.522545
C	 0.0271017837	 0.0229208492	-0.2185907439	 0.404657
O	 1.0200306871	-0.4604871536	-0.7276350434	-0.359102
C	-1.2713068414	-0.7570205751	-0.0233761296	-0.322408
C	-1.0248708892	-2.2594515867	 0.1168784641	-0.187323
C	-2.317858193	-3.077843079	-0.0574483439	-0.070993
O	-2.944090096	-2.8202420063	-1.3141613203	-0.41529
C	-2.0649827651	-4.5088472806	 0.1342064233	 0.29822
C	-1.8278497875	-5.6811972427	 0.2544793777	-0.433649
H	 0.775115532	 1.9100827982	 0.0034069288	 0.259772
H	-0.861417634	 1.7466171048	 0.5379692919	 0.257286
H	-1.8292553715	-0.36458491	 0.8352616377	 0.098601
H	-1.8964540272	-0.5859065756	-0.9085285474	 0.146094
H	-0.2920805863	-2.5684395818	-0.63503793	 0.130818
H	-0.5858188373	-2.4916949346	 1.0930954484	 0.113764
H	-3.0549846987	-2.7465186249	 0.6854505495	 0.114356
H	-2.4075669143	-3.2444636388	-1.9938133378	 0.28789
H	-1.6323866831	-6.7186998828	 0.3708442688	 0.199852
31.2259	59.3149	84.7059	127.5527	199.1762	202.8865	234.384	271.9786	317.9582	393.5639	448.7588	519.5373	548.8822	570.8131	618.356	632.3553	672.049	673.828	777.4493	839.336	915.7414	978.4367	1047.3777	1075.5636	1083.1335	1101.206	1165.9273	1239.6737	1271.4955	1304.0506	1332.3719	1363.898	1405.4161	1420.6413	1468.3676	1488.7855	1617.6801	1796.5596	2233.5395	3027.9733	3031.1791	3053.2015	3070.0655	3103.2638	3502.6053	3600.119	3736.3747	3799.9451
NC(=O)CCC(O)C#C	NC(=O)CC[C@@H](O)C#C	
InChI=1S/C6H9NO2/c1-2-5(8)3-4-6(7)9/h1,5,8H,3-4H2,(H2,7,9)	InChI=1S/C6H9NO2/c1-2-5(8)3-4-6(7)9/h1,5,8H,3-4H2,(H2,7,9)/t5-/m0/s1
