16
gdb 13999	4.30109	1.47575	1.2748	1.8448	71.69	-0.2572	0.0186	0.2759	978.183	0.128954	-346.538079	-346.53049	-346.529546	-346.570003	28.717	
C	 0.109486415	-1.1938856419	-0.2193800755	-0.433353
C	 0.0898429306	 0.0077491513	-0.1800261759	 0.353017
C	 0.0689758513	 1.4440923215	-0.1680408481	-0.275109
O	 0.2886277103	 2.1032181315	 1.100530699	-0.277398
C	 1.2840965229	 2.2361685226	 0.1125614196	 0.472961
C	 2.7253623523	 1.7407110884	 0.2171126073	-0.314525
C	 3.1140212256	 2.8733779815	-0.783107036	-0.211895
C	 1.7265712266	 3.5453472137	-0.5441372111	-0.314048
H	 0.1208978287	-2.2556414421	-0.2440803279	 0.203243
H	-0.71216135	 1.9060336902	-0.7714708578	 0.115701
H	 3.1309089327	 1.9076042605	 1.2191127153	 0.117546
H	 2.9151619531	 0.7060825662	-0.0760812627	 0.11823
H	 3.9919096899	 3.4686573133	-0.5287209096	 0.107333
H	 3.2244283339	 2.50320067	-1.8045812467	 0.111726
H	 1.1659818812	 3.8921147231	-1.4153145892	 0.107698
H	 1.7761499558	 4.3550629802	 0.1900541194	 0.118873
93.3423	129.894	154.9827	294.512	342.138	366.7692	509.4148	554.7529	579.1168	618.7674	669.6846	716.8065	780.6681	834.3213	860.3096	909.1943	921.4141	972.3157	1016.1045	1036.3998	1062.9311	1141.5491	1158.1511	1204.0295	1222.4666	1244.4719	1264.6137	1276.2136	1336.5415	1459.871	1467.5164	1480.4032	1509.6382	2237.8968	3058.4673	3064.5454	3077.5468	3109.2231	3111.2914	3117.7187	3136.2161	3502.2278
C#CC1OC11CCC1	C#C[C@H]1OC21CCC2	
InChI=1S/C7H8O/c1-2-6-7(8-6)4-3-5-7/h1,6H,3-5H2	InChI=1S/C7H8O/c1-2-6-7(8-6)4-3-5-7/h1,6H,3-5H2/t6-/m1/s1
