21
gdb 42044	2.84851	1.52167	1.10529	0.5776	78.52	-0.2372	0.08	0.3172	1136.8394	0.184974	-424.211088	-424.20326	-424.202316	-424.243499	31.074	
C	 0.0033254372	 1.3723690098	-0.4506030602	-0.249819
C	 1.290628456	 1.6770578719	 0.3670195767	-0.246808
C	 1.463286226	 0.1665075896	 0.629227493	 0.138813
O	 1.7309265242	-0.1315555652	 1.9798683569	-0.256979
C	 1.5356528037	-1.4939780474	 2.3244924729	-0.088284
C	 0.0953469622	-1.773439439	 2.7542667145	-0.07182
O	-0.8591763911	-1.6876181351	 1.7154107588	-0.247678
C	-1.0183484994	-0.3904642882	 1.1605687169	-0.087631
C	 0.0199620168	-0.0915360752	 0.0850648636	-0.038324
H	-0.88119068	 1.963842003	-0.1984733282	 0.100323
H	 0.1533246196	 1.4297091491	-1.5308213536	 0.104923
H	 2.1063584175	 2.1864862272	-0.1496325658	 0.100962
H	 1.0842934079	 2.20263089	 1.3022688011	 0.114423
H	 2.2238131825	-0.2982592363	-0.0162086576	 0.063708
H	 1.8187861793	-2.1556365103	 1.4922612785	 0.096039
H	 2.2015334905	-1.7076224217	 3.169808674	 0.103093
H	 0.0263843731	-2.7957874583	 3.1439732246	 0.102274
H	-0.1615828881	-1.0772650066	 3.5696062806	 0.093875
H	-2.0190837448	-0.3701973376	 0.7138040993	 0.103285
H	-0.9898644508	 0.3723385909	 1.9539880706	 0.092496
H	-0.0428284023	-0.8710855306	-0.6791492566	 0.073131
73.2161	162.5399	239.3221	280.4026	305.4639	374.5382	405.3209	437.3696	549.0535	594.8969	669.7844	759.0107	807.7378	845.2249	880.6084	916.2343	946.9845	966.8908	983.7587	1004.4336	1030.6586	1067.94	1118.6217	1127.9082	1148.1288	1157.3296	1184.8132	1222.9805	1242.222	1262.0437	1263.3189	1278.9688	1303.8983	1306.6736	1334.7855	1356.8465	1369.9351	1399.0508	1407.773	1420.8	1475.1719	1476.797	1485.7524	1493.2659	1497.2486	2973.711	2980.6254	2989.3353	2996.2991	3055.1168	3058.3569	3058.8789	3066.1119	3070.7449	3073.8577	3106.2716	3129.0991
C1CC2OCCOCC12	C1C[C@H]2OCCOC[C@@H]12	
InChI=1S/C7H12O2/c1-2-7-6(1)5-8-3-4-9-7/h6-7H,1-5H2	InChI=1S/C7H12O2/c1-2-7-6(1)5-8-3-4-9-7/h6-7H,1-5H2/t6-,7-/m1/s1
