15
gdb 127220	3.15268	1.26344	0.90713	2.8833	79.74	-0.2102	0.0041	0.2143	1227.3621	0.112281	-416.801948	-416.793339	-416.792395	-416.835464	31.501	
C	-0.0312480152	 1.3917668561	 0.1142083402	-0.315462
N	 0.0215253191	-0.046420385	-0.006700773	 0.048355
C	-0.0927063335	-0.7952194592	-1.1191151272	-0.134453
C	 0.0214319602	-2.1303472631	-0.7452049562	-0.017524
C	-0.0335622321	-3.278842411	-1.560402387	 0.244759
C	-0.0801504892	-4.2621204121	-2.254582203	-0.439648
C	 0.2074245618	-2.0502874615	 0.6630321147	 0.337138
O	 0.3680612268	-3.1030810945	 1.4816444248	-0.420599
N	 0.2080034851	-0.8050173159	 1.1083519104	-0.375808
H	 0.9044992229	 1.7724390909	 0.5334248768	 0.150545
H	-0.1842998476	 1.8223980738	-0.8766344649	 0.141627
H	-0.8558886602	 1.6882071478	 0.7687309576	 0.15051
H	-0.2448289631	-0.3551380433	-2.0917978608	 0.14337
H	-0.1201425996	-5.1328694987	-2.8599721761	 0.182504
H	 0.4721254246	-2.7556405344	 2.3766369435	 0.304687
63.7689	130.0404	137.7765	193.7612	295.5447	327.7769	402.1099	412.4183	475.5476	529.3008	538.5781	597.9754	615.8803	656.9996	660.625	735.8091	804.5806	822.4738	1015.2098	1081.5114	1152.4606	1183.584	1210.9978	1250.3596	1336.592	1424.8193	1456.0692	1470.7664	1485.9226	1532.3055	1567.6567	1617.7632	2234.9829	3045.6039	3109.505	3146.2187	3263.2945	3505.8419	3793.083
CN1C=C(C#C)C(O)=N1	Cn1cc(C#C)c(O)n1	
InChI=1S/C6H6N2O/c1-3-5-4-8(2)7-6(5)9/h1,4H,2H3,(H,7,9)	InChI=1S/C6H6N2O/c1-3-5-4-8(2)7-6(5)9/h1,4H,2H3,(H,7,9)
