16
gdb 63295	1.92491	1.67506	1.11413	5.5693	70.12	-0.265	-0.0452	0.2198	1108.4946	0.121324	-437.906033	-437.896994	-437.896049	-437.939882	33.162	
C	 0.3316708584	 1.4863398394	-0.2383859776	-0.454645
C	-0.0329553923	 0.0225597016	-0.0368710586	 0.377685
O	-1.4164364095	-0.1691704555	 0.1388118842	-0.469967
C	 0.6628415876	-0.9499394472	-1.0554023704	-0.403046
C	 1.6380161489	-1.3504733006	 0.049780243	 0.405026
O	 2.7053101897	-1.8762828951	 0.0874973276	-0.268414
C	 0.7382226614	-0.6871048352	 1.1373269734	-0.301817
C	 1.3432194518	 0.0942001024	 2.1920528587	 0.292203
N	 1.8425893489	 0.7448417437	 3.0071135488	-0.330955
H	 1.4136221556	 1.6246936351	-0.3219980462	 0.142803
H	-0.1226276982	 1.8616763234	-1.1629693344	 0.118161
H	-0.0255661685	 2.0888126616	 0.6007581073	 0.15264
H	-1.8868500933	 0.3657443639	-0.5096842269	 0.287831
H	 0.0001243693	-1.7797661099	-1.3210168717	 0.147653
H	 1.1045790226	-0.5290399626	-1.9612288044	 0.138741
H	 0.0770718477	-1.4546319148	 1.5564395573	 0.166101
60.6131	121.7355	147.1597	243.8579	257.167	290.0858	343.4712	355.3716	394.0333	423.837	452.9106	548.9684	604.6545	633.0682	738.6053	785.9983	856.6753	899.3288	974.4272	1015.8173	1053.6112	1067.1155	1104.7638	1120.0328	1186.648	1209.5046	1256.9818	1321.309	1368.5114	1416.9379	1431.4159	1487.0844	1493.2696	1912.6097	2355.0715	3032.9121	3057.9193	3063.4782	3103.2121	3126.3079	3128.8315	3809.8303
CC1(O)CC(=O)C1C#N	C[C@@]1(O)CC(=O)[C@H]1C#N	
InChI=1S/C6H7NO2/c1-6(9)2-5(8)4(6)3-7/h4,9H,2H2,1H3	InChI=1S/C6H7NO2/c1-6(9)2-5(8)4(6)3-7/h4,9H,2H2,1H3/t4-,6-/m1/s1
