17
gdb 68501	2.92873	1.33841	1.13439	1.8062	74.2	-0.2465	-0.0417	0.2048	1102.4093	0.134264	-421.803148	-421.794714	-421.79377	-421.836332	31.029	
C	 0.0271473064	 1.2406276486	-0.6365999747	-0.520325
C	 0.0207632331	-0.2008561346	-0.2204786789	 0.164926
C	 0.6245559374	-1.4516707623	-0.9549411589	-0.280265
C	 0.0120340764	-2.078007225	 0.3495168817	-0.182305
C	 0.5900963173	-0.8528494845	 1.1304569416	-0.120285
C	 2.0674641859	-0.7428717989	 1.3929243684	 0.118171
O	 2.9133339808	-1.5290773382	 1.0456793583	-0.241959
C	-1.1689574919	-1.1423755659	 0.0574716398	 0.423955
O	-2.3602059719	-1.1300098346	 0.0320311784	-0.323421
H	 1.0448272792	 1.6237536266	-0.7614170929	 0.1313
H	-0.4959634884	 1.3588314959	-1.5911196329	 0.141582
H	-0.4860530738	 1.8635914903	 0.1028563219	 0.135825
H	 0.1573242279	-1.7297307345	-1.9015009412	 0.115699
H	 1.7098796208	-1.4905791911	-1.0092202701	 0.144185
H	 0.0281208863	-3.1178545739	 0.6628822828	 0.105811
H	 0.04883689	-0.5400494285	 2.0308598232	 0.101534
H	 2.3418063844	 0.1657390106	 1.9769921635	 0.085571
87.9442	143.6839	168.7862	182.5691	207.6404	265.1058	324.0299	425.1321	506.7254	623.8982	693.6076	725.8112	741.8386	763.3952	788.1625	878.046	905.3922	992.1065	1007.5867	1018.1311	1031.8979	1060.8791	1098.1326	1144.0222	1171.6131	1180.1856	1190.172	1219.0204	1338.4841	1381.1637	1415.7195	1427.0466	1485.6488	1489.2205	1525.6481	1815.4797	1915.4532	2866.3983	3036.1667	3048.3291	3086.3382	3105.4563	3107.2363	3168.1375	3177.7868
CC12CC(C1C=O)C2=O	C[C@@]12C[C@@H]([C@H]1C=O)C2=O	
InChI=1S/C7H8O2/c1-7-2-4(6(7)9)5(7)3-8/h3-5H,2H2,1H3	InChI=1S/C7H8O2/c1-7-2-4(6(7)9)5(7)3-8/h3-5H,2H2,1H3/t4-,5+,7+/m0/s1
