14
gdb 7019	2.99892	1.4276	0.97292	1.45	67.83	-0.2599	-0.0223	0.2376	1121.8839	0.106037	-378.726297	-378.717928	-378.716984	-378.76017	29.214	
N	 0.0988643539	 1.256984243	-1.1295153749	-0.457585
C	-0.3835765287	 0.5556683122	-0.1878494702	 0.0987
N	-1.7476491198	 0.3085158837	-0.1358925325	-0.31539
C	-2.3452021917	-0.4393889237	 0.8483154048	 0.446664
O	-1.7422005319	-0.9545712553	 1.7645016001	-0.354335
C	-3.8732030719	-0.5994559729	 0.7304709918	-0.48898
C	-4.5140350496	 0.0523172038	-0.4006617588	 0.275342
C	-5.0156964441	 0.6017471147	-1.345216837	-0.41007
H	 1.1080406526	 1.3435816322	-1.0230503732	 0.23462
H	 0.1516628963	 0.0881669653	 0.6408779013	 0.140771
H	-2.3199568132	 0.7069960356	-0.869614425	 0.273194
H	-4.0648914751	-1.6785666841	 0.7169934382	 0.172996
H	-4.2900839985	-0.2350168617	 1.6764095263	 0.172994
H	-5.4734103184	 1.081838987	-2.1751154309	 0.211078
36.2767	112.4327	133.0331	188.1003	224.1832	326.5819	363.2694	473.6759	534.0198	578.9088	636.1265	644.6332	674.5182	704.5259	836.8304	947.466	955.1884	1003.8365	1091.1044	1093.8491	1205.1761	1219.5836	1301.0049	1308.563	1394.6834	1440.9513	1510.4711	1729.4116	1802.2775	2237.108	3046.4212	3079.3933	3123.282	3501.3665	3505.9397	3580.7958
N=CNC(=O)CC#C	N=CNC(=O)CC#C	
InChI=1S/C5H6N2O/c1-2-3-5(8)7-4-6/h1,4H,3H2,(H2,6,7,8)	InChI=1S/C5H6N2O/c1-2-3-5(8)7-4-6/h1,4H,3H2,(H2,6,7,8)
