20
gdb 74139	2.46095	1.38773	1.10517	5.9189	83.85	-0.2135	-0.0079	0.2056	1180.7419	0.170466	-403.207097	-403.197709	-403.196764	-403.240948	36.238	
C	-0.0188448064	 1.5491137585	 0.021206571	-0.419226
C	 0.0043262635	 0.0074922027	 0.0057225534	 0.195879
C	-1.4365787562	-0.5414682895	 0.0290262008	-0.428843
C	 0.8031218573	-0.5417270259	-1.2021022649	-0.381275
C	 1.9905596367	-1.3328108139	-0.6200623662	 0.39246
O	 2.8311421946	-1.9023680036	-1.2868934518	-0.367328
C	 1.8873933551	-1.2575673567	 0.8276420516	-0.351824
C	 0.8044933999	-0.528066341	 1.1953009977	 0.384698
N	 0.4161861863	-0.2107321513	 2.4588999955	-0.578775
H	 0.9970075785	 1.9547094942	-0.0015467956	 0.128113
H	-0.5575550083	 1.9274103912	-0.8534300529	 0.120806
H	-0.5160162415	 1.9419213458	 0.9145536746	 0.103682
H	-1.9839648017	-0.199410501	-0.8548843015	 0.125221
H	-1.4405816548	-1.6357463308	 0.0295251289	 0.127216
H	-1.9969217385	-0.2006728379	 0.9077195016	 0.098837
H	 0.2032738711	-1.2036901037	-1.8342131175	 0.11899
H	 1.1807746673	 0.2557876476	-1.8491295059	 0.120247
H	 2.5949404988	-1.7313140678	 1.4965511703	 0.087793
H	 0.8412791948	-0.6877439233	 3.2368416585	 0.264031
H	-0.5160743965	 0.1313959767	 2.6174631623	 0.259298
44.9319	161.5343	228.1129	249.0321	268.5881	284.4567	317.8288	322.206	372.7288	376.1746	472.6973	545.4534	567.166	568.8704	595.6881	693.6203	720.0059	851.6761	855.4505	906.4714	914.701	953.3147	976.3843	1033.7495	1073.7515	1104.8577	1168.0544	1214.6329	1239.9644	1252.6013	1282.9897	1297.1811	1389.5665	1399.1774	1425.7313	1465.9362	1483.159	1488.1081	1502.0651	1507.1386	1633.5417	1677.619	1794.5419	3024.6396	3032.0388	3055.8622	3087.6359	3096.126	3099.696	3109.19	3111.5422	3208.437	3603.8407	3715.355
CC1(C)CC(=O)C=C1N	CC1(C)CC(=O)C=C1N	
InChI=1S/C7H11NO/c1-7(2)4-5(9)3-6(7)8/h3H,4,8H2,1-2H3	InChI=1S/C7H11NO/c1-7(2)4-5(9)3-6(7)8/h3H,4,8H2,1-2H3
