17
gdb 13523	3.34544	1.61301	1.3395	5.0314	64.97	-0.2446	0.0136	0.2582	964.818	0.142662	-401.014906	-401.007056	-401.006112	-401.047391	28.534	
C	-0.0452532939	 1.476582415	 0.1436473548	-0.335057
N	 0.0994841852	 0.036019653	 0.0305700482	-0.09574
H	-1.0415180427	-0.7888252666	-1.3333981891	 0.295445
C	 0.6695573355	-0.7158425879	 1.1737506234	-0.162674
C	 1.4419500512	-1.6081991204	 0.1742097441	-0.248488
C	 1.1285055719	-0.5095349133	-0.8853362516	-0.109393
C	 0.5751243327	-0.9870545776	-2.2240955815	 0.423563
O	-0.7633659715	-1.101263705	-2.2216384972	-0.370526
O	 1.2616890218	-1.2685273192	-3.1686849828	-0.341754
H	 0.8937821105	 1.9756258083	 0.4376419322	 0.108641
H	-0.3704972304	 1.890570071	-0.8160074623	 0.136639
H	-0.8090235263	 1.7124699253	 0.8911300403	 0.131734
H	 1.3425853584	-0.0985591096	 1.7867153799	 0.101026
H	-0.0722585107	-1.1858574166	 1.8261112288	 0.114778
H	 2.4950476714	-1.7920959729	 0.3796921388	 0.126864
H	 0.9415392411	-2.5540884701	-0.0389968929	 0.129446
H	 1.9805857359	 0.1580325269	-1.0632911231	 0.095497
85.5345	121.1914	180.4586	221.7347	236.1894	314.3669	385.867	477.093	605.4111	680.5647	726.5168	794.6572	833.9897	845.4319	945.8429	951.1707	997.4351	1003.1931	1077.6065	1134.4712	1170.9267	1201.4026	1208.7951	1230.9873	1246.0102	1255.2405	1280.9381	1319.384	1343.1646	1416.5542	1454.5001	1488.4912	1489.7561	1500.4645	1523.3676	1873.7785	2964.0036	2998.1853	3036.3722	3070.1615	3076.1117	3095.275	3110.1091	3158.1686	3490.4781
C[NH+]1CCC1C([O-])=O	CN1CC[C@H]1C(=O)O	
InChI=1S/C5H9NO2/c1-6-3-2-4(6)5(7)8/h4H,2-3H2,1H3,(H,7,8)	InChI=1S/C5H9NO2/c1-6-3-2-4(6)5(7)8/h4H,2-3H2,1H3,(H,7,8)/t4-/m0/s1
