23
gdb 57354	2.27136	1.41228	1.27936	0.7151	80.4	-0.2515	0.057	0.3085	1165.3913	0.202843	-425.409112	-425.398816	-425.397872	-425.443501	39.543	
C	 0.2646595297	 1.5116420363	 0.188438356	-0.421749
C	 0.010150914	 0.0029993999	 0.0069839509	 0.224887
C	 0.6438133923	-0.7576958251	 1.1891094529	-0.412898
C	-1.5108123179	-0.2498738551	-0.0112149502	-0.412905
C	 0.6211186564	-0.5276853418	-1.3142441831	 0.364224
O	 0.3293750308	-1.9073504002	-1.3740628994	-0.485214
C	 0.3219337823	 0.2880528949	-2.6029131584	-0.142336
O	 1.670270776	 0.7917471638	-2.6395738514	-0.270964
C	 2.0926530822	-0.1291542046	-1.6165345801	-0.142331
H	 1.3302476759	 1.752972441	 0.2325965041	 0.117603
H	-0.182130699	 2.1095815183	-0.6106282125	 0.117621
H	-0.1832864808	 1.8414939537	 1.1313799575	 0.111485
H	 0.2117115939	-0.4142721333	 2.1347031107	 0.106465
H	 0.4748648105	-1.8325644328	 1.1016952473	 0.131805
H	 1.7249304905	-0.5866967243	 1.2413160059	 0.10517
H	-1.9963441326	 0.2906765054	-0.8314837601	 0.105169
H	-1.7319917569	-1.3123884647	-0.1281404986	 0.131808
H	-1.9629763265	 0.0979065589	 0.9233418872	 0.106468
H	 0.6993648525	-2.2624519172	-2.1886662909	 0.279801
H	 0.0951964848	-0.3568774937	-3.4657569971	 0.085151
H	-0.420417454	 1.0912650269	-2.559063424	 0.107794
H	 2.6787079701	 0.3610689708	-0.8327135509	 0.107794
H	 2.6792284258	-0.9657212273	-2.026325976	 0.085153
82.4171	96.9734	190.3927	230.7672	255.0286	255.3219	281.8869	317.0912	324.3346	352.2954	362.7891	391.1545	448.2079	469.9395	500.0955	614.7981	779.1055	843.0278	896.4497	931.3486	941.2079	948.0881	961.9316	1003.5209	1014.831	1032.6561	1037.1966	1093.6474	1104.39	1146.4506	1162.0449	1191.3639	1245.1133	1248.6679	1268.2529	1294.0788	1362.9877	1391.9423	1394.879	1401.3436	1433.7034	1478.6028	1483.9337	1490.1916	1494.4275	1503.0212	1518.593	1521.6758	1532.4216	2979.5294	2991.1433	3032.0634	3035.0664	3043.8168	3068.013	3070.9631	3091.7755	3094.3659	3104.9771	3119.3297	3131.6865	3135.1869	3815.097
CC(C)(C)C1(O)COC1	CC(C)(C)C1(O)COC1	
InChI=1S/C7H14O2/c1-6(2,3)7(8)4-9-5-7/h8H,4-5H2,1-3H3	InChI=1S/C7H14O2/c1-6(2,3)7(8)4-9-5-7/h8H,4-5H2,1-3H3
