23
gdb 88860	3.38975	0.96569	0.8342	1.8246	85.66	-0.2376	0.0802	0.3178	1465.2767	0.206733	-388.285526	-388.276131	-388.275187	-388.320823	34.763	
C	 0.1656960403	 1.5736970265	-0.3904958047	-0.408518
C	 0.0516762539	 0.0896463906	-0.1161185127	 0.001085
C	 1.2717853804	-0.7986450571	-0.1058675713	-0.311363
C	 0.5081419619	-0.5526256949	 1.1773440094	-0.008338
C	 1.1229962061	 0.2182386597	 2.3210818187	 0.000509
C	 0.1179452327	 0.8093450455	 3.3292405567	-0.249331
C	 0.9670697624	 0.9771931522	 4.5994799158	-0.068633
O	 2.0755422699	 0.0799866021	 4.4828586344	-0.262741
C	 1.9846993219	-0.6386378019	 3.2609718808	-0.073895
H	 1.0904577296	 1.9961720547	 0.0131228586	 0.11734
H	 0.1647401688	 1.7678024821	-1.4688401201	 0.117424
H	-0.672454275	 2.1288456363	 0.0459655545	 0.115912
H	-0.8408736708	-0.3598018328	-0.5448184364	 0.082046
H	 1.2203571501	-1.7777420447	-0.5695536875	 0.108486
H	 2.238039287	-0.3125257211	-0.2078549809	 0.107609
H	-0.1113771384	-1.3819333362	 1.5151318797	 0.07772
H	 1.752195185	 1.0280673175	 1.9336368631	 0.072265
H	-0.3294529987	 1.7476192276	 2.9927333958	 0.104187
H	-0.6960484142	 0.0946826204	 3.4976855379	 0.101346
H	 1.356394472	 1.9999170578	 4.695209558	 0.096114
H	 0.4030159302	 0.7485797122	 5.5126107084	 0.096642
H	 1.5113359964	-1.6229031432	 3.4201323968	 0.079786
H	 2.9987603685	-0.8100325431	 2.8861753251	 0.104347
43.3179	66.6712	113.7305	138.5291	211.8871	218.3555	340.1281	366.4407	387.6716	504.0139	591.997	685.6106	771.3556	827.997	849.0189	867.3152	897.865	917.0872	929.968	962.6555	978.5706	1004.1227	1036.0629	1062.4838	1081.6489	1107.4498	1114.2761	1133.6366	1150.4827	1189.2096	1198.294	1199.6448	1231.6526	1242.4057	1264.2381	1289.9461	1308.5283	1339.7733	1368.7662	1394.3946	1406.4415	1420.5239	1441.4019	1491.8586	1493.006	1495.5052	1507.6619	1519.5777	1535.7309	2954.1142	3005.6466	3027.7271	3030.3387	3037.889	3049.3929	3071.4939	3086.1051	3101.422	3104.8067	3113.9906	3122.2436	3134.7013	3206.4261
CC1CC1C1CCOC1	C[C@H]1C[C@H]1[C@H]1CCOC1	
InChI=1S/C8H14O/c1-6-4-8(6)7-2-3-9-5-7/h6-8H,2-5H2,1H3	InChI=1S/C8H14O/c1-6-4-8(6)7-2-3-9-5-7/h6-8H,2-5H2,1H3/t6-,7-,8+/m0/s1
