16
gdb 113636	3.70037	0.9731	0.80918	4.1276	74.76	-0.2643	-0.0504	0.2139	1367.3015	0.121877	-437.835653	-437.826294	-437.825349	-437.870696	32.968	
O	 0.0442227639	 1.3295021773	 0.3107606411	-0.415567
C	-0.080525389	 0.0787604443	-0.3348915788	-0.066633
C	-1.3373551067	-0.6325540867	 0.1022594441	-0.028739
C	-1.4793612483	-2.1290580226	 0.1310552756	-0.263409
N	-1.2518394355	-1.3739447831	 1.3463484809	-0.09098
C	-2.1217930108	-1.2007209195	 2.4127705223	 0.236385
O	-2.4108775511	-0.1065940084	 2.8503022335	-0.328502
C	-2.5857321441	-2.4403215895	 3.0085279721	 0.264238
C	-3.0015582661	-3.4528223775	 3.5065910674	-0.422713
H	-0.1044148742	 1.1857607037	 1.2532037049	 0.296215
H	-0.1182690555	 0.2862336188	-1.4098059269	 0.115302
H	 0.7859984009	-0.5745673778	-0.1458551558	 0.092866
H	-2.2525667114	-0.0581948885	-0.033703689	 0.122788
H	-2.4702480908	-2.5457560162	-0.0304913453	 0.139221
H	-0.6551985127	-2.7605933256	-0.1901139528	 0.132823
H	-3.3716050585	-4.3411406787	 3.9581209866	 0.216703
53.8611	73.1194	113.5226	141.0181	193.6908	271.2511	302.4211	359.1639	398.2268	460.7617	541.8667	579.5069	657.4036	700.6005	732.008	776.2888	827.7392	906.992	974.8285	1036.1144	1076.7613	1088.2044	1131.9423	1142.175	1148.2952	1205.082	1237.3717	1343.5143	1372.1036	1419.628	1461.2552	1499.4038	1513.8697	1752.1327	2224.515	2982.2693	3072.4691	3108.6501	3134.6663	3198.0406	3495.265	3789.9909
OCC1CN1C(=O)C#C	OC[C@H]1CN1C(=O)C#C	
InChI=1S/C6H7NO2/c1-2-6(9)7-3-5(7)4-8/h1,5,8H,3-4H2	InChI=1S/C6H7NO2/c1-2-6(9)7-3-5(7)4-8/h1,5,8H,3-4H2/t5-,7?/m1/s1
