21
gdb 60142	3.39693	1.02799	0.96521	2.6422	79.05	-0.2277	0.0732	0.3009	1340.9739	0.180504	-424.169768	-424.160463	-424.159519	-424.204597	34.635	
C	 0.0484527487	 1.5010419955	-0.0046688303	-0.389594
C	-0.0914969664	-0.0162909682	 0.0102133301	 0.154162
C	 0.0324663106	-0.5979867449	 1.4203410625	-0.391411
O	-1.3606281333	-0.3025774939	-0.5855989084	-0.260813
C	-1.5412730649	-1.6134119892	-0.9953704598	 0.121529
C	-2.2359601142	-2.6771089597	-0.1647651057	-0.199769
C	-3.4211365367	-2.039089065	 0.5555994315	-0.079405
O	-3.9330725965	-1.4690111038	-0.6769022615	-0.276447
C	-2.887888412	-2.0873324433	-1.4189165636	 0.035586
H	 1.0185460286	 1.8031710381	 0.4010201897	 0.111241
H	-0.040665023	 1.8832161296	-1.0246977738	 0.123294
H	-0.7390687455	 1.9592820996	 0.6018742368	 0.125632
H	 0.6961532773	-0.4564252868	-0.6244969395	 0.064885
H	 1.0150060286	-0.3617461281	 1.841824672	 0.112895
H	-0.7335896434	-0.1724262802	 2.0766266589	 0.121456
H	-0.0798038435	-1.6850905984	 1.4162591585	 0.122017
H	-0.727514687	-2.0187174387	-1.6026125162	 0.086825
H	-1.8191166748	-3.6549498605	 0.0400723664	 0.095145
H	-4.131353709	-2.7672283826	 0.9615114602	 0.107649
H	-3.1965535988	-1.272298581	 1.3045231449	 0.111537
H	-3.1367711349	-2.4929451485	-2.3940769627	 0.103584
36.2829	84.4261	144.114	208.0933	218.3752	250.1392	282.1646	347.2037	393.0217	469.0089	548.7574	623.4397	734.5288	801.6374	814.5973	843.2489	925.948	926.9575	943.9785	959.2227	967.5483	982.3445	1027.9787	1051.473	1056.1233	1095.2996	1126.2037	1149.64	1165.7946	1171.1511	1197.5004	1219.0397	1262.4398	1314.9166	1345.9163	1365.3605	1380.0897	1396.5979	1413.3659	1456.3027	1478.8084	1486.3756	1492.4111	1506.898	1510.7302	2958.4537	3034.524	3037.5526	3043.8991	3072.7459	3085.104	3106.1917	3116.689	3121.3187	3124.5767	3164.4432	3191.1242
CC(C)OC1C2COC12	CC(C)O[C@H]1[C@H]2CO[C@@H]12	
InChI=1S/C7H12O2/c1-4(2)9-7-5-3-8-6(5)7/h4-7H,3H2,1-2H3	InChI=1S/C7H12O2/c1-4(2)9-7-5-3-8-6(5)7/h4-7H,3H2,1-2H3/t5-,6+,7-/m0/s1
