20
gdb 85403	1.85666	1.6708	0.91414	3.2684	83.53	-0.2124	0.0014	0.2138	1300.034	0.171391	-403.217456	-403.208415	-403.207471	-403.251012	34.43	
C	 0.0043433296	 1.6070139161	-0.0539086559	-0.399399
C	 0.0347094797	 0.0757106304	 0.0217721847	-0.037636
C	 0.6697639734	-0.5329730058	-1.2411749179	-0.322006
C	 0.937548645	-2.0278063634	-1.1416710133	 0.384519
O	 0.8923807272	-2.7947192061	-2.0813650133	-0.363552
N	 1.3060477895	-2.447581351	 0.1196795842	-0.38217
C	 1.3392629378	-1.6322796697	 1.2652182453	 0.36805
C	 2.0379324357	-2.2376132773	 2.4460843981	-0.488005
C	 0.7631297165	-0.4260046213	 1.2455409897	-0.179969
H	 1.0193277735	 2.0150277628	-0.1166307792	 0.117094
H	-0.5527686562	 1.9473734662	-0.9326198352	 0.115466
H	-0.4742468654	 2.0337604016	 0.8336509695	 0.114418
H	-1.0100041916	-0.2737433263	 0.0754162156	 0.089571
H	 0.0620930547	-0.3635517529	-2.132530421	 0.125914
H	 1.6447371259	-0.0549174662	-1.4171086495	 0.123796
H	 1.5758167138	-3.4179531333	 0.1884454911	 0.247359
H	 3.0859545383	-2.4643482401	 2.2151834261	 0.134411
H	 2.010824779	-1.5585678632	 3.2998364491	 0.137581
H	 1.5619589333	-3.1798745054	 2.7466911648	 0.131381
H	 0.7943196502	 0.192971195	 2.1350321271	 0.083175
111.9309	119.3695	156.7693	199.2583	252.0417	266.2635	310.1815	419.928	430.8286	489.0621	526.422	542.4113	584.7137	601.9908	669.2211	785.9321	864.7583	880.1551	926.3251	967.5832	1011.8166	1021.6755	1067.999	1081.409	1101.8171	1164.6989	1187.9859	1212.5775	1289.8861	1307.7802	1339.7606	1351.117	1375.1548	1411.9336	1415.8715	1459.3001	1463.8184	1476.9043	1496.2019	1496.9293	1500.8646	1740.2862	1804.204	2957.7018	3013.5487	3020.8646	3029.3631	3069.318	3098.3495	3103.1457	3112.4077	3135.7966	3190.2913	3615.9127
CC1CC(=O)NC(C)=C1	C[C@H]1CC(=O)NC(=C1)C	
InChI=1S/C7H11NO/c1-5-3-6(2)8-7(9)4-5/h3,5H,4H2,1-2H3,(H,8,9)	InChI=1S/C7H11NO/c1-5-3-6(2)8-7(9)4-5/h3,5H,4H2,1-2H3,(H,8,9)/t5-/m1/s1
