14
gdb 129204	3.83236	1.17614	0.89995	1.6499	77.52	-0.2293	-0.0942	0.1351	1191.8723	0.102699	-432.886837	-432.879461	-432.878517	-432.918983	27.438	
N	-0.0645254135	 1.3390798699	 0.0108895463	-0.547057
C	-0.0157490767	 0.0565823069	 0.0032176275	 0.406643
N	 1.1483001458	-0.7258041493	-0.0075556087	-0.306228
N	 1.2503564039	-2.0690089997	-0.0158674811	-0.184413
C	 0.1435457935	-2.7418313101	-0.0138129586	-0.055694
C	-1.1510532837	-2.1053961903	-0.0031813625	 0.193227
C	-2.3847273855	-2.9271667527	-0.0013019034	 0.099562
O	-2.3883986812	-4.1344537851	-0.0083401973	-0.252921
C	-1.2225215404	-0.7525193479	 0.0050219029	-0.208963
H	 0.8670601399	 1.7583087567	 0.0083067372	 0.205706
H	 2.0414934855	-0.2551846583	-0.0096327679	 0.26858
H	 0.2210580626	-3.821511267	-0.0204678069	 0.153101
H	-3.3283909047	-2.3398108155	 0.0070786412	 0.088145
H	-2.1665517356	-0.2179860275	 0.0131819914	 0.140311
102.1932	151.3291	192.2351	248.9519	386.886	391.8275	457.0255	559.2653	568.513	646.5248	663.8511	729.417	775.3107	804.7006	915.8747	924.3573	944.0692	1022.3755	1040.8876	1109.871	1142.9286	1184.6824	1300.8884	1366.8654	1406.9526	1424.0703	1462.0102	1596.5841	1658.582	1703.8169	1802.2662	2900.6284	3199.8851	3222.9994	3458.7107	3612.2134
N=C1NN=CC(C=O)=C1	[NH]C1=C[C@@H](C=NN1)C=O	
InChI=1S/C5H5N3O/c6-5-1-4(3-9)2-7-8-5/h1-3H,(H2,6,8)	InChI=1S/C5H6N3O/c6-5-1-4(3-9)2-7-8-5/h1-4,6,8H/t4-/m0/s1
