12
gdb 21688	3.55362	1.86983	1.2268	2.4761	58.79	-0.2541	-0.0621	0.192	886.7711	0.084398	-414.661697	-414.654826	-414.653882	-414.692885	24.806	
N	 0.0384565746	 1.368913878	 0.1393743329	-0.585558
C	 0.0421673564	-0.0037970744	 0.0307263363	 0.344081
N	-1.0824608478	-0.6855309327	 0.0187163016	-0.222267
O	-0.6904716154	-2.042354999	-0.0116588898	-0.158114
C	 0.6283760331	-2.1146783039	-0.0340031263	 0.047458
C	 1.192712111	-0.868993562	-0.0071731031	 0.006937
C	 2.6131947856	-0.5426188162	 0.0096643066	 0.061678
O	 3.5053064506	-1.3609067913	-0.0391131193	-0.275618
H	 0.7723421906	 1.8466375801	-0.3616870165	 0.263762
H	-0.8702935927	 1.7831538842	-0.0177327006	 0.269559
H	 1.0658555624	-3.1011311959	-0.0623087821	 0.183034
H	 2.8421188317	 0.5444120531	 0.0783757303	 0.065048
142.0517	166.4674	216.3923	287.8513	346.4028	362.838	538.1792	593.8793	613.3102	670.4567	746.6425	827.6646	896.1362	899.9115	927.302	1035.3679	1133.1972	1183.8338	1228.5429	1334.0535	1437.7957	1475.2867	1531.8363	1628.2953	1658.8126	1787.7814	2874.8046	3266.883	3565.6905	3668.7432
NC1=NOC=C1C=O	Nc1nocc1C=O	
InChI=1S/C4H4N2O2/c5-4-3(1-7)2-8-6-4/h1-2H,(H2,5,6)	InChI=1S/C4H4N2O2/c5-4-3(1-7)2-8-6-4/h1-2H,(H2,5,6)
