20
gdb 61854	4.75754	0.7379	0.72208	1.0052	76.28	-0.2284	-0.031	0.1975	1585.6152	0.168762	-440.242651	-440.232897	-440.231953	-440.278846	34.01	
C	-0.029901312	 1.6214728077	-0.0605672932	-0.34486
N	-0.052142965	 0.1769232212	 0.138598641	-0.073545
C	 0.6855182601	-0.2107586076	 1.3273324114	-0.243396
C	 2.1877530986	-0.0630802074	 1.1179857742	 0.15332
O	 2.9777834716	 0.1740552438	 1.9921239812	-0.235157
C	-1.336852858	-0.469575369	-0.0200893554	 0.009552
C	-2.666118435	 0.1236416475	 0.5446903527	-0.097663
O	-3.2849388818	 0.0437115114	-0.7541751558	-0.270137
C	-2.0559747552	-0.3644742072	-1.3847638987	-0.10465
H	 1.0068248907	 1.96288359	-0.1482118474	 0.131285
H	-0.5433248194	 1.8898170906	-0.9858455347	 0.13495
H	-0.49433776	 2.1844142437	 0.7672598501	 0.11059
H	 0.4036504508	 0.3336452953	 2.2452418902	 0.111642
H	 0.5134810237	-1.2786513504	 1.5206852721	 0.129202
H	 2.4997805535	-0.2263867969	 0.0606404601	 0.085937
H	-1.2125271805	-1.5125063967	 0.2800218268	 0.090667
H	-3.194140023	-0.480528441	 1.2917752321	 0.10181
H	-2.6012860263	 1.1578584086	 0.9063158754	 0.100534
H	-1.6595924568	 0.4026088688	-2.061954009	 0.103412
H	-2.166649316	-1.3003033124	-1.9449364728	 0.106509
43.5349	54.25	78.9365	113.7181	200.8974	235.6589	289.3908	305.8743	349.3893	399.4937	480.8257	572.7332	715.6716	757.5623	863.3478	879.18	934.5119	1004.4915	1014.2525	1040.3581	1051.2126	1072.8957	1102.15	1110.2193	1149.1018	1152.6581	1161.6137	1212.5895	1243.3399	1258.8714	1300.4957	1306.1327	1353.582	1364.4188	1399.5854	1424.5787	1454.9471	1474.0439	1490.2341	1501.0188	1520.4616	1537.7057	1842.506	2874.5012	2958.1736	2961.3447	3011.0043	3022.9388	3037.2557	3054.0576	3058.3101	3068.7819	3084.0816	3128.8593
CN(CC=O)C1COC1	CN(CC=O)C1COC1	
InChI=1S/C6H11NO2/c1-7(2-3-8)6-4-9-5-6/h3,6H,2,4-5H2,1H3	InChI=1S/C6H11NO2/c1-7(2-3-8)6-4-9-5-6/h3,6H,2,4-5H2,1H3
