17
gdb 127388	3.84971	1.12442	1.07684	2.1014	75.33	-0.2317	-0.0189	0.2127	1168.7406	0.136709	-417.966268	-417.95844	-417.957496	-417.999312	29.235	
C	 0.2598088416	 1.5048286743	-0.4732002513	-0.325107
N	 0.0516088845	 0.1097189589	-0.1011506613	-0.08591
C	 1.2288993196	-0.7356012063	-0.0038383154	-0.249346
C	 0.4868520312	-0.3528179006	 1.2340594939	-0.110181
C	 1.0848643219	 0.5492486124	 2.244897554	 0.394018
N	 2.2344174674	 1.1640957293	 2.0582880127	-0.205489
O	 2.449590544	 1.9297791528	 3.1991485236	-0.162566
C	 1.4272186273	 1.7438842379	 4.0453729235	 0.085598
C	 0.5235077532	 0.8852615313	 3.514574485	-0.347267
H	 1.1945249227	 1.9386325437	-0.092583678	 0.134288
H	 0.2658436086	 1.5645099169	-1.5658670566	 0.12431
H	-0.5797087428	 2.1029665486	-0.1046853568	 0.12008
H	 1.1292891133	-1.7440781695	-0.3973031433	 0.115747
H	 2.2054875281	-0.2759795574	-0.1427918832	 0.13647
H	-0.2050299166	-1.0703734454	 1.668638453	 0.09492
H	 1.4840549838	 2.2851162775	 4.9771483465	 0.15467
H	-0.4015892777	 0.5381769656	 3.9435026437	 0.125765
46.7767	129.0872	185.1349	224.9518	302.003	361.1635	431.9215	487.269	612.601	657.0693	727.3547	777.8299	809.3015	868.9295	873.237	912.1431	941.647	968.6529	1031.2511	1045.2993	1074.1136	1104.5644	1130.2532	1137.5669	1157.5244	1173.7915	1213.3335	1255.6578	1326.4087	1374.2997	1450.0758	1461.1411	1487.1388	1492.0362	1504.7057	1511.7249	1602.5742	3007.5085	3081.1617	3097.9479	3104.9153	3131.4293	3186.4325	3261.9139	3286.485
CN1CC1C1=NOC=C1	CN1C[C@H]1c1nocc1	
InChI=1S/C6H8N2O/c1-8-4-6(8)5-2-3-9-7-5/h2-3,6H,4H2,1H3	InChI=1S/C6H8N2O/c1-8-4-6(8)5-2-3-9-7-5/h2-3,6H,4H2,1H3/t6-,8?/m0/s1
