19
gdb 116332	3.09323	1.30656	1.01677	1.6767	71.61	-0.2447	0.075	0.3197	1194.4329	0.159493	-460.127328	-460.118922	-460.117978	-460.16074	31.184	
C	 0.0234200603	 1.3858653555	 0.0155961424	-0.236033
O	-0.1049445612	-0.0156057252	-0.0935664757	-0.248968
C	 0.6342104921	-0.5950640477	-1.1515777386	 0.101492
C	 2.1275741534	-0.7549781855	-0.8192812051	-0.125463
O	 2.7872244823	-1.4264237968	-1.8797392825	-0.250554
C	 2.4185693991	-2.7895784784	-1.996224788	-0.100462
C	 0.9247438319	-3.0380705877	-1.8771469006	 0.018408
O	 0.3860187015	-3.0053215284	-0.5505908779	-0.249777
C	 0.0335843885	-1.9494792148	-1.447786988	 0.029041
H	 1.0369294243	 1.6988505762	 0.3042561377	 0.111123
H	-0.2382729809	 1.8908143607	-0.9272637823	 0.106424
H	-0.6720530784	 1.7098509035	 0.7934804978	 0.131989
H	 0.5419739769	 0.0197770731	-2.0633403308	 0.073265
H	 2.6142132409	 0.2185752172	-0.7246867809	 0.10616
H	 2.225528622	-1.2957561344	 0.1321695801	 0.116039
H	 2.7690852177	-3.1131025994	-2.9814675881	 0.113312
H	 2.9334150066	-3.397522855	-1.2343917975	 0.107967
H	 0.5234088366	-3.8371707127	-2.500538434	 0.098557
H	-1.0113676933	-1.9449933503	-1.7557289979	 0.09748
70.3487	104.8118	182.5983	195.7505	281.3303	309.4736	371.022	392.7711	438.5352	484.5404	647.7932	703.3632	791.9624	852.0663	905.1028	934.0481	965.0081	1007.6059	1027.6206	1072.6574	1081.4253	1120.0188	1152.4445	1159.9216	1168.7942	1182.1032	1225.4612	1255.6038	1283.2986	1314.6944	1336.1529	1350.5748	1382.2666	1395.0808	1420.6393	1468.9038	1480.2756	1486.5856	1495.0316	1498.9633	1509.808	2962.1869	2977.3134	2981.2518	3019.1506	3032.0882	3077.1792	3103.4738	3109.4592	3116.2244	3124.5398
COC1COCC2OC12	CO[C@H]1COC[C@H]2O[C@@H]12	
InChI=1S/C6H10O3/c1-7-4-2-8-3-5-6(4)9-5/h4-6H,2-3H2,1H3	InChI=1S/C6H10O3/c1-7-4-2-8-3-5-6(4)9-5/h4-6H,2-3H2,1H3/t4-,5+,6-/m0/s1
