21
gdb 119490	3.90777	0.95722	0.88433	1.9811	81.99	-0.2254	0.0689	0.2944	1421.528	0.181348	-387.020732	-387.011963	-387.011019	-387.05462	33.826	
C	 0.026284465	 1.6745953822	-0.0749749127	-0.379788
C	 0.0376035438	 0.1491441761	 0.0508278614	-0.166765
C	 0.5943319178	-0.5413375975	-1.2035513927	-0.317361
C	 0.6258116495	-2.0336687638	-1.1048845814	 0.4331
O	 0.633550371	-2.8066656024	-2.3186857547	-0.294804
C	-0.3675321377	-3.0842938362	-1.3240156362	-0.063709
C	 0.256066111	-3.9691420077	-0.2001688884	-0.084217
C	 1.7100453844	-4.2520274447	-0.4676679984	-0.287912
C	 1.3044621808	-2.8883755938	 0.0266451222	-0.131549
H	 1.037175055	 2.065919777	-0.2340518714	 0.11657
H	-0.5891250174	 1.9976515342	-0.9218898126	 0.116685
H	-0.3750761677	 2.1451969526	 0.8277054698	 0.112812
H	 0.6338247408	-0.1400276431	 0.9249847673	 0.102165
H	-0.9793221324	-0.2161198763	 0.2403404829	 0.10033
H	-0.0077912896	-0.2737475846	-2.0797887762	 0.111381
H	 1.6122363409	-0.1753578982	-1.4010315464	 0.105317
H	-1.4042514538	-3.053605224	-1.6390032959	 0.100975
H	-0.3305779999	-4.4989326108	 0.5382159127	 0.091144
H	 2.1944773312	-4.8763684043	 0.2766244134	 0.108756
H	 2.0621080756	-4.3829495319	-1.4828487373	 0.135945
H	 1.6427058216	-2.4761845126	 0.9680467547	 0.090925
70.5328	81.374	116.8282	240.2722	257.5805	299.5091	349.5264	419.7769	495.62	589.024	640.1485	729.0434	742.77	758.6507	801.8235	847.8889	855.5095	905.4542	917.0808	924.6925	940.4266	995.2598	1012.2272	1032.2113	1049.3814	1053.4475	1090.9243	1101.9482	1121.6613	1167.3079	1187.0897	1248.3511	1264.5126	1283.7957	1300.6921	1312.1671	1328.2952	1387.6529	1413.6147	1457.2466	1476.6048	1485.1187	1493.4973	1499.3492	1510.4751	3006.8221	3026.2704	3031.2498	3049.7359	3070.6002	3098.975	3104.5662	3139.6019	3181.0452	3197.0577	3207.4849	3232.9375
CCCC12OC1C1CC21	CCC[C@]12O[C@H]1[C@H]1C[C@@H]21	
InChI=1S/C8H12O/c1-2-3-8-6-4-5(6)7(8)9-8/h5-7H,2-4H2,1H3	InChI=1S/C8H12O/c1-2-3-8-6-4-5(6)7(8)9-8/h5-7H,2-4H2,1H3/t5-,6+,7-,8+/m0/s1
