17
gdb 49439	3.01689	1.69997	1.4854	3.3729	70.51	-0.2386	-0.02	0.2186	923.7018	0.136847	-421.797647	-421.790637	-421.789693	-421.829308	27.386	
O	-0.5101437359	 0.5989570144	 0.6723513325	-0.258153
C	 0.0627268738	 1.0516608877	-0.2878026106	 0.151298
C	 1.2485924746	 1.9843061458	-0.209409592	-0.094073
C	 1.4304081512	 3.0456274123	-1.2968000192	-0.140493
C	 0.5036835368	 4.206903966	-0.9856713348	 0.115649
O	-0.62946216	 3.9626428085	-0.1797508891	-0.274237
C	-0.1394495144	 3.6383903956	 1.1337142733	-0.086256
C	 1.2740163925	 3.1266156311	 0.8727796079	-0.095686
C	 1.7806755811	 4.0951909769	-0.2323283747	-0.121013
H	-0.2488513193	 0.7819582625	-1.3238392199	 0.076439
H	 2.1510375896	 1.3669112313	-0.1243174984	 0.1111
H	 1.8727371322	 2.8987306948	-2.2754925565	 0.090289
H	 0.3477885608	 4.9647458739	-1.7435896137	 0.107755
H	-0.1237714206	 4.5373903876	 1.7675608834	 0.094519
H	-0.8042606604	 2.8912943084	 1.5702406965	 0.141023
H	 1.8846932984	 2.9588712894	 1.7573741253	 0.085219
H	 2.5841871097	 4.8167202438	-0.17893317	 0.09662
98.5024	128.536	190.0299	333.1093	394.3019	518.5271	560.6737	701.2714	719.0129	759.7918	767.9013	810.2155	836.2652	891.7173	911.9388	939.8348	992.3564	1007.0766	1014.0912	1045.8114	1055.6026	1063.0967	1073.8833	1104.7073	1126.0384	1171.3014	1209.8692	1232.4765	1243.3208	1278.4663	1307.3149	1321.2956	1362.9984	1408.1577	1416.0573	1512.6533	1816.703	2860.3399	2997.4044	3042.5048	3124.4524	3140.6718	3174.3536	3194.4036	3210.0186
O=CC1C2C3OCC1C23	O=C[C@H]1[C@H]2[C@H]3OC[C@@H]1[C@@H]23	
InChI=1S/C7H8O2/c8-1-3-4-2-9-7-5(3)6(4)7/h1,3-7H,2H2	InChI=1S/C7H8O2/c8-1-3-4-2-9-7-5(3)6(4)7/h1,3-7H,2H2/t3-,4+,5-,6+,7-/m1/s1
