22
gdb 62678	2.35542	1.69653	1.27572	1.7465	86.72	-0.1985	0.0748	0.2732	1111.5169	0.192741	-367.125029	-367.115852	-367.114908	-367.158007	36.444	
C	-0.1366054645	 1.6122789413	-0.0009881895	-0.467058
C	 0.0839830699	 0.1032789383	 0.0338549331	 0.250135
C	-1.0760256569	-0.5946624291	-0.6812817005	-0.441525
C	 1.3769015953	-0.6757454664	-0.1917989141	-0.151089
C	 2.6629090612	-0.1770442327	 0.5126640547	-0.065894
N	 2.4220829034	 1.1154028532	 1.1989414679	-0.341977
C	 1.9758797951	-0.1619428811	 1.8169095838	-0.116706
C	 0.6605413952	-0.719157976	 1.1713261247	 0.297778
C	-0.0161219612	-1.8504379361	 1.8976996496	-0.494411
H	-0.0767136149	 1.9706173088	-1.0361630008	 0.103657
H	-1.149901166	 1.83353111	 0.3577883063	 0.096207
H	 0.583129917	 2.1608396019	 0.5947230711	 0.154226
H	-1.1940585896	-0.1705014897	-1.6844146221	 0.115397
H	-0.926210236	-1.6713630202	-0.7943232618	 0.110758
H	-2.0183026441	-0.4380712737	-0.1440381284	 0.113843
H	 1.4182692692	-1.4573020554	-0.9424434247	 0.078022
H	 3.6658331353	-0.4930829627	 0.2550049638	 0.090947
H	 3.2963913206	 1.3628931343	 1.6640199353	 0.226262
H	 2.3277589805	-0.4568100006	 2.7981390763	 0.088109
H	-0.4920418864	-1.4878851223	 2.8183658662	 0.117641
H	-0.7885080204	-2.3351051746	 1.2974236042	 0.122064
H	 0.7093886774	-2.6201020271	 2.189561535	 0.113613
124.4031	166.527	185.1871	201.1334	243.511	298.2375	325.2997	349.4068	373.3031	399.6705	488.0681	588.4558	611.569	690.2337	715.492	792.8574	830.2536	871.8047	895.5271	911.8885	912.897	957.4156	963.2355	999.6348	1021.2533	1034.5933	1081.4574	1113.6197	1120.8276	1149.1484	1154.9068	1201.6847	1222.1017	1249.487	1303.0842	1305.7773	1362.6557	1397.9487	1408.6454	1422.9664	1439.4457	1480.5448	1487.9079	1490.5455	1501.8576	1511.5862	1519.4746	3014.5011	3018.3516	3029.8159	3061.7422	3068.2499	3089.6716	3109.0214	3126.294	3166.8928	3179.7035	3194.7378	3212.87	3454.3233
CC1(C)C2C3NC3C12C	CC1(C)[C@H]2[C@H]3N[C@H]3[C@@]12C	
InChI=1S/C8H13N/c1-7(2)5-4-6(9-4)8(5,7)3/h4-6,9H,1-3H3	InChI=1S/C8H13N/c1-7(2)5-4-6(9-4)8(5,7)3/h4-6,9H,1-3H3/t4-,5-,6-,8+/m1/s1
