18
gdb 89242	3.12194	1.62955	1.26754	1.3271	71.13	-0.2144	0.0621	0.2765	1010.0327	0.147846	-439.003986	-438.996562	-438.995618	-439.035478	30.082	
C	 0.0438313744	 1.5025696513	-0.0881999794	-0.327552
N	-0.0414701374	 0.0593659837	 0.0557647828	-0.08116
C	-1.4161002858	-0.4741741296	 0.2287135667	-0.233858
C	-1.20503255	-1.3759718137	 1.4327269978	 0.42092
O	-2.2773350706	-2.132699334	 1.8444088613	-0.486002
C	-0.2732683294	-0.6346795785	 2.4570170791	-0.042317
O	 0.3631961866	-1.9124003751	 2.8191517281	-0.339479
C	 0.2459377517	-1.9733031028	 1.3535828862	-0.038842
C	 0.6537943464	-0.4928595002	 1.2007080545	-0.004975
H	 1.0936699794	 1.7994187402	-0.1778715015	 0.122694
H	-0.4693916524	 1.8115520633	-1.0040738321	 0.125223
H	-0.39993751	 2.0637026263	 0.7550054394	 0.09536
H	-2.1458827439	 0.3174028799	 0.4456685981	 0.104449
H	-1.7593695411	-1.0231538136	-0.6550353482	 0.116254
H	-1.9651905735	-2.6452046837	 2.6036826563	 0.291185
H	-0.5216364636	 0.0537974352	 3.2650922032	 0.090541
H	 0.6168450709	-2.860090926	 0.8400009175	 0.094455
H	 1.6940285482	-0.1987640925	 1.3243540502	 0.093106
128.7516	222.3267	257.9261	283.2181	351.9659	400.0885	453.7709	506.3476	510.8801	617.5164	694.892	704.2025	759.0128	821.071	851.3175	891.1772	904.7372	938.6858	1016.9876	1031.1107	1065.1263	1076.0053	1119.0055	1143.677	1155.1089	1159.4981	1177.4063	1194.2489	1216.5799	1222.5419	1263.4979	1310.6078	1334.2674	1392.671	1430.4068	1460.532	1489.316	1505.2442	1517.3311	2934.6411	3013.8159	3061.8015	3062.6963	3104.6991	3115.3771	3124.6212	3152.7	3747.3404
CN1CC2(O)C3OC2C13	CN1C[C@]2(O)[C@H]3O[C@@H]2[C@@H]13	
InChI=1S/C6H9NO2/c1-7-2-6(8)4-3(7)5(6)9-4/h3-5,8H,2H2,1H3	InChI=1S/C6H9NO2/c1-7-2-6(8)4-3(7)5(6)9-4/h3-5,8H,2H2,1H3/t3-,4-,5+,6-
