15
gdb 43156	2.74406	1.7347	1.37518	1.8947	65.18	-0.2299	-0.0384	0.1915	937.9502	0.112545	-457.706415	-457.699423	-457.698479	-457.737864	27.011	
O	 0.0007738374	-0.0591237272	 0.1442466309	-0.304874
C	-0.0041810931	 1.129401235	 0.0720741413	 0.450036
C	-1.0696136405	 2.2580231934	-0.033485122	-0.322189
C	-0.6824826709	 3.0602004952	 1.2239922519	-0.079447
O	 0.7755118344	 3.0151239052	 1.1484215182	-0.278778
C	 1.0168274082	 2.2926743835	-0.0702004451	-0.150898
C	-0.0446884031	 2.8667648164	-1.0226115588	 0.526667
C	-0.0798228708	 3.0331102961	-2.4682600899	-0.290288
O	-0.0812196623	 4.1590374185	-1.5610241728	-0.280714
H	-2.1188154321	 2.0893400265	-0.2580158323	 0.106263
H	-1.0185789022	 4.1017655526	 1.1848533701	 0.127639
H	-1.0200419935	 2.5959569699	 2.1557872761	 0.121688
H	 2.0790482356	 2.2016483268	-0.2751808479	 0.110945
H	 0.8300618089	 2.914243572	-3.0535192446	 0.132912
H	-1.011167126	 2.873476296	-3.0084468152	 0.131036
116.6593	192.3195	251.6838	267.7199	323.6612	492.7049	513.7126	562.3685	671.3963	690.147	747.8556	815.7857	890.2761	899.3028	922.6746	954.1287	973.5036	1027.7825	1049.3207	1079.6019	1104.1067	1118.3794	1142.215	1176.8034	1178.7324	1205.1234	1213.2916	1259.3873	1358.2496	1456.4279	1523.8505	1545.4933	1922.0388	3038.0689	3087.392	3092.6714	3171.3256	3182.0465	3183.51
O=C1C2COC1C21CO1	O=C1[C@H]2CO[C@@H]1[C@]12CO1	
InChI=1S/C6H6O3/c7-4-3-1-8-5(4)6(3)2-9-6/h3,5H,1-2H2	InChI=1S/C6H6O3/c7-4-3-1-8-5(4)6(3)2-9-6/h3,5H,1-2H2/t3-,5+,6-/m1/s1
