17
gdb 53256	4.39044	0.76969	0.73998	2.2385	87.33	-0.2447	0.0101	0.2548	1587.9227	0.131215	-384.614506	-384.604225	-384.603281	-384.650916	35.958	
C	 0.1221442843	 1.4999250377	 0.0743759697	-0.503403
C	 0.0384079156	 0.0478901299	 0.0511381604	 0.154435
C	-0.0322709781	-1.154873787	 0.0392452765	 0.058951
C	-0.0758363506	-2.5897346496	 0.0015183245	-0.231538
O	-0.5896292171	-3.2867416853	 1.1473965088	-0.263805
C	-1.3580395263	-3.356847486	-0.0635495609	 0.197118
C	-2.6952687447	-2.6499829379	-0.0380167965	-0.470101
C	-1.3400764771	-4.6392362663	-0.730899931	 0.285254
C	-1.3524252438	-5.6992013401	-1.2976290387	-0.421282
H	 1.1131166886	 1.8438427803	-0.240896122	 0.154942
H	-0.6177034984	 1.9527645533	-0.5946946215	 0.153182
H	-0.0595226775	 1.8866903371	 1.083013392	 0.157226
H	 0.7951083674	-3.0704098193	-0.4428984254	 0.118681
H	-2.5940747186	-1.671153216	 0.4331602423	 0.140521
H	-3.0754192179	-2.5210243082	-1.0555809652	 0.132908
H	-3.4197097441	-3.2460655943	 0.5242682556	 0.137066
H	-1.3556146816	-6.6386134983	-1.7931762684	 0.199844
27.2248	74.7047	83.5494	161.0192	175.419	197.8813	253.9804	316.5775	361.1136	379.63	443.0586	511.0071	546.5723	588.6597	626.1046	663.1985	691.2024	810.7755	843.9214	888.6272	1002.2043	1050.5891	1053.0219	1091.2976	1101.3301	1188.3163	1241.4839	1312.0059	1407.7154	1413.2095	1417.1258	1474.8619	1476.3368	1480.1213	1489.6399	2237.0567	2367.3632	3029.7459	3049.9932	3091.7155	3094.1127	3115.1778	3118.6844	3147.2631	3501.9268
CC#CC1OC1(C)C#C	CC#C[C@H]1O[C@]1(C)C#C	
InChI=1S/C8H8O/c1-4-6-7-8(3,5-2)9-7/h2,7H,1,3H3	InChI=1S/C8H8O/c1-4-6-7-8(3,5-2)9-7/h2,7H,1,3H3/t7-,8-/m1/s1
