16
gdb 74457	4.10021	1.19925	1.07753	5.1706	75.13	-0.2511	-0.0181	0.233	1130.7262	0.12399	-400.716174	-400.708457	-400.707513	-400.748299	29.592	
C	-0.0283937797	 1.4712476185	 0.0813314336	-0.516738
C	-0.012504478	-0.0129274977	-0.0080084373	 0.366576
C	-0.0827611867	-0.860845025	-1.0374351653	-0.264351
C	 0.0067120124	-2.2242568406	-0.3152306954	 0.301942
C	-1.0165965623	-2.0304231191	 0.8533371221	-0.252224
C	 0.1021190365	-0.9999925602	 1.1790203794	-0.056379
O	 1.072168746	-1.977567894	 0.6633310644	-0.303124
C	 0.1202399489	-3.4453337786	-1.086138578	 0.170336
N	 0.1774741809	-4.4148504566	-1.711492918	-0.334031
H	 0.8920625988	 1.8470989059	 0.5449179878	 0.142676
H	-0.1259392173	 1.9301626706	-0.9056869067	 0.138093
H	-0.8597769604	 1.8236157715	 0.7046540633	 0.136062
H	-0.1673756751	-0.7019756597	-2.1014255972	 0.131129
H	-2.0160979715	-1.6723832473	 0.603858039	 0.115112
H	-1.0299878256	-2.8774842381	 1.5416322306	 0.129046
H	 0.320686813	-0.6342767398	 2.1805000376	 0.095875
130.7926	140.2969	173.2105	220.6867	300.6762	460.5495	492.2751	519.1438	548.9803	571.7729	596.9605	674.2938	778.0937	794.9054	846.8829	891.291	926.0208	968.9488	989.4424	1017.8391	1052.6969	1068.1876	1103.0181	1127.372	1210.1122	1224.4404	1240.6966	1295.4044	1301.0602	1414.4463	1477.6578	1482.9659	1485.1474	1688.1644	2366.5024	3021.6749	3069.3952	3077.0189	3117.8737	3147.8095	3155.1264	3255.3152
CC1=CC2(CC1O2)C#N	CC1=C[C@@]2(C[C@H]1O2)C#N	
InChI=1S/C7H7NO/c1-5-2-7(4-8)3-6(5)9-7/h2,6H,3H2,1H3	InChI=1S/C7H7NO/c1-5-2-7(4-8)3-6(5)9-7/h2,6H,3H2,1H3/t6-,7-/m1/s1
