21
gdb 96431	2.06252	1.56279	1.06794	2.8299	78.83	-0.2383	-0.0226	0.2157	1201.2973	0.182761	-424.250503	-424.241552	-424.240608	-424.284416	33.764	
C	-0.0912697505	 1.5243329149	-0.1356676955	-0.414194
C	 0.0304154926	 0.0106409132	-0.0233896228	 0.113787
O	 0.6953602176	-0.4538575835	-1.1931405477	-0.258208
C	 0.7115213024	-1.8697062632	-1.2892807508	-0.064826
C	 1.4660727523	-2.5071251625	-0.1213517998	-0.208564
C	 0.8899855787	-2.0124231991	 1.2136550159	-0.236829
C	 0.7716632279	-0.466081002	 1.2447522422	-0.080578
C	 2.1494370603	 0.1606124353	 1.36794562	 0.160235
O	 2.6534851848	 0.4699628587	 2.4190541718	-0.266947
H	 0.8936551441	 1.9988507372	-0.1825433899	 0.13058
H	-0.6373173679	 1.7908202909	-1.0441381843	 0.127898
H	-0.627489359	 1.9295859939	 0.7276303021	 0.121863
H	-0.982969592	-0.4287180403	 0.0059232844	 0.066334
H	-0.3237278964	-2.2523195952	-1.3194798874	 0.086178
H	 1.1841474988	-2.1048396169	-2.2471145382	 0.10876
H	 1.3950580876	-3.5985142567	-0.1871653035	 0.101229
H	 2.5289122566	-2.2503045722	-0.1990775904	 0.111365
H	-0.1166990401	-2.4285646594	 1.3499977754	 0.102461
H	 1.4934298077	-2.3580186705	 2.0587545083	 0.116467
H	 0.2101794448	-0.1729317321	 2.1383314442	 0.091019
H	 2.6943585496	 0.3014324995	 0.4096242759	 0.091969
51.3456	120.2787	185.3749	213.4383	241.0593	307.1299	313.2981	350.2054	423.2521	469.025	486.1112	572.8834	651.32	810.451	849.3828	871.0499	876.3164	931.392	957.1667	973.6286	1027.6434	1051.7813	1088.0101	1106.3184	1121.2118	1150.2033	1179.646	1215.2858	1236.7148	1286.3781	1296.3564	1323.8397	1355.6768	1371.6665	1381.3974	1389.2768	1413.9229	1414.6678	1430.9028	1481.9525	1484.4335	1490.5331	1500.4873	1504.6328	1823.0472	2898.8427	2936.196	2956.9052	3022.1625	3036.7041	3044.5002	3059.1489	3076.006	3082.3378	3088.322	3116.3839	3125.1104
CC1OCCCC1C=O	C[C@H]1OCCC[C@H]1C=O	
InChI=1S/C7H12O2/c1-6-7(5-8)3-2-4-9-6/h5-7H,2-4H2,1H3	InChI=1S/C7H12O2/c1-6-7(5-8)3-2-4-9-6/h5-7H,2-4H2,1H3/t6-,7+/m1/s1
