22
gdb 59307	2.63909	1.20381	0.91089	2.7381	83.91	-0.257	0.0311	0.2881	1358.0334	0.192892	-404.365838	-404.355786	-404.354842	-404.400813	37.212	
C	-0.6726336158	 1.4142399347	 0.8199332424	-0.393516
C	-0.2691084466	 0.0164930368	 0.3284084253	 0.012575
C	 0.2248767048	 0.0609142975	-1.1250103197	-0.401018
C	 0.8034738776	-0.5690555188	 1.2364052583	 0.129029
O	 0.3760313934	-0.6003261464	 2.6472433054	-0.272317
C	 0.57528967	-1.9593337755	 2.7279700881	 0.435576
N	 0.3828789283	-2.7600670143	 3.6743897173	-0.549731
C	 1.0700355633	-2.106067026	 1.3031197598	-0.156863
C	 0.3175563064	-3.0997070513	 0.4246516877	-0.413853
H	 0.1757699679	 2.1071212471	 0.7678614351	 0.112486
H	-1.4759324285	 1.8241486166	 0.1999604376	 0.112383
H	-1.0175803258	 1.3807019624	 1.8559104632	 0.136164
H	-1.1524175206	-0.632188795	 0.3832931071	 0.080262
H	 1.1134797744	 0.6966951731	-1.2156445904	 0.117235
H	 0.4825719672	-0.93151662	-1.5051770978	 0.120422
H	-0.5466809848	 0.4786377732	-1.7788464118	 0.12044
H	 1.7215281575	 0.0260464134	 1.1617256725	 0.085399
H	 0.0233542113	-2.2796523152	 4.5010856645	 0.224678
H	 2.1409738516	-2.3286150506	 1.2788657214	 0.107065
H	-0.7531617019	-2.8830062746	 0.3814207306	 0.127522
H	 0.710096886	-3.1139075687	-0.5960904129	 0.12157
H	 0.4320344444	-4.1028297885	 0.8452186963	 0.144494
59.1716	91.7427	162.1063	210.5391	211.2255	226.3578	235.7123	259.3983	315.1648	387.2198	402.1736	462.4292	549.5927	644.1602	750.4031	784.1885	844.2226	866.2874	887.1792	922.2928	934.425	974.0266	1010.8572	1021.3432	1045.6504	1077.916	1121.7252	1151.4139	1183.3759	1204.7738	1237.9198	1243.2355	1310.5844	1327.3494	1344.5866	1363.795	1397.9701	1405.6645	1412.7003	1424.8453	1488.0636	1489.9813	1495.965	1498.873	1505.2857	1513.6353	1820.5245	3023.0978	3030.1401	3032.4446	3042.3587	3046.1815	3068.4153	3094.802	3101.5223	3112.8345	3118.5503	3120.7156	3126.9603	3473.8423
CC(C)C1OC(=N)C1C	CC(C)[C@H]1O[C]([NH])[C@H]1C	
InChI=1S/C7H13NO/c1-4(2)6-5(3)7(8)9-6/h4-6,8H,1-3H3	InChI=1S/C7H13NO/c1-4(2)6-5(3)7(8)9-6/h4-6,8H,1-3H3/t5-,6+/m0/s1
