22
gdb 5893	4.09996	0.98436	0.96461	2.1838	75.79	-0.2544	0.0785	0.333	1366.5572	0.19685	-387.347303	-387.336872	-387.335927	-387.382548	37.738	
C	-0.0878512059	 1.4817685951	-0.2122908285	-0.38731
C	-0.0209979218	-0.0263360842	-0.0431273504	-0.028519
O	-1.3396743475	-0.5335436595	 0.0284657241	-0.264827
C	-1.4099165187	-1.9408312898	 0.1656390935	-0.079437
C	-2.8905161497	-2.3393068253	 0.0733518345	 0.348168
C	-3.0228355864	-3.8591855552	-0.0024340165	-0.40642
C	-3.680590491	-1.7694845982	 1.2626312579	-0.410637
O	-3.4139796074	-1.8258953161	-1.1512503852	-0.471779
H	 0.9201191068	 1.9031472008	-0.269011195	 0.118242
H	-0.6239999822	 1.7429716085	-1.1293150487	 0.125875
H	-0.6090821835	 1.9408911943	 0.6325113907	 0.128354
H	 0.5152547554	-0.4896997289	-0.8877912625	 0.090882
H	 0.5324866401	-0.289447124	 0.8732979442	 0.089999
H	-0.8474639902	-2.4280079462	-0.6465681434	 0.088279
H	-0.9729225885	-2.260120634	 1.1255862857	 0.085001
H	-2.6233337786	-4.3366514495	 0.8976282643	 0.108874
H	-4.0764465446	-4.1354687383	-0.0998242357	 0.124252
H	-2.4890678381	-4.2462966462	-0.8750377172	 0.118489
H	-3.5421701359	-0.6870371517	 1.3276924095	 0.12085
H	-4.7456375284	-1.9786810517	 1.1313801253	 0.117485
H	-3.3525893915	-2.2123432481	 2.2095194854	 0.103371
H	-3.0925181724	-0.9173540816	-1.2096673718	 0.280807
62.0789	78.322	125.9446	164.015	198.9238	243.9115	247.4997	283.7484	313.1612	343.5467	391.3543	431.6044	449.3471	495.2834	555.8101	781.5958	820.6201	902.361	912.0613	925.6284	949.4047	996.8437	1030.8529	1045.8601	1134.6071	1154.1784	1170.8253	1185.4037	1214.1886	1255.9826	1292.7665	1298.8975	1356.4145	1388.8567	1399.5046	1410.6786	1423.3548	1445.0689	1476.6034	1483.5667	1486.3585	1497.522	1498.8904	1505.4981	1509.7785	1534.9036	2959.0304	2970.8298	2989.0158	3005.7505	3035.8306	3042.7776	3044.8822	3106.9287	3116.5829	3118.708	3119.4364	3121.1185	3125.2502	3777.5402
CCOCC(C)(C)O	CCOCC(C)(C)O	
InChI=1S/C6H14O2/c1-4-8-5-6(2,3)7/h7H,4-5H2,1-3H3	InChI=1S/C6H14O2/c1-4-8-5-6(2,3)7/h7H,4-5H2,1-3H3
