20
gdb 30126	3.4999	1.07731	1.01657	1.7742	85.54	-0.1986	0.0491	0.2476	1272.6107	0.172642	-366.039566	-366.031036	-366.030092	-366.073379	32.876	
C	-0.3998763263	 1.4091155248	 0.0070225024	-0.404259
C	-0.0490212824	-0.0602657173	 0.0342911951	 0.024437
C	 1.34125313	-0.5260698068	-0.3164240602	-0.306633
C	 0.8571762434	-0.6448462699	 1.1104846557	-0.143646
C	 1.4287843366	 0.178194852	 2.2040624116	 0.294166
C	 2.6431800904	 0.8322570423	 2.2190523509	-0.188001
N	 2.7816931226	 1.4546541876	 3.4348070731	-0.236644
C	 1.6767892614	 1.2089215498	 4.2090372173	-0.071872
C	 0.8217739845	 0.4226604847	 3.4759229724	-0.25154
H	 0.4324348447	 2.0193314379	 0.3688934394	 0.120948
H	-0.6438573465	 1.737039248	-1.0098682135	 0.108125
H	-1.2652817121	 1.6235868274	 0.6442487668	 0.113009
H	-0.8555192011	-0.7178839365	-0.2809732624	 0.07609
H	 1.4661624951	-1.4332956503	-0.8976266254	 0.102971
H	 2.0767694626	 0.2417738598	-0.5348678491	 0.104276
H	 0.5811223919	-1.6510009051	 1.4183616297	 0.082922
H	 3.420095821	 0.8886461111	 1.4738997422	 0.113796
H	 3.574861486	 2.0032094668	 3.7150802628	 0.259115
H	 1.594047558	 1.613805708	 5.2049493936	 0.115049
H	-0.1398774197	 0.0564869758	 3.8028804975	 0.087694
35.7206	106.659	168.6437	209.0031	270.2584	345.4916	411.0009	459.5876	505.6343	610.2459	639.0764	681.754	705.9892	771.2729	781.6446	830.2144	847.289	877.6806	904.6568	927.921	966.2682	1020.7786	1073.0535	1075.6813	1093.6041	1099.4797	1120.0265	1146.9448	1163.9333	1197.997	1213.9288	1249.1206	1297.0957	1382.4101	1395.1678	1418.6287	1422.5594	1466.4557	1486.5776	1493.1029	1499.8206	1527.0986	1610.7895	3027.0437	3084.0842	3106.0744	3118.7235	3127.5501	3136.4537	3209.6183	3240.8937	3262.8444	3267.7417	3689.5751
CC1CC1C1=CNC=C1	C[C@H]1C[C@H]1c1c[nH]cc1	
InChI=1S/C8H11N/c1-6-4-8(6)7-2-3-9-5-7/h2-3,5-6,8-9H,4H2,1H3	InChI=1S/C8H11N/c1-6-4-8(6)7-2-3-9-5-7/h2-3,5-6,8-9H,4H2,1H3/t6-,8+/m0/s1
