17
gdb 83938	2.41027	1.76395	1.52489	1.7593	68.05	-0.2426	-0.0385	0.2041	951.5084	0.136279	-458.944766	-458.937117	-458.936173	-458.976748	29.345	
C	-0.131745292	 1.5607746525	-0.0031046814	-0.419925
C	 0.0824533439	 0.0559373101	 0.0296764879	-0.014409
C	 1.2293935022	-0.56974516	-0.8417998007	-0.013582
O	 2.4007186325	 0.2312428939	-0.7023317533	-0.267906
C	 2.926723769	 0.1097368071	 0.6029334913	 0.015048
O	 1.9361234951	 0.2153625963	 1.6042885175	-0.267906
C	 0.804273816	-0.5842775496	 1.2688331679	-0.013579
C	 1.2055092144	-1.6869533189	 0.2438770571	 0.354702
O	 1.1603558139	-2.8795973348	 0.2265698466	-0.303728
H	 0.7994080341	 2.0948126524	 0.1879382325	 0.141588
H	-0.5125714147	 1.8723271651	-0.9807292128	 0.122559
H	-0.8618905244	 1.8604253324	 0.7551439549	 0.122561
H	-0.8509761871	-0.4853678952	-0.1620588227	 0.096921
H	 1.0792249681	-0.8011703396	-1.8957530361	 0.101756
H	 3.4308781164	-0.867777465	 0.6977482531	 0.11365
H	 3.6376890513	 0.9236460434	 0.751737712	 0.130495
H	 0.2584309315	-0.8292277102	 2.1793170264	 0.101756
135.4304	145.3004	213.3377	227.7035	310.368	347.7216	472.3265	499.6344	524.5363	579.2278	654.1909	756.7115	786.5881	819.4493	916.5515	945.2571	1002.7395	1018.6539	1026.7294	1046.4513	1101.7341	1117.7728	1122.0182	1150.9198	1186.7496	1221.7351	1243.7165	1276.4865	1333.8493	1344.5889	1367.9429	1409.1335	1430.657	1492.4397	1495.0083	1517.1966	1889.9224	2952.8247	3044.8539	3052.2717	3106.6603	3124.881	3127.0744	3130.0919	3150.2183
CC1C2OCOC1C2=O	C[C@H]1[C@H]2OCO[C@@H]1C2=O	
InChI=1S/C6H8O3/c1-3-5-4(7)6(3)9-2-8-5/h3,5-6H,2H2,1H3	InChI=1S/C6H8O3/c1-3-5-4(7)6(3)9-2-8-5/h3,5-6H,2H2,1H3/t3-,5+,6-
