17
gdb 30961	2.46307	1.38434	0.92101	3.739	74.65	-0.1761	0.0494	0.2254	1249.6297	0.137196	-451.335558	-451.326471	-451.325527	-451.369398	33.53	
C	 0.2831508258	 1.3595810109	-0.2382101466	-0.331516
N	-0.3484976474	 0.1750496767	 0.3542449271	-0.393222
C	 0.4505148459	-0.631087112	 1.1534750713	 0.328121
C	 0.7231642331	-1.9430608659	 1.0800540917	 0.165386
N	 0.3559243745	-2.8892083677	 0.1346377468	-0.603101
O	 1.5046685118	-2.3044272438	 2.2104534538	-0.245998
C	 1.700392694	-1.1786810197	 2.9674062432	 0.455463
N	 2.3005859249	-1.0835892787	 4.0806547003	-0.606151
N	 1.1075528471	-0.128087075	 2.2802603937	-0.381523
H	 1.1314088019	 1.1211274782	-0.8967988098	 0.118548
H	-0.4686089222	 1.9066500126	-0.8118181228	 0.130432
H	 0.6457044939	 2.0213585041	 0.5525205925	 0.133754
H	-0.7851568114	-0.4047862472	-0.3528960023	 0.24705
H	-0.2257691359	-3.6295582829	 0.5171214757	 0.246624
H	 1.1518841594	-3.322893465	-0.3245000016	 0.246461
H	 2.6403379495	-1.9948995165	 4.3771605572	 0.219446
H	 0.8406011352	 0.7098974821	 2.7683927798	 0.270226
79.813	126.0733	160.4393	190.5701	224.5566	277.0468	332.8528	338.2463	405.0353	417.694	557.6434	620.0773	652.2226	680.4842	722.3562	757.2187	763.523	799.3432	859.9859	970.2906	992.2907	1071.0589	1085.5931	1151.1497	1156.8598	1216.4749	1285.6341	1299.639	1349.6268	1446.1551	1479.8363	1490.3997	1496.976	1519.7408	1661.9624	1771.743	1820.1681	2994.9207	3090.4899	3128.246	3476.8322	3533.9106	3535.5106	3558.2468	3673.191
CNC1=C(N)OC(=N)N1	CNC1=C(N)O[C@H]([NH])N1	
InChI=1S/C4H8N4O/c1-7-3-2(5)9-4(6)8-3/h7H,5H2,1H3,(H2,6,8)	InChI=1S/C4H9N4O/c1-7-3-2(5)9-4(6)8-3/h4,6-8H,5H2,1H3/t4-/m1/s1
