21
gdb 120869	4.42529	0.80164	0.75178	2.3848	79.32	-0.2326	0.0781	0.3107	1575.9303	0.180944	-424.185796	-424.176234	-424.17529	-424.22045	35.622	
C	 0.1097305693	 1.4574201204	-0.1019435799	-0.487292
C	 0.0513182693	-0.0282704397	 0.0351658636	 0.481179
C	-0.9921468743	-0.8380889369	 0.7390565063	-0.33673
C	 0.4728036851	-1.018327909	 1.1015648358	-0.210502
C	 1.2032276349	-1.7387254603	-0.0290798174	 0.136445
C	 0.9312664566	-3.1991840024	-0.3408026016	-0.230931
C	 1.5401815942	-3.6351339102	-1.676878608	-0.059457
O	 1.3379094241	-5.014339349	-1.9471429922	-0.420518
O	 0.6449896649	-0.8128009558	-1.0140406639	-0.345724
H	 1.1397265918	 1.7993665636	-0.243404884	 0.127408
H	-0.4781377852	 1.7849497828	-0.9670919886	 0.132151
H	-0.3023424289	 1.9416050692	 0.7880466956	 0.122677
H	-1.5684108665	-0.3075469236	 1.4911842631	 0.11219
H	-1.542168207	-1.6048735076	 0.201224778	 0.110247
H	 0.8553614539	-0.8610281688	 2.1013606714	 0.096608
H	 2.2867382997	-1.5647204358	 0.0356083694	 0.079919
H	 1.350192418	-3.8176446783	 0.4627843509	 0.106721
H	-0.1509675105	-3.3787076684	-0.3577848556	 0.087684
H	 1.1464694051	-3.0011039999	-2.4839749641	 0.109869
H	 2.6269533892	-3.4955963359	-1.6556357664	 0.107961
H	 0.3933281362	-5.1522369642	-2.0691378322	 0.280097
73.8918	97.8323	110.6979	179.3925	201.6715	278.6088	294.7011	307.3111	378.6907	415.2994	477.9619	553.4857	640.7314	734.0986	784.2363	814.7404	893.8889	899.9691	940.9118	964.8668	981.0935	1012.46	1018.9736	1061.2046	1073.2566	1079.4818	1096.7821	1112.2026	1120.4749	1187.2323	1211.9356	1259.2524	1282.6878	1314.8054	1326.0525	1380.0922	1389.1257	1415.2568	1422.2583	1429.4661	1473.322	1475.622	1490.2399	1503.2102	1514.5911	3000.56	3007.7027	3025.7717	3032.6945	3057.5454	3080.8262	3096.0795	3114.8188	3117.0981	3195.3392	3205.5953	3817.2173
CC12CC1C(CCO)O2	C[C@]12C[C@H]1[C@@H](CCO)O2	
InChI=1S/C7H12O2/c1-7-4-5(7)6(9-7)2-3-8/h5-6,8H,2-4H2,1H3	InChI=1S/C7H12O2/c1-7-4-5(7)6(9-7)2-3-8/h5-6,8H,2-4H2,1H3/t5-,6+,7-/m0/s1
