23
gdb 68596	2.20298	1.82742	1.45292	0.1086	89.25	-0.2627	0.0874	0.3501	1065.1486	0.207364	-351.140627	-351.132424	-351.131479	-351.17259	34.046	
C	-0.0158023535	 1.5266470169	 0.0193042416	-0.506158
C	-0.0241329825	 0.0171381131	-0.0082450904	 0.265333
C	 0.3618129994	-0.8062937846	-1.2806215178	-0.261462
C	-0.4195344476	-1.9413145459	-0.555507094	-0.108996
C	 0.4773523535	-2.2112674205	 0.6708681537	-0.214063
C	 0.7734495327	-0.7320890276	 1.0867983253	-0.239167
C	-1.3274832479	-0.8175697788	-0.0299303235	 0.433357
C	-2.4951597803	-0.8466040119	 0.8984597724	-0.370671
C	-2.6630219425	-0.407183127	-0.5512879022	-0.367937
H	 1.0046041331	 1.9148619099	-0.0778262823	 0.11558
H	-0.6106204198	 1.9478909377	-0.7980879974	 0.114251
H	-0.4216490632	 1.9096192994	 0.9635793176	 0.113191
H	-0.1497368218	-0.4479745735	-2.1765485618	 0.094787
H	 1.4261807739	-0.9651890173	-1.4831280135	 0.07973
H	-0.82102237	-2.8012111675	-1.0931774812	 0.054865
H	-0.0461167621	-2.7691967689	 1.452304563	 0.093859
H	 1.383423506	-2.7657550983	 0.4087677423	 0.091017
H	 1.8400139653	-0.4868173668	 1.0547666105	 0.088513
H	 0.4050799118	-0.4960057185	 2.0899363975	 0.091607
H	-2.9073800936	-1.8083564808	 1.1890628146	 0.108173
H	-2.570386635	-0.0829937885	 1.6673643079	 0.107271
H	-2.852917018	 0.645761372	-0.7380695856	 0.108499
H	-3.188724578	-1.0758933024	-1.2263391366	 0.10842
171.6652	188.7121	216.8932	228.6915	253.4596	320.6856	392.1667	414.2165	558.6526	589.2274	602.3496	686.5981	779.0085	801.4459	834.6316	847.3295	891.1673	912.947	920.1465	940.854	946.8851	974.2714	986.9077	1001.0244	1029.0126	1047.3381	1077.1402	1079.7246	1107.9916	1151.455	1165.7202	1181.1349	1194.0836	1228.0466	1238.6022	1251.5541	1256.4701	1272.3571	1311.1684	1344.8128	1400.9713	1412.2808	1463.3931	1485.8127	1489.6447	1493.1049	1494.4904	1505.5398	1520.9928	3020.6172	3040.5468	3044.6116	3053.9633	3078.6175	3082.5182	3091.7476	3100.0031	3105.4078	3114.1794	3116.408	3118.003	3189.2403	3203.8374
CC12CC(CC1)C21CC1	C[C@@]12C[C@@H](CC1)C12CC1	
InChI=1S/C9H14/c1-8-3-2-7(6-8)9(8)4-5-9/h7H,2-6H2,1H3	InChI=1S/C9H14/c1-8-3-2-7(6-8)9(8)4-5-9/h7H,2-6H2,1H3/t7-,8+/m1/s1
