18
gdb 16502	3.70926	2.23567	1.931	1.8497	70.15	-0.2456	0.0926	0.3382	780.2289	0.155465	-347.765802	-347.759395	-347.758451	-347.795849	26.662	
C	-0.0521851673	 1.4774086514	 0.0384098798	-0.492181
C	 0.073589082	-0.014396895	-0.0330325636	 0.435391
O	-0.5586495443	-0.7815598589	 1.0133175578	-0.302043
C	 0.8637570099	-0.8984515513	 0.825956206	-0.019743
C	 1.3187739163	-1.9837579275	-0.175251894	-0.074001
C	 0.0208187508	-2.2482547819	-0.9883834994	-0.213328
C	 0.1998330433	-0.7592897107	-1.3899362394	-0.107417
C	 1.7414692608	-1.0584544284	-1.3713705471	-0.220791
H	 0.695452008	 1.9604697099	-0.6000761766	 0.123121
H	-1.0410978464	 1.8013983492	-0.3053704674	 0.127433
H	 0.0826223301	 1.829264045	 1.0644036598	 0.129191
H	 1.4845327505	-0.5761487693	 1.6560984575	 0.093719
H	 1.9519397498	-2.790098121	 0.1938651436	 0.063443
H	 0.2037039738	-2.9188341373	-1.8299174963	 0.092374
H	-0.8787182739	-2.5300641386	-0.4450612271	 0.117597
H	-0.2991272871	-0.3216177323	-2.254944705	 0.059578
H	 2.4206689734	-0.2271457744	-1.1567198809	 0.09095
H	 2.0873649204	-1.6122772689	-2.2481450878	 0.096706
195.6588	216.886	282.827	413.8312	474.0246	512.2422	558.2762	613.5302	708.314	812.0732	841.6964	845.6581	859.3343	870.4003	908.0426	933.5206	988.3753	1003.543	1011.0296	1026.0374	1065.9291	1083.4802	1097.3814	1120.7084	1129.2942	1207.3013	1225.9342	1234.9628	1247.7276	1279.2058	1293.9463	1303.849	1408.4069	1454.5785	1477.3187	1486.5482	1497.0526	1514.3453	3031.5012	3046.0006	3085.2491	3091.4248	3107.5805	3112.1626	3119.1275	3119.5538	3160.5468	3164.9885
CC12OC1C1CC2C1	C[C@]12O[C@H]1[C@H]1C[C@@H]2C1	
InChI=1S/C7H10O/c1-7-5-2-4(3-5)6(7)8-7/h4-6H,2-3H2,1H3	InChI=1S/C7H10O/c1-7-5-2-4(3-5)6(7)8-7/h4-6H,2-3H2,1H3/t4-,5+,6-,7+/m0/s1
