19
gdb 115812	4.04289	1.11359	0.98792	0.9433	72.09	-0.2554	0.0722	0.3275	1234.3001	0.158418	-460.141027	-460.132221	-460.131277	-460.17449	33.005	
C	 0.0594494233	 1.3257730731	-0.2024007365	-0.240009
O	 0.0348420138	-0.0848591987	-0.0675141239	-0.234982
C	-1.2396812734	-0.6132936276	 0.0790301116	 0.227049
O	-1.9741850604	-0.4342869093	-1.1393193175	-0.282428
C	-2.8605842617	-1.5279004549	-1.3261760362	-0.142528
C	-2.2247621297	-2.7067860483	-0.5999119572	 0.363192
O	-3.0599547315	-3.7298535379	-0.1607325094	-0.467358
C	-0.7646678712	-2.9438785092	-0.8672777725	-0.341797
C	-1.2013314004	-2.1047448239	 0.3183117946	-0.137288
H	 1.1096544973	 1.6247379584	-0.2203962484	 0.125858
H	-0.4278552837	 1.649811481	-1.1289006081	 0.129998
H	-0.437263574	 1.8160723886	 0.6486716201	 0.104633
H	-1.7689740287	-0.0895020971	 0.8975113326	 0.058603
H	-3.8495743038	-1.3368829248	-0.8815652184	 0.101095
H	-2.9861511821	-1.6740323762	-2.4054878235	 0.10174
H	-3.1616687146	-4.3625921044	-0.8796280259	 0.287564
H	-0.3875336106	-3.9320031857	-0.6285713049	 0.113235
H	-0.2870223097	-2.4462291643	-1.7043692348	 0.130574
H	-1.0558151689	-2.4788687589	 1.3231663583	 0.102849
82.7266	119.7223	173.8749	197.6545	241.5018	281.6885	333.5948	378.3431	397.3594	493.595	538.0242	593.3555	693.4765	736.4824	902.5078	909.9187	931.1281	938.9036	963.863	1038.9429	1059.9016	1064.3078	1066.9447	1088.5065	1103.9258	1160.51	1180.2153	1210.349	1235.7293	1261.5995	1280.0045	1333.7678	1350.5518	1361.5714	1408.4067	1418.1185	1480.8242	1484.7109	1486.7766	1512.5238	1519.9817	2922.0938	2988.403	2991.4784	3054.3911	3068.0137	3125.255	3134.8767	3203.9584	3229.1172	3803.9296
COC1OCC2(O)CC12	CO[C@H]1OC[C@@]2(O)C[C@@H]12	
InChI=1S/C6H10O3/c1-8-5-4-2-6(4,7)3-9-5/h4-5,7H,2-3H2,1H3	InChI=1S/C6H10O3/c1-8-5-4-2-6(4,7)3-9-5/h4-5,7H,2-3H2,1H3/t4-,5-,6-/m0/s1
