16
gdb 110767	2.14116	1.41048	1.30707	4.1763	65.41	-0.2373	0.002	0.2394	1072.9327	0.123066	-474.991578	-474.982841	-474.981897	-475.025246	32.021	
O	 0.2755519452	 0.4815200976	 0.8411790395	-0.420358
C	-0.1336789847	 0.1553487171	-0.4799989147	-0.112553
C	-1.4728784419	-0.5242370829	-0.3709709011	-0.080554
C	-2.0107271442	-1.5879516391	-1.2918497666	-0.100437
N	-0.9716773761	-2.514608991	-1.7521095452	-0.336343
C	-0.5912921342	-2.8573167922	-0.43573267	 0.334351
O	 0.2727734685	-3.5691950353	-0.0138843736	-0.339245
C	-1.6870325549	-1.9552656647	 0.1467079764	 0.245004
O	-2.5479468277	-2.2512095485	 1.1707932085	-0.447673
H	 1.1429352253	 0.8948980251	 0.7953555054	 0.291801
H	-0.231689579	 1.0593151955	-1.1024465068	 0.092353
H	 0.5947526661	-0.5047398838	-0.9724475414	 0.09326
H	-2.2571599501	 0.1213433522	 0.0231027329	 0.110821
H	-2.9763292577	-1.5558022618	-1.7783714518	 0.12376
H	-0.292995343	-2.2863825059	-2.4698890376	 0.241394
H	-2.1663971615	-1.9147642724	 1.9896218363	 0.30442
65.7496	125.6113	140.7023	235.4559	257.8538	271.3584	304.5249	364.4614	465.4219	504.6681	545.9473	629.3387	695.3767	728.1796	776.996	836.3727	926.4913	930.2193	972.8817	1012.7571	1066.8894	1074.3941	1097.2911	1141.8285	1214.2621	1251.6128	1258.4693	1269.8704	1314.435	1319.4244	1357.1353	1451.7353	1492.6071	1520.0911	1900.7388	2971.8389	3012.771	3128.8553	3209.9971	3546.984	3800.0104	3828.0854
OCC1C2NC(=O)C12O	OC[C@H]1[C@H]2NC(=O)[C@@]12O	
InChI=1S/C5H7NO3/c7-1-2-3-5(2,9)4(8)6-3/h2-3,7,9H,1H2,(H,6,8)	InChI=1S/C5H7NO3/c7-1-2-3-5(2,9)4(8)6-3/h2-3,7,9H,1H2,(H,6,8)/t2-,3+,5+/m0/s1
