20
gdb 8438	2.72068	2.09522	1.76342	1.7235	74.38	-0.2259	0.0829	0.3088	894.2154	0.174943	-348.978764	-348.970249	-348.969305	-349.010748	33.179	
C	-0.1187188455	 1.57394352	 0.0740537108	-0.499188
C	 0.0111902907	 0.0784291405	 0.0258446704	 0.236218
C	-0.8198170023	-0.8508251461	 0.8973052534	-0.361489
C	 0.6739549936	-0.9235746132	 0.9407353462	 0.063832
O	 1.1655424672	-1.7199946152	-0.1360681732	-0.339217
C	 0.6627817609	-0.7409420265	-1.1136443776	 0.372846
C	-0.2333358402	-1.3874332814	-2.1593052223	-0.435559
C	 1.8566853585	-0.0384091046	-1.7493572933	-0.427084
H	 0.7981359311	 2.0763395798	-0.2506454023	 0.121018
H	-0.9370697729	 1.924781524	-0.5667205248	 0.120645
H	-0.3379804767	 1.9116421149	 1.0920500084	 0.119892
H	-1.2939949541	-0.3520233995	 1.7381066887	 0.107622
H	-1.3817861533	-1.6847013901	 0.4874356033	 0.111572
H	 1.2932160727	-0.8229553902	 1.825478363	 0.096913
H	-1.0917917259	-1.8855578543	-1.7043166634	 0.119226
H	-0.6029033076	-0.6339098329	-2.8631067734	 0.114748
H	 0.3296421779	-2.1345522436	-2.7284037709	 0.123779
H	 2.4447345497	-0.7605604571	-2.3237896195	 0.122232
H	 1.5336714468	 0.7578514174	-2.4286875611	 0.111667
H	 2.5044777295	 0.3968285581	-0.9838212622	 0.120328
162.6898	180.9634	187.7626	227.5473	255.2089	285.1418	349.8217	358.8053	421.09	483.2489	497.4342	628.5148	646.6595	804.8279	839.7544	876.0517	895.7793	931.8789	968.7937	987.577	999.9658	1007.6041	1033.147	1074.6109	1099.1469	1116.8471	1156.9367	1220.6887	1230.1178	1271.9009	1312.5248	1384.5726	1402.5252	1411.8887	1424.6422	1471.1999	1478.786	1488.0617	1490.1698	1494.5804	1502.0443	1506.1797	3023.5976	3033.8823	3040.1957	3082.5372	3099.8729	3101.117	3108.7634	3115.1981	3119.4955	3127.0808	3169.1565	3202.6302
CC12CC1OC2(C)C	C[C@]12C[C@H]1OC2(C)C	
InChI=1S/C7H12O/c1-6(2)7(3)4-5(7)8-6/h5H,4H2,1-3H3	InChI=1S/C7H12O/c1-6(2)7(3)4-5(7)8-6/h5H,4H2,1-3H3/t5-,7+/m1/s1
