20
gdb 56646	2.31814	1.22393	1.02272	3.3932	79.25	-0.2818	0.0131	0.2949	1272.1393	0.168635	-403.150277	-403.140014	-403.13907	-403.185384	37.374	
C	-0.0316845473	 1.4921520461	-0.2517144889	-0.422476
C	 0.1387155406	-0.0007331401	-0.0725908874	-0.019461
C	 1.4989705084	-0.6569113013	-0.0728736097	-0.351507
C	 0.6792350283	-0.6325914349	 1.1965724601	 0.343497
C	 1.1351234046	 0.210466557	 2.3717624692	-0.500597
C	 0.0336519345	-1.9610377567	 1.5870483751	-0.078241
O	 0.8885362804	-2.8331830497	 2.304720508	-0.415504
C	-1.2241324685	-1.7285765165	 2.3360261598	 0.263061
N	-2.1856066554	-1.5312042941	 2.9463383895	-0.329422
H	 0.7942908857	 2.0583550638	 0.1868837702	 0.118252
H	-0.0681562066	 1.7442463586	-1.3168838122	 0.124733
H	-0.9616869721	 1.8455336109	 0.206221435	 0.130018
H	-0.6475799384	-0.577708266	-0.5557354725	 0.089722
H	 1.63254305	-1.6015292766	-0.5898442092	 0.118638
H	 2.3692187932	-0.00890433	-0.1078703183	 0.114305
H	 1.5892191983	 1.1467356491	 2.0425393141	 0.128707
H	 0.2991709133	 0.4591212325	 3.0350825102	 0.141824
H	 1.8945457752	-0.3182004491	 2.9600268177	 0.116473
H	-0.2262672886	-2.5071998018	 0.6739813431	 0.131627
H	 1.0585446643	-2.4486977611	 3.1716652562	 0.29635
54.5717	112.1871	164.6385	184.6557	194.9983	201.2671	252.8984	290.1852	312.5619	349.9661	362.9899	432.1963	513.8426	546.6539	610.0614	757.1749	788.2485	862.5632	886.9867	922.5801	970.9901	1001.4104	1025.4641	1053.2995	1075.2213	1109.5804	1127.6943	1139.9116	1193.3311	1248.483	1273.6817	1293.2836	1364.2234	1409.1388	1420.4092	1421.7498	1429.1685	1487.5846	1492.54	1494.1017	1502.0214	1515.1829	2351.2395	3029.0231	3035.7878	3061.7547	3087.1275	3095.7131	3105.6548	3124.5765	3127.1164	3131.1857	3209.015	3814.1966
CC1CC1(C)C(O)C#N	C[C@H]1C[C@]1(C)[C@@H](O)C#N	
InChI=1S/C7H11NO/c1-5-3-7(5,2)6(9)4-8/h5-6,9H,3H2,1-2H3	InChI=1S/C7H11NO/c1-5-3-7(5,2)6(9)4-8/h5-6,9H,3H2,1-2H3/t5-,6-,7-/m0/s1
