18
gdb 32567	2.0451	1.83694	1.04993	4.5173	74.49	-0.1743	0.0583	0.2326	1142.5939	0.148545	-435.324129	-435.314781	-435.313837	-435.358389	34.157	
C	 0.1264231714	 1.5947298591	 0.0657532262	-0.379774
C	-0.0337255703	 0.0792465176	-0.0775936802	-0.153551
N	 0.6913027299	-0.4714671742	-1.209321278	-0.127271
C	 0.055934098	-0.7685749872	-2.4195775097	 0.459892
O	-1.1358040902	-0.6873896046	-2.6645608367	-0.453542
N	 1.085949357	-1.1648065437	-3.2452917203	-0.365915
C	 2.3187742767	-1.1223968401	-2.575348047	-0.173348
C	 2.0663319742	-0.6843666521	-1.3218640428	 0.278469
N	 2.9188128996	-0.3636810779	-0.2558477441	-0.6015
H	 1.1751980573	 1.8624342447	 0.216716788	 0.135834
H	-0.2398656211	 2.102016612	-0.8311728405	 0.135056
H	-0.4517050061	 1.9541088933	 0.9231485712	 0.113361
H	 0.2872035583	-0.4288014479	 0.8389814921	 0.097513
H	-1.0809209525	-0.1812726591	-0.2515475069	 0.147659
H	 0.9302219908	-1.4231807792	-4.2023629542	 0.263816
H	 3.2439337935	-1.4049565163	-3.0451007197	 0.124178
H	 3.8887632468	-0.4884232165	-0.5180530337	 0.249776
H	 2.7369906667	-0.9234810079	 0.5721684766	 0.24935
62.3429	97.9478	156.3305	204.1026	217.414	222.5922	297.084	338.2378	405.1253	436.2519	573.0306	590.5131	602.3809	632.2498	726.1577	752.6359	774.3686	792.9853	825.4735	967.0197	1007.575	1070.0217	1104.3662	1126.5374	1187.2664	1211.0593	1282.3348	1325.1687	1378.9135	1387.5473	1392.3274	1408.0641	1463.5528	1490.2673	1494.5352	1508.323	1637.6317	1705.4283	1820.2353	3037.6437	3043.3388	3103.5869	3115.588	3133.6828	3290.662	3494.4915	3602.9505	3706.2688
CCN1C(=O)NC=C1N	CCn1c(=O)[nH]cc1N	
InChI=1S/C5H9N3O/c1-2-8-4(6)3-7-5(8)9/h3H,2,6H2,1H3,(H,7,9)	InChI=1S/C5H9N3O/c1-2-8-4(6)3-7-5(8)9/h3H,2,6H2,1H3,(H,7,9)
