18
gdb 13661	4.9484	0.95644	0.86638	4.3485	73.37	-0.2343	0.0244	0.2587	1325.6978	0.153479	-343.969785	-343.960992	-343.960048	-344.003897	31.382	
C	 0.1711434837	 1.5561780282	-0.1707115939	-0.414842
C	 0.0521089056	 0.0557011708	-0.0054542309	-0.014527
C	 1.2890486787	-0.8145940986	 0.0847089264	-0.313873
C	 0.3691921931	-0.6463686995	 1.2858806879	 0.042318
N	 0.7418053445	 0.0872881954	 2.4664680018	-0.305088
C	 1.7657303892	-0.586867702	 3.257362659	-0.254873
C	 2.1229895436	 0.201677515	 4.4397177732	 0.252424
N	 2.4232988744	 0.8344793809	 5.358074699	-0.298932
H	 1.0712214531	 1.9570291376	 0.3075442546	 0.112939
H	 0.2365870347	 1.8184025211	-1.2317289372	 0.127617
H	-0.6948802142	 2.07818325	 0.2503068471	 0.129983
H	-0.7843962693	-0.3725400001	-0.5512333948	 0.093886
H	 1.3124007254	-1.7653958346	-0.43694539	 0.113921
H	 2.243893091	-0.2971367119	 0.1149080681	 0.109183
H	-0.2564452333	-1.5039880466	 1.5248954341	 0.097978
H	 1.0364481678	 1.0301170833	 2.2442353314	 0.233064
H	 1.3706237892	-1.5535627048	 3.5940746116	 0.155496
H	 2.6923177729	-0.8089054842	 2.6987439826	 0.133326
57.2192	78.8037	107.1819	188.9327	240.4585	261.8889	348.24	390.9194	448.7244	509.0105	570.9246	695.9949	747.9131	841.6474	867.0797	920.0406	956.7241	977.8338	1010.3511	1023.3345	1054.2405	1104.603	1123.0561	1153.454	1182.9511	1196.9067	1241.79	1282.1902	1343.9419	1386.7271	1414.9414	1419.9592	1476.0882	1492.178	1495.0859	1497.958	1518.5115	2368.0165	2951.2431	3030.4537	3046.8734	3092.274	3097.8843	3121.1934	3121.7555	3143.5754	3209.1346	3559.2992
CC1CC1NCC#N	C[C@H]1C[C@H]1NCC#N	
InChI=1S/C6H10N2/c1-5-4-6(5)8-3-2-7/h5-6,8H,3-4H2,1H3	InChI=1S/C6H10N2/c1-5-4-6(5)8-3-2-7/h5-6,8H,3-4H2,1H3/t5-,6+/m0/s1
