23
gdb 122981	6.18323	0.4508	0.43366	2.2351	79.34	-0.2561	0.0609	0.317	2473.051	0.203601	-462.553609	-462.54222	-462.541276	-462.591282	40.226	
O	-0.0232580566	 1.4344029067	 0.1135969858	-0.421524
C	 0.0465825713	 0.0196222663	 0.0187491814	-0.073829
C	-1.3761889746	-0.5235868306	 0.0334346296	-0.168385
C	-1.4320435481	-2.0507345296	-0.0539752538	-0.182676
C	-2.8627652701	-2.6007832636	-0.0443190428	-0.214457
C	-2.9308825911	-4.1269257833	-0.0604159398	 0.09445
O	-2.2748608253	-4.7126908794	 1.0747669731	-0.438814
C	-4.3607982816	-4.6686491354	-0.1318104516	-0.061167
O	-4.3715491273	-6.0780194842	-0.0781000648	-0.425152
H	 0.8733215414	 1.7815001107	 0.1026142716	 0.285329
H	 0.5540867097	-0.293481599	-0.9087025922	 0.084127
H	 0.6162241271	-0.409427077	 0.8597819303	 0.083846
H	-1.8682363686	-0.1780115874	 0.9513286896	 0.102434
H	-1.9275599317	-0.0735320483	-0.8016092552	 0.10432
H	-0.926469778	-2.3875843054	-0.9693093413	 0.096952
H	-0.875984308	-2.4963791792	 0.7793947974	 0.105993
H	-3.3968403984	-2.2306300518	 0.8443611379	 0.088198
H	-3.4169477327	-2.2149266168	-0.9101670322	 0.104106
H	-2.3724195915	-4.5178675232	-0.9198401304	 0.096238
H	-2.6492207289	-4.3065690084	 1.8663053277	 0.281085
H	-4.9521440165	-4.2280850164	 0.6933410985	 0.069141
H	-4.838340753	-4.3675391572	-1.0709520795	 0.106013
H	-3.6945269373	-6.3098320176	 0.5715701705	 0.283771
50.2196	64.4007	79.3806	121.7187	143.4225	159.5184	205.4052	252.7742	265.0927	314.9387	348.6392	402.0466	464.8182	491.3781	518.9692	590.3867	744.0646	795.9671	858.9948	907.7023	985.2674	1004.7766	1016.8784	1060.2784	1072.5386	1087.6516	1100.6347	1113.9598	1128.1157	1198.6629	1212.5249	1223.1942	1266.0339	1273.7419	1306.1408	1314.6228	1321.3861	1339.7288	1369.3341	1386.8071	1403.2156	1421.5138	1446.24	1464.7948	1477.5311	1491.1575	1505.7423	1508.8313	1529.6347	2925.1259	2957.5673	2982.1373	2993.5919	3016.5694	3028.6115	3036.6097	3047.1858	3055.9502	3067.8448	3079.4643	3758.9323	3779.6652	3830.3404
OCCCCC(O)CO	OCCCC[C@@H](O)CO	
InChI=1S/C6H14O3/c7-4-2-1-3-6(9)5-8/h6-9H,1-5H2	InChI=1S/C6H14O3/c7-4-2-1-3-6(9)5-8/h6-9H,1-5H2/t6-/m1/s1
