17
gdb 88804	3.23099	1.08719	0.89404	2.5806	70.39	-0.2601	-0.0376	0.2225	1299.0044	0.133275	-458.931145	-458.922314	-458.92137	-458.965982	31.276	
C	-0.1562177011	 1.4738034304	-0.175841301	-0.420638
C	-0.1309904895	 0.0067699839	 0.1642615098	 0.082028
O	 1.1057556516	-0.6983633193	 0.0072417698	-0.250343
C	 0.5611168105	-0.5899527057	 1.3223556165	 0.036548
C	 1.3550116569	 0.218342233	 2.3151973375	-0.015549
O	 0.5577776666	 0.6438055405	 3.4496013464	-0.291361
C	 1.3964333278	-0.0072382938	 4.4269047796	-0.188846
C	 2.2729262146	-0.5510988442	 3.29171226	 0.326694
O	 3.2212362152	-1.2643109244	 3.1994724502	-0.257483
H	 0.7146251579	 2.0032881658	 0.2149846468	 0.129535
H	-0.1694879557	 1.6041465189	-1.2627475801	 0.133934
H	-1.0598446224	 1.9396902823	 0.2306507925	 0.13318
H	-0.9924465272	-0.5548060546	-0.2029300009	 0.096749
H	 0.1571793442	-1.5203642826	 1.7250439793	 0.097194
H	 1.8620920334	 1.0562274319	 1.8219281209	 0.114173
H	 1.8985524664	 0.6980179626	 5.1014839509	 0.136142
H	 0.8609509308	-0.7593230847	 5.0194562918	 0.138043
33.0859	96.7455	119.0483	159.9263	200.0832	260.035	378.715	408.7934	449.8628	503.4367	578.7689	716.301	779.7571	812.5109	858.4087	950.8097	982.6128	990.2475	1007.5278	1029.8793	1077.5591	1094.6888	1121.5224	1138.3713	1168.7353	1188.7047	1229.9479	1273.0899	1298.13	1301.323	1400.8178	1420.4827	1464.3748	1480.2609	1486.3727	1507.1637	1929.1507	3018.8708	3042.0379	3046.1449	3067.4925	3085.4047	3100.0083	3106.2953	3137.6191
CC1OC1C1OCC1=O	C[C@H]1O[C@H]1[C@H]1OCC1=O	
InChI=1S/C6H8O3/c1-3-5(9-3)6-4(7)2-8-6/h3,5-6H,2H2,1H3	InChI=1S/C6H8O3/c1-3-5(9-3)6-4(7)2-8-6/h3,5-6H,2H2,1H3/t3-,5-,6+/m1/s1
