18
gdb 102357	1.86924	1.44456	1.1128	2.1648	72.33	-0.2716	-0.0517	0.2199	1193.9884	0.144573	-439.103559	-439.093175	-439.092231	-439.139433	36.013	
C	 0.0901346466	 1.5995496467	 0.1989107255	-0.410695
C	-0.0169726809	 0.0864111252	-0.0073047564	-0.211711
C	 0.6945145575	-0.4432284053	-1.2712490334	-0.043346
C	 0.6672720767	-2.0124311084	-1.2891879141	-0.092136
O	 1.3021438008	-2.5642014372	-2.4154711474	-0.418206
C	-0.0133045663	 0.0160312592	-2.5670010341	 0.172376
O	-1.1526210004	 0.3929944114	-2.5830338821	-0.244291
C	 2.1004995634	-0.0361100438	-1.3316983741	 0.259247
N	 3.2212810291	 0.2401616745	-1.4072277697	-0.341584
H	 1.1335907148	 1.9190587347	 0.2802254446	 0.139295
H	-0.37534471	 2.145350778	-0.6256882979	 0.141159
H	-0.4212737369	 1.8886973679	 1.1211661225	 0.124772
H	 0.3959395498	-0.4388543987	 0.8609972496	 0.112271
H	-1.0683452042	-0.2021375264	-0.0960472193	 0.130636
H	 1.0997851889	-2.3716712974	-0.3450303375	 0.118053
H	-0.3793252127	-2.3278920191	-1.3289803589	 0.139632
H	 2.2517454166	-2.4178220169	-2.3326788719	 0.303545
H	 0.5936101873	-0.0731340644	-3.4880177553	 0.120985
49.6025	95.1657	108.1693	142.7283	164.5713	204.8006	212.1263	269.1386	307.8595	383.1678	402.0735	430.2203	516.0173	558.5262	641.1733	726.8086	789.9466	872.9642	930.6971	983.0646	1023.9138	1051.2164	1095.5121	1122.4661	1163.9515	1176.9578	1248.0943	1328.5099	1357.7473	1394.7509	1413.3771	1420.0098	1421.6417	1474.0032	1500.0724	1501.1571	1508.0818	1833.7966	2343.0605	2956.0114	3007.9532	3046.1016	3047.8411	3092.8019	3098.8781	3117.5682	3128.6241	3797.3172
CCC(CO)(C=O)C#N	CC[C@@](CO)(C=O)C#N	
InChI=1S/C6H9NO2/c1-2-6(3-7,4-8)5-9/h4,9H,2,5H2,1H3	InChI=1S/C6H9NO2/c1-2-6(3-7,4-8)5-9/h4,9H,2,5H2,1H3/t6-/m0/s1
