15
gdb 132421	3.1379	1.34393	0.94648	5.3029	73.64	-0.2131	-0.0357	0.1774	1160.0566	0.113023	-461.98749	-461.979737	-461.978793	-462.019824	29.21	
C	-0.0175345763	 1.5204127038	 0.0513533072	-0.49327
C	-0.0035417108	 0.0258076434	-0.0674600061	 0.402375
C	-0.0347813827	-0.6634347683	-1.2417191997	-0.236705
C	-0.0160736658	-2.088296674	-1.2180109245	-0.189597
C	 0.0323353408	-2.7563019383	-0.0392387157	 0.12878
F	 0.0505622705	-4.0844906657	 0.0077011036	-0.059435
C	 0.0675965439	-2.0806014136	 1.2508090041	 0.336462
O	 0.1113859101	-2.6049917086	 2.348728822	-0.389692
N	 0.0451159208	-0.6852542677	 1.1046494813	-0.42239
H	 0.8818984996	 1.8869722528	 0.5601581376	 0.144328
H	-0.0614189055	 1.9817273151	-0.9363903748	 0.145753
H	-0.8837801728	 1.8650495012	 0.6284342214	 0.144137
H	-0.0733809655	-0.1305873175	-2.1817855745	 0.107889
H	-0.0403974389	-2.6547450361	-2.1427796223	 0.12282
H	 0.0688646326	-0.1931979166	 1.9884721904	 0.258546
117.9104	148.8424	176.5248	294.7465	306.7928	368.0804	422.4928	448.1435	533.0276	593.4529	614.3963	697.2807	730.0066	769.5618	776.8745	807.636	935.355	984.2441	1031.7579	1065.0392	1123.1901	1186.9357	1222.1237	1284.1279	1341.9029	1403.4914	1416.9244	1472.3996	1478.6722	1505.8846	1626.3682	1682.2453	1787.3975	3028.711	3079.9432	3138.7966	3192.8051	3225.9353	3591.1366
CC1=CC=C(F)C(=O)N1	Cc1ccc(F)c(=O)[nH]1	
InChI=1S/C6H6FNO/c1-4-2-3-5(7)6(9)8-4/h2-3H,1H3,(H,8,9)	InChI=1S/C6H6FNO/c1-4-2-3-5(7)6(9)8-4/h2-3H,1H3,(H,8,9)
