17
gdb 26062	3.30273	1.20134	0.9341	3.2479	79.4	-0.2219	0.0311	0.253	1234.4144	0.136421	-380.879503	-380.87093	-380.869986	-380.913127	32.082	
C	 0.0411304201	 1.4881991503	-0.180675222	-0.383826
C	-0.0202867906	-0.0335992388	 0.0933920977	-0.281581
C	 0.6981645569	-0.3809310571	 1.3193491858	 0.346761
C	 1.2938197232	-0.6409408623	 2.3308413748	-0.483396
C	-1.4463558206	-0.5249659011	 0.1196353849	 0.297834
C	-2.1509001199	-1.1010866099	 1.143612626	-0.181587
N	-3.407072134	-1.3435063964	 0.6302078299	-0.243407
C	-3.4057398048	-0.9110725615	-0.6612078752	 0.008866
N	-2.240967921	-0.4122782706	-1.0022692049	-0.309829
H	 1.0777151288	 1.8180154922	-0.2892975575	 0.117202
H	-0.5070718231	 1.7100662645	-1.0987792766	 0.139469
H	-0.4158057256	 2.0421997011	 0.6438174884	 0.121619
H	 0.4803150956	-0.5351360866	-0.7468323257	 0.120661
H	 1.8288902394	-0.8782709227	 3.2166369683	 0.192295
H	-1.8784936212	-1.3563872158	 2.1528306663	 0.141925
H	-4.1767884046	-1.7675481856	 1.1196836027	 0.2669
H	-4.2748258785	-0.9878484897	-1.2975952127	 0.130093
47.5183	125.058	161.2734	205.394	241.526	327.5281	385.9098	467.6743	519.6918	539.1629	617.6953	637.1593	659.8018	686.5094	726.9925	760.2664	820.8912	868.9476	948.9987	969.5177	1027.1995	1077.3892	1089.0958	1118.4624	1135.8363	1228.4571	1244.6388	1312.1231	1341.472	1356.7511	1398.7554	1455.1966	1492.3122	1498.1235	1527.3443	1595.7074	2235.7169	3006.6516	3047.5424	3123.9285	3138.0401	3250.3246	3290.4061	3504.2812	3668.7178
CC(C#C)C1=CNC=N1	C[C@@H](C#C)c1c[nH]cn1	
InChI=1S/C7H8N2/c1-3-6(2)7-4-8-5-9-7/h1,4-6H,2H3,(H,8,9)	InChI=1S/C7H8N2/c1-3-6(2)7-4-8-5-9-7/h1,4-6H,2H3,(H,8,9)/t6-/m0/s1
