21
gdb 37353	2.53857	1.88028	1.75115	1.4521	79.67	-0.2389	0.079	0.3179	933.7238	0.187122	-387.08097	-387.074285	-387.073341	-387.111514	29.19	
C	-0.0816911852	 1.4665418505	 0.107734576	-0.289541
C	 1.2727448053	 0.8074131764	 0.0065578694	-0.04256
C	 0.0085981976	-0.0305612877	 0.0312747295	-0.031991
C	-0.0555568491	-0.6795445195	-1.3688777087	 0.107339
C	 1.4388424196	-0.8814353052	-1.6794738063	-0.243097
C	 1.9422238983	 0.5488930185	-1.3648137999	-0.018175
C	 1.4577020872	 1.4787172655	-2.5066449631	-0.239508
C	 0.2200207596	 0.8771316102	-3.2064675024	-0.0622
O	-0.6674604915	 0.1971598557	-2.3242679789	-0.280068
H	-0.3392769803	 1.8972097719	 1.0702284274	 0.103325
H	-0.5018260642	 1.9913659871	-0.7412691254	 0.122055
H	 1.9258672132	 0.8562568564	 0.8709522935	 0.078747
H	-0.2706781791	-0.6370455811	 0.8855265432	 0.077313
H	-0.6428088482	-1.6027174722	-1.3661728545	 0.069212
H	 1.8580889477	-1.6059729806	-0.9751648752	 0.095668
H	 1.6490635855	-1.2316109801	-2.6950261103	 0.093296
H	 3.0285128402	 0.6098985555	-1.2694306002	 0.063481
H	 1.2399437787	 2.4761107647	-2.1136988654	 0.108266
H	 2.2471084954	 1.5995437986	-3.2571666416	 0.093608
H	-0.3831707544	 1.6567587402	-3.6811603678	 0.10365
H	 0.5461512237	 0.1952702953	-4.0060770994	 0.091181
211.9481	215.116	330.7567	385.916	453.7193	505.0208	529.08	564.6158	692.4357	725.3455	764.9309	805.1691	810.0972	860.5147	871.9327	902.8124	924.0801	957.4794	972.0629	986.579	1023.1794	1040.7156	1055.5799	1067.9634	1080.1726	1103.4442	1111.7678	1132.3234	1188.1127	1198.993	1204.8029	1239.08	1286.0896	1298.6184	1303.4535	1329.6264	1337.411	1352.9061	1369.6456	1379.6188	1413.3811	1482.3229	1491.3483	1493.4577	1526.0597	2982.5574	3039.0925	3048.3335	3062.3117	3071.4775	3079.9268	3089.5205	3097.2805	3133.332	3160.8565	3171.7457	3220.9221
C1C2C1C1CC2CCO1	C1[C@H]2[C@@H]1[C@@H]1C[C@H]2CCO1	
InChI=1S/C8H12O/c1-2-9-8-3-5(1)6-4-7(6)8/h5-8H,1-4H2	InChI=1S/C8H12O/c1-2-9-8-3-5(1)6-4-7(6)8/h5-8H,1-4H2/t5-,6-,7-,8+/m1/s1
