23
gdb 101194	3.08066	0.99778	0.92756	1.5837	85.47	-0.2444	0.0764	0.3208	1418.4227	0.205429	-388.260948	-388.251248	-388.250303	-388.296106	36.59	
C	-0.0175515987	 1.5686921491	 0.0563845346	-0.384783
C	-0.0980910078	 0.0452348088	 0.1701487004	-0.17955
C	-1.5144376507	-0.5028736461	-0.0564829433	 0.116279
O	-2.0279663466	-0.1154702784	-1.3342914831	-0.435746
C	-1.5640296571	-2.0077098646	 0.1228488738	-0.02629
C	-1.8832022405	-2.7380504631	 1.4035510418	-0.074291
C	-2.9765509009	-2.0268653902	 2.2137029848	-0.230715
C	-3.9267751074	-2.1005219487	 0.9736046864	-0.231853
C	-2.8235320148	-2.8272865215	 0.1927781639	-0.076822
H	 1.0120027655	 1.9229700929	 0.1653911294	 0.105656
H	-0.3979578705	 1.8993034013	-0.9135077855	 0.128778
H	-0.621039597	 2.0535200605	 0.8321300833	 0.111296
H	 0.5772869354	-0.4210764014	-0.5623511421	 0.080638
H	 0.2489397261	-0.2845919626	 1.1576295141	 0.098638
H	-2.1892808647	-0.0172642851	 0.6563126616	 0.083196
H	-1.5753339462	-0.6444368093	-2.0004074464	 0.273604
H	-0.7801416823	-2.5170187869	-0.4408916875	 0.072959
H	-1.2089716019	-3.4876621581	 1.8016905072	 0.080196
H	-3.3409649067	-2.6422572804	 3.0392022826	 0.101613
H	-2.735542872	-1.0350396287	 2.6099771982	 0.096884
H	-4.7965605683	-2.7327808908	 1.1630787394	 0.099711
H	-4.2720825649	-1.1549391664	 0.5457988313	 0.111361
H	-2.9863141781	-3.6607273003	-0.4806550851	 0.07924
34.3172	98.3827	132.701	182.2707	222.2421	243.194	252.3912	300.0243	393.5477	436.7433	498.3661	563.1133	741.8807	769.5652	788.9294	792.2238	801.6409	890.1168	931.6948	950.0016	958.7548	980.4592	1003.9407	1018.4538	1023.6101	1063.7158	1077.4102	1111.0822	1111.9298	1121.3731	1149.4251	1195.181	1222.8572	1243.3628	1259.1583	1264.4404	1285.8374	1304.9057	1331.4551	1354.5651	1383.2505	1404.4347	1419.3333	1456.0746	1479.5377	1485.5929	1495.895	1507.0298	1509.585	3000.8057	3035.3632	3045.8378	3047.0269	3059.3256	3064.9487	3091.9437	3096.2711	3099.1554	3116.2078	3122.7429	3167.5678	3179.9405	3799.6992
CCC(O)C1C2CCC12	CC[C@@H](O)[C@H]1[C@H]2CC[C@@H]12	
InChI=1S/C8H14O/c1-2-7(9)8-5-3-4-6(5)8/h5-9H,2-4H2,1H3	InChI=1S/C8H14O/c1-2-7(9)8-5-3-4-6(5)8/h5-9H,2-4H2,1H3/t5-,6+,7-,8-/m1/s1
