17
gdb 127506	2.39284	1.6115	0.97479	1.9124	72.68	-0.2039	0.0476	0.2515	1176.7415	0.134951	-455.172418	-455.162626	-455.161681	-455.207781	34.108	
C	 0.0949750387	 1.4001816288	-0.0930317719	-0.32462
N	 0.0545042309	-0.0380841329	-0.0008052614	-0.034785
N	 0.0201300979	-0.8086784053	-1.1366849228	-0.404306
C	 0.030341663	-2.0480011773	-0.6792513121	 0.387065
O	 0.0007732972	-3.1128373347	-1.5110696707	-0.431434
C	 0.0780004575	-2.1424379956	 0.7307570948	-0.053538
C	 0.1030920524	-3.3641092908	 1.5932742952	-0.522578
C	 0.0932498591	-0.8095621135	 1.106105541	 0.401333
O	 0.1473413339	-0.2147354285	 2.3201698215	-0.43709
H	 1.0361334656	 1.7380185565	-0.5399432781	 0.137989
H	-0.7341965289	 1.7568585912	-0.7102754628	 0.142581
H	 0.0050693443	 1.8156972547	 0.9111057642	 0.152675
H	-0.0059513766	-2.7630618429	-2.4110927984	 0.300029
H	 0.5467419878	-3.1569892471	 2.5755770901	 0.100473
H	-0.8948411591	-3.7852080048	 1.769078034	 0.130718
H	 0.7073042074	-4.1517038516	 1.1329908302	 0.145324
H	 0.0923925789	-0.898554596	 2.9955512072	 0.310163
48.9475	59.3328	124.9682	177.4821	221.9338	226.9875	274.0163	285.5981	320.9983	395.5392	425.8439	571.8413	603.8999	633.5692	651.9051	730.4434	750.3678	891.8228	1007.5624	1060.3904	1070.3564	1153.2385	1160.9808	1221.3635	1269.8045	1291.4578	1345.7466	1424.5578	1450.3472	1479.0178	1480.5941	1485.5805	1500.1033	1515.8349	1564.822	1604.832	1668.9998	3011.9153	3038.942	3058.0722	3096.649	3099.7729	3155.4257	3791.7089	3833.2772
CN1N=C(O)C(C)=C1O	Cn1nc(O)c(C)c1O	
InChI=1S/C5H8N2O2/c1-3-4(8)6-7(2)5(3)9/h9H,1-2H3,(H,6,8)	InChI=1S/C5H8N2O2/c1-3-4(8)6-7(2)5(3)9/h9H,1-2H3,(H,6,8)
