19
gdb 70277	2.73741	1.41092	1.25801	2.9971	75.09	-0.2338	-0.0238	0.2101	1090.5475	0.158169	-423.02342	-423.014942	-423.013998	-423.056724	32.025	
C	 0.5549959139	 1.2473549475	-0.2054957655	-0.485242
C	 0.0290494731	-0.1586247746	-0.0411770934	 0.329885
C	-0.8468491096	-0.5203690575	 1.1492477556	-0.354974
C	 0.5327211055	-1.1055103552	 1.0105020743	 0.06996
O	 0.5889361657	-2.4135352149	 0.4897886595	-0.249079
C	 0.5900198444	-2.3302911933	-0.921900145	 0.019656
C	-0.1728533717	-1.0252835627	-1.2921112924	-0.342451
C	 2.0038537492	-2.2743956806	-1.4897761615	 0.1518
O	 2.997518942	-2.0911517193	-0.8400792585	-0.235166
H	 1.4888319848	 1.2569589825	-0.7791444375	 0.125142
H	-0.1676659703	 1.8858194975	-0.7268582499	 0.119546
H	 0.7575784791	 1.7069855366	 0.7668083681	 0.12064
H	-1.0030406128	 0.2461586952	 1.9020489716	 0.110817
H	-1.6855704507	-1.1917532972	 0.9959435946	 0.11351
H	 1.3362236902	-0.8629893128	 1.6975216608	 0.107777
H	 0.099629598	-3.2259308559	-1.3237978825	 0.10044
H	-1.2271968472	-1.2341076557	-1.4947595363	 0.115219
H	 0.2431983578	-0.5442204216	-2.1833569656	 0.11124
H	 2.0425545588	-2.3922338779	-2.6001617964	 0.071279
62.5392	119.1254	174.4147	212.7078	284.1973	308.3507	330.8044	377.4681	465.6923	587.4974	639.2425	744.5991	774.4652	804.199	865.1863	873.6116	889.9679	932.9066	966.9917	992.2184	1012.6134	1045.9325	1056.3476	1075.8174	1096.9303	1126.0294	1146.7084	1191.7757	1249.1966	1278.861	1293.1388	1312.0923	1357.3218	1400.3	1414.754	1421.4155	1477.3364	1490.083	1497.4922	1501.9886	1843.3461	2838.5147	3023.5845	3036.2298	3050.7333	3084.5078	3090.4559	3101.136	3122.3229	3170.882	3214.0819
CC12CC1OC(C2)C=O	C[C@]12C[C@H]1O[C@@H](C2)C=O	
InChI=1S/C7H10O2/c1-7-2-5(4-8)9-6(7)3-7/h4-6H,2-3H2,1H3	InChI=1S/C7H10O2/c1-7-2-5(4-8)9-6(7)3-7/h4-6H,2-3H2,1H3/t5-,6+,7-/m0/s1
