25
gdb 113369	2.17517	0.98704	0.8327	1.3908	89.6	-0.2555	0.0782	0.3337	1565.8993	0.227163	-389.48048	-389.469285	-389.46834	-389.517032	41.119	
C	 1.0028160134	 1.5427034035	 0.2420469125	-0.383313
C	 0.1745132824	 0.2701997268	 0.0156669067	-0.257581
C	 0.5060157074	-0.4583927158	-1.2834809747	 0.36191
C	 0.2651821863	 0.3312564913	-2.567615861	-0.249093
C	-1.2015191148	 0.7076724808	-2.8113895166	-0.382755
C	 1.690904867	-1.3993326466	-1.281402271	-0.337843
C	 0.2919212721	-1.9571593255	-1.3975454235	-0.024922
C	-0.2957852986	-2.8237746377	-0.3146830006	-0.114427
O	 0.1374862484	-4.1596326354	-0.5518738778	-0.419643
H	 2.0752568	 1.3225281397	 0.2120660755	 0.118378
H	 0.7992312534	 2.3050748495	-0.5160934821	 0.118357
H	 0.7767417511	 1.983427293	 1.2180710316	 0.108956
H	 0.340716774	-0.4032391871	 0.8622779171	 0.093426
H	-0.8932848072	 0.5234699555	 0.0401214193	 0.095449
H	 0.8800419171	 1.2400362833	-2.5629456214	 0.095639
H	 0.6252240809	-0.2663891189	-3.4136003471	 0.092657
H	-1.5838476641	 1.3806457054	-2.037375349	 0.116576
H	-1.3190035132	 1.2162006696	-3.7734284614	 0.110637
H	-1.8399998093	-0.1823295566	-2.822361828	 0.115724
H	 2.338635204	-1.4322245916	-2.1513647503	 0.104644
H	 2.2083399847	-1.5578852318	-0.3396548569	 0.104637
H	 0.0056788213	-2.3019531626	-2.3886952791	 0.084364
H	 0.0270228195	-2.481395683	 0.679486098	 0.081918
H	-1.3963111257	-2.7608944953	-0.3394686696	 0.083413
H	-0.28642709	-4.7281444405	 0.0980360395	 0.282892
61.1465	66.3138	112.7423	147.3415	167.449	206.1905	231.9206	260.5847	287.5623	300.8108	328.1708	384.637	450.5253	455.1945	580.4029	678.6515	774.8706	797.6609	842.1175	873.148	905.8962	924.7438	979.3489	991.8694	1041.2582	1046.671	1052.2061	1064.1507	1077.8406	1098.3052	1130.5541	1142.5675	1170.4559	1242.4845	1256.1199	1273.3939	1286.7373	1323.269	1334.7844	1361.2863	1381.9924	1407.0422	1409.803	1418.6577	1470.5576	1482.6056	1487.5268	1496.3412	1502.3696	1503.2027	1504.9978	1514.1297	1520.9045	2961.5916	3000.2844	3023.4277	3025.1303	3034.6543	3035.9068	3054.5709	3070.203	3101.8464	3102.6908	3103.7484	3108.4557	3120.4827	3131.712	3203.2886	3823.426
CCC1(CC)CC1CO	CCC1(CC)C[C@H]1CO	
InChI=1S/C8H16O/c1-3-8(4-2)5-7(8)6-9/h7,9H,3-6H2,1-2H3	InChI=1S/C8H16O/c1-3-8(4-2)5-7(8)6-9/h7,9H,3-6H2,1-2H3/t7-/m0/s1
