19
gdb 74417	2.85319	1.36939	1.11828	1.9707	77.43	-0.2216	0.0187	0.2403	1152.7142	0.157531	-423.021595	-423.012692	-423.011748	-423.054377	34.938	
C	 0.0562799544	 1.5083006655	 0.0952820533	-0.485895
C	-0.0170376364	 0.0171384708	 0.0022922613	 0.315045
C	-0.0818409024	-0.7237887739	-1.1113696051	-0.248479
C	-0.0559588855	-2.1832348341	-0.8031950383	 0.274607
O	-0.9273293811	-3.0649171373	-1.4537161924	-0.474037
C	 1.209346781	-2.7148605839	-0.1450903725	-0.400295
C	 0.0292220237	-2.2771311211	 0.702594761	 0.39164
O	-0.7007633616	-3.2506509686	 1.3767934508	-0.484315
C	 0.0066090117	-0.8561899086	 1.2498921172	-0.375124
H	 0.9967066747	 1.834983236	 0.5572628043	 0.126176
H	-0.0164715329	 1.9770972437	-0.8897718144	 0.123855
H	-0.7514488814	 1.9039902949	 0.7242659984	 0.126653
H	-0.1129255574	-0.3358795307	-2.1240167699	 0.087628
H	-0.432551921	-3.5595669346	-2.114266444	 0.290455
H	 1.3522647892	-3.7912775653	-0.1728711515	 0.108924
H	 2.114638127	-2.118045411	-0.1962320454	 0.109025
H	-1.2884508091	-3.6506358925	 0.720702929	 0.287933
H	 0.8723963513	-0.634035444	 1.88641383	 0.110012
H	-0.8875232042	-0.7022284453	 1.8676838884	 0.116193
139.1388	171.3841	212.3166	218.5616	253.862	277.3255	352.1944	382.9788	416.0109	429.4928	476.3476	539.7827	576.3274	590.0885	765.5278	775.6606	834.9378	865.7166	906.3977	922.9858	947.1791	968.3484	1016.9857	1037.1324	1066.7514	1131.3235	1154.1362	1181.4681	1217.4241	1220.3401	1273.5066	1324.1638	1356.8164	1386.2251	1401.9714	1412.8123	1459.8909	1476.7863	1478.8215	1489.36	1699.7683	3015.8952	3024.3149	3055.8327	3062.2456	3110.4147	3114.4369	3186.153	3211.349	3741.6599	3817.4316
CC1=CC2(O)CC2(O)C1	CC1=C[C@@]2(O)C[C@@]2(O)C1	
InChI=1S/C7H10O2/c1-5-2-6(8)4-7(6,9)3-5/h2,8-9H,3-4H2,1H3	InChI=1S/C7H10O2/c1-5-2-6(8)4-7(6,9)3-5/h2,8-9H,3-4H2,1H3/t6-,7+/m1/s1
