20
gdb 61809	2.76018	1.0279	0.97483	3.5196	76.38	-0.2457	0.0358	0.2815	1326.7647	0.169144	-440.299431	-440.289503	-440.288559	-440.335038	36.524	
C	-0.0510304342	 1.514639599	-0.3700901582	-0.411053
C	 0.0067442816	 0.0200716392	-0.0215522884	-0.001873
N	 0.6905505185	-0.2032166269	 1.2485788136	-0.277514
C	 2.029862722	-0.3797885154	 1.3465929403	 0.154162
O	 2.804648258	-0.3665168201	 0.4103991948	-0.337196
C	-1.3699315421	-0.6163509692	 0.065317036	 0.402673
O	-2.1406111936	-0.1422419838	 1.1471596937	-0.478552
C	-2.0914052171	-1.0384343902	-1.1855060384	-0.330758
C	-1.5435732392	-2.0743278351	-0.2195813491	-0.302953
H	 0.9617257979	 1.9184030908	-0.4369166767	 0.145992
H	-0.551843874	 1.6704930192	-1.3309713651	 0.118467
H	-0.5889992095	 2.0784186483	 0.4000751328	 0.103953
H	 0.5937988897	-0.4938531733	-0.788009983	 0.112085
H	 0.1170790109	-0.2124464412	 2.0783834214	 0.253438
H	 2.351016744	-0.5454273733	 2.3945622784	 0.073307
H	-2.472319791	 0.7329106582	 0.9171215352	 0.287625
H	-3.1666279877	-0.8988184358	-1.2036992353	 0.116954
H	-1.5976292206	-0.9082606697	-2.1427138679	 0.11957
H	-0.6720419859	-2.6483475818	-0.5133188289	 0.126253
H	-2.2604691476	-2.6056560189	 0.3950671348	 0.125419
25.9918	79.283	161.8674	187.1792	229.4504	247.6932	269.7413	314.5532	338.2791	378.9593	444.8843	511.0052	541.7233	581.1031	695.1473	775.3839	822.3128	880.211	917.8453	931.1207	945.9236	983.5899	1030.8455	1041.3588	1056.828	1080.3135	1098.5196	1130.1335	1188.3687	1209.6278	1250.6092	1292.2744	1325.2187	1366.7021	1396.7853	1400.2789	1425.7819	1455.2266	1485.945	1499.6699	1502.3139	1519.8689	1794.7408	2931.5579	3033.9435	3077.9388	3104.6793	3128.8682	3132.6844	3143.1754	3218.7804	3236.7608	3626.0287	3796.6103
CC(NC=O)C1(O)CC1	C[C@@H](NC=O)C1(O)CC1	
InChI=1S/C6H11NO2/c1-5(7-4-8)6(9)2-3-6/h4-5,9H,2-3H2,1H3,(H,7,8)	InChI=1S/C6H11NO2/c1-5(7-4-8)6(9)2-3-6/h4-5,9H,2-3H2,1H3,(H,7,8)/t5-/m1/s1
