21
gdb 113170	2.94336	1.00152	0.86755	2.1331	80.33	-0.2411	-0.0192	0.222	1442.8696	0.178252	-424.241862	-424.231036	-424.230091	-424.278465	38.155	
C	-0.3650338127	 1.3446985745	-0.7030154605	-0.376725
C	-0.2075119889	 0.1555100755	 0.2540436692	-0.219608
C	-1.398450313	-0.7702198481	 0.1853279878	 0.032831
O	-1.5102419951	-1.6394668326	-0.9418525145	-0.287153
C	-1.3481837431	-2.2464296581	 0.3526411473	 0.261576
C	-0.0712511101	-3.009056894	 0.617855464	-0.466409
C	-2.5982789683	-2.9119336215	 0.9024830357	 0.324746
C	-3.8939696318	-2.7045835232	 0.1454452039	-0.479893
O	-2.5278328288	-3.5997144429	 1.8967879725	-0.306002
H	 0.4988777538	 2.0125219876	-0.6415595987	 0.118358
H	-0.455639315	 0.997510953	-1.7365102312	 0.135598
H	-1.2591568724	 1.9312779666	-0.4656439489	 0.11759
H	 0.7081591328	-0.3905615111	 0.01502587	 0.110662
H	-0.1094704787	 0.5140743222	 1.2866102949	 0.109278
H	-2.341071953	-0.281134334	 0.4472689065	 0.085224
H	 0.8056044355	-2.4711364328	 0.2579581025	 0.124288
H	 0.026565459	-3.1972269822	 1.6890821467	 0.148831
H	-0.1064054795	-3.9803817254	 0.1144027385	 0.132003
H	-3.8135085558	-3.1700974868	-0.8427362755	 0.154574
H	-4.7112398427	-3.1592048274	 0.7060074312	 0.137526
H	-4.1008087824	-1.6457741294	-0.0331804714	 0.142705
51.0654	68.5059	111.6343	115.2951	150.9181	156.0105	231.563	265.3859	284.9388	340.8111	406.7986	470.3164	505.1551	538.8237	621.8135	680.6732	758.3621	832.5448	839.7225	914.9154	946.3547	994.3958	1027.0045	1039.4415	1085.4314	1105.5592	1126.9014	1155.6243	1178.3717	1288.7159	1296.5484	1336.7518	1350.28	1386.9155	1407.2535	1410.6056	1449.67	1460.615	1469.7172	1473.5333	1484.4371	1497.62	1500.0632	1509.5176	1799.1108	3035.0508	3037.5473	3049.2898	3056.3629	3063.0939	3093.409	3111.9932	3113.0849	3118.5148	3123.8269	3157.4918	3158.1194
CCC1OC1(C)C(C)=O	CC[C@H]1O[C@]1(C)C(=O)C	
InChI=1S/C7H12O2/c1-4-6-7(3,9-6)5(2)8/h6H,4H2,1-3H3	InChI=1S/C7H12O2/c1-4-6-7(3,9-6)5(2)8/h6H,4H2,1-3H3/t6-,7-/m1/s1
