16
gdb 98721	2.89551	1.19201	0.99911	2.3736	72.66	-0.2547	0.0171	0.2718	1219.6551	0.12187	-437.852193	-437.842889	-437.841945	-437.886998	32.549	
C	 0.4298072715	 1.1045956625	-0.121484766	-0.231249
O	 0.1034238277	-0.2707696384	 0.1075761808	-0.239874
C	 0.6059419647	-0.7825178188	 1.2516884091	 0.496568
O	 1.30307069	-0.1847849043	 2.0293917045	-0.388126
N	 0.1247642193	-2.0758170279	 1.442306573	-0.143628
C	 0.1433850352	-3.1150405672	 0.4416640765	-0.237866
C	 0.9893719873	-3.2257003461	 1.6903780007	-0.192184
C	 2.4182476735	-3.1129951299	 1.5899297805	 0.357501
C	 3.6154531561	-3.0403605722	 1.5186872248	-0.451833
H	 1.5121813741	 1.2397744899	-0.1882556918	 0.141897
H	-0.0470408373	 1.3671314339	-1.0660592771	 0.132185
H	 0.0465028538	 1.7317917791	 0.6873406874	 0.142644
H	-0.7625391802	-3.7085629806	 0.3561534067	 0.132104
H	 0.666368728	-2.9164945002	-0.4889289572	 0.143979
H	 0.6332048155	-3.8699824897	 2.4905974041	 0.130459
H	 4.6731329107	-2.9625255699	 1.4612558742	 0.207423
57.3938	93.9488	114.8106	152.0185	175.9364	228.4493	270.9271	319.5257	464.9159	515.9018	546.4253	618.2959	648.6448	674.4755	779.8621	802.8661	845.3941	927.757	999.3945	1053.1272	1066.9283	1122.7117	1128.2755	1164.3173	1181.9316	1209.4338	1227.3428	1362.9495	1401.3793	1476.15	1481.1595	1500.4696	1508.1486	1825.5873	2244.5285	3051.8709	3115.5888	3127.1044	3137.9445	3157.3991	3210.9772	3502.6119
COC(=O)N1CC1C#C	COC(=O)N1C[C@H]1C#C	
InChI=1S/C6H7NO2/c1-3-5-4-7(5)6(8)9-2/h1,5H,4H2,2H3	InChI=1S/C6H7NO2/c1-3-5-4-7(5)6(8)9-2/h1,5H,4H2,2H3/t5-,7?/m1/s1
