22
gdb 110639	2.39465	1.43172	1.09704	0.7697	87.31	-0.2064	0.0735	0.2799	1234.8671	0.192777	-367.122983	-367.11386	-367.112916	-367.156577	35.664	
C	 0.805903321	 1.5332990996	-0.2291950603	-0.37595
C	 0.0020617845	 0.2328082919	-0.1566995891	-0.125223
N	 0.4469139308	-0.5666262575	 0.9865142064	-0.110753
C	-0.2703046564	-1.2972574486	 1.993366597	-0.125231
C	-1.3424324534	-2.3302154632	 1.5024166086	-0.064416
C	-1.5424643522	-2.3863904042	 0.0146995105	-0.313653
C	-0.2965025737	-2.982406554	 0.6116723531	-0.106387
C	 0.7782433373	-1.9535203419	 1.1327516112	 0.30729
C	 2.1849004175	-2.3879770876	 1.4231256202	-0.480653
H	 1.8735050285	 1.3206131384	-0.3392148192	 0.116945
H	 0.4845427231	 2.1427143624	-1.0811395889	 0.102568
H	 0.6736421918	 2.1188175296	 0.6854210797	 0.118174
H	-1.0645243893	 0.4681953131	-0.0615304523	 0.108221
H	 0.1349173422	-0.32950813	-1.088976551	 0.106277
H	-0.217548084	-0.9683029223	 3.0273862833	 0.087237
H	-2.0145100968	-2.8195878131	 2.1955918851	 0.086728
H	-2.2690071612	-3.1320578754	-0.2986344852	 0.109823
H	-1.5373739023	-1.5087809308	-0.6135572988	 0.1136
H	-0.070158794	-4.0380156093	 0.5278372344	 0.084861
H	 2.744618144	-2.5556726747	 0.4941142625	 0.116792
H	 2.705868888	-1.6205374624	 2.0011691608	 0.126894
H	 2.1981513246	-3.3266157999	 1.9884109222	 0.116857
63.6439	160.2779	190.8503	209.9107	218.1554	273.3457	298.5294	354.4735	371.6145	502.1848	578.4915	659.5756	682.1868	696.8097	759.0858	803.7445	833.101	872.7621	910.8457	922.6817	951.9429	969.6446	980.8951	1012.1629	1037.8005	1055.7592	1081.6735	1097.5451	1119.5376	1140.5921	1174.9176	1187.6343	1201.9899	1268.3778	1276.5905	1317.2012	1322.9283	1373.4477	1403.1344	1405.4142	1466.2769	1478.4351	1484.7866	1488.2741	1493.1227	1501.1452	1507.181	3011.9991	3020.8018	3033.6788	3060.3834	3078.3878	3104.9847	3116.8277	3119.7018	3134.9005	3144.2014	3185.0487	3196.8659	3250.9838
CCN1C2C3CC3C12C	CCN1[C@H]2[C@H]3C[C@H]3[C@@]12C	
InChI=1S/C8H13N/c1-3-9-7-5-4-6(5)8(7,9)2/h5-7H,3-4H2,1-2H3	InChI=1S/C8H13N/c1-3-9-7-5-4-6(5)8(7,9)2/h5-7H,3-4H2,1-2H3/t5-,6+,7-,8+,9?/m0/s1
