16
gdb 66273	2.04627	1.66164	1.42981	5.4882	69.	-0.2519	-0.0071	0.2448	1008.6071	0.126121	-434.1152	-434.106676	-434.105732	-434.14833	31.283	
N	-0.0257467462	 1.4817991984	 0.1809328867	-0.543519
C	-0.0426107048	 0.0371096451	 0.00111844	 0.011352
C	-1.4623644146	-0.5586828449	-0.1302626129	-0.237852
C	-1.2540908627	-1.8366435381	-0.9665638908	-0.180198
N	-0.102986056	-1.4889478073	-1.788093432	-0.30748
C	 0.6456776979	-0.4553436584	-1.3208092649	 0.38432
O	 1.6335582313	 0.0382574554	-1.8112207502	-0.373118
C	 0.6685110498	-0.6005427405	 1.1226383888	 0.298405
N	 1.2193590601	-1.1391128568	 1.9840631297	-0.332857
H	 0.9362844174	 1.801000315	 0.0798376376	 0.256127
H	-0.5383068779	 1.9073535677	-0.587805235	 0.237067
H	-1.9396368584	-0.7472994334	 0.8309643407	 0.142076
H	-2.0763711009	 0.1552298635	-0.6884154042	 0.120616
H	-1.0466347775	-2.7041233667	-0.3269342598	 0.13529
H	-2.1247379295	-2.0699488048	-1.5853301706	 0.126226
H	 0.198514272	-2.0276710242	-2.5849882131	 0.263546
88.1732	140.0311	168.0417	195.9741	227.6834	272.4547	349.4073	435.3087	490.8547	516.5019	580.295	643.3194	672.7986	704.4023	759.3235	819.9084	909.0397	948.043	980.7748	1038.2176	1067.1817	1087.3697	1190.2261	1233.0062	1236.796	1267.329	1317.8265	1352.1277	1366.227	1446.495	1486.1106	1531.445	1660.6442	1844.0278	2354.3583	3024.0032	3062.0256	3088.7038	3142.3812	3473.8742	3550.9693	3637.1252
NC1(CCNC1=O)C#N	N[C@]1(CCNC1=O)C#N	
InChI=1S/C5H7N3O/c6-3-5(7)1-2-8-4(5)9/h1-2,7H2,(H,8,9)	InChI=1S/C5H7N3O/c6-3-5(7)1-2-8-4(5)9/h1-2,7H2,(H,8,9)/t5-/m1/s1
