19
gdb 116934	7.67198	0.49721	0.49014	1.8387	83.34	-0.2491	0.0284	0.2775	2248.3641	0.157451	-422.953761	-422.94377	-422.942826	-422.991058	33.587	
C	 0.3690421258	 1.4755726048	 0.1539381986	-0.218936
O	 0.3871057154	 0.0673407793	 0.1827562701	-0.227228
C	 0.2541283519	-0.4906735214	-1.1102336567	-0.201519
C	 0.2764991309	-1.9450804466	-1.0362741478	-0.012306
C	 0.291947218	-3.1486062927	-0.9947031242	 0.171976
C	 0.3093128848	-4.5940251556	-0.9559317923	-0.219948
C	-0.7216913284	-5.384085691	-1.8121298336	-0.073461
O	 0.3191036882	-6.1931273986	-2.3892164553	-0.268192
C	 1.3483461941	-5.3625094763	-1.8216175619	-0.073594
H	 1.1963120919	 1.884401857	-0.4482721307	 0.105031
H	-0.5768845009	 1.8656240916	-0.2550282752	 0.105032
H	 0.4776816569	 1.8208762236	 1.1843252575	 0.131834
H	-0.688737948	-0.1556031767	-1.5780954659	 0.114574
H	 1.0693369993	-0.137418495	-1.7665310481	 0.114532
H	 0.3177508618	-4.944201575	 0.0800962064	 0.115871
H	-1.4571355712	-5.9816248029	-1.2631600494	 0.110513
H	-1.2337821036	-4.7683412962	-2.5619191579	 0.107585
H	 1.8411093649	-4.7368321576	-2.5761786563	 0.107728
H	 2.1007000883	-5.9451390404	-1.2796012873	 0.110508
24.9802	61.0267	71.7169	104.0956	124.4712	201.209	233.2779	298.8332	331.9321	468.6955	503.7151	517.3599	664.9823	853.2866	889.8897	925.6383	978.5016	1001.201	1024.7254	1028.0719	1039.9778	1107.3311	1143.2065	1158.0935	1170.1199	1182.6599	1199.6956	1221.4119	1237.0181	1255.565	1303.836	1344.6339	1380.6368	1412.81	1478.4084	1484.8912	1495.3641	1509.9323	1516.4831	1535.8151	2368.935	2941.4402	2957.6393	2968.5148	3011.1532	3015.4286	3025.7613	3060.1436	3073.811	3083.444	3121.3585
COCC#CC1COC1	COCC#CC1COC1	
InChI=1S/C7H10O2/c1-8-4-2-3-7-5-9-6-7/h7H,4-6H2,1H3	InChI=1S/C7H10O2/c1-8-4-2-3-7-5-9-6-7/h7H,4-6H2,1H3
