23
gdb 101443	2.79149	1.01276	0.82896	2.2268	81.7	-0.2411	0.0636	0.3047	1482.1009	0.203913	-425.412694	-425.402173	-425.401229	-425.448748	38.231	
C	-0.1145022571	 1.5687076368	 0.0846956669	-0.384081
C	-0.0567978213	 0.0425688476	-0.0153893833	-0.191212
C	 0.7236493849	-0.4517552902	-1.241005185	 0.120458
O	 2.0655691151	 0.0397876109	-1.2402651676	-0.4341
C	 0.7047114822	-1.9726267116	-1.3541534183	-0.073415
C	-0.6299234912	-2.6517902937	-1.7307803764	-0.090177
O	-0.0562167759	-3.2517892942	-2.9043793553	-0.291645
C	 1.2412034136	-2.6515755497	-2.6488660898	 0.139359
C	 1.7226651333	-1.8067532512	-3.8125672633	-0.395283
H	 0.8931953034	 1.9920025166	 0.0779686378	 0.12867
H	-0.6595575221	 1.9974798678	-0.7633466134	 0.116258
H	-0.6188796341	 1.8874457954	 1.0016251801	 0.110395
H	 0.4131017035	-0.3759643711	 0.8873159039	 0.084598
H	-1.0722535578	-0.3721450137	-0.047781375	 0.102463
H	 0.2764315254	-0.0126068594	-2.1414527832	 0.089325
H	 2.5012326639	-0.306999031	-0.4530131728	 0.276084
H	 1.1561253958	-2.3953430317	-0.4489708311	 0.063376
H	-1.0050982931	-3.4001552038	-1.0217867026	 0.098377
H	-1.4512555613	-1.9653114738	-1.9808368366	 0.09477
H	 1.9815720239	-3.4347594648	-2.4342561133	 0.070824
H	 0.9805298417	-1.0536476557	-4.0918064186	 0.116963
H	 2.6539233541	-1.2956859207	-3.554514921	 0.130286
H	 1.8958844332	-2.4467078688	-4.683419732	 0.117704
47.1464	84.2841	107.248	129.3673	209.5355	219.4926	251.0228	258.3296	313.2365	354.1511	386.9707	414.6707	489.5518	556.6415	758.8284	774.564	837.9162	878.7351	887.1088	927.9427	984.6181	1020.4953	1026.7031	1048.6218	1064.04	1092.7879	1100.6939	1111.6561	1160.6121	1166.6571	1179.0278	1250.2009	1253.2433	1275.9468	1297.9394	1332.2947	1360.9566	1378.8608	1389.1631	1403.0627	1405.5846	1409.4745	1419.9986	1478.9999	1479.8498	1495.3975	1497.1505	1508.7805	1528.6562	2993.9951	2997.8651	3000.2303	3026.8501	3036.4549	3038.6507	3043.7587	3046.3913	3056.0313	3103.5782	3113.0035	3123.2217	3128.767	3790.6551
CCC(O)C1COC1C	CC[C@@H](O)[C@H]1CO[C@H]1C	
InChI=1S/C7H14O2/c1-3-7(8)6-4-9-5(6)2/h5-8H,3-4H2,1-2H3	InChI=1S/C7H14O2/c1-3-7(8)6-4-9-5(6)2/h5-8H,3-4H2,1-2H3/t5-,6-,7+/m0/s1
