16
gdb 19214	2.85448	2.76218	2.28205	1.352	62.73	-0.2427	0.0349	0.2776	710.7354	0.131019	-383.643026	-383.636739	-383.635794	-383.6731	25.185	
C	-0.009116515	 1.5859128589	-0.2394635911	-0.298174
C	 1.511426584	 1.6440911299	 0.203098907	-0.298174
C	 1.4198019951	 0.1308258425	 0.5398827767	 0.320378
C	 0.8521142794	-0.4008600263	 1.8722855193	-0.150496
O	-0.5016587761	-0.4379002514	 1.2927374834	-0.333912
C	 0.0184882785	 0.0591362775	 0.0433470437	 0.320378
C	 0.553224822	-0.9738868035	-0.9701501011	-0.150496
O	 1.9091233346	-0.8359428268	-0.4111679685	-0.333912
H	-0.6890602976	 2.1148987047	 0.4301041677	 0.124167
H	-0.2177708751	 1.885043246	-1.2691228341	 0.11032
H	 2.2066572212	 1.841031884	-0.6144212873	 0.124167
H	 1.7404772709	 2.3134849425	 1.0353617734	 0.11032
H	 1.2026083117	-1.3977898003	 2.1573306061	 0.119365
H	 0.8999828795	 0.2758634113	 2.7331980817	 0.108353
H	 0.1603844558	-1.9878238149	-0.8453547152	 0.119365
H	 0.525657951	-0.6865508141	-2.0275498818	 0.108353
147.8504	288.4655	301.9232	342.5367	368.6184	539.0892	689.6636	709.5948	720.2468	728.5683	857.8691	879.3386	882.3468	904.8393	910.8782	928.3751	961.3157	1020.0763	1131.6782	1135.8403	1166.6249	1183.1815	1196.9949	1231.4375	1240.9988	1258.1965	1261.2242	1271.231	1324.659	1350.133	1458.1541	1470.4274	1497.6122	1502.5547	3027.3112	3028.9963	3069.4513	3073.4	3089.397	3091.0101	3126.1115	3142.4348
C1CC23COC12CO3	C1C[C@@]23CO[C@@]12CO3	
InChI=1S/C6H8O2/c1-2-6-4-7-5(1,6)3-8-6/h1-4H2	InChI=1S/C6H8O2/c1-2-6-4-7-5(1,6)3-8-6/h1-4H2/t5-,6-/m1/s1
