20
gdb 99655	2.29121	1.17793	0.89387	3.3003	80.28	-0.2826	0.0192	0.3018	1376.4365	0.169095	-403.136905	-403.126805	-403.125861	-403.172519	35.876	
C	 0.0443952847	 1.4076439334	 0.0086933795	-0.250863
O	-0.2327107034	 0.0458397963	-0.2678918828	-0.231115
C	 0.6978132371	-0.5701453576	-1.1296113972	-0.033164
C	 2.0374657253	-0.6574271802	-0.4920785145	 0.269804
N	 3.0776932263	-0.7188827755	 0.0077582821	-0.332196
C	 0.1817287545	-1.9491832702	-1.4734059516	-0.00297
C	-0.792471604	-2.1245189199	-2.611845982	-0.312817
C	 0.6031525674	-2.6838495739	-2.7272633066	 0.007682
C	 1.5988077593	-2.1296381168	-3.7251650217	-0.418311
H	 1.0011361687	 1.5313280266	 0.5336435001	 0.134892
H	 0.0674373976	 2.0069474574	-0.9139829463	 0.110158
H	-0.7637494919	 1.7676333255	 0.6479576187	 0.138346
H	 0.8207411989	 0.0298363237	-2.0450523632	 0.104746
H	 0.020745904	-2.5563156024	-0.5883286648	 0.108555
H	-1.6297345331	-2.7983544937	-2.4706172898	 0.120147
H	-1.0271427989	-1.2448530187	-3.2039486999	 0.114568
H	 0.6854696916	-3.7587418646	-2.5902398151	 0.095526
H	 1.4472129286	-1.062542413	-3.9140278886	 0.115663
H	 2.6293691827	-2.2658521633	-3.381120424	 0.13696
H	 1.4965057443	-2.6428458131	-4.6871174522	 0.124387
47.4382	98.3065	115.1297	159.3658	175.7443	206.189	241.7331	276.3776	314.8284	381.8085	436.9377	477.5596	547.887	616.1315	776.1194	845.0394	857.7391	897.6406	946.1237	979.911	1015.606	1049.1239	1071.5028	1108.07	1132.804	1150.787	1174.6087	1183.9607	1198.5445	1223.8154	1252.0962	1296.9934	1353.0131	1394.368	1420.6355	1433.1834	1478.6116	1488.1851	1493.9394	1495.39	1507.058	1509.8623	2350.1897	2982.9799	2989.0783	3036.0023	3049.8454	3097.8559	3104.5331	3129.694	3131.7845	3142.7572	3163.6388	3215.6871
COC(C#N)C1CC1C	CO[C@@H](C#N)[C@H]1C[C@H]1C	
InChI=1S/C7H11NO/c1-5-3-6(5)7(4-8)9-2/h5-7H,3H2,1-2H3	InChI=1S/C7H11NO/c1-5-3-6(5)7(4-8)9-2/h5-7H,3H2,1-2H3/t5-,6+,7+/m1/s1
