20
gdb 6717	6.07435	0.7243	0.67647	2.9733	73.79	-0.2513	-0.0242	0.2272	1663.2954	0.173237	-386.14929	-386.139151	-386.138207	-386.185758	34.532	
C	-0.2636236622	 1.5692555032	 0.2048333138	-0.387297
C	-0.0329118023	 0.082735288	-0.0422633941	 0.156335
C	 0.9445682042	-0.5248252481	 0.968070656	-0.394197
O	-1.3173986027	-0.5348941588	 0.0179660046	-0.256006
C	-1.3904556001	-1.8326299437	-0.523949847	-0.067648
C	-2.8674081907	-2.2278744237	-0.5856325649	-0.276264
C	-3.0548981559	-3.6856449141	-0.9339637229	 0.152984
O	-3.7287031665	-4.0983725499	-1.8419611516	-0.233819
H	 0.6766261281	 2.1233937881	 0.1310587542	 0.113783
H	-0.9673775135	 1.9732098404	-0.5273733655	 0.122415
H	-0.6808958841	 1.7272868533	 1.2044062291	 0.123575
H	 0.3743155643	-0.0541229632	-1.0586890317	 0.066406
H	 0.5509182997	-0.4215119117	 1.9844841279	 0.122804
H	 1.1261786216	-1.5860390788	 0.7751929328	 0.116012
H	 1.9099194921	-0.0115333378	 0.9176238756	 0.11763
H	-0.9471353575	-1.8574650955	-1.5333062548	 0.098874
H	-0.8357567321	-2.5599667789	 0.0913222534	 0.091737
H	-3.2936252037	-2.0643445743	 0.4142161582	 0.131933
H	-3.414593272	-1.6083390301	-1.2995668514	 0.129277
H	-2.5090409366	-4.3913169745	-0.2630997718	 0.071466
44.1303	50.2883	73.6535	131.1929	147.0689	205.1558	247.531	284.8754	311.4566	402.6582	444.6242	503.8375	536.102	785.9682	829.5117	872.1019	926.051	928.5982	945.2208	1011.7864	1093.2193	1118.5545	1142.0913	1154.6696	1170.7578	1200.3072	1229.5197	1275.68	1307.2166	1364.5297	1372.6377	1397.7147	1414.3384	1433.151	1438.092	1466.3846	1480.3594	1485.4484	1495.6507	1509.4634	1529.506	1837.8731	2847.908	2954.3759	2962.3121	2987.7939	3026.5161	3038.1753	3043.7596	3109.3237	3113.1108	3117.6186	3118.2614	3124.2726
CC(C)OCCC=O	CC(C)OCCC=O	
InChI=1S/C6H12O2/c1-6(2)8-5-3-4-7/h4,6H,3,5H2,1-2H3	InChI=1S/C6H12O2/c1-6(2)8-5-3-4-7/h4,6H,3,5H2,1-2H3
