21
gdb 53321	3.01767	1.01405	0.8769	0.0589	91.6	-0.2354	0.0558	0.2913	1433.7302	0.181691	-349.904904	-349.895214	-349.894269	-349.940954	35.34	
C	 0.1949476441	 1.5934500212	-0.2222495559	-0.498173
C	 0.1028378073	 0.143339183	-0.1261051793	 0.056953
C	 0.0195554339	-1.0565927047	-0.0460847896	 0.088073
C	-0.0570032863	-2.5061035615	 0.036902618	-0.174529
C	 0.252309576	-3.2434444489	 1.395413409	-0.256043
C	-1.081482979	-3.9903047642	 1.2761826042	-0.074432
C	-2.2501058149	-3.0426950717	 1.2399600726	 0.011772
C	-2.3981180408	-1.7806581611	 2.0642438651	-0.417637
C	-1.426179148	-3.2203983132	-0.0079465711	-0.084078
H	 0.959954282	 1.9900474284	 0.4548824651	 0.145464
H	 0.4583304709	 1.9107785339	-1.2375718274	 0.145315
H	-0.7555402835	 2.0730467117	 0.0375831826	 0.145472
H	 0.5856934307	-2.937322596	-0.7378902529	 0.101055
H	 1.1263077141	-3.8921237702	 1.3128276999	 0.104498
H	 0.3748933599	-2.6031646641	 2.2727925288	 0.103345
H	-1.2089303815	-5.0463977421	 1.4826574445	 0.081659
H	-3.1871203652	-3.5914059084	 1.1480756729	 0.082981
H	-1.4666097194	-1.2181321381	 2.144429885	 0.132423
H	-3.1403105661	-1.1121248898	 1.6147419712	 0.114958
H	-2.7379618617	-2.0240468938	 3.0775286338	 0.107931
H	-1.8685928626	-3.5869389305	-0.9272672865	 0.082991
17.7619	77.2835	97.9436	174.962	207.2826	241.1365	292.982	316.1916	393.9297	454.0082	496.4555	566.1753	694.4639	719.0878	768.6674	791.2678	881.0932	924.3422	964.6347	980.0759	999.926	1013.8269	1051.366	1053.7896	1056.6295	1069.4952	1073.415	1132.56	1150.133	1198.105	1216.3335	1221.6192	1260.2104	1294.3387	1341.7982	1349.7469	1414.5784	1418.457	1447.4891	1478.8038	1479.3834	1485.9735	1498.0875	1506.2487	2361.6847	3023.1181	3031.7633	3041.0204	3063.3997	3082.4986	3082.6602	3087.1389	3107.9118	3116.5205	3136.9128	3166.6505	3179.9773
CC#CC1CC2C(C)C12	CC#C[C@H]1C[C@H]2[C@@H](C)[C@@H]12	
InChI=1S/C9H12/c1-3-4-7-5-8-6(2)9(7)8/h6-9H,5H2,1-2H3	InChI=1S/C9H12/c1-3-4-7-5-8-6(2)9(7)8/h6-9H,5H2,1-2H3/t6-,7+,8+,9+/m1/s1
