19
gdb 104139	3.57443	1.069	1.02996	4.5669	71.37	-0.2652	0.0128	0.2781	1236.1771	0.157929	-460.201603	-460.192495	-460.191551	-460.235572	33.558	
C	-0.1547647823	 1.4530259599	 0.0044951084	-0.257294
O	-0.1047353658	 0.0410067978	-0.0457999233	-0.287815
C	 0.644873296	-0.5333913246	-1.1049992727	 0.371997
C	 0.1138061195	-0.1416520107	-2.488539368	-0.447289
C	 2.1672322075	-0.2432176714	-0.9765409832	-0.125723
O	 2.84081552	-1.4306813531	-1.4132726152	-0.218171
C	 2.0083772531	-2.5116586297	-1.3620994031	 0.429452
O	 2.3784545874	-3.6125242649	-1.642615641	-0.33302
C	 0.6303585374	-2.0533873334	-0.9106243784	-0.412548
H	 0.8457570357	 1.9081590979	 0.0405315433	 0.110448
H	-0.7044706817	 1.8865392451	-0.8413543013	 0.116173
H	-0.6816862449	 1.7097313046	 0.926258863	 0.136781
H	 0.2340526272	 0.9274443208	-2.6843771082	 0.121981
H	 0.6593413431	-0.6808575715	-3.26936996	 0.137103
H	-0.9470491473	-0.3950304255	-2.5714508765	 0.131329
H	 2.5184078773	 0.5822560823	-1.5997233337	 0.119526
H	 2.4229631837	-0.0434698271	 0.0705936462	 0.119851
H	 0.5129913935	-2.2819262415	 0.1538644892	 0.149537
H	-0.1511702194	-2.5789823652	-1.4604840753	 0.13768
77.0962	96.9578	158.9106	179.0637	227.3277	288.3165	341.6939	348.3582	386.7984	429.2154	538.8934	552.1015	612.3216	683.0205	792.538	850.2864	910.3168	922.0279	950.3092	988.2547	1072.7411	1094.0895	1100.8932	1157.7207	1178.4261	1192.6694	1206.5945	1227.5784	1254.4428	1288.1943	1298.6811	1390.4897	1408.4138	1457.7569	1476.8452	1486.5377	1491.1051	1505.8142	1510.4666	1518.9884	1890.6317	2991.7775	3036.9847	3041.829	3049.0849	3067.0568	3106.3703	3113.1424	3118.9518	3121.5846	3133.149
COC1(C)COC(=O)C1	CO[C@@]1(C)COC(=O)C1	
InChI=1S/C6H10O3/c1-6(8-2)3-5(7)9-4-6/h3-4H2,1-2H3	InChI=1S/C6H10O3/c1-6(8-2)3-5(7)9-4-6/h3-4H2,1-2H3/t6-/m1/s1
