15
gdb 28620	5.23906	1.03872	0.87151	3.4167	78.98	-0.2511	-0.0823	0.1688	1267.7269	0.113074	-416.874385	-416.86646	-416.865516	-416.907596	28.189	
C	-0.0876024921	 1.4967015871	-0.1292532061	-0.472906
C	-0.0177438195	 0.004451273	 0.0192092087	 0.325651
N	-0.637324499	-0.7393347949	-0.9093885893	-0.297232
C	-0.5683564348	-2.0597531971	-0.7670741818	-0.039724
C	 0.1148511381	-2.657356693	 0.2962432792	 0.196197
C	 0.1874326837	-4.1344135162	 0.4484484663	 0.10216
O	-0.3248453753	-4.9179955116	-0.3146599139	-0.254148
N	 0.7358020706	-1.923379581	 1.2272142352	-0.28803
C	 0.6653761077	-0.6046203493	 1.0827070729	-0.065208
H	 0.4461518388	 2.0086132382	 0.6745735926	 0.129627
H	 0.3420603091	 1.8018393157	-1.0886540994	 0.152595
H	-1.1307119524	 1.8284931462	-0.1277010823	 0.152596
H	-1.0638730829	-2.6786378282	-1.5090655871	 0.145568
H	 0.7641729659	-4.4548108628	 1.3409664948	 0.093921
H	 1.1663683521	 0.001678614	 1.8334354902	 0.118932
61.1613	91.7889	170.4171	190.4636	324.4656	345.485	426.4474	448.5487	503.1577	610.6839	665.1546	773.93	786.0816	883.1924	924.192	992.1388	1009.418	1047.0773	1049.445	1061.5067	1238.5274	1260.1741	1269.7992	1317.7003	1360.7339	1404.0407	1410.3968	1473.2078	1484.9059	1510.3692	1573.4297	1608.6205	1806.3619	2926.284	3044.0623	3105.2222	3131.6199	3158.9776	3184.3423
CC1=NC=C(C=O)N=C1	Cc1ncc(C=O)nc1	
InChI=1S/C6H6N2O/c1-5-2-8-6(4-9)3-7-5/h2-4H,1H3	InChI=1S/C6H6N2O/c1-5-2-8-6(4-9)3-7-5/h2-4H,1H3
