18
gdb 72951	2.60499	1.52254	1.21611	3.5409	76.97	-0.2479	0.0232	0.2711	1074.374	0.146724	-401.935116	-401.926374	-401.92543	-401.967972	33.4	
C	-0.012189891	 1.5499710131	-0.0210325081	-0.475954
C	 0.0826593806	 0.033325442	 0.0587121178	 0.070267
C	-1.0990688752	-0.6474345597	-0.4132853094	 0.227691
N	-2.0544437638	-1.219427668	-0.7329591741	-0.352714
C	 1.3578445654	-0.7932427875	-0.2160830217	-0.167021
C	 2.5856525435	-0.0530258846	 0.3215884392	-0.250397
C	 1.9491218482	-0.0543459673	 1.751366921	-0.300847
C	 0.7337449863	-0.775807059	 1.181805239	 0.414468
O	 0.0811657162	-1.7103896317	 1.9439652737	-0.456059
H	 0.8798013466	 2.0254140831	 0.3900107515	 0.133111
H	-0.1217990126	 1.8779341532	-1.0592510594	 0.138206
H	-0.8767224712	 1.9132867671	 0.5422955173	 0.140382
H	 1.3537100477	-1.5489902851	-0.9921910771	 0.111561
H	 3.4864639412	-0.6670113923	 0.2709935268	 0.119382
H	 2.8055490659	 0.9221904526	-0.1214271229	 0.108095
H	 2.4923340898	-0.7038701473	 2.440090443	 0.128205
H	 1.7719359314	 0.9078435362	 2.2397398195	 0.107728
H	-0.7337667389	-1.9818316249	 1.5010823837	 0.303895
127.0016	148.3486	163.8061	239.4909	256.461	277.3326	322.1598	382.1826	430.3919	454.2428	545.0676	579.6336	643.0151	692.9793	710.2067	801.2213	879.8078	931.457	950.9148	969.5179	995.3445	1051.248	1075.4388	1105.485	1115.7684	1192.192	1204.3158	1219.7874	1241.4597	1273.1738	1275.1218	1396.1765	1407.2428	1421.3034	1472.1819	1495.0827	1496.3772	1509.9177	2333.6282	3047.2979	3060.9655	3066.8403	3110.8228	3112.2775	3129.1139	3137.311	3189.712	3763.4206
CC1(C#N)C2CCC12O	C[C@@]1(C#N)[C@H]2CC[C@@]12O	
InChI=1S/C7H9NO/c1-6(4-8)5-2-3-7(5,6)9/h5,9H,2-3H2,1H3	InChI=1S/C7H9NO/c1-6(4-8)5-2-3-7(5,6)9/h5,9H,2-3H2,1H3/t5-,6-,7+/m1/s1
