17
gdb 19593	4.16663	1.99465	1.85893	1.7371	66.72	-0.2221	0.0779	0.2999	774.3517	0.145017	-363.796139	-363.790001	-363.789057	-363.825889	25.961	
O	-0.0474798824	 1.4281756364	-0.0443397995	-0.457268
C	 0.0488428554	 0.0170041447	-0.0364056491	 0.152551
C	 0.1440784244	-0.6246449969	 1.3884496049	-0.094017
C	-1.3792158936	-0.260037665	 1.5171776576	-0.222666
C	-1.3646531638	-0.620284648	-0.0137920737	-0.05774
C	-1.0559935791	-2.1267182656	 0.0772441683	-0.040329
N	 0.3203941841	-2.5267191808	-0.3157841044	-0.343119
C	 0.0285216739	-2.1298647112	 1.0871374657	-0.038482
H	 0.8415076741	 1.7787437343	 0.066737828	 0.281469
H	 0.7493193591	-0.3391049388	-0.7917849639	 0.093521
H	 0.8900701912	-0.2966808524	 2.1137208524	 0.054521
H	-1.9905431947	-0.8844273327	 2.1748325198	 0.081719
H	-1.5526061528	 0.7984411921	 1.7038586614	 0.116514
H	-2.1391445988	-0.285999832	-0.7034409789	 0.066658
H	-1.8562402036	-2.8572663546	 0.0507352164	 0.090194
H	 0.3544238583	-3.5436912359	-0.3557782971	 0.226906
H	 0.1098165184	-2.8641299136	 1.880683042	 0.089568
260.0677	297.9089	325.516	372.1684	404.5303	526.0975	593.1632	660.3228	785.0125	807.9316	841.7537	864.4925	879.286	907.0127	911.2812	938.6204	953.3225	1001.8294	1061.3998	1069.4525	1074.9563	1095.8138	1109.6212	1119.8544	1155.286	1195.898	1216.9296	1230.9656	1252.3175	1258.8013	1302.167	1308.3392	1347.6754	1393.8574	1427.0828	1492.5026	3063.6391	3102.1362	3108.8551	3122.1822	3156.7687	3169.2871	3180.8263	3486.4364	3821.6048
OC1C2CC1C1NC21	O[C@H]1[C@H]2C[C@@H]1[C@H]1N[C@@H]21	
InChI=1S/C6H9NO/c8-6-2-1-3(6)5-4(2)7-5/h2-8H,1H2	InChI=1S/C6H9NO/c8-6-2-1-3(6)5-4(2)7-5/h2-8H,1H2/t2-,3+,4-,5+,6-
