17
gdb 82682	2.89133	1.63109	1.26772	4.5602	77.7	-0.2315	0.0083	0.2399	1010.8221	0.136725	-380.812246	-380.804712	-380.803768	-380.844094	29.374	
C	-0.0573251778	 1.5397454284	-0.0152518993	-0.347213
N	 0.0873331413	 0.0895036436	 0.0196876262	-0.128912
C	 1.1136844593	-0.5823204375	-0.82662215	-0.037242
C	 2.5042880225	 0.0251739011	-0.452203824	-0.253984
C	 2.287737412	-0.616682969	 0.9139144373	-0.126805
C	 1.3350859732	-1.6314361316	 0.3317090803	-0.152338
C	 0.7380704364	-0.5337003854	 1.1661983799	 0.279611
C	 0.1790187417	-0.5786863335	 2.4774101512	 0.191345
N	-0.2681729957	-0.600769565	 3.5446500373	-0.351858
H	 0.8629688423	 2.1016627242	 0.2021386007	 0.109352
H	-0.4205213257	 1.8321536219	-1.0053536638	 0.127034
H	-0.8134530399	 1.830784791	 0.7201288003	 0.142339
H	 0.8351951581	-0.7828694568	-1.859027844	 0.091636
H	 3.2991599592	-0.4935893005	-0.9936993966	 0.117401
H	 2.6464227593	 1.106215187	-0.5342715998	 0.105973
H	 2.9790017053	-0.740722338	 1.7369984066	 0.111877
H	 1.2381727384	-2.70381765	 0.4084566079	 0.121785
130.9214	154.6184	178.8678	246.0774	314.2208	450.2313	506.4316	522.931	563.9924	620.5548	666.716	764.3054	805.2184	842.1042	855.1157	896.7716	947.5168	954.4894	981.6202	1013.2448	1063.1957	1091.235	1133.6624	1140.1946	1148.1188	1170.8047	1194.1402	1223.0291	1254.6065	1264.1322	1303.6225	1378.7601	1443.3495	1481.393	1495.4017	1515.4823	2348.5451	2993.2058	3060.1345	3077.4247	3112.5946	3115.2912	3141.7925	3210.7362	3238.7016
CN1C2CC3C2C13C#N	CN1[C@H]2C[C@@H]3[C@H]2[C@]13C#N	
InChI=1S/C7H8N2/c1-9-5-2-4-6(5)7(4,9)3-8/h4-6H,2H2,1H3	InChI=1S/C7H8N2/c1-9-5-2-4-6(5)7(4,9)3-8/h4-6H,2H2,1H3/t4-,5+,6-,7-/m1/s1
