17
gdb 62273	3.26854	1.55744	1.32736	1.3364	76.78	-0.232	0.0486	0.2806	989.026	0.134298	-384.584366	-384.576615	-384.575671	-384.616165	30.989	
C	 0.0246979291	 1.5353766973	 0.0310493075	-0.47227
C	 0.036991781	 0.007395511	-0.0174406687	 0.121754
C	-1.2895032665	-0.5609089143	 0.1763453131	 0.290333
C	-2.38958502	-1.0117837067	 0.3589996336	-0.454932
C	 0.789592253	-0.6930856587	-1.168088016	-0.141784
C	 2.2553996654	-0.7540924064	-0.7008354824	 0.050364
O	 2.347782911	-0.0953073991	 0.5643880355	-0.283758
C	 1.0921164638	-0.7396953518	 0.8919487292	 0.033124
C	 1.2962124741	-1.7983134718	-0.251077965	-0.130073
H	 1.0472979201	 1.9142211511	-0.0139093246	 0.136506
H	-0.5443783908	 1.9391712798	-0.8119273298	 0.121696
H	-0.4453709457	 1.891229629	 0.9530784257	 0.122539
H	-3.3615497205	-1.4104012607	 0.5134873772	 0.190917
H	 0.4912877787	-0.7628195679	-2.2062705876	 0.097864
H	 3.1174649292	-0.7694750039	-1.3539319104	 0.115354
H	 0.9289869488	-0.8899298858	 1.9564559095	 0.095578
H	 1.2661781593	-2.876430581	-0.3041683569	 0.106789
140.9092	146.3431	206.1636	249.8598	283.6333	474.6716	487.415	513.4907	587.4785	611.5521	634.7801	642.9761	776.0025	784.1995	803.3285	818.4766	861.3378	890.3967	936.3631	941.1609	981.9597	1025.7643	1034.2602	1055.8719	1073.0847	1137.2326	1152.9964	1175.7177	1188.3866	1222.2986	1229.2342	1311.113	1366.4489	1398.2525	1487.543	1496.2406	2230.5324	3043.5303	3109.327	3140.6457	3154.8849	3200.8457	3211.6054	3230.0325	3501.7617
CC1(C#C)C2C3OC1C23	C[C@@]1(C#C)[C@H]2[C@H]3O[C@@H]1[C@@H]23	
InChI=1S/C8H8O/c1-3-8(2)5-4-6(5)9-7(4)8/h1,4-7H,2H3	InChI=1S/C8H8O/c1-3-8(2)5-4-6(5)9-7(4)8/h1,4-7H,2H3/t4-,5+,6-,7+,8+/m0/s1
