19
gdb 75173	3.20321	1.01328	0.94557	3.2947	81.99	-0.2226	0.0172	0.2398	1330.5269	0.159375	-382.086899	-382.077861	-382.076917	-382.121158	32.851	
C	-0.001849241	 1.5248857881	 0.0282104083	-0.494249
C	 0.001913159	 0.0322198061	-0.0261002592	 0.333573
C	-0.1078606608	-0.7609431623	-1.0908923786	-0.174978
C	-0.0982950503	-2.2121340686	-0.7015977957	-0.211432
N	 0.3225342334	-2.1617138061	 0.7071027298	-0.063322
C	-0.093705266	-3.2552051489	 1.5471838692	-0.294318
C	-1.5611701151	-3.3361225475	 1.7712789389	 0.248999
N	-2.7085615402	-3.3493897576	 1.9132587449	-0.313479
C	 0.1001707793	-0.8068398723	 1.2257846904	-0.256738
H	 0.9229915497	 1.9088480627	 0.4767803637	 0.129149
H	-0.1038245531	 1.9610160409	-0.968696048	 0.128632
H	-0.8274836979	 1.896472539	 0.6483043914	 0.132782
H	-0.221315979	-0.4330751368	-2.1170562454	 0.097021
H	-1.1010957768	-2.6608306255	-0.8313841019	 0.111369
H	 0.6019515501	-2.8194984138	-1.2928949033	 0.108267
H	 0.233765524	-4.2042844649	 1.1080008944	 0.152105
H	 0.3923827885	-3.1768288287	 2.5263078386	 0.151488
H	 0.926290411	-0.5003874966	 1.8845121722	 0.105316
H	-0.8302976948	-0.7192022572	 1.8188800304	 0.109813
59.9835	84.6935	156.9335	181.392	244.8683	256.9925	320.3266	366.0346	385.1657	453.001	504.9276	612.5756	708.4163	806.6741	866.2901	872.9839	900.5769	936.8055	987.1026	1006.0692	1038.0898	1049.6644	1091.3911	1144.4355	1194.0009	1207.9879	1212.6627	1216.7004	1296.5863	1322.2249	1359.7536	1387.0666	1396.9152	1416.8443	1456.0622	1478.9282	1489.288	1510.4205	1522.3031	1733.8948	2343.5072	2919.6869	2926.3821	2996.4403	3003.7439	3020.0996	3039.9607	3066.3	3079.534	3116.2995	3208.3327
CC1=CCN(CC#N)C1	CC1=CCN(CC#N)C1	
InChI=1S/C7H10N2/c1-7-2-4-9(6-7)5-3-8/h2H,4-6H2,1H3	InChI=1S/C7H10N2/c1-7-2-4-9(6-7)5-3-8/h2H,4-6H2,1H3
