17
gdb 81152	2.66428	1.51171	1.30179	4.2447	72.77	-0.2537	0.0003	0.2539	1025.9406	0.137921	-417.994153	-417.986459	-417.985515	-418.026074	30.265	
N	 0.2666426267	 1.5134585084	-0.0445750927	-0.528838
C	 0.0375374922	 0.1062336405	 0.0175429803	-0.00412
C	 0.0350705843	-0.6422114375	 1.3707055343	 0.060463
C	-1.0372707667	 0.0772790106	 2.211443247	-0.237739
C	-2.1617414863	 0.1222542147	 1.1283906083	-0.275983
C	-1.3804082725	-0.6075534462	 0.0093529205	 0.293479
O	-0.7463447791	-1.7011397218	 0.7268762196	-0.313518
C	-2.0689170571	-0.9663011647	-1.2095267664	 0.168921
N	-2.6070059543	-1.1965867485	-2.2066649904	-0.336324
H	 0.2841200031	 1.8524863796	-0.9990525465	 0.247807
H	-0.415325505	 2.0553844449	 0.4723902054	 0.23883
H	 0.6837094932	-0.4148391206	-0.6895683817	 0.116737
H	 0.9450677821	-0.9933865729	 1.8535719901	 0.095379
H	-1.3212003137	-0.5178917266	 3.0804681885	 0.123234
H	-0.7162274867	 1.0639589735	 2.5564851804	 0.110738
H	-3.0532461475	-0.4383197387	 1.4110580786	 0.132012
H	-2.4640049826	 1.1316410151	 0.836315665	 0.108924
130.647	160.3428	249.3703	259.8951	273.0027	364.9914	496.226	521.7887	526.8237	560.8742	619.6178	734.1372	778.5983	792.5257	837.1183	845.1629	880.3399	928.8015	946.7268	981.9737	1029.0357	1054.9522	1115.5947	1146.0481	1180.8552	1228.8398	1230.7383	1235.9585	1275.1549	1280.3599	1308.5322	1324.553	1432.9834	1482.1357	1501.0054	1661.3003	2353.6379	3067.0209	3075.6005	3120.6604	3121.2963	3137.3277	3147.4219	3528.505	3611.735
NC1C2CCC1(O2)C#N	N[C@H]1[C@H]2CC[C@@]1(O2)C#N	
InChI=1S/C6H8N2O/c7-3-6-2-1-4(9-6)5(6)8/h4-5H,1-2,8H2	InChI=1S/C6H8N2O/c7-3-6-2-1-4(9-6)5(6)8/h4-5H,1-2,8H2/t4-,5+,6-/m1/s1
