22
gdb 5856	2.81331	1.48725	1.27589	1.4421	74.52	-0.2482	0.0703	0.3185	1105.794	0.196123	-387.340088	-387.32946	-387.328516	-387.375026	38.815	
C	 0.0471292072	 1.3745752396	-0.1015680052	-0.233954
O	 0.0035309312	-0.0256302787	 0.0406039678	-0.250402
C	-1.3010143223	-0.5948480286	 0.0243417378	 0.141039
C	-1.8782748033	-0.6478706958	-1.3932407191	-0.435595
C	-1.1951042676	-1.9813902526	 0.7212344595	 0.335992
C	-0.1705204602	-2.8901148383	 0.0334771636	-0.432216
C	-0.8404656709	-1.7814066102	 2.1960380235	-0.400859
O	-2.4913045936	-2.5916869271	 0.721130503	-0.470199
H	 1.0878503851	 1.679738633	 0.0355318974	 0.125752
H	-0.283496637	 1.711269193	-1.0949385414	 0.106599
H	-0.5725535689	 1.8789896732	 0.6562138728	 0.104911
H	-1.9729978564	 0.01775303	 0.6477458061	 0.065143
H	-2.870595914	-1.1067204262	-1.3835551073	 0.117478
H	-1.9940302247	 0.3587564692	-1.8044522843	 0.1184
H	-1.2270808796	-1.2104547911	-2.0688794533	 0.122227
H	 0.8130349029	-2.4161001904	 0.011984614	 0.138209
H	-0.0984874688	-3.840397223	 0.5702152477	 0.116511
H	-0.4580823618	-3.1066896167	-1.0019842768	 0.100891
H	-1.6410637836	-1.2319334223	 2.7007622684	 0.114782
H	-0.7275745983	-2.7485150015	 2.6935182743	 0.111703
H	 0.0886338475	-1.21642506	 2.2909499225	 0.126636
H	-2.6309954829	-2.9937912256	-0.141762421	 0.276949
66.6675	74.6783	191.0512	196.5339	204.3429	225.237	259.931	275.1996	303.9232	346.0003	347.8176	358.3024	423.6177	468.8187	493.3099	558.2599	741.6617	855.6221	894.8963	930.9723	971.8086	999.3292	1043.1653	1059.3076	1107.2852	1143.6342	1155.7047	1183.4316	1203.8261	1230.0044	1265.0221	1335.0408	1367.7957	1376.1997	1393.8668	1409.2525	1412.0917	1477.0698	1481.3237	1485.5232	1488.8125	1491.8094	1500.7838	1509.0857	1511.2409	1512.418	2967.3098	2979.0415	3026.7512	3032.8382	3045.712	3047.2944	3099.2909	3107.9036	3113.3155	3114.5233	3121.99	3135.1617	3142.9323	3822.4757
COC(C)C(C)(C)O	CO[C@@H](C)C(C)(C)O	
InChI=1S/C6H14O2/c1-5(8-4)6(2,3)7/h5,7H,1-4H3	InChI=1S/C6H14O2/c1-5(8-4)6(2,3)7/h5,7H,1-4H3/t5-/m0/s1
