18
gdb 51585	5.59317	0.62401	0.59727	1.4248	78.11	-0.259	-0.0327	0.2263	1781.6688	0.146082	-401.957656	-401.948167	-401.947223	-401.993692	32.97	
O	-0.6168158469	 0.2973801709	 0.1169578427	-0.232368
C	-0.0830411487	 1.3750758527	 0.1339449203	 0.164457
C	 1.3452619036	 1.6376586931	-0.308761006	-0.305047
C	 1.4054165053	 2.7631088334	-1.3263250122	-0.034741
C	 1.4421622973	 4.2134245606	-0.895610107	-0.285143
C	 2.6406905488	 3.6017017805	-1.5724839717	-0.010088
C	 3.9410173303	 3.3755647806	-0.8150618677	-0.367228
C	 4.7735079253	 4.5801627086	-0.7868793854	 0.266074
N	 5.4224403983	 5.5359572319	-0.7749041236	-0.301097
H	-0.6256990779	 2.2830172602	 0.4840111647	 0.081111
H	 1.9115619754	 1.9061525407	 0.5934699046	 0.116817
H	 1.7584697696	 0.7031811771	-0.7011287572	 0.127106
H	 0.8276915467	 2.5561263948	-2.2234986261	 0.107926
H	 0.8517889111	 4.9421661098	-1.4384659055	 0.129611
H	 1.5232271302	 4.4156318999	 0.1683854537	 0.121835
H	 2.8008387999	 3.8899691554	-2.6067841568	 0.11368
H	 3.7516932753	 3.072485343	 0.2197284184	 0.149437
H	 4.5207163765	 2.5670963669	-1.2767039653	 0.157659
43.5284	54.5416	81.7949	113.68	175.4355	231.5587	321.0649	387.556	398.1793	474.5281	507.3454	559.9973	778.9562	795.6238	840.1211	874.7848	907.9413	927.9602	956.4987	1012.6875	1046.9182	1076.111	1086.4956	1134.6468	1151.2623	1173.5187	1242.6419	1252.4401	1259.2378	1294.9416	1324.7325	1395.8581	1424.2235	1430.5115	1457.8919	1465.8276	1496.8994	1838.2004	2363.885	2872.2617	3022.7787	3042.491	3084.4405	3091.1209	3131.3772	3139.8395	3159.1634	3219.1792
O=CCC1CC1CC#N	O=CC[C@H]1C[C@H]1CC#N	
InChI=1S/C7H9NO/c8-3-1-6-5-7(6)2-4-9/h4,6-7H,1-2,5H2	InChI=1S/C7H9NO/c8-3-1-6-5-7(6)2-4-9/h4,6-7H,1-2,5H2/t6-,7+/m1/s1
