18
gdb 103002	2.10609	1.40261	1.13313	3.8232	74.29	-0.2406	0.0148	0.2554	1165.1158	0.147265	-435.238098	-435.22841	-435.227465	-435.272449	35.461	
C	-0.2572448576	 1.3596320973	-0.0184269092	-0.343342
N	 0.0503264545	-0.0761110847	-0.0486950387	-0.360068
C	 0.737287845	-0.5295418718	-1.2276623358	 0.065861
C	 1.8398239576	 0.2499817759	-1.7230725124	 0.254039
N	 2.7336525867	 0.8795744702	-2.1073217004	-0.357218
C	 0.8052461685	-2.0814360252	-1.4658389604	-0.076008
N	 0.3370480824	-3.0406365781	-0.5302627472	-0.512779
C	-0.1872280089	-1.2568710655	-2.2245321849	 0.090303
O	-1.5213598406	-1.3220347599	-1.8552539856	-0.430163
H	 0.6328095992	 1.9992385442	-0.0905081506	 0.141296
H	-0.9196030648	 1.6021394322	-0.854544418	 0.143812
H	-0.7830222736	 1.5869274181	 0.9124110606	 0.129114
H	 0.5520255137	-0.3506780961	 0.7892425434	 0.233224
H	 1.7007446424	-2.3708194983	-2.0093908611	 0.121917
H	 0.8374582207	-3.0349146633	 0.3499812448	 0.236644
H	-0.6562549558	-2.933139238	-0.362476468	 0.241686
H	-0.0462503331	-1.0910691949	-3.286986455	 0.128764
H	-1.5570631464	-0.915384502	-0.9698980115	 0.292916
84.9857	130.8099	142.4062	161.7521	199.4134	222.0189	280.964	290.8197	338.1863	463.8339	469.2906	573.4678	591.0873	607.1229	667.8979	701.9502	752.6242	774.984	855.4331	880.2701	984.3992	1078.982	1085.6924	1110.4197	1154.4489	1171.9438	1177.9605	1220.6167	1271.3961	1300.8556	1335.53	1397.3416	1449.7231	1460.4879	1467.8828	1494.7659	1519.286	1642.0255	2325.6981	3013.0454	3088.7704	3123.5523	3144.6354	3177.9662	3518.5549	3521.9726	3603.215	3611.3153
CNC1(C#N)C(N)C1O	CN[C@@]1(C#N)[C@@H](N)[C@H]1O	
InChI=1S/C5H9N3O/c1-8-5(2-6)3(7)4(5)9/h3-4,8-9H,7H2,1H3	InChI=1S/C5H9N3O/c1-8-5(2-6)3(7)4(5)9/h3-4,8-9H,7H2,1H3/t3-,4+,5-/m0/s1
