16
gdb 6063	5.04672	1.03159	0.86594	7.5854	64.74	-0.2455	0.0078	0.2533	1267.4784	0.129228	-417.111817	-417.102873	-417.101929	-417.146017	31.4	
C	-0.0504204757	 1.4766883794	 0.0394286524	-0.46608
C	-0.0140237215	-0.0283921368	-0.0120773201	 0.387189
N	 1.2391221188	-0.5782898112	-0.0897818521	-0.536982
H	 1.3440918923	-1.5540988568	-0.3111622039	 0.267915
H	 2.0195063223	 0.011525022	-0.3230360343	 0.262765
N	-1.1060437342	-0.6944375505	 0.0520886661	-0.300976
C	-1.0745201075	-2.1424881372	 0.0117639573	-0.324643
C	-2.503557135	-2.7010145356	 0.1103397355	 0.415767
O	-3.4358571988	-1.7503329862	 0.2216362681	-0.360688
O	-2.746817761	-3.8776747006	 0.0890648314	-0.344762
H	 0.5503625534	 1.850269126	 0.875478022	 0.142459
H	 0.3586788668	 1.9071343108	-0.8816387408	 0.136801
H	-1.0797111086	 1.8106079025	 0.1601596309	 0.15311
H	-2.9313253764	-0.9044177642	 0.2070915982	 0.304584
H	-0.6410037765	-2.5395027951	-0.9195845152	 0.127953
H	-0.4977948285	-2.5805849765	 0.8401175843	 0.135587
61.1374	77.4894	130.3009	142.7479	246.8498	294.1033	303.9652	370.1348	460.4318	494.1862	571.1977	603.3786	637.3562	641.5993	831.3238	873.8375	914.142	997.2401	999.131	1045.3427	1062.5334	1176.2026	1222.5179	1232.9601	1337.9934	1364.7315	1415.3732	1451.2236	1456.3333	1478.8265	1483.1701	1649.5258	1743.4307	1875.7663	2980.6935	3018.1762	3040.0983	3097.0313	3167.674	3437.316	3611.1363	3725.7143
CC(=[NH2+])NCC([O-])=O	CC(=NCC(=O)O)N	
InChI=1S/C4H8N2O2/c1-3(5)6-2-4(7)8/h2H2,1H3,(H2,5,6)(H,7,8)	InChI=1S/C4H8N2O2/c1-3(5)6-2-4(7)8/h2H2,1H3,(H2,5,6)(H,7,8)
