23
gdb 122022	2.82735	0.67511	0.56633	1.7284	80.7	-0.2529	0.0778	0.3306	2023.1249	0.202583	-462.542794	-462.531284	-462.530339	-462.580851	39.641	
C	-0.2670100255	 0.8367637704	 1.353476557	-0.385838
C	-0.2105251802	-0.0787359268	 0.1425183328	-0.022912
O	-1.4201647254	-0.8057241521	 0.0689246463	-0.250669
C	-1.4771348203	-1.6883479299	-1.0288296697	-0.066657
C	-2.827578315	-2.3926674928	-1.0112841347	 0.088189
O	-2.8822965902	-3.2051556767	-2.1705231522	-0.449559
C	-3.0205561128	-3.2413029934	 0.2408041052	-0.07362
O	-4.2510501797	-3.9251133052	 0.078387246	-0.250651
C	-4.5240974416	-4.8386703934	 1.1147961389	-0.227987
H	 0.6579776245	 1.41488512	 1.4379342412	 0.115315
H	-1.1059353148	 1.5333484107	 1.2690360449	 0.127369
H	-0.3970000183	 0.2537669231	 2.2698030029	 0.124584
H	-0.0656095932	 0.5074409675	-0.7806353367	 0.087902
H	 0.6447886125	-0.7714286825	 0.2193983145	 0.086039
H	-1.3683721036	-1.1484425192	-1.9827450895	 0.099093
H	-0.6681570369	-2.4366591537	-0.9814257807	 0.090419
H	-3.6211480841	-1.6284095493	-1.0310381165	 0.079004
H	-3.6187182793	-3.8116086117	-2.0255234346	 0.291435
H	-2.1926416647	-3.964702228	 0.3324673739	 0.085619
H	-3.0308598843	-2.6092664957	 1.1396009623	 0.107602
H	-5.4854239496	-5.3088694293	 0.8936428451	 0.128282
H	-3.7511196855	-5.6199668722	 1.1831342226	 0.107661
H	-4.5906113419	-4.3349843299	 2.0911756412	 0.109381
49.8828	68.3449	79.401	102.9709	124.7216	161.6253	193.6701	237.6424	247.688	286.2874	334.9627	380.5946	431.4269	479.0116	525.9865	557.7553	820.5577	879.8493	904.1321	939.7569	996.129	1042.4095	1079.8257	1125.939	1138.2807	1152.6098	1165.619	1174.5694	1185.5868	1193.0394	1224.302	1239.1677	1265.8405	1287.8039	1296.3975	1362.7011	1369.6041	1398.6006	1412.0692	1444.8425	1466.8868	1479.1841	1483.734	1486.1841	1499.5514	1500.652	1516.4448	1522.1198	1537.2969	2953.0644	2961.5634	2966.4583	2976.3712	2979.963	2981.0219	3005.471	3023.3479	3035.2721	3044.7476	3114.2135	3119.26	3121.0435	3788.1873
CCOCC(O)COC	CCOC[C@@H](O)COC	
InChI=1S/C6H14O3/c1-3-9-5-6(7)4-8-2/h6-7H,3-5H2,1-2H3	InChI=1S/C6H14O3/c1-3-9-5-6(7)4-8-2/h6-7H,3-5H2,1-2H3/t6-/m0/s1
