21
gdb 39430	2.36173	1.89639	1.29614	1.7841	81.25	-0.2182	0.0757	0.2939	1047.6879	0.185318	-387.072346	-387.064893	-387.063949	-387.103917	30.762	
C	-0.0595362234	 1.4757824623	-0.0720303556	-0.390734
C	 1.2827862429	 0.7474113288	 0.0232033218	-0.096285
C	 2.0947353483	 0.6784158016	 1.3117154856	-0.220389
C	 2.0638738515	-0.750422388	 1.887043685	-0.19637
C	 0.6323245384	-1.1600762438	 2.2760533465	-0.224119
C	-0.3853361698	-0.9740542852	 1.1411438455	-0.116222
C	-0.4646797916	-1.9821153618	-0.032164116	-0.100203
O	-0.3867646278	-0.9132716038	-1.0078450733	-0.31633
C	-0.012200791	-0.0039539688	 0.0258017147	 0.475486
H	-0.4147652401	 2.0452597441	 0.7830883051	 0.108092
H	-0.3155525815	 1.9020783821	-1.0364657313	 0.12196
H	 1.8468452747	 0.7073966995	-0.9041235853	 0.093608
H	 3.1268187488	 0.9925138309	 1.1262317841	 0.099165
H	 1.6920982325	 1.3754026766	 2.058720899	 0.094485
H	 2.4699293484	-1.4453473794	 1.1402513098	 0.099189
H	 2.7121012082	-0.8238755006	 2.7674491888	 0.091829
H	 0.6093033129	-2.1989089206	 2.6270755314	 0.096721
H	 0.3214198964	-0.5456292929	 3.1311163416	 0.097718
H	-1.3837132847	-0.7808199405	 1.5449371127	 0.081078
H	 0.3979707506	-2.6587514332	-0.1050267116	 0.096754
H	-1.3891623636	-2.5587413472	-0.1334257485	 0.104567
127.7397	180.7864	235.8549	342.2775	365.1817	413.4214	449.7861	459.0972	562.4262	623.2661	731.4977	784.6676	830.133	866.1532	873.3757	887.1745	930.3524	934.8707	983.8476	994.7236	1009.1705	1025.0688	1052.1013	1069.0097	1107.2697	1117.5874	1144.0683	1161.3599	1190.8555	1209.8109	1216.6179	1259.7989	1293.6268	1320.7427	1328.6759	1359.1941	1366.5108	1373.0131	1394.6184	1418.9814	1479.1938	1486.5692	1491.7013	1498.9397	1526.3893	3006.2802	3016.8851	3017.8595	3023.2221	3052.17	3056.4357	3068.5114	3072.6104	3080.5095	3114.9145	3151.5867	3206.8087
C1C2CCCC3COC123	C1[C@H]2CCC[C@@H]3CO[C@]123	
InChI=1S/C8H12O/c1-2-6-4-8(6)7(3-1)5-9-8/h6-7H,1-5H2	InChI=1S/C8H12O/c1-2-6-4-8(6)7(3-1)5-9-8/h6-7H,1-5H2/t6-,7-,8-/m1/s1
