19
gdb 73395	2.708	2.0368	1.5277	1.5778	78.52	-0.2122	0.0194	0.2317	922.5219	0.161495	-385.870836	-385.863869	-385.862925	-385.901556	29.661	
O	-0.0419778731	 1.4142406649	 0.0551254861	-0.487353
C	-0.0050507272	 0.027283623	 0.0031992403	 0.455629
C	 0.9184718585	-0.6903560782	 0.990201779	-0.296061
C	 0.5733507869	-2.1653790553	 0.640709571	-0.241263
C	-0.4598414714	-1.923432277	-0.4602568844	-0.000981
C	-1.3753889533	-0.7426111232	 0.0405861881	-0.117561
C	-2.0699037728	-0.2885779258	-1.2365190958	-0.095825
C	-1.0971327866	-0.3144107437	-2.1511597163	-0.095225
C	 0.1200517811	-0.7794751942	-1.3696447158	-0.153222
H	 0.8592589744	 1.7390137185	 0.1506604148	 0.279553
H	 1.9725933038	-0.4448616502	 0.8138181175	 0.088648
H	 0.6827279378	-0.4229596053	 2.0249088215	 0.103988
H	 1.4389107919	-2.7298900682	 0.2804283813	 0.098287
H	 0.154295845	-2.7105679295	 1.4918908761	 0.100284
H	-0.9304200784	-2.783851091	-0.9366648401	 0.064585
H	-1.9461725537	-0.8206495895	 0.967792197	 0.054542
H	-3.1074400831	-0.0029267189	-1.3305874471	 0.0976
H	-1.1223551052	-0.0513072666	-3.1988044046	 0.095852
H	 1.0803281653	-0.8951787197	-1.8768006685	 0.048523
224.8358	236.5006	278.3016	297.5173	374.2566	423.6774	554.6252	604.5486	626.2949	658.6525	726.5646	773.7071	780.0363	827.5175	901.3117	909.4397	936.3725	937.4525	941.1064	956.3024	991.5331	1002.9396	1052.6651	1069.1053	1072.4366	1132.1338	1151.2976	1192.5355	1197.4811	1210.3564	1240.2765	1249.1249	1253.0156	1290.7564	1304.2207	1323.4195	1332.1279	1387.7868	1485.0737	1507.621	1631.3925	3030.9421	3049.7896	3074.8504	3090.6926	3094.5522	3098.6945	3117.4619	3222.5972	3249.6484	3812.3863
OC12CCC3C1C=CC23	O[C@@]12CC[C@H]3[C@@H]1C=C[C@@H]23	
InChI=1S/C8H10O/c9-8-4-3-5-6(8)1-2-7(5)8/h1-2,5-7,9H,3-4H2	InChI=1S/C8H10O/c9-8-4-3-5-6(8)1-2-7(5)8/h1-2,5-7,9H,3-4H2/t5-,6-,7+,8-
