15
gdb 48999	2.47544	1.64574	1.14087	2.5035	68.65	-0.2514	-0.0565	0.1949	1041.209	0.111958	-453.905054	-453.897277	-453.896333	-453.937569	28.837	
N	-0.0080644879	 1.0572759147	-0.6847791839	-0.537643
C	 0.0150091695	-0.056544018	-0.0975461369	 0.395902
N	 0.9872662135	-0.8908719566	 0.4835403157	-0.381245
C	 0.062368389	-2.0038259759	 0.6957026653	 0.201537
C	-0.6734274663	-1.940404168	 2.0562257421	-0.118236
O	-1.63345505	-0.9812522096	 1.5586219232	-0.276663
C	-1.1049796005	-1.0552863057	 0.2267542828	-0.028416
C	 0.4201262505	-3.3068860685	 0.0674619997	 0.071413
O	 1.4174725091	-3.471469599	-0.5913722598	-0.253137
H	 0.92391853	 1.4686233554	-0.7664858554	 0.220797
H	 1.9226565174	-1.0366208123	 0.1271683154	 0.257731
H	-1.1695387397	-2.8766696841	 2.3414803905	 0.112717
H	-0.0762920792	-1.5548592642	 2.8873479475	 0.126774
H	-1.8533273234	-1.2663073111	-0.5383594715	 0.116757
H	-0.3026582719	-4.1308442871	 0.2514018252	 0.091711
92.828	128.426	213.0489	241.2289	292.1314	355.2162	395.2551	441.375	489.458	638.3905	697.059	791.3439	815.852	857.2128	868.4566	962.3464	975.3863	993.0337	1031.1897	1052.6813	1086.2866	1142.249	1158.7983	1177.1399	1226.9034	1280.4033	1304.7527	1338.0352	1373.5235	1422.9039	1501.5283	1801.9148	1809.9418	2903.4507	3021.6214	3097.0255	3115.0555	3459.2117	3591.3754
N=C1NC2(COC12)C=O	[NH][C]1N[C@]2(CO[C@@H]12)C=O	
InChI=1S/C5H6N2O2/c6-4-3-5(1-8,7-4)2-9-3/h1,3H,2H2,(H2,6,7)	InChI=1S/C5H6N2O2/c6-4-3-5(1-8,7-4)2-9-3/h1,3H,2H2,(H2,6,7)/t3-,5-/m0/s1
