19
gdb 39197	2.64112	2.18508	1.86618	1.3692	77.72	-0.24	0.0053	0.2453	851.2036	0.16392	-385.882347	-385.876306	-385.875362	-385.912234	26.753	
C	-0.0502576606	 1.5196327016	 0.1052752067	-0.232276
C	 1.4964597307	 1.4527879787	-0.0146508283	-0.064832
C	 2.0507677582	 1.1313635781	 1.3786209467	-0.078963
O	 1.1576649518	 0.2698625361	 2.0884177722	-0.270767
C	 0.5523230601	-0.7105687315	 1.2305519312	 0.059526
C	 1.6372739223	-1.625236917	 0.6723293399	-0.088841
C	 2.1200382156	-1.1030413913	-0.4583389193	-0.095054
C	 1.3120897185	 0.1085789159	-0.8433381469	-0.038505
C	-0.0108017774	-0.0174083628	-0.0454067013	-0.045556
H	-0.4679881451	 1.9390694909	 1.0230457336	 0.103966
H	-0.5113078903	 1.9915727454	-0.7658715945	 0.093871
H	 2.0391912763	 2.2780100112	-0.4814679563	 0.063936
H	 3.0489820003	 0.6763193453	 1.2992642427	 0.092707
H	 2.136279042	 2.0380228313	 1.9868138223	 0.103448
H	-0.2013442018	-1.2026426411	 1.8486326871	 0.074878
H	 2.0380673321	-2.4709185283	 1.2181959991	 0.098497
H	 2.9758959693	-1.4695358041	-1.0141992557	 0.095595
H	 1.2130342158	 0.2960780843	-1.9144203634	 0.064552
H	-0.8518007577	-0.562671363	-0.4796879359	 0.063818
283.5443	306.2006	375.3205	409.6214	481.5906	577.7002	597.9071	680.7889	755.7584	776.5004	815.1553	836.4451	844.233	891.5228	908.9094	934.3726	950.1879	960.0811	991.3026	998.2201	1019.1655	1049.5471	1062.5152	1077.8136	1124.2683	1137.3698	1151.2302	1210.2581	1240.4643	1246.6087	1269.3202	1283.0647	1299.9874	1319.8445	1332.8521	1351.9866	1366.1937	1400.4967	1485.7198	1501.6418	1652.8048	2998.0146	3061.7415	3066.998	3078.6451	3081.2816	3089.6828	3096.7627	3120.0283	3186.2677	3214.4847
C1C2COC3C=CC2C13	C1[C@H]2CO[C@@H]3C=C[C@H]2[C@H]13	
InChI=1S/C8H10O/c1-2-8-7-3-5(4-9-8)6(1)7/h1-2,5-8H,3-4H2	InChI=1S/C8H10O/c1-2-8-7-3-5(4-9-8)6(1)7/h1-2,5-8H,3-4H2/t5-,6+,7-,8+/m0/s1
