18
gdb 6459	3.56469	1.40805	1.2533	3.0958	68.32	-0.2386	-0.0164	0.2222	1023.0107	0.151322	-384.947906	-384.939262	-384.938317	-384.981124	32.083	
C	-0.3428860179	 1.699238157	 0.0361147229	-0.460118
C	 0.0111963356	 0.2157630233	 0.0367841898	 0.331632
C	-1.2184111135	-0.6556344625	-0.202059925	-0.120159
O	-1.7299953764	-0.3588263301	-1.4919293601	-0.42302
C	 1.1912638065	-0.2045928824	-0.906242187	-0.377901
C	 1.8394706739	-0.9080873233	 0.2923787667	 0.408766
O	 2.7477406682	-1.6775155714	 0.4160211092	-0.292164
C	 0.8235318001	-0.2989682389	 1.272966104	-0.405592
H	 0.5498407986	 2.3171275917	 0.1787687055	 0.10859
H	-0.8102113015	 1.9821636108	-0.9107217959	 0.139822
H	-1.0462705401	 1.9356294038	 0.8431158709	 0.112241
H	-0.9382911465	-1.719256302	-0.1240829133	 0.086577
H	-1.9660976907	-0.4545704785	 0.5829052192	 0.088517
H	-2.4988505647	-0.9139603909	-1.6502019565	 0.291196
H	 0.9404928186	-0.8274218608	-1.7682617047	 0.136203
H	 1.7949047069	 0.6406114318	-1.2544904008	 0.125476
H	 1.2656975735	 0.5089160741	 1.8659943737	 0.127588
H	 0.3309532494	-0.9980322718	 1.9559949115	 0.122345
48.9781	124.961	225.5524	241.1076	250.524	300.7075	347.4539	352.7862	409.4467	449.2632	516.0388	636.3374	684.0721	734.9615	864.1132	887.5545	924.9159	969.1157	987.8269	1026.6514	1070.8094	1083.8466	1133.7757	1154.4742	1182.1606	1204.6895	1234.8198	1256.9171	1301.1692	1330.0154	1408.2234	1428.0084	1445.2207	1462.519	1489.4962	1504.7095	1518.9459	1891.9219	2956.6632	2987.2948	3029.4459	3046.8889	3055.0693	3091.9474	3100.7048	3115.9576	3119.7604	3834.811
CC1(CO)CC(=O)C1	CC1(CO)CC(=O)C1	
InChI=1S/C6H10O2/c1-6(4-7)2-5(8)3-6/h7H,2-4H2,1H3	InChI=1S/C6H10O2/c1-6(4-7)2-5(8)3-6/h7H,2-4H2,1H3
