22
gdb 83951	2.48418	1.65406	1.49526	0.5803	81.29	-0.2075	0.0797	0.2872	1042.0191	0.19571	-404.319628	-404.311108	-404.310163	-404.352252	33.395	
C	-0.2498323875	 1.556460434	 0.3220828749	-0.441836
C	 0.0529430529	 0.0711769307	 0.2035680653	 0.038052
C	 1.1611626649	-0.4748926252	-0.742204074	-0.042423
C	 2.3997446394	 0.4125181163	-0.6747047567	-0.074338
O	 2.7167563615	 0.8167988288	 0.658317605	-0.281146
C	 2.0609294583	 0.1509681259	 1.7388100595	-0.074317
C	 0.8774574223	-0.6938798351	 1.2785844341	-0.042417
N	 1.2703480728	-1.6274877169	 0.1904057483	-0.06645
C	 2.4873454265	-2.4132037086	 0.2762658715	-0.344375
H	 0.6470737843	 2.1504584356	 0.5120702885	 0.140664
H	-0.7151343566	 1.9282731411	-0.5975749077	 0.11482
H	-0.9581195301	 1.7402460667	 1.1376092474	 0.114824
H	-0.8634016098	-0.4926967633	 0.0137980259	 0.086399
H	 0.9115514002	-0.7263766929	-1.7796136629	 0.063605
H	 3.2632376978	-0.1108808041	-1.1114934969	 0.096549
H	 2.2427387658	 1.3265129386	-1.2626491964	 0.1016
H	 2.7879672773	-0.4777877803	 2.2740033667	 0.096548
H	 1.7229538087	 0.9252488344	 2.4402186062	 0.101599
H	 0.3624272098	-1.1502608629	 2.1319502693	 0.063601
H	 2.3775990616	-3.1514336296	 1.0782251779	 0.119257
H	 2.6212807856	-2.9642538819	-0.6610564147	 0.119244
H	 3.4111544544	-1.8432360015	 0.467061379	 0.110541
99.6855	204.7755	207.7015	213.0069	248.4014	260.2384	294.4626	427.4722	469.1953	516.7266	584.1531	613.6898	740.3558	812.9685	817.4517	830.1677	860.1215	961.4885	984.0569	1008.4715	1021.1962	1062.4819	1077.9547	1084.2452	1142.0607	1146.9708	1161.3353	1178.3809	1212.6097	1228.7794	1244.0435	1253.5839	1278.8137	1318.9009	1334.2307	1350.2763	1374.8646	1376.7582	1412.9432	1424.93	1450.8123	1490.1128	1498.2864	1498.7994	1512.359	1521.0695	1527.8613	2968.6388	2987.8967	2996.0221	3028.5371	3031.3039	3033.4338	3039.201	3040.6464	3055.4243	3079.1037	3089.0452	3092.1781	3126.0646
CC1C2COCC1N2C	C[C@H]1[C@H]2COC[C@@H]1N2C	
InChI=1S/C7H13NO/c1-5-6-3-9-4-7(5)8(6)2/h5-7H,3-4H2,1-2H3	InChI=1S/C7H13NO/c1-5-6-3-9-4-7(5)8(6)2/h5-7H,3-4H2,1-2H3/t5-,6+,7-
