18
gdb 97152	2.66175	1.54164	1.09609	2.6734	75.44	-0.248	0.0119	0.26	1136.3168	0.146621	-439.085541	-439.076775	-439.075831	-439.119108	31.974	
C	 0.2023036446	 1.4159278211	-0.0885626236	-0.331871
N	 0.458599323	-0.0155618395	-0.0978700845	-0.336342
C	 0.5054430389	-0.6427074106	 0.9924280026	 0.435934
O	 0.3131463607	-0.0996143208	 2.2390819846	-0.266197
C	 0.6966765278	-1.0246873179	 3.270525434	-0.116401
C	 0.8970281005	-2.35061286	 2.5728743002	-0.04779
O	-0.2694255697	-2.759391185	 1.8630432028	-0.285538
C	 0.7965597109	-2.1057141091	 1.1270857501	 0.290485
C	 1.4498951835	-2.8659000828	 0.0150675238	-0.490726
H	 0.7914246906	 1.8865366349	-0.8815630938	 0.12204
H	-0.8540626706	 1.6005124754	-0.3196664314	 0.130961
H	 0.4298742283	 1.8997261981	 0.8684260067	 0.122724
H	 1.6224885638	-0.6778125544	 3.7456731368	 0.117173
H	-0.1032695759	-1.053665715	 4.0163354462	 0.131747
H	 1.5082550346	-3.132746242	 3.0141645643	 0.109723
H	 0.851327455	-2.7764404488	-0.8952316062	 0.152838
H	 2.4415252452	-2.4578289125	-0.1999046284	 0.13353
H	 1.5435289086	-3.9209664611	 0.2817029756	 0.127709
86.3426	113.7025	167.7447	187.0219	215.3322	240.7146	298.6829	383.2498	442.2134	500.7039	583.2328	711.7342	722.7292	761.8874	812.9314	875.7092	933.1635	972.7722	1033.9941	1045.6044	1062.4128	1093.7611	1106.9447	1117.9882	1133.1075	1171.9259	1230.0046	1291.0901	1320.3592	1382.9454	1409.9996	1438.4589	1459.7115	1478.4884	1490.2703	1494.0382	1498.118	1503.4532	1802.3447	3016.2963	3033.4248	3052.4446	3075.3092	3090.9502	3095.8343	3122.8429	3137.1844	3160.1218
CN=C1OCC2OC12C	CN=C1OC[C@H]2O[C@@]12C	
InChI=1S/C6H9NO2/c1-6-4(9-6)3-8-5(6)7-2/h4H,3H2,1-2H3	InChI=1S/C6H9NO2/c1-6-4(9-6)3-8-5(6)7-2/h4H,3H2,1-2H3/t4-,6-/m1/s1
