17
gdb 126026	3.03414	1.60472	1.10088	3.5927	74.22	-0.2002	0.0198	0.22	1073.8754	0.13908	-418.013566	-418.006055	-418.005111	-418.045718	28.65	
C	-0.0278525275	 1.5866048459	-0.0483083405	-0.400345
C	-0.0027957288	 0.0591290529	 0.0731240134	-0.156863
C	 0.7890128954	-0.6292870615	-1.101785769	-0.096605
O	 1.5718537653	-1.7326390818	-0.5762536488	-0.2915
C	 1.613577933	-1.5148401387	 0.7712334645	 0.283525
C	 0.7817243424	-0.5231588371	 1.2095199107	 0.285365
N	 0.9129021014	-0.4912168582	 2.5580675624	-0.329521
N	 1.8069560231	-1.4028477095	 3.0016200237	-0.225514
C	 2.2427144939	-2.0462695136	 1.9077270032	-0.150296
H	 0.9880080434	 1.9939268356	-0.0492058089	 0.12674
H	-0.5227942656	 1.8956764701	-0.9750349936	 0.122812
H	-0.5760348472	 2.0402899763	 0.7834348774	 0.118014
H	-1.0393172955	-0.3072331677	 0.0911316509	 0.096052
H	 0.1373618452	-1.0249436548	-1.8836295644	 0.119825
H	 1.4810245226	 0.0964359293	-1.5488218681	 0.110931
H	 0.480873067	 0.120534357	 3.228335755	 0.271501
H	 2.9691984819	-2.8375291944	 2.0029210223	 0.11588
85.9659	146.6216	220.8587	261.1277	325.202	416.5363	459.8037	483.5145	593.9639	657.887	682.3992	728.752	746.7918	855.2598	893.022	934.8598	970.7504	983.4192	1031.2579	1097.2371	1104.7221	1131.9226	1157.455	1230.8988	1242.7178	1285.7685	1327.3787	1342.4918	1379.0179	1404.7502	1411.4692	1458.2124	1495.4475	1498.5963	1507.3677	1563.5512	1624.0224	2992.0844	3019.533	3033.5148	3101.6376	3107.1551	3111.9592	3261.7095	3680.2914
CC1COC2=C1NN=C2	C[C@H]1COc2c1[nH]nc2	
InChI=1S/C6H8N2O/c1-4-3-9-5-2-7-8-6(4)5/h2,4H,3H2,1H3,(H,7,8)	InChI=1S/C6H8N2O/c1-4-3-9-5-2-7-8-6(4)5/h2,4H,3H2,1H3,(H,7,8)/t4-/m0/s1
