16
gdb 26718	3.2121	1.21638	0.89138	3.6522	74.72	-0.2305	-0.0454	0.1852	1241.6725	0.123457	-437.929201	-437.920195	-437.919251	-437.963461	31.781	
C	 0.0644007091	 1.5632011392	 0.0985972917	-0.514334
C	 0.0041386762	 0.0689727702	 0.0532353987	 0.126171
C	-0.0683684912	-0.69511701	-1.0685421438	 0.209754
N	-0.1057774371	-0.3454469972	-2.4164657013	-0.591826
O	-0.1080553574	-2.0424602813	-0.723251285	-0.162823
C	-0.0599039029	-2.1095579581	 0.6150746999	-0.070651
C	 0.0100018365	-0.8579274039	 1.1644856354	 0.072091
C	 0.0755814686	-0.5694180556	 2.595744426	 0.068789
O	 0.0757830306	-1.4112515154	 3.4689821928	-0.281123
H	 0.9794613754	 1.9166497037	 0.5868543839	 0.132212
H	 0.0414762795	 1.9652684327	-0.9166584553	 0.145373
H	-0.7804898653	 1.9856018087	 0.6539240789	 0.132212
H	-0.9575617626	-0.6527550992	-2.8755377872	 0.250719
H	 0.6825605384	-0.7164884787	-2.9375963694	 0.25072
H	-0.0815043439	-3.0909042157	 1.0601400939	 0.167302
H	 0.1275445261	 0.5120638609	 2.8506405009	 0.065415
56.6279	108.3823	162.5636	165.1747	198.6576	261.1757	287.5307	321.1899	392.0575	504.4812	629.6035	634.5797	670.9284	756.2541	778.2351	806.3268	821.1163	935.9157	1039.0279	1052.8784	1069.9783	1140.7781	1190.672	1213.4951	1257.8568	1310.2355	1392.0343	1416.9831	1462.2857	1490.4222	1490.6774	1571.0125	1649.7632	1701.3794	1785.7971	2885.5352	3032.2204	3081.9969	3128.381	3278.2668	3496.3251	3562.3462
CC1=C(N)OC=C1C=O	Cc1c(N)occ1C=O	
InChI=1S/C6H7NO2/c1-4-5(2-8)3-9-6(4)7/h2-3H,7H2,1H3	InChI=1S/C6H7NO2/c1-4-5(2-8)3-9-6(4)7/h2-3H,7H2,1H3
