19
gdb 122481	3.63072	0.66718	0.60091	2.7084	78.92	-0.2606	0.02	0.2807	1825.4881	0.156144	-422.962212	-422.952075	-422.951131	-422.998483	35.886	
O	-0.1044167824	 1.3877680285	-0.51646711	-0.42082
C	-0.0113594778	 0.0788924451	 0.0235086149	-0.075237
C	-1.3816283853	-0.5745702104	-0.0948985805	-0.163143
C	-1.4090138548	-1.9951364715	 0.4828239841	-0.244038
C	-2.7711967586	-2.6273643084	 0.3531864035	 0.078317
O	-3.1600408869	-3.0811047861	-0.9427460728	-0.245049
C	-2.9794893313	-4.069224075	 0.0867598682	-0.158936
C	-1.889471478	-4.9966555479	-0.0593697548	 0.341193
C	-1.001578053	-5.8009493029	-0.1602460313	-0.433231
H	 0.765740405	 1.7943232457	-0.4723988642	 0.285647
H	 0.7353170268	-0.52548398	-0.5173753473	 0.087425
H	 0.2983586998	 0.1048753604	 1.0819827684	 0.081793
H	-2.1140737192	 0.0597648889	 0.4194387369	 0.104989
H	-1.6721099629	-0.601073328	-1.1507504836	 0.125399
H	-0.674149619	-2.6289061304	-0.024011567	 0.118562
H	-1.1368656197	-1.9749017625	 1.5470088067	 0.102698
H	-3.5734309472	-2.1213578326	 0.8960436908	 0.095394
H	-3.9111372722	-4.5156924193	 0.434415478	 0.115616
H	-0.2153017632	-6.5084043735	-0.2574028299	 0.20342
48.3446	73.8165	91.6159	129.0026	159.3092	214.5631	259.6968	292.6776	315.6823	447.5663	465.6246	554.2447	608.7956	628.6627	669.207	755.3293	809.3024	816.3529	882.1849	963.1038	1003.8193	1036.7363	1047.4849	1080.3643	1094.9983	1143.8979	1169.7519	1219.5643	1234.5433	1282.3642	1299.	1305.8594	1316.1205	1369.469	1392.7438	1460.3029	1465.525	1476.4528	1500.6568	1529.0027	2238.9082	2955.2878	2981.5839	3020.9242	3036.0742	3071.557	3081.1365	3096.2362	3109.8531	3501.8349	3831.9562
OCCCC1OC1C#C	OCCC[C@H]1O[C@H]1C#C	
InChI=1S/C7H10O2/c1-2-6-7(9-6)4-3-5-8/h1,6-8H,3-5H2	InChI=1S/C7H10O2/c1-2-6-7(9-6)4-3-5-8/h1,6-8H,3-5H2/t6-,7+/m0/s1
