21
gdb 78863	2.68341	1.74518	1.32733	0.3399	85.99	-0.236	0.0946	0.3306	1048.0712	0.183314	-349.888061	-349.880359	-349.879415	-349.91969	31.993	
C	 0.0338213138	 1.60624259	 0.0847728167	-0.421913
C	 0.1139464674	 0.0854054793	 0.0595898655	 0.037263
C	 1.1476608316	-0.6414225548	-0.8060203052	-0.092612
C	 1.2731831098	-1.7625500059	 0.1912818619	-0.074625
C	 2.4344289136	-0.8072785059	 0.0282941552	-0.159971
C	 2.1688571778	-0.2097916695	 1.3907759428	 0.438611
C	 3.0428259163	-0.410235855	 2.5892768952	-0.353334
C	 2.7290284885	 0.9909332942	 2.0890265847	-0.340464
C	 0.7259854947	-0.7192208295	 1.2553419337	-0.181663
H	 1.0138020132	 2.0607875909	 0.2468254505	 0.126551
H	-0.3587849205	 1.9848394641	-0.8658724713	 0.108634
H	-0.6377608694	 1.9539602093	 0.8784648532	 0.106973
H	-0.8740998166	-0.3365038557	-0.1605589546	 0.066006
H	 1.17949015	-0.7120215903	-1.8868986155	 0.078108
H	 1.2032436814	-2.8362636242	 0.0993282259	 0.087592
H	 3.3903276954	-0.9991242192	-0.44338143	 0.080743
H	 2.5836658082	-0.7317415286	 3.5193105444	 0.107293
H	 4.0485910718	-0.7902469054	 2.4382645783	 0.107614
H	 3.5254859863	 1.5475407893	 1.6043701992	 0.10797
H	 2.0632243755	 1.6041899239	 2.6880932421	 0.10928
H	 0.1307884212	-0.942979337	 2.1398397571	 0.061944
156.2942	181.6375	215.4551	269.7297	289.68	320.1757	481.2008	562.0963	625.43	682.2963	763.9054	780.7104	784.6801	798.9857	849.4674	862.8976	895.4985	899.8431	937.8205	958.1234	974.7512	1007.3292	1021.5692	1024.105	1032.9074	1055.0346	1073.4644	1075.1703	1107.8306	1134.7973	1149.1933	1163.3967	1184.5139	1197.8988	1232.3086	1269.6388	1286.102	1350.2169	1387.1779	1408.3397	1415.8726	1463.3603	1492.9611	1500.8564	1510.5044	3026.9778	3034.2562	3085.2044	3116.7753	3120.9639	3122.1631	3125.0251	3180.2109	3191.3141	3193.6165	3208.8442	3224.7817
CC1C2C3C2C2(CC2)C13	C[C@H]1[C@@H]2[C@H]3[C@@H]2C2(CC2)[C@@H]13	
InChI=1S/C9H12/c1-4-5-6-7(4)9(2-3-9)8(5)6/h4-8H,2-3H2,1H3	InChI=1S/C9H12/c1-4-5-6-7(4)9(2-3-9)8(5)6/h4-8H,2-3H2,1H3/t4-,5+,6+,7-,8+/m0/s1
