17
gdb 109643	2.93732	1.0702	0.99525	2.8541	70.15	-0.2675	0.0083	0.2758	1233.6818	0.135894	-455.12323	-455.114024	-455.11308	-455.157168	34.104	
N	 0.0334962647	 1.3900731551	 0.3010374612	-0.57382
C	-0.0030217241	-0.0229382145	-0.0006625736	 0.050952
C	 1.129369586	-0.5785869305	-0.6990513939	 0.24321
N	 2.0522903276	-1.0041139528	-1.2537811667	-0.339351
C	-0.685579734	-0.8592512731	 1.0907607839	 0.098578
O	-1.1668420083	-0.1643216986	 2.1959400854	-0.430429
C	-1.3756967959	-0.6850848529	-0.2277106005	-0.109839
C	-2.6634544901	 0.1263671349	-0.2719693965	-0.10179
O	-3.6631455024	-0.4661940072	 0.5347587167	-0.417415
H	 0.9528802603	 1.6523288162	 0.6434886343	 0.259339
H	-0.1614699511	 1.9561661119	-0.5185518783	 0.258025
H	-0.2557275304	-1.8198150128	 1.3527263727	 0.130941
H	-0.986599796	 0.7748214111	 2.0149605103	 0.299229
H	-1.3429568219	-1.544382896	-0.8897141741	 0.121455
H	-2.4732329754	 1.1667450967	 0.0223516164	 0.095454
H	-3.0572545326	 0.1440299298	-1.2924480921	 0.119163
H	-3.3133422561	-0.4649504574	 1.4350835448	 0.296298
80.611	128.4733	141.3423	182.21	232.7706	287.657	315.7725	341.206	416.398	465.1671	504.2116	572.7029	582.7987	632.8824	676.7127	727.0831	800.7063	856.6931	882.7976	977.9862	1043.2436	1066.0866	1076.4082	1107.5205	1129.3691	1201.1816	1224.2217	1264.6243	1289.5737	1331.0931	1375.3649	1402.3805	1438.8757	1448.3662	1509.4782	1656.8957	2338.059	3016.812	3084.2394	3165.9151	3180.7302	3502.1019	3579.1655	3640.239	3772.3009
NC1(C#N)C(O)C1CO	N[C@@]1(C#N)[C@@H](O)[C@H]1CO	
InChI=1S/C5H8N2O2/c6-2-5(7)3(1-8)4(5)9/h3-4,8-9H,1,7H2	InChI=1S/C5H8N2O2/c6-2-5(7)3(1-8)4(5)9/h3-4,8-9H,1,7H2/t3-,4+,5-/m1/s1
