16
gdb 15932	3.39425	1.98073	1.5625	2.7213	64.95	-0.2453	-0.0392	0.2062	844.3931	0.129982	-383.712962	-383.705765	-383.704821	-383.744739	26.497	
O	-0.7514208916	 1.1667863538	 0.7081405828	-0.256037
C	 0.1815481313	 0.9008230419	-0.008571761	 0.084664
C	 1.415933166	 1.7453190496	-0.1197153425	 0.355933
C	 1.8148100783	 2.6768594892	 1.0467930162	-0.276666
C	 2.0037020777	 3.8582985775	 0.046364685	-0.22652
C	 1.5552373439	 2.9492251819	-1.1270119959	-0.128294
C	 2.6680538838	 2.0903077761	-1.7490866248	-0.085921
O	 2.5163369093	 1.0584801199	-0.7434065346	-0.332241
H	 0.1866211783	 0.0074303428	-0.6718025428	 0.088007
H	 0.9848122713	 2.8210790823	 1.7413573833	 0.132037
H	 2.6998075452	 2.3421900916	 1.5907135247	 0.115553
H	 1.3301080692	 4.6972035511	 0.2307160957	 0.114954
H	 3.0207778421	 4.2478606002	-0.0481290006	 0.106759
H	 0.7510111772	 3.294267559	-1.7749140491	 0.092561
H	 2.4460153118	 1.7004620183	-2.7500445206	 0.108951
H	 3.6746717261	 2.5264489648	-1.7488685057	 0.106261
92.1361	99.9166	220.5059	233.9466	366.1447	369.3833	502.7731	643.363	712.1042	744.1051	826.8698	839.1254	910.6108	912.7754	956.5638	1001.4224	1013.5309	1040.9837	1105.3004	1121.9521	1137.5444	1163.8392	1187.5727	1221.3925	1238.2216	1266.2366	1288.879	1314.8757	1349.596	1398.7401	1461.5051	1485.7499	1523.0518	1815.4808	2892.6193	3014.1203	3058.889	3064.2779	3077.2968	3112.9832	3126.9597	3142.1541
O=CC12CCC1CO2	O=C[C@]12CC[C@H]1CO2	
InChI=1S/C6H8O2/c7-4-6-2-1-5(6)3-8-6/h4-5H,1-3H2	InChI=1S/C6H8O2/c7-4-6-2-1-5(6)3-8-6/h4-5H,1-3H2/t5-,6+/m0/s1
