23
gdb 120498	4.51709	0.70376	0.65448	1.3605	88.61	-0.2366	0.0249	0.2615	1785.4387	0.205653	-388.302878	-388.292946	-388.292002	-388.338256	36.834	
C	-0.0641942419	 1.6161581774	-0.0364644465	-0.395703
C	 0.0237602079	 0.0869366513	 0.0111657023	-0.011436
C	 0.8391126105	-0.5376156407	-1.1510814419	-0.240523
C	 1.5695330457	-1.773448405	-0.5612425335	-0.030468
C	 2.9512059872	-2.0171773416	-1.1861132331	-0.177683
C	 3.6107669999	-3.3170075472	-0.742512753	-0.079775
O	 4.8471630768	-3.4345340926	-1.4321614521	-0.420949
C	 1.5668729852	-1.4606031966	 0.9228637342	-0.07751
C	 0.737111458	-0.4651878189	 1.227355961	-0.072226
H	 0.9349329966	 2.0647691746	-0.0064897922	 0.115061
H	-0.5579524386	 1.9545591588	-0.9537616362	 0.112145
H	-0.6344767578	 2.0094137254	 0.812141509	 0.109816
H	-1.0044576385	-0.3081507601	-0.0032111338	 0.075678
H	 0.2233909325	-0.7854065129	-2.0203375671	 0.092673
H	 1.591255284	 0.1889549077	-1.4838183673	 0.097765
H	 0.9615700896	-2.6771784734	-0.7329197073	 0.072174
H	 2.8579178199	-2.0439128183	-2.2788299981	 0.103061
H	 3.6195625676	-1.180789249	-0.9477916123	 0.102701
H	 3.7671923159	-3.3138252726	 0.3480068137	 0.084878
H	 2.9450374662	-4.1660763118	-0.9717719894	 0.08226
H	 5.2804490692	-4.2403109103	-1.1364386018	 0.284091
H	 2.1515034189	-2.0246491692	 1.6420782429	 0.088063
H	 0.545368075	-0.092082275	 2.2287111925	 0.085908
56.4643	82.3917	101.5625	171.2339	220.794	247.0958	264.5498	290.7439	323.1156	397.2432	439.7414	562.549	611.8036	736.9159	765.2148	798.5517	850.4552	870.1734	918.3813	932.3902	973.2232	991.5578	1017.7082	1050.0264	1070.0997	1076.8162	1113.5459	1125.7381	1148.2209	1157.8648	1205.1688	1221.7149	1241.5015	1285.5042	1304.6983	1308.3957	1323.5233	1333.1354	1348.3028	1369.1174	1392.3705	1411.5274	1462.4523	1488.0291	1492.7849	1497.427	1500.1708	1526.7283	1683.4263	2955.6364	2963.1616	2972.3636	2986.804	3024.6043	3026.5542	3031.6304	3071.4957	3088.0363	3094.8834	3097.3409	3169.7365	3196.5332	3830.3376
CC1CC(CCO)C=C1	C[C@H]1C[C@@H](CCO)C=C1	
InChI=1S/C8H14O/c1-7-2-3-8(6-7)4-5-9/h2-3,7-9H,4-6H2,1H3	InChI=1S/C8H14O/c1-7-2-3-8(6-7)4-5-9/h2-3,7-9H,4-6H2,1H3/t7-,8-/m1/s1
