14
gdb 27707	3.04743	1.29882	0.9115	1.1536	77.	-0.1758	0.015	0.1908	1186.5697	0.101282	-432.884068	-432.875544	-432.8746	-432.916762	32.279	
N	 0.1032560821	 1.3616162444	 0.1576725405	-0.603398
C	 0.0106272371	-0.0104605646	 0.0340630501	 0.199781
C	-1.1346127772	-0.7911786753	 0.015321382	 0.118403
N	-0.6384248482	-2.1154812634	-0.0504916298	-0.396306
C	 0.700390224	-2.0214924434	-0.0724759505	 0.447134
O	 1.4565692435	-3.124770153	-0.1405408818	-0.423794
N	 1.1442215828	-0.7851432639	-0.0252035921	-0.399512
C	-2.4902043926	-0.4582853087	 0.0472281615	 0.221918
C	-3.660208669	-0.1544473435	 0.0630380189	-0.446519
H	 0.9549972041	 1.737507848	-0.2339485595	 0.253633
H	-0.7194843547	 1.8623279497	-0.1464249805	 0.255045
H	-1.1854621839	-2.9581948867	-0.0780125382	 0.275885
H	 2.3747978747	-2.8256068265	-0.133963746	 0.316189
H	-4.6863192227	 0.1129164969	 0.1037831454	 0.181541
124.2999	129.5562	234.7596	287.1877	303.0603	329.5234	353.3163	418.1682	422.3486	433.7522	503.1523	549.5653	597.6337	619.5351	667.8646	699.2351	716.9423	751.5879	830.1813	1052.4933	1103.1301	1184.9177	1203.0352	1248.5121	1355.7937	1457.8068	1554.635	1617.2937	1624.302	1660.4971	2204.5697	3503.8203	3561.3164	3666.9872	3684.2673	3802.7732
NC1=C(NC(O)=N1)C#C	Nc1c([nH]c(O)n1)C#C	
InChI=1S/C5H5N3O/c1-2-3-4(6)8-5(9)7-3/h1H,6H2,(H2,7,8,9)	InChI=1S/C5H5N3O/c1-2-3-4(6)8-5(9)7-3/h1H,6H2,(H2,7,8,9)
