18
gdb 127935	3.73141	1.14166	0.88383	1.8666	87.75	-0.2019	-0.045	0.157	1319.1383	0.148536	-398.146524	-398.137856	-398.136911	-398.179764	32.168	
C	 0.0479140994	 1.4479686711	-0.0309134266	-0.341445
N	 0.0986923176	 0.002855797	-0.1109220524	-0.325203
C	 0.5878843828	-0.6375094858	 0.8891669047	 0.422443
N	 1.0808938781	-0.0468279017	 2.0618681663	-0.317367
N	 1.6019046395	-0.6700852194	 3.1348612882	-0.191166
C	 1.6578816321	-1.9639061524	 3.0865976151	-0.053103
C	 1.1992776704	-2.7501359541	 1.9641605542	 0.298106
C	 1.316231104	-4.2474033958	 2.0239682294	-0.495311
C	 0.6823112888	-2.083925979	 0.9058331142	-0.246647
H	 1.045319882	 1.9098741115	 0.0788714311	 0.102573
H	-0.3900722356	 1.8469311958	-0.9494402886	 0.12444
H	-0.5716804869	 1.8127136352	 0.8077125729	 0.10257
H	 1.0615019966	 0.9555743213	 2.1524571717	 0.269856
H	 2.0814167669	-2.4457040722	 3.9621428216	 0.117749
H	 2.3604417223	-4.5548887031	 2.1539608887	 0.139252
H	 0.7579187166	-4.6512660198	 2.8766214276	 0.139243
H	 0.9335321202	-4.713157402	 1.1132407946	 0.134756
H	 0.3139496352	-2.5902463467	 0.0209087973	 0.119254
103.9981	136.4667	158.0068	207.7966	210.7461	294.9228	315.7989	395.4114	462.9142	510.2091	554.922	612.7017	658.4177	731.8689	735.5085	891.4583	912.6104	931.8673	999.5937	1015.2739	1066.489	1068.8029	1104.6195	1136.9667	1156.3258	1222.5252	1290.997	1364.4757	1410.1381	1418.2095	1423.4219	1457.8311	1479.5025	1487.8405	1504.104	1505.8349	1600.571	1676.7944	1712.4624	2932.8871	2970.3718	3029.3603	3081.1884	3093.844	3125.8337	3180.8438	3202.5527	3654.2685
CN=C1NN=CC(C)=C1	C[N]C1=C[C@H](C=NN1)C	
InChI=1S/C6H9N3/c1-5-3-6(7-2)9-8-4-5/h3-4H,1-2H3,(H,7,9)	InChI=1S/C6H10N3/c1-5-3-6(7-2)9-8-4-5/h3-5,9H,1-2H3/t5-/m1/s1
