15
gdb 51276	5.97745	0.81547	0.73187	2.0991	67.9	-0.2512	-0.0335	0.2177	1440.0079	0.111901	-454.005053	-453.996683	-453.995739	-454.039598	29.347	
O	-0.0216372812	-0.1206969916	 0.1227265996	-0.236898
C	 0.0004364729	 1.0624649078	-0.0861290852	 0.184775
C	 1.2935504476	 1.8629689981	-0.1831059061	-0.414252
C	 1.2619394759	 2.886812067	-1.2748835028	 0.393878
N	 0.3160802987	 3.0106282298	-2.1285775874	-0.290828
C	 0.6959944559	 4.115302461	-3.0095762736	-0.301966
C	 2.0553278847	 4.6256521396	-2.5132965243	 0.404841
O	 2.7578906844	 5.5141803892	-2.9207305238	-0.350682
N	 2.3133976614	 3.7906327392	-1.4261409524	-0.381594
H	-0.9246494769	 1.6608529294	-0.1944614348	 0.110358
H	 1.448356132	 2.3679639564	 0.7828139234	 0.147275
H	 2.1303426165	 1.1684855675	-0.3140383076	 0.154015
H	 0.768486207	 3.7811379755	-4.0502876501	 0.156808
H	-0.0491665132	 4.9178268369	-2.9828858794	 0.154869
H	 3.1470738242	 3.8457071442	-0.8632607454	 0.269402
37.0036	54.5438	142.0524	178.8247	249.3916	335.7869	444.4301	462.1657	509.8604	551.4946	631.9636	673.2213	708.9808	806.9298	883.866	975.5939	976.3774	1020.8025	1053.7132	1074.8235	1146.7238	1178.9673	1209.271	1216.2871	1284.367	1324.0799	1419.168	1431.3604	1439.5034	1454.2348	1700.4473	1839.9952	1862.3969	2953.5601	3009.5205	3054.5414	3081.9572	3089.3912	3651.2844
O=CCC1=NCC(=O)N1	O=CCC1=NCC(=O)N1	
InChI=1S/C5H6N2O2/c8-2-1-4-6-3-5(9)7-4/h2H,1,3H2,(H,6,7,9)	InChI=1S/C5H6N2O2/c8-2-1-4-6-3-5(9)7-4/h2H,1,3H2,(H,6,7,9)
