19
gdb 104948	2.69956	0.83883	0.6952	4.2118	90.55	-0.2584	-0.0541	0.2043	1644.6422	0.156889	-385.864915	-385.854923	-385.853979	-385.900857	35.192	
C	 0.1853016178	 1.4475404691	 0.3379235425	-0.378927
C	-0.1556270158	 0.0228133356	-0.1077075113	-0.255142
C	 0.6653723797	-0.4519732235	-1.3048679508	 0.155084
C	 2.0535942861	-1.0397835128	-1.0441790826	-0.283254
C	 0.9395676002	-1.9485005318	-1.453583358	-0.299845
C	 0.499332671	 0.2876825606	-2.5185863366	 0.066294
C	 0.354239702	 0.9117077924	-3.5466085046	 0.03118
C	 0.1667684708	 1.665997241	-4.7524953767	 0.009538
O	 0.732646982	 1.4466296132	-5.8014082768	-0.239105
H	 1.2360573803	 1.5283623787	 0.6348814308	 0.11886
H	 0.0114926175	 2.1626896	-0.4717675263	 0.130019
H	-0.4310692153	 1.7464372061	 1.1907890267	 0.116806
H	 0.0133678915	-0.6770103324	 0.7191680619	 0.098858
H	-1.2207066537	-0.0443057792	-0.3593183678	 0.110439
H	 2.8335876707	-0.8234792194	-1.7636322677	 0.137683
H	 2.3774646869	-1.0510452756	-0.0090178991	 0.125502
H	 0.4909626107	-2.5915611601	-0.7042089116	 0.125472
H	 0.9505956196	-2.3562850275	-2.4568905854	 0.137878
H	-0.5612274121	 2.4980145155	-4.6547764865	 0.092659
59.6213	69.4774	97.4852	128.1216	177.1587	223.0331	252.7164	273.7028	317.2948	418.9333	488.89	554.4872	592.6543	702.4847	784.3933	787.0531	854.6522	858.2936	938.2261	950.4465	1015.232	1019.8933	1056.9946	1078.7469	1085.4524	1100.9185	1123.4233	1195.8562	1266.5751	1290.4325	1359.0148	1374.3337	1412.9846	1423.6143	1465.3249	1482.7482	1495.4233	1498.0974	1507.5592	1757.6729	2305.5877	2908.4599	3030.0141	3039.405	3066.1485	3109.536	3114.8532	3140.0797	3143.9519	3227.4752	3241.5345
CCC1(CC1)C#CC=O	CCC1(CC1)C#CC=O	
InChI=1S/C8H10O/c1-2-8(5-6-8)4-3-7-9/h7H,2,5-6H2,1H3	InChI=1S/C8H10O/c1-2-8(5-6-8)4-3-7-9/h7H,2,5-6H2,1H3
