18
gdb 78040	2.52419	1.45411	1.27973	2.7065	72.58	-0.2381	-0.015	0.2231	1080.0749	0.14531	-439.066549	-439.057446	-439.056501	-439.099838	34.03	
C	 0.0041566926	 1.5304084207	 0.048031373	-0.463168
C	 0.0179279098	 0.0207236086	-0.0973482227	 0.309109
C	-1.2010922836	-0.6614567224	 0.4926917744	-0.444707
C	 0.6750233288	-0.6933616097	-1.210706655	-0.086991
C	 1.9437178308	-0.0437853784	-1.7426753234	-0.02247
O	 1.8033892873	 1.1201339387	-2.5151545196	-0.420393
C	 2.3810849671	 0.0311789569	-0.2595578655	 0.34211
O	 3.3104988424	 0.4872675264	 0.3324611432	-0.306642
N	 1.2733919019	-0.76364476	 0.2210071425	-0.21944
H	 0.8149316343	 2.0179770321	-0.4922732085	 0.150252
H	-0.9394713794	 1.922468525	-0.345149126	 0.125044
H	 0.0662654629	 1.8025525003	 1.1068811402	 0.132442
H	-2.1044581637	-0.3464840071	-0.0404807149	 0.123278
H	-1.1140580548	-1.7483369413	 0.430296685	 0.131712
H	-1.3148712676	-0.3895903564	 1.5463963268	 0.132704
H	 0.238566018	-1.5864395654	-1.6436862663	 0.106114
H	 2.5606172855	-0.8019356663	-2.2498557277	 0.111828
H	 2.6849830276	 1.4727945284	-2.6809557754	 0.299217
120.7031	169.0045	182.353	194.7016	203.4458	233.3708	285.2407	349.3446	369.9807	414.3709	527.1324	561.8922	620.2891	683.4758	708.8201	818.8559	845.3054	914.4932	965.9636	970.2461	1025.8194	1029.5323	1053.667	1089.1482	1135.5808	1160.9888	1186.7905	1249.813	1292.6892	1308.958	1408.1078	1411.6052	1423.8931	1430.0837	1477.3411	1482.9862	1498.7958	1512.0792	1908.3	2990.6947	3038.752	3044.467	3102.0895	3109.1974	3130.0068	3155.0986	3180.5436	3807.6512
CC1(C)C2C(O)C(=O)N12	CC1(C)[C@H]2[C@@H](O)C(=O)N12	
InChI=1S/C6H9NO2/c1-6(2)4-3(8)5(9)7(4)6/h3-4,8H,1-2H3	InChI=1S/C6H9NO2/c1-6(2)4-3(8)5(9)7(4)6/h3-4,8H,1-2H3/t3-,4-,7?/m1/s1
