15
gdb 5769	6.14772	1.40824	1.23561	5.0782	67.95	-0.2115	0.029	0.2404	956.263	0.122291	-358.848126	-358.841453	-358.840509	-358.879539	24.855	
C	 0.0191236382	 1.5612396562	-0.0028939546	-0.226519
N	 1.2349192199	 0.740267649	-0.034527165	-0.292919
C	-0.0687650032	 0.0676955109	 0.0447609069	-0.174576
C	-0.3338182419	-0.6709374703	 1.2931815514	 0.341935
C	 0.4410491177	-0.945947763	 2.3918801205	-0.159975
N	-0.266937813	-1.6692812535	 3.3254999014	-0.253253
C	-1.4587425081	-1.8352244319	 2.8040254818	 0.0092
N	-1.5566183408	-1.2515188446	 1.5733801858	-0.317329
H	-0.1210500107	 2.125560211	 0.9140816695	 0.128779
H	-0.3029538535	 2.0641611868	-0.911503463	 0.111915
H	 1.6004294001	 0.6815118878	-0.980427883	 0.237561
H	-0.4419734954	-0.4065203258	-0.8634958775	 0.08737
H	 1.4692615552	-0.6611991807	 2.5473010808	 0.120729
H	-2.2848305765	-2.3638605683	 3.2562027881	 0.126182
H	-2.371979158	-1.2312823234	 0.9838232869	 0.2609
62.8865	150.7897	186.8023	379.6446	452.8243	514.8436	637.8554	682.245	692.9406	801.6377	859.817	872.141	893.9576	913.373	938.11	971.7166	1021.0766	1096.3147	1111.4193	1116.441	1139.0815	1189.5464	1216.3828	1243.7333	1275.6344	1290.9611	1357.2183	1428.5546	1451.3482	1504.3276	1507.5268	1621.2567	3092.9966	3107.639	3200.8736	3248.9931	3268.2589	3517.5227	3660.6347
C1NC1C1=CN=CN1	C1N[C@H]1c1cnc[nH]1	
InChI=1S/C5H7N3/c1-4(5-2-7-5)8-3-6-1/h1,3,5,7H,2H2,(H,6,8)	InChI=1S/C5H7N3/c1-4(5-2-7-5)8-3-6-1/h1,3,5,7H,2H2,(H,6,8)/t5-/m1/s1
