14
gdb 26559	2.4667	1.91543	1.07969	3.3386	71.32	-0.1974	-0.0293	0.168	1022.8277	0.102853	-470.038456	-470.030841	-470.029897	-470.070343	29.169	
N	 0.0962763488	 1.3852548555	 0.1759403487	-0.57874
C	-0.0298928212	 0.0164168778	 0.0585285387	 0.302061
C	-1.1752615652	-0.6960125045	 0.0286333649	 0.234131
O	-2.3912313578	-0.0939065975	 0.0273529992	-0.461234
C	-1.1314514251	-2.1415313173	-0.0013601386	 0.279836
N	-2.2490452574	-2.7717329016	-0.0287642092	-0.583172
N	 0.1410192809	-2.742019557	-0.0134705656	-0.319258
C	 1.1604491795	-1.9829410239	 0.0024578824	 0.113348
O	 1.1797460019	-0.6307638382	 0.0426706367	-0.203297
H	 0.8620962351	 1.7757659218	-0.3581100253	 0.260706
H	-0.7775238184	 1.8638780312	 0.0023201054	 0.276863
H	-3.0175908968	-0.8423165022	-0.0053238966	 0.306364
H	-2.1007419829	-3.7788196139	-0.060001904	 0.224795
H	 2.1732338887	-2.37255879	-0.0134522368	 0.147598
122.3949	185.8311	258.7637	271.0758	315.0214	338.3459	520.4713	523.8622	530.5821	541.009	557.3071	594.2475	697.749	715.3293	765.6935	845.201	888.765	945.9934	985.3838	1032.6979	1158.1983	1197.7127	1282.2252	1333.3243	1392.5112	1425.0042	1473.7859	1628.7386	1658.553	1687.5903	1771.693	3199.4634	3508.5363	3543.6655	3600.1256	3650.5814
NC1=C(O)C(=N)N=CO1	N[C@@H]1C(=C([NH])N=CO1)O	
InChI=1S/C4H5N3O2/c5-3-2(8)4(6)9-1-7-3/h1,5,8H,6H2	InChI=1S/C4H6N3O2/c5-3-2(8)4(6)9-1-7-3/h1,4-5,8H,6H2/t4-/m0/s1
