19
gdb 83958	2.26352	1.68717	1.41772	2.4852	70.34	-0.2408	0.0658	0.3066	1009.5551	0.160591	-460.137027	-460.128972	-460.128028	-460.169088	31.804	
O	-0.0218391688	 1.4520090914	-0.0339414313	-0.430243
C	 0.007782965	 0.0462264189	 0.0438491381	 0.138468
C	 0.1798860822	-0.6483661544	 1.4302890962	-0.159978
C	-0.587423552	 0.1592524751	 2.4839600957	-0.064901
O	-1.9882721187	 0.1459920361	 2.2343105961	-0.269766
C	-2.3640688198	 0.1528741413	 0.8596088586	-0.080456
C	-1.3749246043	-0.6443311271	-0.0004045102	-0.093599
C	-0.7572375194	-1.7647121242	 0.8740689397	 0.145354
O	-0.1071564497	-2.7130419905	 0.0480136246	-0.454889
H	 0.8815872964	 1.7755359873	-0.0977840858	 0.285993
H	 0.6837748058	-0.3852557809	-0.6998421222	 0.083786
H	 1.1831256055	-0.9199399094	 1.7732107446	 0.054237
H	-0.4601150143	-0.2784084079	 3.4802622076	 0.098934
H	-0.2031482491	 1.189746693	 2.5077892232	 0.09462
H	-3.3582101803	-0.3057406563	 0.8241858208	 0.102836
H	-2.4417398449	 1.1796932652	 0.4774722025	 0.113345
H	-1.7986637166	-0.9154386508	-0.9695354519	 0.075927
H	-1.4263975943	-2.2457217433	 1.5966280985	 0.079591
H	 0.4280929774	-3.2789749135	 0.6135097852	 0.280743
161.3541	203.217	241.4207	251.5536	281.9585	289.6778	323.0647	394.2712	437.0904	576.9472	594.7032	644.0713	826.7194	827.9263	844.3088	890.1665	894.0545	993.427	1003.6907	1007.6823	1049.4204	1071.7549	1105.2342	1118.7742	1160.2812	1163.5165	1188.736	1202.1951	1235.4975	1259.6919	1275.8945	1302.9604	1310.178	1321.1014	1339.2746	1381.2407	1407.0722	1416.2929	1449.802	1497.457	1511.9881	2995.215	3015.7565	3036.2853	3054.1791	3061.622	3066.3508	3068.7321	3095.0134	3813.2187	3829.0601
OC1C2COCC1C2O	O[C@H]1[C@H]2COC[C@@H]1[C@H]2O	
InChI=1S/C6H10O3/c7-5-3-1-9-2-4(5)6(3)8/h3-8H,1-2H2	InChI=1S/C6H10O3/c7-5-3-1-9-2-4(5)6(3)8/h3-8H,1-2H2/t3-,4+,5-,6-
