15
gdb 30006	3.34228	1.75558	1.15942	3.2503	72.99	-0.2008	0.0196	0.2205	995.6972	0.115389	-416.835513	-416.828376	-416.827432	-416.867409	26.685	
C	 0.001948739	 1.4531971835	 0.0644217734	-0.347462
N	-0.018825585	 0.0064002423	 0.0446947683	-0.160352
C	-0.1107552426	-0.8301004189	-1.0668722288	-0.026216
N	-0.1076093731	-2.1134019436	-0.7833350426	-0.3579
C	-0.008233975	-2.1464388167	 0.5939848291	 0.209828
C	 0.0447131011	-0.8711492407	 1.0850541318	 0.407695
O	 0.1422044347	-0.790672747	 2.4200946016	-0.224936
C	 0.1523701956	-2.1319932681	 2.8152709648	-0.028087
C	 0.0643166779	-2.9876410812	 1.7590604865	-0.304587
H	 0.9311591803	 1.8254125208	 0.5069907628	 0.150339
H	-0.0681421665	 1.8177413777	-0.9618974192	 0.148781
H	-0.8428988329	 1.8490974005	 0.6365546452	 0.150353
H	-0.1766087546	-0.4027144778	-2.0571450421	 0.127624
H	 0.2273620785	-2.2771342055	 3.8792519621	 0.135091
H	 0.0544682927	-4.0641423253	 1.8266249372	 0.119827
81.4004	143.5886	216.8291	240.8677	356.4653	530.5421	580.9336	620.0988	621.5933	690.8832	703.1042	751.5317	787.2227	810.2706	832.1372	906.2837	1002.1436	1056.2121	1102.0473	1141.2779	1153.5821	1238.5739	1252.4518	1307.4923	1349.2096	1437.652	1467.1292	1479.9053	1480.4043	1509.4254	1527.5786	1584.7663	1609.4754	3039.6725	3100.0752	3139.6361	3243.3646	3258.4651	3295.5317
CN1C=NC2=C1OC=C2	Cn1cnc2c1occ2	
InChI=1S/C6H6N2O/c1-8-4-7-5-2-3-9-6(5)8/h2-4H,1H3	InChI=1S/C6H6N2O/c1-8-4-7-5-2-3-9-6(5)8/h2-4H,1H3
