20
gdb 11377	4.20378	1.24719	1.124	1.711	77.32	-0.235	0.0248	0.2598	1146.7718	0.177326	-349.025043	-349.016581	-349.015637	-349.058153	31.921	
C	 0.0302351097	 1.4682146673	 0.2757751147	-0.373172
C	-0.0442484647	-0.0148962724	-0.1295951077	-0.295414
C	-1.4376350971	-0.570013147	-0.1030379357	 0.341306
C	-2.1443216264	-1.0311752581	-1.1410039254	-0.189817
C	-3.5326405931	-1.4720737414	-0.7419096526	-0.272826
C	-3.4158109814	-1.6047889069	 0.7979752213	 0.130565
O	-3.1180004336	-2.9411899124	 1.1827616856	-0.437005
C	-2.2643664199	-0.6388135825	 1.1697840835	-0.321911
H	 1.0627548177	 1.8287202844	 0.2407135027	 0.114068
H	-0.5694669326	 2.0876870147	-0.3986104073	 0.120021
H	-0.3425805745	 1.6238409782	 1.2930457309	 0.121301
H	 0.3794670357	-0.1418692955	-1.1322633462	 0.1006
H	 0.5911586117	-0.5951639717	 0.5548233166	 0.101394
H	-1.785781798	-1.0603698584	-2.1650317155	 0.083596
H	-4.2837657419	-0.7209838336	-1.0256454212	 0.104206
H	-3.8516611262	-2.4218599931	-1.1848404289	 0.105732
H	-4.3485056501	-1.3654378177	 1.3143008165	 0.080672
H	-2.3072964138	-3.1929064972	 0.7251432715	 0.277538
H	-1.7118202791	-1.0145222441	 2.0388245647	 0.103611
H	-2.6474396324	 0.3545350473	 1.4422087925	 0.105532
63.8275	98.9138	169.0612	214.9622	284.9171	350.8873	370.7873	390.7872	446.898	501.9468	615.2539	767.7965	787.1895	819.3918	856.2821	872.4311	892.3659	949.2851	964.9469	968.4564	1039.6902	1060.1	1066.5555	1098.7155	1149.9676	1171.3962	1194.3757	1257.8298	1268.4139	1295.0401	1305.417	1319.4661	1352.6828	1367.4078	1405.1744	1432.9082	1471.3762	1479.8963	1482.2331	1498.2595	1507.7927	1705.3516	3004.2566	3005.976	3011.6781	3036.8009	3058.3484	3061.4305	3065.8713	3087.5621	3108.6086	3109.1896	3180.7662	3790.0708
CCC1=CCC(O)C1	CCC1=CC[C@@H](O)C1	
InChI=1S/C7H12O/c1-2-6-3-4-7(8)5-6/h3,7-8H,2,4-5H2,1H3	InChI=1S/C7H12O/c1-2-6-3-4-7(8)5-6/h3,7-8H,2,4-5H2,1H3/t7-/m1/s1
