21
gdb 100903	2.16064	1.12599	0.78974	2.122	81.57	-0.2511	0.0558	0.3069	1482.5174	0.178164	-424.175527	-424.164166	-424.163222	-424.212496	39.998	
C	 0.0568907024	 1.3758255521	 0.117684298	-0.238296
O	-0.0990341044	-0.0094962355	-0.0860023127	-0.245777
C	 0.641968652	-0.5425281078	-1.1769151553	 0.121758
C	 2.1279154929	-0.6733015768	-0.8390186607	-0.411407
C	-0.0087989055	-1.9086689176	-1.5072785961	-0.169753
C	-1.5108413073	-1.7591137137	-1.8040131344	-0.088387
O	-2.0561289916	-3.0614378163	-1.9295349779	-0.418834
C	 0.6768691421	-2.5659942704	-2.6171347239	 0.33868
C	 1.2378083722	-3.0770334796	-3.549444765	-0.472152
H	 1.0727802517	 1.6455076283	 0.4391074965	 0.110827
H	-0.1802183881	 1.9492152002	-0.7922160445	 0.104599
H	-0.6422030056	 1.663679385	 0.9069348811	 0.128295
H	 0.5226813707	 0.1172406062	-2.053129472	 0.072345
H	 2.6714512028	-1.1223598274	-1.672928997	 0.138428
H	 2.5730996839	 0.3033895676	-0.6310801806	 0.113482
H	 2.2569171276	-1.3054189663	 0.0454903264	 0.123033
H	 0.0769464961	-2.5372636278	-0.6105781557	 0.119372
H	-1.9697242328	-1.203049098	-0.9787584602	 0.10834
H	-1.6384321113	-1.1766086956	-2.7303167635	 0.085547
H	-2.9995334038	-2.9743453366	-2.0925011091	 0.287376
H	 1.7275261461	-3.5489283101	-4.3647705534	 0.192524
52.1837	71.0358	95.3099	143.0773	168.7224	195.4278	204.2892	234.9151	252.3457	293.3884	353.208	367.3178	451.1808	467.3859	542.0469	594.1293	629.3292	638.0849	838.6654	863.2605	934.8148	1015.615	1055.5607	1089.1864	1103.1934	1122.1027	1123.8175	1162.0419	1182.323	1216.7179	1245.3428	1249.8458	1286.958	1344.0098	1370.1025	1379.8062	1402.552	1448.9952	1477.9923	1484.2383	1491.8678	1503.2746	1512.5494	1526.7022	2235.7419	2960.1173	2976.5413	2979.8776	3027.0798	3030.5665	3046.8141	3059.7427	3111.1178	3115.7281	3136.2512	3505.6258	3835.042
COC(C)C(CO)C#C	CO[C@@H](C)[C@@H](CO)C#C	
InChI=1S/C7H12O2/c1-4-7(5-8)6(2)9-3/h1,6-8H,5H2,2-3H3	InChI=1S/C7H12O2/c1-4-7(5-8)6(2)9-3/h1,6-8H,5H2,2-3H3/t6-,7+/m0/s1
