14
gdb 28184	5.32637	1.33358	1.06801	3.0258	70.24	-0.1799	0.0412	0.2211	1044.4153	0.104132	-432.901327	-432.894213	-432.893268	-432.932639	27.573	
N	 0.1049244672	 1.3139049055	 0.1446216043	-0.587965
C	-0.0493144187	-0.0491068833	 0.0410033563	 0.406661
N	-1.1444283716	-0.7370205606	 0.0238517459	-0.414647
C	-0.6880418894	-2.0667511938	 0.0329621817	 0.241791
C	 0.6744888136	-2.0450531174	 0.0451237847	 0.366427
N	 1.1981458578	-3.2937157697	-0.0338479498	-0.409103
C	 0.1015929306	-4.1612038145	-0.0602837164	-0.077419
C	-1.0746164307	-3.4373058259	-0.0301015756	-0.302003
O	 1.1448308496	-0.7666520703	 0.0438173634	-0.246408
H	 0.8987956163	 1.6814377224	-0.3618106449	 0.26139
H	-0.7529852061	 1.8031460036	-0.0680868297	 0.2705
H	 2.1623988607	-3.5667482339	 0.0248342197	 0.270041
H	 0.2657597906	-5.2258311979	-0.0806240056	 0.119614
H	-2.0671656498	-3.8581658543	-0.053336694	 0.101123
111.4999	227.4356	278.6459	314.3425	331.0504	361.5705	539.8999	591.2885	605.4502	634.1413	654.6015	733.5681	748.6435	762.9746	814.2773	834.437	898.8833	949.6745	1053.8107	1091.1981	1131.9623	1170.3204	1274.0615	1345.5385	1366.886	1463.8594	1486.1324	1580.2864	1596.9049	1607.7798	1690.9341	3256.4848	3278.217	3559.8538	3667.0104	3695.1207
NC1=NC2=C(NC=C2)O1	Nc1nc2c([nH]cc2)o1	
InChI=1S/C5H5N3O/c6-5-8-3-1-2-7-4(3)9-5/h1-2,7H,(H2,6,8)	InChI=1S/C5H5N3O/c6-5-8-3-1-2-7-4(3)9-5/h1-2,7H,(H2,6,8)
