19
gdb 73286	2.37362	1.73578	1.34216	1.0166	70.32	-0.2398	0.0715	0.3114	1018.156	0.160737	-460.142903	-460.135118	-460.134173	-460.174948	30.795	
O	 0.0873956451	 1.4249723276	-0.0167914501	-0.479309
C	 0.0573136447	 0.0210802391	-0.0380895604	 0.324416
C	 0.1653262675	-0.6149539013	-1.4326033196	-0.116985
O	-0.8782655108	-1.5562534125	-1.089520349	-0.302331
C	-1.3273529195	-0.6871159525	-0.0169226248	 0.097989
C	-1.7825590052	-1.3895724329	 1.2508441225	-0.250684
C	-0.6011052281	-1.8801419841	 2.0926821784	-0.081339
O	 0.382562036	-0.8609086182	 2.2261112526	-0.250966
C	 1.0136179905	-0.6196110743	 0.9812561725	-0.156569
H	 0.0613725949	 1.7092908195	 0.9038587888	 0.2862
H	-0.1472861009	 0.0749522201	-2.2275473755	 0.106728
H	 1.0998066834	-1.1120741272	-1.7123152822	 0.104755
H	-2.1057515109	-0.0055696938	-0.3891584958	 0.074746
H	-2.3648033473	-0.6721630954	 1.8414150495	 0.107414
H	-2.4518582412	-2.219627229	 0.9962291905	 0.114444
H	-0.9222806805	-2.1378445219	 3.1052779467	 0.108221
H	-0.1467735609	-2.7742693848	 1.6381178337	 0.102209
H	 1.4144916572	-1.5633631229	 0.5810007225	 0.10046
H	 1.850958866	 0.0600579544	 1.1680316497	 0.110602
113.3516	157.1392	256.853	305.3425	321.49	357.4827	398.182	437.7732	490.8745	514.2892	652.6152	669.6804	793.6721	849.343	874.4353	910.6971	971.5994	987.067	992.0106	997.0413	1041.9645	1073.0113	1113.7741	1124.7322	1159.3415	1185.749	1215.5074	1252.5494	1269.1043	1290.8564	1328.5988	1337.3958	1364.7939	1378.9021	1404.337	1415.3398	1423.6419	1458.3637	1483.5864	1503.4298	1519.2669	2986.1859	2989.5145	2996.5023	3017.5353	3035.6836	3077.6965	3079.0176	3082.8972	3094.8135	3800.2817
OC12COC1CCOC2	O[C@]12CO[C@H]1CCOC2	
InChI=1S/C6H10O3/c7-6-3-8-2-1-5(6)9-4-6/h5,7H,1-4H2	InChI=1S/C6H10O3/c7-6-3-8-2-1-5(6)9-4-6/h5,7H,1-4H2/t5-,6+/m0/s1
