19
gdb 80682	3.34488	1.16175	1.08798	1.5954	75.32	-0.2324	0.065	0.2974	1193.9532	0.159361	-422.958536	-422.950499	-422.949555	-422.991371	31.464	
O	 0.1960024522	 1.3069460682	-0.1284402037	-0.433599
C	 0.0016401873	-0.0713996045	-0.0682432833	 0.126269
C	-0.416600389	-0.7398278426	 1.1905977861	 0.018228
O	-1.261470179	 0.1638107253	 1.9181298611	-0.328274
C	-2.309669843	 0.0353139656	 0.8868712353	 0.117918
C	-2.9112252449	 1.3267381154	 0.4286298937	-0.008685
C	-4.3505488102	 1.3291724028	-0.0381324067	-0.27086
C	-3.9857360887	 1.9757802926	 1.2690022471	-0.264606
C	-1.3586095393	-0.754793756	-0.0108312996	-0.212089
H	-0.071388365	 1.6443401868	 0.7381296927	 0.294768
H	 0.7246045885	-0.6113135006	-0.6736517298	 0.109211
H	 0.1010638619	-1.5099446765	 1.7515307623	 0.102588
H	-3.0923406767	-0.6164717775	 1.2982506443	 0.080413
H	-2.2304760624	 1.9826163478	-0.1009725206	 0.104344
H	-4.6047558978	 1.9627115213	-0.8799195839	 0.117973
H	-4.8978746561	 0.3924777183	-0.0073283107	 0.112551
H	-4.2802955904	 1.4740020571	 2.1847659717	 0.118649
H	-3.9936663294	 3.0578068245	 1.3327923741	 0.116424
H	-1.644979488	-1.556042288	-0.6793173302	 0.098778
74.0796	130.8467	161.8192	250.1057	291.2059	365.1454	444.2531	471.3816	549.1551	659.8498	734.386	769.1251	804.6097	816.5836	847.811	879.5549	907.0224	933.8289	948.8267	979.1962	1007.2	1024.5598	1053.6316	1058.8239	1065.9078	1080.5601	1092.4614	1149.6678	1183.5102	1199.6741	1208.1305	1226.9517	1249.2962	1273.4755	1314.0026	1331.6914	1364.4265	1440.9071	1456.0326	1471.1119	1504.9882	3009.826	3132.7319	3137.5529	3155.3493	3173.0393	3184.3792	3199.833	3212.102	3227.4836	3743.4678
OC1C2OC(C3CC3)C12	O[C@H]1[C@H]2O[C@@H](C3CC3)[C@@H]12	
InChI=1S/C7H10O2/c8-5-4-6(3-1-2-3)9-7(4)5/h3-8H,1-2H2	InChI=1S/C7H10O2/c8-5-4-6(3-1-2-3)9-7(4)5/h3-8H,1-2H2/t4-,5-,6+,7+/m1/s1
