20
gdb 51626	4.52478	0.96515	0.94194	3.3497	81.79	-0.2533	0.0265	0.2798	1321.395	0.1732	-403.13744	-403.12954	-403.128596	-403.17094	30.414	
N	-0.0568571126	 1.2613928427	 0.1211015028	-0.445446
C	-0.0350877563	 0.0021984707	 0.0254517629	 0.119454
O	-1.1839229441	-0.6928414081	-0.0340365835	-0.196187
C	-1.0988360221	-2.1196465779	 0.0031381027	 0.141384
C	-1.3022520446	-2.7062817645	 1.4384992522	-0.247679
C	-2.5943056253	-3.5076475526	 1.185726412	-0.013771
C	-2.2671456851	-4.1965026937	-0.1722299106	-0.230378
C	-2.3163262113	-2.7316805903	-0.6983775869	-0.041032
C	-3.442783469	-2.5033124783	 0.3526301632	-0.221516
H	 0.8947964143	 1.6225524336	 0.1264179724	 0.226456
H	 0.8629602234	-0.6299648647	-0.0319084074	 0.080857
H	-0.1534666973	-2.4331497768	-0.4552259268	 0.07765
H	-0.4669937178	-3.33685828	 1.7571297396	 0.096801
H	-1.4309155473	-1.9023452146	 2.1677997344	 0.116634
H	-3.0132196202	-4.0582708843	 2.0278204026	 0.063976
H	-1.3271404355	-4.7515261914	-0.2589358301	 0.087881
H	-3.0939980987	-4.7974833121	-0.5561209488	 0.102821
H	-2.4401600137	-2.4899068667	-1.7535077732	 0.069294
H	-4.3952471113	-2.9289186738	 0.0299381823	 0.098389
H	-3.5849335952	-1.491748647	 0.7384616901	 0.114412
38.1193	105.3377	121.0328	274.9464	357.3719	394.5844	440.5764	514.9722	643.9607	679.3698	817.8525	830.8085	834.3343	852.816	871.3195	880.4841	944.0607	959.4531	974.9345	1000.5383	1033.8736	1035.8958	1045.7515	1083.0443	1089.3101	1106.9629	1122.554	1140.9666	1190.7223	1226.673	1239.2907	1247.4983	1270.5315	1294.8057	1301.4998	1323.7056	1337.104	1391.9216	1429.9098	1487.4733	1489.7164	1526.2338	1743.0654	3008.2069	3032.2818	3047.0081	3057.5742	3070.5381	3108.4369	3114.6502	3118.0543	3124.8668	3132.5405	3516.2635
N=COC1CC2CC1C2	[NH][CH]O[C@H]1C[C@@H]2C[C@H]1C2	
InChI=1S/C7H11NO/c8-4-9-7-3-5-1-6(7)2-5/h4-8H,1-3H2	InChI=1S/C7H11NO/c8-4-9-7-3-5-1-6(7)2-5/h4-8H,1-3H2/t5-,6+,7-/m0/s1
