22
gdb 62651	2.54675	1.5989	1.46829	1.5869	86.41	-0.2233	0.084	0.3074	1066.5058	0.192866	-367.130801	-367.121942	-367.120998	-367.163323	35.318	
C	-0.1369521724	 1.5855404466	-0.0159296104	-0.470115
C	-0.0557704587	 0.0624200819	-0.0005486406	 0.272419
C	-1.3957762195	-0.5868558943	-0.3388898629	-0.464162
C	 1.1926785527	-0.5795151525	-0.6341041798	-0.039025
C	 2.1414441856	-0.2170562213	 0.5454988874	-0.123774
C	 2.5548090476	-1.6789094396	 0.6318897158	-0.204448
N	 1.0828941186	-1.8347344846	 0.2742170238	-0.198393
C	 0.7456924585	-0.5856826528	 1.1589383888	 0.344879
C	 0.3609365367	-0.7289043372	 2.6022608385	-0.527456
H	 0.8204222456	 2.0571870378	 0.2243999641	 0.113778
H	-0.4486898917	 1.9474466212	-1.0023652641	 0.115815
H	-0.8777903855	 1.9429742256	 0.7084989249	 0.115063
H	-1.733734917	-0.2808131122	-1.3358124088	 0.108522
H	-1.32006478	-1.6758884167	-0.3197255912	 0.14181
H	-2.1697109256	-0.2790375639	 0.3740389687	 0.107468
H	 1.4624158262	-0.6946649299	-1.6870788372	 0.070343
H	 2.7302963844	 0.6942102853	 0.6931398837	 0.062178
H	 3.229344649	-2.0686258423	-0.1379927032	 0.096964
H	 2.8191797997	-2.0944952617	 1.6098628797	 0.096556
H	 1.1147659983	-1.2893455888	 3.1650101829	 0.125259
H	 0.252661094	 0.2548435704	 3.0719597632	 0.123714
H	-0.5928486265	-1.2582788909	 2.6954424868	 0.132606
179.3367	190.4414	202.3502	207.1617	240.9979	247.7697	317.35	334.4845	352.1045	514.7513	542.7819	607.9265	638.2509	717.3593	803.1965	827.2508	850.2086	888.1937	915.2962	925.0761	950.8847	966.1958	1008.2939	1022.7122	1075.6325	1088.9647	1102.4484	1135.5631	1155.3993	1172.3852	1190.0377	1202.7396	1231.9752	1254.5407	1279.5039	1309.0037	1361.3721	1397.2219	1408.8048	1419.0247	1481.306	1483.586	1486.1466	1489.6085	1507.6164	1510.3938	1524.2369	3024.6765	3028.7747	3030.7527	3032.5354	3046.7362	3080.5322	3082.5666	3086.3753	3089.0331	3099.0162	3103.6233	3106.0223	3129.8412
CC1(C)C2C3CN2C13C	CC1(C)[C@H]2[C@@H]3CN2[C@]13C	
InChI=1S/C8H13N/c1-7(2)6-5-4-9(6)8(5,7)3/h5-6H,4H2,1-3H3	InChI=1S/C8H13N/c1-7(2)6-5-4-9(6)8(5,7)3/h5-6H,4H2,1-3H3/t5-,6+,8-/m0/s1
