16
gdb 34573	4.37667	1.10288	1.00326	4.3328	77.51	-0.2644	-0.0488	0.2156	1167.0703	0.126354	-400.759618	-400.752389	-400.751444	-400.791625	27.414	
N	 0.0249030953	-1.1686500196	-0.0826587074	-0.330835
C	-0.0282023745	-0.0123898853	-0.0331343384	 0.203549
C	-0.050619466	 1.4083536043	 0.0279193351	 0.202626
C	-1.1541598739	 2.1658841774	-0.0709697457	-0.1678
C	-0.8513090037	 3.6272424027	 0.0549480312	-0.119454
C	-0.9881383334	 4.2070330528	 1.4867613818	-0.076965
O	 0.4183800124	 4.0096997274	 1.7352033846	-0.285237
C	 0.6728252885	 3.6580695928	 0.35758647	 0.109279
C	 1.2169324691	 2.231870778	 0.197616839	-0.330265
H	-2.1554013597	 1.7731809634	-0.2042041824	 0.124772
H	-1.2575912936	 4.2375014958	-0.754273533	 0.097325
H	-1.2630446744	 5.2692760164	 1.5128286397	 0.106759
H	-1.6160860571	 3.6495403894	 2.1900195715	 0.113616
H	 1.2804528029	 4.4181005466	-0.1438564374	 0.083508
H	 1.7881238522	 1.9420240438	 1.085467067	 0.144322
H	 1.8789651559	 2.1250984341	-0.6696643656	 0.1248
97.9501	147.878	166.5114	288.9819	367.8635	443.3842	533.7849	565.4037	572.8006	672.6257	817.4224	858.3782	870.6351	881.6817	899.7364	909.2093	999.2351	1012.0595	1042.7118	1062.2833	1080.1426	1143.7078	1167.1756	1182.407	1227.3313	1254.1987	1280.7386	1309.8435	1325.1302	1357.3424	1359.009	1466.2821	1522.5379	1666.016	2337.5128	3015.7334	3038.7184	3057.8782	3071.7885	3088.4352	3092.0966	3208.3417
N#CC1=CC2COC2C1	N#CC1=C[C@H]2CO[C@H]2C1	
InChI=1S/C7H7NO/c8-3-5-1-6-4-9-7(6)2-5/h1,6-7H,2,4H2	InChI=1S/C7H7NO/c8-3-5-1-6-4-9-7(6)2-5/h1,6-7H,2,4H2/t6-,7-/m0/s1
