15
gdb 131746	4.64741	1.05597	0.86507	2.5558	74.44	-0.2481	-0.081	0.167	1259.5754	0.112155	-453.921752	-453.913596	-453.912651	-453.95502	29.658	
O	 0.1379736992	 1.42995591	 0.1377790812	-0.418462
C	 0.0552703317	 0.0346655572	 0.1196160237	-0.102579
C	-1.345053046	-0.4951728469	-0.0868727867	 0.304508
N	-2.2595097823	 0.3979092996	-0.2171256699	-0.147046
O	-3.5719316466	-0.0217029471	-0.4106492212	-0.299681
C	-3.933594002	-1.3630767767	-0.4674690138	 0.403301
N	-5.1445291734	-1.6975203353	-0.6445006242	-0.521302
C	-2.8628047044	-2.3330612926	-0.3153036095	-0.113868
C	-1.6013843857	-1.9193790641	-0.1298982435	-0.152242
H	-0.7587330743	 1.7685008235	 0.0073439436	 0.303525
H	 0.6930858696	-0.3789625075	-0.6799344106	 0.117492
H	 0.438688697	-0.3864161332	 1.0645086322	 0.117518
H	-5.7428779025	-0.8740937335	-0.728483571	 0.232803
H	-3.1530743048	-3.3751504207	-0.3615959937	 0.147038
H	-0.7750684456	-2.6119675529	-0.0122699966	 0.128996
67.6363	92.9033	197.9236	203.8075	287.3686	322.9329	376.3291	443.7056	523.6065	555.0908	626.3252	712.7828	770.1334	802.46	838.902	877.5406	943.5856	1017.4474	1027.3702	1031.031	1082.1417	1110.8662	1168.4126	1229.5397	1254.8979	1304.8462	1330.6587	1432.5718	1459.1565	1506.5609	1631.0323	1684.3283	1737.5272	2964.3191	2977.1748	3192.2743	3226.6164	3481.3649	3736.9644
OCC1=NOC(=N)C=C1	OCC1=NOC(=C[CH]1)[NH]	
InChI=1S/C5H6N2O2/c6-5-2-1-4(3-8)7-9-5/h1-2,6,8H,3H2	InChI=1S/C5H6N2O2/c6-5-2-1-4(3-8)7-9-5/h1-2,6,8H,3H2
