17
gdb 30243	4.19978	1.17826	0.98073	3.1034	76.03	-0.1914	0.0356	0.227	1197.6047	0.137466	-418.015795	-418.007774	-418.00683	-418.04896	30.111	
C	-0.2609220721	 1.5260433886	 0.0626436015	-0.397486
C	-0.0149937547	 0.0215728724	 0.0600896597	-0.13996
C	 0.6275940508	-0.593438499	-1.2556898701	-0.186656
N	 1.7309614798	-1.0665311223	-0.39736637	 0.01827
C	 3.0454246811	-1.4429879501	-0.1662387539	-0.275914
C	 3.2209203856	-1.0862181188	 1.1599963545	 0.336046
O	 4.3291717442	-1.3089958113	 1.9004879119	-0.432576
N	 2.1197879801	-0.467202085	 1.7147725109	-0.45681
C	 1.259130388	-0.4880375038	 0.717893845	 0.364572
H	 0.6268652525	 2.0729204688	-0.2702240296	 0.127239
H	-1.0963266145	 1.7880242123	-0.5947488729	 0.119773
H	-0.505655985	 1.8696193059	 1.0719878951	 0.138137
H	-0.9192483505	-0.5131115164	 0.3693988878	 0.100627
H	 0.0731110433	-1.3945306102	-1.7520040308	 0.124798
H	 0.9349998331	 0.1598503979	-1.986932376	 0.129472
H	 3.6753838275	-1.9641650035	-0.8633368683	 0.129852
H	 4.1418213107	-0.9463654055	 2.7747261653	 0.300617
37.391	139.7756	219.5173	262.304	283.5082	372.2108	374.7279	431.3313	541.8633	593.6985	647.8563	694.5137	728.4506	749.0625	811.0599	885.6802	922.5719	997.3096	1020.4053	1086.0663	1118.772	1128.1473	1136.9802	1170.6484	1226.7128	1237.9071	1265.2742	1332.9849	1355.9735	1411.1409	1429.7638	1462.4283	1492.0591	1495.621	1511.4177	1568.1296	1623.0395	3036.6438	3049.5477	3052.2606	3106.7524	3108.3913	3114.8848	3301.174	3804.756
CC1CN2C=C(O)N=C12	C[C@H]1Cn2cc(O)nc12	
InChI=1S/C6H8N2O/c1-4-2-8-3-5(9)7-6(4)8/h3-4,9H,2H2,1H3	InChI=1S/C6H8N2O/c1-4-2-8-3-5(9)7-6(4)8/h3-4,9H,2H2,1H3/t4-/m0/s1
