19
gdb 39761	4.71592	1.30408	1.1906	1.896	79.43	-0.2523	0.0976	0.3499	1075.3992	0.161501	-385.830344	-385.823592	-385.822648	-385.861231	28.144	
C	 0.0523240725	 1.523158854	 0.0333884556	-0.316938
O	 1.2136139805	 0.6539488152	 0.0169040944	-0.30581
C	-0.0691309408	 0.0742790237	-0.0011152292	 0.552329
C	-0.6115979572	-1.0074294513	 0.9259375648	-0.182276
C	-1.8459464544	-1.1270971952	-0.0354516458	 0.003655
C	-2.299457132	-2.5877915978	-0.0713684568	-0.243226
C	-0.9159969459	-3.2968300529	-0.0833219358	-0.248511
C	 0.0023578208	-2.075217905	-0.0514434655	 0.005505
C	-0.6050821075	-0.9625463694	-0.9816967347	-0.182275
H	-0.1002179332	 2.0672754082	 0.9647090932	 0.11513
H	-0.0939445554	 2.1104990825	-0.8723304374	 0.11513
H	-0.6181440466	-1.0357373201	 2.0162643092	 0.073027
H	-2.6054437931	-0.3436013027	-0.019611178	 0.063542
H	-2.9030565119	-2.8506810602	 0.8029721182	 0.099102
H	-2.89702423	-2.8091726562	-0.9612104865	 0.099102
H	-0.7656356374	-3.9464579644	 0.7845718815	 0.099813
H	-0.7596061621	-3.9049521991	-0.979755822	 0.099813
H	 1.0821514296	-2.2238404928	-0.0512525591	 0.079863
H	-0.6041752758	-0.9395445766	-2.072167576	 0.073027
156.0872	226.508	243.0789	310.8748	446.6176	472.113	570.3484	717.0535	742.0482	743.6592	781.4074	830.6218	857.6002	887.3001	896.9885	927.8852	958.5982	964.6051	995.0992	1018.5774	1027.9202	1060.1255	1084.2762	1111.0383	1111.3891	1130.5222	1149.3884	1156.9817	1173.9263	1202.7082	1209.7711	1250.6201	1252.0673	1261.3512	1283.9319	1315.3157	1372.4103	1467.8512	1489.3778	1510.8991	1562.9227	3043.9859	3053.4957	3077.3509	3080.0192	3096.8332	3100.6587	3106.1817	3111.1467	3125.36	3164.0325
C1OC11C2C3CCC2C13	C1O[C@]21[C@H]1[C@@H]3CC[C@H]1[C@H]23	
InChI=1S/C8H10O/c1-2-5-6-4(1)7(5)8(6)3-9-8/h4-7H,1-3H2	InChI=1S/C8H10O/c1-2-5-6-4(1)7(5)8(6)3-9-8/h4-7H,1-3H2/t4-,5+,6-,7+,8-
