15
gdb 5677	5.09669	2.18053	1.54188	1.8147	75.73	-0.1847	-0.0095	0.1751	785.9229	0.12255	-325.572534	-325.566734	-325.56579	-325.60217	23.542	
C	-0.0618192698	 1.4574116663	 0.0105292744	-0.243181
C	 1.3973934768	 1.8733670071	-0.0012181898	-0.10848
C	 2.1889322927	 0.7857843869	-0.0146726109	-0.200621
C	 1.3654455637	-0.4075260055	-0.0132749249	 0.360837
C	 1.37871543	-1.788601299	-0.0207237805	-0.315716
C	 0.0167139637	-2.2049908047	-0.0099781809	-0.137606
C	-0.7824443427	-1.0759388403	 0.0038446962	-0.12899
N	 0.0493030585	 0.0075703691	 0.0015462309	-0.010576
H	-0.5911603454	 1.8159907677	 0.9028334035	 0.132836
H	-0.608177418	 1.8256718627	-0.8674600963	 0.132831
H	 1.7061848871	 2.9087983018	 0.0014088697	 0.107027
H	 3.2701114205	 0.7800610682	-0.0250521697	 0.111455
H	 2.2503981502	-2.4241282218	-0.0324629045	 0.094224
H	-0.3429474301	-3.2230367466	-0.0120484375	 0.092456
H	-1.8556401871	-0.9702163419	 0.0147106702	 0.113505
170.7968	240.0363	438.4599	442.8617	604.9837	657.5408	671.3437	709.6277	731.2593	743.3242	764.8087	828.5779	862.0604	920.7112	940.2018	954.0049	991.2751	1036.469	1069.0601	1108.2989	1178.5135	1186.8205	1237.4264	1286.3223	1323.5127	1347.6549	1401.2814	1445.9801	1477.6689	1511.6328	1585.1737	1625.8932	3018.519	3046.2342	3226.0631	3238.9287	3248.3343	3255.0716	3266.4687
C1C=CC2=CC=CN12	C1C=Cc2cccn12	
InChI=1S/C7H7N/c1-3-7-4-2-6-8(7)5-1/h1-5H,6H2	InChI=1S/C7H7N/c1-3-7-4-2-6-8(7)5-1/h1-5H,6H2
