15
gdb 62535	2.45617	1.42968	1.18183	3.8026	66.12	-0.2644	-0.0177	0.2467	1071.344	0.111622	-453.971639	-453.962828	-453.961883	-454.005168	31.681	
C	-0.0814417566	 1.5232858077	-0.1375406329	-0.439749
C	-0.0559442213	 0.0032548601	-0.0098351932	 0.077608
N	-1.3932067126	-0.5185431247	 0.0738888287	-0.540062
C	 0.8869295027	-0.7069451306	-1.0497573789	-0.053469
O	 1.8402540629	-1.0184450517	 0.0076219725	-0.249487
C	 1.0247487658	-0.4839125414	 0.9917216506	 0.434644
O	 1.2148100565	-0.4796923322	 2.1613110018	-0.312015
C	 0.363843134	-1.9112446871	-1.6814214898	 0.315267
N	-0.0721108385	-2.8604126302	-2.1748028813	-0.315108
H	 0.9215463723	 1.9301602378	-0.2907324036	 0.139824
H	-0.7205460318	 1.8119467549	-0.9761511155	 0.148082
H	-0.4842752631	 1.9648265486	 0.7791659752	 0.145206
H	-1.4115581137	-1.5089465023	 0.2946173512	 0.25551
H	-1.9268824064	-0.029296267	 0.7840073295	 0.249192
H	 1.3374047698	-0.0493830219	-1.7963619244	 0.144555
76.862	139.997	174.7281	212.8508	219.3652	262.3791	292.0993	341.1949	382.0949	488.803	529.5477	640.7235	696.207	731.125	773.4788	825.0753	868.7184	934.112	997.2376	1040.3377	1051.6408	1085.3656	1149.4607	1227.8752	1270.8568	1344.4421	1368.6755	1409.4622	1486.8752	1494.0258	1664.6101	1948.5891	2364.454	3045.3919	3097.435	3119.3668	3131.1974	3512.8062	3596.9413
CC1(N)C(OC1=O)C#N	C[C@@]1(N)[C@@H](OC1=O)C#N	
InChI=1S/C5H6N2O2/c1-5(7)3(2-6)9-4(5)8/h3H,7H2,1H3	InChI=1S/C5H6N2O2/c1-5(7)3(2-6)9-4(5)8/h3H,7H2,1H3/t3-,5+/m0/s1
