13
gdb 45850	2.4952	1.77971	1.09679	1.3726	61.14	-0.2789	-0.0356	0.2432	1006.795	0.090638	-489.949683	-489.942425	-489.941481	-489.982007	26.276	
O	 0.0243678714	-0.0801383617	-0.0898903661	-0.313352
C	-0.0581150475	 1.1120243791	 0.05953	 0.40963
C	-1.3703483155	 1.878472091	 0.0364747889	-0.288376
N	-1.54769149	 2.7618688177	 1.1775880993	-0.206809
C	-0.7473431082	 3.7100132009	 1.3504094758	 0.128083
O	 0.3352638128	 4.078686068	 0.5673022881	-0.221348
C	 1.3463071949	 3.2410237331	 0.1806054965	 0.476154
O	 2.3988929396	 3.6957223954	-0.1578961847	-0.332052
N	 1.1054590497	 1.8725756336	 0.241631194	-0.394335
H	-1.4116099848	 2.4505475283	-0.9025229837	 0.148405
H	-2.1678486797	 1.1365421682	 0.0207320144	 0.155837
H	-0.8767831862	 4.4270045777	 2.1566874358	 0.15587
H	 1.9503843035	 1.3324800088	 0.0955702816	 0.282295
90.7419	121.4515	152.9293	318.5012	352.7186	426.2506	496.8223	559.401	582.097	655.5943	720.1663	764.2357	817.3625	862.7355	931.3614	959.0677	990.8532	1033.3942	1096.5138	1222.0656	1255.4001	1334.5978	1344.3414	1408.7909	1433.3221	1480.7822	1762.6848	1829.0134	1867.577	3007.7758	3140.1657	3185.0441	3581.7272
O=C1CN=COC(=O)N1	O=C1CN=COC(=O)N1	
InChI=1S/C4H4N2O3/c7-3-1-5-2-9-4(8)6-3/h2H,1H2,(H,6,7,8)	InChI=1S/C4H4N2O3/c7-3-1-5-2-9-4(8)6-3/h2H,1H2,(H,6,7,8)
