17
gdb 82089	2.59491	1.5966	1.18661	6.6754	67.66	-0.2407	0.0319	0.2726	1042.3336	0.138048	-455.1279	-455.120189	-455.119245	-455.160382	29.856	
N	-0.1387549236	 1.1597267949	-0.0962591796	-0.535555
H	-0.6356786206	 0.3602211437	-0.4846377702	 0.262302
H	 1.2064766967	 0.2305868312	 0.6397890943	 0.31546
H	-0.1831940772	 1.9226347057	-0.7618265249	 0.242726
C	-0.7535886483	 1.5125211906	 1.1800330677	-0.019183
C	-2.214793598	 1.0922547592	 1.4237711003	-0.06471
N	-2.2024496033	-0.3770973041	 1.2259855568	-0.340986
C	-1.8156666939	 0.19200447	 2.5394119621	-0.040969
C	-0.3487974991	 0.600608591	 2.413623209	-0.161396
C	 0.6775523427	-0.5262301231	 2.307618606	 0.416796
O	 1.525909976	-0.4585776389	 1.2758531654	-0.382011
O	 0.7362468354	-1.3952622754	 3.1376295217	-0.348361
H	-0.5629557373	 2.5655921598	 1.3926381459	 0.090649
H	-3.1167159816	 1.672736956	 1.2726856491	 0.10004
H	-3.1608874642	-0.712530043	 1.3037158619	 0.239051
H	-2.347670537	-0.0789186759	 3.440929469	 0.110011
H	-0.0452634065	 1.2311856381	 3.2542960956	 0.116134
75.1824	122.8933	235.0797	258.0019	331.9841	378.379	452.3585	510.0552	567.9337	635.9752	691.2963	753.0813	806.469	830.8253	845.8548	888.9768	916.9577	952.9816	975.8081	1008.0295	1017.4031	1027.322	1092.9332	1095.5111	1136.0055	1166.4348	1193.8131	1238.4429	1260.4842	1291.5508	1315.904	1335.8917	1372.4299	1420.8206	1479.6211	1636.6952	1853.6478	3074.4936	3102.4599	3188.049	3217.4994	3280.1605	3481.6431	3494.2731	3584.3041
[NH3+]C1C2NC2C1C([O-])=O	N[C@H]1[C@H]2N[C@H]2[C@H]1C(=O)O	
InChI=1S/C5H8N2O2/c6-2-1(5(8)9)3-4(2)7-3/h1-4,7H,6H2,(H,8,9)	InChI=1S/C5H8N2O2/c6-2-1(5(8)9)3-4(2)7-3/h1-4,7H,6H2,(H,8,9)/t1-,2+,3-,4+/m0/s1
