19
gdb 63874	2.13252	1.69844	1.28851	2.5534	76.68	-0.256	-0.039	0.217	1073.3158	0.156472	-423.007438	-422.998474	-422.99753	-423.040646	34.01	
C	-0.2813216367	 1.4555517547	-0.1076611188	-0.452649
C	-0.0202647014	-0.0427592345	 0.0125683927	 0.237374
C	-1.2911426281	-0.8690800008	-0.1886202327	-0.445042
C	 1.1901033301	-0.6050475558	-0.8366872992	-0.298152
C	 1.8898957393	-1.001531633	 0.4654505305	-0.033707
O	 2.0586002116	 0.1652482369	 1.2476233209	-0.278319
C	 0.7617862812	-0.4637311764	 1.2826549172	 0.304554
C	 0.3134468443	-0.9248543883	 2.6096701878	 0.059172
O	-0.8410739092	-1.0589731207	 2.9375487964	-0.264868
H	 0.6299964868	 2.0260113439	 0.0881397361	 0.130706
H	-0.6330465847	 1.7041000074	-1.1149621659	 0.11461
H	-1.0501932971	 1.7762709638	 0.6034002415	 0.124685
H	-1.6930458098	-0.6966747477	-1.1930423018	 0.112513
H	-1.09589955	-1.9414178832	-0.0833137881	 0.112381
H	-2.0535058022	-0.6000217512	 0.545876471	 0.142928
H	 0.904873618	-1.4592974199	-1.4544255964	 0.112915
H	 1.7446129033	 0.1179994278	-1.4396394187	 0.115281
H	 2.5511640725	-1.8371522754	 0.6690319715	 0.116662
H	 1.157349292	-1.1459315776	 3.2995572457	 0.088955
90.2738	164.4284	196.324	211.9256	237.0399	264.794	317.5032	347.4071	384.1311	454.2712	478.4567	548.8982	636.0443	691.1491	826.0089	840.8866	847.9299	929.0192	956.1679	962.9005	977.5364	1003.8974	1040.5751	1045.8949	1121.4103	1164.318	1208.8208	1228.4358	1259.2039	1272.5518	1317.0413	1367.183	1400.6726	1418.1309	1434.2149	1473.4021	1483.7065	1488.5698	1499.3588	1511.5621	1804.3377	2896.2012	3031.0167	3035.0318	3067.256	3095.5263	3097.5065	3121.5032	3125.9377	3129.1044	3177.909
CC1(C)CC2OC12C=O	CC1(C)C[C@H]2O[C@@]12C=O	
InChI=1S/C7H10O2/c1-6(2)3-5-7(6,4-8)9-5/h4-5H,3H2,1-2H3	InChI=1S/C7H10O2/c1-6(2)3-5-7(6,4-8)9-5/h4-5H,3H2,1-2H3/t5-,7-/m1/s1
