21
gdb 39671	3.69403	1.09679	1.03694	1.4992	83.66	-0.2331	0.0284	0.2616	1262.2042	0.184228	-387.082765	-387.074426	-387.073482	-387.116742	31.318	
C	-0.0407121872	 1.2918965121	-0.1662702793	-0.05438
C	 1.4638845581	 1.5160457472	 0.0797101578	-0.30861
C	 1.4142931734	 0.1228891085	 0.7519654144	 0.145736
O	 0.0089261258	-0.0217597112	 0.4255900206	-0.288215
C	 2.2714039895	-1.0109745473	 0.1979227869	-0.048138
C	 1.8762412741	-2.3906364444	 0.7970397544	-0.226805
C	 2.0691323883	-3.4200887771	-0.3439518089	-0.256475
C	 2.0605496836	-2.555425437	-1.5818527542	-0.069976
C	 2.1647184873	-1.260702513	-1.2926843257	-0.053989
H	-0.711078566	 1.9631529573	 0.3854090058	 0.099224
H	-0.3612768681	 1.2553809013	-1.2143442507	 0.102985
H	 2.0785628787	 1.5739358958	-0.8201197995	 0.110129
H	 1.719557088	 2.3469635034	 0.738672967	 0.108072
H	 1.5473664772	 0.1662357554	 1.8431217062	 0.06949
H	 3.3140416284	-0.7590565192	 0.4552772417	 0.072678
H	 2.4444523847	-2.6368072726	 1.697706543	 0.091316
H	 0.8174230846	-2.3514046396	 1.070666714	 0.126666
H	 3.0241351596	-3.9578438341	-0.2550477417	 0.10182
H	 1.2865976668	-4.1872419485	-0.3530399663	 0.103564
H	 2.0117797394	-2.9688149425	-2.5836399867	 0.088626
H	 2.2166747738	-0.4649327443	-2.027735919	 0.086281
56.575	73.4787	100.7148	205.2523	218.1188	365.4506	384.4795	575.0651	619.3265	738.1005	758.6088	778.0591	805.0678	852.8304	858.3689	919.2073	924.85	950.6358	971.5581	977.1758	992.1444	1020.9013	1039.9857	1061.085	1113.8763	1121.0367	1146.9536	1164.2906	1180.8151	1214.8635	1226.995	1254.3203	1267.0525	1285.0524	1311.0487	1324.1609	1335.3589	1369.2431	1376.6197	1407.3452	1480.5962	1491.073	1497.4914	1531.2319	1689.2469	2960.2148	2989.4725	3003.9476	3013.5494	3049.7225	3052.3816	3060.9642	3080.7377	3104.7983	3133.2987	3178.0368	3203.8712
C1CC(O1)C1CCC=C1	C1C[C@@H](O1)[C@H]1CCC=C1	
InChI=1S/C8H12O/c1-2-4-7(3-1)8-5-6-9-8/h1,3,7-8H,2,4-6H2	InChI=1S/C8H12O/c1-2-4-7(3-1)8-5-6-9-8/h1,3,7-8H,2,4-6H2/t7-,8-/m1/s1
