17
gdb 47407	2.78048	1.58303	1.22103	2.0692	67.95	-0.2306	-0.0392	0.1913	1036.3383	0.13595	-458.954205	-458.946302	-458.945358	-458.987378	29.035	
O	-0.1261554958	 0.0567765349	-0.2646090191	-0.30343
C	-0.0890908602	 1.2399486563	-0.06127705	 0.323954
C	-1.2618690716	 2.1884490832	 0.1683111704	-0.193013
O	-0.6810004282	 3.4073352982	 0.6007328762	-0.251768
C	 0.6060860463	 3.5156834187	-0.0083838876	-0.166831
C	 1.1869621162	 2.1053783843	 0.0077489559	 0.327903
C	 2.1995432706	 1.6631891585	 1.0966677518	-0.3371
C	 3.0842661253	 1.2736872767	-0.1031535281	-0.068307
O	 2.1237133424	 1.8183305451	-1.0401971714	-0.31002
H	-1.8204625408	 2.3064246621	-0.7759781322	 0.125943
H	-1.9521742859	 1.8209044673	 0.9322625043	 0.142458
H	 0.5339776569	 3.8567820204	-1.0539919684	 0.111907
H	 1.1825901055	 4.2462880218	 0.562510831	 0.117905
H	 2.5773869719	 2.4824034145	 1.7103583019	 0.119045
H	 1.8756615776	 0.8409187077	 1.7352427319	 0.129115
H	 4.0542637086	 1.7759220291	-0.1830623204	 0.109329
H	 3.2165190113	 0.1965661113	-0.2464959562	 0.12291
61.1286	84.3198	185.6473	212.4819	281.2385	342.9651	426.6905	541.5942	562.6518	652.4422	689.2472	778.5092	848.0175	877.8454	950.5556	952.3575	976.3081	983.5337	1026.3025	1073.8046	1096.2895	1124.5829	1160.7153	1191.8953	1204.7482	1233.0178	1236.4516	1253.4196	1262.0373	1321.3785	1351.1153	1380.5997	1472.3527	1481.48	1505.1454	1526.3148	1863.712	2967.1592	2982.4783	3036.8635	3082.3784	3085.4713	3096.5426	3107.5074	3143.9224
O=C1COCC11CCO1	O=C1COC[C@]21CCO2	
InChI=1S/C6H8O3/c7-5-3-8-4-6(5)1-2-9-6/h1-4H2	InChI=1S/C6H8O3/c7-5-3-8-4-6(5)1-2-9-6/h1-4H2/t6-/m0/s1
