19
gdb 106183	2.69848	1.52383	1.35923	0.9917	74.04	-0.2288	0.0684	0.2972	1033.1524	0.160871	-422.988269	-422.980574	-422.97963	-423.020566	30.185	
O	 0.1252443201	 1.3863063229	-0.0696402177	-0.412355
C	 0.0266498131	-0.0210251288	 0.1210169338	-0.209929
C	-1.3889257125	-0.5019518856	 0.0865265838	 0.291553
C	-2.0337320224	-1.8872750211	-0.0931565686	-0.169559
C	-2.9613238088	-1.6415837668	 1.0975119577	-0.23277
C	-2.5544537104	-0.1322569421	 1.0541707098	-0.117541
C	-3.5095419634	 0.6406584022	 0.1492526878	-0.083951
O	-3.4537661278	-0.0600575274	-1.1048046577	-0.272543
C	-2.2397946263	-0.7785985751	-1.1086756407	 0.0546
H	-0.2841006609	 1.5897107416	-0.9175381744	 0.283865
H	 0.6241284911	-0.5747295021	-0.621678914	 0.08812
H	 0.4789471374	-0.2103722607	 1.1012553662	 0.11127
H	-1.5587639895	-2.8248478475	-0.362322514	 0.084081
H	-4.0241299249	-1.8700029854	 0.9633731802	 0.10035
H	-2.5965302867	-2.133884682	 2.0019311779	 0.103919
H	-2.3139997391	 0.3560973338	 1.9976027824	 0.081455
H	-4.5478411289	 0.6332243797	 0.4962253281	 0.107262
H	-3.1816314594	 1.6836019694	 0.0190262592	 0.093734
H	-1.8097759407	-0.898530755	-2.0971417598	 0.09844
90.0748	117.0487	237.5799	255.7959	339.0496	376.0055	401.6968	498.8907	606.7436	648.5273	754.7526	786.098	833.1057	880.5923	881.4753	921.6411	942.8149	971.9677	999.6449	1014.578	1037.1265	1044.2077	1052.9839	1084.1817	1101.3982	1143.2247	1160.7004	1168.9786	1232.5045	1240.7603	1252.6422	1287.6646	1296.2817	1317.6586	1363.3475	1379.0705	1420.0419	1453.1466	1492.8718	1502.3431	1509.9614	2970.7231	2985.5434	3042.9801	3058.2621	3075.3955	3103.8668	3127.2989	3164.0252	3179.6268	3807.4149
OCC12C3CC1COC23	OC[C@@]12[C@H]3C[C@@H]1CO[C@@H]23	
InChI=1S/C7H10O2/c8-3-7-4-1-5(7)6(7)9-2-4/h4-6,8H,1-3H2	InChI=1S/C7H10O2/c8-3-7-4-1-5(7)6(7)9-2-4/h4-6,8H,1-3H2/t4-,5+,6-,7+/m1/s1
