20
gdb 111562	3.1971	1.4232	1.20851	1.2297	77.41	-0.2271	0.0684	0.2955	1101.86	0.173046	-403.086121	-403.078687	-403.077743	-403.118135	30.012	
C	 0.0278714892	 1.5532116449	-0.0956386063	-0.38616
C	 0.0083240209	 0.0266390164	 0.0434738841	-0.204046
C	-1.4063514748	-0.544811377	 0.133589401	 0.075745
C	-1.5225884131	-2.0777883505	 0.2793645441	-0.115173
N	-0.7399673674	-2.2988339204	 1.5500009947	-0.32606
C	-1.9183624505	-1.6691765703	 2.1991188381	-0.057237
C	-2.9035410531	-2.1071463995	 1.1095224644	 0.088239
O	-3.5313898133	-0.8259495106	 1.0346656077	-0.294066
C	-2.2204329755	-0.3113431143	 1.4316919729	 0.051221
H	 1.0535295239	 1.9255397749	-0.1803026523	 0.112241
H	-0.5197976686	 1.8819274666	-0.9861471315	 0.113214
H	-0.4293378982	 2.0447526379	 0.7699718993	 0.113266
H	 0.5097487439	-0.4207366849	-0.8248219844	 0.091276
H	 0.584502508	-0.2851709891	 0.918031493	 0.120588
H	-2.0171980879	-0.1854707137	-0.7009172408	 0.078496
H	-1.2996852698	-2.7173531319	-0.5733923165	 0.070166
H	-0.7720357113	-3.2928426957	 1.7770891337	 0.217
H	-2.0595242983	-1.7297823829	 3.2769471653	 0.081871
H	-3.5653871795	-2.9734063228	 1.0951423957	 0.085137
H	-2.2568178645	 0.666860833	 1.9068858976	 0.084283
83.9717	172.6775	187.0263	264.0388	363.6717	481.7069	517.7254	541.5275	687.1313	736.3115	762.8049	785.1571	838.7717	846.5502	869.6642	885.8249	927.8764	947.2112	959.2894	971.5716	1010.4692	1030.3419	1044.2002	1065.8929	1104.0841	1124.8552	1148.0812	1162.6013	1175.586	1186.4183	1216.615	1260.6959	1265.4665	1279.2358	1306.5512	1332.6755	1349.2934	1362.2188	1389.501	1413.9622	1493.0829	1500.4288	1509.5143	3024.3926	3029.7999	3058.1232	3084.6717	3100.9806	3109.4205	3116.8013	3131.9436	3136.2693	3147.6228	3456.2478
CCC1C2NC3C2OC13	CC[C@H]1[C@H]2N[C@@H]3[C@H]2O[C@H]13	
InChI=1S/C7H11NO/c1-2-3-4-7-5(8-4)6(3)9-7/h3-8H,2H2,1H3	InChI=1S/C7H11NO/c1-2-3-4-7-5(8-4)6(3)9-7/h3-8H,2H2,1H3/t3-,4+,5-,6+,7-/m0/s1
