15
gdb 125119	3.30072	1.29214	0.93403	3.2421	77.02	-0.2181	-0.0003	0.2178	1179.5411	0.111661	-416.800221	-416.791234	-416.790289	-416.83443	32.397	
C	 0.0564250727	 1.5506879502	-0.0086325723	-0.540891
C	 0.0446606551	 0.0547865227	-0.0112998707	-0.045573
C	 0.0499050569	-0.7973983765	-1.0954884911	 0.400992
O	 0.0567603545	-0.5963683709	-2.4308066494	-0.43313
N	 0.0391516957	-2.0650203089	-0.6240759818	-0.267458
N	 0.0259040575	-2.1241689596	 0.7257412115	-0.313839
C	 0.0300315872	-0.8400443532	 1.10056534	 0.164796
C	 0.0132700024	-0.4659185968	 2.4682845159	 0.286285
C	-0.0030002015	-0.0960685252	 3.6139118455	-0.433087
H	 1.0548764138	 1.9656243494	-0.195955792	 0.131819
H	-0.6215558779	 1.9693744164	-0.7631354823	 0.11425
H	-0.271088345	 1.925934181	 0.9643441412	 0.151035
H	 0.0780173159	 0.3514854734	-2.5986611545	 0.313613
H	 0.0346967973	-2.9133830942	-1.1648021677	 0.281058
H	-0.0158113745	 0.2105158123	 4.6302566278	 0.190129
37.0838	121.4129	137.4899	227.4433	241.1513	261.691	319.8615	402.5352	452.756	527.3975	529.6681	572.6819	588.0889	665.6149	684.1106	705.1833	745.6818	773.4707	960.4918	1063.6245	1116.1115	1156.6587	1180.0784	1253.5261	1363.6698	1411.7319	1419.5331	1459.2285	1487.784	1500.6782	1572.4035	1642.3812	2235.0184	3013.4421	3058.8237	3113.298	3504.1988	3674.5363	3832.8921
CC1=C(O)NN=C1C#C	Cc1c(O)[nH]nc1C#C	
InChI=1S/C6H6N2O/c1-3-5-4(2)6(9)8-7-5/h1H,2H3,(H2,7,8,9)	InChI=1S/C6H6N2O/c1-3-5-4(2)6(9)8-7-5/h1H,2H3,(H2,7,8,9)
