21
gdb 57446	2.66199	1.12558	0.98277	4.553	80.22	-0.2347	-0.0103	0.2244	1305.6301	0.179299	-424.23058	-424.220441	-424.219497	-424.265335	38.074	
C	-1.0937026209	-0.2478734612	 0.3381371641	-0.39245
C	-1.2385781205	-1.3540799546	-0.7104789909	 0.298623
C	-1.141223224	-2.7405303069	-0.0552372327	-0.426511
O	-2.544566855	-1.1852188263	-1.2725877081	-0.447102
C	-0.1436715551	-1.2314781833	-1.7773405351	 0.005773
C	-0.374764384	-1.5280765098	-3.2206145804	-0.330907
C	-0.0451827523	-0.0984388997	-2.7989805405	-0.117789
C	-1.0799577728	 0.9558999431	-2.9484428772	 0.146875
O	-0.8132735817	 2.1107625751	-3.1891394916	-0.282156
H	-0.0963191268	-0.2697955361	 0.7869401523	 0.113852
H	-1.2433713097	 0.7349180972	-0.1157438595	 0.137628
H	-1.837010726	-0.3775065132	 1.1295663524	 0.120858
H	-1.9464295103	-2.8656585845	 0.6741759701	 0.125694
H	-1.2249530039	-3.5331750325	-0.8083273967	 0.111254
H	-0.184948499	-2.873039675	 0.4597474127	 0.121327
H	-2.7818464076	-2.0009510155	-1.725814036	 0.281584
H	 0.831487962	-1.5226349426	-1.3946945786	 0.095413
H	 0.3721923764	-2.0723404977	-3.7868399408	 0.124941
H	-1.3971406889	-1.6964752113	-3.5443445153	 0.114221
H	 0.9556700217	 0.2657767763	-3.0070627855	 0.103039
H	-2.1263568016	 0.6126658686	-2.8336595027	 0.095835
64.1299	91.0784	180.2345	221.9334	228.8833	265.7753	270.5153	310.6086	317.6683	349.8981	378.8459	405.7338	462.5636	546.7487	594.0033	705.3789	833.8164	853.2062	869.1048	923.8457	931.9473	961.9894	992.9957	1021.5514	1057.3214	1071.8607	1085.5413	1122.5415	1142.8795	1188.1427	1202.5526	1205.8642	1266.1506	1342.7963	1359.3082	1393.8547	1401.1325	1420.5984	1444.4627	1477.9405	1481.1992	1485.4723	1498.5419	1506.2771	1802.7108	2952.7854	3028.4045	3047.1206	3097.651	3116.4268	3122.5106	3127.6729	3132.5277	3137.6856	3168.7839	3219.8742	3812.2278
CC(C)(O)C1CC1C=O	CC(C)(O)[C@H]1C[C@H]1C=O	
InChI=1S/C7H12O2/c1-7(2,9)6-3-5(6)4-8/h4-6,9H,3H2,1-2H3	InChI=1S/C7H12O2/c1-7(2,9)6-3-5(6)4-8/h4-6,9H,3H2,1-2H3/t5-,6-/m0/s1
