20
gdb 107463	2.59931	1.38781	1.19875	3.6611	74.48	-0.2334	0.0603	0.2937	1132.731	0.169706	-440.233789	-440.224619	-440.223675	-440.267096	35.515	
C	-0.0402119951	 1.5823972267	-0.208668302	-0.460141
C	 0.0423241222	 0.0825139979	 0.0406497914	 0.318556
O	-1.2440596362	-0.5122097818	-0.0627860568	-0.470354
C	 1.1325382967	-0.7583973412	-0.6917671455	-0.213829
N	 1.6592214165	-1.3249341825	 0.6011430152	-0.182865
C	 2.1322756903	-0.1547944795	 1.3710394622	-0.287462
C	 0.6815903282	-0.4222059781	 1.3453736729	 0.272072
C	-0.061209788	-0.9815216381	 2.5368236219	-0.163236
O	 0.752241563	-1.9100103722	 3.2312885847	-0.42211
H	 0.9262572295	 2.0746099465	-0.0732633467	 0.121869
H	-0.3674031415	 1.7806599588	-1.237446525	 0.109629
H	-0.7642997987	 2.0397821529	 0.4724071433	 0.130884
H	-1.6197796501	-0.2623603148	-0.9137011066	 0.279806
H	 0.6911161654	-1.5499509006	-1.3000069969	 0.111556
H	 1.8896752471	-0.2184439981	-1.2714584069	 0.097602
H	 2.6556763214	-0.4355725231	 2.2786360886	 0.136035
H	 2.5590007216	 0.6878871038	 0.8319005699	 0.107611
H	-0.3136955133	-0.1862360293	 3.2479955745	 0.107305
H	-0.9999000156	-1.4358021038	 2.1934522212	 0.112898
H	 1.1210664767	-2.4920801438	 2.5524470104	 0.294172
101.1665	138.4454	206.961	226.6072	239.759	268.7607	299.2943	352.3504	409.6145	477.9667	478.4345	501.7345	558.2994	628.5242	676.2192	779.3115	849.3277	865.3028	894.8388	949.9285	969.0402	1003.6694	1045.3679	1072.0043	1095.5464	1106.7991	1138.3969	1175.1735	1197.6064	1213.7775	1228.5184	1242.879	1286.4437	1352.1354	1382.944	1397.2396	1407.4839	1442.6927	1476.5132	1488.4918	1493.5178	1502.8094	1513.5719	3018.6281	3024.6159	3037.9564	3061.5863	3092.9043	3110.595	3117.9592	3122.9501	3211.0224	3749.9253	3808.8564
CC1(O)CN2CC12CO	C[C@@]1(O)CN2C[C@@]12CO	
InChI=1S/C6H11NO2/c1-5(9)2-7-3-6(5,7)4-8/h8-9H,2-4H2,1H3	InChI=1S/C6H11NO2/c1-5(9)2-7-3-6(5,7)4-8/h8-9H,2-4H2,1H3/t5-,6-,7?/m1/s1
