13
gdb 5794	6.38683	1.43119	1.26078	1.1261	59.14	-0.2439	-0.0038	0.2401	910.75	0.09688	-398.600091	-398.593774	-398.59283	-398.631176	22.817	
C	 0.902147597	 1.0933664632	-0.0584534127	-0.165238
O	 0.1523756952	 0.1578559414	-0.832977911	-0.228635
C	-0.4119724954	 0.6052466619	 0.400227206	-0.04056
C	-0.5393572941	-0.4189316486	 1.4542033663	 0.245658
C	-0.1111461999	-1.7056540527	 1.4499618173	-0.108193
O	-0.4600628335	-2.2679243788	 2.6471577144	-0.136687
C	-1.0908712277	-1.2756821932	 3.3117075473	 0.07487
N	-1.1765705697	-0.1600017152	 2.6653877976	-0.312684
H	 1.8025084394	 0.6991486148	 0.4089520393	 0.119424
H	 0.9855295948	 2.0925506801	-0.4834502379	 0.122314
H	-1.2650671596	 1.2764863548	 0.3069966186	 0.11239
H	 0.3960783238	-2.3345593458	 0.7409215043	 0.16338
H	-1.4587119503	-1.5083323418	 4.2986228406	 0.153961
76.3624	167.171	180.6971	402.5909	458.9095	643.0797	662.9971	715.3854	788.0469	848.8854	868.3991	895.4374	936.4754	978.9537	1036.4369	1093.0426	1094.1108	1139.4926	1151.9103	1168.2459	1237.3035	1246.49	1273.6404	1342.0945	1434.5182	1518.9958	1555.9815	1631.8238	3086.847	3121.3184	3180.9872	3278.0601	3310.6071
C1OC1C1=COC=N1	C1O[C@H]1c1cocn1	
InChI=1S/C5H5NO2/c1-4(5-2-8-5)6-3-7-1/h1,3,5H,2H2	InChI=1S/C5H5NO2/c1-4(5-2-8-5)6-3-7-1/h1,3,5H,2H2/t5-/m1/s1
