19
gdb 90671	4.22619	1.04501	1.03808	1.2792	75.58	-0.2267	0.0708	0.2975	1224.656	0.159044	-422.96388	-422.955736	-422.954792	-422.996836	31.417	
O	 0.0818656399	 1.3093297578	-0.272725745	-0.434248
C	-0.0133317916	-0.0858594646	-0.0988181394	 0.153884
C	 0.3468314451	-0.6069574161	 1.334712342	-0.280403
C	-1.079181933	-1.1480003052	 1.4955831587	-0.153208
C	-1.4358370668	-0.636855337	 0.0695962454	-0.203934
C	-1.3939280179	-2.0959152952	 0.3917150849	 0.476816
C	-0.6409787288	-3.2802558666	-0.2180161488	-0.364456
C	-2.0127071295	-3.9824821101	-0.1289003933	-0.07871
O	-2.6329717251	-2.8058146261	 0.4419605739	-0.322331
H	-0.4699916172	 1.7280964827	 0.397777905	 0.278058
H	 0.5669111579	-0.515575723	-0.9221982738	 0.085913
H	 1.1638651849	-1.3320468835	 1.4211357101	 0.096449
H	 0.5625117209	 0.2396849571	 1.9920948484	 0.105385
H	-1.6774442687	-1.1439939237	 2.3993602548	 0.094218
H	-2.3431717845	-0.1804893594	-0.3102411189	 0.096414
H	-0.2595874169	-3.1257111663	-1.2290228251	 0.117648
H	 0.1462263927	-3.7066966879	 0.4064695666	 0.116181
H	-2.4707370505	-4.2550037504	-1.0860786384	 0.108623
H	-2.0663220808	-4.8375623424	 0.553982993	 0.107702
77.4746	107.1733	164.7674	250.7969	289.6689	363.2954	427.8302	439.6215	470.5205	582.2059	724.2586	794.0531	815.2318	858.2816	871.791	889.0083	940.4761	946.8819	970.7891	977.6316	1013.7126	1020.6217	1038.1178	1090.5245	1107.6005	1131.33	1160.4002	1167.0277	1214.948	1216.4948	1222.5895	1240.1085	1263.7508	1276.1597	1308.6859	1353.6387	1432.2218	1439.1793	1483.6794	1488.9872	1532.401	3029.012	3037.0994	3053.3041	3071.9393	3075.3775	3100.4811	3129.0035	3175.2984	3184.6814	3792.2408
OC1CC2C1C21CCO1	O[C@H]1C[C@H]2[C@@H]1[C@]12CCO1	
InChI=1S/C7H10O2/c8-5-3-4-6(5)7(4)1-2-9-7/h4-6,8H,1-3H2	InChI=1S/C7H10O2/c8-5-3-4-6(5)7(4)1-2-9-7/h4-6,8H,1-3H2/t4-,5-,6-,7+/m0/s1
