15
gdb 81908	2.35074	1.98431	1.20939	2.3841	66.92	-0.2502	-0.0906	0.1596	980.406	0.113072	-453.928345	-453.920697	-453.919753	-453.960894	28.724	
O	-0.1507639569	 1.5382315415	-0.2987861267	-0.424187
C	-0.0477053533	 0.1568611964	-0.0264466627	-0.000741
C	-1.3864326956	-0.553417218	-0.0350086942	-0.048025
C	-2.1805699083	-0.5466628516	-1.2806797352	-0.244084
N	-1.3546834344	-1.7372278019	-0.9512235111	-0.123857
C	-0.1039232957	-1.7362855313	-1.6209934548	 0.258622
N	 0.2246746418	-2.5731427357	-2.5107419842	-0.46564
C	 0.7375869168	-0.5701506979	-1.1262341258	 0.31001
O	 1.8021529463	-0.2265239926	-1.5716326038	-0.311283
H	 0.7290635432	 1.8346777303	-0.5677447346	 0.297922
H	 0.4597398058	-0.0265914451	 0.9354823226	 0.107147
H	-1.8796670405	-0.735511598	 0.9131528818	 0.114183
H	-3.2494668276	-0.725620778	-1.2411562952	 0.142396
H	-1.8505036398	 0.0935630066	-2.0943006919	 0.14257
H	 1.1752086085	-2.3497544346	-2.8252967342	 0.244966
50.9964	173.9479	219.6553	256.0451	317.4166	372.3268	442.5565	502.2282	552.7272	617.6612	634.853	706.8746	801.2091	834.3978	864.4988	945.256	954.7682	997.8268	1013.0516	1074.5218	1105.0437	1130.5084	1156.9569	1164.7269	1226.3264	1261.6149	1324.9163	1360.5402	1394.8421	1418.7913	1509.0458	1734.3874	1844.0582	2966.6876	3123.4085	3174.3064	3216.9244	3421.9423	3765.1385
OC1C2CN2C(=N)C1=O	O[C@H]1[C@H]2CN2[C]([NH])C1=O	
InChI=1S/C5H6N2O2/c6-5-4(9)3(8)2-1-7(2)5/h2-3,6,8H,1H2	InChI=1S/C5H6N2O2/c6-5-4(9)3(8)2-1-7(2)5/h2-3,6,8H,1H2/t2-,3+,7?/m1/s1
