17
gdb 52026	2.56986	0.81904	0.64814	3.0145	76.87	-0.2556	-0.0462	0.2094	1642.446	0.131097	-421.805775	-421.795514	-421.79457	-421.843002	34.636	
O	-0.6978910925	 0.7388669793	 0.6028004447	-0.232219
C	 0.1721578253	 0.9218074021	-0.207368237	 0.156725
C	 1.3110589293	 1.9052710683	-0.0508451921	-0.286713
C	 1.3541595205	 2.9046346394	-1.2177881341	-0.218573
C	 2.6357212821	 3.7920667532	-1.2100008277	-0.258727
C	 3.8389306069	 2.9170028997	-1.5786048285	 0.162596
O	 4.5282121084	 2.3554182554	-0.7702838049	-0.240283
C	 2.5212802299	 4.9043575887	-2.1435088312	 0.284573
C	 2.4452236328	 5.7960256333	-2.9457930311	-0.41249
H	 0.1910713698	 0.3515632891	-1.1666874377	 0.07337
H	 1.202696608	 2.4177039218	 0.909172955	 0.128988
H	 2.2466253841	 1.3301032879	-0.0228779965	 0.145295
H	 1.2950975795	 2.3777862171	-2.179008921	 0.119536
H	 0.4855410585	 3.5682648766	-1.1760672201	 0.13773
H	 2.8023856231	 4.1596193753	-0.1910125443	 0.133409
H	 4.0036048392	 2.8073159732	-2.6728082467	 0.100486
H	 2.3743986851	 6.5982484395	-3.6385594167	 0.206297
42.4137	56.237	70.3333	97.4248	130.1983	176.4657	244.6103	288.1736	356.4247	444.972	496.2289	514.6784	554.7338	644.6226	657.5405	759.396	840.1893	931.7	955.838	984.8726	1015.1252	1073.2576	1090.2111	1129.3227	1186.6443	1255.3891	1268.0551	1316.4417	1324.2366	1368.1285	1414.8516	1430.8001	1466.8937	1493.9617	1831.2532	1839.5842	2237.5472	2849.7303	2899.0448	3027.9347	3032.2306	3052.8246	3085.4224	3107.0284	3501.8038
O=CCCC(C=O)C#C	O=CCC[C@@H](C=O)C#C	
InChI=1S/C7H8O2/c1-2-7(6-9)4-3-5-8/h1,5-7H,3-4H2	InChI=1S/C7H8O2/c1-2-7(6-9)4-3-5-8/h1,5-7H,3-4H2/t7-/m0/s1
