15
gdb 14576	14.45205	0.65749	0.63637	3.9857	68.94	-0.2748	0.005	0.2798	1631.8197	0.116286	-362.624539	-362.615569	-362.614625	-362.659169	30.215	
C	-0.0382148101	-1.1646275831	-0.0035801077	-0.438869
C	-0.0232825876	 0.0367260985	 0.0023635598	 0.28132
C	 0.0338495482	 1.4919819166	 0.0094009362	-0.351884
C	 1.4764058986	 2.0047286269	-0.0015752781	-0.050131
O	 1.4198668066	 3.4205875273	 0.0062472149	-0.235552
C	 2.6949981802	 4.0103607204	-0.0026095377	-0.186044
C	 2.5519201315	 5.4692895296	 0.0062435965	 0.265178
N	 2.4729316871	 6.6208646306	 0.0126011755	-0.289347
H	-0.0693431694	-2.2259806364	-0.0084762687	 0.201689
H	-0.4900526737	 1.9006161648	-0.8624828941	 0.14831
H	-0.4734757772	 1.8914721694	 0.8952069467	 0.148314
H	 2.0202086714	 1.6325590916	 0.8801564662	 0.11072
H	 2.0034403414	 1.6416965956	-0.8971872681	 0.110725
H	 3.2878292281	 3.7103630254	 0.8771734854	 0.142779
H	 3.271357095	 3.7193677528	-0.8962691268	 0.142792
41.4302	84.3989	99.9347	128.7681	161.5674	307.3921	352.1758	370.4519	386.0031	500.1986	591.1508	629.0768	657.5185	798.6965	944.3003	968.1699	1031.3706	1032.5866	1079.4707	1090.8375	1157.3816	1226.6462	1257.7823	1301.4722	1306.5274	1386.3487	1443.213	1477.0584	1494.9077	1526.5405	2244.2936	2375.3122	2970.403	2982.8622	2996.3253	3017.1281	3038.8912	3077.7162	3507.1454
C#CCCOCC#N	C#CCCOCC#N	
InChI=1S/C6H7NO/c1-2-3-5-8-6-4-7/h1H,3,5-6H2	InChI=1S/C6H7NO/c1-2-3-5-8-6-4-7/h1H,3,5-6H2
