16
gdb 31891	5.93075	0.87788	0.76921	6.2445	85.03	-0.1962	-0.0095	0.1867	1420.5745	0.126235	-396.978385	-396.969846	-396.968902	-397.011732	31.231	
C	 0.052416868	 1.3964037161	 0.0120357004	-0.327116
N	 0.0028212998	-0.054714767	 0.1060929852	-0.400205
C	-1.2419585392	-0.6565352006	 0.0346610521	 0.391452
C	-2.5201197719	-0.111601297	 0.0248212571	-0.211993
C	-3.4355944733	-1.1888199416	 0.0203632174	-0.221548
C	-2.7115631993	-2.3658361076	 0.0199151733	 0.205898
N	-1.36182339	-2.0157153777	 0.0265813887	-0.396352
C	-3.1251602194	-3.7091254671	 0.0025535341	 0.187948
N	-3.4477037457	-4.8246917411	-0.0092552271	-0.360684
H	 1.092772919	 1.7190311484	 0.0874970639	 0.131997
H	-0.3740822804	 1.7903553894	-0.9227481496	 0.122276
H	-0.4988591213	 1.8335865618	 0.849717808	 0.145614
H	 0.7056054943	-0.5115520742	-0.4595143294	 0.240409
H	-2.7594985319	 0.9386863262	 0.0073691809	 0.103334
H	-4.5120364978	-1.1250569677	-0.0005818295	 0.118786
H	-0.6042347309	-2.6698149702	 0.1262834848	 0.270185
73.4241	133.9816	149.6642	192.8038	233.8273	297.6619	397.1746	434.7152	506.7397	517.246	573.8141	623.0962	649.5512	685.9175	724.9902	762.5895	857.0997	981.8273	1006.4833	1069.4353	1095.0245	1151.3618	1166.5195	1238.9437	1268.4944	1310.1901	1403.8883	1437.4561	1458.4922	1486.5076	1498.3635	1519.5631	1564.8645	1634.6752	2321.0622	2991.5681	3082.5788	3130.1787	3260.2681	3275.3887	3569.5583	3673.8372
CNC1=CC=C(N1)C#N	CNc1ccc([nH]1)C#N	
InChI=1S/C6H7N3/c1-8-6-3-2-5(4-7)9-6/h2-3,8-9H,1H3	InChI=1S/C6H7N3/c1-8-6-3-2-5(4-7)9-6/h2-3,8-9H,1H3
