19
gdb 49251	3.12602	1.1803	0.89024	3.346	85.95	-0.2465	-0.049	0.1975	1291.7519	0.160418	-385.919307	-385.911013	-385.910069	-385.952727	31.279	
O	-0.0187143074	-0.0465249618	 0.6119578484	-0.280753
C	 0.0285367042	 1.1598281471	 0.5288493691	 0.100963
C	 1.1874228668	 1.9331010267	 0.0273024532	 0.198088
C	 1.0459083694	 3.2672394496	 0.0240873854	-0.104423
C	 1.986484347	 4.3393198255	-0.4322004074	-0.318833
C	 3.4570657569	 4.0766946038	-0.6116578252	-0.038925
C	 4.1855949174	 2.9886900571	-0.3645673334	-0.060267
C	 3.7342755481	 1.6365122236	 0.1244690449	-0.251478
C	 2.3876326301	 1.147917715	-0.4322745298	-0.314171
H	-0.8360807161	 1.7882720779	 0.8415120485	 0.067514
H	 0.0876507015	 3.6532781687	 0.3752880627	 0.09519
H	 1.5814033628	 4.7453461211	-1.3759712861	 0.135707
H	 1.8841902837	 5.1886354179	 0.2621009272	 0.12967
H	 3.9898815296	 4.9563742936	-0.9698634511	 0.087406
H	 5.2567471063	 3.0767093616	-0.5368108516	 0.086956
H	 4.5015425737	 0.900636067	-0.141828718	 0.104478
H	 3.6926391606	 1.6313046265	 1.2226161955	 0.116939
H	 2.2248540238	 0.1060545099	-0.1416791508	 0.130063
H	 2.4334415214	 1.1617978291	-1.5285230215	 0.115874
50.096	123.2219	170.9522	247.1885	299.9654	335.0493	340.0097	422.401	506.0453	551.3364	650.4882	714.9929	740.8067	818.0272	840.0688	883.1102	901.2391	949.2001	978.5182	1010.5426	1021.6404	1042.9807	1074.658	1095.0381	1162.7774	1203.581	1236.4111	1275.4388	1293.4356	1342.6242	1369.422	1401.7639	1411.1342	1433.3966	1441.5235	1445.6726	1481.3806	1491.3275	1715.9014	1745.3899	1791.1656	2871.7219	2963.2218	2990.1507	3012.2685	3030.9494	3056.7707	3091.9343	3113.8759	3124.8112	3149.7367
O=CC1=CCC=CCC1	O=CC1=CCC=CCC1	
InChI=1S/C8H10O/c9-7-8-5-3-1-2-4-6-8/h1-2,5,7H,3-4,6H2	InChI=1S/C8H10O/c9-7-8-5-3-1-2-4-6-8/h1-2,5,7H,3-4,6H2
