23
gdb 60382	2.79274	0.96446	0.89206	1.2427	82.56	-0.242	0.0848	0.3268	1478.3151	0.202245	-425.409577	-425.398795	-425.39785	-425.446032	39.304	
C	 0.404566712	 0.8110279436	 0.8972211367	-0.384389
C	 0.2261575683	-0.1290824665	-0.2969978856	 0.136707
C	-1.2417124105	-0.4279010969	-0.578247179	-0.389665
O	 0.7565306147	 0.4751074072	-1.4883371523	-0.264293
C	 2.1448908616	 0.3050435871	-1.6852939466	-0.145527
C	 2.4876663686	-1.0161511622	-2.353379504	 0.40794
C	 1.7938953888	-1.2982922648	-3.6657167572	-0.458609
C	 3.7794039895	-1.6450004086	-2.0419435232	-0.230763
O	 2.5747988181	-2.1389821734	-1.4528309439	-0.270303
H	 1.4595848016	 1.0450564161	 1.0696140967	 0.112884
H	-0.1293298347	 1.7507218967	 0.7224953035	 0.118882
H	 0.012988979	 0.3527767384	 1.8112796137	 0.112667
H	 0.7579445097	-1.069203768	-0.105097856	 0.102787
H	-1.7741957489	 0.4946564354	-0.8316535512	 0.120289
H	-1.3410929086	-1.1221941655	-1.4168642638	 0.119351
H	-1.7201283781	-0.8729546781	 0.2994250433	 0.111893
H	 2.4664166495	 1.1285315601	-2.3354940223	 0.103561
H	 2.7024363284	 0.3853808826	-0.7417279701	 0.09131
H	 2.1025811596	-0.5751018311	-4.4286177359	 0.119499
H	 2.0336121755	-2.3042920185	-4.0175728518	 0.123338
H	 0.7110391509	-1.2120204979	-3.5444277521	 0.141341
H	 4.2437249301	-2.3022211986	-2.7762154304	 0.111957
H	 4.4732732149	-1.161335237	-1.3544956386	 0.109142
38.498	65.9994	87.2203	186.7212	211.6591	213.9491	234.1475	283.4602	327.7134	363.1796	366.9202	400.0963	443.004	458.843	574.7594	729.4556	800.2288	837.0635	890.4598	918.2115	927.3708	932.7532	946.1375	970.4642	1064.4112	1105.1588	1114.0478	1133.3295	1141.3785	1152.6527	1171.7654	1201.102	1278.1546	1309.5647	1371.3705	1377.7388	1391.4778	1401.7629	1403.5355	1416.088	1434.7973	1473.7537	1479.6725	1482.7089	1485.9434	1493.9626	1500.2988	1508.4954	1531.2087	3001.6518	3034.1186	3037.8602	3040.8639	3041.9836	3055.3802	3077.1286	3104.3693	3108.1465	3110.8937	3115.7817	3119.2773	3133.6007	3161.342
CC(C)OCC1(C)CO1	CC(C)OC[C@@]1(C)CO1	
InChI=1S/C7H14O2/c1-6(2)8-4-7(3)5-9-7/h6H,4-5H2,1-3H3	InChI=1S/C7H14O2/c1-6(2)8-4-7(3)5-9-7/h6H,4-5H2,1-3H3/t7-/m0/s1
