19
gdb 116761	2.96181	0.79142	0.67049	3.19	80.98	-0.2588	0.0054	0.2642	1718.4572	0.156474	-419.215016	-419.204576	-419.203632	-419.251876	36.071	
C	 0.7027404049	 1.366289221	-0.2618179358	-0.400512
C	-0.2207787033	 0.1856839469	-0.5754303372	-0.113791
N	 0.36763178	-1.0563410382	-1.0504635346	-0.218347
C	 1.6055244522	-1.1690533139	-1.1959738902	 0.126668
O	 2.1163050031	-2.3569377513	-1.6381123279	-0.207407
C	 3.5299095343	-2.4229987395	-1.7776911046	-0.023922
C	 3.9026771281	-3.8915210302	-1.9664548626	-0.398305
C	 3.9899562647	-1.5988204436	-2.9161054806	 0.270873
N	 4.3545555136	-0.9476507493	-3.7980017391	-0.310186
H	 1.4164304698	 1.1280125966	 0.534403409	 0.11795
H	 1.2677212561	 1.6875803435	-1.1432458416	 0.128355
H	 0.1043598773	 2.21745051	 0.0760642744	 0.120218
H	-0.8096541825	-0.0657248201	 0.3163425296	 0.117716
H	-0.9586101683	 0.4905987796	-1.3287350697	 0.121215
H	 2.3665646357	-0.4038472834	-1.0036452369	 0.094945
H	 4.0156795003	-2.0301404376	-0.8731894951	 0.130725
H	 3.416626493	-4.2902355564	-2.8591694437	 0.156953
H	 4.9847589502	-3.9977750584	-2.0717655953	 0.142486
H	 3.5660429408	-4.4581670455	-1.095842058	 0.144368
29.2851	56.5039	112.7635	162.1708	182.0852	219.5816	238.7144	249.7193	278.1183	328.2367	411.2839	432.8316	536.7713	589.1964	639.9524	778.8931	813.0045	885.7764	956.102	967.3477	1054.7731	1074.5118	1087.0783	1119.6025	1147.3005	1160.6674	1214.4927	1314.3846	1335.2716	1357.9969	1378.6924	1400.5945	1410.015	1429.444	1481.618	1482.687	1494.7812	1494.8522	1506.9631	1787.4629	2357.6195	3010.122	3021.5638	3032.3232	3042.9658	3052.3317	3061.0697	3101.1726	3110.138	3144.3382	3148.7616
CCN=COC(C)C#N	CCN=CO[C@@H](C)C#N	
InChI=1S/C6H10N2O/c1-3-8-5-9-6(2)4-7/h5-6H,3H2,1-2H3	InChI=1S/C6H10N2O/c1-3-8-5-9-6(2)4-7/h5-6H,3H2,1-2H3/t6-/m0/s1
