14
gdb 31684	3.27592	1.09891	0.82742	4.4921	67.11	-0.2637	-0.0626	0.2011	1289.	0.100253	-473.855315	-473.847037	-473.846093	-473.88938	28.435	
O	 0.259504771	 0.9956401791	-0.7616239089	-0.414713
C	-0.0657163709	 0.1650967697	 0.3203648889	-0.140498
C	-1.4155947476	-0.4507425891	 0.1379887254	 0.372073
N	-2.1546726908	-0.3680666271	-0.91396129	-0.358207
C	-3.2902364006	-1.1205499767	-0.6085019497	 0.14896
C	-4.4280046218	-1.3204027447	-1.5122203862	 0.079321
O	-4.5183228009	-0.8618855272	-2.6241896203	-0.254495
C	-3.1461801274	-1.6198150127	 0.6501088647	-0.079519
O	-1.9514964029	-1.2010946329	 1.1425220884	-0.168648
H	-0.3804608956	 0.8189569256	-1.464384665	 0.309375
H	 0.6747134679	-0.6427419338	 0.4467181456	 0.125248
H	-0.055305054	 0.7464261953	 1.2533116067	 0.133043
H	-5.2317032427	-1.9533472635	-1.0739842394	 0.07542
H	-3.7495595437	-2.2374938721	 1.2939847098	 0.17264
45.7543	127.5784	128.8389	173.5776	229.4719	262.03	343.4199	440.0017	512.2806	638.9583	689.3577	698.9107	802.6861	815.4438	977.2511	1016.4175	1029.145	1039.9524	1109.007	1144.0493	1202.5182	1240.6967	1276.9123	1343.1337	1353.2662	1428.2976	1470.4855	1507.867	1591.7881	1640.2512	1811.4923	2880.8824	2969.3062	3019.8854	3289.5541	3755.3844
OCC1=NC(C=O)=CO1	OCc1nc(C=O)co1	
InChI=1S/C5H5NO3/c7-1-4-3-9-5(2-8)6-4/h1,3,8H,2H2	InChI=1S/C5H5NO3/c7-1-4-3-9-5(2-8)6-4/h1,3,8H,2H2
