14
gdb 34770	2.17156	1.92728	1.23731	4.4071	70.94	-0.2539	-0.0059	0.2481	988.1686	0.099646	-399.467763	-399.459987	-399.459043	-399.500222	28.975	
C	-0.1886442336	-1.2057528045	 0.0167754498	-0.394169
C	-0.0794547514	-0.009332815	 0.0342482083	 0.310643
C	 0.0218928404	 1.4202179989	 0.0513765152	-0.246077
C	 0.522779343	 2.2118397398	 1.2317280677	 0.084425
O	 1.5239082835	 1.4943848525	 1.9555569083	-0.274627
C	 2.4173838037	 1.5765940647	 0.8153386389	-0.028533
C	 3.0359304502	 0.3076512506	 0.4241755285	 0.301989
N	 3.593143066	-0.6534394686	 0.1079536825	-0.320236
C	 1.3256297157	 2.2138270006	-0.0462779179	-0.165809
H	-0.2584682924	-2.2653418778	 0.0030758991	 0.206702
H	-0.7736489664	 1.9443282036	-0.4759068389	 0.130725
H	-0.0374060035	 2.9722867446	 1.761504327	 0.127573
H	 3.2171255576	 2.2946287741	 1.0322629938	 0.141704
H	 1.4930471472	 2.9720170267	-0.7977582023	 0.12569
97.8736	119.1817	161.5759	219.3186	337.2882	358.4951	498.6366	534.5844	580.652	616.4849	641.2142	669.898	750.569	798.8076	807.5693	906.3791	940.5794	995.7214	997.8578	1036.2047	1038.7898	1054.1091	1103.6032	1167.5065	1238.9932	1268.9683	1325.6171	1357.5325	1417.6127	2245.0298	2362.006	3042.8809	3128.4194	3195.9441	3219.8998	3503.7586
C#CC1C2OC(C#N)C12	C#C[C@H]1[C@H]2O[C@@H](C#N)[C@@H]12	
InChI=1S/C7H5NO/c1-2-4-6-5(3-8)9-7(4)6/h1,4-7H	InChI=1S/C7H5NO/c1-2-4-6-5(3-8)9-7(4)6/h1,4-7H/t4-,5+,6-,7-/m1/s1
