25
gdb 123014	4.82769	0.50195	0.48052	1.337	90.69	-0.2516	0.0823	0.3338	2383.4194	0.227443	-389.482957	-389.471888	-389.470944	-389.520252	40.158	
C	 0.0615539757	 1.5577953397	 0.0945041304	-0.378609
C	-0.023813426	 0.0366037411	 0.2457926955	-0.163167
C	-1.3925976424	-0.5338583269	-0.140595457	-0.157221
C	-1.4863847798	-2.0558363955	 0.00699218	-0.171796
C	-2.8616086562	-2.6176023924	-0.3754738826	-0.20517
C	-2.94462366	-4.1245243667	-0.2469028208	-0.012168
C	-3.1979825554	-4.7684585562	 1.1055829738	-0.325439
C	-4.2512489128	-4.8112261201	 0.0256364953	 0.08733
O	-5.3861856716	-3.9988988916	 0.1343103363	-0.417387
H	 1.0502854683	 1.9342288165	 0.3756010526	 0.108688
H	-0.1292209187	 1.8640965124	-0.94020973	 0.112335
H	-0.6781893401	 2.0607614809	 0.7274982594	 0.112193
H	 0.752228134	-0.4371425273	-0.3703313479	 0.092174
H	 0.2040783179	-0.2417748235	 1.2834142529	 0.092068
H	-2.1700210685	-0.0604446078	 0.4757800176	 0.089994
H	-1.6217103641	-0.2537463472	-1.1785457112	 0.089934
H	-0.7122522489	-2.5291713328	-0.6135138177	 0.087037
H	-1.2561327458	-2.3391950902	 1.0429428855	 0.092354
H	-3.63943258	-2.1606315266	 0.2453370119	 0.105723
H	-3.0963254273	-2.3315622308	-1.4099093805	 0.093999
H	-2.2693449824	-4.6679317632	-0.9040898336	 0.081771
H	-2.6754114045	-5.6809134333	 1.3721740756	 0.106708
H	-3.3886474296	-4.0943753842	 1.9352369529	 0.109983
H	-4.4277323295	-5.7667386631	-0.4690114286	 0.081915
H	-5.9370598922	-4.3545864512	 0.8389712704	 0.286754
49.3929	61.9801	83.3501	120.6883	141.5236	182.8881	234.2154	249.3009	295.809	332.7914	360.4718	434.4444	477.0957	585.5153	732.0268	753.2223	770.5695	827.6106	847.6092	877.4449	912.1369	941.9952	983.0507	1010.3993	1017.3266	1044.9144	1053.5922	1069.2253	1091.7372	1128.2139	1143.4068	1178.9527	1199.4733	1237.9958	1239.6019	1260.5482	1291.6512	1305.2905	1325.6968	1329.3505	1334.8523	1377.6818	1400.4291	1407.3767	1414.2635	1427.1059	1481.3938	1483.4773	1489.9544	1493.5718	1500.1774	1504.7685	1514.4859	2999.814	3004.6324	3014.4255	3017.3782	3023.0401	3028.1978	3038.5353	3055.7993	3078.209	3091.1551	3094.3958	3099.2007	3124.4906	3132.1548	3213.0174	3809.2685
CCCCCC1CC1O	CCCCC[C@H]1C[C@H]1O	
InChI=1S/C8H16O/c1-2-3-4-5-7-6-8(7)9/h7-9H,2-6H2,1H3	InChI=1S/C8H16O/c1-2-3-4-5-7-6-8(7)9/h7-9H,2-6H2,1H3/t7-,8+/m0/s1
