19
gdb 57940	3.27253	0.93856	0.77984	1.8892	76.43	-0.2615	-0.0217	0.2398	1478.2761	0.157791	-456.393389	-456.383278	-456.382334	-456.429213	36.265	
C	 0.4702151748	 0.8058124735	 0.9207795967	-0.395066
C	-0.232722742	 0.0127320254	-0.1923540173	 0.043868
O	-1.467784952	 0.5948529861	-0.5076278584	-0.435381
C	 0.6208961213	-0.0435047542	-1.4718925262	 0.396148
O	 0.2440833753	 0.535238028	-2.4773777299	-0.386256
N	 1.7782779556	-0.7638740639	-1.368923828	-0.331738
C	 2.7868209219	-1.0103073959	-2.3187253357	 0.359045
C	 2.6391475722	-0.3901759852	-3.6821755951	-0.44732
N	 3.7382910849	-1.7498795283	-1.9060593568	-0.499837
H	 1.3983608129	 0.3274276502	 1.2503871051	 0.110885
H	 0.6997705858	 1.8182231297	 0.5757107855	 0.131381
H	-0.2020249546	 0.8798766226	 1.7789606396	 0.139371
H	-0.3940598127	-1.0215855429	 0.152845676	 0.091831
H	-1.3744396209	 0.9034580334	-1.4244302342	 0.294055
H	 1.9697415676	-1.2217027865	-0.487544058	 0.263966
H	 2.5648052645	 0.6975509074	-3.6133591514	 0.159291
H	 3.5010030575	-0.6617171118	-4.2950436896	 0.118451
H	 1.7206503946	-0.7265535518	-4.1685298305	 0.161627
H	 4.4303337632	-1.885830576	-2.6404428317	 0.22568
43.8991	72.8745	100.9513	161.832	189.5594	230.9145	258.8305	340.8538	372.5228	409.2981	432.4419	467.6145	540.865	553.9525	674.4745	700.9939	758.6671	839.6724	864.5459	902.0556	958.0857	1036.505	1057.3964	1073.1116	1100.0328	1114.9188	1177.4134	1226.929	1285.2799	1363.6494	1384.5936	1403.7425	1424.769	1441.5427	1464.0784	1468.5257	1484.278	1496.1861	1529.123	1722.1773	1775.3798	2972.8689	3040.2709	3059.2171	3114.0051	3129.4162	3132.4241	3144.0503	3506.3537	3593.3922	3665.6711
CC(O)C(=O)NC(C)=N	C[C@@H](O)C(=O)NC(=N)C	
InChI=1S/C5H10N2O2/c1-3(8)5(9)7-4(2)6/h3,8H,1-2H3,(H2,6,7,9)	InChI=1S/C5H10N2O2/c1-3(8)5(9)7-4(2)6/h3,8H,1-2H3,(H2,6,7,9)/t3-/m1/s1
