18
gdb 127059	5.55812	0.78266	0.69502	3.8068	74.21	-0.2537	0.0176	0.2714	1602.6724	0.148898	-435.287576	-435.278645	-435.277701	-435.323133	30.832	
C	 0.0531379442	 1.5034923823	 0.1485593655	-0.390518
C	 0.0394268658	-0.0122098075	 0.0605671084	-0.02827
O	 0.7132985546	-0.5346866604	 1.1933823567	-0.262422
C	 0.7623665898	-1.9429068124	 1.218368737	-0.173746
C	 1.4945962503	-2.3527179045	 2.4552581852	 0.360571
N	 1.7609136892	-3.5822285049	 2.8591232186	-0.33004
C	 2.4359415508	-3.3718403084	 4.0245600832	 0.021125
N	 2.6022363971	-2.103948441	 4.3633431014	-0.216221
N	 1.987902803	-1.4652176066	 3.3381696819	-0.215392
H	 1.0803397857	 1.8785400726	 0.1642325246	 0.129771
H	-0.4608491866	 1.9374318263	-0.7138578358	 0.123581
H	-0.4518266295	 1.840469083	 1.0582341503	 0.129769
H	-0.9944857047	-0.3926930506	 0.0325036946	 0.096708
H	 0.5371996618	-0.3546907738	-0.861094657	 0.096714
H	-0.2491579813	-2.3803216965	 1.2232559175	 0.124641
H	 1.2790852185	-2.3429534914	 0.3309604621	 0.124646
H	 2.8142024182	-4.1757705015	 4.6381113669	 0.123829
H	 1.9369396233	-0.4609997047	 3.2933735888	 0.285255
29.5262	65.4653	105.2001	109.259	241.5516	265.6584	275.2952	359.4251	500.0678	600.0809	701.1657	711.2124	747.775	821.8522	908.6792	909.795	982.9787	1041.9237	1045.2196	1054.6329	1121.6269	1146.3737	1168.0316	1187.9962	1210.9653	1234.7212	1278.545	1298.3546	1307.646	1354.3862	1401.5186	1423.2387	1458.6297	1484.3933	1497.8436	1501.1299	1513.7101	1532.9867	1594.5871	2965.3239	2975.3489	2994.1353	2998.2067	3047.0395	3123.3209	3123.4262	3261.6167	3677.0024
CCOCC1=NC=NN1	CCOCc1ncn[nH]1	
InChI=1S/C5H9N3O/c1-2-9-3-5-6-4-7-8-5/h4H,2-3H2,1H3,(H,6,7,8)	InChI=1S/C5H9N3O/c1-2-9-3-5-6-4-7-8-5/h4H,2-3H2,1H3,(H,6,7,8)
