14
gdb 125662	3.51768	1.73002	1.16813	4.6024	68.44	-0.2266	-0.0152	0.2114	970.9497	0.103677	-429.055421	-429.048358	-429.047414	-429.08688	26.295	
C	-0.0251178306	 1.5044946177	-0.0190797695	-0.492478
C	 0.0057871196	 0.0203218377	-0.0135589172	 0.358931
N	 0.0044840043	-0.7409349505	-1.0748234371	-0.244078
N	 0.0382644542	-2.0369010181	-0.6273324387	-0.360882
C	 0.0613019082	-2.0805835506	 0.7323565131	 0.515434
N	 0.0942876576	-2.9221110096	 1.7373823758	-0.360161
N	 0.0954032769	-2.111862051	 2.8649651559	-0.208298
C	 0.063867408	-0.8506778472	 2.5104153066	-0.02675
N	 0.0405827364	-0.765167035	 1.1310984355	-0.091286
H	 0.8577371698	 1.9202896701	 0.4787399122	 0.150058
H	-0.0465616231	 1.8569320213	-1.050873643	 0.166208
H	-0.9105670532	 1.8836281427	 0.5028598827	 0.150124
H	 0.0442308492	-2.7965345081	-1.2827074028	 0.293597
H	 0.0569837028	-0.0017004494	 3.1724220265	 0.149582
146.8796	172.4465	232.5725	252.9019	268.7358	409.5793	530.7612	637.4721	654.4335	656.9205	713.5943	743.9678	766.9976	852.9897	990.8532	1003.6399	1025.8738	1067.9655	1114.0729	1139.1103	1227.543	1294.4359	1371.5143	1395.8203	1413.3285	1443.0444	1467.8342	1476.2017	1486.5734	1609.1712	1652.5136	3038.671	3092.0748	3153.8255	3289.582	3714.8625
CC1=NNC2=NN=CN12	Cc1n[nH]c2nncn12	
InChI=1S/C4H5N5/c1-3-6-8-4-7-5-2-9(3)4/h2H,1H3,(H,7,8)	InChI=1S/C4H5N5/c1-3-6-8-4-7-5-2-9(3)4/h2H,1H3,(H,7,8)
