14
gdb 25919	4.57158	1.08465	0.88265	3.6551	65.88	-0.2138	-0.0252	0.1885	1211.6412	0.102631	-470.076059	-470.068254	-470.06731	-470.108608	29.336	
N	-0.0830750787	 1.3780460387	 0.0847947121	-0.562649
C	 0.0723625512	 0.0230285756	-0.0590826281	 0.484813
O	 1.1323326614	-0.5343593437	-0.2082900491	-0.354324
N	-1.1488425929	-0.6982681407	-0.0573315018	-0.08857
C	-2.4355490927	-0.2363098035	-0.1846059909	 0.014217
N	-3.3089781717	-1.2113791307	-0.1585107351	-0.353287
C	-2.5650580998	-2.3586053043	-0.0100067309	 0.342481
O	-3.1589989798	-3.5652764515	 0.0616132859	-0.428661
C	-1.2284656084	-2.0879997199	 0.0471901233	-0.204587
H	 0.7847750598	 1.8780048155	 0.1982964286	 0.276122
H	-0.8692759555	 1.7375733989	 0.6009988514	 0.267597
H	-2.6665538487	 0.8059684256	-0.3382757609	 0.140938
H	-4.1076939828	-3.4082681864	-0.0186996844	 0.303999
H	-0.3478183214	-2.6935094535	 0.1483055201	 0.16191
78.9101	127.4559	193.0948	337.3055	376.6483	382.0125	418.9248	437.2951	521.9339	547.3255	627.7157	654.1132	693.3336	738.8674	750.2999	772.9959	807.5157	1003.843	1022.4575	1102.3654	1126.999	1188.5657	1276.4235	1309.1631	1357.4055	1389.5953	1446.7161	1527.4581	1623.4281	1677.288	1834.3193	3262.7854	3321.06	3595.4467	3714.024	3804.6074
NC(=O)N1C=NC(O)=C1	NC(=O)n1cnc(O)c1	
InChI=1S/C4H5N3O2/c5-4(9)7-1-3(8)6-2-7/h1-2,8H,(H2,5,9)	InChI=1S/C4H5N3O2/c5-4(9)7-1-3(8)6-2-7/h1-2,8H,(H2,5,9)
