19
gdb 112448	2.11282	1.56312	1.01222	3.7431	71.9	-0.2633	0.0139	0.2772	1209.8885	0.158773	-460.215608	-460.206571	-460.205627	-460.249633	32.92	
C	 0.5034134837	 1.2846397789	 0.1754269605	-0.247421
O	 0.5130603474	-0.133442806	 0.0956629498	-0.235121
C	 0.4598200623	-0.631733941	-1.1987462499	 0.20413
O	 1.6570383404	-0.2995223325	-1.9227052609	-0.228225
C	 2.5741693901	-1.3150536906	-1.8282330489	 0.425057
O	 3.6762953002	-1.2169962057	-2.2774605686	-0.331144
C	 1.9301255184	-2.4912624782	-1.1067317397	-0.374429
C	 0.4308316234	-2.1709184254	-1.1600101179	-0.02412
C	-0.426356327	-2.7702925705	-0.050102214	-0.408287
H	 1.3909584728	 1.7172982247	-0.2985506578	 0.139738
H	-0.3948750251	 1.6997339462	-0.3042161922	 0.112639
H	 0.4935907996	 1.5410255257	 1.236247299	 0.133629
H	-0.3660521417	-0.1758412102	-1.7610332342	 0.080997
H	 2.219849188	-3.430225143	-1.580110821	 0.136683
H	 2.3005384494	-2.504980488	-0.0754751301	 0.14561
H	 0.0451690776	-2.4946973331	-2.1339737877	 0.094013
H	-0.0741361307	-2.4467142118	 0.9317646209	 0.138583
H	-1.4726760639	-2.4640130425	-0.1498930211	 0.11882
H	-0.3930625048	-3.8632762571	-0.0901180362	 0.118848
88.7024	112.3787	130.4454	189.8918	213.9602	224.6075	275.9734	360.8912	487.6105	494.7284	516.9667	570.8649	648.7465	748.7141	843.1478	883.9609	922.1777	947.3769	978.9855	1003.9941	1070.5971	1117.4026	1133.4957	1151.7366	1178.1988	1182.4707	1210.4649	1236.2674	1277.4347	1346.3991	1354.952	1391.137	1397.7295	1418.4439	1463.3419	1481.877	1485.9858	1496.8369	1500.438	1511.9133	1893.3729	3001.1309	3020.6516	3040.0243	3044.4233	3060.3516	3078.7053	3105.7746	3129.4843	3132.9169	3135.3625
COC1OC(=O)CC1C	CO[C@H]1OC(=O)C[C@H]1C	
InChI=1S/C6H10O3/c1-4-3-5(7)9-6(4)8-2/h4,6H,3H2,1-2H3	InChI=1S/C6H10O3/c1-4-3-5(7)9-6(4)8-2/h4,6H,3H2,1-2H3/t4-,6+/m1/s1
