19
gdb 36431	4.15493	0.99984	0.93494	2.1924	81.07	-0.2414	0.0551	0.2965	1306.0661	0.158557	-385.820597	-385.81215	-385.811206	-385.854294	32.148	
C	 0.0605243114	-1.1463564669	-0.2928835522	-0.435114
C	 0.0170450176	 0.0500906174	-0.1911767563	 0.303041
C	-0.0168134862	 1.5007760946	-0.0532612872	-0.37928
C	 1.3729787051	 2.1066531241	 0.1547075169	 0.153057
O	 2.2116343677	 2.03860448	-1.0244336444	-0.308907
C	 2.5649599942	 3.4336634845	-0.9113691473	 0.132388
C	 1.7211339942	 4.3376404885	-1.8357623317	-0.228331
C	 0.6784108954	 4.5144170939	-0.6855324964	-0.23749
C	 1.5538498424	 3.6359049651	 0.2536046683	-0.120192
H	 0.096093421	-2.2026001302	-0.3930728127	 0.194671
H	-0.4782373812	 1.9449816375	-0.9420186579	 0.134017
H	-0.6439868704	 1.7777481794	 0.805389013	 0.129727
H	 1.8613800156	 1.5881248478	 0.991564069	 0.085763
H	 3.6459916855	 3.5851641473	-0.8514528234	 0.075794
H	 2.2186058183	 5.2693781775	-2.1184801885	 0.101549
H	 1.3738381042	 3.8312038767	-2.7387892921	 0.113006
H	 0.5989687603	 5.5454368792	-0.3343628961	 0.106578
H	-0.3331978098	 4.1534613758	-0.8848228751	 0.104509
H	 1.8033649647	 4.0395121476	 1.2340616542	 0.075214
58.5396	78.0613	124.6007	232.1295	326.261	341.4149	384.0636	466.489	500.9318	618.7457	636.9134	666.7734	729.6994	790.573	816.4659	854.1174	885.971	929.2166	952.2659	962.0412	1006.6295	1008.7923	1053.7623	1072.5378	1105.8089	1136.5557	1175.1215	1206.6235	1230.5715	1235.4577	1253.8063	1274.1624	1291.264	1310.2688	1322.4609	1354.1686	1400.6159	1453.8675	1465.6572	1491.863	2241.6336	3002.0216	3018.3681	3058.8437	3066.5634	3071.4618	3074.2915	3106.6454	3117.4286	3128.0848	3507.6665
C#CCC1OC2CCC12	C#CC[C@H]1O[C@H]2CC[C@@H]12	
InChI=1S/C8H10O/c1-2-3-7-6-4-5-8(6)9-7/h1,6-8H,3-5H2	InChI=1S/C8H10O/c1-2-3-7-6-4-5-8(6)9-7/h1,6-8H,3-5H2/t6-,7+,8-/m0/s1
