17
gdb 26679	2.30925	1.55083	0.93998	1.5284	72.17	-0.1673	0.0592	0.2265	1202.505	0.134712	-455.166756	-455.156703	-455.155759	-455.201251	36.255	
C	 0.1722973644	 1.5295619427	 0.011665832	-0.514032
C	 0.1038706716	 0.0352725406	-0.0057739172	 0.148787
C	-0.0544693182	-0.7806703814	-1.1065214391	 0.143731
N	-0.2069868745	-0.5404332194	-2.4919047899	-0.613645
N	-0.0473618678	-2.0986232647	-0.6672007663	-0.321954
C	 0.1019783591	-2.1262591736	 0.686362072	 0.324391
O	 0.1536752083	-3.3077734815	 1.3514738455	-0.445378
C	 0.1957537537	-0.831374795	 1.1314192239	 0.043832
O	 0.4358799092	-0.5030382921	 2.4546071619	-0.45835
H	 1.0703601752	 1.8859969759	 0.5293673071	 0.13017
H	 0.1915903106	 1.928955044	-1.0069655604	 0.106927
H	-0.6882122688	 1.9837970341	 0.521067882	 0.112073
H	-1.0136363133	 0.0389334862	-2.6975699039	 0.239737
H	 0.6051605235	-0.0882918217	-2.8990668147	 0.240475
H	-0.141376142	-2.8970092625	-1.270553408	 0.263423
H	 0.3221457325	-3.0873269193	 2.2755904035	 0.306791
H	-0.3205895736	-0.0132065521	 2.7947740219	 0.293022
89.7757	123.6791	167.3124	189.0801	211.3905	225.2236	256.2736	282.9416	306.9541	324.6228	370.5728	448.0092	544.3845	614.5885	620.5135	649.2096	672.1804	744.4313	779.6841	877.0968	1049.271	1060.948	1144.7809	1171.3332	1200.9605	1216.2134	1246.5653	1282.578	1401.4125	1411.9146	1463.3255	1484.3735	1496.1766	1560.6129	1597.3989	1657.9325	1685.0155	3010.808	3060.232	3099.1617	3497.0885	3560.0511	3686.1525	3784.6351	3804.8798
CC1=C(N)NC(O)=C1O	Cc1c(N)[nH]c(O)c1O	
InChI=1S/C5H8N2O2/c1-2-3(8)5(9)7-4(2)6/h7-9H,6H2,1H3	InChI=1S/C5H8N2O2/c1-2-3(8)5(9)7-4(2)6/h7-9H,6H2,1H3
