19
gdb 84953	2.07598	1.86702	1.31554	1.8597	77.78	-0.2396	-0.0228	0.2168	1042.2743	0.16035	-422.995637	-422.98739	-422.986445	-423.027967	32.366	
O	 0.2398856785	 1.2964688427	-0.4393178607	-0.4274
C	 0.0585959278	-0.0871601599	-0.1267129993	 0.01701
C	 0.8786953192	-0.4277724067	 1.1010355474	-0.03798
C	 0.9263403708	 0.2715676931	 2.2343706543	-0.06139
C	 0.1723538816	 1.5495600415	 2.5500828004	-0.123912
O	-1.2336820684	 1.373247188	 2.7216227791	-0.250572
C	-2.052188224	 1.526712551	 1.5691722607	-0.113614
C	-2.2937394183	 0.2435451399	 0.7910333768	-0.06814
C	-1.4010546672	-0.4535018042	 0.0850464097	-0.085064
H	-0.4014734498	 1.5145216539	-1.1243261286	 0.282502
H	 0.4394444909	-0.6923519177	-0.9632848875	 0.073569
H	 1.4375522989	-1.3577473663	 1.0359287178	 0.092867
H	 1.5470428652	-0.1200092569	 3.0374417635	 0.091606
H	 0.5238262281	 1.9391238733	 3.5107568228	 0.098626
H	 0.3696872172	 2.3046576282	 1.7821738062	 0.12363
H	-3.0126655232	 1.8881006044	 1.9509611325	 0.10086
H	-1.6398123566	 2.3033393408	 0.9140673421	 0.100232
H	-3.3020353727	-0.1599101111	 0.8569801338	 0.094419
H	-1.714084088	-1.391494014	-0.368748831	 0.092751
145.3182	163.7239	177.2372	259.4244	284.8611	321.5435	377.3059	397.4171	442.2485	554.0783	592.7626	638.4549	721.4952	749.2705	793.5007	852.0764	885.0831	908.3038	973.2859	990.8113	998.4635	1000.2213	1028.3237	1055.937	1114.6873	1134.1431	1244.9844	1265.0846	1278.9892	1282.0688	1335.4291	1361.626	1388.497	1403.3299	1412.7197	1420.0089	1429.8712	1472.6772	1487.4544	1710.1613	1721.6265	2977.649	3025.2351	3040.2217	3072.6596	3085.8614	3135.1511	3140.8612	3159.6371	3167.5256	3806.151
OC1C=CCOCC=C1	O[C@H]1C=CCOCC=C1	
InChI=1S/C7H10O2/c8-7-3-1-5-9-6-2-4-7/h1-4,7-8H,5-6H2/b3-1-,4-2-	InChI=1S/C7H10O2/c8-7-3-1-5-9-6-2-4-7/h1-4,7-8H,5-6H2/b3-1-,4-2-
