18
gdb 43869	4.79879	1.11151	1.06476	3.0817	77.68	-0.2546	0.0311	0.2856	1168.1382	0.148344	-401.921837	-401.914384	-401.91344	-401.953874	29.684	
N	 0.08813435	 1.117759215	 0.7607032131	-0.5447
C	-0.0149656603	 0.048911107	 0.1136283051	 0.42236
C	-1.1620285064	-0.8283188448	-0.3335834244	-0.440805
C	-0.0498119362	-1.6998714621	-0.9513413604	 0.442286
C	 0.2635082327	-3.1789319808	-0.5951373158	-0.310881
C	 0.3999337646	-3.4836352669	-2.0943683673	-0.038855
C	-0.8765930312	-3.1269216121	-2.7946626136	-0.283459
C	 0.0838274649	-2.0227215222	-2.4308938423	-0.113705
O	 0.9564576277	-0.7546783288	-0.4497341771	-0.28518
H	 1.0661881849	 1.396438738	 0.8583182815	 0.225662
H	-1.7319819715	-1.2834576807	 0.4785666162	 0.135448
H	-1.8468496079	-0.3638638253	-1.0456051381	 0.137692
H	 1.2089731092	-3.2297501624	-0.0514916481	 0.128433
H	-0.5022441909	-3.7378619291	-0.0470649354	 0.100063
H	 1.1417656661	-4.1350926889	-2.53762636	 0.094662
H	-0.9187753228	-3.3601122141	-3.8536325583	 0.120041
H	-1.8321034811	-3.222406467	-2.2827601885	 0.110729
H	 0.5231640483	-1.3614316347	-3.1671998566	 0.10021
84.3037	120.0028	245.7502	355.5775	385.8149	402.3727	461.6506	496.7418	543.4399	740.3691	778.3182	790.2795	836.4304	848.1802	870.4617	893.437	935.4786	961.882	971.6705	974.4737	1023.4282	1027.2632	1061.3536	1078.6142	1088.7287	1113.52	1141.4023	1157.6108	1201.4263	1213.6445	1248.4546	1264.1928	1304.7366	1319.5574	1360.6861	1460.1946	1472.9604	1496.7375	1826.7717	3047.6306	3082.7279	3105.4344	3120.8239	3136.744	3190.6261	3194.1171	3206.6526	3472.8507
N=C1CC2(CC3CC23)O1	[NH][C]1C[C@]2(C[C@H]3C[C@@H]23)O1	
InChI=1S/C7H9NO/c8-6-3-7(9-6)2-4-1-5(4)7/h4-5,8H,1-3H2	InChI=1S/C7H9NO/c8-6-3-7(9-6)2-4-1-5(4)7/h4-5,8H,1-3H2/t4-,5-,7+/m1/s1
