19
gdb 60898	2.61363	1.29196	1.04469	2.8704	75.17	-0.2391	-0.0336	0.2055	1197.4794	0.156879	-422.98544	-422.976285	-422.975341	-423.02122	32.983	
C	-0.1698442628	 1.6126836315	-0.1000025983	-0.414478
C	-0.0067327058	 0.0877424493	 0.0027710242	-0.171833
C	-1.363215382	-0.5891978112	 0.1637744003	 0.148644
O	-1.5446337066	-1.6127874756	 0.7694278392	-0.248848
C	 0.7170346757	-0.4802169513	-1.1992460325	 0.280138
C	 0.074082342	-0.9350784566	-2.5018813177	-0.360824
C	 0.9251694791	-1.885174862	-1.7145476942	 0.05427
O	 2.3099489759	-1.6692547774	-1.9953914959	-0.285136
C	 2.2205174724	-0.3276208325	-1.4486131284	-0.137689
H	 0.8032076847	 2.102470213	-0.1970328761	 0.129003
H	-0.7680962595	 1.8828994399	-0.9766504273	 0.127915
H	-0.6623490612	 2.0202263411	 0.7886165551	 0.124319
H	 0.5705543106	-0.1705065268	 0.8992428172	 0.102191
H	-2.2083825192	-0.0655922403	-0.342275176	 0.076755
H	-0.9949681753	-1.1193135238	-2.4541355023	 0.120853
H	 0.4325880631	-0.5655799823	-3.4590199192	 0.116855
H	 0.6184557146	-2.8566801933	-1.3455533178	 0.122957
H	 2.5493390142	 0.4385219154	-2.1609390606	 0.106464
H	 2.8038278402	-0.2500092571	-0.5229690297	 0.108445
17.8879	43.1794	160.8162	194.6723	219.3115	262.6154	300.5751	397.2992	408.0195	466.213	513.3904	663.8889	756.3682	856.9351	868.9086	904.5845	928.9866	965.1393	986.1799	1000.5256	1007.1029	1043.6726	1056.2339	1080.3627	1099.4444	1134.063	1137.2984	1160.2194	1208.1178	1266.6802	1305.6657	1314.084	1339.1882	1398.3391	1406.7451	1429.5287	1481.587	1495.6632	1498.9222	1514.8541	1832.6778	2854.3846	3016.3831	3034.634	3036.0799	3066.9152	3106.3012	3112.6682	3113.3349	3189.252	3205.9298
CC(C=O)C12CC1OC2	C[C@@H](C=O)[C@]12C[C@H]1OC2	
InChI=1S/C7H10O2/c1-5(3-8)7-2-6(7)9-4-7/h3,5-6H,2,4H2,1H3	InChI=1S/C7H10O2/c1-5(3-8)7-2-6(7)9-4-7/h3,5-6H,2,4H2,1H3/t5-,6+,7+/m0/s1
