16
gdb 27322	3.20758	1.3464	0.9506	6.1207	79.33	-0.1804	0.0047	0.1852	1169.5317	0.126823	-434.097268	-434.089135	-434.088191	-434.129427	32.04	
N	 0.0899246554	 1.4023217509	 0.1362952459	-0.592219
C	-0.0037925241	 0.0084610837	 0.0241878609	 0.395742
C	-1.1575306914	-0.7044258338	 0.0016045839	-0.243345
C	-1.1840428526	-2.1546597486	 0.0016539518	 0.259531
N	-2.2941643644	-2.8120019486	-0.0056217319	-0.571899
C	 0.1564343914	-2.7679482424	-0.0169971814	 0.256236
O	 0.1561731456	-4.1322545658	-0.0532984626	-0.44177
C	 1.2763367924	-2.0172905066	-0.0093329185	-0.142298
N	 1.2168031009	-0.626567154	-0.0223806363	-0.384966
H	 0.6757219839	 1.8182347097	-0.5796450826	 0.248112
H	-0.8202017829	 1.8429104121	 0.1285132622	 0.257605
H	-2.1116064015	-0.1923793322	-0.0321969895	 0.090084
H	-2.0966175917	-3.8133256611	-0.0192897239	 0.213915
H	 1.0616110299	-4.4588598467	-0.0633336647	 0.295415
H	 2.2745719212	-2.4403064308	-0.0258684365	 0.104911
H	 2.0090644977	-0.1156458357	 0.3341095331	 0.254947
121.7914	186.8407	292.7932	299.3913	336.7483	339.9064	367.2621	416.301	440.1167	455.2186	522.0822	594.7488	634.6594	723.8402	744.3946	769.5401	803.2941	805.3968	851.9278	876.8851	976.8442	1103.3207	1152.216	1181.7521	1214.2835	1245.6341	1301.235	1355.6706	1405.5506	1456.2322	1546.8258	1628.9981	1648.4955	1681.6789	1722.6308	3185.2098	3203.9172	3470.8706	3521.632	3628.7406	3629.1624	3824.6685
NC1=CC(=N)C(O)=CN1	N[C@@H]1C=C([NH])C(=CN1)O	
InChI=1S/C5H7N3O/c6-3-1-5(7)8-2-4(3)9/h1-2,9H,(H4,6,7,8)	InChI=1S/C5H8N3O/c6-3-1-5(7)8-2-4(3)9/h1-2,5-6,8-9H,7H2/t5-/m0/s1
