16
gdb 67138	2.1889	1.88081	1.51409	4.3668	69.37	-0.2362	-0.0018	0.2344	953.5542	0.123209	-437.833843	-437.825827	-437.824883	-437.866155	30.344	
C	-0.1014444852	 1.5376131398	-0.1173967456	-0.523551
C	 0.0152129339	 0.0563059693	-0.0583245564	 0.320993
C	 0.5541344596	-1.0518716269	-0.8960369234	-0.199769
C	 1.3022371764	-1.6012095728	 0.3085407405	-0.200049
N	 0.3639463635	-0.7793871236	 1.1871796526	-0.252926
C	-0.9266479174	-1.5051071744	 0.9525993255	 0.35654
O	-1.6242483383	-2.0872171932	 1.7192858535	-0.316932
C	-0.958837653	-1.0444960306	-0.467090723	 0.202301
O	-1.9832379734	-0.9380084389	-1.3678598805	-0.454801
H	 0.8709959383	 2.0199412199	 0.0215214096	 0.136608
H	-0.504713215	 1.8420304054	-1.0879192589	 0.141525
H	-0.7779423225	 1.899255225	 0.6632989734	 0.146096
H	 0.7967274663	-1.0448824948	-1.9537059318	 0.103931
H	 1.271588359	-2.6768791389	 0.514610161	 0.11763
H	 2.3275591434	-1.2333712462	 0.3994513035	 0.1214
H	-2.0515493356	-1.758239659	-1.86957213	 0.301005
106.7597	171.9937	190.1098	250.5486	263.1808	306.816	341.6004	444.977	555.1214	616.0412	628.7191	691.0149	734.0197	793.5152	826.2387	894.7967	915.4239	946.8227	957.2246	990.2712	1080.4315	1083.4814	1119.7913	1147.9574	1160.0323	1232.369	1273.5569	1297.9221	1379.6607	1418.0592	1477.0979	1483.438	1497.7572	1514.7142	1922.5764	3038.2649	3041.1592	3101.5425	3107.4833	3115.6294	3169.6618	3794.6026
CC12C3CN1C(=O)C23O	C[C@@]12[C@H]3CN1C(=O)[C@@]23O	
InChI=1S/C6H7NO2/c1-5-3-2-7(5)4(8)6(3,5)9/h3,9H,2H2,1H3	InChI=1S/C6H7NO2/c1-5-3-2-7(5)4(8)6(3,5)9/h3,9H,2H2,1H3/t3-,5+,6-/m1/s1
