15
gdb 5736	4.16177	2.04784	1.40002	3.3285	69.26	-0.1792	0.0442	0.2234	852.7997	0.122141	-358.840226	-358.833431	-358.832487	-358.871273	25.47	
N	 0.0069579165	 1.4364855894	-0.0831955216	-0.598835
C	-0.0263189084	 0.0368604878	-0.0284307892	 0.119203
C	-1.077698737	-0.8484599604	-0.110823823	 0.270923
C	-2.4908130205	-1.3929533362	-0.2702904383	-0.388709
C	-1.805605035	-2.8124833802	-0.2390649939	-0.168847
N	-0.5181178194	-2.1014536793	-0.0727021242	 0.001723
C	 0.8244228433	-1.9781005021	 0.0130196836	-0.044865
N	 1.1411709459	-0.6884197119	 0.0560814307	-0.311899
H	 0.9155789752	 1.7691880792	 0.215576364	 0.246164
H	-0.7150723428	 1.8720803331	 0.4762434156	 0.237764
H	-3.1824718381	-1.2101123931	 0.5569841007	 0.120105
H	-2.9958393312	-1.159013835	-1.2113645171	 0.126123
H	-2.0666187153	-3.4492246304	 0.6095951133	 0.130166
H	-1.8695344491	-3.3842691287	-1.167815834	 0.132977
H	 1.521197766	-2.7998173824	 0.0541735735	 0.128006
95.5105	187.4949	214.8736	291.163	343.44	520.3789	633.7763	655.7735	681.6082	713.8445	761.3398	794.0868	808.4211	864.739	913.9068	1040.0237	1054.442	1075.4997	1137.2792	1185.056	1199.3619	1224.3045	1238.5554	1291.0337	1350.8979	1378.5361	1430.861	1465.3745	1494.965	1516.5817	1631.6276	1656.449	3054.9531	3065.8965	3096.1343	3123.0425	3264.5293	3532.3732	3625.6373
NC1=C2CCN2C=N1	Nc1c2CCn2cn1	
InChI=1S/C5H7N3/c6-5-4-1-2-8(4)3-7-5/h3H,1-2,6H2	InChI=1S/C5H7N3/c6-5-4-1-2-8(4)3-7-5/h3H,1-2,6H2
