19
gdb 42659	2.43182	1.86716	1.69261	3.3661	77.52	-0.2276	-0.0031	0.2245	929.1624	0.163576	-385.931621	-385.924821	-385.923877	-385.962749	27.958	
O	-0.0687252531	 0.0686524531	-0.1753632541	-0.353218
C	-0.0625694572	 1.2671941652	-0.0329765302	 0.437925
C	-1.2411446713	 2.1665664594	 0.1231468016	-0.175747
C	-0.7228250331	 3.4147115991	 0.8454883729	-0.061126
C	 0.7645819254	 3.202552013	 1.1278591092	-0.234819
C	 1.1722319803	 2.1797294442	 0.0485472769	-0.143195
C	 1.2980012775	 2.8852086725	-1.322708367	-0.223868
C	 0.0026271561	 3.6765758129	-1.6609338497	-0.231318
C	-1.0791657969	 3.5075877652	-0.6017966297	-0.029377
H	-2.2256660969	 1.7452518135	 0.2789500527	 0.099031
H	-1.3429082683	 3.9099653311	 1.5837795803	 0.091111
H	 1.3427855245	 4.1317879697	 1.0678757945	 0.098085
H	 0.9043254128	 2.7870469783	 2.1317203346	 0.10859
H	 2.0718941007	 1.6097234031	 0.2824278813	 0.085657
H	 2.1636440594	 3.5550591381	-1.2964093719	 0.103656
H	 1.5019368161	 2.1383649554	-2.0958414836	 0.117027
H	 0.2256413761	 4.7447310913	-1.7633960386	 0.107003
H	-0.3950471682	 3.3563179122	-2.6296720751	 0.111593
H	-2.0224686039	 3.9967817327	-0.8270243439	 0.092989
109.2488	158.6446	322.4591	392.3309	454.8021	469.4134	552.4167	614.4573	700.6863	748.6807	784.6562	805.2639	823.8652	848.9321	873.6652	903.0842	933.5794	972.6602	1010.9425	1043.3384	1044.722	1066.6258	1079.3048	1109.0492	1146.2682	1160.9357	1188.0904	1207.1513	1241.4389	1265.7818	1302.3314	1315.8969	1328.645	1344.5719	1352.667	1377.3841	1429.397	1488.7671	1500.285	1513.5054	1835.8389	3032.5749	3033.6131	3047.4844	3062.7483	3073.7378	3090.7156	3109.7044	3148.6969	3176.0047	3204.3352
O=C1C2C3CC1CCC23	O=C1[C@H]2[C@H]3C[C@@H]1CC[C@@H]23	
InChI=1S/C8H10O/c9-8-4-1-2-5-6(3-4)7(5)8/h4-7H,1-3H2	InChI=1S/C8H10O/c9-8-4-1-2-5-6(3-4)7(5)8/h4-7H,1-3H2/t4-,5+,6-,7+/m0/s1
