17
gdb 12270	3.92236	1.48757	1.17213	4.3702	66.5	-0.2522	0.0258	0.278	1029.5081	0.142337	-401.018031	-401.009605	-401.00866	-401.051224	29.629	
C	 0.0877854753	 1.3953440962	-0.0758399446	-0.346102
N	 0.0039032417	-0.0395820132	 0.0125992868	-0.072894
C	-1.1361631993	-0.9658522288	-0.0041038289	-0.206679
C	-0.1026375835	-2.1318407817	-0.028022577	-0.16471
C	-0.0090712346	-3.0293079798	-1.2614978061	-0.067552
O	 1.2152703549	-3.7323925566	-1.2639752765	-0.42255
C	 0.959082433	-1.0160941338	-0.0585528425	 0.419908
O	 2.1623111674	-0.9846704102	-0.1849953788	-0.399085
H	 1.1457884793	 1.6643660172	-0.1199472585	 0.163995
H	-0.4102474474	 1.7721440541	-0.9778761073	 0.130481
H	-0.3648047939	 1.8782906634	 0.7980705732	 0.132432
H	-1.7740396212	-0.9102350151	 0.8839326997	 0.114915
H	-1.7555204164	-0.8792129525	-0.9050959322	 0.112992
H	-0.0758285406	-2.7320242912	 0.884320535	 0.10997
H	-0.8075753795	-3.7790302912	-1.26615717	 0.109361
H	-0.1311728333	-2.4143770385	-2.170166523	 0.085476
H	 1.9169801281	-3.0802636981	-1.1283198395	 0.300043
86.6596	124.8378	140.3875	154.0829	210.3531	250.7825	344.0623	391.6969	502.6158	532.8903	663.4249	740.8095	793.5205	868.09	946.8686	1004.3857	1018.7197	1079.4273	1101.3941	1123.8396	1142.4847	1174.6459	1184.8446	1233.3787	1254.2134	1289.8208	1337.5341	1386.5993	1420.0786	1447.3626	1459.909	1482.1815	1510.057	1515.6607	1530.9943	1850.0076	2953.1688	3016.6385	3028.2171	3063.818	3069.7686	3075.7672	3098.35	3131.1017	3743.1191
CN1CC(CO)C1=O	CN1C[C@@H](CO)C1=O	
InChI=1S/C5H9NO2/c1-6-2-4(3-7)5(6)8/h4,7H,2-3H2,1H3	InChI=1S/C5H9NO2/c1-6-2-4(3-7)5(6)8/h4,7H,2-3H2,1H3/t4-/m0/s1
