19
gdb 22669	4.57291	0.86548	0.79949	2.928	87.01	-0.1766	-0.0091	0.1675	1470.7899	0.158866	-419.177632	-419.168355	-419.167411	-419.212105	34.002	
C	-0.2707099462	 1.5494543461	 0.1002391166	-0.379703
C	-0.0854690741	 0.0276783547	 0.0054701802	-0.154537
N	-1.3128001558	-0.7435261414	-0.0064149707	-0.04627
C	-2.1526962501	-0.8804286366	 1.1900239141	-0.260445
C	-3.503275234	-1.301304532	 0.6194851647	 0.385588
C	-3.3947104223	-1.2208693419	-0.8239666445	-0.288751
C	-2.1155837288	-0.8753780552	-1.1118934642	 0.013548
N	-4.4604620238	-1.6535788335	 1.3959675261	-0.267769
O	-5.6049157908	-2.0015556659	 0.6401411788	-0.403903
H	 0.7027319809	 2.0502598256	 0.0979151517	 0.12039
H	-0.8514728348	 1.9255158981	-0.7476578852	 0.126991
H	-0.790365002	 1.8356335273	 1.0196237559	 0.127228
H	 0.4663459666	-0.219235189	-0.908988948	 0.114064
H	 0.5283966483	-0.325510051	 0.8425090855	 0.112997
H	-1.7384768701	-1.6201678726	 1.8830872355	 0.133777
H	-2.2319641981	 0.0748520177	 1.7258273752	 0.127995
H	-4.1766308594	-1.458005421	-1.5242641722	 0.116238
H	-1.6739117497	-0.7288531773	-2.0909403952	 0.122952
H	-6.2280478658	-2.249417022	 1.3300535558	 0.299612
61.8908	77.6927	145.5138	187.2571	234.6522	250.1442	328.0118	344.2799	387.0381	429.9207	484.6374	646.7063	658.6837	732.9101	750.7325	788.1254	882.1428	894.1056	929.3033	952.6853	972.8723	995.3502	1067.5134	1091.5574	1129.2805	1196.7779	1218.3424	1244.9974	1265.9777	1317.4631	1359.5635	1388.7385	1391.921	1405.3569	1451.2224	1480.9633	1490.4502	1495.5543	1505.1619	1614.4454	1718.3846	3015.4403	3029.9419	3039.0145	3064.9671	3066.9241	3110.6711	3116.2919	3203.7781	3289.9619	3828.8877
CCN1CC(C=C1)=NO	CCN1CC(=NO)C=C1	
InChI=1S/C6H10N2O/c1-2-8-4-3-6(5-8)7-9/h3-4,9H,2,5H2,1H3	InChI=1S/C6H10N2O/c1-2-8-4-3-6(5-8)7-9/h3-4,9H,2,5H2,1H3
