20
gdb 126557	4.48811	0.80921	0.72168	2.6897	82.35	-0.2441	0.0172	0.2613	1637.6934	0.171634	-399.381016	-399.371286	-399.370342	-399.4183	33.946	
C	-0.0932365642	 1.5197743715	-0.0271140817	-0.380696
C	-0.0949310035	-0.0088177667	-0.0930642575	-0.158978
C	 0.8798003454	-0.5569563428	-1.1506389667	-0.286212
C	 0.8444378646	-2.0471358352	-1.2553311172	 0.330439
N	 1.8754594919	-2.8134853766	-0.9339560481	-0.269702
N	 1.3884854632	-4.0603659705	-1.1682588082	-0.234721
C	 0.1131077291	-4.0020421504	-1.6113546087	 0.348956
C	-0.7102867574	-5.1941594271	-1.966093245	-0.503881
N	-0.261717908	-2.7372043149	-1.6768867611	-0.339175
H	 0.9012121112	 1.9065377761	 0.2227908726	 0.113073
H	-0.3854169876	 1.9579321174	-0.9881463441	 0.11385
H	-0.7925139654	 1.8853925413	 0.7313244173	 0.110467
H	 0.1716140085	-0.4245958714	 0.8864105266	 0.098919
H	-1.1017720478	-0.3754710838	-0.3213480802	 0.116577
H	 0.6243724547	-0.1268360181	-2.1273268827	 0.111204
H	 1.9045748705	-0.2511363187	-0.9176489899	 0.113479
H	 1.9745678065	-4.8630676042	-1.0093342813	 0.273148
H	-0.8137995556	-5.8801695713	-1.1186336923	 0.139444
H	-1.7037227545	-4.8575046278	-2.2636785146	 0.163008
H	-0.2703012316	-5.7555182865	-2.7974604072	 0.140798
11.9546	46.6711	83.3338	102.6508	232.9385	243.8877	278.8519	316.2091	387.2027	424.2231	526.9174	650.0229	697.803	734.5136	754.3239	814.0696	879.1301	903.7532	989.2839	1019.0395	1047.4717	1064.8382	1073.4247	1098.5614	1113.4733	1161.9945	1248.9764	1290.8766	1305.0621	1325.3766	1379.307	1391.0404	1411.8547	1412.3278	1437.3542	1473.1758	1484.5267	1493.0647	1499.1484	1500.7432	1509.5596	1536.8917	1592.3779	3024.8683	3027.17	3036.6839	3039.5525	3064.0734	3087.0463	3092.8874	3100.2684	3101.3623	3152.6384	3663.8988
CCCC1=NNC(C)=N1	CCCc1n[nH]c(C)n1	
InChI=1S/C6H11N3/c1-3-4-6-7-5(2)8-9-6/h3-4H2,1-2H3,(H,7,8,9)	InChI=1S/C6H11N3/c1-3-4-6-7-5(2)8-9-6/h3-4H2,1-2H3,(H,7,8,9)
