15
gdb 16320	3.20268	2.05862	1.46523	3.2592	62.01	-0.2366	0.0036	0.2401	860.8392	0.118279	-399.771561	-399.764094	-399.763149	-399.803485	27.332	
C	 0.0586637676	 1.3446277804	 0.2221996927	-0.264973
O	 0.0447059916	-0.0350872356	-0.1398555066	-0.274944
C	-1.2082417715	-0.5729771002	-0.1470209145	 0.304888
C	-1.9105772096	-1.0870216986	 1.1250139634	-0.348821
C	-1.6183254452	-2.0200862965	-0.0173006088	-0.092132
N	-2.5836776267	-1.8362390928	-1.10898878	-0.342713
C	-2.2744548932	-0.4642168809	-1.2426579916	 0.347825
O	-2.7198124344	 0.3950611792	-1.947775439	-0.343613
H	 1.1003107916	 1.6671974968	 0.1784894201	 0.133027
H	-0.540116366	 1.9409415564	-0.4754389358	 0.145153
H	-0.3258658689	 1.4888053326	 1.2409094464	 0.114103
H	-1.2384977925	-1.1531236374	 1.9767070508	 0.129666
H	-2.9351630014	-0.8139425045	 1.3605537241	 0.121858
H	-0.9875342289	-2.8972001959	 0.0269822678	 0.128141
H	-3.5413894026	-2.167255103	-1.0567041592	 0.242537
79.4065	154.7208	183.0794	228.2696	307.6406	379.652	461.3596	501.7556	627.0852	674.8095	718.0759	781.8679	870.8693	900.3031	931.9979	984.1108	1008.1618	1048.105	1074.476	1084.6659	1127.0172	1181.5747	1210.7286	1250.0165	1284.2726	1319.0511	1390.1375	1467.5973	1487.0102	1500.1209	1507.6525	1895.9087	3008.1295	3078.3172	3112.8879	3136.7992	3205.5102	3217.4938	3537.9691
COC12CC1NC2=O	CO[C@]12C[C@H]1NC2=O	
InChI=1S/C5H7NO2/c1-8-5-2-3(5)6-4(5)7/h3H,2H2,1H3,(H,6,7)	InChI=1S/C5H7NO2/c1-8-5-2-3(5)6-4(5)7/h3H,2H2,1H3,(H,6,7)/t3-,5-/m1/s1
