17
gdb 130934	6.04836	0.69486	0.65401	1.7274	75.99	-0.24	-0.0321	0.2078	1640.2566	0.136782	-418.038256	-418.029633	-418.028688	-418.073707	30.055	
O	-0.1415549308	-0.0923182854	-0.3362997092	-0.229931
C	-0.0082538294	 1.0846678653	-0.1252177155	 0.155528
C	 1.3105940882	 1.8244838341	-0.1414476106	-0.261588
C	 1.2985182104	 2.9828556438	-1.1694998101	-0.341548
C	 2.5396681613	 3.8171625897	-1.1300606474	 0.380159
C	 2.8210395367	 5.0249712817	-0.5192269869	-0.299941
C	 4.1770310222	 5.2776006661	-0.8168566907	-0.000043
N	 4.7115774951	 4.3105900767	-1.5558162311	-0.225286
N	 3.7000061098	 3.4368636797	-1.7287857829	-0.245291
H	-0.8910586953	 1.730721022	 0.0965838103	 0.073817
H	 1.4771439851	 2.2471205859	 0.8583057528	 0.132138
H	 2.1127240582	 1.1111261947	-0.3485198646	 0.123884
H	 1.1535076339	 2.5691622476	-2.1750970495	 0.124615
H	 0.4377882141	 3.6314125702	-0.975050102	 0.127995
H	 2.1379484975	 5.6332069449	 0.0519273951	 0.101315
H	 4.7816412404	 6.1249646312	-0.5283772707	 0.112324
H	 3.8635374625	 2.6087780717	-2.2771586769	 0.271851
35.2903	56.367	69.9164	115.1321	278.5542	322.2981	337.8042	506.9572	532.9548	666.229	690.3946	741.9429	766.9951	804.6595	853.2169	895.3767	937.476	980.144	1037.2034	1057.1521	1064.8331	1077.7634	1138.1228	1184.7224	1240.1276	1263.7575	1285.5259	1321.8222	1359.0781	1378.3324	1428.6518	1443.0747	1464.3112	1491.2942	1495.3676	1605.6022	1838.2129	2849.5785	3026.6366	3036.7543	3076.9015	3110.1312	3243.9015	3265.9204	3663.8631
O=CCCC1=CC=NN1	O=CCCc1ccn[nH]1	
InChI=1S/C6H8N2O/c9-5-1-2-6-3-4-7-8-6/h3-5H,1-2H2,(H,7,8)	InChI=1S/C6H8N2O/c9-5-1-2-6-3-4-7-8-6/h3-5H,1-2H2,(H,7,8)
