16
gdb 34621	3.57982	1.25353	0.95873	1.7739	81.48	-0.2427	-0.0287	0.214	1188.7095	0.123608	-400.707715	-400.699405	-400.698461	-400.741437	30.598	
C	 0.0381402019	-1.2312337888	-0.2993385991	-0.367688
C	-0.0167501296	-0.0444010147	-0.1152545184	 0.297257
C	-0.0555295817	 1.3763144635	 0.1065855768	 0.185257
N	-1.1666248991	 1.9780807448	 0.0703866328	-0.294846
C	-1.3637899786	 3.4076725121	 0.1430726733	-0.212818
C	-0.4055611141	 4.3318921405	 0.8434677236	-0.03934
C	 0.7798414845	 4.0627914584	 1.3784289535	-0.082239
C	 1.4757528829	 2.7355833233	 1.3862935319	-0.144823
O	 1.2074178873	 1.8775102827	 0.2740023681	-0.253592
H	 0.0738117613	-2.2800172525	-0.4634909189	 0.202693
H	-1.4915283353	 3.755904053	-0.8957242659	 0.138797
H	-2.3541021582	 3.5659131334	 0.5938136918	 0.128093
H	-0.7818915373	 5.3513860413	 0.9157569566	 0.094956
H	 1.322891823	 4.8586384933	 1.8831454298	 0.095788
H	 2.559319842	 2.8840908752	 1.3571109996	 0.127433
H	 1.2532911711	 2.1886507244	 2.3147413945	 0.125072
31.5996	133.1566	160.4346	188.7178	319.3484	352.3299	376.9432	416.8467	542.5226	637.6839	639.9054	653.93	666.7188	721.3128	780.7108	834.7151	895.2598	934.0282	965.8224	1010.9306	1039.8324	1089.0633	1098.2713	1204.5458	1242.6425	1278.8726	1289.7216	1386.3265	1407.5761	1422.1016	1451.7525	1488.562	1743.2837	1757.5909	2235.791	2976.939	2996.4143	3010.8955	3080.3631	3132.1676	3159.9912	3501.8439
C#CC1=NCC=CCO1	C#CC1=NCC=CCO1	
InChI=1S/C7H7NO/c1-2-7-8-5-3-4-6-9-7/h1,3-4H,5-6H2	InChI=1S/C7H7NO/c1-2-7-8-5-3-4-6-9-7/h1,3-4H,5-6H2
