27
gdb 122961	5.71543	0.45758	0.43997	1.3412	94.17	-0.2604	0.0723	0.3327	2634.506	0.249723	-390.710234	-390.698069	-390.697125	-390.748619	43.449	
C	-0.0920060524	 1.6129775522	 0.032348155	-0.3793
C	-0.0290947985	 0.0834980852	 0.0065527666	-0.162204
C	 0.7013086587	-0.4718496463	-1.2209971886	-0.160856
C	 0.7602888495	-2.0020652871	-1.2542054237	-0.176428
C	 1.4960591278	-2.5581287033	-2.4773709718	-0.205605
C	 1.4998142153	-4.0902637359	-2.5493837577	 0.135539
O	 0.1705817005	-4.616188317	-2.5544703832	-0.428613
C	 2.3119868184	-4.6180876739	-3.7392560149	-0.18532
C	 2.3888614094	-6.1456701385	-3.7895049863	-0.380431
H	 0.9125655433	 2.0509420254	 0.0390550408	 0.1119
H	-0.6143399203	 2.0030364878	-0.8485375655	 0.111661
H	-0.6190774477	 1.9776990076	 0.9196753167	 0.109881
H	 0.4678014568	-0.2783584847	 0.9165321931	 0.093502
H	-1.0472691448	-0.326734158	 0.0362810201	 0.094367
H	 0.206658715	-0.1058850058	-2.132200791	 0.087109
H	 1.7218062978	-0.0636179315	-1.2501867157	 0.087906
H	 1.252885391	-2.3671800497	-0.3420738435	 0.089806
H	-0.2544435513	-2.4161154523	-1.234305646	 0.105144
H	 1.0363033887	-2.1647213887	-3.3975921251	 0.079576
H	 2.534478727	-2.2007307302	-2.4833610831	 0.092117
H	 1.9365820816	-4.4860761604	-1.6220021787	 0.082501
H	-0.2612071121	-4.297318006	-3.3556192228	 0.274189
H	 1.8603832362	-4.2348505669	-4.6666487928	 0.082435
H	 3.3213569387	-4.1898784758	-3.6953308659	 0.094547
H	 2.9138666184	-6.5414669828	-2.913002954	 0.113093
H	 1.3862413131	-6.5810372759	-3.7971462712	 0.126452
H	 2.9227121701	-6.4880556376	-4.6811372806	 0.107033
48.3529	61.1449	78.2732	111.2568	143.067	147.111	196.6425	221.4176	248.1788	257.0969	302.5815	304.6903	386.8932	448.4161	488.3787	545.0446	732.9976	757.6387	779.9325	831.7406	873.5647	904.0069	943.6807	981.8722	1005.9073	1018.4316	1039.2946	1063.8003	1071.8647	1097.5967	1112.0593	1134.8591	1160.9354	1224.9239	1252.6424	1263.508	1287.676	1306.8016	1322.259	1331.1006	1348.851	1364.8415	1384.8862	1395.5124	1400.153	1406.1118	1413.0395	1422.0463	1472.7991	1483.9429	1484.803	1491.0242	1495.248	1499.7635	1504.545	1509.6592	1514.6815	2986.7884	2997.7694	2998.7767	3010.6931	3016.7478	3021.3603	3024.5844	3027.9052	3035.4452	3037.0783	3048.5497	3052.8805	3073.8637	3093.873	3099.5794	3100.6464	3121.6146	3788.2136
CCCCCC(O)CC	CCCCC[C@@H](O)CC	
InChI=1S/C8H18O/c1-3-5-6-7-8(9)4-2/h8-9H,3-7H2,1-2H3	InChI=1S/C8H18O/c1-3-5-6-7-8(9)4-2/h8-9H,3-7H2,1-2H3/t8-/m0/s1
