15
gdb 54675	2.86046	1.48051	0.98155	3.8291	69.5	-0.2464	-0.0524	0.194	1123.0542	0.114311	-454.036661	-454.028667	-454.027723	-454.069442	29.74	
N	-0.058809062	 1.317026378	 0.010942267	-0.553068
C	 0.0638182271	-0.0324579142	 0.0029455201	 0.336834
O	 1.1228330886	-0.6368541862	-0.0097769098	-0.377954
C	-1.2486123425	-0.7503665562	 0.0119000104	 0.102209
C	-1.402832046	-2.0784328677	 0.0092158513	-0.166121
C	-2.8603148442	-2.4407424077	 0.0200857007	-0.213383
N	-3.496368718	-1.1422123566	 0.0292277606	-0.336965
C	-2.6015904638	-0.105710198	 0.0248806181	 0.386651
O	-2.8752647948	 1.0846480518	 0.0306169791	-0.409882
H	 0.7781113084	 1.8755143547	 0.0027952275	 0.257648
H	-0.9811291879	 1.738540488	 0.0178949048	 0.284367
H	-0.6023815507	-2.8054833591	 0.0003986925	 0.149133
H	-3.1351293619	-3.033907123	-0.8639050636	 0.13961
H	-3.1206030349	-3.0392491288	 0.9048698043	 0.139605
H	-4.4904065674	-0.9887991351	 0.0376708873	 0.261316
78.1142	132.3227	193.2334	218.5154	368.2157	374.147	410.2726	418.8906	439.759	600.2658	632.0976	657.5377	748.2558	757.0809	809.4649	818.3768	873.0228	949.8971	1020.4173	1061.1466	1106.275	1137.2737	1187.4737	1214.3927	1298.7813	1357.2374	1370.591	1426.0734	1491.1065	1616.0534	1688.3532	1776.869	1801.6462	3004.9928	3028.2944	3241.8218	3497.5131	3670.646	3700.4298
NC(=O)C1=CCNC1=O	NC(=O)C1=CCNC1=O	
InChI=1S/C5H6N2O2/c6-4(8)3-1-2-7-5(3)9/h1H,2H2,(H2,6,8)(H,7,9)	InChI=1S/C5H6N2O2/c6-4(8)3-1-2-7-5(3)9/h1H,2H2,(H2,6,8)(H,7,9)
