19
gdb 111148	3.63077	1.1369	0.99794	2.4243	72.34	-0.2485	0.0692	0.3177	1240.7006	0.156633	-460.07431	-460.065402	-460.064458	-460.107847	33.783	
C	 0.2868562098	 0.9605486712	 0.8553231246	-0.243221
O	-0.0166100657	-0.3871512616	 1.1468182453	-0.242598
C	-1.2926192071	-0.7595534625	 0.7482679803	 0.173493
C	-1.5263410963	-1.1947848124	-0.7306794707	-0.082294
O	-0.6565410286	-2.3748968615	-0.469647416	-0.335908
C	-1.5409680108	-2.2769161687	 0.7269332841	-0.080556
C	-2.7409243744	-2.0801858203	-0.2714568753	 0.476112
C	-4.0800417752	-1.50388382	 0.1413094467	-0.473687
O	-2.9975575044	-3.1803632473	-1.0895775216	-0.486154
H	 1.2814661181	 1.1606315959	 1.2591702634	 0.134138
H	 0.2973434815	 1.1524336551	-0.2274535348	 0.111015
H	-0.4333682045	 1.6501068728	 1.32315755	 0.105075
H	-2.0569491039	-0.1182479091	 1.2040977999	 0.068606
H	-1.3673161611	-0.6575705661	-1.6666768898	 0.095152
H	-1.3920832418	-3.0129564015	 1.517716596	 0.099336
H	-4.643155229	-1.2258484022	-0.7544100817	 0.135555
H	-4.6558436499	-2.2704934026	 0.6679104506	 0.136477
H	-3.9975312275	-0.6281083838	 0.7852773209	 0.121878
H	-2.1198621692	-3.5155922155	-1.3294420118	 0.287581
73.9948	153.3353	167.5325	174.107	238.1673	271.2729	351.5131	380.2675	423.6032	493.5805	554.8815	625.127	626.4651	729.2885	743.3301	782.28	871.7241	902.5474	940.8517	977.1155	1017.9153	1079.5522	1089.8607	1118.936	1126.197	1140.8426	1150.9914	1181.3649	1185.4958	1215.4773	1246.7075	1278.3247	1296.0933	1390.9971	1426.6193	1436.2323	1480.4394	1484.3072	1489.8645	1501.7714	1508.7109	2977.1489	3027.9483	3030.1894	3054.6319	3112.1998	3116.1809	3121.6783	3123.8897	3148.6984	3713.5592
COC1C2OC1C2(C)O	CO[C@H]1[C@H]2O[C@@H]1[C@]2(C)O	
InChI=1S/C6H10O3/c1-6(7)4-3(8-2)5(6)9-4/h3-5,7H,1-2H3	InChI=1S/C6H10O3/c1-6(7)4-3(8-2)5(6)9-4/h3-5,7H,1-2H3/t3-,4+,5-,6+
