23
gdb 83229	2.32403	1.53791	1.30646	1.3397	84.6	-0.2509	0.0724	0.3233	1136.8183	0.205831	-388.29607	-388.286648	-388.285704	-388.32972	36.924	
C	 0.09583206	 1.679252892	-0.3207782714	-0.41232
C	 0.0810278231	 0.1960521098	-0.0110100007	-0.01644
C	 1.2342202683	-0.7657102379	-0.1802588104	-0.065128
C	 2.6618137762	-0.228977643	-0.2346901379	-0.221283
C	 2.8547997282	 0.6147979652	 1.0480119806	-0.291579
C	 1.7372540974	 0.1903618445	 2.0503345702	 0.402009
C	 2.2739558944	-0.792651024	 3.0995213984	-0.43771
O	 1.1458476077	 1.3164002752	 2.7075140595	-0.475522
C	 0.6725865608	-0.4900277159	 1.2011182901	-0.06271
H	 1.0741892337	 2.1424050388	-0.19258411	 0.118696
H	-0.212245443	 1.8464016419	-1.359347984	 0.106078
H	-0.6033793088	 2.2152368275	 0.3284088305	 0.126703
H	-0.8700859868	-0.256857571	-0.2860542278	 0.0807
H	 1.0391111763	-1.7064393735	-0.6851179535	 0.074245
H	 3.3566635009	-1.0761784024	-0.2428901754	 0.098232
H	 2.8678433486	 0.3506712603	-1.1417826182	 0.098018
H	 3.8519026089	 0.4748270682	 1.478058155	 0.087536
H	 2.7457949402	 1.6825735418	 0.8483133325	 0.109584
H	 3.0589897484	-0.3210252816	 3.7037247909	 0.099316
H	 1.4724535435	-1.1153547036	 3.7705762092	 0.120642
H	 2.708938237	-1.6788325149	 2.6256164092	 0.118344
H	 1.8023591542	 1.6841249009	 3.30899069	 0.270452
H	 0.0482975108	-1.217059268	 1.7108143632	 0.072134
90.8079	104.031	171.2544	203.8309	269.4738	285.1829	293.3992	354.4792	381.5312	424.3222	460.9742	567.675	589.508	680.216	737.543	752.2348	818.0528	823.0433	911.5657	931.8012	959.6211	960.5291	977.7236	1001.0491	1037.6775	1073.0314	1084.0407	1105.4069	1125.2636	1142.2516	1157.1831	1198.1246	1227.6855	1242.2077	1251.4123	1300.3012	1316.8284	1341.7925	1371.1721	1400.8578	1406.7414	1421.5605	1444.3236	1482.4746	1489.2342	1492.2632	1496.2888	1502.5857	1515.594	3020.6079	3031.8809	3037.2422	3053.4182	3062.9453	3087.8271	3094.708	3106.2722	3111.3632	3112.0419	3146.6441	3147.6225	3159.6349	3800.8927
CC1C2CCC(C)(O)C12	C[C@H]1[C@H]2CC[C@@](C)(O)[C@@H]12	
InChI=1S/C8H14O/c1-5-6-3-4-8(2,9)7(5)6/h5-7,9H,3-4H2,1-2H3	InChI=1S/C8H14O/c1-5-6-3-4-8(2,9)7(5)6/h5-7,9H,3-4H2,1-2H3/t5-,6+,7-,8+/m0/s1
