17
gdb 43202	2.73169	1.68024	1.2424	2.9234	73.79	-0.2432	-0.0167	0.2265	1020.4597	0.137575	-417.964734	-417.957243	-417.956299	-417.996896	28.498	
O	 0.0849468926	 0.0587449412	 0.2937008555	-0.334738
C	 0.0690693786	 1.2414346437	 0.1019465932	 0.326554
N	-1.0065343321	 2.1670926216	-0.0218319049	-0.155492
C	-1.6840635179	 2.6108641579	 1.2433722625	-0.185264
C	-0.6525525405	 3.7693770436	 1.396283556	-0.252241
C	-0.0534093889	 3.3395791379	 0.0258117752	-0.063513
C	 1.1095598634	 2.3478390252	 0.0050460527	 0.211467
C	 2.4420279156	 2.327915131	 0.6600641923	-0.29151
N	 2.325404843	 2.4004328038	-0.7985186855	-0.367129
H	-2.7085146302	 2.9383025074	 1.053198016	 0.124129
H	-1.693339936	 1.8408969875	 2.0189216021	 0.131115
H	-1.078700898	 4.7734685089	 1.4210213797	 0.117015
H	 0.0343281292	 3.6555227688	 2.2384681643	 0.116441
H	-0.104372198	 4.05306659	-0.7977700312	 0.101418
H	 2.8112764899	 3.2329716569	 1.1346019241	 0.131092
H	 2.7493257835	 1.3938472097	 1.1234013773	 0.138389
H	 2.4930166757	 1.486786235	-1.2163822094	 0.252267
90.8506	175.5872	196.2426	227.135	234.3589	390.0989	493.809	580.1834	718.0857	733.6305	750.0274	807.0357	843.882	883.3914	901.2424	941.0736	952.5244	977.9523	988.7117	1003.3337	1050.3888	1106.6108	1115.2088	1133.6097	1179.4168	1207.3657	1225.4883	1253.2877	1258.8147	1278.5302	1300.3188	1318.4017	1414.1891	1479.6146	1503.3941	1510.6469	1879.1721	3065.0043	3072.0559	3104.1804	3107.5273	3113.7601	3134.8294	3199.6855	3487.8076
O=C1N2CCC2C11CN1	O=C1N2CC[C@H]2[C@]21CN2	
InChI=1S/C6H8N2O/c9-5-6(3-7-6)4-1-2-8(4)5/h4,7H,1-3H2	InChI=1S/C6H8N2O/c9-5-6(3-7-6)4-1-2-8(4)5/h4,7H,1-3H2/t4-,6-/m0/s1
