18
gdb 30283	3.10809	1.55189	1.10106	2.6359	78.82	-0.1988	0.0412	0.24	1094.472	0.149977	-401.980168	-401.972378	-401.971433	-402.012549	30.014	
C	 0.0993697504	 1.5670817011	-0.1325337164	-0.381114
C	-0.0465386434	 0.063611672	 0.0853297427	 0.016802
O	 0.5270919536	-0.6354892657	-1.0529538134	-0.295301
C	 1.4759614428	-1.6353895912	-0.6684959066	-0.182528
C	 1.5611711051	-1.4575071471	 0.8092983256	 0.247801
C	 0.6980660265	-0.500793019	 1.2564620169	 0.269771
C	 0.8316151177	-0.4218515297	 2.669823217	-0.343693
C	 1.7895432403	-1.3507741876	 3.0205347054	-0.069445
N	 2.2323804128	-1.9849318877	 1.8740541178	-0.370366
H	 1.1559927106	 1.8470661459	-0.1665593301	 0.116381
H	-0.3738794661	 1.862201705	-1.0735086143	 0.119508
H	-0.381912181	 2.1169057676	 0.683413384	 0.110379
H	-1.1187962754	-0.1870917949	 0.1221084881	 0.079923
H	 1.1135083648	-2.6319905095	-0.9701964222	 0.101578
H	 2.4239391298	-1.4585035044	-1.199439233	 0.104736
H	 0.3060691782	 0.2241185345	 3.3563476264	 0.095603
H	 2.1971370949	-1.6122276206	 3.9841450079	 0.118401
H	 2.9341972384	-2.7034499987	 1.847436944	 0.261565
79.9139	149.9664	202.4862	232.8385	295.0516	435.9055	450.2612	462.2133	600.3405	626.2762	659.0381	699.4433	720.3291	783.4264	816.7763	853.1532	927.6007	1000.8695	1033.4872	1046.4249	1073.1581	1090.7667	1095.8233	1118.138	1162.8526	1183.437	1256.4749	1304.8467	1325.9217	1374.4908	1397.9464	1402.6383	1449.419	1484.8297	1488.2789	1494.3422	1529.4363	1534.7401	1616.7731	2959.4516	2967.0095	2985.2037	3036.3069	3109.1699	3121.4877	3244.324	3266.8665	3682.4622
CC1OCC2=C1C=CN2	C[C@H]1OCc2c1cc[nH]2	
InChI=1S/C7H9NO/c1-5-6-2-3-8-7(6)4-9-5/h2-3,5,8H,4H2,1H3	InChI=1S/C7H9NO/c1-5-6-2-3-8-7(6)4-9-5/h2-3,5,8H,4H2,1H3/t5-/m1/s1
