19
gdb 34019	3.10864	1.31345	1.13547	1.1673	82.14	-0.2402	0.0482	0.2883	1136.3842	0.1603	-385.850268	-385.84219	-385.841245	-385.882613	32.062	
C	-0.0060274943	-1.1924447385	-0.0080123233	-0.418805
C	 0.0177335289	 0.0107908615	-0.0269873321	 0.222533
C	 0.0082182952	 1.4452083505	-0.0205719235	 0.138071
C	 0.4443266345	 2.1898827022	-1.2682872777	-0.313371
C	 1.3429115554	 2.1977746793	-0.0618613626	-0.065127
C	 1.5065093268	 3.4757796172	 0.7576527718	-0.237902
C	 0.3029125854	 3.7291881612	 1.6726295119	-0.075498
O	-0.9224877262	 3.457933819	 1.0090430862	-0.244196
C	-1.1064788392	 2.0704041445	 0.8214540097	-0.170584
H	-0.0193962654	-2.2539472962	-0.0004363604	 0.188322
H	 0.73378869	 1.5999787903	-2.1296348992	 0.120133
H	-0.0955688423	 3.1052849353	-1.4884649096	 0.12667
H	 2.2206317463	 1.5643425742	-0.1258982068	 0.099497
H	 2.411049246	 3.4127499063	 1.372051686	 0.103895
H	 1.6420401337	 4.3286912786	 0.0827438665	 0.110414
H	 0.3753427948	 3.1034340408	 2.5770562072	 0.0923
H	 0.2615220686	 4.7752442131	 1.9883403346	 0.107881
H	-2.0737372601	 1.9469821256	 0.3249750875	 0.117474
H	-1.1510257182	 1.5555729749	 1.7948134938	 0.098292
113.8596	139.8897	167.9338	278.9784	365.7661	392.9397	404.6325	501.2837	511.7955	544.678	579.3374	585.9587	647.4946	730.6227	775.7097	844.5826	870.864	928.0938	953.7228	964.6595	999.5564	1069.4109	1074.4062	1108.0817	1117.7547	1136.4302	1143.3236	1233.469	1253.0533	1277.7543	1290.5738	1323.494	1364.9592	1366.3343	1415.5405	1423.4727	1475.6466	1489.131	1495.4071	1506.275	2231.3446	2973.1137	2977.8496	3033.6553	3074.4553	3079.5943	3090.433	3134.0795	3168.6744	3229.7312	3503.8256
C#CC12CC1CCOC2	C#C[C@]12C[C@H]1CCOC2	
InChI=1S/C8H10O/c1-2-8-5-7(8)3-4-9-6-8/h1,7H,3-6H2	InChI=1S/C8H10O/c1-2-8-5-7(8)3-4-9-6-8/h1,7H,3-6H2/t7-,8-/m1/s1
