21
gdb 39684	3.64759	1.0604	0.99483	2.0899	77.5	-0.2385	0.0783	0.3168	1282.7592	0.184494	-424.208802	-424.200234	-424.19929	-424.24425	31.136	
C	-0.1098852699	 1.2074940339	-0.172327429	-0.058281
C	 1.3975987403	 1.4774981503	-0.0078677921	-0.302606
C	 1.4132946768	 0.1087008577	 0.716139579	 0.130682
O	 0.0249213634	-0.1266533516	 0.3633834173	-0.292224
C	 2.3391032291	-0.998046146	 0.2395168634	-0.004353
C	 1.970162075	-2.3892502219	 0.8292673354	-0.25784
C	 2.0591842701	-3.3419566941	-0.3869427706	-0.0736
O	 2.7243568991	-2.6223363077	-1.4173773423	-0.246529
C	 2.3266341627	-1.2699353681	-1.2775471406	-0.105161
H	-0.7597744306	 1.8315853883	 0.4546102135	 0.102084
H	-0.5038455914	 1.19925517	-1.1947216773	 0.106951
H	 1.9559286568	 1.4974265567	-0.9455538765	 0.115068
H	 1.6766890875	 2.3441635206	 0.5927472551	 0.109995
H	 1.5097560735	 0.2145373908	 1.8069174645	 0.073184
H	 3.3583270134	-0.7304825488	 0.5427367441	 0.077179
H	 2.6603536339	-2.6777768911	 1.6253067433	 0.104177
H	 0.9600270412	-2.3805475913	 1.2456072144	 0.123423
H	 2.6343200894	-4.2513072695	-0.1930264648	 0.104439
H	 1.0512090003	-3.6363190503	-0.717682032	 0.094053
H	 1.3122362425	-1.1139823221	-1.6784599848	 0.097577
H	 3.031710987	-0.6575966257	-1.8455433001	 0.101782
15.6763	74.4229	91.716	184.3005	206.3631	278.19	378.1727	550.5289	608.4922	686.1326	735.9981	798.202	833.3791	865.0381	914.0034	941.2343	952.3928	971.5958	977.1345	993.1622	1024.9698	1046.064	1101.4918	1125.4463	1126.7731	1155.0746	1171.0132	1214.3139	1228.4512	1239.3372	1256.4758	1275.5044	1288.5425	1301.7257	1312.6392	1329.8714	1359.9957	1377.6825	1396.0373	1410.5056	1490.0598	1493.597	1508.4661	1524.9732	1530.4439	2978.8442	2985.3436	2985.6078	3014.9282	3035.3821	3060.6251	3067.4577	3080.7168	3084.9754	3091.9107	3116.729	3135.3464
C1CC(O1)C1CCOC1	C1C[C@@H](O1)[C@H]1CCOC1	
InChI=1S/C7H12O2/c1-3-8-5-6(1)7-2-4-9-7/h6-7H,1-5H2	InChI=1S/C7H12O2/c1-3-8-5-6(1)7-2-4-9-7/h6-7H,1-5H2/t6-,7+/m0/s1
