18
gdb 111382	2.2097	1.64493	1.13964	4.0621	74.82	-0.2625	0.0186	0.2811	1098.6596	0.148439	-401.927298	-401.918916	-401.917972	-401.960396	31.64	
O	 0.0772749624	 1.4000880546	 0.0637884817	-0.425392
C	 0.0535331121	 0.0100602723	-0.2144827967	-0.09877
C	-1.3418746225	-0.5792479282	-0.0295197883	-0.012782
C	-1.5397604918	-2.0992426792	-0.1213498074	-0.070918
C	-0.8535988286	-2.8168653955	 1.0091279095	-0.291282
C	-2.1636983103	-2.1391350016	 1.275418381	-0.051067
C	-1.974997071	-0.6178572838	 1.4246644243	-0.184738
C	-1.1382295986	-0.1383905622	 2.5171230302	 0.284036
N	-0.4272422667	 0.2587604488	 3.3397507162	-0.351511
H	 0.1445741188	 1.5068015314	 1.0190225699	 0.299469
H	 0.3498021566	-0.1096066881	-1.2632871119	 0.112345
H	 0.7918793028	-0.5312080252	 0.3917780877	 0.103091
H	-2.0328031282	-0.0432503969	-0.6844250714	 0.097888
H	-1.862226702	-2.622647931	-1.0125385604	 0.099239
H	-0.9069816343	-3.899317675	 0.9594672374	 0.124561
H	 0.0638032039	-2.4423065854	 1.4533983945	 0.130927
H	-3.0383756968	-2.6712540741	 1.6256291785	 0.104547
H	-2.9250381058	-0.0808001607	 1.4487438651	 0.13036
101.444	110.6986	148.2183	193.0964	251.662	367.8151	381.1183	416.3867	469.5741	579.6488	596.5081	680.1073	779.2624	794.6772	824.4938	909.9812	947.6869	980.1709	991.1454	1033.2496	1046.1454	1060.8431	1071.1934	1086.5164	1096.1119	1118.0061	1153.2368	1190.792	1233.8519	1261.1681	1288.8091	1330.9883	1342.8305	1367.1968	1408.0537	1415.2472	1492.3391	1502.5723	2339.4107	3015.6995	3061.3368	3083.1106	3098.4227	3127.0291	3189.3841	3198.5718	3213.3959	3807.8249
OCC1C2CC2C1C#N	OC[C@H]1[C@H]2C[C@H]2[C@H]1C#N	
InChI=1S/C7H9NO/c8-2-6-4-1-5(4)7(6)3-9/h4-7,9H,1,3H2	InChI=1S/C7H9NO/c8-2-6-4-1-5(4)7(6)3-9/h4-7,9H,1,3H2/t4-,5+,6-,7+/m1/s1
