18
gdb 118792	4.81983	0.7546	0.71531	3.0977	73.83	-0.2767	-0.004	0.2727	1557.4005	0.145068	-439.073672	-439.063745	-439.062801	-439.109039	35.025	
C	-0.0929641485	 1.7193793365	 0.2555536047	-0.471291
C	-0.1742792166	 0.2131131252	 0.1484274163	 0.384018
C	-1.4363751273	-0.377718596	-0.4536235385	-0.275211
C	-1.6469702455	 0.0139353385	-1.9241197767	-0.065739
O	-2.8161218813	-0.5734492919	-2.4657596167	-0.413531
O	 1.0390257017	-0.4351413476	-0.272290636	-0.268454
C	 0.611932356	-0.6439582474	 1.0743357955	-0.16567
C	 1.4433468376	-0.0819215789	 2.117103718	 0.307093
N	 2.0903987702	 0.3538376465	 2.9701594104	-0.329822
H	 0.8175523062	 2.0297130693	 0.77092864	 0.15524
H	-0.0918277321	 2.171287417	-0.740586806	 0.141401
H	-0.9558486126	 2.1103667914	 0.8036310134	 0.135431
H	-1.3811518083	-1.4710113439	-0.3882338159	 0.098145
H	-2.308526385	-0.0602463518	 0.1291517289	 0.120614
H	-1.7933448468	 1.094479423	-2.0151973074	 0.119048
H	-0.7505400204	-0.2468765711	-2.5058905927	 0.110148
H	-2.6689976037	-1.522189028	-2.5342949771	 0.285208
H	 0.2494187365	-1.6464165407	 1.2965982097	 0.13337
60.2564	93.7764	101.4779	146.2379	184.1329	214.9184	297.115	313.0492	350.9549	368.461	423.4958	443.5888	579.4142	636.6735	737.9183	781.0556	828.504	930.6734	959.5856	985.5321	1040.5547	1066.7118	1077.1991	1093.5543	1119.4326	1161.2086	1257.4361	1300.0245	1313.9239	1354.8296	1402.9256	1420.6245	1423.1795	1431.6465	1470.3351	1488.8316	1499.336	1513.8006	2358.6912	3000.2472	3031.6978	3049.0997	3071.8338	3093.2529	3115.2931	3125.609	3142.2495	3817.1222
CC1(CCO)OC1C#N	C[C@@]1(CCO)O[C@H]1C#N	
InChI=1S/C6H9NO2/c1-6(2-3-8)5(4-7)9-6/h5,8H,2-3H2,1H3	InChI=1S/C6H9NO2/c1-6(2-3-8)5(4-7)9-6/h5,8H,2-3H2,1H3/t5-,6-/m0/s1
