18
gdb 17978	3.96831	1.66045	1.42651	0.7548	76.97	-0.2521	0.0483	0.3005	929.6566	0.154271	-310.608893	-310.601532	-310.600588	-310.640634	28.795	
C	 0.0662982933	-1.223072433	 0.1689470399	-0.46688
C	 0.0292587795	-0.0234646937	 0.0780950003	 0.32379
C	 0.0043369589	 1.4225560745	-0.002859966	-0.160316
C	-0.362371497	 2.2458220618	 1.2838701624	-0.250163
C	 0.878179449	 3.1567042335	 1.0640183244	-0.011026
C	 2.1206836499	 2.767300891	 1.8993588346	-0.22112
C	 2.4950294454	 1.6930051443	 0.8316372744	-0.233418
C	 1.3538322182	 2.2045350885	-0.0908123711	-0.026054
H	 0.0899526478	-2.2821647304	 0.2392275692	 0.192918
H	-0.6440847309	 1.7286544874	-0.830599859	 0.100047
H	-1.3326894975	 2.7432869723	 1.2287403182	 0.105781
H	-0.3255551902	 1.6607220918	 2.2060820655	 0.107647
H	 0.6717807663	 4.2175122646	 0.9163331957	 0.062988
H	 2.8579957534	 3.5726652019	 1.9565518401	 0.098636
H	 1.9255433053	 2.4106641563	 2.9154219937	 0.095542
H	 3.4964128883	 1.8043479652	 0.4102717806	 0.100811
H	 2.3744775729	 0.6538513657	 1.1479626006	 0.114897
H	 1.6461807274	 2.5487507383	-1.0834793436	 0.06592
63.6591	144.0631	196.7756	318.5708	356.9733	499.1684	531.0396	603.6964	620.7982	629.6733	732.2841	742.412	766.1766	847.6022	886.0191	900.545	931.9768	954.7524	1010.0294	1031.8474	1046.792	1081.9447	1100.4451	1146.1371	1178.0032	1209.3643	1218.6249	1252.105	1256.3942	1271.5967	1290.1161	1298.844	1319.6902	1341.3296	1478.0043	1483.5878	1498.4968	2226.6161	3043.7782	3047.4573	3064.4044	3065.6769	3086.7014	3096.2678	3100.2767	3118.5569	3123.3	3504.7088
C#CC1CC2CCC12	C#C[C@H]1C[C@H]2CC[C@@H]12	
InChI=1S/C8H10/c1-2-6-5-7-3-4-8(6)7/h1,6-8H,3-5H2	InChI=1S/C8H10/c1-2-6-5-7-3-4-8(6)7/h1,6-8H,3-5H2/t6-,7+,8-/m0/s1
