16
gdb 42272	3.30585	1.19657	1.07427	4.0065	73.88	-0.2715	-0.0828	0.1888	1139.9568	0.124079	-400.736513	-400.728442	-400.727498	-400.770191	29.445	
O	 0.3562124052	 0.2241100045	-1.1338102205	-0.278572
C	 0.052198257	 1.2077213954	-0.505223372	 0.298682
C	 1.0194281191	 1.8089474995	 0.4462926316	 0.223702
N	 1.7626373366	 2.3028147404	 1.1819228234	-0.301552
C	-1.2852416155	 1.8929201156	-0.5353968065	-0.112
C	-2.3838670306	 1.3333855864	-1.4894302642	-0.26959
C	-3.2694315023	 1.0430519291	-0.2694023492	-0.032259
C	-2.5721601172	 0.1052782531	 0.6705964996	-0.278024
C	-2.1876085212	 1.5606751499	 0.6824360831	-0.068614
H	-1.1392344686	 2.9718179216	-0.6360471222	 0.113823
H	-2.7794744949	 2.1121420438	-2.1432936128	 0.115864
H	-2.0921983017	 0.4696617727	-2.0909791423	 0.127812
H	-4.3362289205	 1.2195621556	-0.2204484759	 0.098671
H	-3.1513127689	-0.2109434545	 1.531709691	 0.123567
H	-1.889878128	-0.650670687	 0.2899252236	 0.131216
H	-2.2749257184	 2.1807274039	 1.5649481734	 0.107274
34.7897	122.606	125.1703	226.8948	277.3032	335.6388	426.8928	459.6982	579.9629	681.0764	709.8874	781.1572	786.7666	808.2253	909.4438	935.3101	967.282	977.5347	1008.4384	1026.5069	1063.6574	1085.5359	1102.2308	1116.0215	1145.2439	1198.1995	1210.8376	1259.1625	1285.5281	1353.8258	1361.0447	1479.441	1495.6598	1788.1831	2334.4978	3073.9106	3078.274	3117.6124	3131.3315	3192.2983	3199.3141	3212.1925
O=C(C#N)C1CC2CC12	O=C(C#N)[C@H]1C[C@H]2C[C@@H]12	
InChI=1S/C7H7NO/c8-3-7(9)6-2-4-1-5(4)6/h4-6H,1-2H2	InChI=1S/C7H7NO/c8-3-7(9)6-2-4-1-5(4)6/h4-6H,1-2H2/t4-,5-,6+/m1/s1
