18
gdb 73764	2.12732	1.9083	1.09605	3.9399	80.26	-0.229	-0.0462	0.1828	1115.0905	0.14707	-401.963388	-401.954568	-401.953624	-401.997388	32.26	
C	-0.092228974	 1.5010302513	 0.1550139181	-0.503637
C	-0.0674543119	 0.0165214517	 0.0029744752	 0.258724
C	-0.0159375498	-0.718531931	-1.1274754832	 0.078558
C	 0.0422576963	-0.2860860757	-2.5565769396	-0.498933
C	 0.0202079628	-2.1717712493	-0.7866764186	 0.396363
O	-0.0123738856	-3.0956919652	-1.5671057846	-0.334671
C	 0.0613625659	-2.2640862234	 0.7276992659	-0.17802
N	 1.2773709398	-1.6065349278	 1.2980420221	-0.330537
C	-0.017324851	-0.8758497652	 1.2143048064	-0.148697
H	 0.8048998864	 1.8429310988	 0.6869321969	 0.14664
H	-0.1376641214	 2.0194653781	-0.8047031232	 0.133621
H	-0.9522268876	 1.8184685705	 0.7579083461	 0.133209
H	 1.0293272718	-0.4964614124	-2.9850930724	 0.143269
H	-0.6795436309	-0.8542666563	-3.1518423468	 0.144877
H	-0.1618139524	 0.7799231399	-2.6802907574	 0.119151
H	-0.3749208632	-3.1168231911	 1.232975657	 0.10829
H	 1.3939095926	-1.9611485404	 2.2486601815	 0.234342
H	-0.531267778	-0.5998198923	 2.1288199365	 0.097454
45.0857	115.8457	149.8	191.4858	221.1745	266.9191	295.4361	421.6265	476.4311	539.943	577.6202	661.8171	674.4335	795.3311	822.6977	852.2343	881.3178	911.1268	964.3147	1007.3878	1037.8807	1066.8224	1088.7412	1117.5912	1137.1495	1155.9119	1192.8606	1275.1649	1321.3097	1350.5334	1392.4687	1413.8401	1417.1139	1472.3462	1477.0901	1482.0596	1485.7204	1700.0903	1813.0404	3021.8824	3035.8477	3068.1608	3089.9772	3122.899	3128.7786	3171.3514	3197.3033	3450.1719
CC1=C(C)C(=O)C2NC12	CC1=C(C)C(=O)[C@H]2N[C@@H]12	
InChI=1S/C7H9NO/c1-3-4(2)7(9)6-5(3)8-6/h5-6,8H,1-2H3	InChI=1S/C7H9NO/c1-3-4(2)7(9)6-5(3)8-6/h5-6,8H,1-2H3/t5-,6-/m0/s1
