20
gdb 98415	2.77226	1.11583	0.91859	4.0395	76.91	-0.2428	-0.0255	0.2173	1338.3925	0.167831	-440.270995	-440.26086	-440.259916	-440.306126	36.784	
C	-0.2062076101	 1.6148174299	 0.3489315077	-0.31994
N	-0.2246451654	 0.1655593165	 0.4917253949	-0.105423
C	 0.7740950093	-0.6149439689	-0.2016377459	-0.275635
C	 0.8006753898	-0.5058347298	 1.3053428577	 0.203809
C	 1.9424749689	 0.231939551	 1.9775145662	-0.472719
C	 0.270866124	-1.6743001324	 2.0896455319	 0.31723
O	 0.9352987561	-2.2145869144	 2.9532290441	-0.341047
C	-1.1375043325	-2.1876021042	 1.8161827446	-0.133863
O	-1.4035463047	-3.3286730864	 2.5783340909	-0.425791
H	 0.7941098465	 2.043956897	 0.1939933035	 0.108646
H	-0.8261721057	 1.8816562929	-0.5121921024	 0.134476
H	-0.6471134971	 2.0725332707	 1.2393333133	 0.13233
H	 0.4305723396	-1.519928904	-0.6963271985	 0.124978
H	 1.5777148305	-0.0907470891	-0.7193329048	 0.117422
H	 2.4126202296	 0.9566011341	 1.3109583641	 0.118974
H	 1.5967420977	 0.7568053183	 2.8741553766	 0.130426
H	 2.6972334395	-0.4904694888	 2.2947548124	 0.15224
H	-1.8346602944	-1.3647794259	 2.0416061785	 0.12371
H	-1.2618175712	-2.3930407844	 0.743405963	 0.119277
H	-0.6245984905	-3.4375424722	 3.1477111822	 0.290901
64.3615	99.1338	145.5777	157.452	176.4406	205.5196	282.3779	315.8752	340.2726	380.6645	441.4536	445.1717	475.0173	570.319	580.1204	749.1368	772.8277	846.186	933.2291	955.8261	1006.4252	1054.3038	1069.5076	1094.6159	1121.9612	1141.6759	1151.1385	1166.3222	1204.283	1236.3959	1289.9524	1333.085	1367.1125	1408.1707	1450.3991	1453.7073	1474.1084	1482.2923	1486.9941	1498.5093	1504.1608	1514.1919	1774.1107	2990.4527	2997.8708	3021.0368	3051.0881	3079.0308	3083.8477	3111.66	3119.7635	3144.3576	3172.5026	3677.1476
CN1CC1(C)C(=O)CO	CN1C[C@]1(C)C(=O)CO	
InChI=1S/C6H11NO2/c1-6(4-7(6)2)5(9)3-8/h8H,3-4H2,1-2H3	InChI=1S/C6H11NO2/c1-6(4-7(6)2)5(9)3-8/h8H,3-4H2,1-2H3/t6-,7?/m1/s1
