18
gdb 38879	2.82421	2.17591	1.97175	1.0488	68.51	-0.2225	0.0888	0.3113	808.5577	0.153596	-439.076671	-439.071053	-439.070109	-439.106282	25.092	
C	-0.0306074516	 1.5876678834	 0.006544409	-0.196558
C	 1.5074912686	 1.6476837187	 0.007021092	-0.080053
N	 1.7414837825	 1.039980495	 1.3309908015	-0.287718
C	 1.1165840325	-0.2913112788	 1.096357354	-0.058843
C	 2.1922385979	-1.169915993	 0.4323005436	-0.091441
O	 2.8371524795	-0.3558486122	-0.563425187	-0.264969
C	 1.8789763642	 0.5478188397	-1.0826067196	 0.192372
O	 0.6603402566	-0.1617730699	-1.2692538313	-0.268219
C	 0.0258095777	 0.0532732788	 0.0082490711	 0.076649
H	-0.4454450031	 2.0554545433	 0.899459705	 0.111577
H	-0.5186075665	 1.9520128209	-0.8980792064	 0.105744
H	 1.9994042909	 2.6120140147	-0.1158369139	 0.073208
H	 2.7383362157	 0.9183823108	 1.4896424636	 0.223359
H	 0.7108192011	-0.7323346041	 2.0099087374	 0.079089
H	 2.9645757871	-1.4650208752	 1.1501487377	 0.104339
H	 1.7693367479	-2.0740336095	-0.0219766671	 0.108032
H	 2.2558252817	 0.9174821921	-2.0367473023	 0.09083
H	-0.8942180926	-0.5269253846	 0.0526676228	 0.082603
325.7781	351.2696	424.5205	524.6291	545.8635	569.5993	648.7213	682.6488	782.8788	797.8708	849.7529	863.4484	891.3902	909.9912	935.0116	941.9279	968.9574	985.4217	995.7176	1019.7108	1041.6184	1068.9701	1100.2636	1107.7194	1146.5109	1208.0742	1217.3852	1241.5288	1264.0352	1281.1391	1284.8656	1299.9817	1325.5028	1345.696	1357.3022	1393.0133	1423.0261	1481.3334	1509.9006	3026.618	3074.7466	3081.0326	3088.9534	3111.9923	3128.5992	3141.012	3153.8559	3500.8499
C1C2NC3COC2OC13	C1[C@H]2N[C@@H]3CO[C@H]2O[C@H]13	
InChI=1S/C6H9NO2/c1-3-6-8-2-4(7-3)5(1)9-6/h3-7H,1-2H2	InChI=1S/C6H9NO2/c1-3-6-8-2-4(7-3)5(1)9-6/h3-7H,1-2H2/t3-,4-,5-,6+/m1/s1
