23
gdb 57333	1.98563	1.4251	1.28148	1.2475	86.85	-0.2572	0.0555	0.3127	1197.856	0.200506	-388.267724	-388.256254	-388.25531	-388.302868	43.847	
C	-0.0721529174	 1.5567597028	 0.0836052805	-0.435224
C	 0.006138539	 0.0226675337	 0.0440346064	 0.35788
C	 0.6917589075	-0.4899881212	 1.3200581693	-0.435209
O	-1.3175663683	-0.5218881238	-0.0395823722	-0.475756
C	 0.7267284932	-0.4969752491	-1.2613133974	 0.07589
C	 0.7491339035	-2.0465072611	-1.2919486408	-0.423716
C	-0.0154215449	-0.0008231087	-2.528411508	-0.423713
C	 2.1073402524	-0.0019435669	-1.2959841731	 0.338906
C	 3.2443114197	 0.3869398427	-1.3556914904	-0.4965
H	 0.9224735457	 2.0067233368	 0.0279481625	 0.132467
H	-0.6800822674	 1.9423725002	-0.7369066507	 0.123747
H	-0.5347679749	 1.8795900903	 1.0234394017	 0.09922
H	 0.19318673	-0.0711979432	 2.2018531375	 0.099223
H	 0.6338911659	-1.5778025329	 1.389561881	 0.123754
H	 1.7421018756	-0.1892889369	 1.3547178259	 0.132452
H	-1.8014810138	-0.231600691	 0.7400086464	 0.276745
H	-0.2670362088	-2.4311265668	-1.1855448366	 0.134681
H	 1.1617614382	-2.3898736025	-2.2442149068	 0.115647
H	 1.3699787626	-2.4611340538	-0.4955327775	 0.119317
H	 0.0453113347	 1.0835692442	-2.6381514136	 0.119309
H	 0.4358287121	-0.4479687196	-3.4180220157	 0.115642
H	-1.0659722349	-0.2934118737	-2.4774674969	 0.134703
H	 4.2473658402	 0.7320568005	-1.4048252012	 0.190534
72.7529	150.5269	178.105	191.4326	217.2263	227.8053	234.415	250.9374	298.0716	307.6574	361.2304	363.0348	384.8817	411.8316	468.1599	479.8677	560.5306	566.4668	619.6495	637.6308	652.9916	814.8897	879.2886	922.6145	945.927	948.7231	980.9167	1006.1645	1031.8183	1119.7191	1135.8648	1198.6346	1207.3051	1229.9973	1260.4242	1353.9877	1387.7854	1393.4501	1409.5266	1415.6607	1475.7347	1480.7451	1489.7006	1497.7404	1498.7768	1501.5245	1508.2805	1524.4508	2225.5722	3033.6881	3040.1427	3053.2001	3057.7263	3101.9798	3108.4177	3122.3666	3126.8787	3136.512	3139.0566	3144.4677	3146.3104	3501.3175	3819.2818
CC(C)(O)C(C)(C)C#C	CC(C)(O)C(C)(C)C#C	
InChI=1S/C8H14O/c1-6-7(2,3)8(4,5)9/h1,9H,2-5H3	InChI=1S/C8H14O/c1-6-7(2,3)8(4,5)9/h1,9H,2-5H3
