19
gdb 110013	2.15753	1.66609	1.06293	3.4239	73.21	-0.2295	0.0227	0.2522	1156.6574	0.159783	-456.348816	-456.339563	-456.338619	-456.383	34.346	
C	 0.3893437704	 0.9730887261	 0.5678257028	-0.250458
O	-0.3489554583	 0.2034156091	-0.3708185964	-0.265039
C	 0.4585128177	-0.4564488799	-1.3304207801	-0.013674
C	 1.1300272279	-1.7600492771	-0.8226723353	 0.098123
O	 0.4501140156	-2.2675984334	 0.3113951117	-0.446388
C	 0.9751494275	-2.6874076156	-2.0555933576	-0.177558
N	-0.145631542	-2.1757213403	-2.8543333022	-0.284637
C	-0.41746493	-0.995437577	-2.4514837369	 0.346339
N	-1.3648248181	-0.1649390111	-2.993070775	-0.574751
H	 1.0385725284	 0.337989645	 1.1826873058	 0.135276
H	 1.0026352072	 1.73017086	 0.0593680573	 0.118403
H	-0.3369186717	 1.4742266563	 1.2114553581	 0.133978
H	 1.2032896429	 0.2449699915	-1.7377909492	 0.093431
H	 2.1812809952	-1.6138323961	-0.5504877384	 0.070491
H	-0.3341221409	-1.7187851105	 0.4379462894	 0.289812
H	 1.8919344972	-2.7012579813	-2.6614570914	 0.095442
H	 0.7812159937	-3.7146117197	-1.7314883563	 0.115993
H	-2.0460898185	-0.623915993	-3.5803261542	 0.25688
H	-1.7507616842	 0.5061367369	-2.3451495621	 0.258336
53.6089	101.9252	179.4019	209.4683	233.606	255.1442	318.8498	354.3439	410.1924	443.0716	464.495	551.0381	583.0407	650.5515	713.833	791.7939	848.8272	884.9264	959.4892	986.1497	1012.9711	1033.8213	1122.3716	1140.5623	1161.6881	1180.7523	1206.0859	1224.4533	1237.6637	1299.5355	1319.7365	1344.1025	1365.7255	1412.3394	1430.8423	1477.4669	1488.7938	1489.486	1508.3785	1620.9842	1742.4258	2985.1766	3001.635	3008.6033	3044.1107	3068.1855	3078.2865	3125.6823	3566.1856	3678.1284	3766.5117
COC1C(O)CN=C1N	CO[C@H]1[C@@H](O)C[N][C]1N	
InChI=1S/C5H10N2O2/c1-9-4-3(8)2-7-5(4)6/h3-4,8H,2H2,1H3,(H2,6,7)	InChI=1S/C5H10N2O2/c1-9-4-3(8)2-7-5(4)6/h3-4,8H,2H2,1H3,(H2,6,7)/t3-,4-/m0/s1
