14
gdb 23657	3.73583	1.7933	1.21295	2.5205	68.15	-0.2065	0.0048	0.2113	913.5594	0.108812	-386.757035	-386.750478	-386.749534	-386.787461	26.128	
N	-0.0122410613	 1.4085303327	 0.1599447594	-0.591173
C	 0.0043857316	 0.0189468907	 0.0559838698	 0.362974
C	-1.1932910971	-0.7122578907	 0.037358389	-0.197706
C	-1.1659723803	-2.1004424282	-0.0059594173	-0.069554
C	 0.0382539331	-2.801018747	-0.0336357159	-0.282616
C	 1.2108006524	-2.0596320829	-0.0160706969	 0.334634
F	 2.3861965062	-2.7012185356	-0.0448302553	-0.088355
C	 1.2214949137	-0.6749982806	 0.0269541857	-0.344415
H	 0.8137467841	 1.8753870876	-0.1839909738	 0.248739
H	-0.8568645069	 1.8505150342	-0.171286461	 0.248422
H	-2.1414738265	-0.1847030386	 0.0613781427	 0.082105
H	-2.1017332537	-2.6494716585	-0.0211028573	 0.099929
H	 0.080078219	-3.8819405576	-0.0689675451	 0.102891
H	 2.1701508856	-0.1502017054	 0.0421270561	 0.094126
222.4319	240.4965	308.5896	323.0087	461.033	464.625	519.6127	536.0583	574.5363	638.7161	702.3961	755.5268	779.8384	854.109	857.8551	949.9054	973.7076	1010.6054	1080.0825	1124.4505	1175.3091	1207.4285	1307.4575	1347.6871	1358.5245	1503.1444	1529.5811	1632.2726	1650.8434	1665.6634	3170.2909	3188.3209	3192.8973	3217.522	3569.2955	3669.3193
NC1=CC=CC(F)=C1	Nc1cccc(F)c1	
InChI=1S/C6H6FN/c7-5-2-1-3-6(8)4-5/h1-4H,8H2	InChI=1S/C6H6FN/c7-5-2-1-3-6(8)4-5/h1-4H,8H2
