15
gdb 82264	3.21969	1.40491	1.08228	3.2101	72.79	-0.2544	-0.0649	0.1895	1065.4361	0.114172	-416.799128	-416.791531	-416.790586	-416.8313	28.752	
N	-0.0302967698	 1.4678256946	 0.1153665819	-0.51006
C	 0.0093049917	 0.0178800981	 0.0043776285	-0.109116
C	-1.3988923476	-0.5706453663	-0.0728977358	 0.039973
O	-2.1350779937	-0.1172251195	-1.2111180522	-0.254076
C	-1.4987078298	-1.4183365535	-1.2685288669	 0.002468
C	-0.1743438258	-1.3660795211	-1.9545827953	-0.183758
C	 0.6559051749	-0.5594530584	-1.2759903373	 0.168925
C	 1.9658089479	-0.17470863	-1.6620684618	 0.216685
N	 3.0411922366	 0.1726577988	-1.9197186318	-0.335432
H	 0.9076522093	 1.8560333447	 0.0860848362	 0.246393
H	-0.5413257833	 1.8449431029	-0.6781513445	 0.244852
H	 0.5299582979	-0.3794412318	 0.8844790739	 0.109053
H	-1.9762449926	-0.7282537988	 0.8325024284	 0.115048
H	-2.1722145206	-2.2625611028	-1.3662239238	 0.114952
H	 0.0510246749	-1.869774777	-2.8859010295	 0.134092
106.8287	136.4122	188.1342	266.6779	333.8774	386.2264	467.43	482.1879	559.9221	628.674	665.8281	704.2488	819.7923	838.0755	865.3939	883.5512	911.1502	936.3621	990.3957	1050.3022	1107.2893	1119.7304	1161.4623	1206.5643	1247.3257	1278.8032	1298.7936	1330.5605	1405.4098	1410.3576	1652.2461	1661.7923	2330.9658	3038.3736	3168.6064	3184.8306	3220.5469	3493.6771	3576.9347
NC1C2OC2C=C1C#N	N[C@H]1[C@H]2O[C@H]2C=C1C#N	
InChI=1S/C6H6N2O/c7-2-3-1-4-6(9-4)5(3)8/h1,4-6H,8H2	InChI=1S/C6H6N2O/c7-2-3-1-4-6(9-4)5(3)8/h1,4-6H,8H2/t4-,5+,6-/m0/s1
