21
gdb 60496	4.83912	0.51058	0.47914	5.3043	77.65	-0.2739	0.0108	0.2847	2244.6471	0.179614	-461.388251	-461.377388	-461.376444	-461.425968	37.561	
C	 0.1649352336	 1.3966856016	 0.1955678462	-0.406973
C	-0.0056657958	-0.1151901299	 0.0521554003	 0.137776
O	 0.5850681967	-0.8091608175	 1.1489139585	-0.425609
C	-1.4746879519	-0.5207501732	-0.1407610957	-0.199243
C	-1.6520848459	-2.0266744193	-0.3572111228	-0.186345
C	-3.1178364825	-2.431134663	-0.4471653483	-0.093686
O	-3.2461589345	-3.8268652103	-0.7556150599	-0.173044
C	-3.5610229962	-4.6672399986	 0.2451414822	 0.17225
O	-3.6500079928	-5.8488861173	 0.0979275592	-0.275285
H	 1.218262223	 1.6462300171	 0.3482035818	 0.128477
H	-0.1924555723	 1.9244524981	-0.6943834921	 0.119155
H	-0.4046663736	 1.7724258383	 1.0554393224	 0.106942
H	 0.5661776002	-0.4573188647	-0.819974654	 0.093201
H	 0.2068524212	-0.4498943116	 1.9595466083	 0.276642
H	-2.045080199	-0.1973378742	 0.7435209088	 0.08502
H	-1.8891819662	 0.0349958645	-0.9921188946	 0.099866
H	-1.1468931058	-2.3361621853	-1.2797932144	 0.116744
H	-1.1689918359	-2.5684714695	 0.4625994825	 0.121203
H	-3.6469073921	-2.2070867589	 0.4893505249	 0.107486
H	-3.6291529956	-1.8973779999	-1.2542249374	 0.123638
H	-3.7359310546	-4.1424333066	 1.2061818243	 0.071785
35.9133	49.2143	83.5096	117.8394	147.6728	171.2309	247.2512	270.6473	304.7313	314.3721	382.9743	426.876	474.0883	508.6565	676.0869	755.1183	832.8825	864.9419	939.1704	996.4407	1031.0813	1040.4609	1048.1155	1060.9892	1090.0293	1127.6439	1145.9993	1172.9293	1246.4894	1268.2116	1296.4183	1331.4808	1339.8952	1355.914	1394.7484	1405.9666	1411.1675	1422.2713	1435.4628	1476.7546	1492.9829	1496.2549	1497.1107	1513.8104	1867.4172	2932.8088	2993.0307	3014.738	3022.471	3032.	3043.0422	3047.6376	3075.8947	3094.4693	3100.5926	3120.8589	3794.7759
CC(O)CCCOC=O	C[C@@H](O)CCCOC=O	
InChI=1S/C6H12O3/c1-6(8)3-2-4-9-5-7/h5-6,8H,2-4H2,1H3	InChI=1S/C6H12O3/c1-6(8)3-2-4-9-5-7/h5-6,8H,2-4H2,1H3/t6-/m1/s1
