19
gdb 69239	2.61104	1.5453	1.17405	3.178	81.64	-0.2256	-0.0106	0.215	1105.8585	0.159684	-385.920568	-385.912451	-385.911506	-385.953023	31.964	
C	 0.0709052165	 1.522919898	-0.021961199	-0.474681
C	-0.0227599825	 0.0104404061	-0.0092829652	 0.299599
C	-0.8343070079	-0.6611270083	 1.0669707409	-0.325878
C	 0.6851105631	-0.7463308946	 1.1185848656	-0.171476
C	 1.4129903024	-2.0032329888	 0.8021494201	 0.406781
O	 2.3387417122	-2.3885864531	 1.4841433133	-0.334728
C	 0.9784279021	-2.7725482105	-0.4447010699	-0.391513
C	 0.4132988083	-1.9065970173	-1.5402309098	-0.084574
C	-0.0130954172	-0.6605651348	-1.3393156161	-0.107628
H	 1.0004190928	 1.8575233325	-0.4944880633	 0.128588
H	-0.7654830873	 1.9587264598	-0.5806620933	 0.12212
H	 0.0424555873	 1.9303685691	 0.9928643322	 0.120143
H	-1.2993365776	-0.0428284323	 1.82764441	 0.123139
H	-1.3934381282	-1.5516284063	 0.8030055332	 0.124889
H	 1.172275601	-0.1573827333	 1.8879024856	 0.10381
H	 1.842660449	-3.3504210178	-0.7860502474	 0.136501
H	 0.2324447062	-3.5210903502	-0.1332147187	 0.137175
H	 0.3495208057	-2.3487048276	-2.5306481296	 0.097834
H	-0.412002286	-0.0825926506	-2.1694549888	 0.089901
89.8968	143.2106	217.4861	260.4288	309.6122	349.53	438.8358	447.3514	490.6107	535.8307	592.7692	651.9802	711.7227	741.0273	831.7612	872.3426	919.2908	930.6816	945.8178	971.974	992.2211	1006.6464	1039.8478	1062.7628	1098.6445	1116.8255	1184.6647	1192.2082	1233.1208	1259.0614	1313.3613	1330.5829	1386.7293	1418.6154	1421.4701	1445.1013	1483.1303	1489.3396	1500.9309	1721.5444	1791.4119	2991.3975	3028.083	3080.7647	3091.4513	3107.339	3133.1553	3149.1083	3172.64	3175.1969	3223.491
CC12CC1C(=O)CC=C2	C[C@]12C[C@H]1C(=O)CC=C2	
InChI=1S/C8H10O/c1-8-4-2-3-7(9)6(8)5-8/h2,4,6H,3,5H2,1H3	InChI=1S/C8H10O/c1-8-4-2-3-7(9)6(8)5-8/h2,4,6H,3,5H2,1H3/t6-,8-/m0/s1
