21
gdb 120981	3.6519	0.93166	0.88019	1.065	78.77	-0.2455	0.0627	0.3082	1438.9569	0.182186	-424.187762	-424.178881	-424.177937	-424.222132	32.901	
C	 0.2784318362	 1.4752197724	-0.0290653499	-0.380937
C	 0.2300894207	-0.0534205832	 0.030553348	-0.164963
C	 0.6540857027	-0.6098756051	 1.3953203366	-0.191928
C	 0.6329529782	-2.1232763883	 1.4419262041	 0.115448
O	 1.5131934409	-2.758112046	 0.4575054557	-0.318941
C	 2.1475080727	-3.5622424855	 1.4643374667	 0.07243
C	 3.3793655651	-2.8901502775	 2.086531545	-0.093237
O	 2.5475918976	-2.1942589039	 3.0545097595	-0.290055
C	 1.3604059473	-2.8600345991	 2.5861364733	 0.034084
H	 1.2898430666	 1.8469294545	 0.169026551	 0.115438
H	-0.0252681093	 1.8447879499	-1.0135002092	 0.1113
H	-0.3887482823	 1.9240338512	 0.7155909556	 0.111555
H	-0.7854429004	-0.3988118888	-0.2051565616	 0.090767
H	 0.8841284813	-0.4790414684	-0.7386156101	 0.117015
H	 1.6609475718	-0.2647095286	 1.6536952124	 0.111537
H	-0.0183028086	-0.2354848034	 2.1801145143	 0.094587
H	-0.3900326077	-2.5054023195	 1.3041275631	 0.073467
H	 2.1676814016	-4.6261236822	 1.2225048676	 0.088643
H	 4.0786012919	-3.5710929028	 2.5884172701	 0.104147
H	 3.9232834894	-2.2090489301	 1.4240682083	 0.114723
H	 0.7794010342	-3.3124667655	 3.3916178594	 0.084922
67.785	83.6566	118.5051	142.172	252.8682	269.4922	320.4459	384.3402	452.8761	557.881	710.0921	746.6595	798.1625	824.4429	846.0985	904.2835	914.0019	939.3512	952.1169	997.0261	1007.4638	1043.4972	1064.6423	1072.4406	1095.1864	1127.8241	1156.6714	1170.2817	1198.3536	1227.4472	1256.5632	1269.3704	1295.246	1306.5096	1322.5858	1344.969	1356.2072	1379.1249	1404.5885	1413.9792	1477.0042	1493.6327	1499.8107	1501.0655	1510.3043	2988.1748	3016.1727	3017.8664	3019.5964	3028.8566	3062.4085	3080.5187	3083.0798	3091.7058	3098.3461	3101.8324	3104.6545
CCCC1OC2COC12	CCC[C@H]1O[C@H]2CO[C@@H]12	
InChI=1S/C7H12O2/c1-2-3-5-7-6(9-5)4-8-7/h5-7H,2-4H2,1H3	InChI=1S/C7H12O2/c1-2-3-5-7-6(9-5)4-8-7/h5-7H,2-4H2,1H3/t5-,6+,7+/m1/s1
