23
gdb 101020	2.91091	0.98785	0.85335	1.9844	81.11	-0.2618	0.0788	0.3406	1469.4503	0.203871	-425.410368	-425.399879	-425.398935	-425.44603	38.873	
C	 0.0828532998	 1.4493312224	-0.8740144535	-0.393858
C	-0.4176061016	 0.0126077235	-1.0553579351	-0.189242
C	-1.1087170942	-0.5622618	 0.1965957352	-0.049574
C	-2.5127014046	 0.0346472447	 0.402348635	-0.403624
C	-1.1761180345	-2.0885847191	 0.1997988341	 0.359929
C	-1.6363116591	-2.7306143729	 1.5099788083	-0.126735
O	-1.4320031665	-4.1243810107	 1.5175896241	-0.420343
C	-1.311724795	-2.8761971892	-1.032140595	-0.227225
O	-0.0434110381	-2.7889940382	-0.3532662969	-0.291265
H	 0.5789519665	 1.8046297776	-1.7824164444	 0.114737
H	-0.7311307263	 2.1471927487	-0.6527810024	 0.116183
H	 0.8070425365	 1.5132311727	-0.0542649265	 0.117132
H	-1.1124107649	-0.0229638743	-1.9046731591	 0.091442
H	 0.4276121932	-0.6335746405	-1.3108365965	 0.121113
H	-0.4930261155	-0.2848493768	 1.065788874	 0.077464
H	-2.9566354663	-0.2678146136	 1.3549140892	 0.122029
H	-2.474666376	 1.1272362981	 0.3962689198	 0.121371
H	-3.1893944483	-0.2810773601	-0.399812111	 0.118184
H	-1.1025709806	-2.2391936056	 2.3420678316	 0.089947
H	-2.7067594039	-2.560632441	 1.6629765393	 0.116309
H	-0.556073279	-4.2552993382	 1.1285955653	 0.291373
H	-1.7847582108	-3.8536913217	-0.9821760434	 0.127818
H	-1.3435128507	-2.3799953259	-1.9988180121	 0.116837
47.4473	88.5867	125.1771	169.5531	210.552	222.5737	270.7476	296.7881	330.279	341.0847	370.99	420.1591	493.7673	518.1751	622.684	708.3115	787.6829	830.6294	848.9874	903.6456	935.3528	976.4873	989.6341	1028.7626	1050.9095	1084.4187	1116.7524	1127.0745	1137.6102	1175.1294	1178.309	1225.6485	1232.9032	1297.0534	1324.2298	1352.962	1357.2556	1387.873	1407.0131	1414.4899	1422.4558	1446.0458	1490.3831	1497.046	1500.5293	1507.3299	1508.8629	1511.2404	1519.754	2954.1062	2988.996	3022.393	3033.4059	3038.073	3075.6466	3079.3112	3101.531	3104.7095	3107.3645	3107.5632	3117.3468	3198.4789	3748.9734
CCC(C)C1(CO)CO1	CC[C@@H](C)[C@@]1(CO)CO1	
InChI=1S/C7H14O2/c1-3-6(2)7(4-8)5-9-7/h6,8H,3-5H2,1-2H3	InChI=1S/C7H14O2/c1-3-6(2)7(4-8)5-9-7/h6,8H,3-5H2,1-2H3/t6-,7-/m1/s1
