16
gdb 127384	3.95158	1.19549	1.0982	0.9609	72.43	-0.2466	-0.0347	0.2119	1120.8575	0.125326	-434.032848	-434.0252	-434.024256	-434.065579	28.04	
C	-0.5165252773	 1.3184613751	-0.0023223349	-0.33157
N	 0.0028176402	-0.0440803463	 0.059832247	-0.081149
C	 1.3953712286	-0.2682257221	-0.2599346668	-0.250064
C	 0.9101790701	-0.4472895667	 1.1476848135	-0.115114
C	 1.3525392177	 0.4581246855	 2.2184491025	 0.44427
N	 1.313151845	 0.21389614	 3.499211345	-0.323484
C	 1.8427818154	 1.3644242067	 4.0231248326	 0.036953
N	 2.1888344807	 2.2723435878	 3.1532871006	-0.113782
O	 1.8656792993	 1.6656598821	 1.929353617	-0.207285
H	 0.215637982	 2.0972528156	 0.2471449073	 0.133708
H	-0.8752508812	 1.4918820819	-1.0211161769	 0.132868
H	-1.3689209032	 1.4060902488	 0.6777919504	 0.133756
H	 1.6196838526	-1.1493035225	-0.855368959	 0.129297
H	 2.0289286016	 0.5964414486	-0.4509280983	 0.134118
H	 0.71898243	-1.4433925111	 1.5332959355	 0.127301
H	 1.9720282884	 1.5305429767	 5.0828967546	 0.150177
61.6962	133.2014	185.2731	219.5092	294.7913	357.8636	451.1175	473.6319	652.619	674.7978	730.8326	805.5629	882.2391	907.587	934.3867	976.6585	979.6933	1015.6725	1035.7137	1092.416	1130.6309	1132.1717	1168.9169	1186.7094	1211.0559	1264.2924	1313.8407	1348.4748	1364.7847	1453.0961	1492.6173	1504.8479	1511.6675	1517.4366	1610.9393	3017.5299	3090.3258	3097.0524	3113.5654	3168.7468	3187.3783	3260.5923
CN1CC1C1=NC=NO1	CN1C[C@H]1c1ncno1	
InChI=1S/C5H7N3O/c1-8-2-4(8)5-6-3-7-9-5/h3-4H,2H2,1H3	InChI=1S/C5H7N3O/c1-8-2-4(8)5-6-3-7-9-5/h3-4H,2H2,1H3/t4-,8?/m0/s1
