13
gdb 21361	5.46798	2.17531	1.55621	3.8066	64.65	-0.1989	0.0257	0.2246	744.8473	0.099762	-357.665928	-357.659906	-357.658962	-357.695713	23.32	
N	-0.0429506061	 1.349452294	 0.0100929895	-0.41507
C	 1.2650959698	 1.8518863128	 0.0001784203	-0.058773
C	 2.1641072789	 0.8185214272	-0.0143989795	-0.336925
C	 1.3977738583	-0.3960096836	-0.0137088931	 0.240327
C	 0.0594364384	-0.0098641895	 0.0015396354	 0.450596
N	-0.7124636676	-1.1205201565	 0.0033956115	-0.360092
N	 0.0717456616	-2.2459966478	-0.0109149016	-0.22846
C	 1.3277129033	-1.8142898743	-0.0207544137	-0.151946
H	-0.8788853083	 1.9042716459	 0.0222440208	 0.263164
H	 1.4249491627	 2.9184135868	 0.0044550285	 0.121069
H	 3.2371163775	 0.927693165	-0.0243321656	 0.101064
H	-1.7104430553	-1.224392095	 0.0111029612	 0.267219
H	 2.1271529868	-2.540540705	-0.0325753337	 0.107826
215.0687	241.2899	265.846	371.1337	465.4149	600.9115	645.2852	694.2639	694.5443	752.5516	761.6049	816.2579	871.3968	923.9853	973.5742	1058.166	1066.7498	1103.6074	1191.9262	1243.9269	1287.3731	1341.1484	1385.9559	1427.7864	1487.0139	1522.1934	1570.5421	1645.4635	3243.8775	3250.8314	3270.5667	3699.237	3700.9902
N1C=CC2=C1NN=C2	[nH]1ccc2c1[nH]nc2	
InChI=1S/C5H5N3/c1-2-6-5-4(1)3-7-8-5/h1-3H,(H2,6,7,8)	InChI=1S/C5H5N3/c1-2-6-5-4(1)3-7-8-5/h1-3H,(H2,6,7,8)
