20
gdb 116284	1.821	1.65896	0.92645	4.9425	76.77	-0.2317	0.0356	0.2673	1268.0928	0.171882	-440.319532	-440.3103	-440.309356	-440.354542	33.372	
O	 0.019203415	 1.4449077974	-0.1068003405	-0.416496
C	 0.0609113067	 0.0296629541	-0.0377566575	-0.078362
C	-1.3694431444	-0.4944770925	 0.0536044789	 0.043715
C	-1.4320889673	-2.0321862212	-0.0769774584	-0.241144
C	-2.5840629428	-2.4522113739	 0.8492733219	-0.221196
C	-2.4645496192	-1.4609832494	 2.0121818299	-0.161324
N	-2.0062240762	-0.235477597	 1.3544775643	-0.054333
C	-2.4028116078	 0.9922436441	 1.7925629873	 0.127062
O	-3.0218693703	 1.1826990168	 2.8223765359	-0.350052
H	 0.9102122431	 1.7866475705	 0.0097202346	 0.292854
H	 0.5363580244	-0.3972114885	-0.9360387115	 0.089513
H	 0.6235597143	-0.3179037418	 0.8418413705	 0.094466
H	-1.9475532583	-0.0123073056	-0.7458108309	 0.096855
H	-1.5666848782	-2.3483532688	-1.1136834234	 0.111693
H	-0.4902621248	-2.4676001751	 0.2794657753	 0.105692
H	-3.546297911	-2.3175282082	 0.3435663851	 0.112999
H	-2.5157673291	-3.4944502615	 1.1693471041	 0.106185
H	-3.398885528	-1.2595746395	 2.5389385461	 0.138738
H	-1.7324346414	-1.8057578985	 2.7553558954	 0.106239
H	-2.0911364447	 1.8007162087	 1.1104049028	 0.096897
30.7411	102.3323	140.5531	188.9372	236.2428	236.9062	274.3807	338.2739	384.317	436.9619	551.5548	581.3737	681.746	824.7797	883.4201	887.0184	930.8283	944.2298	995.6958	1018.097	1037.503	1070.2827	1104.9898	1121.6408	1173.2763	1191.583	1214.9787	1245.5648	1264.0082	1275.8114	1303.3434	1333.1516	1345.6013	1361.415	1384.5127	1398.9694	1439.8554	1455.3828	1489.5367	1499.1324	1507.1146	1523.4338	1776.7713	2966.0304	3001.3646	3005.3759	3009.7164	3022.8386	3034.114	3052.0962	3104.0214	3110.2244	3118.2826	3837.052
OCC1CCCN1C=O	OC[C@H]1CCCN1C=O	
InChI=1S/C6H11NO2/c8-4-6-2-1-3-7(6)5-9/h5-6,8H,1-4H2	InChI=1S/C6H11NO2/c8-4-6-2-1-3-7(6)5-9/h5-6,8H,1-4H2/t6-/m1/s1
