18
gdb 60737	3.78953	1.00483	0.83579	3.4147	76.07	-0.2532	-0.0245	0.2287	1347.5937	0.147647	-435.260217	-435.250936	-435.249992	-435.295315	32.909	
C	 0.1010622096	 1.4893452164	 0.1430017101	-0.354482
N	 0.0725183527	 0.0305110132	 0.0689755243	-0.118753
C	-0.0947424138	-0.6782757023	 1.255903675	 0.169145
O	-0.184125874	-0.1528976457	 2.3411690019	-0.325014
C	 0.2192383663	-0.6549587631	-1.1480222442	 0.353309
N	 0.5028570742	-1.8987412107	-1.1381487461	-0.513921
C	 0.0047868193	 0.1980565588	-2.3662882365	-0.095184
C	 1.1905648063	 0.7001597411	-3.1250718824	-0.224674
N	 0.2928987197	-0.3025985749	-3.7077999998	-0.314159
H	 0.9540475756	 1.8891422702	-0.4090934423	 0.139238
H	-0.818659927	 1.9363728699	-0.2483999801	 0.135034
H	 0.1909646176	 1.7478763847	 1.1975233786	 0.174529
H	-0.1418070863	-1.7602272321	 1.0818003498	 0.139551
H	 0.4754657653	-2.2937079276	-2.0759191204	 0.218744
H	-0.8732196113	 0.837158294	-2.3222455559	 0.120275
H	 1.1579243298	 1.6819159288	-3.5881806978	 0.133313
H	 2.1716575068	 0.3808260274	-2.7833661811	 0.13094
H	 0.730873699	-1.2208351083	-3.6674595031	 0.232109
45.0423	58.7818	136.3589	175.4184	197.1499	263.8433	309.7955	347.9739	364.5348	411.1539	524.2364	677.4561	720.1672	791.9412	800.0539	853.7683	898.1501	937.0779	980.8603	1025.6875	1049.9174	1070.618	1117.2405	1148.1854	1153.4583	1174.4689	1219.7074	1253.8985	1291.4356	1303.5316	1350.7988	1418.2155	1432.1878	1453.245	1500.176	1506.9148	1515.564	1694.0363	1798.1588	3043.5658	3074.6827	3111.7383	3112.5162	3143.3817	3163.9025	3202.5677	3484.0022	3501.8917
CN(C=O)C(=N)C1CN1	CN(C=O)C(=N)[C@H]1CN1	
InChI=1S/C5H9N3O/c1-8(3-9)5(6)4-2-7-4/h3-4,6-7H,2H2,1H3	InChI=1S/C5H9N3O/c1-8(3-9)5(6)4-2-7-4/h3-4,6-7H,2H2,1H3/t4-/m1/s1
