17
gdb 119546	3.16209	1.13673	0.92772	3.933	69.28	-0.2595	-0.0023	0.2572	1278.3935	0.13395	-458.94536	-458.936706	-458.935762	-458.979603	31.281	
C	-0.1130601799	 1.5656078879	-0.0744451561	-0.390994
C	-0.0523907941	 0.0570158426	-0.213859945	-0.068651
O	-1.3177611714	-0.4771982611	 0.2082411661	-0.280707
C	-1.389952034	-1.8331638508	 0.1403302814	 0.242455
C	-1.6349716105	-2.6206864512	-1.1666269385	-0.352793
C	-2.5686729742	-2.7528398145	-0.0141538804	 0.00754
O	-1.9969518522	-3.700015953	 0.9340609339	-0.2651
C	-0.9424106444	-2.8278142246	 1.1977659656	 0.406928
O	-0.0979390402	-2.9348021242	 2.0236993658	-0.32972
H	 0.8350141168	 2.0098852527	-0.3910839648	 0.12313
H	-0.9144615471	 1.9788935105	-0.6933906352	 0.128319
H	-0.2989092058	 1.8486076093	 0.9650896299	 0.136596
H	 0.1361975382	-0.2402764148	-1.2554783262	 0.099642
H	 0.7456279661	-0.3676747442	 0.4084364298	 0.125496
H	-1.9727946389	-1.9771279133	-1.9743558992	 0.136089
H	-1.0126996972	-3.4617903077	-1.4548062226	 0.138552
H	-3.6334700512	-2.5788229036	 0.0323639455	 0.143219
54.5397	73.4329	137.5861	192.2779	239.6015	294.6734	349.5867	396.718	465.1384	528.3774	660.3762	738.253	784.2074	819.3868	849.741	886.6019	907.7159	949.2668	961.6336	1023.2998	1044.8935	1059.696	1072.8086	1081.6795	1140.936	1184.5842	1235.8503	1275.82	1295.353	1382.3928	1408.1761	1436.1645	1483.462	1487.8095	1499.5339	1524.9018	1944.5136	3001.3295	3047.4289	3048.6704	3121.9226	3123.0891	3127.1012	3218.7497	3237.787
CCOC12CC1OC2=O	CCO[C@]12C[C@H]1OC2=O	
InChI=1S/C6H8O3/c1-2-8-6-3-4(6)9-5(6)7/h4H,2-3H2,1H3	InChI=1S/C6H8O3/c1-2-8-6-3-4(6)9-5(6)7/h4H,2-3H2,1H3/t4-,6-/m1/s1
