22
gdb 12533	3.13018	1.71231	1.20368	0.2447	83.19	-0.2338	0.0246	0.2584	1073.6925	0.202344	-313.091895	-313.083721	-313.082777	-313.124151	32.067	
C	-0.11497992	 1.5572205664	 0.0146607684	-0.397586
C	 0.0104979259	 0.0267251657	 0.001143099	 0.047094
C	 0.6427924963	-0.4377576023	-1.3231483158	-0.168858
C	 0.6187517078	-1.9555894479	-1.5856588684	-0.259769
C	 1.5738258648	-2.7731685301	-0.7491016389	-0.047811
C	 1.6322389823	-2.7801349131	 0.5823183108	-0.047818
C	 0.7544653688	-1.9717751792	 1.5077916199	-0.259769
C	 0.756132556	-0.4512742215	 1.260050533	-0.168858
H	 0.8726960572	 2.0321246133	-0.0261682798	 0.112119
H	-0.6908367224	 1.9176152778	-0.8443007006	 0.107307
H	-0.6132641508	 1.9083489784	 0.9244583643	 0.107307
H	-1.0074367762	-0.392344783	 0.0436147654	 0.063836
H	 0.1045773554	 0.054928646	-2.1431402285	 0.085837
H	 1.6796233024	-0.0793446481	-1.3760110524	 0.091707
H	-0.4095428914	-2.31967224	-1.437465833	 0.103836
H	 0.841548491	-2.126800603	-2.6441031476	 0.094522
H	 2.2635866393	-3.4129111858	-1.2954576794	 0.080499
H	 2.366903314	-3.4252316124	 1.0594592695	 0.0805
H	-0.283024069	-2.3347549087	 1.4464124471	 0.103837
H	 1.0690099694	-2.1539370097	 2.5408134511	 0.094522
H	 1.7937750906	-0.0929657537	 1.225638943	 0.091708
H	 0.2920292488	 0.0325830809	 2.129125253	 0.085838
78.5906	193.9132	218.1071	224.02	300.9407	320.3617	343.3666	418.4148	487.4909	514.6078	663.5823	725.2566	740.1951	845.7481	861.0812	895.0128	920.8117	955.0684	978.8499	994.5169	1006.1611	1037.196	1087.683	1087.6942	1107.4358	1162.1117	1176.8966	1233.7608	1265.3701	1278.2109	1297.1404	1330.2763	1336.6879	1364.873	1365.8184	1387.7703	1402.1313	1416.9045	1424.4929	1475.3254	1481.1391	1485.7773	1491.6785	1497.913	1500.9457	1726.9297	2975.673	2991.3717	2992.8778	3009.2716	3012.2427	3024.7031	3048.5527	3053.2073	3061.1542	3062.7403	3089.4817	3096.7858	3133.7363	3158.8624
CC1CCC=CCC1	C[C@H]1CCC=CCC1	
InChI=1S/C8H14/c1-8-6-4-2-3-5-7-8/h2-3,8H,4-7H2,1H3	InChI=1S/C8H14/c1-8-6-4-2-3-5-7-8/h2-3,8H,4-7H2,1H3
