17
gdb 69793	2.62449	1.88634	1.29798	3.8394	72.07	-0.219	-0.0307	0.1883	982.3889	0.136769	-417.968052	-417.960432	-417.959488	-417.999923	29.781	
C	 0.0210219479	 1.5599337751	 0.0041271285	-0.485297
C	 0.1152109594	 0.0595625381	 0.0394975029	 0.179576
N	-0.7981268774	-0.7477705444	 0.893732638	-0.334398
C	 0.6493650518	-0.7722062127	 1.1562361139	-0.099646
C	 1.3567994869	-1.9955128186	 0.5755209354	-0.04546
N	 0.4565413833	-2.934542075	-0.1042553539	-0.303882
C	 1.2239832914	-1.9430135974	-0.9074383305	-0.172856
C	 0.4961248204	-0.6579467213	-1.2536374664	 0.429929
O	 0.408803995	-0.1791190014	-2.3568550435	-0.322238
H	 0.9389652543	 2.0051354443	-0.3916468829	 0.133683
H	-0.801917591	 1.8770440037	-0.6439740142	 0.145271
H	-0.1509194177	 1.9622607268	 1.0078629981	 0.110984
H	-1.2414650436	-0.1080118954	 1.5523451998	 0.231262
H	 1.0412249782	-0.3195944608	 2.0609451055	 0.092483
H	 2.2575393282	-2.358348111	 1.0579445253	 0.09539
H	 0.9313513155	-3.8305745358	-0.2039584047	 0.238268
H	 1.9776309773	-2.2903421541	-1.6052163415	 0.106931
120.4756	171.973	205.3947	254.1675	289.175	366.1355	457.4041	543.247	581.4964	631.4956	677.6282	763.4306	808.4195	820.455	853.4667	867.5046	918.2371	926.8374	973.2186	1001.9253	1022.8976	1048.7088	1098.5168	1118.7083	1133.3143	1167.7464	1185.6462	1239.8818	1299.4284	1346.8292	1366.7747	1403.3386	1411.6824	1429.9485	1477.4737	1496.4459	1833.9919	3035.1771	3107.169	3107.9189	3165.1258	3175.1707	3182.9612	3468.009	3479.6023
CC12NC1C1NC1C2=O	C[C@]12N[C@H]1[C@H]1N[C@H]1C2=O	
InChI=1S/C6H8N2O/c1-6-4(8-6)2-3(7-2)5(6)9/h2-4,7-8H,1H3	InChI=1S/C6H8N2O/c1-6-4(8-6)2-3(7-2)5(6)9/h2-4,7-8H,1H3/t2-,3+,4-,6-/m0/s1
