15
gdb 26009	5.01747	1.00306	0.84029	1.5266	69.07	-0.2218	-0.0026	0.2192	1301.864	0.111684	-457.817048	-457.808786	-457.807842	-457.85196	29.137	
C	-2.3681294308	 1.3824917748	 0.0694719588	-0.483882
C	-2.5580209921	-0.1114384078	 0.1506223666	 0.412407
O	-3.6078846434	-0.6840641155	 0.2562909956	-0.324913
O	-1.3415940763	-0.7237114226	 0.0850458943	-0.269232
C	-1.2072951781	-2.0908547469	 0.1357141591	 0.301249
C	 0.0180751387	-2.6806164669	 0.0694033608	-0.102123
O	-0.1234245324	-4.0296933991	 0.1399363656	-0.1388
C	-1.4508523729	-4.2879889143	 0.2515729749	 0.015243
C	-2.1786184528	-3.1406907513	 0.2555911565	-0.305943
H	-3.3395957016	 1.8718327763	 0.1221562875	 0.151805
H	-1.7309775298	 1.7250568717	 0.8896724733	 0.15459
H	-1.8656272944	 1.6467820852	-0.8652441444	 0.154601
H	 1.0179843949	-2.2947433728	-0.0232025817	 0.142228
H	-1.7214531226	-5.3286086468	 0.3181805523	 0.140783
H	-3.2444090263	-3.0364774539	 0.3314449609	 0.151986
19.7494	68.0061	98.4241	179.6437	342.3655	350.1123	362.3979	586.3638	590.2831	621.7323	642.2453	722.1269	739.085	775.6434	853.815	882.6667	914.602	998.0774	1029.5022	1050.949	1060.5103	1103.82	1221.4417	1244.3271	1260.5527	1302.949	1394.7394	1407.5884	1468.9649	1475.1529	1532.7469	1635.0245	1839.6079	3057.7475	3122.6565	3171.5799	3278.8872	3293.6404	3323.8895
CC(=O)OC1=COC=C1	CC(=O)Oc1cocc1	
InChI=1S/C6H6O3/c1-5(7)9-6-2-3-8-4-6/h2-4H,1H3	InChI=1S/C6H6O3/c1-5(7)9-6-2-3-8-4-6/h2-4H,1H3
