18
gdb 112323	2.82987	1.31024	0.99125	4.8192	72.26	-0.2351	0.032	0.2671	1187.4908	0.149168	-439.112467	-439.104227	-439.103283	-439.145471	31.336	
O	-0.0852656197	 1.47923885	-0.0389661015	-0.426912
C	 0.0670553638	 0.0746323069	 0.1143638017	-0.079539
C	-1.322323018	-0.5351063169	-0.026075721	 0.022379
N	-1.9040924819	-0.2755109323	-1.3327463213	-0.318913
C	-2.5644587986	-1.3345132707	-1.9101485577	 0.415663
O	-3.2769401292	-1.2853779856	-2.8884074328	-0.387006
C	-2.2107937162	-2.5516801432	-1.0898326259	-0.156417
C	-0.7286279006	-2.8566016058	-1.0256183201	-0.289235
C	-1.3757842821	-2.0594346188	 0.0724744482	-0.065795
H	 0.7868593446	 1.8835135088	-0.0457462087	 0.293372
H	 0.733541549	-0.3430792815	-0.6530166427	 0.094063
H	 0.4772143511	-0.1828947955	 1.103460923	 0.090719
H	-1.9496006085	-0.0974582095	 0.7653804431	 0.092185
H	-1.9914803552	 0.6603127043	-1.6943672028	 0.258543
H	-2.9372601535	-3.3500353852	-1.0243968873	 0.110626
H	-0.4521744577	-3.8785357979	-0.7911712044	 0.121399
H	-0.0731490256	-2.3643477569	-1.7359840753	 0.126856
H	-1.4642689317	-2.4985272001	 1.0581935254	 0.098012
93.671	126.7706	157.1087	226.0285	254.3813	332.0596	424.2231	464.6853	494.4092	534.1054	619.0406	702.2256	762.9659	804.4584	828.362	856.7145	936.8053	955.0981	1010.2376	1023.439	1064.0438	1071.0724	1083.148	1092.0446	1103.7809	1149.2243	1197.3108	1234.8178	1248.1611	1256.5022	1312.6795	1333.9219	1365.6046	1402.023	1426.5316	1458.5125	1484.856	1511.3772	1829.2588	2979.4476	2984.8713	3029.3294	3133.8168	3188.8258	3211.5554	3222.6992	3657.5708	3837.5481
OCC1NC(=O)C2CC12	OC[C@H]1NC(=O)[C@H]2C[C@@H]12	
InChI=1S/C6H9NO2/c8-2-5-3-1-4(3)6(9)7-5/h3-5,8H,1-2H2,(H,7,9)	InChI=1S/C6H9NO2/c8-2-5-3-1-4(3)6(9)7-5/h3-5,8H,1-2H2,(H,7,9)/t3-,4+,5-/m1/s1
