16
gdb 49803	2.40514	1.57913	1.02377	4.0891	71.78	-0.2446	-0.0256	0.2191	1122.3083	0.124932	-437.937211	-437.929095	-437.928151	-437.970819	29.434	
O	-0.3819171484	 0.3936760521	-0.5890130385	-0.244305
C	 0.3050913179	 0.8527573691	 0.2844645736	 0.152577
C	 1.2754500703	 2.0227146418	 0.0734114941	-0.277874
C	 1.047709452	 2.7440229223	-1.2198423791	-0.041767
C	 0.9481476951	 4.0653458385	-1.294361022	-0.073108
C	 1.0412656635	 4.9706492674	-0.1061128545	-0.203007
N	 1.1685314686	 4.2389589024	 1.1427091843	-0.3306
C	 1.2914526255	 2.8973904326	 1.3275769888	 0.399925
O	 1.4038883457	 2.3992946881	 2.4343173532	-0.381463
H	 0.3128724036	 0.4523180446	 1.316632458	 0.120993
H	 2.2645990506	 1.5320742729	 0.0709299116	 0.145512
H	 0.9453119815	 2.1255195613	-2.1049201432	 0.119942
H	 0.7841396856	 4.5590754764	-2.2471694933	 0.106963
H	 1.8945217369	 5.656701096	-0.227674368	 0.125893
H	 0.1466085111	 5.6099571556	-0.0652283474	 0.128253
H	 1.1936460004	 4.768531729	 2.0025880926	 0.252067
47.2797	111.0384	128.3285	204.5464	265.5079	387.4876	457.9159	491.8126	549.1905	574.799	616.4174	701.3264	760.8091	767.3323	837.147	921.1171	989.7331	998.3007	1027.7157	1031.4278	1078.9829	1131.5007	1180.2092	1235.0497	1248.6433	1286.5691	1343.8741	1385.1526	1402.9872	1425.9176	1487.5361	1525.4748	1748.1066	1779.2837	1829.376	2955.7623	2969.2351	2978.1736	2998.2607	3175.2802	3198.4203	3605.9862
O=CC1C=CCNC1=O	O=C[C@H]1C=CCNC1=O	
InChI=1S/C6H7NO2/c8-4-5-2-1-3-7-6(5)9/h1-2,4-5H,3H2,(H,7,9)	InChI=1S/C6H7NO2/c8-4-5-2-1-3-7-6(5)9/h1-2,4-5H,3H2,(H,7,9)/t5-/m1/s1
