19
gdb 56574	3.61799	0.98314	0.89936	1.8814	77.33	-0.2534	0.0545	0.3079	1339.2381	0.156591	-422.965508	-422.955807	-422.954863	-423.000123	35.912	
C	-0.014886275	 1.595511068	 0.0374352962	-0.406615
C	-0.0243566211	 0.0537326161	 0.0559238002	-0.179934
C	 0.7451110851	-0.4650052517	 1.1843204532	 0.323576
C	 1.3773687036	-0.8901666991	 2.1138862705	-0.456683
C	-1.4680258718	-0.534356902	 0.0670689814	 0.096936
O	-2.2330942733	-0.0634730174	 1.153588787	-0.434122
C	-2.1906781588	-0.2577430506	-1.2458297512	 0.049818
C	-3.6514868258	-0.328659684	-1.3364025758	-0.189713
O	-2.9801261934	 0.9404704891	-1.2575021699	-0.246005
H	 1.0112739635	 1.9677999858	-0.0028969066	 0.127042
H	-0.5609097364	 1.9816003113	-0.8277136118	 0.132468
H	-0.479217532	 1.9857117161	 0.946395983	 0.134289
H	 0.4504688776	-0.308092734	-0.8680156519	 0.100725
H	 1.9339877551	-1.2662488836	 2.9360865781	 0.192787
H	-1.3794187986	-1.6205064648	 0.1900684557	 0.104743
H	-2.6235957179	 0.7721218402	 0.8607560626	 0.294812
H	-1.6079408372	-0.4184268264	-2.1532580351	 0.099078
H	-4.1228590588	-0.538820952	-2.2941179688	 0.123132
H	-4.2207483148	-0.599381451	-0.4507361268	 0.133666
63.1323	94.1288	136.5755	190.6778	229.8134	247.4148	273.4134	298.8411	369.9477	406.4078	521.8209	535.3693	619.2626	637.757	646.2346	696.6253	790.5727	811.9888	880.3396	914.9297	967.156	1001.1266	1021.9898	1087.8085	1110.7261	1120.6658	1147.1119	1163.4887	1170.9545	1256.9358	1285.9132	1296.0668	1338.3488	1361.7171	1406.5371	1420.6947	1446.6307	1491.6328	1509.0877	1516.455	2236.8509	2998.1893	3042.9437	3051.5733	3101.0418	3112.4779	3127.7701	3131.3507	3197.4877	3505.0125	3744.6963
CC(C#C)C(O)C1CO1	C[C@@H](C#C)[C@@H](O)[C@H]1CO1	
InChI=1S/C7H10O2/c1-3-5(2)7(8)6-4-9-6/h1,5-8H,4H2,2H3	InChI=1S/C7H10O2/c1-3-5(2)7(8)6-4-9-6/h1,5-8H,4H2,2H3/t5-,6+,7+/m0/s1
