21
gdb 103706	2.85691	1.1564	0.95109	3.2474	84.54	-0.26	0.0184	0.2783	1318.8652	0.180601	-383.276639	-383.266198	-383.265254	-383.311901	38.11	
C	 0.0490540313	 1.4767442839	-0.3929464574	-0.384426
C	-0.032072279	 0.1028933103	 0.2859226042	-0.227687
C	-1.4287528394	-0.5049746815	 0.2312903222	 0.285411
C	-2.475806071	 0.2498152749	 1.0303343458	-0.482004
N	-1.8113852251	-1.0549739366	-1.0781524743	-0.38769
C	-1.5913672747	-2.000824107	 0.0436168827	 0.11351
C	-0.4427928684	-2.9846051362	-0.1082780538	-0.458016
C	-2.7670259518	-2.6072632422	 0.6356034762	 0.248595
N	-3.6969433969	-3.1208392143	 1.0952418089	-0.353885
H	 1.0809393236	 1.8395146565	-0.3986130174	 0.117597
H	-0.2925393171	 1.409777547	-1.4304038074	 0.133696
H	-0.559623199	 2.2278435023	 0.1190612845	 0.119064
H	 0.6810973586	-0.565799983	-0.1998368141	 0.106442
H	 0.2737704718	 0.1824235645	 1.3365984896	 0.102799
H	-2.6190083626	 1.2526653365	 0.6162304193	 0.129985
H	-3.4411879669	-0.2609766981	 1.024876357	 0.143976
H	-2.1624235322	 0.3622987749	 2.0734491055	 0.131818
H	-2.8070889776	-0.9295853628	-1.2488750591	 0.242064
H	 0.3655265385	-2.5432361703	-0.6903159178	 0.142053
H	-0.0583594498	-3.2931247516	 0.8684122572	 0.135113
H	-0.7869148024	-3.8783608673	-0.6368030219	 0.141587
57.1258	112.496	138.5388	153.214	185.5035	228.0032	242.3305	267.9989	308.7341	372.3738	394.9717	435.8878	464.1691	591.1389	618.9437	679.6227	695.983	784.8918	830.3166	901.5515	953.6618	1009.196	1024.4605	1041.6803	1073.7852	1089.6474	1107.6058	1142.695	1167.2522	1254.9087	1294.7957	1332.0866	1362.549	1400.8976	1407.705	1414.1017	1422.7364	1474.1837	1484.0611	1491.922	1495.0505	1501.894	1506.7861	1511.7487	2340.717	3035.9843	3041.2786	3043.8505	3051.3538	3097.9415	3105.3287	3114.0626	3115.8941	3120.8188	3128.7348	3155.6864	3493.7645
CCC1(C)NC1(C)C#N	CC[C@@]1(C)N[C@]1(C)C#N	
InChI=1S/C7H12N2/c1-4-6(2)7(3,5-8)9-6/h9H,4H2,1-3H3	InChI=1S/C7H12N2/c1-4-6(2)7(3,5-8)9-6/h9H,4H2,1-3H3/t6-,7-/m1/s1
