17
gdb 114192	3.67415	1.10229	0.93134	3.147	71.03	-0.231	-0.0481	0.1829	1260.9957	0.133304	-458.923592	-458.914706	-458.913762	-458.957746	31.674	
C	 0.2549311587	 1.1234034165	 0.3672327387	-0.249996
O	-0.008192041	-0.1050104097	-0.2935068058	-0.240177
C	-1.3329463273	-0.5270668744	-0.1644377141	 0.023455
C	-1.6299256666	-1.8939579493	-0.8425193805	-0.3764
C	-2.2916514988	-2.3833035167	 0.454627205	 0.338417
C	-3.586910479	-3.0501333735	 0.673720351	-0.246349
O	-2.3500990512	-3.7101100533	 0.929795532	-0.251056
C	-1.7394154455	-1.1753948341	 1.2005783528	 0.307547
O	-1.5722318075	-0.888516146	 2.3498044682	-0.300527
H	 1.3065048298	 1.3576616299	 0.1891683164	 0.131777
H	-0.3671537819	 1.9346576219	-0.0415744217	 0.106304
H	 0.0747058499	 1.0474914211	 1.4455093279	 0.142454
H	-2.0443971968	 0.2627218578	-0.458242406	 0.088728
H	-2.2494466671	-1.8709806774	-1.739120294	 0.11928
H	-0.6969992734	-2.4252641208	-1.0458002154	 0.142678
H	-4.1763858565	-2.8016074888	 1.5546484874	 0.136325
H	-4.1422493857	-3.4079044832	-0.1923332519	 0.12754
52.921	110.1206	164.8767	191.452	221.1202	233.3132	294.5497	327.6572	377.3912	536.5377	561.7146	704.7898	749.7699	814.7887	851.9478	904.8564	932.0812	990.0054	1029.9466	1073.7993	1097.1303	1131.8958	1154.0282	1160.413	1171.1151	1184.0748	1223.9551	1242.3763	1250.5395	1364.4327	1412.6065	1470.3881	1479.5116	1487.2172	1513.0282	1519.9593	1886.7655	2965.3231	2987.5322	3069.5456	3081.0464	3084.3781	3128.8867	3143.9958	3179.9644
COC1CC2(CO2)C1=O	CO[C@H]1C[C@]2(CO2)C1=O	
InChI=1S/C6H8O3/c1-8-4-2-6(3-9-6)5(4)7/h4H,2-3H2,1H3	InChI=1S/C6H8O3/c1-8-4-2-6(3-9-6)5(4)7/h4H,2-3H2,1H3/t4-,6-/m0/s1
