20
gdb 8418	3.3918	1.82359	1.5398	1.417	74.9	-0.2473	0.0734	0.3208	930.9359	0.176167	-348.980754	-348.972444	-348.9715	-349.012593	32.8	
C	-0.043521154	 1.5706823891	-0.0539573995	-0.413015
C	 0.0888050731	 0.0666820581	 0.076118297	-0.007811
C	 1.3325796323	-0.7389276691	-0.1739939092	-0.064367
C	 2.584322248	-0.0206328451	 0.3429095979	-0.308953
C	 1.9716672037	-0.0599259617	 1.7920266162	 0.406599
C	 2.7234699686	-1.0119196429	 2.7186340068	-0.443887
O	 1.7404552359	 1.181919831	 2.4418215627	-0.472516
C	 0.6967116362	-0.6906953429	 1.2290739356	-0.090436
H	 0.8094804892	 2.1002774144	 0.3696361974	 0.134989
H	-0.1501840604	 1.8563939606	-1.1069448592	 0.103359
H	-0.9344807356	 1.9207338848	 0.4785279042	 0.11428
H	-0.792099688	-0.4608879651	-0.2892785733	 0.081112
H	 1.3473318773	-1.5707186045	-0.8680550925	 0.079534
H	 3.4998464986	-0.6113959598	 0.2572094575	 0.094173
H	 2.7689558976	 0.9773785075	-0.0646003596	 0.095211
H	 3.7153116224	-0.6108683265	 2.9637766108	 0.102119
H	 2.1669648691	-1.1481346256	 3.6515626959	 0.121991
H	 2.8664613524	-1.9910642805	 2.2524855533	 0.121458
H	 2.5749248806	 1.4794151561	 2.8206617968	 0.272616
H	 0.139633973	-1.4612698879	 1.7517794111	 0.073545
141.4514	186.7045	196.646	268.8258	282.8243	294.1326	361.2656	376.0397	426.0348	477.5414	598.7487	632.5521	720.1362	783.1616	831.665	877.0601	911.9956	934.7568	963.6284	983.293	1001.9531	1009.1899	1059.007	1071.2799	1117.9458	1133.9857	1147.8537	1186.8835	1218.1542	1237.4734	1246.9132	1279.9947	1338.4743	1390.1627	1403.3657	1415.9973	1445.9116	1485.1671	1490.3691	1494.449	1496.347	1509.2099	3019.9226	3032.	3054.1822	3087.1493	3088.6383	3103.9752	3108.271	3114.5129	3151.4042	3159.8064	3181.1378	3798.6618
CC1C2CC(C)(O)C12	C[C@H]1[C@H]2C[C@@](C)(O)[C@@H]12	
InChI=1S/C7H12O/c1-4-5-3-7(2,8)6(4)5/h4-6,8H,3H2,1-2H3	InChI=1S/C7H12O/c1-4-5-3-7(2,8)6(4)5/h4-6,8H,3H2,1-2H3/t4-,5+,6-,7+/m0/s1
