18
gdb 66955	2.89874	1.61002	1.21148	1.0525	81.61	-0.2347	0.0463	0.281	1050.8994	0.147005	-364.71433	-364.706375	-364.705431	-364.746429	31.456	
C	-0.0091624428	 1.4953646758	 0.0915112384	-0.504181
C	-0.0445135045	 0.0022003145	 0.0632648279	 0.363657
C	 0.1693003	-1.0053348302	 1.1289735339	-0.098048
C	-0.4121931008	-2.0737118043	 0.1294815143	-0.079584
C	 0.9939967346	-2.0827913651	-0.4833196916	-0.164285
N	 1.2618315776	-0.7445962072	 0.1401337758	-0.197914
C	-1.085753598	-0.8946687934	-0.6490286739	-0.257032
C	-2.4457394756	-0.6074593933	-0.2360590973	 0.307584
C	-3.5712050169	-0.361072238	 0.109478671	-0.443763
H	 0.7511378455	 1.8453316516	 0.7945582243	 0.133861
H	 0.2357948127	 1.8988449149	-0.8973791543	 0.124139
H	-0.9815647995	 1.8958487822	 0.3939944358	 0.133486
H	 0.2880691349	-0.9443922975	 2.2026059811	 0.099836
H	-0.9824228765	-2.9710658756	 0.3582387476	 0.08629
H	 1.6638829539	-2.8152891972	-0.025820178	 0.110616
H	 1.0884610807	-2.1240090665	-1.5752644671	 0.097407
H	-1.0222100101	-0.9558262929	-1.7431458903	 0.094096
H	-4.5675777753	-0.1488697877	 0.4090529424	 0.193833
128.7698	134.5689	200.5136	253.0197	298.8236	375.2232	446.6505	479.7055	513.2489	614.529	636.9293	641.5702	743.3035	766.0908	813.9182	839.7966	914.979	929.9934	942.2408	977.1921	994.3495	1023.6147	1055.7411	1070.6113	1093.5189	1149.2643	1163.204	1171.3891	1203.6067	1223.0899	1264.664	1305.6319	1341.9364	1395.8234	1437.0729	1484.409	1492.9921	1507.8892	2233.2108	3020.1174	3030.8762	3036.2759	3100.5489	3100.6512	3122.729	3144.855	3205.4472	3503.3689
CC12C3C(CN13)C2C#C	C[C@]12[C@H]3[C@H](CN13)[C@H]2C#C	
InChI=1S/C8H9N/c1-3-6-5-4-9-7(5)8(6,9)2/h1,5-7H,4H2,2H3	InChI=1S/C8H9N/c1-3-6-5-4-9-7(5)8(6,9)2/h1,5-7H,4H2,2H3/t5-,6-,7-,8+,9?/m1/s1
