18
gdb 122044	2.53852	0.9131	0.77452	2.1264	76.15	-0.224	-0.0302	0.1938	1507.7385	0.144005	-439.030688	-439.020236	-439.019292	-439.067226	36.27	
O	 0.0424018245	 1.4017860266	-0.2468942784	-0.417987
C	 0.0188754613	 0.0130700006	 0.0579407334	-0.084172
C	-1.4384271111	-0.4156735327	 0.1077674683	-0.123815
N	-2.0401634031	-0.2417016727	-1.2134503131	-0.281843
C	-3.4331475755	-0.630231655	-1.3009954013	-0.238211
C	-4.4305524309	 0.3124378632	-0.5830708341	 0.156577
O	-4.1077258871	 1.3501216547	-0.0734340292	-0.234499
C	-3.8950884671	-0.7366493956	-2.6881318265	 0.286056
C	-4.3238986291	-0.7661722949	-3.8103930226	-0.403272
H	 0.9448256416	 1.6515227982	-0.4631553549	 0.291005
H	 0.5395153842	-0.5719134119	-0.7138362312	 0.097366
H	 0.4942204516	-0.1916411613	 1.0298781813	 0.086639
H	-1.4821844864	-1.4787111421	 0.3777839151	 0.096773
H	-1.9490991856	 0.1550555727	 0.8984448494	 0.112465
H	-1.9373996179	 0.7317138701	-1.4844446929	 0.240616
H	-3.5491868434	-1.6174630696	-0.8253611569	 0.121538
H	-5.4860506547	-0.0400123113	-0.5949407433	 0.092447
H	-4.6798660713	-0.8140662588	-4.8100012029	 0.202318
45.5346	73.3923	94.0073	115.0751	178.9981	202.6989	233.1289	261.7851	293.0472	339.6334	471.2003	482.5529	539.1929	621.4042	668.3715	681.2357	776.8889	816.7903	891.9887	928.8298	974.2711	1030.8001	1082.6779	1100.7713	1135.8353	1173.8432	1224.8666	1254.5128	1265.8233	1298.4671	1333.7494	1391.2715	1410.5027	1458.6204	1492.122	1497.4121	1512.0803	1839.3268	2233.6368	2885.7345	2978.0938	2984.9033	2990.7541	3023.7657	3047.7277	3503.1747	3529.5193	3840.9108
OCCNC(C=O)C#C	OCCN[C@@H](C=O)C#C	
InChI=1S/C6H9NO2/c1-2-6(5-9)7-3-4-8/h1,5-8H,3-4H2	InChI=1S/C6H9NO2/c1-2-6(5-9)7-3-4-8/h1,5-8H,3-4H2/t6-/m1/s1
