17
gdb 58069	1.84066	1.47609	1.28786	4.6014	72.69	-0.3241	-0.0339	0.2901	1124.4798	0.132713	-418.02269	-418.012525	-418.011581	-418.057379	36.239	
C	 0.0327024481	 1.5674796038	 0.00722913	-0.424461
C	 0.0186193643	 0.0350758558	 0.0454167264	-0.011184
C	 0.7982066737	-0.5198536393	 1.2422679876	-0.414046
C	-1.4360550871	-0.5449373461	 0.0240107457	 0.078067
O	-1.4526994856	-1.9617508711	 0.0442303231	-0.432916
C	-2.1805309777	-0.1085882757	 1.2252374959	 0.336426
N	-2.7245259741	 0.2646030794	 2.1720310568	-0.323869
C	-2.1504221878	-0.0578449335	-1.1838994948	 0.283605
N	-2.6533936371	 0.27643969	-2.1683904173	-0.324429
H	 1.0657003137	 1.9226712775	-0.0390705259	 0.131111
H	-0.4976980947	 1.9614149345	-0.8639029331	 0.148137
H	-0.4252474459	 1.9866344443	 0.9088342573	 0.147791
H	 0.471446643	-0.3416852082	-0.8822753701	 0.094267
H	 0.3914540466	-0.1396581092	 2.1846923454	 0.146807
H	 0.7651771608	-1.6107005053	 1.2721630262	 0.13459
H	 1.8432922332	-0.2053101092	 1.1762095115	 0.126361
H	-1.0298786034	-2.2733110278	-0.7657662847	 0.303743
79.5365	128.9941	145.535	163.4338	220.9197	238.9577	241.7852	273.8954	282.1747	342.1774	393.6217	442.843	510.6324	535.6702	576.9797	625.4957	674.8036	885.1038	940.0225	964.5324	968.7417	1029.4602	1076.5933	1142.1897	1158.0334	1201.0226	1312.394	1341.7133	1402.2389	1403.5752	1426.9927	1488.1807	1491.2431	1503.2408	1513.3467	2358.2442	2374.0187	3012.7633	3044.3899	3049.2374	3115.1498	3120.2505	3123.7628	3135.7503	3794.786
CC(C)C(O)(C#N)C#N	CC(C)C(O)(C#N)C#N	
InChI=1S/C6H8N2O/c1-5(2)6(9,3-7)4-8/h5,9H,1-2H3	InChI=1S/C6H8N2O/c1-5(2)6(9,3-7)4-8/h5,9H,1-2H3
