18
gdb 17181	3.83945	1.84647	1.56798	1.3611	72.38	-0.263	0.073	0.336	871.612	0.15435	-347.720998	-347.713917	-347.712973	-347.75226	27.693	
O	-0.0791442283	 1.4127771211	 0.1217601128	-0.421142
C	-0.0456009454	-0.0010305046	-0.0341301363	-0.229567
C	-1.460341981	-0.4975630132	-0.050567081	 0.39556
C	-2.5790126645	-0.1712723505	-1.0616023182	-0.30439
C	-3.2392477146	-1.1297834909	-0.0533062733	-0.044054
C	-1.9359415131	-1.9880610183	 0.1081091317	-0.090989
C	-1.9803972302	-1.8950929246	 1.6466237393	-0.269745
C	-2.46493367	-0.5143793381	 1.1624008036	-0.062266
H	 0.8246867835	 1.7390368722	 0.0834860752	 0.287351
H	 0.4541869596	-0.2858155135	-0.9748711117	 0.085322
H	 0.5087208579	-0.4822900362	 0.7887372474	 0.085733
H	-2.939072896	 0.8616179941	-1.0742534788	 0.099476
H	-2.4422193011	-0.5459683915	-2.0822434804	 0.083427
H	-4.2600455134	-1.5142634508	-0.0295507403	 0.06702
H	-1.637093242	-2.8238646527	-0.5283177634	 0.064807
H	-2.7199293093	-2.5240183834	 2.1528481937	 0.08945
H	-1.0241392757	-1.93191153	 2.1785909362	 0.089515
H	-2.7694386063	 0.3573694109	 1.7427585335	 0.074493
87.7354	172.5766	233.5918	287.2235	362.1694	421.2766	477.7148	649.8747	726.4754	769.3763	852.017	862.7688	881.0854	907.5733	916.2797	946.1227	996.4641	1018.0094	1025.2221	1047.412	1070.1473	1098.907	1121.0939	1138.3558	1157.5465	1159.2401	1185.841	1211.3325	1229.7182	1238.9021	1254.4077	1274.4493	1309.8903	1341.9179	1464.557	1505.0449	1510.9588	1515.0332	2956.1036	2982.6735	3034.0285	3036.568	3086.8695	3090.452	3096.6323	3099.8726	3111.7853	3828.6599
OCC12CC3C1CC23	OC[C@@]12C[C@H]3[C@@H]1C[C@@H]23	
InChI=1S/C7H10O/c8-3-7-2-4-5(7)1-6(4)7/h4-6,8H,1-3H2	InChI=1S/C7H10O/c8-3-7-2-4-5(7)1-6(4)7/h4-6,8H,1-3H2/t4-,5-,6+,7-
