17
gdb 26714	3.17827	1.20936	0.88566	3.7161	78.74	-0.2281	-0.0456	0.1825	1275.2513	0.13458	-421.882728	-421.873674	-421.87273	-421.916771	32.027	
C	 0.1122922675	 1.4924535445	-0.0057554398	-0.490803
C	-0.0619873195	 0.0169239803	-0.0339326509	 0.286019
C	-1.1363547642	-0.8160783678	 0.0315040495	 0.03737
C	-2.5808637041	-0.4402592873	 0.1629908398	-0.511936
C	-0.5989698324	-2.1596638152	-0.0522899671	 0.091015
C	-1.3154514421	-3.4332800895	-0.02953458	 0.0698
O	-0.7881279019	-4.5229139031	-0.10483771	-0.27982
C	 0.7560137532	-2.0180750666	-0.1612029541	-0.083362
O	 1.0973995721	-0.7194374499	-0.1520192303	-0.176329
H	 0.7379454498	 1.8053378453	 0.8377469495	 0.143464
H	 0.5911574462	 1.8562135536	-0.9218374853	 0.143466
H	-0.8567171778	 1.9861243967	 0.089361276	 0.138289
H	-3.1722606443	-0.8082467062	-0.6829112621	 0.137282
H	-3.0256673461	-0.8591106842	 1.0726223561	 0.137286
H	-2.7075704679	 0.6443674819	 0.2050000222	 0.12803
H	-2.4203732991	-3.3445640079	 0.0648163669	 0.063542
H	 1.5561025906	-2.7342122646	-0.2487444601	 0.166689
102.7833	107.4868	133.391	166.0256	173.354	269.5271	288.1108	302.438	363.3359	491.4509	625.3633	627.4113	665.4215	731.769	804.6658	815.1173	925.9139	974.1012	1038.1577	1059.013	1069.6392	1108.4693	1171.2208	1198.5861	1236.733	1308.5112	1387.4891	1419.5709	1427.0473	1461.2481	1472.3921	1484.3947	1488.9056	1495.4278	1575.5963	1668.3453	1785.6384	2883.2735	3031.9793	3033.8286	3081.867	3083.6393	3116.2408	3134.6498	3284.4649
CC1=C(C)C(C=O)=CO1	Cc1c(C)c(C=O)co1	
InChI=1S/C7H8O2/c1-5-6(2)9-4-7(5)3-8/h3-4H,1-2H3	InChI=1S/C7H8O2/c1-5-6(2)9-4-7(5)3-8/h3-4H,1-2H3
