18
gdb 109333	1.95178	1.84258	0.96598	1.7925	77.25	-0.2125	-0.0073	0.2052	1202.2629	0.148975	-435.315679	-435.306468	-435.305524	-435.35101	31.779	
C	 0.0105675569	 1.4560293746	-0.0228833243	-0.315548
N	-0.0495381247	 0.0126021598	 0.0689861139	-0.378418
C	-1.2311261749	-0.6330769565	 0.0215270272	 0.512589
N	-2.3941959319	-0.0944152442	-0.0090485043	-0.360224
C	-3.3904796718	-1.1615797447	-0.0506158333	-0.169894
C	-2.6199879538	-2.5101838534	 0.0740275592	-0.20211
N	-1.2230803243	-2.060056274	 0.0206540313	-0.140081
C	-0.1423656736	-2.8818510566	-0.0284215394	 0.156503
O	 1.0240064819	-2.5275068486	-0.0712558407	-0.346636
H	 1.0452132686	 1.7716462117	 0.1237581288	 0.125444
H	-0.3398116672	 1.8218977701	-0.9960896887	 0.130638
H	-0.6147556389	 1.9147547767	 0.7487205352	 0.144851
H	 0.7773335353	-0.5628109601	-0.0109378756	 0.277198
H	-4.1161355973	-1.0456327891	 0.7619796917	 0.111625
H	-3.9577783448	-1.1151150203	-0.988780002	 0.11018
H	-2.8234059196	-3.0177382177	 1.0224566095	 0.12516
H	-2.837085051	-3.2041869689	-0.7424049033	 0.125346
H	-0.4321852487	-3.9485035586	-0.028595895	 0.093376
34.5631	74.4758	111.6493	154.2539	195.429	252.1188	266.48	279.7473	455.3247	515.3308	545.7396	716.4182	724.5457	768.0206	832.8768	846.5325	953.4109	1027.9206	1040.4959	1069.3673	1114.736	1162.7139	1188.7519	1209.8013	1221.3617	1247.6715	1294.2266	1324.0882	1346.4431	1401.883	1441.2	1457.6654	1477.7656	1509.807	1516.4171	1527.003	1581.1329	1727.5937	1782.9814	2966.4912	3019.815	3024.3853	3041.6701	3052.7901	3086.0757	3092.4297	3134.6019	3576.1018
CNC1=NCCN1C=O	CNC1=NCCN1C=O	
InChI=1S/C5H9N3O/c1-6-5-7-2-3-8(5)4-9/h4H,2-3H2,1H3,(H,6,7)	InChI=1S/C5H9N3O/c1-6-5-7-2-3-8(5)4-9/h4H,2-3H2,1H3,(H,6,7)
