22
gdb 58640	2.5554	1.30809	1.08181	0.9947	82.02	-0.2216	0.0717	0.2933	1231.9299	0.192563	-404.297205	-404.287539	-404.286595	-404.331423	37.201	
C	 0.1654876812	 1.196042084	-0.1687275007	-0.406476
C	-0.0132373937	-0.3100494677	 0.012857232	 0.078044
O	 0.8960135375	-0.8254189334	 0.9805613979	-0.432865
C	-1.4669733798	-0.6881577889	 0.331929991	 0.343016
C	-1.7164009377	-1.9330173495	 1.1503388708	-0.329336
C	-1.961866968	-0.5591432945	 1.7423061572	-0.308149
N	-2.3301411495	-0.2705570561	-0.756054137	-0.120364
C	-2.6171345562	-1.2360535325	-1.816378846	-0.225528
C	-3.6834178642	-0.7889630998	-0.8789336971	-0.235398
H	 1.1966030148	 1.4245246687	-0.4529403827	 0.114597
H	-0.5151915114	 1.5735044288	-0.933807143	 0.140713
H	-0.062723604	 1.7231432364	 0.7667992815	 0.103864
H	 0.2544464391	-0.8179638009	-0.923033178	 0.086974
H	 0.9428905779	-0.1922022625	 1.7042329317	 0.280674
H	-2.578679214	-2.552938397	 0.9304880773	 0.106112
H	-0.8424047347	-2.4741843548	 1.4905307732	 0.12993
H	-1.2791673503	-0.2041137752	 2.5075602262	 0.095717
H	-2.9896582445	-0.2425958263	 1.885013857	 0.114095
H	-2.5745772823	-0.8541012941	-2.8323660638	 0.115371
H	-2.2472414879	-2.2515479943	-1.6879402726	 0.116906
H	-4.0436057114	-1.5150222546	-0.1539993306	 0.115473
H	-4.428519861	-0.0634653859	-1.1939734844	 0.11663
74.8369	84.7785	199.2193	215.9206	238.073	254.649	281.5925	300.5413	345.9155	437.251	454.7412	482.4433	573.3386	651.5278	768.2862	795.91	831.7053	882.1756	906.1335	911.4886	946.4665	955.7966	993.9051	1038.7773	1051.4292	1066.637	1075.1905	1079.6701	1114.1256	1122.463	1134.9148	1172.7559	1179.0728	1191.3059	1222.4264	1301.7161	1321.4686	1348.1841	1369.3915	1394.3335	1415.199	1450.1151	1486.3883	1488.3625	1499.1353	1500.8598	1523.5813	3020.113	3028.9829	3099.1709	3099.9289	3106.209	3126.5643	3141.5148	3141.7434	3179.5199	3193.6893	3207.4672	3233.1892	3813.0062
CC(O)C1(CC1)N1CC1	C[C@@H](O)C1(CC1)N1CC1	
InChI=1S/C7H13NO/c1-6(9)7(2-3-7)8-4-5-8/h6,9H,2-5H2,1H3	InChI=1S/C7H13NO/c1-6(9)7(2-3-7)8-4-5-8/h6,9H,2-5H2,1H3/t6-/m1/s1
