24
gdb 102671	2.13578	0.78605	0.61126	4.3336	90.72	-0.3088	0.0389	0.3477	1878.8078	0.215911	-368.445215	-368.433911	-368.432967	-368.482794	40.033	
C	-0.3205941308	 1.5410853479	 0.6195763184	-0.389084
C	-0.177469115	 0.0418349569	 0.3366886114	-0.186718
C	-1.5079789877	-0.6867984018	 0.0507103164	 0.053173
C	-2.0536950186	-0.3272282047	-1.3474751123	-0.189176
C	-3.5337982775	-0.6592886448	-1.5641671797	-0.392213
C	-1.3509818052	-2.2140327969	 0.1953905445	-0.197089
C	-1.2509760403	-2.6855353074	 1.6616072688	-0.349308
C	-1.095329623	-4.1343511007	 1.7717259591	 0.257949
N	-0.9730284059	-5.2815806054	 1.8395524767	-0.307263
H	 0.6549908906	 1.9954940769	 0.8175447998	 0.116809
H	-0.7668776455	 2.0799756032	-0.2217603844	 0.122139
H	-0.9528069277	 1.7168049005	 1.4971180495	 0.115339
H	 0.4964827607	-0.1132056725	-0.5169232729	 0.099808
H	 0.3213508972	-0.4222646727	 1.1960679307	 0.091142
H	-2.2462390093	-0.3497727849	 0.7955599731	 0.0647
H	-1.911134203	 0.7448909619	-1.5215026983	 0.098753
H	-1.4428360114	-0.8376341252	-2.1047737602	 0.097594
H	-3.7425160685	-1.7283125338	-1.4550205883	 0.121012
H	-4.1657323861	-0.1242159194	-0.846518275	 0.116069
H	-3.8548505815	-0.36810314	-2.5689990558	 0.117615
H	-2.2007347397	-2.7273372682	-0.2641286397	 0.117603
H	-0.4591754762	-2.5442679003	-0.3507695468	 0.117269
H	-0.4054678647	-2.2125881893	 2.1725289908	 0.153141
H	-2.1527656806	-2.3921910391	 2.2120796742	 0.150736
50.6999	71.4553	88.5503	90.2283	129.0358	200.587	211.281	263.8202	265.2663	283.9102	394.7671	414.0974	444.7261	448.0862	564.6531	745.7164	762.8844	779.5595	852.505	906.4726	949.1529	973.6596	995.5018	1023.8894	1031.714	1052.2815	1056.233	1135.0402	1150.1184	1176.2415	1216.5995	1266.1534	1287.5433	1309.1731	1319.1471	1339.5606	1348.6724	1377.3588	1390.2616	1396.47	1415.3526	1416.8363	1467.6747	1482.3837	1488.2084	1491.4997	1500.7035	1504.4381	1506.1145	1509.6411	2361.2595	2978.4213	3015.2344	3020.5741	3033.8866	3034.9826	3037.3982	3046.4063	3051.9076	3061.325	3074.6476	3095.3986	3100.6571	3100.9219	3105.6858	3109.2005
CCC(CC)CCC#N	CCC(CC)CCC#N	
InChI=1S/C8H15N/c1-3-8(4-2)6-5-7-9/h8H,3-6H2,1-2H3	InChI=1S/C8H15N/c1-3-8(4-2)6-5-7-9/h8H,3-6H2,1-2H3
