17
gdb 40131	2.91296	1.66491	1.3007	0.6226	72.71	-0.2459	-0.0047	0.2412	991.2171	0.136707	-421.795251	-421.788101	-421.787156	-421.826745	28.51	
C	-0.0797663799	 1.4797378539	-0.0126496742	-0.240206
O	 1.1555297577	 0.762588894	-0.0820442946	-0.275212
C	-0.0681004263	 0.012004968	 0.0122436637	 0.408297
C	-0.2986285651	-0.7414497114	 1.3141881151	-0.354503
C	 0.1478843518	-2.1802323947	 1.2390257876	-0.082077
C	 0.1776215389	-2.8604690961	 0.0925446768	-0.041856
C	-0.2265417019	-2.2261262553	-1.1864718304	-0.006885
O	-1.5250780106	-1.5821935013	-1.2191107595	-0.262008
C	-0.3647417756	-0.7582777723	-1.2390221288	-0.021743
H	-0.2506325848	 2.0291651187	 0.9126403325	 0.114804
H	-0.3700669755	 2.0055051847	-0.9217230453	 0.115846
H	 0.2266257424	-0.2131444276	 2.1158205247	 0.120374
H	-1.3691032904	-0.7070819907	 1.5580105263	 0.135491
H	 0.4292846028	-2.6638858434	 2.1697947077	 0.101211
H	 0.4987280007	-3.8966756991	 0.0622719156	 0.094088
H	 0.0123999386	-2.7564399804	-2.1054335575	 0.099264
H	-0.1707980429	-0.2286842969	-2.1714200097	 0.095116
98.27	204.617	282.7471	309.7962	359.0514	419.7734	506.7642	535.6059	554.8073	702.7338	713.8263	801.498	822.4548	852.7076	907.5552	926.6445	962.4401	976.6971	989.3939	994.6391	1016.6408	1066.0931	1121.1672	1130.695	1161.6783	1193.8108	1222.9601	1261.7217	1296.9323	1314.8847	1351.1937	1402.8374	1425.6375	1451.0598	1472.4449	1531.0488	1710.8521	3020.6317	3077.6698	3081.5775	3115.4208	3139.6865	3163.5442	3165.7566	3189.285
C1OC11CC=CC2OC12	C1O[C@]21CC=C[C@H]1O[C@@H]21	
InChI=1S/C7H8O2/c1-2-5-6(9-5)7(3-1)4-8-7/h1-2,5-6H,3-4H2	InChI=1S/C7H8O2/c1-2-5-6(9-5)7(3-1)4-8-7/h1-2,5-6H,3-4H2/t5-,6-,7+/m1/s1
