17
gdb 13866	3.81574	1.62929	1.51687	5.9092	63.63	-0.248	0.029	0.277	892.1983	0.145445	-401.042072	-401.034952	-401.034008	-401.073903	26.605	
O	 0.5611760978	 0.4731316151	-0.3292023079	-0.340081
C	-0.0967877915	 1.2616046047	 0.2965219605	 0.404485
O	 0.2847030971	 1.697206478	 1.5117033809	-0.382981
C	-1.4315804211	 1.8242920615	-0.2032083588	-0.113761
C	-2.6265430473	 1.254413402	 0.6282808931	-0.225595
C	-3.0220925679	 2.3974093186	 1.5997460643	-0.163256
N	-1.9072020996	 3.3535905123	 1.4770682745	-0.317018
H	-2.1374286635	 4.2778089499	 1.8241331202	 0.234086
H	-0.3793615198	 2.3568941327	 1.8284703635	 0.307677
C	-1.5424495518	 3.3398080439	 0.0527037221	-0.201037
H	-1.5069349755	 1.5673802582	-1.2587988242	 0.10339
H	-3.4597985205	 0.9957014716	-0.0279010027	 0.11646
H	-2.3418993318	 0.3459502833	 1.1628639172	 0.132955
H	-3.9797530386	 2.8426335881	 1.2915195395	 0.100869
H	-3.1249571115	 2.0650101066	 2.6360073983	 0.117648
H	-0.6070661451	 3.8813134174	-0.1130480662	 0.12649
H	-2.3182540595	 3.7782916361	-0.5952455844	 0.099667
73.9831	113.3915	224.4884	269.8354	347.276	409.9498	580.5288	628.0151	739.5461	761.7382	798.0128	864.5547	880.1514	913.8749	927.8073	939.2461	963.4463	1024.5803	1052.5264	1085.8382	1112.0161	1173.1458	1215.4359	1235.9282	1259.6089	1281.201	1286.2904	1317.2797	1337.7114	1393.2521	1425.0012	1467.8564	1495.8508	1510.3762	1530.5257	1860.6489	2974.8532	2989.2114	3077.1258	3085.7552	3091.5094	3119.7817	3131.1858	3329.1277	3543.4624
[O-]C(=O)C1CC[NH2+]C1	O=C(O)[C@H]1CCNC1	
InChI=1S/C5H9NO2/c7-5(8)4-1-2-6-3-4/h4,6H,1-3H2,(H,7,8)	InChI=1S/C5H9NO2/c7-5(8)4-1-2-6-3-4/h4,6H,1-3H2,(H,7,8)/t4-/m0/s1
