21
gdb 63035	3.20294	1.22141	1.15337	1.2845	83.16	-0.2386	0.076	0.3146	1182.3422	0.181333	-387.042129	-387.033369	-387.032424	-387.074804	35.198	
C	-0.0393842333	 1.5712529254	 0.0154867097	-0.462225
C	 0.0734840123	 0.0647381737	 0.0666948629	 0.40913
O	-1.0882968302	-0.5931867695	-0.3911657284	-0.475122
C	 1.3336331119	-0.720494887	-0.2140600284	-0.124122
C	 2.5936372354	-0.0477916624	 0.3512701902	-0.336312
C	 1.9257391402	-0.0526039842	 1.7451621401	 0.376764
C	 2.6047234377	-0.4189401937	 3.0296943233	-0.34041
C	 2.0250240949	 0.9668146469	 2.8456441192	-0.320349
C	 0.6863110467	-0.7228303425	 1.1893384345	-0.176622
H	 0.8345182313	 2.0666883953	 0.4421129778	 0.129854
H	-0.1474270178	 1.9138212646	-1.0216720528	 0.101717
H	-0.9244814678	 1.8974491012	 0.5707550693	 0.123706
H	-1.1667555247	-0.4214637877	-1.3362294021	 0.278699
H	 1.3212377467	-1.5139883072	-0.9518372808	 0.082669
H	 3.4695130955	-0.7014680793	 0.3113535	 0.1059
H	 2.8644980385	 0.9247528916	-0.0745468326	 0.092865
H	 2.0927954956	-1.1004332407	 3.702048111	 0.112725
H	 3.6849977928	-0.5273777767	 3.0240821645	 0.108603
H	 2.7172148327	 1.7930587183	 2.7162160125	 0.108831
H	 1.123775788	 1.2217385563	 3.3938268245	 0.112997
H	 0.1165297138	-1.5085396423	 1.6718402256	 0.090702
116.1586	185.6927	199.9472	231.1881	289.7335	291.2974	329.1008	395.2314	418.2575	449.9441	492.8035	580.4485	674.9839	770.9504	802.5126	836.0128	858.4101	878.1062	923.5976	932.8456	947.1862	979.9006	993.3707	1009.2511	1032.0959	1052.8511	1073.1816	1083.3242	1093.7755	1133.2933	1174.8588	1188.288	1214.1793	1249.6044	1270.1171	1273.5337	1308.1649	1386.0722	1414.8811	1435.0658	1462.9299	1482.8695	1493.6366	1502.1306	1504.1138	3024.6939	3035.8595	3088.2242	3089.524	3119.1667	3124.217	3135.4835	3175.6335	3185.5574	3197.413	3212.952	3791.5666
CC1(O)C2CC3(CC3)C12	C[C@@]1(O)[C@H]2CC3(CC3)[C@@H]12	
InChI=1S/C8H12O/c1-7(9)5-4-8(2-3-8)6(5)7/h5-6,9H,2-4H2,1H3	InChI=1S/C8H12O/c1-7(9)5-4-8(2-3-8)6(5)7/h5-6,9H,2-4H2,1H3/t5-,6+,7+/m0/s1
