17
gdb 33839	4.40598	1.08024	1.00044	5.2384	79.1	-0.2721	0.0104	0.2825	1198.8543	0.136887	-380.825522	-380.817808	-380.816863	-380.85775	29.957	
N	 0.0653020467	-1.145340047	 0.1010368958	-0.345604
C	 0.0597936123	 0.0103722235	 0.0528779513	 0.234837
C	 0.0316204232	 1.4362765677	-0.0603664141	 0.19386
C	-0.709313831	 2.2286060865	-1.1618921119	-0.38214
C	 0.4480552378	 3.2518539628	-1.1293969278	 0.363988
C	 1.0855621636	 3.9066360999	-2.3147726187	-0.326584
C	 0.3979683283	 4.7476247433	-1.2606261395	-0.326957
C	 1.1602081286	 2.4494680141	-0.0568287418	-0.171422
N	 0.320583555	 2.2578573066	 1.1141550682	-0.34061
H	-0.7628156346	 1.6827591304	-2.106449666	 0.13429
H	-1.7103065158	 2.5757171949	-0.8865636816	 0.112717
H	 2.1696418157	 3.9335545696	-2.3587912392	 0.124189
H	 0.6033448364	 3.7965343397	-3.2804668694	 0.122834
H	-0.5539189158	 5.2018424712	-1.5159425538	 0.122241
H	 1.0158989013	 5.345781684	-0.5988306639	 0.123469
H	 2.2265057316	 2.2809820764	 0.0418862627	 0.120321
H	-0.3661032631	 3.0012330362	 1.2342271396	 0.240571
88.7299	148.5725	218.9111	261.945	299.8282	397.1332	450.3732	506.5361	553.6704	588.9152	639.8987	775.1146	797.1127	840.0441	863.1035	906.5472	930.9044	973.6297	978.2303	1021.3412	1049.5847	1055.336	1083.592	1101.4249	1123.0834	1148.7205	1187.68	1216.562	1234.163	1244.422	1284.3275	1393.5499	1409.1844	1464.8575	1484.9255	1505.5318	2355.6093	3051.6545	3115.9774	3126.9197	3130.2937	3187.585	3205.9569	3220.1004	3464.7785
N#CC12CC3(CC3)C1N2	N#C[C@]12CC3(CC3)[C@H]1N2	
InChI=1S/C7H8N2/c8-4-7-3-6(1-2-6)5(7)9-7/h5,9H,1-3H2	InChI=1S/C7H8N2/c8-4-7-3-6(1-2-6)5(7)9-7/h5,9H,1-3H2/t5-,7-/m1/s1
