16
gdb 12344	3.21401	2.29572	1.36184	3.0377	67.58	-0.2079	0.0151	0.223	877.4043	0.132311	-379.975206	-379.967393	-379.966449	-380.008529	27.815	
C	-0.0623753743	 1.3961282164	 0.009057019	-0.335675
N	 0.0030321063	-0.0512013935	 0.0009523948	-0.144191
C	-1.2878066066	-0.7402911221	 0.004355906	-0.187907
C	-1.1445404048	-2.2317923088	-0.0041551276	-0.13984
C	 0.0596969438	-2.7998290187	-0.0147615139	 0.025209
N	 1.2191297134	-2.0406344903	-0.0181123106	-0.385807
C	 1.2376938746	-0.6518877514	-0.0101733954	 0.489479
O	 2.2956484782	-0.0444946849	-0.0138131226	-0.420168
H	 0.9526963216	 1.7887921043	 0.0042326031	 0.169905
H	-0.6029759025	 1.7636001145	-0.8736052629	 0.116792
H	-0.5908637841	 1.7542942208	 0.9028095788	 0.116817
H	-1.8643878656	-0.4096770432	 0.8864041149	 0.108865
H	-1.874042683	-0.4005456621	-0.8678372843	 0.10885
H	-2.0430586413	-2.8339281877	-0.0016661427	 0.099621
H	 0.2091745884	-3.8729920833	-0.0213631345	 0.117297
H	 2.1301479356	-2.4653498301	-0.0260337821	 0.260753
22.8704	119.6685	147.2499	199.3333	355.8412	393.0566	452.7198	491.5017	554.1275	567.4352	720.5425	738.4804	754.6915	906.7499	944.7315	957.8039	1040.1585	1052.3947	1118.5822	1162.7874	1177.7974	1232.9565	1251.9678	1275.2366	1330.5304	1420.0504	1436.3456	1470.3215	1476.2526	1496.506	1512.043	1554.7403	1752.1018	1785.2417	2936.871	2937.9264	3004.5845	3046.487	3172.0438	3200.6658	3226.821	3679.5331
CN1CC=CNC1=O	CN1CC=CNC1=O	
InChI=1S/C5H8N2O/c1-7-4-2-3-6-5(7)8/h2-3H,4H2,1H3,(H,6,8)	InChI=1S/C5H8N2O/c1-7-4-2-3-6-5(7)8/h2-3H,4H2,1H3,(H,6,8)
