19
gdb 16433	3.19908	2.25416	1.67138	1.8755	75.6	-0.2238	0.0923	0.3161	860.307	0.165242	-327.839553	-327.832135	-327.83119	-327.870617	29.325	
C	-0.1278286711	 1.5671634959	-0.034677986	-0.4229
C	-0.0033597043	 0.0589048983	 0.0562373342	 0.021306
N	 1.1901684893	-0.5652793132	-0.6688311574	-0.17416
C	 2.0925580593	-0.2863335998	 0.566045201	-0.048977
C	 2.5818636314	-1.7365789757	 0.5880324081	-0.267749
C	 1.0869001228	-1.7957473185	 0.2694123508	-0.034181
C	 0.7112630945	-0.619520101	 1.2314140788	 0.315126
C	 0.3501673522	-0.6690932593	 2.693971886	-0.529341
H	 0.7840611421	 2.0754735146	 0.2935644709	 0.114569
H	-0.3293733279	 1.8708394416	-1.067265838	 0.127477
H	-0.9550466936	 1.9252420957	 0.5878645924	 0.115432
H	-0.9410775512	-0.4228410804	-0.2546451986	 0.061674
H	 2.6724596598	 0.6350382918	 0.6375944049	 0.078604
H	 3.2573248999	-2.0267648775	-0.2210003484	 0.106768
H	 2.9058949532	-2.1407584284	 1.5502907292	 0.096284
H	 0.4596006264	-2.6448280481	-0.0117363267	 0.075672
H	 1.0820589035	-1.2494982129	 3.26666463	 0.120701
H	 0.3118080468	 0.3375174421	 3.1251541671	 0.122462
H	-0.6322942633	-1.1320002053	 2.8399023617	 0.121234
194.1706	197.0848	208.1166	233.6423	271.1618	318.0872	472.6567	532.4786	611.0027	718.225	733.8015	837.7299	854.5871	861.633	879.2061	885.7566	923.011	1009.8508	1015.795	1033.576	1069.7453	1082.0753	1113.6255	1135.34	1140.8825	1171.0743	1195.7449	1225.4013	1233.514	1245.9589	1285.8164	1336.2489	1401.8215	1404.2612	1421.2064	1486.2321	1487.1226	1491.8464	1494.3405	1496.1702	3006.8967	3024.2034	3033.6847	3056.006	3087.9522	3091.129	3092.7074	3098.6498	3100.9966	3109.8291	3120.698
CC1N2C3CC2C13C	C[C@H]1N2[C@@H]3C[C@H]2[C@]13C	
InChI=1S/C7H11N/c1-4-7(2)5-3-6(7)8(4)5/h4-6H,3H2,1-2H3	InChI=1S/C7H11N/c1-4-7(2)5-3-6(7)8(4)5/h4-6H,3H2,1-2H3/t4-,5-,6+,7-/m1/s1
