17
gdb 44572	3.04224	1.70657	1.46455	5.0476	71.87	-0.2365	0.0259	0.2624	931.2863	0.13929	-418.008588	-418.00188	-418.000936	-418.039684	27.036	
O	-0.2626800126	 0.2529348453	 0.8382819604	-0.347763
C	-0.1982662314	 1.3179052344	 0.2941573569	 0.414393
C	-1.187992978	 2.3147447054	-0.3480188925	-0.388881
C	 0.0254416213	 3.285091597	-0.3980476204	 0.010762
C	 0.2074092399	 4.3246423428	 0.6941123313	-0.057524
N	-0.0439880285	 3.7721528228	 2.0377512548	-0.328703
C	 1.3434946011	 3.8897965613	 1.5594763622	-0.035457
C	 1.890025286	 2.5602427088	 1.0400078552	-0.196409
N	 0.8944761189	 2.1633408566	 0.0459876534	-0.100267
H	-1.5998769385	 2.0138667265	-1.3128738334	 0.126483
H	-1.9893064347	 2.6104505845	 0.3294968557	 0.141014
H	 0.2825075342	 3.6915570202	-1.3808727969	 0.081746
H	 0.0100516718	 5.3725068513	 0.4948630354	 0.092584
H	-0.2545080776	 4.5227371801	 2.6893480697	 0.239266
H	 2.0136414527	 4.6034115967	 2.0277881283	 0.095248
H	 2.8798289095	 2.6985538372	 0.5897199948	 0.110548
H	 1.9556760359	 1.789199569	 1.812478475	 0.142962
105.1196	210.2626	259.6459	379.7622	420.3694	531.7053	550.9869	637.13	670.4863	718.7611	814.3936	824.2818	841.515	862.5635	888.0054	946.1544	973.5461	1002.3427	1031.8754	1039.2935	1081.1325	1100.0634	1127.1087	1142.8252	1156.4294	1206.3225	1215.585	1231.6683	1250.6787	1310.5491	1330.4806	1353.4502	1371.6962	1417.8104	1447.489	1493.4073	1890.7708	3038.1764	3061.7996	3090.1043	3104.7637	3153.8832	3163.969	3174.2604	3518.4832
O=C1CC2C3NC3CN12	O=C1C[C@H]2[C@H]3N[C@H]3CN12	
InChI=1S/C6H8N2O/c9-5-1-4-6-3(7-6)2-8(4)5/h3-4,6-7H,1-2H2	InChI=1S/C6H8N2O/c9-5-1-4-6-3(7-6)2-8(4)5/h3-4,6-7H,1-2H2/t3-,4-,6-/m0/s1
