21
gdb 85927	2.59214	1.23323	1.0412	2.4383	78.23	-0.2352	-0.016	0.2193	1253.4292	0.180509	-424.271164	-424.261557	-424.260613	-424.305319	36.782	
C	-0.778094323	 1.1768019762	 0.1288843821	-0.405754
C	 0.1816655685	 0.0156303347	-0.1273448513	-0.086894
C	 1.3092233992	 0.2594025809	-1.1415503447	-0.255882
C	 2.4402663854	-0.725368174	-0.7668023383	 0.375996
C	 2.2261921913	-2.1124064196	-1.3829390344	-0.436124
O	 3.6573378327	-0.1609166471	-1.2470584253	-0.474723
C	 2.3695893358	-0.7660740693	 0.776891575	-0.380789
C	 0.9187874697	-0.4467274186	 1.1404746192	 0.409061
O	 0.4292244787	-0.5297006648	 2.2377081826	-0.32516
H	-0.2285220363	 2.0836139679	 0.4031604813	 0.119249
H	-1.3761547552	 1.4007087835	-0.7593283021	 0.114595
H	-1.4529585	 0.9305330508	 0.9526492176	 0.13841
H	-0.4086355326	-0.8576345081	-0.4452518482	 0.104567
H	 0.9939147679	 0.1457468141	-2.1821071397	 0.102326
H	 1.7050052909	 1.2750548095	-1.0265808782	 0.11266
H	 2.2352429039	-2.0458468189	-2.4745554375	 0.127164
H	 3.022148888	-2.7999307822	-1.0716656442	 0.108941
H	 1.2756863791	-2.5570348027	-1.0703170941	 0.121411
H	 4.361351764	-0.8032876883	-1.1073995474	 0.2753
H	 2.7007801711	-1.7016994934	 1.2364671509	 0.117381
H	 2.996710901	 0.0400620093	 1.1778302466	 0.138264
57.8674	113.2816	204.1868	236.9427	242.6634	285.5356	311.6695	319.1231	346.5126	385.1581	440.0732	515.7715	535.5677	567.9752	605.9095	729.324	786.2534	880.445	904.629	914.4075	954.466	958.3619	1003.5866	1026.6213	1081.3702	1107.8202	1150.763	1169.0021	1169.6832	1206.362	1245.6814	1276.0772	1304.1824	1314.8806	1349.4897	1381.8354	1405.0239	1408.654	1442.5644	1487.1474	1491.1124	1495.4409	1498.6206	1503.6142	1840.838	2991.4264	3025.298	3038.2038	3040.1626	3046.8357	3089.3846	3096.8511	3098.6474	3106.1068	3115.2872	3123.9656	3805.5713
CC1CC(C)(O)CC1=O	C[C@H]1C[C@@](C)(O)CC1=O	
InChI=1S/C7H12O2/c1-5-3-7(2,9)4-6(5)8/h5,9H,3-4H2,1-2H3	InChI=1S/C7H12O2/c1-5-3-7(2,9)4-6(5)8/h5,9H,3-4H2,1-2H3/t5-,7+/m0/s1
