22
gdb 58279	3.14677	0.8308	0.76504	3.5977	79.05	-0.2351	0.0361	0.2712	1588.559	0.192329	-441.530787	-441.519919	-441.518974	-441.567136	39.912	
C	 0.0043627377	 1.3412078391	 0.4473245033	-0.412222
C	-0.1710293872	-0.0484202837	-0.1845440146	 0.035079
C	-1.6317873301	-0.2859965485	-0.5905159649	-0.396127
C	 0.7671408243	-0.2874559925	-1.3886837566	 0.09809
O	 0.4925653904	 0.6283898211	-2.4624729344	-0.433594
C	 2.2592198969	-0.285646664	-1.0157089585	-0.318685
C	 3.2157456474	-0.8507358843	-2.0738575417	 0.366878
N	 2.9496779648	-0.4715499221	-3.3544345175	-0.512726
O	 4.1591684978	-1.5556914316	-1.7687680404	-0.364502
H	 1.0294076029	 1.5217085178	 0.784593635	 0.121916
H	-0.2717811737	 2.1390035255	-0.2534276565	 0.108539
H	-0.6504614957	 1.4484331095	 1.3170471832	 0.124662
H	 0.1044509516	-0.798697936	 0.5686209878	 0.082892
H	-1.9234696064	 0.3975770157	-1.3934135104	 0.126046
H	-1.7810551339	-1.3084384283	-0.9529644604	 0.11363
H	-2.3058516873	-0.1280320526	 0.2570019571	 0.11065
H	 0.5167995064	-1.2667731027	-1.813558984	 0.099116
H	 0.696324284	 1.5168603401	-2.1484990804	 0.28593
H	 2.5802522286	 0.7388940638	-0.7835516919	 0.114264
H	 2.4251891025	-0.8804129608	-0.1143844631	 0.129932
H	 2.094223372	 0.0193105438	-3.5705752472	 0.266854
H	 3.5138821369	-0.8685798594	-4.087662754	 0.253379
42.7955	76.9653	91.0843	161.0917	214.5633	236.7353	256.623	302.8638	313.1885	329.1075	375.4617	415.4414	438.2409	505.7406	569.8642	603.7896	628.081	748.7046	806.8365	872.907	887.8947	921.6124	955.1808	964.7908	1007.9065	1049.4156	1100.9655	1124.8118	1157.0672	1181.5931	1203.728	1276.8653	1296.4383	1341.2307	1359.5285	1365.6221	1380.5785	1399.2385	1417.3652	1426.9711	1462.0194	1487.6215	1494.8849	1507.0002	1512.5014	1615.0879	1798.2341	3016.2297	3024.3135	3026.931	3036.1863	3046.7057	3091.1937	3102.709	3109.3067	3110.9534	3115.3369	3551.4352	3706.3084	3798.9053
CC(C)C(O)CC(N)=O	CC(C)[C@@H](O)CC(=O)N	
InChI=1S/C6H13NO2/c1-4(2)5(8)3-6(7)9/h4-5,8H,3H2,1-2H3,(H2,7,9)	InChI=1S/C6H13NO2/c1-4(2)5(8)3-6(7)9/h4-5,8H,3H2,1-2H3,(H2,7,9)/t5-/m0/s1
