18
gdb 38162	2.55497	2.23238	1.51273	2.0884	76.13	-0.227	0.0096	0.2366	900.2429	0.150251	-401.89967	-401.893077	-401.892133	-401.930138	27.907	
C	-0.0178871126	 1.5452515508	 0.0455701193	-0.44149
C	 1.2397908081	 0.7107023291	-0.0248561387	 0.035857
N	 2.2287919439	 0.3929850418	 0.9727419717	-0.26861
C	 2.4149912366	-0.8580886461	 1.1069546612	 0.118323
O	 1.7652062594	-1.9229090844	 0.5442282044	-0.257675
C	 0.330096693	-1.9487820068	 0.3370739815	 0.140841
C	-0.3624363037	-0.8727540362	 1.191532903	-0.291049
C	-0.0962420119	 0.0400755005	-0.009743472	 0.300027
C	-0.1740961809	-1.1816638294	-0.933730444	-0.31681
H	-0.3245577762	 1.9751706962	 0.9947513486	 0.122277
H	-0.2455313405	 2.1630111919	-0.817614271	 0.117595
H	 1.6976476288	 0.7463422137	-1.0142159812	 0.100215
H	 3.2333177259	-1.2196854699	 1.7284149446	 0.119847
H	 0.0582173635	-2.9998538885	 0.4448746897	 0.089404
H	-1.4284284002	-1.0873531352	 1.3134949897	 0.104174
H	 0.0778379206	-0.6317147264	 2.1605223802	 0.118814
H	 0.4596171809	-1.1946935687	-1.823117075	 0.107474
H	-1.1858617447	-1.5194698423	-1.1852272219	 0.100785
198.1187	298.968	336.6796	371.1673	394.1508	431.9951	526.6535	540.5208	612.2835	764.7799	802.6208	820.5831	840.9178	859.3608	870.5783	927.3846	945.258	971.9625	986.7253	1028.7366	1064.3133	1072.2915	1091.6038	1123.228	1126.1703	1158.8213	1171.8237	1184.5179	1217.5477	1263.1963	1275.5306	1346.6004	1369.7387	1405.0591	1423.2234	1474.3159	1484.9923	1501.0001	1663.2059	3039.9857	3059.3561	3090.7325	3101.6126	3113.7252	3120.0468	3123.5799	3150.1762	3206.6519
C1C2N=COC3CC12C3	C1[C@H]2[N][CH]O[C@H]3C[C@@]12C3	
InChI=1S/C7H9NO/c1-5-2-7(1)3-6(7)8-4-9-5/h4-6H,1-3H2	InChI=1S/C7H9NO/c1-5-2-7(1)3-6(7)8-4-9-5/h4-6H,1-3H2/t5-,6-,7+/m1/s1
