13
gdb 24858	2.44336	1.83783	1.13223	1.8507	70.49	-0.2732	-0.0998	0.1734	1001.6966	0.089876	-452.77213	-452.764844	-452.763899	-452.804687	26.51	
N	-0.0530220228	 0.8827060711	 0.924109685	-0.465964
C	-0.0469948282	 0.0614592165	-0.0326368901	 0.328644
O	 1.0804757029	-0.1727329557	-0.7867434369	-0.242057
C	 1.5237870772	-1.3843682635	-1.3030131894	 0.396987
O	 2.5561957921	-1.3739215747	-1.9099122408	-0.302754
C	 0.7567157099	-2.6058488658	-1.0209119807	-0.210047
C	-0.5591144539	-2.7294269945	-0.7776463721	 0.01287
N	-1.5518829726	-1.7567246457	-0.7955964806	-0.205766
C	-1.3334884357	-0.5427464771	-0.4824047571	 0.003928
H	 0.8882458346	 1.2340635874	 1.1140636869	 0.246618
H	 1.3548888478	-3.5047351199	-1.1197614879	 0.141718
H	-0.9593303256	-3.7293565879	-0.6300991833	 0.137424
H	-2.1695674456	 0.1555442398	-0.5089860331	 0.158401
62.3555	85.8107	245.4646	306.7787	389.1804	419.6194	450.1099	529.4256	594.6559	655.4217	727.104	814.0198	834.0694	861.3651	920.8961	946.7908	962.8549	987.1726	1015.1804	1116.0292	1179.8623	1270.6941	1332.5223	1388.3381	1430.7837	1652.4659	1707.5133	1743.3146	1839.4064	3142.311	3165.1292	3204.1097	3470.1211
N=C1OC(=O)C=CN=C1	[NH][C]1OC(=O)C=CN=C1	
InChI=1S/C5H4N2O2/c6-4-3-7-2-1-5(8)9-4/h1-3,6H	InChI=1S/C5H4N2O2/c6-4-3-7-2-1-5(8)9-4/h1-3,6H
