17
gdb 20297	5.22766	1.58248	1.52849	1.8492	68.54	-0.2301	0.0816	0.3117	878.9237	0.143921	-363.746397	-363.7399	-363.738956	-363.777332	25.299	
C	 0.17239742	 1.5189810633	 0.123637276	-0.176878
O	 1.045437069	 0.5538616059	-0.4741133087	-0.227466
C	-0.2326498774	 0.1126570197	-0.0153487004	 0.034532
C	-0.3845968876	-0.7894751223	 1.1810682441	 0.034406
C	 0.260558983	-2.1910355138	 1.3538485088	-0.086444
C	 1.5676545962	-1.4226459684	 1.6472205287	-0.181305
N	 0.5167465022	-0.5823052665	 2.4169543809	-0.164921
C	-0.0314343224	-1.957209613	 2.8510310569	-0.163268
H	 0.4829266447	 1.8750905377	 1.1032195707	 0.139333
H	-0.226088192	 2.2689705219	-0.5572135567	 0.115365
H	-0.9221457812	-0.1364007181	-0.8252704787	 0.095938
H	-1.4471569772	-0.7449622336	 1.4570644645	 0.076179
H	 0.1067633464	-3.0953682986	 0.7545873197	 0.065149
H	 2.2887934345	-1.9038329568	 2.3138646512	 0.095205
H	 2.054893941	-0.88106109	 0.8418695697	 0.143666
H	-1.0731761	-1.9303925768	 3.1840413353	 0.098134
H	 0.6098447607	-2.4596557508	 3.5794073378	 0.102374
75.625	177.0371	246.9967	389.5566	428.7443	579.2283	655.0626	763.4278	782.4782	809.3346	845.5176	898.1719	903.0655	913.7978	926.7188	990.876	1029.4457	1066.7026	1085.5934	1097.8006	1107.8706	1144.9885	1163.1583	1171.4119	1174.2204	1185.968	1203.7663	1232.0143	1250.689	1286.2293	1300.2429	1418.6057	1430.7699	1513.8357	1520.8031	1554.7875	3012.6895	3036.4835	3051.8828	3068.3359	3085.0066	3095.5534	3118.4841	3189.9248	3191.0985
C1OC1C1C2CN1C2	C1O[C@H]1[C@H]1[C@H]2CN1C2	
InChI=1S/C6H9NO/c1-4-2-7(1)6(4)5-3-8-5/h4-6H,1-3H2	InChI=1S/C6H9NO/c1-4-2-7(1)6(4)5-3-8-5/h4-6H,1-3H2/t5-,6-/m1/s1
