16
gdb 123643	4.07622	1.62597	1.26601	3.7973	74.85	-0.2296	0.0182	0.2478	956.6408	0.129359	-396.925953	-396.919762	-396.918818	-396.956464	25.135	
C	-0.0530101222	 1.4328896355	 0.0205723177	-0.171638
C	 1.413226668	 1.8652433599	-0.0295562976	-0.037337
N	 2.1903327204	 1.4667818261	 1.1561420917	-0.325112
C	 2.2779061292	 0.6448773883	-0.0838281409	-0.240172
C	 1.3436366714	-0.4996073922	-0.0585157558	 0.488012
C	 1.2361976363	-1.8756147258	-0.0451204532	-0.401214
C	-0.157458485	-2.1034563878	 0.049256869	 0.013419
N	-0.8627183878	-0.9677972432	 0.0937362409	-0.294532
N	 0.076614023	-0.018511038	 0.0158752259	 0.040299
H	-0.5590318685	 1.7765170352	 0.9269723257	 0.141967
H	-0.6127168617	 1.777946218	-0.85525493	 0.126721
H	 1.6714037937	 2.7746305308	-0.5596546401	 0.103722
H	 3.0179656063	 2.0568879258	 1.2213757964	 0.235383
H	 3.2065498941	 0.6112130495	-0.6401576965	 0.107219
H	 2.027770722	-2.6055281383	-0.0828158072	 0.104209
H	-0.6748989392	-3.0512076036	 0.085691554	 0.109052
151.2746	198.0117	350.3097	437.0564	450.949	618.0798	662.1088	708.0609	738.1193	786.8666	799.7478	822.4478	856.2834	880.4129	884.9963	947.7133	960.0134	1014.7164	1053.2706	1077.5828	1114.3749	1141.606	1177.8758	1206.5492	1211.7862	1234.6929	1317.498	1323.1296	1345.8787	1356.5671	1403.5799	1444.0272	1476.1932	1510.3916	1597.691	3049.6085	3099.3966	3179.5981	3192.7254	3242.1416	3273.2857	3485.444
C1C2NC2C2=CC=NN12	C1[C@H]2N[C@H]2c2ccnn12	
InChI=1S/C6H7N3/c1-2-7-9-3-4-6(8-4)5(1)9/h1-2,4,6,8H,3H2	InChI=1S/C6H7N3/c1-2-7-9-3-4-6(8-4)5(1)9/h1-2,4,6,8H,3H2/t4-,6-/m1/s1
