19
gdb 47803	2.15568	1.97543	1.2298	3.2869	75.45	-0.2416	-0.0152	0.2264	1047.547	0.160637	-423.032896	-423.025153	-423.024209	-423.065085	30.514	
O	 0.0067120184	-0.091768823	 0.1194803178	-0.307556
C	-0.0066576036	 1.1129199006	 0.0326281852	 0.366102
C	-1.3029253226	 1.9110186058	 0.0070525331	-0.289891
C	-1.67744564	 2.3465642479	 1.4438251464	-0.196862
C	-0.6573643486	 3.2472500109	 2.1444404377	-0.071528
O	 0.6015504161	 2.6076366867	 2.3574237846	-0.245399
C	 1.4927078744	 2.7583382016	 1.2960284728	 0.111677
C	 2.3707304236	 1.5887321739	 0.9679115357	-0.322487
C	 1.246482446	 1.9572482928	 0.0366159099	-0.15413
H	-1.1906264771	 2.7969100581	-0.6296889235	 0.100813
H	-2.0965228404	 1.2793104696	-0.4007316727	 0.119641
H	-2.6350764349	 2.8801523241	 1.4117272827	 0.10358
H	-1.8284923232	 1.4499254832	 2.0551263194	 0.127422
H	-0.5153960484	 4.1839070733	 1.5841879354	 0.090629
H	-1.0322530362	 3.5102801578	 3.1389179754	 0.112274
H	 1.9009801024	 3.7647474365	 1.1946723956	 0.087183
H	 3.3933844829	 1.7808612801	 0.664325607	 0.116536
H	 2.2229127636	 0.6885974903	 1.5538859259	 0.144565
H	 1.4668786376	 2.4400280499	-0.9122902285	 0.107431
87.229	176.6831	207.1855	276.9116	318.1511	371.6458	426.523	476.2138	565.8299	575.1981	675.8423	769.9625	790.5679	818.4213	860.8845	895.394	928.9694	955.3147	984.6209	1035.1517	1053.7723	1069.1919	1087.497	1092.1349	1119.4876	1153.1173	1172.5937	1213.8491	1221.3634	1249.2215	1312.3867	1343.2865	1371.784	1375.594	1386.2973	1420.3688	1472.6461	1478.1246	1479.2025	1497.8169	1811.9613	2992.6389	3033.0326	3035.0782	3074.7653	3083.9161	3091.102	3104.1215	3139.8036	3144.4693	3234.0928
O=C1CCCOC2CC12	O=C1CCCO[C@H]2C[C@@H]12	
InChI=1S/C7H10O2/c8-6-2-1-3-9-7-4-5(6)7/h5,7H,1-4H2	InChI=1S/C7H10O2/c8-6-2-1-3-9-7-4-5(6)7/h5,7H,1-4H2/t5-,7-/m0/s1
