18
gdb 85180	2.30066	1.62939	1.13588	3.4817	70.96	-0.2552	0.0011	0.2563	1104.5243	0.147959	-439.085952	-439.077462	-439.076518	-439.119514	31.167	
C	 0.3222280033	 1.4511033529	-0.2840375742	-0.411403
C	-0.0281144169	 0.0339169448	 0.1075285704	 0.128587
O	 0.667890481	-0.9616333791	-0.736357226	-0.253783
C	 1.2836206582	-1.5279242393	 0.3405119323	 0.451316
O	 2.0749855109	-2.4193274398	 0.3466684716	-0.33567
C	 0.6255363795	-0.6006331825	 1.3671196858	-0.24726
C	 1.5458068215	 0.2173056352	 2.2417254566	-0.013001
C	 2.6988062057	-0.4203842991	 2.9252054284	-0.247344
N	 2.9219503883	 0.5547375112	 1.8416352471	-0.319708
H	 1.3932210443	 1.6439831106	-0.1891832968	 0.149746
H	 0.0190744323	 1.6411435363	-1.3175007363	 0.137161
H	-0.2111842891	 2.1567944801	 0.3613406903	 0.130079
H	-1.1040698979	-0.1462779441	 0.0351948092	 0.101478
H	-0.0995030351	-1.1373964358	 1.9875989772	 0.120176
H	 1.0432594916	 1.0366095034	 2.7531196978	 0.101518
H	 2.9915874528	-0.0847868827	 3.9156578692	 0.121404
H	 2.8893188273	-1.4678996695	 2.710975768	 0.144295
H	 3.1835383422	 0.0497918274	 0.9972954593	 0.24241
78.8908	103.0606	148.2832	168.7166	215.9355	302.6283	369.364	424.4651	511.3524	532.035	702.6815	738.5161	787.6254	835.828	852.4658	872.8473	914.7432	965.803	1006.9481	1029.8248	1050.4073	1105.7816	1131.4801	1145.9043	1156.497	1165.3219	1181.6194	1230.6374	1264.1325	1305.7221	1321.7734	1338.6874	1384.9607	1409.3707	1416.7673	1485.8763	1491.5775	1507.9914	1914.858	3045.8132	3060.8813	3077.5293	3114.3288	3116.3373	3120.9512	3136.4468	3209.2148	3493.4511
CC1OC(=O)C1C1CN1	C[C@H]1OC(=O)[C@H]1[C@H]1CN1	
InChI=1S/C6H9NO2/c1-3-5(4-2-7-4)6(8)9-3/h3-5,7H,2H2,1H3	InChI=1S/C6H9NO2/c1-3-5(4-2-7-4)6(8)9-3/h3-5,7H,2H2,1H3/t3-,4-,5-/m1/s1
