19
gdb 126653	6.32741	0.70327	0.6434	4.4711	78.61	-0.2125	0.0381	0.2506	1736.4014	0.16146	-415.41682	-415.407672	-415.406728	-415.451838	32.557	
C	 0.0930371474	 1.5102592072	-0.0984493653	-0.383128
C	-0.1089080592	 0.0095624614	 0.1204010758	-0.194123
C	 0.8113208498	-0.5541576415	 1.2021865006	-0.132494
N	 0.5682056701	-1.9758343329	 1.397649171	-0.399258
C	 1.3070481865	-2.702061793	 2.2929969211	 0.486963
N	 1.4462952083	-4.0194909036	 2.2864149612	-0.362029
C	 2.2132646077	-4.2406794214	 3.3925445274	 0.036049
N	 2.5654646639	-3.1732584526	 4.0785707397	-0.231605
N	 1.9708219243	-2.1741633344	 3.3479476925	-0.269172
H	 1.1224242896	 1.7348092883	-0.3976636695	 0.122139
H	-0.5702899789	 1.8837249555	-0.8833796764	 0.124077
H	-0.1200399177	 2.0772838339	 0.8141698218	 0.121281
H	-1.1481881205	-0.1984935916	 0.3992233114	 0.117975
H	 0.0766838869	-0.5279070014	-0.8192337656	 0.105276
H	 1.8635193027	-0.349964411	 0.9412905858	 0.104354
H	 0.6100612809	-0.031758848	 2.1477799811	 0.107406
H	 0.3639937587	-2.5055926944	 0.5623124903	 0.254718
H	 2.5224636967	-5.2303583802	 3.6954927871	 0.118996
H	 2.0577196427	-1.2183368801	 3.6446856	 0.272573
54.1427	65.9548	101.8038	140.6611	233.3066	274.482	311.2726	341.2508	436.0581	465.3041	578.3702	677.7875	756.6441	764.2889	780.9622	902.1349	912.728	917.9139	977.1301	1032.8936	1056.8567	1085.8446	1109.1495	1155.0175	1176.1709	1229.2688	1269.468	1299.602	1313.2605	1323.9493	1329.7777	1371.8032	1413.0695	1427.507	1492.0713	1493.8433	1499.7838	1506.1396	1526.6069	1557.8873	1642.7706	2960.5007	3012.8434	3025.375	3035.8989	3067.4269	3102.6689	3113.6357	3255.2486	3606.4566	3687.625
CCCNC1=NC=NN1	CCCNc1ncn[nH]1	
InChI=1S/C5H10N4/c1-2-3-6-5-7-4-8-9-5/h4H,2-3H2,1H3,(H2,6,7,8,9)	InChI=1S/C5H10N4/c1-2-3-6-5-7-4-8-9-5/h4H,2-3H2,1H3,(H2,6,7,8,9)
