16
gdb 10286	2.19044	1.8957	1.31016	1.5602	67.68	-0.2396	-0.0311	0.2085	1001.6533	0.125664	-383.704926	-383.69529	-383.694346	-383.740101	32.729	
C	 0.6320819321	 0.7311550457	 0.5672608339	-0.241259
O	 0.1118583491	-0.5154353864	 0.1384937856	-0.242279
C	-1.2750415125	-0.4621954906	-0.1554832388	-0.1282
C	-1.647556039	-1.6386328462	-0.932141873	 0.284268
C	-2.0052376184	-2.6079155903	-1.5454399214	-0.414154
C	-2.1294928064	-0.4010352022	 1.148816838	 0.363241
C	-1.8186706216	-1.4495059782	 2.1923800183	-0.479432
O	-2.970288508	 0.4529236526	 1.2798771128	-0.29138
H	 1.6997224777	 0.5821762744	 0.7397418213	 0.136903
H	 0.494945114	 1.5068513626	-0.1999406939	 0.119887
H	 0.1656013153	 1.0813912529	 1.4993655583	 0.11939
H	-1.5206920201	 0.4497121411	-0.7204868798	 0.114503
H	-2.3093341492	-3.4599528587	-2.1023245928	 0.205764
H	-2.0507709766	-2.4410106881	 1.7889480599	 0.158815
H	-0.7498583109	-1.4491171134	 2.423458096	 0.153692
H	-2.4087755655	-1.2654448451	 3.0902090756	 0.140239
40.4766	91.9607	105.7978	133.6322	161.8326	178.3617	266.0574	352.6419	375.7185	460.2223	524.5922	561.7761	603.951	629.1898	677.4841	781.872	976.2188	985.0235	1001.1342	1059.263	1128.6161	1181.1742	1206.9766	1219.2551	1275.4025	1354.2607	1377.362	1462.6536	1464.4756	1477.7606	1488.8029	1508.1447	1825.155	2238.1672	2987.9622	2997.0541	3040.7757	3050.4388	3115.7727	3128.889	3161.9962	3501.758
COC(C#C)C(C)=O	CO[C@@H](C#C)C(=O)C	
InChI=1S/C6H8O2/c1-4-6(8-3)5(2)7/h1,6H,2-3H3	InChI=1S/C6H8O2/c1-4-6(8-3)5(2)7/h1,6H,2-3H3/t6-/m0/s1
