18
gdb 95858	2.39923	1.44674	1.13793	3.77	72.26	-0.2595	0.0168	0.2763	1134.1954	0.148112	-439.09565	-439.087221	-439.086277	-439.128696	31.487	
C	 0.0090973122	 1.5334430796	 0.0421359078	-0.408999
C	 0.0176369722	 0.0183798031	-0.0524446769	 0.106885
C	 0.7800324063	-0.5070330502	-1.2668898415	-0.083618
O	 0.8575134864	-1.9260426089	-1.2448942809	-0.245261
C	 1.4964123303	-2.3858081591	-0.0769569402	-0.094475
C	 0.7629716899	-1.8816247323	 1.1773093484	-0.040535
O	 0.6415805396	-0.4731512733	 1.1479308937	-0.265513
C	-0.5569207747	-2.536650815	 1.3304508369	 0.274608
N	-1.5827992864	-3.0508483218	 1.4641853989	-0.324505
H	 1.0300902803	 1.9245773115	 0.0863699014	 0.127858
H	-0.4951123224	 1.967052539	-0.8265560899	 0.125036
H	-0.519684681	 1.8514182042	 0.9438760728	 0.138114
H	-1.0119505349	-0.367516357	-0.0940336424	 0.10337
H	 0.2660681039	-0.2383064846	-2.1937104556	 0.119691
H	 1.7926781188	-0.070807755	-1.2824108226	 0.094769
H	 1.5038969448	-3.4779936242	-0.1163233404	 0.132491
H	 2.5339156371	-2.0183916595	-0.0237340325	 0.104536
H	 1.3566789777	-2.1171191264	 2.067499773	 0.135549
106.7918	110.2259	196.9066	212.0587	281.4443	297.1183	350.2306	415.272	426.985	476.6827	542.7457	621.0433	743.7659	798.8137	870.5773	898.5197	918.8921	960.9153	994.8353	1040.3648	1123.7067	1128.4421	1145.1746	1159.0819	1167.9784	1260.2613	1302.7754	1321.981	1337.9733	1362.0838	1386.0081	1394.4006	1412.0526	1424.7167	1475.6442	1482.8384	1490.7513	1500.6944	2355.7719	2972.4306	2982.7997	3004.8032	3046.0978	3060.8307	3097.678	3104.1452	3119.5878	3128.8353
CC1COCC(O1)C#N	C[C@H]1COC[C@@H](O1)C#N	
InChI=1S/C6H9NO2/c1-5-3-8-4-6(2-7)9-5/h5-6H,3-4H2,1H3	InChI=1S/C6H9NO2/c1-5-3-8-4-6(2-7)9-5/h5-6H,3-4H2,1H3/t5-,6-/m0/s1
