20
gdb 86995	6.30458	0.63499	0.61408	0.7832	82.67	-0.2265	0.0548	0.2813	1800.0719	0.169164	-403.081348	-403.071696	-403.070751	-403.116599	35.473	
O	 0.0358427281	 1.5263074292	 0.0496444248	-0.436346
C	 0.0814076251	 0.121493916	-0.0085568207	 0.144901
C	 0.2415821891	-0.5920344987	 1.3595802975	-0.206609
N	-1.22723875	-0.7617068598	 1.3947564331	-0.08606
C	-1.767024821	-1.9645970324	 1.9893315536	-0.140478
C	-3.3070449336	-1.9381175496	 1.9911153023	-0.357727
C	-3.8855580465	-3.132534341	 2.5916493074	 0.298599
C	-4.3342609905	-4.1277887721	 3.094465356	-0.442374
C	-1.2998138534	-0.5819697888	-0.0737497455	-0.207333
H	-0.5945772245	 1.7653450584	 0.7390803368	 0.28774
H	 0.8021459314	-0.1315303289	-0.7863659229	 0.094337
H	 0.7892904494	-1.544709744	 1.2707263028	 0.088116
H	 0.6667491463	-0.0055755826	 2.1814879047	 0.103665
H	-1.4209399222	-2.8780178051	 1.4683129379	 0.087685
H	-1.4088094102	-2.0307472223	 3.0226451982	 0.115394
H	-3.6417104633	-1.0416563903	 2.5263688412	 0.137169
H	-3.6688582308	-1.8344051507	 0.9598282714	 0.132864
H	-4.7437146557	-5.0021705174	 3.5359830895	 0.194887
H	-2.1409551938	 0.0167397001	-0.4390688283	 0.103909
H	-1.2600378941	-1.5330448704	-0.6312207899	 0.087663
52.4358	76.864	99.2933	125.8877	221.1263	309.5392	347.0662	358.7942	394.3569	429.5498	445.2673	492.3171	619.814	642.8121	738.4294	784.5779	844.2406	858.8174	931.743	963.3574	1000.4939	1018.3875	1029.4577	1050.5893	1109.0718	1123.8541	1137.5455	1174.3682	1218.169	1240.0855	1255.1184	1271.6536	1306.61	1316.9	1320.4915	1333.507	1401.4124	1441.4577	1474.1834	1489.4291	1496.0824	1520.4797	2240.3096	2920.0934	2960.063	2971.5825	3023.9319	3054.6493	3062.1336	3064.1978	3071.6325	3116.5412	3507.4337	3796.1243
OC1CN(CCC#C)C1	OC1CN(CCC#C)C1	
InChI=1S/C7H11NO/c1-2-3-4-8-5-7(9)6-8/h1,7,9H,3-6H2	InChI=1S/C7H11NO/c1-2-3-4-8-5-7(9)6-8/h1,7,9H,3-6H2
