21
gdb 75215	2.60585	1.49674	1.20368	1.1232	83.94	-0.2269	0.0313	0.2581	1135.2121	0.182515	-387.100732	-387.091999	-387.091055	-387.133914	34.219	
C	 0.363443033	 1.4170505347	-0.0286957042	-0.494244
C	 0.044880027	-0.0452218751	-0.0676038588	 0.32298
C	-0.0739347069	-0.8141143529	-1.1556069492	-0.164055
C	-0.4326699729	-2.2474689764	-0.8483403415	-0.34178
C	-0.3695825409	-2.3013127408	 0.6962981409	 0.414694
O	-1.4752757212	-2.939541257	 1.3016741779	-0.489616
C	 1.0131362401	-2.6675788046	 1.3274461334	-0.274049
C	 1.093392106	-1.2576319762	 1.9802895043	-0.226664
C	-0.1884118219	-0.8358508718	 1.1951485844	-0.134447
H	 1.2617051241	 1.6144728558	 0.5699939378	 0.124818
H	 0.527953797	 1.8227732905	-1.0307508566	 0.121044
H	-0.4508971699	 1.9848608504	 0.4396395667	 0.125364
H	 0.0481356718	-0.453071429	-2.1725144136	 0.081742
H	-1.4458901481	-2.494863884	-1.1945674727	 0.10328
H	 0.2505032052	-2.9676661932	-1.3187570795	 0.093295
H	-1.4543510569	-3.8697078361	 1.0510596207	 0.273498
H	 0.9638008676	-3.5029505542	 2.030247977	 0.095723
H	 1.7976029092	-2.8686810888	 0.5930285974	 0.095085
H	 0.9501960522	-1.2725904692	 3.0631195045	 0.102505
H	 1.9942490504	-0.6802643475	 1.7577467115	 0.094787
H	-1.0001663449	-0.4351908647	 1.8107056595	 0.076038
58.9626	177.5745	191.8233	242.6119	259.9786	269.7146	332.1632	391.2738	431.3666	533.8355	552.251	626.9795	694.9682	733.2161	801.9245	827.8559	858.4965	919.9835	940.4094	954.1241	975.1138	999.8301	1030.3741	1039.166	1052.4602	1106.4374	1111.203	1153.0379	1188.0106	1200.4541	1218.9014	1253.1792	1265.3933	1277.3404	1284.5113	1302.5093	1355.7767	1378.5735	1413.3231	1463.2326	1479.3972	1483.0594	1488.9174	1490.095	1713.0849	3002.9025	3016.4157	3033.5307	3054.561	3054.9201	3062.1439	3064.4033	3102.6181	3107.9708	3121.6292	3173.5698	3797.1831
CC1=CCC2(O)CCC12	CC1=CC[C@@]2(O)CC[C@@H]12	
InChI=1S/C8H12O/c1-6-2-4-8(9)5-3-7(6)8/h2,7,9H,3-5H2,1H3	InChI=1S/C8H12O/c1-6-2-4-8(9)5-3-7(6)8/h2,7,9H,3-5H2,1H3/t7-,8+/m0/s1
