23
gdb 68041	2.08968	1.79286	1.26803	0.117	91.05	-0.2603	0.0891	0.3494	1142.4231	0.204764	-351.104426	-351.095324	-351.09438	-351.137316	36.429	
C	-0.0105132971	 1.4702826227	 0.0116166406	-0.516583
C	 0.0081298644	-0.0336647276	-0.0011710389	 0.25016
C	 0.6361128623	-0.9745982411	-1.0797653601	-0.291882
C	 0.0182309373	-1.9404080314	-0.0174484494	 0.25016
C	 0.0155221581	-3.4444677206	-0.030337632	-0.516583
C	 0.6257321508	-0.9929809844	 1.0671757953	-0.291883
C	-1.2012673985	-0.9934193866	-0.015241456	 0.404551
C	-2.4804682899	-1.0066811935	 0.7443542536	-0.378591
C	-2.4730559032	-0.9935637124	-0.7872983373	-0.37859
H	 1.0065575318	 1.8768854135	 0.0199641854	 0.1192
H	-0.5207715644	 1.8666840798	-0.8735859797	 0.117801
H	-0.5292518533	 1.851511073	 0.8985529576	 0.117801
H	 0.1670251206	-0.9686500248	-2.0677140518	 0.085972
H	 1.7289053585	-0.9682089904	-1.1499728939	 0.078197
H	 1.0368436434	-3.8403572878	-0.0287803659	 0.1192
H	-0.4991195171	-3.8462541623	 0.8498854842	 0.117801
H	-0.4905372547	-3.831083851	-0.9222529036	 0.117801
H	 1.7177942771	-0.9878869328	 1.1480471114	 0.078198
H	 0.147112032	-1.0039103728	 2.0504989401	 0.085972
H	-2.7929557445	-1.923106065	 1.2368228946	 0.107824
H	-2.8026043766	-0.1021631997	 1.2523734822	 0.107824
H	-2.7903323354	-0.0804485035	-1.2828431913	 0.107824
H	-2.7806904318	-1.9013915012	-1.298393075	 0.107824
163.282	180.7019	196.4737	209.0549	211.9976	219.3213	249.8506	381.5665	431.7085	478.2146	585.5182	604.9434	628.5252	656.3268	741.7041	771.2285	786.6472	903.8312	907.3733	911.6306	961.0048	963.4828	1008.3336	1019.6109	1041.7449	1053.0682	1065.1851	1077.0249	1103.1081	1109.6937	1159.2357	1169.3317	1181.5377	1185.335	1199.9772	1203.1122	1320.8177	1327.3237	1402.4572	1407.4662	1423.0265	1460.5996	1487.9532	1489.2521	1490.0377	1490.6202	1492.3047	1507.6389	1549.5014	3023.7948	3023.8347	3034.7784	3041.1177	3089.3663	3089.3746	3092.7005	3092.9232	3103.4275	3106.4093	3111.6762	3115.2405	3186.1455	3200.6892
CC12CC(C)(C1)C21CC1	C[C@@]12C[C@@](C)(C1)C12CC1	
InChI=1S/C9H14/c1-7-5-8(2,6-7)9(7)3-4-9/h3-6H2,1-2H3	InChI=1S/C9H14/c1-7-5-8(2,6-7)9(7)3-4-9/h3-6H2,1-2H3/t7-,8+
