19
gdb 77715	2.76426	1.62067	1.5334	1.167	79.79	-0.2116	0.0181	0.2298	978.3274	0.160862	-385.8531	-385.845648	-385.844704	-385.88437	30.685	
O	-0.0990371884	 1.371209281	-0.1131815029	-0.424345
C	-0.0559479792	-0.0191415209	-0.224712489	 0.042349
C	-1.3051754198	-0.7875088795	 0.0205762665	 0.20996
C	-2.5438547654	-0.044025494	-0.5187115029	-0.275882
C	-1.9038591044	 0.0076209593	-1.944546945	-0.274915
C	-0.6722515354	-0.7492080222	-1.4022202434	 0.142821
C	-0.2170914456	-2.1378897165	-1.6523196357	-0.177356
C	-0.4636278665	-2.9260452396	-0.593610643	-0.062035
C	-1.2086960942	-2.2164851423	 0.5379133484	-0.357346
H	 0.5430783758	 1.7365079284	-0.7313750257	 0.287077
H	 0.8541330641	-0.4854484417	 0.1536468634	 0.086045
H	-3.4387304049	-0.6697897902	-0.4872466702	 0.099283
H	-2.7632647379	 0.9162715797	-0.0463981231	 0.110924
H	-2.4601934158	-0.5740652623	-2.6815790486	 0.103374
H	-1.7093209522	 1.0032304809	-2.3521650509	 0.092824
H	 0.2767443338	-2.4689124201	-2.560506336	 0.0907
H	-0.1557014404	-3.9646757409	-0.5144939939	 0.090513
H	-0.6732322267	-2.2986518779	 1.4926058913	 0.109901
H	-2.1996283168	-2.6614113211	 0.7038909207	 0.106106
197.667	219.348	235.8892	262.8651	322.8696	365.8014	452.0666	499.3832	571.296	667.177	727.0165	748.4706	765.9596	775.3551	781.1898	861.0052	915.4907	938.2585	950.7626	958.5484	973.3279	1034.1915	1090.7152	1118.5553	1124.4013	1143.1817	1186.5789	1213.865	1234.7108	1241.2184	1252.7144	1277.8703	1295.9276	1305.2297	1333.1221	1368.9949	1457.831	1468.5622	1478.9059	1498.9135	1633.5214	3008.5606	3038.4156	3058.0739	3064.4953	3100.0075	3107.7956	3126.0489	3165.7283	3190.0545	3802.4729
OC1C23CCC12C=CC3	O[C@H]1[C@@]23CC[C@@]12C=CC3	
InChI=1S/C8H10O/c9-6-7-2-1-3-8(6,7)5-4-7/h1-2,6,9H,3-5H2	InChI=1S/C8H10O/c9-6-7-2-1-3-8(6,7)5-4-7/h1-2,6,9H,3-5H2/t6-,7+,8-/m1/s1
