19
gdb 82858	2.57305	2.04106	1.74798	1.7655	72.34	-0.2525	0.0858	0.3384	891.7807	0.162524	-423.029175	-423.022562	-423.021618	-423.059821	27.86	
C	-0.2032905219	 1.5534330918	 0.0462226392	-0.422305
C	 0.0399278439	 0.0482927619	-0.015646223	 0.019826
C	 0.9059355799	-0.4938672667	-1.1897467181	-0.109385
C	 2.2521480027	 0.2641806169	-1.3253530214	-0.255006
C	 2.7345248218	-0.5242667069	-0.092576288	 0.078344
O	 2.1764752187	 0.0068724394	 1.1197443699	-0.279262
C	 0.856628687	-0.535867413	 1.1602979228	 0.152414
O	 1.0151954858	-1.894379625	 0.7906995699	-0.238574
C	 1.6814927231	-1.6391677271	-0.4260167114	 0.070142
H	 0.7227835177	 2.1017975861	 0.2337360456	 0.132874
H	-0.6407767819	 1.9250756306	-0.8859092982	 0.116223
H	-0.8990958275	 1.7963043245	 0.8565657816	 0.114938
H	-0.9220420468	-0.4763548158	-0.0289731768	 0.082821
H	 0.3357594101	-0.7229489827	-2.0899533428	 0.069443
H	 2.7945981981	-0.0451000374	-2.2247561322	 0.10061
H	 2.2573119288	 1.353225854	-1.259887623	 0.107868
H	 3.7927666664	-0.7341200227	 0.066425841	 0.079454
H	 0.4526293405	-0.4427644945	 2.1679374549	 0.089377
H	 1.9784209936	-2.5521572634	-0.93462653	 0.090198
175.5364	218.772	263.4365	404.8684	426.2962	527.016	586.4955	632.991	655.4646	761.1059	783.9238	813.0257	850.8566	872.2995	894.09	923.7872	953.269	970.5573	1002.407	1022.6689	1041.9547	1048.2891	1106.3738	1116.1928	1131.4829	1139.1279	1155.5935	1202.7823	1236.3138	1242.9801	1274.6145	1281.7237	1313.3595	1330.4448	1338.1507	1366.2835	1376.4425	1411.8687	1481.9205	1495.0501	1513.6582	3036.9463	3044.2007	3055.8046	3097.1969	3105.5038	3107.1744	3120.0409	3127.6206	3135.8675	3165.8494
CC1C2CC3OC1OC23	C[C@H]1[C@H]2C[C@H]3O[C@@H]1O[C@@H]23	
InChI=1S/C7H10O2/c1-3-4-2-5-6(4)9-7(3)8-5/h3-7H,2H2,1H3	InChI=1S/C7H10O2/c1-3-4-2-5-6(4)9-7(3)8-5/h3-7H,2H2,1H3/t3-,4+,5+,6-,7+/m0/s1
