20
gdb 12968	2.24007	2.17287	1.75713	1.4761	74.84	-0.236	0.0724	0.3083	919.8137	0.176349	-348.979661	-348.971165	-348.970221	-349.011783	32.801	
C	-0.1546120385	 1.5188925527	-0.114911183	-0.42041
C	 0.1228035244	 0.0186138732	-0.0766415701	-0.003035
C	 1.2885365366	-0.5810988499	-0.9291277876	-0.248503
C	 1.8328436326	-1.2813394851	 0.3213310848	-0.139815
C	 2.1779063046	-0.2788667058	 1.3649967807	 0.057622
O	 2.7766418333	 0.9354522307	 0.9945457757	-0.418963
C	 0.7217959704	-0.6225200594	 1.1922925067	 0.269721
C	-0.1126030491	-1.1876048282	 2.3088198642	-0.497257
H	 0.7626472313	 2.0922660946	 0.0356030326	 0.120269
H	-0.5800929666	 1.8107366531	-1.0818180557	 0.110329
H	-0.8752689377	 1.8078523567	 0.6592526327	 0.105081
H	-0.8005555797	-0.5199276153	-0.3202751194	 0.068061
H	 0.9414610685	-1.2722590888	-1.6996614058	 0.094587
H	 1.9698302233	 0.1444727263	-1.3809344666	 0.109853
H	 2.2233076311	-2.292667999	 0.3517667697	 0.081375
H	 2.6092031656	-0.7198715812	 2.266176574	 0.079269
H	 2.5280489254	 1.5984300055	 1.6470359484	 0.284304
H	-0.6217033372	-0.3927099974	 2.8690586763	 0.115814
H	-0.8861506371	-1.8643875893	 1.9266759884	 0.116083
H	 0.4981780689	-1.7514081433	 3.0219783238	 0.115615
153.885	180.3768	205.1572	218.5671	237.0057	273.1772	326.4233	345.4575	393.456	518.2788	580.9366	626.3988	715.0438	765.5556	836.6458	866.7564	901.2722	949.1791	979.4076	1015.0721	1021.6799	1084.2419	1093.3445	1116.9366	1125.2568	1169.6803	1183.6449	1239.7861	1246.4263	1262.447	1287.0578	1317.3511	1352.2779	1377.1904	1401.2273	1415.0999	1465.9559	1485.9554	1491.6572	1495.9618	1501.225	1510.9311	3013.2622	3024.9741	3031.0019	3063.6343	3069.0135	3079.1374	3083.7139	3090.4264	3115.5458	3127.015	3168.4426	3808.9025
CC1CC2C(O)C12C	C[C@H]1C[C@H]2[C@@H](O)[C@@]12C	
InChI=1S/C7H12O/c1-4-3-5-6(8)7(4,5)2/h4-6,8H,3H2,1-2H3	InChI=1S/C7H12O/c1-4-3-5-6(8)7(4,5)2/h4-6,8H,3H2,1-2H3/t4-,5-,6+,7-/m0/s1
