20
gdb 92019	2.8006	1.64558	1.2375	1.1968	77.61	-0.2278	0.0682	0.296	1059.432	0.172536	-403.112169	-403.10448	-403.103536	-403.144027	31.064	
C	 0.1315398219	 1.5674229424	-0.0089734136	-0.386845
C	-0.0015682618	 0.0448674647	-0.0112301307	 0.058769
C	 0.4143699124	-0.5511702084	-1.3795732717	-0.256436
C	 0.5280300413	-2.0644301764	-1.354787033	 0.019404
O	 1.8444415522	-2.5996886329	-1.1751194717	-0.252522
C	 0.9154269855	-2.7230669937	-0.0925679428	 0.047588
C	 1.129706157	-1.8935454815	 1.1417967267	-0.04301
C	 2.114308483	-0.7724195231	 1.1226495844	-0.261227
N	 0.6837873167	-0.4920707746	 1.1697805748	-0.096851
H	 1.1775841061	 1.8633450466	-0.1451366545	 0.117169
H	-0.4528482929	 2.0100031348	-0.8219649596	 0.110905
H	-0.2181200818	 1.981335052	 0.9400504114	 0.125596
H	-1.0592736064	-0.2100789145	 0.1434497687	 0.081243
H	-0.3290541474	-0.2451858772	-2.1228197292	 0.104428
H	 1.372171959	-0.1318220474	-1.7078897273	 0.117589
H	-0.076511672	-2.6204203129	-2.0701973747	 0.094401
H	 0.5859089958	-3.7444811183	 0.0920796752	 0.08979
H	 0.9548335502	-2.4263482291	 2.073742572	 0.08673
H	 2.666889295	-0.5227269196	 2.0244371281	 0.114139
H	 2.6623280662	-0.6335837708	 0.1950239774	 0.12914
108.1655	198.4151	235.8653	266.4858	325.165	399.7541	410.4806	504.0441	518.4448	574.6959	689.2273	734.5223	784.6509	806.0719	863.7655	884.2979	917.5686	927.0591	991.5471	996.546	1039.5914	1073.3835	1081.6542	1094.9297	1114.4386	1130.213	1149.1835	1163.4652	1165.7819	1238.7824	1288.7011	1304.7616	1334.6342	1365.4915	1371.8191	1390.4776	1398.998	1405.5221	1456.308	1473.293	1488.3542	1499.5896	1511.1008	3004.7855	3034.4898	3041.039	3080.5982	3102.7334	3109.8188	3110.2352	3118.9776	3122.6054	3134.2393	3197.5636
CC1CC2OC2C2CN12	C[C@H]1C[C@H]2O[C@H]2[C@H]2CN12	
InChI=1S/C7H11NO/c1-4-2-6-7(9-6)5-3-8(4)5/h4-7H,2-3H2,1H3	InChI=1S/C7H11NO/c1-4-2-6-7(9-6)5-3-8(4)5/h4-7H,2-3H2,1H3/t4-,5+,6+,7-,8?/m0/s1
