14
gdb 19630	4.94526	2.02723	1.85885	1.1823	60.01	-0.2325	0.0689	0.3015	726.0679	0.107206	-382.430988	-382.425245	-382.424301	-382.460637	23.178	
C	-0.0752606785	 1.4823558504	-0.032059868	-0.279374
O	 1.1218111263	 0.6672623919	-0.0040224242	-0.28768
C	-0.1376724913	 0.0288813281	 0.020108946	 0.532637
C	-0.495732097	-0.9928332448	 1.071491463	-0.245811
C	-1.6344033708	-1.7912842583	 0.4116004311	 0.094645
O	-1.9527506679	-1.1747535695	-0.8404818331	-0.290367
C	-0.5155378398	-1.027988072	-1.0294608759	-0.06216
C	-0.2319415141	-2.129348005	 0.0668820589	-0.132848
H	-0.2535756031	 2.0669636435	 0.8691067116	 0.119101
H	-0.2584321193	 2.0050306199	-0.96958844	 0.120299
H	-0.3133282086	-0.9730691334	 2.1373019617	 0.104246
H	-2.4080976104	-2.3199586744	 0.9523954522	 0.117078
H	-0.1928269245	-0.9836604191	-2.0669406853	 0.098115
H	 0.3757616091	-3.0209210074	 0.1145891021	 0.112119
166.4626	278.7931	327.8802	485.096	570.498	618.779	766.5647	771.5206	789.5702	810.351	875.2243	880.1534	892.3169	932.4007	977.3009	986.7864	1025.2008	1045.4891	1054.3491	1084.0561	1113.3558	1142.0605	1149.8922	1173.9375	1192.1709	1240.4649	1270.2813	1363.1574	1459.7288	1547.1924	3085.9354	3157.8064	3172.9938	3207.2314	3213.9363	3228.927
C1OC11C2C3OC1C23	C1O[C@]21[C@H]1[C@H]3O[C@@H]2[C@@H]13	
InChI=1S/C6H6O2/c1-6(7-1)3-2-4(3)8-5(2)6/h2-5H,1H2	InChI=1S/C6H6O2/c1-6(7-1)3-2-4(3)8-5(2)6/h2-5H,1H2/t2-,3+,4-,5+,6+/m0/s1
