22
gdb 9910	4.54523	0.88473	0.83846	1.7269	78.84	-0.2584	0.0875	0.3459	1485.9921	0.198303	-350.200035	-350.190266	-350.189322	-350.235102	35.268	
C	 0.2062032491	 1.4882199496	-0.2553042716	-0.38145
C	-0.0576047611	 0.0074214543	 0.0301083057	-0.16408
C	 0.7626386013	-0.5333877611	 1.2061546749	-0.160066
C	 0.4981938161	-2.0193628871	 1.4869645327	-0.263239
C	 1.378214236	-2.6019001844	 2.5799836765	 0.429793
C	 1.1920391787	-2.0601538105	 3.9816861078	-0.460977
C	 1.9415836729	-3.9496163826	 2.4044588994	-0.231463
O	 2.7512005759	-2.7906491102	 2.1916439207	-0.277728
H	 1.2614840807	 1.6628981896	-0.4924275345	 0.116088
H	-0.3889957964	 1.8448617329	-1.1018021033	 0.110587
H	-0.043422196	 2.1095138677	 0.6121406528	 0.112558
H	-1.126664376	-0.1423816496	 0.2332123465	 0.091999
H	 0.1649992733	-0.5845265219	-0.8675801821	 0.095744
H	 1.8324945087	-0.4005239845	 1.0014143292	 0.111672
H	 0.5419575256	 0.064195181	 2.1001625404	 0.092747
H	-0.5558673909	-2.1654361475	 1.7603887878	 0.093893
H	 0.6672352025	-2.5912721961	 0.5672143173	 0.098659
H	 0.1655054566	-2.2233436447	 4.3279335805	 0.118141
H	 1.8762410409	-2.5527479778	 4.6767695123	 0.125063
H	 1.3913508873	-0.98478216	 4.0183417979	 0.1292
H	 2.2010876747	-4.5464672164	 3.2787330655	 0.10631
H	 1.7030730301	-4.5249687307	 1.5102066136	 0.106551
52.3089	81.4374	124.0362	130.1623	191.6234	246.2675	272.9893	323.6544	361.1927	380.4534	445.908	508.806	729.6512	737.8305	789.815	839.2928	905.0337	908.4593	930.0145	936.151	1014.5794	1027.1389	1067.0452	1084.8572	1116.2086	1135.8973	1142.3214	1175.5039	1238.338	1276.9814	1286.0786	1322.2148	1336.1305	1362.0146	1394.3366	1407.7952	1414.0232	1425.3924	1470.2982	1486.2848	1487.5706	1498.3655	1499.2374	1500.0315	1512.5692	1532.0151	3010.3767	3013.787	3022.544	3029.7021	3036.8409	3038.853	3054.0389	3073.7151	3074.924	3096.4227	3101.1999	3103.4071	3123.1944	3157.6324
CCCCC1(C)CO1	CCCC[C@@]1(C)CO1	
InChI=1S/C7H14O/c1-3-4-5-7(2)6-8-7/h3-6H2,1-2H3	InChI=1S/C7H14O/c1-3-4-5-7(2)6-8-7/h3-6H2,1-2H3/t7-/m0/s1
