21
gdb 104815	2.06263	1.43322	1.21734	3.9273	77.61	-0.2655	0.0138	0.2793	1195.3703	0.181422	-424.263787	-424.253902	-424.252958	-424.298781	35.753	
C	 0.0058740693	 1.4758699353	 0.2951532614	-0.414522
C	-0.0285523615	-0.023948973	-0.018242578	-0.231561
C	 0.6828858264	-0.4621990958	-1.3106058105	 0.089104
C	 0.7123305439	-1.9968871636	-1.4217341168	-0.231553
C	 1.5274909664	-2.5732599361	-2.5845639314	-0.414514
C	 0.3158660586	 0.3156545174	-2.5981452124	-0.114508
O	 1.6691721043	 0.8719345027	-2.6659036913	-0.250601
C	 2.0514577183	 0.2071049425	-1.528990071	 0.458608
O	 3.116353038	 0.2295526833	-0.9981001446	-0.347289
H	 1.0341320911	 1.8371588742	 0.3928290624	 0.145093
H	-0.4908390014	 2.0759074322	-0.4737667663	 0.120335
H	-0.506743218	 1.6736215418	 1.2409485726	 0.120242
H	 0.4357644086	-0.5687837703	 0.8119545933	 0.11828
H	-1.0683597166	-0.3724456169	-0.0684542189	 0.103224
H	 1.1170158955	-2.3856962092	-0.4800788858	 0.118251
H	-0.3246183088	-2.3528375107	-1.4784024885	 0.103234
H	 1.1412677263	-2.2636400658	-3.5607693701	 0.120347
H	 2.5761524898	-2.2665992543	-2.5241583347	 0.145106
H	 1.4991358211	-3.6663606673	-2.5574380918	 0.120229
H	 0.1024103564	-0.2830656544	-3.4851821444	 0.121243
H	-0.4216996677	 1.1129508881	-2.492444463	 0.121251
80.6186	88.7742	108.8759	148.6311	173.1857	218.128	263.66	293.4677	344.7241	387.8891	465.2101	531.8166	645.0353	726.1517	753.2826	787.2522	806.6338	896.0876	910.9175	959.4002	983.2813	1000.5649	1058.2225	1079.9018	1095.6852	1113.0456	1155.6577	1189.9413	1197.5899	1247.4944	1293.0225	1336.4728	1348.4347	1359.5183	1396.5935	1417.809	1422.4286	1472.5669	1487.4057	1497.4665	1502.2774	1505.363	1505.6404	1530.5464	1924.355	3020.6419	3026.8284	3042.1783	3042.7597	3059.0061	3066.6106	3079.5211	3108.532	3109.9867	3115.3974	3116.1247	3136.528
CCC1(CC)COC1=O	CCC1(CC)COC1=O	
InChI=1S/C7H12O2/c1-3-7(4-2)5-9-6(7)8/h3-5H2,1-2H3	InChI=1S/C7H12O2/c1-3-7(4-2)5-9-6(7)8/h3-5H2,1-2H3
