20
gdb 109964	2.01021	1.44663	0.93164	1.3393	79.29	-0.2418	0.0214	0.2632	1325.506	0.16861	-440.272352	-440.26212	-440.261175	-440.308095	35.528	
C	-0.3001620866	 1.3861154647	-0.235673056	-0.2474
O	 0.3029970431	 0.1302174904	 0.0369278895	-0.239438
C	 0.8197845819	-0.4870900313	-1.1034754014	-0.044926
C	 1.3610789389	-1.9194965128	-0.8621933024	 0.098688
C	 1.1611536215	-2.5256438992	 0.5075299892	-0.393208
O	 0.4011495051	-2.4402028418	-1.8494244415	-0.282222
C	-0.1595028728	-1.1884093291	-2.0369274542	 0.447104
N	-1.1381196658	-0.8222401191	-2.7255902467	-0.338752
C	-1.8845555524	-1.8181106368	-3.4842994945	-0.340463
H	 0.4330694667	 2.0945797652	-0.6509612669	 0.105985
H	-1.1318410307	 1.2845313669	-0.9420914797	 0.14736
H	-0.6686873269	 1.7719193478	 0.7171320146	 0.127425
H	 1.5196390804	 0.1759452035	-1.6341762243	 0.088771
H	 2.377128389	-2.0806029852	-1.2342554687	 0.093052
H	 0.1511240451	-2.3340937899	 0.8744018341	 0.139249
H	 1.3312951684	-3.6053350092	 0.4671191987	 0.126474
H	 1.871185614	-2.0880667017	 1.2159202033	 0.129345
H	-1.5624201689	-2.8503023243	-3.3050100605	 0.127687
H	-2.9478160543	-1.7303826768	-3.2371016826	 0.127026
H	-1.786370726	-1.6015991111	-4.5540963501	 0.128242
75.0916	90.3058	98.4416	141.2939	169.3849	188.6958	212.2288	224.4117	294.686	374.6408	411.5458	480.5204	565.963	687.2739	751.0154	836.7821	896.1169	905.7703	1011.1741	1031.5403	1064.1787	1079.082	1124.8253	1130.396	1147.8616	1176.4236	1184.8215	1194.784	1240.8076	1259.4328	1317.2028	1376.5169	1384.1225	1412.3814	1438.9821	1479.8385	1483.4936	1484.9033	1489.91	1494.3043	1497.421	1513.9775	1838.2957	2987.0717	2992.8664	3018.3483	3049.2415	3068.5655	3069.68	3082.9184	3090.8453	3118.8934	3128.4484	3143.3208
COC1C(C)OC1=NC	CO[C@H]1[C@@H](C)OC1=NC	
InChI=1S/C6H11NO2/c1-4-5(8-3)6(7-2)9-4/h4-5H,1-3H3	InChI=1S/C6H11NO2/c1-4-5(8-3)6(7-2)9-4/h4-5H,1-3H3/t4-,5+/m1/s1
