16
gdb 15922	3.4749	1.91772	1.54313	4.9084	68.87	-0.2423	0.0104	0.2527	855.2482	0.132418	-342.759053	-342.752082	-342.751138	-342.790339	26.484	
N	-0.025016257	-1.1368234925	-0.4548082505	-0.344675
C	 0.0022710589	-0.0091911209	-0.1995664099	 0.237475
C	 0.0463722334	 1.4167967359	 0.0823654921	 0.209951
C	-0.5268980579	 2.3575743901	-1.034326023	-0.277844
C	 0.8247529968	 3.1303569272	-1.0812201916	-0.222418
C	 1.362735119	 2.288044809	 0.0969852598	-0.081733
C	 0.9009175868	 2.7708042568	 1.4949133858	-0.171065
N	-0.2102605476	 1.7843254327	 1.4821052106	-0.350514
H	-0.7861002832	 1.8433970229	-1.9614282062	 0.129073
H	-1.3966009021	 2.9286754491	-0.698986937	 0.107909
H	 1.3704808571	 2.9534352935	-2.0104145985	 0.118569
H	 0.7805554424	 4.208741805	-0.907978741	 0.10686
H	 2.3571663558	 1.8528593211	 0.021103029	 0.097706
H	 1.6018993833	 2.5959791191	 2.3172943553	 0.117915
H	 0.5998952693	 3.826269786	 1.5148231196	 0.099505
H	-1.141725625	 2.1356232151	 1.6787603455	 0.223286
92.0662	157.5448	189.1973	339.2984	365.1944	510.1819	555.6884	573.914	604.3161	740.4545	770.4391	826.8698	897.9497	914.5333	958.28	969.8762	1002.7693	1023.5796	1053.0158	1110.1325	1139.1591	1144.8023	1188.8995	1223.8569	1246.2761	1273.2596	1282.7565	1315.9854	1330.9285	1376.2279	1473.5053	1490.7116	1523.2368	2348.6351	3014.4711	3062.3076	3066.1831	3068.3737	3109.6825	3129.8208	3137.4621	3522.7771
N#CC12CCC1CN2	N#C[C@]12CC[C@H]1CN2	
InChI=1S/C6H8N2/c7-4-6-2-1-5(6)3-8-6/h5,8H,1-3H2	InChI=1S/C6H8N2/c7-4-6-2-1-5(6)3-8-6/h5,8H,1-3H2/t5-,6+/m0/s1
