17
gdb 10034	3.46671	1.39404	1.12366	1.5324	72.23	-0.2499	0.0072	0.257	1093.4347	0.138513	-363.816396	-363.806705	-363.805761	-363.851285	33.244	
C	 1.4750988526	 0.2740039953	-0.3135544594	-0.254234
O	 0.2570268746	-0.1111968963	 0.3273636484	-0.258518
C	 0.2714243314	-0.1670866231	 1.7025559742	 0.375239
C	 0.1862013118	-1.5885528281	 2.2286880089	-0.395017
C	 1.3064439109	-2.4268274162	 1.8100769528	 0.30886
C	 2.2324807733	-3.1167745731	 1.4770463201	-0.46454
N	 0.2555086007	 0.8110451746	 2.4982744863	-0.255546
C	 0.2180364379	 2.1715040737	 1.9913789133	-0.332415
H	 2.2694127126	-0.4457538146	-0.0909179727	 0.138114
H	 1.2687184883	 0.2684633601	-1.3855056456	 0.135425
H	 1.7965861896	 1.2774645255	-0.0151133889	 0.120529
H	 0.1212604019	-1.5429286767	 3.3186425011	 0.153771
H	-0.7495113188	-2.0277780057	 1.8568634009	 0.149402
H	 3.0461615005	-3.7341095125	 1.1866568563	 0.199503
H	 1.2127646379	 2.626669237	 2.0731464831	 0.129505
H	-0.1227639066	 2.2504064364	 0.9520950906	 0.121523
H	-0.4500032686	 2.7594665237	 2.6283977107	 0.128401
50.948	86.1587	112.735	137.3378	186.7381	249.5076	263.9234	295.2932	339.1589	355.3818	440.7439	611.2345	622.8773	646.3172	721.5127	816.5392	924.0521	958.5396	1047.1079	1065.3541	1126.1424	1152.154	1177.302	1202.5582	1214.6901	1243.3122	1322.2485	1431.3284	1450.2281	1476.0019	1488.0362	1493.7443	1500.5807	1512.0542	1762.7858	2238.4072	3012.3837	3024.1887	3030.6862	3075.2903	3091.2647	3100.5481	3102.4898	3135.0248	3505.1134
COC(CC#C)=NC	COC(=NC)CC#C	
InChI=1S/C6H9NO/c1-4-5-6(7-2)8-3/h1H,5H2,2-3H3	InChI=1S/C6H9NO/c1-4-5-6(7-2)8-3/h1H,5H2,2-3H3
