25
gdb 59781	2.95227	1.05874	0.82937	1.3483	88.95	-0.2402	0.0824	0.3226	1483.12	0.230044	-389.51103	-389.501327	-389.500383	-389.545582	37.493	
C	 0.0559544804	 1.5543391352	 0.0281049729	-0.395075
C	 0.0115402046	 0.0178034186	 0.0376910792	 0.032991
C	 0.8013930689	-0.508097224	 1.2484497133	-0.399967
C	-1.4385300122	-0.5237456175	-0.0010991645	 0.033836
C	-2.2363613684	-0.0189981514	-1.2200713084	-0.21553
C	-3.6231829088	-0.6727243452	-1.2942201713	-0.211963
C	-3.4976235268	-2.1920954996	-1.2046287937	-0.064269
O	-2.7983348166	-2.5801360657	-0.0362949513	-0.246932
C	-1.4798977708	-2.0628781742	 0.0049057088	-0.089919
H	 1.0904819183	 1.9080762049	 0.0863995145	 0.108909
H	-0.3847149917	 1.9799145868	-0.876803593	 0.115232
H	-0.4825609782	 1.9669194011	 0.8900565362	 0.111332
H	 0.5187485179	-0.3361793794	-0.872807394	 0.068932
H	 0.2979122151	-0.2488421108	 2.1877414406	 0.113249
H	 0.9314733708	-1.5932591919	 1.2274650411	 0.117309
H	 1.8006364537	-0.0614550839	 1.2770370188	 0.109332
H	-1.9537890008	-0.1843343586	 0.9104221492	 0.070588
H	-2.341389687	 1.0692862889	-1.1925020109	 0.097111
H	-1.6739067925	-0.2569039986	-2.1353630793	 0.089762
H	-4.2445805833	-0.3217675744	-0.4610542195	 0.101841
H	-4.1349867338	-0.3927825552	-2.2224616221	 0.090562
H	-4.4780687753	-2.674751053	-1.1492330689	 0.101703
H	-2.9807319758	-2.5797882451	-2.1011247496	 0.078805
H	-0.8963131762	-2.4464757466	-0.8529864071	 0.076977
H	-1.0384893414	-2.4697661204	 0.917020899	 0.105182
48.8759	112.3632	179.7674	222.6027	234.8247	238.7622	314.3867	337.0937	394.5648	400.4184	444.5893	453.4643	494.889	571.1654	804.0733	853.9683	861.4354	881.3686	922.9683	926.1359	953.6628	964.0073	970.8286	1005.2755	1047.1682	1086.0975	1118.5414	1123.4986	1163.8959	1187.9371	1189.3705	1209.798	1244.2305	1281.0456	1306.0978	1323.9825	1342.3574	1350.8427	1366.9678	1374.2709	1379.5148	1400.3185	1402.3106	1420.492	1422.5586	1478.3179	1485.784	1488.9859	1490.8933	1496.51	1503.0612	1507.6915	1514.9358	2931.6522	2945.7315	2984.0263	2994.1518	3007.1692	3026.2932	3026.9361	3031.1002	3069.5095	3076.2901	3080.4606	3089.2289	3094.4666	3095.8628	3112.2905	3113.3939
CC(C)C1CCCOC1	CC(C)[C@H]1CCCOC1	
InChI=1S/C8H16O/c1-7(2)8-4-3-5-9-6-8/h7-8H,3-6H2,1-2H3	InChI=1S/C8H16O/c1-7(2)8-4-3-5-9-6-8/h7-8H,3-6H2,1-2H3/t8-/m0/s1
