17
gdb 48111	3.2458	1.25508	1.00507	1.4633	72.61	-0.2416	-0.0928	0.1488	1168.4167	0.134743	-421.809328	-421.801032	-421.800088	-421.843251	30.194	
O	-0.8480100989	 1.5994183005	 0.5351425489	-0.221127
C	 0.0899153217	 1.0952970188	-0.0250510621	 0.090987
C	 1.3236675343	 1.8815248837	-0.4984345299	 0.274611
O	 2.1918965618	 1.2676692994	-1.0761707987	-0.281769
C	 1.3389010538	 3.3543931618	-0.1889846772	-0.100737
C	 1.5778632036	 3.780496969	 1.3157527872	-0.251756
C	 2.7559251413	 4.6424395604	 0.8461699445	-0.038848
C	 3.7791071277	 3.7896009162	 0.156451141	-0.270924
C	 2.547318206	 4.1930206327	-0.6046120203	-0.062661
H	 0.1532980672	 0.0117119906	-0.2628298047	 0.106082
H	 0.3870440337	 3.7778817817	-0.5211472742	 0.110892
H	 0.7315738576	 4.3435635081	 1.7095659847	 0.122593
H	 1.824738387	 2.9792460351	 2.0195517837	 0.104438
H	 2.9844011184	 5.6317033874	 1.2218996327	 0.091907
H	 4.6843208476	 4.3058045972	-0.146343986	 0.115053
H	 3.9366942787	 2.7561363719	 0.4505518976	 0.118425
H	 2.6040574685	 4.7753666154	-1.515400737	 0.092834
38.8926	121.335	133.8211	153.3493	240.9457	321.3853	408.7998	518.6066	549.9342	623.2524	692.005	779.9273	785.1114	807.8886	906.5169	940.4602	950.0505	994.177	1005.1445	1024.2753	1038.1525	1062.3633	1084.5658	1090.1392	1132.3018	1173.6226	1204.1058	1216.6663	1256.2627	1300.3499	1355.0481	1362.5623	1375.7452	1485.8389	1502.3602	1797.1257	1821.6525	2917.7479	3053.2195	3075.2016	3123.5179	3130.138	3186.3543	3194.1434	3210.3097
O=CC(=O)C1CC2CC12	O=CC(=O)[C@H]1C[C@H]2C[C@@H]12	
InChI=1S/C7H8O2/c8-3-7(9)6-2-4-1-5(4)6/h3-6H,1-2H2	InChI=1S/C7H8O2/c8-3-7(9)6-2-4-1-5(4)6/h3-6H,1-2H2/t4-,5-,6+/m1/s1
