17
gdb 17386	4.77069	1.7015	1.57737	2.6014	67.16	-0.2411	0.0652	0.3063	852.0272	0.143062	-363.787682	-363.780887	-363.779943	-363.818902	26.033	
C	 0.0321014805	 1.4240226852	 0.0723075693	-0.239242
C	 1.2821690961	 0.6640590438	-0.1003754003	-0.013075
C	 1.7693974572	 0.1007443462	 1.2298342633	-0.338019
C	 0.3664875752	-0.5384325779	 1.3645370432	 0.303723
C	 0.1837918936	-2.0413966099	 1.6225308612	-0.132587
O	-0.663410009	-1.7901012469	 2.7635177489	-0.275593
C	-0.5791386123	-0.3651118875	 2.5671226746	-0.121862
N	-0.0579445621	-0.0502497662	 0.0081136247	-0.162592
H	-0.1746174847	 1.9292567078	 1.0142443573	 0.114689
H	-0.3939179974	 1.907390452	-0.8011707483	 0.1251
H	 1.8439925904	 0.6704852112	-1.0283689774	 0.099003
H	 2.5533548835	-0.6527987907	 1.1239726731	 0.115829
H	 2.0783432566	 0.8269275999	 1.9885073392	 0.106107
H	-0.3427766079	-2.5658106738	 0.8162669232	 0.114282
H	 1.0902086191	-2.5963976339	 1.8967456745	 0.097402
H	-0.1591003127	 0.1469185306	 3.4424371318	 0.099948
H	-1.5511812659	 0.07962382	 2.3163376317	 0.106888
71.9897	156.7032	234.7085	350.8192	393.5835	456.5912	520.8597	758.3683	764.3961	819.3133	843.9012	857.0751	908.2636	949.7727	961.0041	988.5305	1010.2951	1038.299	1057.9132	1105.482	1115.8794	1135.584	1154.2025	1158.5516	1196.3444	1206.9682	1223.1451	1262.8466	1280.9858	1306.1117	1366.0712	1383.1064	1483.6994	1496.3111	1503.8849	1522.7154	3001.1954	3014.5789	3047.4678	3051.1164	3064.3859	3100.4642	3107.0661	3168.1241	3198.1099
C1C2CC3(COC3)N12	C1[C@H]2CC3(COC3)N12	
InChI=1S/C6H9NO/c1-5-2-7(5)6(1)3-8-4-6/h5H,1-4H2	InChI=1S/C6H9NO/c1-5-2-7(5)6(1)3-8-4-6/h5H,1-4H2/t5-,7?/m1/s1
