13
gdb 29262	3.24227	1.44079	0.99752	1.8868	64.81	-0.237	-0.0355	0.2015	1072.2749	0.090482	-489.93369	-489.926271	-489.925327	-489.965711	27.972	
O	-0.0891262681	 1.3524231157	 0.2112500734	-0.407369
C	-0.0012530259	 0.0129822097	 0.0371309129	 0.249723
C	 1.1392042679	-0.6784790847	-0.0916346546	-0.058154
O	 1.2037135524	-2.0389408679	-0.2676295127	-0.215311
C	 0.0671868313	-2.7909297129	-0.3235803538	 0.486905
O	 0.1214044602	-3.9786216738	-0.4757503313	-0.368634
N	-1.1084877967	-2.0806841905	-0.1904148499	-0.456055
C	-1.2828798978	-0.6997279268	-0.0080445337	 0.357538
N	-2.396674984	-0.0962749328	 0.1088085067	-0.513129
H	 0.7960816065	 1.7334316213	 0.2278709065	 0.304103
H	 2.128743285	-0.2397235384	-0.0707505938	 0.13409
H	-1.9347373378	-2.6600546551	-0.2344864236	 0.270083
H	-3.187597883	-0.7401030038	 0.0549779141	 0.216209
104.9278	132.2534	307.657	324.384	350.2136	388.9713	402.9203	454.1131	546.6045	611.5393	626.737	746.0581	748.7359	758.5691	811.7711	837.7439	857.9049	920.5011	1103.3172	1171.9895	1210.677	1256.2281	1314.5682	1387.2506	1422.9947	1486.6362	1704.4905	1741.0714	1873.4962	3215.2083	3466.6444	3618.2153	3812.5117
OC1=COC(=O)NC1=N	OC1=C(NC(=O)O[CH]1)[NH]	
InChI=1S/C4H4N2O3/c5-3-2(7)1-9-4(8)6-3/h1,7H,(H2,5,6,8)	InChI=1S/C4H4N2O3/c5-3-2(7)1-9-4(8)6-3/h1,7H,(H2,5,6,8)
