16
gdb 13946	3.44906	1.8553	1.49213	3.5408	60.42	-0.2459	0.0548	0.3006	867.5243	0.129633	-420.823407	-420.815794	-420.81485	-420.855804	27.475	
O	 0.1094531312	 1.2923285386	-0.3044668713	-0.421359
C	 0.1102613754	-0.053982907	 0.0933038426	-0.009412
C	-0.0183039991	-0.3744527527	 1.6000882851	-0.110152
O	-1.2205005415	-1.1379616594	 1.3549187682	-0.306355
C	-1.2695364564	-0.7296006307	-0.0180855194	 0.355605
C	-2.5004730092	 0.0384145796	-0.5328566679	-0.128476
O	-2.6851914594	-0.9150397733	-1.6034546087	-0.275452
C	-1.6461519943	-1.7675830949	-1.084376349	-0.133102
H	 1.0146664873	 1.6173484097	-0.3075395481	 0.293439
H	 0.9018521449	-0.6267217932	-0.4067802246	 0.082878
H	 0.7675731915	-0.9831071842	 2.0606384212	 0.103837
H	-0.2103899841	 0.516119393	 2.2109566441	 0.106981
H	-3.3324416293	 0.0328674315	 0.1827146643	 0.106855
H	-2.32170919	 1.0521842494	-0.9028109794	 0.124265
H	-0.8833659149	-2.0036102716	-1.8372030175	 0.100354
H	-2.0381427521	-2.698033675	-0.6527746895	 0.110094
75.021	90.6402	205.1858	229.0167	270.5732	369.8792	419.6339	508.9129	531.8632	766.8405	821.7667	890.7864	902.2075	930.2223	989.7511	1015.8082	1028.1656	1045.6219	1094.508	1147.3546	1149.2838	1153.0377	1173.0766	1199.8879	1232.7971	1243.8258	1295.1843	1311.2748	1333.6811	1378.1388	1442.4214	1492.3374	1514.8827	1519.8005	3005.4072	3017.5132	3021.6542	3025.5415	3056.0763	3077.4176	3094.3024	3830.8901
OC1COC11COC1	O[C@H]1COC21COC2	
InChI=1S/C5H8O3/c6-4-1-8-5(4)2-7-3-5/h4,6H,1-3H2	InChI=1S/C5H8O3/c6-4-1-8-5(4)2-7-3-5/h4,6H,1-3H2/t4-/m0/s1
