19
gdb 112437	2.42849	1.34484	0.95895	5.3258	71.58	-0.285	0.0441	0.3291	1262.0682	0.158996	-460.230948	-460.222014	-460.22107	-460.264941	32.711	
C	 0.0578638414	 1.6737961542	-0.0149809796	-0.390146
C	-0.1675930672	 0.1603076505	-0.0868675488	-0.205461
C	 0.6913715153	-0.508660948	-1.147836739	 0.107669
O	 2.0879915987	-0.3572547617	-0.8271867465	-0.259553
C	 2.7736366846	-1.4420925096	-1.2686620642	 0.488117
O	 3.9590058412	-1.538335543	-1.2854945044	-0.374983
O	 1.9109923264	-2.4035752811	-1.6873992852	-0.252688
C	 0.5626990972	-2.0380447126	-1.3309707369	 0.078548
C	 0.1270584446	-2.8442432468	-0.1150911633	-0.406591
H	 1.0998634446	 1.8995368608	 0.225557903	 0.146479
H	-0.1795317207	 2.1555071247	-0.9696159444	 0.119339
H	-0.5760144583	 2.1235754454	 0.7541252034	 0.119672
H	 0.0399811542	-0.2959860103	 0.8864011661	 0.116264
H	-1.2183174173	-0.0520605968	-0.3218111569	 0.107207
H	 0.5267450511	-0.0149097578	-2.1156362056	 0.096281
H	-0.0711726847	-2.2739793647	-2.1896346292	 0.105067
H	 0.7541542392	-2.6236849646	 0.753441926	 0.138293
H	-0.9142918636	-2.6296170999	 0.1414443973	 0.126393
H	 0.2140186534	-3.9107628789	-0.3368175017	 0.140094
88.8733	103.5533	134.3995	169.6041	229.2046	263.6555	295.3615	385.1527	422.8852	473.0195	558.8604	690.3883	729.2561	779.4212	791.2762	822.0614	919.1284	928.8616	975.9892	1015.2254	1041.7507	1069.8334	1104.314	1127.9657	1147.8331	1173.3698	1189.8881	1294.8947	1323.3869	1343.3406	1383.758	1392.0978	1410.8416	1414.0349	1422.9779	1473.0675	1491.5259	1496.879	1498.8844	1508.0891	1924.1047	3008.0536	3032.3455	3042.0878	3048.165	3077.7903	3080.5396	3111.2495	3124.4059	3127.7982	3129.5713
CCC1OC(=O)OC1C	CC[C@H]1OC(=O)O[C@H]1C	
InChI=1S/C6H10O3/c1-3-5-4(2)8-6(7)9-5/h4-5H,3H2,1-2H3	InChI=1S/C6H10O3/c1-3-5-4(2)8-6(7)9-5/h4-5H,3H2,1-2H3/t4-,5+/m0/s1
