19
gdb 53565	4.54692	0.74181	0.71185	1.9068	84.3	-0.233	0.0577	0.2907	1649.5995	0.15796	-385.791353	-385.782299	-385.781354	-385.827272	32.611	
C	-0.0568228009	 1.438950965	 0.2044361672	-0.49604
C	-0.014007019	-0.014456007	 0.2842521156	 0.064205
C	 0.0321471784	-1.2156011195	 0.3550248432	 0.06786
C	 0.048797638	-2.6743574874	 0.4276614152	-0.411289
C	-1.3232036298	-3.2795507839	 0.1155065249	 0.058322
C	-1.9084014557	-3.3670900245	-1.3214803339	 0.051237
C	-0.9301636811	-4.5109042866	-1.6813473325	-0.231158
C	-1.5291615384	-4.7714474779	-0.277698223	 0.019513
O	-2.8557310314	-4.392019831	-0.8169147038	-0.310057
H	 0.4673912815	 1.8059621745	-0.6849722087	 0.146404
H	-1.0884394193	 1.804693652	 0.1539249226	 0.147765
H	 0.4141612148	 1.9003920709	 1.0795182062	 0.147373
H	 0.8185962258	-3.067533505	-0.245687557	 0.125845
H	 0.3453276605	-2.9897455978	 1.437371436	 0.129908
H	-2.0756994201	-2.941554742	 0.83137075	 0.093108
H	-2.3132592208	-2.5748083564	-1.9509207709	 0.096315
H	-1.2898437967	-5.1863379796	-2.4580376268	 0.110478
H	 0.1351851574	-4.2929137753	-1.7783269166	 0.097822
H	-1.4786155132	-5.6662308984	 0.3441417223	 0.092388
24.4329	44.95	75.9598	199.7312	227.6554	306.3759	325.4504	380.5352	448.5175	551.3279	624.8198	727.3022	757.2982	788.2269	835.7953	877.3536	913.2313	929.9016	978.3237	1011.0388	1052.4019	1053.3381	1066.6028	1085.227	1095.9931	1156.7179	1166.9241	1170.5521	1201.9923	1208.7159	1231.5692	1262.7248	1287.8207	1324.3174	1395.3606	1415.7875	1470.1239	1479.2264	1479.5113	1499.7538	2373.6759	3016.5272	3026.2626	3055.3603	3076.1928	3086.2814	3086.5409	3096.8462	3110.7121	3124.2595	3150.809
CC#CCC1C2CC1O2	CC#CC[C@H]1[C@H]2C[C@@H]1O2	
InChI=1S/C8H10O/c1-2-3-4-6-7-5-8(6)9-7/h6-8H,4-5H2,1H3	InChI=1S/C8H10O/c1-2-3-4-6-7-5-8(6)9-7/h6-8H,4-5H2,1H3/t6-,7+,8-
