23
gdb 59579	3.01409	1.15549	0.97585	1.4483	84.94	-0.2502	0.0683	0.3185	1318.4359	0.20583	-388.264441	-388.255134	-388.25419	-388.298995	35.786	
C	 0.016885112	 1.5306401661	-0.0730149952	-0.403213
C	 0.0044424699	 0.0024789887	-0.0013665293	 0.122184
O	 0.7863736023	-0.4750141309	 1.0935845553	-0.434685
C	-1.4096920739	-0.5642457324	 0.0520564302	 0.025325
C	-2.319166614	-0.4798003322	-1.2145038963	-0.270192
C	-2.7091835319	-1.9764338959	-1.0364801522	-0.007872
C	-1.9078280716	-2.9634829181	-1.9173693394	-0.221219
C	-0.7635046488	-2.9746964628	-0.8575757891	-0.227088
C	-1.6275502193	-2.1008461974	 0.0988292721	-0.03626
H	 1.0448129577	 1.9019885297	-0.1051872193	 0.121462
H	-0.5118418038	 1.8918754125	-0.9612329159	 0.119283
H	-0.4761444619	 1.9635858775	 0.8067854165	 0.102749
H	 0.5169129229	-0.3915427831	-0.8874945538	 0.083633
H	 0.369436026	-0.1625669068	 1.9044050086	 0.273438
H	-1.927731929	-0.1069945178	 0.9069327844	 0.054514
H	-3.1420420846	 0.2355965608	-1.1477979571	 0.098077
H	-1.7750485269	-0.2799796434	-2.1446194815	 0.092689
H	-3.769795632	-2.1774459939	-0.8787669549	 0.058603
H	-2.3953318595	-3.9372838681	-2.0170159351	 0.096741
H	-1.6508140205	-2.6092283726	-2.920851435	 0.090506
H	-0.5365945392	-3.9656371944	-0.4582162867	 0.101048
H	 0.1807623729	-2.5271067881	-1.1753577555	 0.104143
H	-1.832169667	-2.5371660572	 1.0772676591	 0.056135
42.8358	76.7275	150.8664	224.1958	249.4943	269.952	323.5879	351.6883	376.3791	467.0904	525.8499	636.4135	732.4548	742.7727	767.5392	841.3539	883.571	887.4831	901.84	945.1966	955.0827	988.2125	1013.9747	1042.784	1049.9272	1069.6266	1092.6629	1119.0582	1141.8751	1160.9078	1197.4726	1205.6314	1230.0821	1244.2619	1260.961	1273.0271	1279.7823	1294.2418	1305.2333	1328.354	1334.5451	1396.2486	1401.2155	1418.3807	1476.6996	1482.8968	1490.8262	1494.5924	1499.5489	2996.7947	3022.1618	3036.1794	3039.9977	3043.2694	3069.4304	3081.8977	3090.8365	3092.1649	3094.048	3104.3843	3116.5519	3119.6003	3796.1084
CC(O)C1CC2CCC12	C[C@@H](O)[C@H]1C[C@H]2CC[C@@H]12	
InChI=1S/C8H14O/c1-5(9)8-4-6-2-3-7(6)8/h5-9H,2-4H2,1H3	InChI=1S/C8H14O/c1-5(9)8-4-6-2-3-7(6)8/h5-9H,2-4H2,1H3/t5-,6-,7-,8-/m1/s1
