19
gdb 49235	3.39399	1.20434	0.98654	3.4587	83.51	-0.2471	-0.0488	0.1983	1215.9166	0.160799	-385.914985	-385.907147	-385.906203	-385.94753	30.47	
O	 0.0650545822	-0.0200180957	 0.4327193411	-0.276158
C	 0.1985965531	 1.1806513757	 0.5129128045	 0.089373
C	 1.3077628366	 1.9420454647	-0.0887860241	 0.218069
C	 1.3336916328	 3.272365954	 0.0843674567	-0.13672
C	 2.3865638226	 4.1801951259	-0.4743282076	-0.279676
C	 3.6520100471	 3.4570583681	-0.9036240993	-0.028043
C	 4.3653671663	 2.5539188441	 0.0739785849	-0.288233
C	 3.6274967491	 1.9589650526	-1.100151046	-0.024254
C	 2.3393329493	 1.1847237243	-0.882703943	-0.321773
H	-0.5370051891	 1.8053985699	 1.069625696	 0.064102
H	 0.5320951784	 3.7386736668	 0.6557325347	 0.098454
H	 1.9555843039	 4.7118658089	-1.3370453252	 0.124537
H	 2.6184905774	 4.966469482	 0.2575562756	 0.11601
H	 4.282751015	 4.028497512	-1.5776211105	 0.084133
H	 5.4494631446	 2.5381033429	 0.0660024074	 0.1113
H	 3.9239899532	 2.432050441	 1.0584110882	 0.114481
H	 4.2472915876	 1.5683208306	-1.9014869401	 0.084906
H	 2.5314463278	 0.2238214102	-0.391056653	 0.128469
H	 1.901787292	 0.9237481419	-1.85636485	 0.121024
75.7593	136.2838	213.0255	287.7265	316.7987	336.9286	429.5587	449.6478	549.6347	613.7503	717.6669	771.6821	795.9743	818.6891	849.0646	861.7173	938.9363	979.4089	987.5089	1035.7427	1046.8819	1058.2332	1068.4911	1111.0849	1128.0729	1138.0539	1187.6092	1226.1074	1234.8536	1242.2366	1315.4496	1358.8251	1377.7089	1405.1515	1417.8892	1432.9953	1465.4188	1478.3648	1494.1465	1706.1777	1789.1146	2867.5184	2991.3812	3016.0147	3020.9853	3056.3434	3128.8353	3138.173	3145.171	3155.0805	3214.6331
O=CC1=CCC2CC2C1	O=CC1=CC[C@H]2C[C@H]2C1	
InChI=1S/C8H10O/c9-5-6-1-2-7-4-8(7)3-6/h1,5,7-8H,2-4H2	InChI=1S/C8H10O/c9-5-6-1-2-7-4-8(7)3-6/h1,5,7-8H,2-4H2/t7-,8+/m0/s1
