20
gdb 68357	2.77214	1.72255	1.29719	2.5344	79.2	-0.2393	0.0292	0.2685	1030.5541	0.172818	-403.148182	-403.14024	-403.139295	-403.180537	31.314	
C	-0.0126634379	 1.572924667	 0.0145224293	-0.464877
C	 0.0538054956	 0.0510452092	-0.0809402094	 0.269632
C	 1.2302739152	-0.5616576297	-0.8957282406	-0.265874
C	 1.3444641461	-1.6684796481	 0.1937635821	 0.018644
C	 0.5816721589	-0.7193494657	 1.1645371327	-0.265885
N	 0.6213777907	-2.8777937864	-0.1264540244	-0.262386
C	-0.582531679	-2.8672352352	-0.5046261082	 0.129695
O	-1.4933625482	-1.8831086563	-0.715961674	-0.251462
C	-1.3020641726	-0.4678851012	-0.5474770846	-0.084673
H	 0.9486883151	 1.9748986019	 0.3482878719	 0.118916
H	-0.2449329292	 2.0282598332	-0.9551703807	 0.118253
H	-0.776163091	 1.8994191237	 0.7301010937	 0.118244
H	 1.0316630762	-0.89888719	-1.916574854	 0.103803
H	 2.1015301254	 0.0999506155	-0.8991362442	 0.096519
H	 2.3577133253	-1.945164393	 0.4915730721	 0.074089
H	 1.2658283637	-0.1032369256	 1.7554329792	 0.096519
H	-0.1483036532	-1.1857801318	 1.8315271412	 0.103806
H	-1.0770748802	-3.8111812074	-0.732563419	 0.120544
H	-2.0751404123	-0.1522220572	 0.1642538115	 0.113248
H	-1.5446690286	-0.0233224029	-1.5207999945	 0.113244
65.2186	195.2224	237.9109	254.4009	342.8013	349.1028	369.6533	390.4898	527.9237	576.813	623.6156	789.5755	827.5982	852.3533	868.4279	876.082	922.064	936.7076	949.7628	973.9538	992.6843	1023.9452	1027.2978	1097.5489	1147.2873	1166.3701	1197.1596	1209.6767	1217.0069	1271.5363	1288.3811	1312.6672	1312.6752	1368.3904	1410.2089	1424.588	1434.6262	1468.5154	1487.74	1497.4169	1498.6898	1503.4787	1739.7419	3016.4106	3025.7852	3047.6488	3052.8538	3056.3097	3079.805	3088.6943	3102.3331	3107.4874	3109.9428	3143.5436
CC12CC(C1)N=COC2	C[C@@]12C[C@@H](C1)N=COC2	
InChI=1S/C7H11NO/c1-7-2-6(3-7)8-5-9-4-7/h5-6H,2-4H2,1H3	InChI=1S/C7H11NO/c1-7-2-6(3-7)8-5-9-4-7/h5-6H,2-4H2,1H3/t6-,7+
