19
gdb 50561	4.38258	0.99744	0.90035	3.7661	77.43	-0.239	0.0249	0.2638	1303.059	0.161311	-419.214832	-419.206523	-419.205579	-419.248576	30.89	
O	 0.1142344936	 0.2766275317	 1.0901252954	-0.342668
C	 0.0880720552	 1.3327731256	 0.4888290435	 0.141132
N	 1.1806021929	 1.9626053432	-0.0032867938	-0.053347
C	 2.5283931857	 1.4065728284	 0.1653271867	-0.150969
C	 3.3956515319	 2.2863497548	-0.7486925308	-0.327238
C	 2.6452704669	 3.6109815971	-0.7616667525	 0.343498
C	 3.183624773	 4.8237316342	-0.0969407921	-0.285524
N	 3.040380319	 4.7593364455	-1.5672114231	-0.367515
C	 1.1683205647	 3.2386945055	-0.7190401945	-0.220785
H	-0.8480344413	 1.890231891	 0.2821325961	 0.068686
H	 2.8402655154	 1.4800420386	 1.2144532875	 0.121194
H	 2.5374722358	 0.3476141152	-0.1035630549	 0.132641
H	 4.4253768491	 2.3775490664	-0.3950744147	 0.110265
H	 3.4208248082	 1.8672164506	-1.7622323002	 0.116055
H	 2.513559123	 5.5243896439	 0.3941836457	 0.122847
H	 4.1806357821	 4.7713304615	 0.3336223077	 0.115541
H	 3.9451495126	 4.5945908749	-2.0021607985	 0.234343
H	 0.7790267388	 3.130043404	-1.7406007254	 0.119345
H	 0.5607854635	 3.9885632677	-0.2036455423	 0.122499
34.4803	131.9764	169.7318	202.5344	317.3164	330.2011	343.955	390.2883	450.1682	567.4864	722.0821	756.4289	829.5003	866.5423	894.7001	928.1872	947.0968	970.0586	993.791	1023.6063	1035.8688	1050.7353	1119.3718	1140.2243	1176.8873	1192.0298	1204.1804	1246.6448	1266.5751	1309.0285	1313.9555	1330.7526	1370.0531	1401.4869	1427.5068	1447.2815	1489.6019	1513.431	1521.4469	1526.8661	1788.9544	2926.8674	3008.119	3029.1683	3035.4214	3074.8193	3095.5603	3103.1916	3105.1043	3189.9251	3496.1462
O=CN1CCC2(CN2)C1	O=CN1CC[C@]2(CN2)C1	
InChI=1S/C6H10N2O/c9-5-8-2-1-6(4-8)3-7-6/h5,7H,1-4H2	InChI=1S/C6H10N2O/c9-5-8-2-1-6(4-8)3-7-6/h5,7H,1-4H2/t6-/m0/s1
