18
gdb 110426	2.92809	1.41416	1.18965	2.3248	75.08	-0.234	-0.0064	0.2276	1099.0286	0.147499	-401.901308	-401.89345	-401.892506	-401.933952	30.119	
C	 0.0544808186	 1.4427914824	 0.1522403076	-0.382356
C	 0.0310201058	-0.0655971387	-0.1179991449	-0.211021
C	-1.3725514482	-0.6426264913	-0.0706065187	 0.074817
C	-1.6102056193	-2.1640933907	-0.1318721607	-0.23484
C	-2.7332870416	-1.8986028333	 0.9458742232	-0.048406
C	-1.655979215	-1.8520535695	 2.0024679237	-0.174598
N	-2.1011476918	-0.6167898631	 1.2697641823	-0.145288
C	-0.7972899889	-2.6703020821	 1.0816210969	 0.437922
O	 0.0132718834	-3.5374488366	 1.2415502284	-0.338374
H	 1.0770610273	 1.8299802457	 0.1285255159	 0.116874
H	-0.527507081	 1.9885017488	-0.5984938008	 0.115959
H	-0.3728565449	 1.6695215609	 1.133328169	 0.138011
H	 0.4530031997	-0.2796063232	-1.1088887257	 0.10709
H	 0.6711221927	-0.5857879099	 0.6045963781	 0.115531
H	-2.0316935298	-0.1088245966	-0.7632885005	 0.089379
H	-1.6582931956	-2.7444063909	-1.0494118548	 0.094649
H	-3.7807912136	-2.148501494	 1.0357764736	 0.123084
H	-1.7390703378	-1.8525024978	 3.0801728175	 0.121567
83.6441	117.0228	181.0372	226.9011	258.6524	402.6343	434.7269	538.4964	620.6999	672.6422	765.0656	780.5739	797.6149	825.3849	837.4585	882.0604	902.4045	934.8954	953.0277	981.9749	1033.1009	1050.9526	1079.5084	1113.3235	1120.041	1159.5563	1164.7363	1203.532	1230.1422	1249.0978	1288.9118	1305.423	1344.1929	1410.1549	1417.3907	1477.9681	1498.4737	1507.5566	1882.7113	3024.582	3038.1146	3048.3599	3066.1467	3105.845	3118.0666	3160.4545	3219.168	3230.0541
CCC1C2C3C(N13)C2=O	CC[C@H]1[C@@H]2[C@H]3[C@H](N13)C2=O	
InChI=1S/C7H9NO/c1-2-3-4-5-6(7(4)9)8(3)5/h3-6H,2H2,1H3	InChI=1S/C7H9NO/c1-2-3-4-5-6(7(4)9)8(3)5/h3-6H,2H2,1H3/t3-,4+,5-,6-,8?/m0/s1
