22
gdb 101564	2.36755	1.02408	0.80131	0.8107	80.06	-0.2653	0.0268	0.2922	1519.574	0.192193	-441.497564	-441.486718	-441.485774	-441.534167	38.823	
C	 0.2612933944	 0.3589075492	 0.745556476	-0.377475
C	-0.1639875245	 0.0693114613	-0.7022783247	-0.234727
C	-1.6224131443	-0.2949696234	-0.8214564744	 0.407109
N	-2.4479581114	 0.4551399689	-1.4247722125	-0.523351
O	-1.8579107601	-1.4822489844	-0.1882143266	-0.277042
C	-3.1845486367	-2.0419865706	-0.1554703962	 0.084021
C	-3.4971703004	-2.7660089728	-1.4627512556	-0.400102
C	-3.1735622245	-2.976753871	 1.0560254991	-0.067079
O	-2.2088525899	-4.0019281127	 0.932019195	-0.416535
H	 1.3245361081	 0.611279754	 0.7883282195	 0.118731
H	-0.3031607812	 1.2018258611	 1.1559171179	 0.128192
H	 0.0905841244	-0.5092315375	 1.3874788602	 0.12179
H	 0.0038820463	 0.9415948576	-1.3361012021	 0.128988
H	 0.4329207319	-0.7599730613	-1.1002312048	 0.112356
H	-3.3982654857	 0.0876888837	-1.4245631391	 0.218017
H	-3.9099240444	-1.2391510582	 0.0343548961	 0.083656
H	-2.8327964213	-3.6258391187	-1.5741760154	 0.140889
H	-4.5304551178	-3.1269947509	-1.4537359904	 0.121671
H	-3.3715982531	-2.1053864247	-2.3236294067	 0.130297
H	-3.0100939613	-2.3764935187	 1.9638072028	 0.096469
H	-4.1481979498	-3.4672318306	 1.1460653182	 0.112532
H	-1.3629731887	-3.5613411304	 0.7910511738	 0.291595
52.4092	75.5172	100.3462	106.1178	184.0682	217.805	226.9465	234.2716	289.2621	327.1639	412.2469	432.8681	454.822	574.0718	638.3223	684.2518	797.279	830.9559	856.2039	878.8147	919.7291	927.7722	1009.474	1021.8579	1074.6072	1088.5752	1101.7312	1126.2325	1145.9049	1155.468	1239.6024	1274.8709	1321.8174	1348.38	1352.6207	1378.6078	1392.1062	1408.896	1416.8824	1430.8868	1475.9963	1486.5907	1496.6366	1497.9487	1501.1007	1509.6556	1729.5175	2991.4479	3020.3744	3042.7046	3045.3961	3050.6824	3082.2176	3110.7834	3116.3016	3122.2926	3133.1116	3140.1841	3496.2805	3804.1391
CCC(=N)OC(C)CO	CC[C]([NH])O[C@@H](C)CO	
InChI=1S/C6H13NO2/c1-3-6(7)9-5(2)4-8/h5,7-8H,3-4H2,1-2H3	InChI=1S/C6H13NO2/c1-3-6(7)9-5(2)4-8/h5,7-8H,3-4H2,1-2H3/t5-/m0/s1
