14
gdb 25128	3.69539	1.23324	0.92466	2.7818	84.67	-0.2198	-0.0579	0.1619	1178.4892	0.102637	-395.736411	-395.728965	-395.728021	-395.768359	28.6	
N	-0.0417042347	 1.3623614228	 0.0107243269	-0.55252
C	-0.0070889596	 0.081950614	 0.0033980718	 0.38098
N	 1.1672836472	-0.7052656631	-0.0069963282	-0.355026
C	 1.1537797886	-2.0664576702	-0.0145142111	 0.094915
N	 0.0939252597	-2.7986672124	-0.0131822206	-0.327468
C	-1.1162881802	-2.1023344625	-0.0031222868	 0.146148
C	-1.1971290064	-0.7427451407	 0.0048747636	-0.183674
C	-2.2946525154	-2.9067236365	-0.001587305	 0.234326
C	-3.2943611664	-3.576354937	-0.00021145	-0.360873
H	 0.8932730099	 1.7725653784	 0.0082385922	 0.198686
H	 2.0559396856	-0.2253084816	-0.0088581295	 0.258562
H	 2.1330048171	-2.5404230744	-0.0221570874	 0.135967
H	-2.1498366623	-0.2310032887	 0.0125964406	 0.130284
H	-4.1734868532	-4.1720815682	 0.0009643935	 0.199693
125.3493	148.9076	161.1508	335.0416	412.0236	447.8558	465.5082	550.4782	570.4373	610.7606	624.9717	652.3188	683.5404	755.8659	772.8573	803.2646	911.043	912.4795	959.9362	974.1268	1108.4476	1163.3888	1195.2349	1285.3617	1370.7345	1420.7816	1465.9383	1588.8249	1654.6519	1722.8002	2233.2143	3160.1529	3233.6825	3461.1422	3503.0924	3607.1718
N=C1NC=NC(=C1)C#C	[NH]C1=C[C@@H](N=CN1)C#C	
InChI=1S/C6H5N3/c1-2-5-3-6(7)9-4-8-5/h1,3-4H,(H2,7,8,9)	InChI=1S/C6H6N3/c1-2-5-3-6(7)9-4-8-5/h1,3-5,7H,(H,8,9)/t5-/m0/s1
