19
gdb 71487	2.15241	2.01107	1.75572	1.0645	79.37	-0.221	0.005	0.2261	935.3058	0.159119	-385.840996	-385.833277	-385.832332	-385.872385	31.893	
C	-0.0214936784	 1.4962003777	-0.0391391463	-0.525259
C	 0.0125475084	-0.0059339418	-0.0356705129	 0.319789
C	 0.5616450669	-0.965762732	-1.1250264584	-0.30199
C	 0.0352724334	-1.9058073662	-0.0181739691	-0.114008
C	 0.6179622686	-0.9525775221	 1.0821744734	-0.107353
C	-0.3578794063	-0.9516918687	 2.2477883252	-0.102405
C	-1.5550080886	-0.9601414035	 1.6593984384	-0.201931
C	-1.2199175886	-0.966508224	 0.171115032	 0.36696
O	-2.2390161689	-0.8977902973	-0.7776063452	-0.497107
H	 0.9862373702	 1.9151372862	-0.1323591822	 0.116009
H	-0.6202133581	 1.8677103328	-0.877457336	 0.129242
H	-0.4647779498	 1.8724963428	 0.8894813424	 0.122006
H	 0.0195960637	-0.9783168149	-2.072616344	 0.102255
H	 1.6439800929	-0.953372116	-1.2837315916	 0.082343
H	 0.0424408417	-2.9991863368	 0.0086287683	 0.061615
H	 1.6932696138	-0.9407392528	 1.2581965749	 0.064341
H	-0.1046837052	-0.9351430055	 3.2986085026	 0.103788
H	-2.5489532726	-0.9431057133	 2.0849860419	 0.099671
H	-2.7958265331	-1.6778257746	-0.6852857733	 0.282033
191.0202	217.2382	222.0112	252.8021	333.3196	356.3872	436.6097	459.2794	526.9167	634.4763	648.6617	705.2859	722.5588	764.746	787.2036	831.4313	903.2028	904.818	909.2193	949.9533	955.4368	1018.1577	1040.154	1062.2909	1076.1102	1098.9975	1122.6833	1176.8714	1183.9547	1206.5635	1219.954	1254.815	1283.0921	1303.9671	1331.5431	1362.2033	1404.0648	1486.5688	1488.8896	1513.1397	1634.4384	3027.6009	3052.9753	3075.7321	3096.0401	3099.2569	3121.465	3122.9734	3215.28	3242.723	3809.9762
CC12CC3C1C=CC23O	C[C@@]12C[C@H]3[C@@H]1C=C[C@@]23O	
InChI=1S/C8H10O/c1-7-4-6-5(7)2-3-8(6,7)9/h2-3,5-6,9H,4H2,1H3	InChI=1S/C8H10O/c1-7-4-6-5(7)2-3-8(6,7)9/h2-3,5-6,9H,4H2,1H3/t5-,6-,7+,8-/m0/s1
