12
gdb 12960	2.76605	2.27718	1.70062	3.0986	50.51	-0.2597	-0.0137	0.246	766.5337	0.082198	-455.586416	-455.579454	-455.57851	-455.617424	25.917	
O	 0.0217329235	 1.3902909496	-0.0192126514	-0.41574
C	-0.0720535887	 0.0137482975	-0.0165991155	 0.05348
C	-0.4787966019	-0.7803037254	 1.1669588879	-0.027491
O	-1.4597277074	 0.0104400031	 1.8952012431	-0.284334
C	-2.3899809336	-0.1365574162	 0.8481035119	 0.403863
O	-3.5279581377	 0.1877803679	 0.8517500821	-0.313753
C	-1.3901506551	-0.812687724	-0.059223613	 0.1233
O	-1.6406582034	-1.8168418002	-0.9528285369	-0.432072
H	-0.3935837813	 1.7113515267	 0.7924532125	 0.307675
H	 0.6797894018	-0.4456485556	-0.6546141607	 0.134476
H	 0.0339043958	-1.5614779244	 1.7110983305	 0.14306
H	-1.7240980019	-1.436335679	-1.8347553105	 0.307537
133.2685	220.2532	259.7234	270.9723	324.6299	412.7895	436.0387	504.8031	652.9672	666.919	732.0016	777.2213	829.4376	906.4	930.3542	959.4597	1020.8361	1041.4668	1119.3558	1213.4623	1269.4407	1286.7986	1321.2583	1410.8862	1486.5936	1955.172	3153.6221	3219.5626	3769.1134	3795.9771
OC1C2OC(=O)C12O	O[C@H]1[C@H]2OC(=O)[C@@]12O	
InChI=1S/C4H4O4/c5-1-2-4(1,7)3(6)8-2/h1-2,5,7H	InChI=1S/C4H4O4/c5-1-2-4(1,7)3(6)8-2/h1-2,5,7H/t1-,2+,4+/m0/s1
