21
gdb 106711	2.4536	1.49656	1.16271	1.7441	82.17	-0.2362	0.0865	0.3227	1175.4115	0.181138	-387.051308	-387.042307	-387.041362	-387.084806	34.68	
C	 0.3584267086	 1.4309484242	 0.2936336786	-0.376883
C	-0.2108282982	 0.0617256033	-0.1061111207	-0.293275
C	 0.4034667651	-0.4653824519	-1.3672528528	 0.356571
O	 1.7714557318	-0.922759536	-1.3050495956	-0.344403
C	 0.7741929369	-1.8346104436	-1.8067867539	 0.332599
C	 0.6543354241	-3.1716385882	-1.147971359	-0.498049
C	 0.4905839529	-1.4732793097	-3.2551053053	-0.122827
C	-0.9295808552	-0.9828220076	-3.3848041303	-0.298111
C	 0.1100010527	-0.058053258	-2.8026605236	-0.123776
H	 1.4389977112	 1.3654907394	 0.4494371435	 0.135564
H	 0.1747952531	 2.1790500803	-0.4846317951	 0.117643
H	-0.1010926694	 1.7906803745	 1.2189255183	 0.111441
H	-0.0381870091	-0.6586308987	 0.701167044	 0.105478
H	-1.2964420584	 0.1348229341	-0.2467141573	 0.101775
H	 0.6700246977	-3.0730485184	-0.0593787765	 0.130652
H	-0.2752432919	-3.6675276779	-1.4452295805	 0.123968
H	 1.4885336187	-3.8207463496	-1.4378311424	 0.130609
H	 1.0964616323	-1.7445190341	-4.1110220012	 0.093771
H	-1.257740031	-0.7491510875	-4.3934549433	 0.114201
H	-1.7112321632	-1.3951822032	-2.7517162671	 0.10883
H	 0.3929114114	 0.8741681887	-3.2756731698	 0.094223
74.9362	140.8877	185.9433	195.013	221.3005	252.9408	273.5412	392.7268	446.613	550.6648	585.8586	596.8432	701.8663	731.3655	781.2132	805.765	832.6767	876.4741	927.6025	932.9761	972.7911	981.8619	1023.082	1050.5639	1070.8581	1092.148	1103.0854	1105.7228	1135.6648	1163.2523	1209.5823	1236.8867	1300.7611	1314.1105	1331.6549	1363.031	1407.3797	1412.0386	1468.5506	1473.1382	1487.0467	1490.954	1497.9204	1498.8459	1513.319	3029.1655	3034.0211	3038.8298	3069.8262	3094.8081	3107.1828	3111.3556	3119.0281	3119.6372	3184.2753	3189.0171	3201.8724
CCC12OC1(C)C1CC21	CC[C@@]12O[C@]1(C)[C@H]1C[C@@H]21	
InChI=1S/C8H12O/c1-3-8-6-4-5(6)7(8,2)9-8/h5-6H,3-4H2,1-2H3	InChI=1S/C8H12O/c1-3-8-6-4-5(6)7(8,2)9-8/h5-6H,3-4H2,1-2H3/t5-,6+,7+,8-/m0/s1
