12
gdb 24808	3.66519	1.23491	0.92369	3.2627	71.46	-0.2616	-0.0875	0.174	1135.7513	0.078838	-435.535053	-435.528076	-435.527132	-435.566825	25.621	
O	-0.0337427095	-0.0957492023	 0.0042172624	-0.35495
C	-0.0349534229	 1.1234212963	 0.0095474395	 0.392191
C	-1.2454860105	 1.9513573009	 0.0308021034	-0.262917
C	-1.1707660839	 3.2911995898	 0.0360577889	 0.071395
O	-0.007836313	 3.9863976009	 0.0228486446	-0.220623
C	 1.1501629354	 3.2748484322	 0.0031527927	 0.285567
C	 1.1985361293	 1.9279608346	-0.003876734	-0.318079
C	 2.3076716058	 4.1149188928	-0.0091715923	 0.257511
N	 3.2581172985	 4.7735509665	-0.0194259257	-0.305643
H	-2.2124133781	 1.464185699	 0.0422903988	 0.139825
H	-2.0169041785	 3.9663237568	 0.0512839985	 0.161141
H	 2.1548181574	 1.4207922425	-0.0196966368	 0.15458
130.1803	154.7369	155.937	388.8529	422.2193	431.821	465.8904	509.5531	580.9094	676.6032	733.0075	742.5259	856.8885	900.9377	920.1996	943.9585	977.7312	1060.3702	1166.1248	1227.5893	1270.6456	1379.4363	1420.201	1622.8678	1671.0688	1760.4049	2358.2809	3216.0363	3226.7633	3234.3414
O=C1C=COC(=C1)C#N	O=c1ccoc(c1)C#N	
InChI=1S/C6H3NO2/c7-4-6-3-5(8)1-2-9-6/h1-3H	InChI=1S/C6H3NO2/c7-4-6-3-5(8)1-2-9-6/h1-3H
