16
gdb 124198	5.24267	0.81498	0.71158	4.0158	78.2	-0.2603	0.0112	0.2716	1541.8541	0.125268	-396.926238	-396.917409	-396.916465	-396.9633	29.601	
C	 0.2974990368	 1.3265429329	-0.7565861412	-0.49992
C	 0.1000335679	-0.0263396991	-0.2579822703	 0.118964
C	-0.0584185335	-1.1445450617	 0.156900203	 0.00682
C	-0.2172800477	-2.49575882	 0.6738711557	-0.27293
N	-1.5011377807	-3.093201043	 0.3129918001	 0.036777
C	-2.5302390364	-2.6072993828	-0.4097869497	 0.03504
N	-3.500556198	-3.5021069106	-0.4854275586	-0.288088
C	-2.9955675779	-4.5432948579	 0.2284987608	 0.035483
N	-1.7874380694	-4.3486118	 0.7343333138	-0.25057
H	 1.2516124332	 1.7344356475	-0.406216341	 0.159149
H	 0.3071407474	 1.3495984348	-1.8513483242	 0.157276
H	-0.497296186	 1.9965641988	-0.4123079671	 0.157459
H	 0.5756560768	-3.1510157648	 0.2952580025	 0.162465
H	-0.1400671217	-2.5039273306	 1.7671774605	 0.162616
H	-2.5212171387	-1.6219537767	-0.8464063887	 0.152521
H	-3.5288317723	-5.4698231967	 0.3816471543	 0.126938
11.2738	23.3667	79.9529	194.0819	197.1756	252.7546	353.3622	378.427	457.2745	651.3904	695.2415	747.9599	791.9795	865.4961	909.5948	975.2537	997.079	1036.4675	1051.624	1054.1712	1158.8931	1176.3946	1228.162	1240.8182	1251.1862	1315.7075	1367.1072	1383.4325	1414.454	1471.1589	1474.8591	1477.3927	1508.3148	1545.6649	2380.8628	3032.8676	3035.811	3065.4852	3097.0182	3097.0804	3257.6886	3281.9971
CC#CCN1C=NC=N1	CC#CCn1cncn1	
InChI=1S/C6H7N3/c1-2-3-4-9-6-7-5-8-9/h5-6H,4H2,1H3	InChI=1S/C6H7N3/c1-2-3-4-9-6-7-5-8-9/h5-6H,4H2,1H3
