19
gdb 65307	2.92544	1.16438	1.04157	2.4968	77.03	-0.2502	-0.0246	0.2256	1215.9385	0.157255	-423.001631	-422.992558	-422.991614	-423.035632	33.115	
C	-0.0681233558	 1.5437438361	 0.0036502283	-0.469474
C	-0.0439103373	 0.0316042005	 0.0305628683	 0.168498
C	 1.2754078069	-0.7239275667	-0.172759076	-0.395659
C	 0.6511689961	-0.69802212	 1.170137703	 0.244521
C	 1.185942977	-0.0944249617	 2.4661780405	-0.135761
O	 0.7339409341	-1.2459615268	 3.2099822598	-0.271594
C	 0.163641184	-1.860956856	 2.0360395365	-0.141966
C	-1.2377438058	-0.6453864045	-0.5338983955	 0.120433
O	-2.2094420386	-0.0746128832	-0.9650743625	-0.265474
H	 0.8515198175	 1.963352282	 0.4208701189	 0.114031
H	-0.176885006	 1.9070325334	-1.0221155492	 0.137476
H	-0.9157113974	 1.9294929554	 0.5775025106	 0.138046
H	 1.2441195561	-1.6516952189	-0.7376652884	 0.125428
H	 2.1564762675	-0.1159423283	-0.3523357193	 0.129146
H	 2.2746240513	 0.0327082681	 2.5217590948	 0.108225
H	 0.6967488296	 0.8289520842	 2.8018327303	 0.109934
H	-0.9238307569	-1.9785720724	 2.1251068093	 0.111502
H	 0.6154616333	-2.8378656113	 1.8208734918	 0.108179
H	-1.1764959856	-1.7595205899	-0.541948201	 0.064509
81.1832	112.2016	155.1689	166.0661	189.7104	254.5121	295.7441	389.7316	399.7636	434.9761	499.6901	599.0678	765.1376	835.4654	877.5263	885.228	918.6278	958.3363	986.2714	1000.8591	1035.8567	1036.4717	1059.6903	1109.4916	1117.91	1153.6352	1158.5772	1181.6153	1198.8483	1310.778	1330.806	1353.3534	1414.5578	1415.1835	1447.7702	1482.8677	1484.9539	1501.4812	1511.2572	1535.0861	1814.4381	2848.8869	3002.9089	3013.6907	3044.5198	3049.8249	3051.2404	3114.602	3116.7616	3118.895	3205.6932
CC1(CC11COC1)C=O	C[C@]1(CC21COC2)C=O	
InChI=1S/C7H10O2/c1-6(3-8)2-7(6)4-9-5-7/h3H,2,4-5H2,1H3	InChI=1S/C7H10O2/c1-6(3-8)2-7(6)4-9-5-7/h3H,2,4-5H2,1H3/t6-/m0/s1
