23
gdb 121861	3.79963	0.54937	0.49456	0.8764	93.12	-0.2414	0.0618	0.3032	2288.2569	0.202194	-388.262538	-388.250509	-388.249565	-388.3027	40.477	
C	 0.0885089173	 1.357103283	 0.1087095229	-0.227999
O	 0.0375777362	-0.0478037694	 0.0862230876	-0.230759
C	-1.2759396162	-0.5489252244	-0.0393199834	-0.06403
C	-1.1992141417	-2.0710552953	-0.0709249783	-0.185388
C	-2.5786010399	-2.7705095417	-0.0488727902	-0.16582
C	-3.428587687	-2.4615581571	-1.2997071106	-0.383509
C	-2.4101401045	-4.215750769	 0.1123631089	 0.05258
C	-2.2586344879	-5.4054804648	 0.2235254207	 0.084329
C	-2.0803559034	-6.8437460066	 0.3683213155	-0.49789
H	 1.1379061872	 1.6462701833	 0.2063720798	 0.125986
H	-0.3162867092	 1.7978045747	-0.8167986633	 0.101317
H	-0.4750436551	 1.7748083859	 0.9587749136	 0.101351
H	-1.8968953688	-0.2138756879	 0.81157363	 0.080867
H	-1.7453828881	-0.1509471237	-0.9542860448	 0.086253
H	-0.6422931773	-2.3888385374	-0.9594857257	 0.110609
H	-0.6192417379	-2.3980834036	 0.7976986261	 0.115905
H	-3.1267722394	-2.3947744107	 0.8281565752	 0.098689
H	-2.9012441534	-2.7712889418	-2.2075342125	 0.123347
H	-4.3779029919	-3.0019603966	-1.2608391796	 0.123412
H	-3.649176661	-1.3929411347	-1.3767619996	 0.113886
H	-3.0441080587	-7.3618912371	 0.4272459564	 0.14514
H	-1.5307158357	-7.2656002361	-0.4805913084	 0.145659
H	-1.5191301635	-7.0866567991	 1.2775575198	 0.146067
11.7469	53.9863	67.6397	77.8556	119.9295	146.2887	174.5918	233.3002	245.6369	279.8935	291.5221	332.0224	386.8547	430.3764	519.7845	561.9358	736.6687	798.2758	885.7523	968.4139	981.1084	1032.0945	1053.5638	1054.2496	1069.2917	1110.213	1148.5783	1163.9349	1180.0739	1199.2419	1224.89	1244.4416	1290.2645	1307.7338	1340.4797	1363.8868	1407.8929	1415.306	1427.6997	1479.4055	1479.7358	1481.092	1485.3248	1488.2909	1494.0433	1501.8731	1506.4796	1533.1012	2370.1714	2936.9552	2965.3097	2975.9162	2989.9021	3007.0076	3025.137	3040.7332	3048.0252	3084.6682	3084.9914	3093.6496	3111.4565	3112.9886	3119.3535
COCCC(C)C#CC	COCC[C@@H](C)C#CC	
InChI=1S/C8H14O/c1-4-5-8(2)6-7-9-3/h8H,6-7H2,1-3H3	InChI=1S/C8H14O/c1-4-5-8(2)6-7-9-3/h8H,6-7H2,1-3H3/t8-/m0/s1
