15
gdb 128238	3.24447	1.43522	1.0125	7.2391	76.	-0.2095	-0.046	0.1635	1111.0168	0.113888	-450.109102	-450.101008	-450.100064	-450.142255	29.491	
C	 0.1124280427	 1.4524363355	 0.1887021975	-0.342538
N	-0.047962779	 0.057537697	-0.218893132	-0.372596
C	-1.205155433	-0.6658087166	-0.0862293596	 0.188484
C	-1.1905691885	-2.0219874001	 0.0882092504	-0.052396
N	-2.3685494782	-2.7106661545	 0.1234353723	-0.21257
N	-3.5788148902	-2.1597450811	 0.0416646934	-0.04405
N	-3.6642155201	-0.8941338006	-0.1052968712	-0.264621
C	-2.538100393	-0.0444874392	-0.2186350244	 0.383801
O	-2.7150592852	 1.1443250061	-0.4278327911	-0.364858
H	 1.0153899388	 1.8457397505	-0.2853381764	 0.12266
H	-0.754411416	 2.019695451	-0.1408666335	 0.198255
H	 0.2152645947	 1.5609903099	 1.2781328972	 0.114468
H	 0.7890018605	-0.49651777	-0.100458746	 0.23475
H	-0.2864328	-2.6124221781	 0.1862326953	 0.126237
H	-2.3887443735	-3.71198352	 0.2387193379	 0.284974
70.629	95.0615	144.549	264.8101	292.1595	365.2929	432.9978	466.9733	532.5014	557.3289	591.2608	644.3746	660.5665	733.6025	808.6496	824.3809	949.6501	1004.0492	1066.4501	1114.6419	1150.1892	1182.2077	1256.852	1325.2772	1357.0208	1441.3985	1463.435	1496.2446	1511.5667	1540.6794	1558.5413	1662.2036	1742.9943	2998.6646	3093.8098	3187.7869	3187.8759	3574.7022	3639.57
CNC1=CNN=NC1=O	CNc1c[nH]nnc1=O	
InChI=1S/C4H6N4O/c1-5-3-2-6-8-7-4(3)9/h2H,1H3,(H,5,8)(H,6,7,9)	InChI=1S/C4H6N4O/c1-5-3-2-6-8-7-4(3)9/h2H,1H3,(H,5,8)(H,6,7,9)
