17
gdb 18625	3.07771	2.01466	1.72561	2.4685	67.9	-0.2353	-0.0235	0.2119	839.8253	0.142915	-363.863869	-363.856601	-363.855657	-363.895337	27.673	
C	-0.1162708807	 1.5224641103	 0.0276362879	-0.43216
C	 0.0093033493	 0.0183013163	-0.0782389092	 0.02297
C	 0.6750849425	-0.7260174423	-1.1996058165	-0.176402
N	 1.226775776	-0.7489790254	 0.1739277294	-0.117346
C	 2.4884610145	 0.0454998299	 0.1705199923	-0.165784
C	 2.7206176351	 0.6247745982	-1.2393653199	-0.350432
C	 1.5926341615	 0.0404959318	-2.1041983439	 0.414852
O	 1.4996090425	 0.1257186872	-3.3024173136	-0.31958
H	 0.6919753491	 2.074313953	-0.4538745441	 0.128702
H	-1.0547947859	 1.8415632808	-0.4363560264	 0.136354
H	-0.1511623196	 1.8237267242	 1.0805344782	 0.131343
H	-0.8632367919	-0.4948127124	 0.3251546056	 0.105261
H	 0.2225072167	-1.6278908744	-1.6000050768	 0.111769
H	 2.4374354244	 0.8145589632	 0.9463536948	 0.114565
H	 3.2917317012	-0.6420959648	 0.4465604732	 0.120433
H	 2.6985132547	 1.7179623993	-1.292976333	 0.136241
H	 3.6770740105	 0.3123838251	-1.6677071278	 0.139214
98.1134	165.3117	183.0639	252.2075	358.6892	448.0692	495.9613	583.0454	610.2229	686.648	722.5129	759.9468	823.0323	840.6707	935.3345	972.5835	982.987	1013.295	1056.2379	1084.472	1118.768	1160.9038	1183.0171	1199.8058	1254.132	1257.2994	1291.7178	1330.8245	1362.6929	1411.0028	1423.6639	1457.9412	1487.4612	1501.0782	1510.9285	1835.1368	3042.3869	3056.6174	3063.6553	3090.7473	3099.9871	3104.9321	3109.4259	3142.5951	3163.4445
CC1C2N1CCC2=O	C[C@H]1[C@@H]2N1CCC2=O	
InChI=1S/C6H9NO/c1-4-6-5(8)2-3-7(4)6/h4,6H,2-3H2,1H3	InChI=1S/C6H9NO/c1-4-6-5(8)2-3-7(4)6/h4,6H,2-3H2,1H3/t4-,6-,7?/m0/s1
