17
gdb 97386	2.86576	0.97472	0.80822	3.5328	78.28	-0.2667	0.0014	0.2681	1449.0344	0.13353	-417.993781	-417.984341	-417.983397	-418.028995	33.187	
C	 0.0861461987	 1.3102749991	-0.2364953217	-0.318316
N	 0.0134164325	-0.0643776324	 0.2150722945	-0.195459
C	-1.0564577538	-0.6853651127	 0.0201041247	 0.112802
O	-1.1693364509	-1.980711588	 0.4415508694	-0.238426
C	-2.3761512757	-2.6249359886	 0.1350242181	 0.271369
C	-2.5677084191	-3.1670532043	-1.2712076651	-0.311024
C	-2.2492116273	-4.1016018529	-0.1377859198	-0.304615
C	-3.5302519569	-2.1411892282	 0.860796616	 0.247173
N	-4.4541381902	-1.7439210383	 1.431841738	-0.336184
H	 0.9210222337	 1.4189348346	-0.9373101177	 0.132833
H	-0.8317416541	 1.6706953273	-0.7273541197	 0.103249
H	 0.2998861849	 1.9613491911	 0.6180040193	 0.137438
H	-1.9567466023	-0.2884293932	-0.4686769913	 0.099563
H	-3.5697379575	-3.1644184754	-1.6831961206	 0.148155
H	-1.7741969978	-2.9297530678	-1.9701504317	 0.147063
H	-1.2396213062	-4.4876871725	-0.0646190753	 0.155021
H	-3.028294428	-4.7513896777	 0.240872033	 0.149358
51.748	65.8831	125.2432	182.4995	204.7707	218.8825	289.4613	318.2566	369.3587	443.6973	507.4508	574.8697	610.2148	726.3619	778.6306	907.9432	933.2214	963.5255	968.7915	999.5402	1066.9545	1071.7761	1096.8729	1141.1486	1145.562	1195.4005	1203.1025	1274.1549	1309.1328	1403.0006	1449.1167	1452.7809	1480.536	1484.2431	1503.6666	1786.6911	2351.3575	2977.47	3027.309	3067.9457	3087.6843	3148.3313	3154.9872	3239.3935	3253.7258
CN=COC1(CC1)C#N	CN=COC1(CC1)C#N	
InChI=1S/C6H8N2O/c1-8-5-9-6(4-7)2-3-6/h5H,2-3H2,1H3	InChI=1S/C6H8N2O/c1-8-5-9-6(4-7)2-3-6/h5H,2-3H2,1H3
