19
gdb 72962	2.59023	1.53759	1.20092	5.0425	80.5	-0.2494	0.0245	0.274	1098.3157	0.158354	-382.047099	-382.038109	-382.037165	-382.080228	34.012	
C	-0.3758890085	 1.3537484813	 0.0486694456	-0.501798
C	-0.1280042703	-0.1258976321	 0.0501468413	 0.310524
C	-0.9101012262	-1.1232722496	-0.8116654896	-0.319582
C	-0.9660565296	-2.0246248351	 0.4457077304	-0.158405
N	-0.2435880858	-1.0042776208	 1.2854794782	-0.195598
C	 1.0874597049	-0.7812989685	 0.6360660161	 0.115934
C	 1.9136907306	-1.8736235223	-0.0254725368	-0.485636
C	 1.9109953467	 0.0756363567	 1.4705754254	 0.275608
N	 2.606370479	 0.7489238262	 2.102953621	-0.353229
H	-0.0326527838	 1.7948945631	-0.8943933629	 0.129327
H	-1.4462573912	 1.5614472482	 0.1479047845	 0.127238
H	 0.1497398226	 1.8496802383	 0.8674474486	 0.158596
H	-1.8892998614	-0.7331871672	-1.0958201252	 0.120711
H	-0.4167255033	-1.5045521692	-1.709764849	 0.111241
H	-1.9721645875	-2.155351107	 0.8469465607	 0.124166
H	-0.4781487938	-3.0015772257	 0.4015121894	 0.114342
H	 1.3495317409	-2.4354787874	-0.7694418119	 0.132622
H	 2.7758681594	-1.4252598962	-0.5267900395	 0.146621
H	 2.2899922573	-2.5733232527	 0.7270764437	 0.147316
133.4859	150.8248	157.4861	174.2396	234.9224	277.7276	313.5007	340.3604	419.8175	445.1445	543.584	551.3719	640.7646	667.7548	736.3844	786.7684	846.65	904.903	943.485	970.0626	997.8943	1018.3641	1085.4597	1099.7815	1137.1686	1155.9838	1213.8755	1220.0755	1250.1344	1287.6784	1313.986	1387.2055	1413.0289	1422.4712	1475.398	1484.1389	1488.9967	1494.6942	1500.1552	1513.1228	2355.2422	3034.4215	3052.7946	3062.2926	3070.3699	3095.7358	3110.937	3115.788	3128.8592	3132.8286	3151.4435
CC12CCN1C2(C)C#N	C[C@]12CCN1[C@]2(C)C#N	
InChI=1S/C7H10N2/c1-6-3-4-9(6)7(6,2)5-8/h3-4H2,1-2H3	InChI=1S/C7H10N2/c1-6-3-4-9(6)7(6,2)5-8/h3-4H2,1-2H3/t6-,7-,9?/m1/s1
