16
gdb 8343	4.92294	1.41295	1.33679	5.1026	69.25	-0.249	0.0323	0.2812	944.3547	0.132082	-342.729259	-342.722317	-342.721372	-342.760854	26.273	
N	-0.0099650769	-1.1579724986	-0.0291188907	-0.30808
C	 0.0241991229	-0.0068043541	 0.0591983518	 0.276515
C	 0.0632098182	 1.451939114	 0.1533898	-0.479488
C	 1.4650197558	 2.0143292549	 0.0191712609	 0.348918
C	 2.5122308364	 1.7557161379	-1.09687126	-0.227036
C	 3.1759198045	 2.6377326789	-0.011356756	-0.019187
C	 1.8915711268	 3.5102441701	 0.0200526212	-0.281518
N	 2.569770777	 1.6872686162	 1.0130288659	-0.336525
H	-0.5735515014	 1.8711542994	-0.634531521	 0.15863
H	-0.3738878482	 1.7589297766	 1.111149883	 0.153698
H	 2.8788656101	 0.7317922146	-1.1631334481	 0.1275
H	 2.3258146422	 2.2146821322	-2.0690290777	 0.098906
H	 4.2149126675	 2.9582490932	 0.0541040747	 0.093008
H	 1.6533767573	 4.1158279959	-0.8608798906	 0.097541
H	 1.7065686286	 4.0585825168	 0.9491338821	 0.094625
H	 2.3980548793	 2.204556432	 1.8826045746	 0.202493
65.4674	116.7076	291.6785	309.0294	388.1252	460.7371	535.9982	597.399	691.9874	757.2659	801.709	867.3425	902.6173	933.4226	961.0266	975.7333	983.9783	998.0829	1061.3858	1096.3488	1128.296	1144.3656	1180.1348	1211.696	1221.0912	1233.9809	1268.6615	1301.0743	1325.937	1346.6546	1454.1259	1481.9672	1525.6501	2367.3703	3032.4716	3038.6773	3077.3946	3083.1167	3101.5408	3125.9116	3164.9945	3366.1851
N#CCC12CC(C1)N2	N#CC[C@@]12C[C@@H](C1)N2	
InChI=1S/C6H8N2/c7-2-1-6-3-5(4-6)8-6/h5,8H,1,3-4H2	InChI=1S/C6H8N2/c7-2-1-6-3-5(4-6)8-6/h5,8H,1,3-4H2/t5-,6+
