15
gdb 101965	1.76014	1.51887	1.2841	2.7765	74.3	-0.2602	-0.0433	0.2169	1115.168	0.106307	-420.533162	-420.523018	-420.522074	-420.568353	35.373	
C	 0.0750826318	 1.4349126467	-0.1077295076	-0.250185
O	-0.0059887763	 0.0177698077	-0.0358449251	-0.251974
C	-1.3187038223	-0.5155018552	 0.0582291556	-0.133573
C	-1.0534970281	-2.0501596141	 0.2095417044	 0.154753
O	-1.7036592024	-2.9113376484	-0.2997229803	-0.226042
C	-1.9975014626	-0.1029804843	 1.2982864762	 0.329519
C	-2.5182319457	 0.1771094446	 2.3446978001	-0.463051
C	-2.1414660661	-0.2265563275	-1.1184158342	 0.369485
C	-2.791598112	 0.008850652	-2.0996772844	-0.453696
H	 1.1385583655	 1.6724726682	-0.168073015	 0.136153
H	-0.4366213777	 1.8185982391	-0.9983474688	 0.128162
H	-0.3541646743	 1.9041590289	 0.7860300809	 0.125588
H	-0.1783438225	-2.2330741268	 0.8647537691	 0.113717
H	-2.9928231332	 0.4375290175	 3.259192272	 0.212689
H	-3.3754329441	 0.2078768616	-2.9647854729	 0.208457
72.0464	105.8613	120.4595	142.7722	156.2454	184.7364	235.0147	258.9598	379.7488	407.4241	462.2321	506.8536	553.8519	649.2855	652.9542	667.7959	676.8522	683.3402	722.1614	930.4582	990.352	1077.9302	1119.6544	1148.1644	1183.5919	1227.0886	1384.2547	1471.6684	1484.7382	1509.657	1861.3605	2225.6991	2241.4883	2941.1248	3016.0385	3080.3692	3135.3578	3496.8761	3499.1095
COC(C=O)(C#C)C#C	COC(C=O)(C#C)C#C	
InChI=1S/C7H6O2/c1-4-7(5-2,6-8)9-3/h1-2,6H,3H3	InChI=1S/C7H6O2/c1-4-7(5-2,6-8)9-3/h1-2,6H,3H3
