16
gdb 129767	3.35511	1.59211	1.08915	3.4385	78.8	-0.1987	0.0003	0.199	1053.3914	0.12793	-396.952398	-396.945037	-396.944093	-396.983917	28.843	
N	 0.1382778584	 1.4085462216	 0.1395569494	-0.610451
C	-0.0421580302	 0.0245555564	 0.0464433417	 0.169932
C	-1.1479823654	-0.7906297397	 0.0331150701	 0.194317
C	-2.6467498374	-0.8573678853	 0.0153293803	-0.440978
C	-2.8732845375	-2.3675873605	-0.0216745471	-0.079152
C	-1.7180772995	-3.0597099712	-0.0274605512	-0.175082
C	-0.6170934257	-2.1043604563	 0.0089569008	 0.338961
N	 0.705324079	-2.150660258	 0.0039797322	-0.3582
N	 1.0365940581	-0.8212925228	 0.0281010714	-0.247483
H	 0.7906407917	 1.7734889889	-0.5452145917	 0.249076
H	-0.7391407229	 1.9033256422	 0.051875604	 0.254341
H	-3.122639325	-0.4106849881	 0.8994983807	 0.12151
H	-3.1044238841	-0.3694526873	-0.8569880918	 0.117938
H	-3.8668058563	-2.7982602334	-0.0382610278	 0.096653
H	-1.6150537016	-4.1363508952	-0.0524596776	 0.105098
H	 2.0031537886	-0.5623023412	 0.1280443967	 0.263519
154.5428	179.6261	232.7818	266.6166	332.4957	375.2962	482.5392	537.2733	607.9316	648.4868	668.0113	705.5287	767.1415	779.2586	802.8011	859.3126	924.1679	955.0183	958.3425	1054.1691	1081.8882	1121.5782	1147.8637	1148.3976	1219.533	1290.5222	1327.3434	1341.8957	1422.9951	1460.0375	1492.317	1562.5589	1608.2261	1644.5284	1688.876	3007.9339	3029.8949	3206.9103	3232.779	3526.6423	3625.6135	3674.951
NC1=C2CC=CC2=NN1	Nc1c2CC=Cc2n[nH]1	
InChI=1S/C6H7N3/c7-6-4-2-1-3-5(4)8-9-6/h1,3H,2H2,(H3,7,8,9)	InChI=1S/C6H7N3/c7-6-4-2-1-3-5(4)8-9-6/h1,3H,2H2,(H3,7,8,9)
