21
gdb 112005	2.50954	1.38665	1.0791	1.4088	83.41	-0.223	0.024	0.2471	1201.624	0.182651	-387.08528	-387.076362	-387.075418	-387.118546	34.606	
C	-0.0897312273	 1.4568763698	-0.0411552906	-0.485432
C	 0.030684294	-0.0480976265	 0.0136197621	 0.33302
C	-0.7718770657	-0.8138086711	 1.0420276997	-0.328475
C	 0.7424590304	-0.7660811927	 1.1511818638	-0.121326
C	 1.4502988151	-1.9165057509	 0.5190644571	-0.08871
C	 1.2420403848	-1.9590022279	-0.7989357437	-0.085286
C	 0.4086060674	-0.7883586275	-1.2814556292	-0.090845
C	-0.7856765048	-1.1871525503	-2.1496067091	-0.085269
O	-0.2761519161	-1.7798357844	-3.337342407	-0.423127
H	 0.8278050678	 1.9139849626	-0.4294660384	 0.117843
H	-0.9158071201	 1.7701792632	-0.6915052832	 0.11533
H	-0.2780760359	 1.8776656106	 0.9517029146	 0.112728
H	-1.3444293705	-0.2164711104	 1.7454824235	 0.10406
H	-1.2248538447	-1.76533055	 0.7850248593	 0.10867
H	 1.1907858322	-0.2254717151	 1.9785697855	 0.081928
H	 2.0253428759	-2.6379084772	 1.0892908477	 0.091788
H	 1.5931332546	-2.7257551823	-1.4782853775	 0.104167
H	 1.0284704096	-0.1283584296	-1.9077149251	 0.083112
H	-1.4307809292	-1.8890234954	-1.6009536312	 0.086202
H	-1.387349631	-0.2929483928	-2.379932406	 0.083446
H	-1.0196859964	-2.0884266223	-3.8629807422	 0.286175
97.9905	141.9087	174.8573	212.5298	252.6788	274.4806	300.9883	340.8083	448.8247	466.7514	560.3024	591.1216	738.328	762.7479	781.4868	836.659	856.3721	890.7835	958.9666	967.3433	979.9766	1013.6772	1051.1135	1058.2069	1065.2929	1075.8756	1080.6302	1103.4474	1119.1151	1147.1485	1210.3236	1242.3759	1257.9979	1277.8003	1318.3345	1337.3062	1371.7052	1397.8693	1419.8403	1453.1456	1479.8853	1491.3877	1500.4459	1519.3014	1666.5519	2966.2418	2982.867	3011.4409	3018.9167	3075.8818	3096.938	3120.4208	3159.0557	3186.8803	3209.1376	3220.2147	3831.7273
CC12CC1C=CC2CO	C[C@]12C[C@H]1C=C[C@H]2CO	
InChI=1S/C8H12O/c1-8-4-6(8)2-3-7(8)5-9/h2-3,6-7,9H,4-5H2,1H3	InChI=1S/C8H12O/c1-8-4-6(8)2-3-7(8)5-9/h2-3,6-7,9H,4-5H2,1H3/t6-,7+,8+/m1/s1
