19
gdb 50366	3.3462	1.1947	1.04349	2.2893	82.97	-0.2338	-0.0226	0.2113	1199.2817	0.15977	-385.884237	-385.87624	-385.875296	-385.917299	30.419	
O	-0.7709586629	 1.0759974464	-0.2389625092	-0.238492
C	 0.2543084497	 0.9775674775	 0.3849380461	 0.148436
C	 1.4883715005	 1.8068807582	 0.1406487142	-0.187126
C	 1.4244531995	 2.9818720968	-0.8960987079	-0.26703
C	 2.1656635585	 3.8989049284	 0.142077195	-0.030714
C	 1.652386841	 5.2231306201	 0.7415922448	-0.241136
C	 1.5987950551	 4.9231727944	 2.277759453	-0.236769
C	 1.3911781336	 3.4093019871	 2.3359620513	-0.232007
C	 1.7834381934	 2.8819648973	 1.1817363176	 0.282615
H	 0.345923862	 0.2550070421	 1.2286338418	 0.077959
H	 2.3430506671	 1.1381184531	-0.0269275902	 0.102764
H	 1.9166743869	 2.8123365212	-1.855613702	 0.104078
H	 0.3865398902	 3.2778516465	-1.0626013921	 0.129338
H	 3.2415695712	 3.9238802402	-0.071836266	 0.075932
H	 2.2726509161	 6.0909970997	 0.5007929056	 0.095453
H	 0.6381444013	 5.4289886143	 0.3816047805	 0.106901
H	 2.5272820669	 5.2298373118	 2.7797877058	 0.106783
H	 0.78683538	 5.4637408854	 2.7757051618	 0.106055
H	 0.9249825601	 2.9069423094	 3.1751663001	 0.09696
65.2888	106.5964	166.4165	216.6023	296.6972	328.1984	429.4459	559.3838	615.6373	641.6263	695.8156	804.3229	810.2464	840.6613	865.559	900.7743	916.7054	946.2596	963.9127	986.7228	1035.2992	1071.07	1077.039	1102.5035	1112.3348	1162.8695	1197.1717	1207.2291	1229.7521	1240.5414	1273.3469	1304.3682	1312.3916	1330.3278	1354.3996	1418.3131	1478.645	1482.7573	1495.3342	1722.7748	1827.7786	2864.8668	3008.5414	3021.3243	3024.8703	3042.4389	3067.466	3073.4768	3097.0982	3136.7595	3201.077
O=CC1CC2CCC=C12	O=C[C@H]1C[C@H]2CC[CH][C]12	
InChI=1S/C8H10O/c9-5-7-4-6-2-1-3-8(6)7/h3,5-7H,1-2,4H2	InChI=1S/C8H10O/c9-5-7-4-6-2-1-3-8(6)7/h3,5-7H,1-2,4H2/t6-,7-/m1/s1
