20
gdb 116407	2.1327	1.59748	1.24597	2.1501	76.69	-0.2548	0.0201	0.2749	1123.8554	0.172245	-440.293423	-440.284475	-440.283531	-440.327522	32.856	
C	 0.6193717578	 0.42387311	 0.5439237053	-0.240541
O	-0.1173698374	-0.6278621575	-0.0546855762	-0.250101
C	-1.5201390901	-0.380874078	-0.1347657158	 0.020649
C	-2.11385947	-1.452833838	-1.0600679441	-0.227238
C	-2.4124671043	-2.7754955483	-0.3123885554	-0.221247
C	-1.7559692631	-2.7871261732	 1.0634129817	-0.071193
O	-2.2005096734	-1.6574719514	 1.8406889542	-0.257589
C	-2.1487328791	-0.4364524642	 1.2480095853	 0.397089
N	-2.5828602706	 0.6131299128	 1.8126269384	-0.521871
H	 1.6690751287	 0.1221505473	 0.5234139128	 0.124544
H	 0.5026044907	 1.3609747817	-0.0198904823	 0.112495
H	 0.3142991026	 0.6088061818	 1.5814314653	 0.127636
H	-1.6990136551	 0.6260524102	-0.5299595244	 0.092252
H	-3.028668536	-1.0611003737	-1.5128172011	 0.11517
H	-1.3911424918	-1.6058494283	-1.8660226798	 0.118395
H	-3.4922382898	-2.8974784099	-0.1760176954	 0.114072
H	-2.0642397429	-3.6402694349	-0.8853641649	 0.109358
H	-2.0506935562	-3.6632431031	 1.6449943117	 0.112784
H	-0.6657129983	-2.7603375828	 0.9808433464	 0.129458
H	-2.9659696016	 0.3809669894	 2.7330445881	 0.215879
73.9327	83.5325	120.1066	174.9541	262.3045	270.6369	300.4521	391.0997	431.2757	493.5624	536.9032	672.788	731.9002	795.3858	825.4408	878.7193	915.1898	928.1893	961.1934	996.5635	1056.0904	1092.2895	1109.0758	1131.0509	1149.7419	1186.7334	1213.6876	1226.3459	1264.2718	1282.1435	1317.8399	1336.8286	1367.6729	1376.5422	1383.5125	1430.3667	1471.9284	1479.2756	1486.2414	1492.2848	1506.36	1512.2679	1743.8144	2995.6053	3038.8022	3045.463	3057.5549	3062.8355	3064.4397	3086.4766	3110.2086	3119.4532	3121.1769	3444.4889
COC1CCCOC1=N	CO[C@H]1CCCO[C]1[NH]	
InChI=1S/C6H11NO2/c1-8-5-3-2-4-9-6(5)7/h5,7H,2-4H2,1H3	InChI=1S/C6H11NO2/c1-8-5-3-2-4-9-6(5)7/h5,7H,2-4H2,1H3/t5-/m0/s1
