18
gdb 29127	2.99496	1.34461	0.93869	3.8176	84.92	-0.2048	-0.0284	0.1764	1241.7316	0.14867	-402.038918	-402.030301	-402.029357	-402.072054	32.286	
C	 0.0904106322	 1.5597396985	-0.0006137981	-0.492607
C	 0.0292732205	 0.0560170623	-0.019871657	 0.240811
C	-0.0911458554	-0.650460087	-1.1753848684	-0.056255
N	-0.1440445563	-2.0154180819	-1.1582284656	-0.37183
C	-0.0848810206	-2.8208383864	-0.0153753087	 0.375548
O	-0.1411973294	-4.0395677939	-0.1104062219	-0.398996
C	 0.0446024432	-2.0650730253	 1.2274683273	 0.133355
C	 0.1133887604	-2.8746937396	 2.4879397175	-0.470796
C	 0.0958519658	-0.7031496089	 1.1920743794	-0.217228
H	 1.0235861468	 1.9187470349	 0.4492994083	 0.13126
H	 0.0289340509	 1.9732232493	-1.0111225979	 0.121782
H	-0.7317478525	 1.9884522221	 0.5845629063	 0.131295
H	-0.1505711782	-0.1849994531	-2.1522879747	 0.125195
H	-0.2335776372	-2.5314928092	-2.0223025243	 0.25823
H	 0.9618650737	-3.5668749186	 2.4573647131	 0.142055
H	 0.2082667825	-2.2348152826	 3.3687605396	 0.110468
H	-0.780082866	-3.4992151511	 2.595852795	 0.142097
H	 0.1924694395	-0.1585846395	 2.1294417102	 0.095617
113.9565	135.741	139.8191	198.2542	259.0296	315.9195	325.893	417.1233	464.1825	497.6973	553.2233	580.9519	698.6502	703.3606	789.7274	799.5435	863.8867	937.2641	966.3437	989.2885	1038.3362	1066.3257	1070.8962	1130.1391	1194.252	1244.8614	1263.6251	1370.2193	1411.7822	1420.8677	1425.9171	1465.3106	1467.5635	1480.1466	1487.7839	1502.3026	1606.7646	1693.6303	1763.0841	3023.9511	3034.9875	3073.3871	3088.1424	3109.0027	3120.9536	3145.7591	3199.5074	3609.3498
CC1=CNC(=O)C(C)=C1	Cc1c[nH]c(=O)c(C)c1	
InChI=1S/C7H9NO/c1-5-3-6(2)7(9)8-4-5/h3-4H,1-2H3,(H,8,9)	InChI=1S/C7H9NO/c1-5-3-6(2)7(9)8-4-5/h3-4H,1-2H3,(H,8,9)
