17
gdb 51956	5.53941	0.69581	0.68199	3.2274	71.94	-0.2628	-0.0343	0.2285	1646.9774	0.133441	-458.990441	-458.981134	-458.98019	-459.02729	31.842	
O	-0.3505809757	 0.4943768352	 0.5294142346	-0.227477
C	 0.0917628041	 1.4546313541	-0.0406796394	 0.144588
C	 1.5553943126	 1.603525287	-0.4162047139	-0.17579
O	 1.6908513073	 2.5631482519	-1.4651053019	-0.254591
C	 2.3428885067	 3.7197410073	-1.1637513522	 0.467404
O	 2.8067823821	 3.9656684958	-0.077025127	-0.371203
C	 2.398288953	 4.6103918052	-2.3443985244	-0.136146
C	 2.3436210988	 6.108063216	-2.0842976777	-0.250538
C	 3.6341566026	 5.4844959264	-2.4925689248	-0.249855
H	-0.5400078987	 2.3248501574	-0.3291654266	 0.091446
H	 2.1205003539	 1.9338700749	 0.4626799102	 0.172749
H	 1.9506886343	 0.6457906766	-0.7641602645	 0.145901
H	 1.929368622	 4.225725496	-3.2403094864	 0.108331
H	 1.7976092956	 6.7072927156	-2.8033272966	 0.124902
H	 2.2360425894	 6.4069198847	-1.0484441634	 0.142428
H	 4.3958965943	 5.3628836456	-1.7317987301	 0.142849
H	 4.0000663478	 5.6429060705	-3.5001298657	 0.125002
14.9751	54.9405	77.7887	100.3126	198.3965	261.4908	327.4767	341.3918	376.1641	564.2665	654.5175	736.0686	755.0631	792.0061	834.3221	861.8372	919.5308	934.1109	1045.1096	1056.9584	1067.5273	1096.871	1110.5059	1126.0996	1130.3851	1182.8036	1209.2488	1224.7328	1267.7107	1342.9521	1404.0875	1419.0733	1452.8122	1457.2141	1490.5024	1811.0193	1843.8112	2886.5004	3052.6168	3115.2044	3145.6638	3147.887	3201.6075	3232.9472	3247.382
O=CCOC(=O)C1CC1	O=CCOC(=O)C1CC1	
InChI=1S/C6H8O3/c7-3-4-9-6(8)5-1-2-5/h3,5H,1-2,4H2	InChI=1S/C6H8O3/c7-3-4-9-6(8)5-1-2-5/h3,5H,1-2,4H2
