17
gdb 71607	2.2185	1.97648	1.6757	0.4935	67.1	-0.2415	0.0605	0.302	912.3119	0.135164	-458.899544	-458.89199	-458.891045	-458.931103	30.056	
C	 0.0148345497	 1.4575374251	-0.1667743458	-0.533685
C	-0.0224843836	-0.0248869665	 0.0053178634	 0.313875
O	 0.5205691844	-0.8934489419	-1.0631075768	-0.369047
C	 0.0411509678	-1.8493846169	-0.0551359722	-0.060401
C	 0.570966346	-0.9601142652	 1.0963497824	 0.059282
O	-0.277916424	-1.0194181554	 2.2216147741	-0.279121
C	-1.597656096	-1.0580535173	 1.6376089841	-0.137972
C	-1.2548957013	-0.9993327486	 0.1610017421	 0.355478
O	-2.2974492361	-0.9980272055	-0.7359501465	-0.483141
H	 1.031468783	 1.7975920348	-0.3856965585	 0.139192
H	-0.6420239336	 1.77208389	-0.9843840058	 0.131988
H	-0.3223833208	 1.9465414394	 0.7526368663	 0.138641
H	 0.1651110315	-2.9131984708	-0.2548273421	 0.094338
H	 1.6239087421	-0.935389629	 1.3653769285	 0.105631
H	-2.1132904525	-1.981319607	 1.9248942845	 0.116663
H	-2.1892170476	-0.1995569826	 1.9753988687	 0.115915
H	-1.8934429991	-0.9726758227	-1.6150134863	 0.292362
171.47	188.3976	209.8116	269.5214	275.9547	434.5524	455.9439	488.8758	506.5624	663.5098	693.5573	703.6486	717.7962	761.5503	804.5644	882.068	933.9326	949.9429	963.7825	1049.883	1062.4367	1087.3641	1104.3786	1113.3384	1161.5955	1185.8153	1200.0305	1228.0742	1270.4809	1304.3279	1333.3235	1400.8246	1418.0773	1440.0802	1476.2021	1487.3891	1522.625	3032.189	3036.725	3074.5544	3107.3945	3114.817	3128.5384	3167.0449	3747.2014
CC12OC3C1OCC23O	C[C@@]12O[C@H]3[C@@H]1OC[C@@]23O	
InChI=1S/C6H8O3/c1-5-3-4(9-5)6(5,7)2-8-3/h3-4,7H,2H2,1H3	InChI=1S/C6H8O3/c1-5-3-4(9-5)6(5,7)2-8-3/h3-4,7H,2H2,1H3/t3-,4-,5+,6-/m0/s1
