17
gdb 17563	3.24606	2.12819	1.65691	0.8393	68.33	-0.2306	0.0588	0.2893	830.9355	0.142681	-363.797132	-363.790001	-363.789057	-363.828016	28.425	
O	-0.1001218715	 1.3995140678	-0.038832397	-0.451807
C	 0.0423353405	 0.0247739923	-0.0037593225	 0.329088
C	-0.8433112759	-0.8160740179	 0.8559693639	-0.309693
C	 0.6589727537	-0.9306402221	 1.0274965726	-0.142395
C	 1.2528925948	-1.7857106684	-0.1061641177	-0.304324
C	 0.6354328537	-0.8067331949	-1.1269842993	 0.291502
C	 0.139949794	-0.9765991716	-2.5063821314	-0.313973
N	 1.4018341627	-0.2415972003	-2.2333530016	-0.379354
H	 0.7794110487	 1.7941417592	-0.0508372485	 0.289033
H	-1.3449812471	-0.259836035	 1.6415654783	 0.118925
H	-1.4224895896	-1.636330184	 0.4371201949	 0.108329
H	 1.1371792583	-0.7132914146	 1.9742619364	 0.092386
H	 2.3443688373	-1.7623774876	-0.147663773	 0.115928
H	 0.9092316612	-2.8242556736	-0.1526961202	 0.099611
H	 0.2745166159	-1.9219496536	-3.0251495004	 0.11821
H	-0.7359744573	-0.4087540856	-2.810510668	 0.115884
H	 1.2132339106	 0.7589794098	-2.2891560964	 0.222651
136.5903	221.2387	230.9406	329.0846	366.2234	421.9073	427.6249	503.6314	581.1054	649.7146	787.5435	831.995	844.4404	886.4148	902.0052	933.3573	961.0753	983.8629	1003.722	1021.9225	1043.2986	1089.4287	1093.8676	1126.2133	1154.7904	1205.0524	1237.0761	1253.4481	1271.4969	1282.5258	1321.0427	1409.1719	1422.9691	1478.9848	1501.3864	1513.0323	3047.2145	3103.6896	3104.5758	3109.8529	3189.9268	3190.9055	3203.769	3462.0701	3789.5035
OC12CC1CC21CN1	O[C@]12C[C@H]1C[C@]12CN1	
InChI=1S/C6H9NO/c8-6-2-4(6)1-5(6)3-7-5/h4,7-8H,1-3H2	InChI=1S/C6H9NO/c8-6-2-4(6)1-5(6)3-7-5/h4,7-8H,1-3H2/t4-,5-,6-/m1/s1
