19
gdb 39394	2.42002	2.15711	1.46279	0.8763	74.5	-0.2251	0.0732	0.2983	936.5601	0.161204	-422.960303	-422.953276	-422.952331	-422.99128	29.297	
C	-0.0476134194	 1.5282942286	-0.0211057784	-0.435569
C	 1.2711456156	 0.7414085134	-0.0761260819	-0.072151
C	 2.3101333923	 0.4215998385	 0.9623126669	-0.102844
O	 2.4034254964	-1.0044763456	 1.1878228155	-0.274165
C	 1.7766219577	-1.9172123152	 0.2854624372	-0.084206
C	 0.2170610123	-1.8828678894	 0.241979645	 0.064636
C	-0.3038474706	-0.8733241178	 1.2764458978	-0.299009
C	-0.0456518962	 0.0526072234	 0.093810117	 0.429142
O	-0.2896315001	-1.0153268674	-0.8350788377	-0.320649
H	-0.321166737	 2.0742709185	 0.877948688	 0.123237
H	-0.3390426363	 2.013866878	-0.9460439581	 0.132112
H	 1.6283778177	 0.6565122633	-1.0989268455	 0.105696
H	 3.301507692	 0.7874509854	 0.6660282116	 0.102367
H	 2.0703586314	 0.8676868608	 1.9352789721	 0.104163
H	 2.1500129564	-1.8116980093	-0.7429692494	 0.106382
H	 2.0938601846	-2.8969090419	 0.6566851188	 0.110805
H	-0.2157611962	-2.8828059235	 0.1611732197	 0.079846
H	-1.3737436421	-0.9884372631	 1.4616060117	 0.106885
H	 0.2542989014	-0.7432587666	 2.2013570196	 0.12332
151.9159	251.9624	311.5392	344.8231	351.9826	411.4837	466.2791	547.4728	560.51	658.9413	778.4732	808.1787	832.4864	856.8122	864.4428	887.7894	924.0227	944.0863	991.4859	1020.8133	1043.9222	1055.7835	1072.2554	1100.1496	1124.6673	1139.462	1176.0495	1192.8847	1233.062	1252.6062	1271.8559	1311.6368	1327.0288	1351.6293	1384.7898	1393.8712	1427.7146	1476.5255	1481.0851	1500.5478	1513.8286	3006.5656	3014.9748	3048.4687	3075.342	3082.5026	3095.2815	3121.2169	3143.9766	3162.4648	3212.5155
C1C2COCC3CC12O3	C1[C@H]2COC[C@H]3C[C@@]12O3	
InChI=1S/C7H10O2/c1-5-3-8-4-6-2-7(1,5)9-6/h5-6H,1-4H2	InChI=1S/C7H10O2/c1-5-3-8-4-6-2-7(1,5)9-6/h5-6H,1-4H2/t5-,6+,7-/m0/s1
