13
gdb 5497	3.65681	1.91053	1.25665	1.5644	68.85	-0.2025	-0.0046	0.198	891.952	0.095766	-361.452656	-361.445437	-361.444493	-361.483816	27.488	
N	 0.079279771	 1.3831722305	 0.1591296602	-0.621289
C	 0.013639492	-0.0029211012	 0.0445742646	 0.104742
C	-1.0699316521	-0.8271636086	 0.0216216522	-0.07219
O	-0.6670747391	-2.1408479786	-0.0262040878	-0.141095
C	 0.6747701664	-2.1488531302	-0.0334870374	-0.117626
C	 1.1722832757	-0.8742334032	 0.0056522957	 0.108376
C	 2.5184206658	-0.4514951822	-0.0015625342	 0.209689
C	 3.6494959644	-0.035187301	-0.017015113	-0.434765
H	 0.9518860711	 1.7595958509	-0.1877985856	 0.25275
H	-0.7071803264	 1.8716149307	-0.2453122201	 0.247595
H	-2.1327827653	-0.6603500372	 0.0389890927	 0.129092
H	 1.1552983145	-3.112121262	-0.0735894305	 0.145042
H	 4.653439292	 0.3099750422	-0.0195150867	 0.18968
130.7113	164.3274	236.741	309.8262	352.1234	481.819	523.9762	543.6664	590.4382	599.7344	648.8179	661.2692	669.6931	719.7422	747.2883	780.2706	889.5369	1072.0881	1104.2587	1208.0959	1216.1567	1257.735	1336.9847	1414.9037	1572.6628	1642.3108	1669.1753	2228.3399	3280.2804	3290.2217	3503.2212	3546.7753	3643.3187
NC1=COC=C1C#C	Nc1cocc1C#C	
InChI=1S/C6H5NO/c1-2-5-3-8-4-6(5)7/h1,3-4H,7H2	InChI=1S/C6H5NO/c1-2-5-3-8-4-6(5)7/h1,3-4H,7H2
