14
gdb 45010	2.48465	1.86549	1.23777	3.1233	63.73	-0.2803	-0.0377	0.2427	965.7501	0.101685	-473.848554	-473.84152	-473.840576	-473.88035	26.549	
N	 0.0323202043	 0.7810621442	-1.0605010025	-0.478706
C	-0.0360654784	 0.0304002537	-0.0547786463	 0.407002
C	-1.3264566014	-0.6036405022	 0.3997283043	-0.329721
C	-1.098853682	-2.0285700982	 0.8351424535	 0.046964
O	-0.1237728556	-2.7396020715	 0.0814804168	-0.228999
C	 0.2099861917	-2.3638357083	 1.4226555989	-0.114853
C	 1.2124884473	-1.2633908283	 1.5881609578	 0.442608
O	 2.0912000745	-1.2809969473	 2.3986424127	-0.303271
O	 1.0803768532	-0.1856237627	 0.7489452613	-0.243841
H	 0.9826626807	 1.1343087867	-1.1869585264	 0.239441
H	-1.7424794852	-0.0302663567	 1.238854769	 0.144954
H	-2.0349692964	-0.5415648449	-0.4281426211	 0.160573
H	-1.9670908095	-2.6097485604	 1.1398151163	 0.12185
H	 0.3306222066	-3.176610834	 2.1322293758	 0.135998
101.6701	121.7063	251.9294	343.0856	383.2474	456.1527	507.7571	522.8883	592.0908	664.5273	761.454	807.8914	870.8678	886.5429	927.9968	934.6236	963.5007	1027.6439	1052.8381	1103.8134	1121.0828	1205.1426	1216.333	1266.775	1332.1272	1343.666	1355.2844	1448.6133	1466.6088	1776.2858	1868.0949	3035.8557	3124.0542	3138.9005	3175.3114	3477.9986
N=C1CC2OC2C(=O)O1	[NH][C]1C[C@H]2O[C@H]2C(=O)O1	
InChI=1S/C5H5NO3/c6-3-1-2-4(8-2)5(7)9-3/h2,4,6H,1H2	InChI=1S/C5H5NO3/c6-3-1-2-4(8-2)5(7)9-3/h2,4,6H,1H2/t2-,4-/m1/s1
