16
gdb 64678	3.41675	1.02006	0.93341	1.7699	69.23	-0.2572	-0.0372	0.22	1246.1309	0.121792	-437.906293	-437.897542	-437.896598	-437.940349	32.315	
O	 0.052860819	 1.5508947341	-0.3130230626	-0.475839
C	-0.0156491821	 0.1833527098	-0.0020726899	 0.397372
C	 0.8589129571	-0.6513857439	-0.9643380137	-0.384783
C	 2.2581908238	-0.2390326656	-0.879043663	 0.245749
N	 3.3437813008	 0.1438036568	-0.7728603287	-0.300814
C	 0.169010343	-0.19745678	 1.5089991512	-0.408812
C	-1.1989137356	-0.893153634	 1.4395882747	 0.413112
O	-1.7816752572	-1.6508675662	 2.1569162848	-0.281233
C	-1.4901238846	-0.3094304117	 0.0488329287	-0.398401
H	 0.9673607994	 1.8450488975	-0.2154996354	 0.297759
H	 0.7809709626	-1.7198203413	-0.7360681572	 0.157498
H	 0.5058562396	-0.5018779078	-1.9900811194	 0.165027
H	 1.025477911	-0.8129687003	 1.795530436	 0.139285
H	 0.1359262835	 0.6918600487	 2.1461206568	 0.146605
H	-2.1797681252	 0.5387463724	 0.0961730086	 0.15518
H	-1.8321291851	-1.0068213685	-0.7200202809	 0.132296
49.2313	80.6636	130.7284	288.5531	328.2421	355.3578	376.7365	392.3284	411.8832	425.444	498.6101	531.7332	666.6219	682.469	747.7304	843.5585	894.029	933.772	954.8401	986.4561	1014.0532	1088.6809	1119.323	1132.3721	1189.7378	1217.4936	1262.6332	1296.3234	1304.798	1385.1455	1417.0264	1439.8278	1457.9673	1901.2551	2357.352	3051.0167	3060.308	3065.9167	3096.9154	3122.0927	3123.5608	3777.5485
OC1(CC#N)CC(=O)C1	OC1(CC#N)CC(=O)C1	
InChI=1S/C6H7NO2/c7-2-1-6(9)3-5(8)4-6/h9H,1,3-4H2	InChI=1S/C6H7NO2/c7-2-1-6(9)3-5(8)4-6/h9H,1,3-4H2
