19
gdb 40608	3.86843	1.21078	1.15018	2.4579	80.33	-0.2166	0.0666	0.2832	1139.0206	0.160033	-381.93182	-381.924358	-381.923413	-381.964034	29.755	
C	 0.0675735128	 1.5735140112	 0.0195852805	-0.225689
C	 1.3462635972	 0.8125022266	 0.0320510883	-0.225145
N	 0.0648557815	 0.1134805375	-0.0358156373	-0.074746
C	-0.3450396985	-0.5561685989	 1.172390037	 0.068078
C	-1.6525732917	-1.2483303364	 1.4298267394	-0.145787
C	-2.0945045189	-2.2535763604	 0.3502150166	-0.036414
C	-1.2042778765	-2.3921409832	-0.821723314	-0.251225
N	-0.8220246474	-3.043911333	 0.4573690623	-0.151548
C	-0.3360717202	-2.0308593907	 1.4695367121	-0.058596
H	-0.2411296835	 2.0439955231	 0.9517047855	 0.112278
H	-0.2693409971	 2.0803748751	-0.879745666	 0.121372
H	 1.9653286867	 0.7506188177	-0.8579875686	 0.121795
H	 1.8943379311	 0.7739266454	 0.9720525524	 0.113568
H	-0.0394546205	-0.0281960585	 2.0868428784	 0.077897
H	-2.305583766	-0.9563115195	 2.2426405356	 0.091182
H	-3.0527232913	-2.7584217955	 0.4241890601	 0.095678
H	-1.5000872379	-3.1362282656	-1.5573428564	 0.112698
H	-0.6420810888	-1.5477115931	-1.1923854751	 0.15546
H	 0.2204820492	-2.4365136318	 2.3063038292	 0.099143
67.321	156.6288	177.9123	323.3399	326.012	408.5483	569.1736	608.4327	685.8254	718.6984	743.3408	759.3558	801.3207	878.4579	890.5818	895.1982	907.9485	972.6308	984.8619	1019.2113	1022.0003	1048.5155	1057.2202	1075.4664	1110.4149	1113.2812	1119.4937	1138.227	1154.5985	1157.2215	1176.0519	1217.379	1242.5463	1280.5684	1320.7251	1345.4511	1359.4072	1451.0978	1488.1644	1492.6863	1521.2202	2995.4246	3096.7434	3100.8157	3121.4697	3154.3239	3173.7125	3180.9255	3190.1442	3195.0877	3251.0669
C1CN1C1C2C3CN3C12	C1CN1[C@H]1[C@H]2[C@H]3CN3[C@@H]12	
InChI=1S/C7H10N2/c1-2-8(1)6-5-4-3-9(4)7(5)6/h4-7H,1-3H2	InChI=1S/C7H10N2/c1-2-8(1)6-5-4-3-9(4)7(5)6/h4-7H,1-3H2/t4-,5-,6+,7-,9?/m1/s1
