21
gdb 67036	2.07813	1.97173	1.57224	0.9758	81.31	-0.235	0.0751	0.3102	1003.608	0.183303	-387.081491	-387.073192	-387.072247	-387.113592	33.483	
C	 0.0356024768	 1.5294643133	-0.0175146244	-0.513018
C	 0.0016309563	 0.0327911432	 0.0102150306	 0.314053
C	 0.4849220183	-1.0270413511	-0.9682996537	-0.119323
C	 1.2382023848	-1.7722642945	 0.1332590467	-0.29491
C	 0.4815015184	-0.8839778545	 1.1789691005	 0.359583
O	 1.2552984477	-0.221034226	 2.1433206978	-0.498138
C	-0.7773981634	-1.5945128914	 1.6964759804	-0.268623
C	-1.5960284989	-1.8664970404	 0.4072542144	-0.241446
C	-0.9942098628	-0.8999472797	-0.6177088032	-0.091057
H	 1.031029268	 1.9067515224	 0.2385537704	 0.128619
H	-0.2251019211	 1.9061084845	-1.0123164128	 0.112753
H	-0.673777543	 1.9613484556	 0.6982097277	 0.118328
H	 0.8242137252	-0.8952049018	-1.9900304855	 0.077213
H	 1.1241886191	-2.8612328622	 0.2055821904	 0.078477
H	 2.3006660534	-1.5151772736	 0.1316308407	 0.101738
H	 1.5575545302	-0.8705983183	 2.7869947524	 0.275707
H	-0.5424313486	-2.5084577022	 2.2548240867	 0.083204
H	-1.3140011525	-0.9166223678	 2.3698175605	 0.100226
H	-1.5125235592	-2.9091362269	 0.0815814384	 0.099444
H	-2.660570484	-1.6659531484	 0.5594589907	 0.099298
H	-1.6218410246	-0.5191956301	-1.4169487489	 0.077874
174.0893	181.7258	207.5872	215.8527	225.3935	322.651	391.7802	439.9839	452.4748	566.2006	597.5178	646.8262	715.1612	750.1549	814.9329	850.8188	876.2338	909.6634	930.5814	955.174	977.2659	993.73	1028.7719	1074.3572	1075.1491	1093.5686	1120.6808	1155.8912	1190.8437	1207.0992	1215.8652	1234.9371	1251.8385	1266.1309	1299.5135	1320.1304	1328.9256	1372.3003	1412.1209	1463.3353	1481.5889	1485.3498	1490.7582	1498.9931	1508.5949	3019.0057	3024.6712	3028.3133	3042.5866	3068.6016	3084.4978	3087.7395	3097.2762	3098.7805	3159.4455	3170.3233	3806.74
CC12C3CC1(O)CCC23	C[C@@]12[C@H]3C[C@]1(O)CC[C@@H]23	
InChI=1S/C8H12O/c1-7-5-2-3-8(7,9)4-6(5)7/h5-6,9H,2-4H2,1H3	InChI=1S/C8H12O/c1-7-5-2-3-8(7,9)4-6(5)7/h5-6,9H,2-4H2,1H3/t5-,6+,7-,8-/m1/s1
