18
gdb 57296	3.49922	0.67677	0.64245	2.7041	81.16	-0.2721	0.0146	0.2867	1775.9085	0.144117	-401.936383	-401.925785	-401.92484	-401.973592	37.309	
C	 1.162379385	 0.9751464614	 0.3940093602	-0.403033
C	-0.0101320904	 0.065133535	-0.0153417749	 0.162455
C	-0.5732460603	-0.6900513769	 1.1957484927	-0.384692
O	-1.0986389472	 0.8520519384	-0.5083598189	-0.437147
C	 0.4353724181	-0.8846638957	-1.0517090029	 0.163314
C	 0.8026399189	-1.6318683656	-1.9201843438	-0.010761
C	 1.2375395822	-2.5483718591	-2.9715306304	-0.47446
C	 2.2362285568	-1.9577573403	-3.8733502514	 0.278998
N	 3.0199703713	-1.5018564366	-4.5880730645	-0.299899
H	 1.9867978097	 0.3926091999	 0.8146398178	 0.126302
H	 1.5451415699	 1.5232822864	-0.47247401	 0.120051
H	 0.814802176	 1.6952015877	 1.1399464477	 0.126111
H	-0.9226709977	 0.0327367143	 1.9380809169	 0.126583
H	-1.4163984543	-1.3132949464	 0.890552821	 0.132508
H	 0.1932222007	-1.3244323841	 1.6469611724	 0.122391
H	-0.8016836265	 1.2946445002	-1.3112352854	 0.283511
H	 1.6672854419	-3.4587059631	-2.5338544303	 0.183544
H	 0.3815324559	-2.8755490057	-3.5757832462	 0.184223
14.937	63.1305	113.4751	149.0816	215.5327	257.0524	285.1142	312.2138	326.1561	352.336	365.9081	377.0226	401.8066	534.703	566.2091	585.7705	685.8987	859.6998	920.9206	932.5964	935.4264	962.2015	1017.9709	1078.1042	1124.0355	1195.8126	1235.1204	1252.7267	1335.9395	1366.5697	1393.612	1413.6103	1446.849	1475.8175	1479.3443	1493.1319	1503.1301	2366.7114	2374.3649	3026.3664	3039.4365	3052.293	3056.49	3114.3377	3124.3213	3131.7513	3139.3054	3805.8772
CC(C)(O)C#CCC#N	CC(C)(O)C#CCC#N	
InChI=1S/C7H9NO/c1-7(2,9)5-3-4-6-8/h9H,4H2,1-2H3	InChI=1S/C7H9NO/c1-7(2,9)5-3-4-6-8/h9H,4H2,1-2H3
