16
gdb 31411	4.02355	1.13528	0.89112	3.6916	78.23	-0.2072	-0.0246	0.1825	1251.7734	0.126724	-434.143821	-434.135541	-434.134597	-434.177329	30.033	
C	-0.0421134675	 1.4819484395	 0.0384013031	-0.314031
N	 0.1039018749	 0.0388001672	 0.0065054632	-0.355631
C	 0.6603493347	-0.6952463444	 1.0092910032	 0.443343
C	 0.6192435229	-2.0778670561	 1.0160183667	-0.361507
C	 1.2349719065	-2.8295843229	 2.0611214209	 0.42362
O	 1.2920031633	-4.0370083614	 2.2183547699	-0.408384
N	 1.8525593829	-1.9743440964	 3.029628662	-0.337453
C	 1.8397324705	-0.6317864555	 2.9482539303	 0.109012
N	 1.2787236385	 0.0451542762	 1.9964115385	-0.346773
H	 0.8988136991	 1.9472177796	 0.334272232	 0.156594
H	-0.3069239208	 1.8250433923	-0.9644628187	 0.123247
H	-0.8190601806	 1.814994404	 0.7395394411	 0.125658
H	-0.4546689717	-0.4682947022	-0.658926642	 0.250662
H	 0.1233881057	-2.6339010302	 0.2299281783	 0.092545
H	 2.3044850964	-2.4474572074	 3.799954445	 0.264138
H	 2.3417290952	-0.0960926023	 3.7513229864	 0.134959
61.9193	91.7209	184.1173	185.3547	223.1584	389.9316	434.4093	441.8363	477.8057	551.2721	641.5905	669.0343	740.0827	764.4401	790.3176	832.1057	913.8304	971.7326	984.4361	1072.8321	1146.9974	1154.6117	1182.9245	1215.5291	1294.6203	1384.8607	1424.5221	1446.7689	1479.6178	1485.6734	1502.9007	1521.0644	1611.5152	1674.4857	1797.181	3013.9576	3098.0589	3145.6431	3155.6598	3203.0597	3608.0311	3655.6677
CNC1=CC(=O)NC=N1	CNc1cc(=O)[nH]cn1	
InChI=1S/C5H7N3O/c1-6-4-2-5(9)8-3-7-4/h2-3H,1H3,(H2,6,7,8,9)	InChI=1S/C5H7N3O/c1-6-4-2-5(9)8-3-7-4/h2-3H,1H3,(H2,6,7,8,9)
