18
gdb 39160	3.08778	1.79793	1.3122	3.8506	76.81	-0.2379	0.0274	0.2653	980.0937	0.151172	-401.957785	-401.950943	-401.949999	-401.988862	27.659	
C	-0.09409365	 1.4348113213	 0.0725736199	-0.339679
C	 1.3052933429	 0.8819969512	 0.0211309844	-0.151377
C	 1.9081819281	 0.5289908858	 1.3811043824	-0.106153
O	 0.9807439389	-0.3736516966	 2.038486102	-0.263997
C	 0.1501898662	-0.8696354837	 1.0981024245	 0.421614
N	-0.5037345977	-1.953907567	 1.1172401713	-0.332588
C	-1.1836560719	-2.0252956296	-0.1966265983	-0.155254
C	-0.4831398727	-0.9902323543	-1.1523320621	-0.360225
C	 0.122134597	-0.0458648903	-0.1332979843	 0.259246
H	-0.4888127602	 1.7941161191	 1.0193980878	 0.124627
H	-0.4300669404	 1.9890020065	-0.7978040607	 0.11937
H	 1.974892726	 1.1500673482	-0.787145896	 0.103508
H	 2.8690667894	 0.0131750285	 1.2688085244	 0.120741
H	 2.0448073568	 1.3919201488	 2.0396239257	 0.123066
H	-1.1201452496	-3.046555308	-0.5829469865	 0.109898
H	-2.2498948816	-1.7942803327	-0.0751382208	 0.108165
H	 0.2896556203	-1.4913842051	-1.7449157359	 0.112142
H	-1.1794842714	-0.5084990022	-1.8421532078	 0.106897
132.856	208.6139	269.349	302.0973	393.3248	431.2711	595.5459	634.4151	707.5375	725.0697	746.9457	830.4772	843.5055	876.7409	887.2548	923.2558	958.3255	966.4865	1026.2941	1047.3702	1059.4154	1083.4444	1091.078	1123.303	1147.9461	1194.9822	1225.2557	1238.4756	1261.3938	1292.81	1321.0377	1341.9144	1394.0258	1418.947	1486.3109	1491.9588	1507.1033	1516.8607	1760.0457	3023.8545	3035.8287	3047.3183	3081.8102	3088.5752	3107.8828	3115.0369	3186.9984	3206.6932
C1C2COC3=NCCC123	C1[C@H]2CO[C]3[N]CC[C@]123	
InChI=1S/C7H9NO/c1-2-8-6-7(1)3-5(7)4-9-6/h5H,1-4H2	InChI=1S/C7H9NO/c1-2-8-6-7(1)3-5(7)4-9-6/h5H,1-4H2/t5-,7-/m0/s1
