19
gdb 64665	3.94293	1.04253	1.02977	1.0888	80.92	-0.2452	0.0443	0.2895	1245.7466	0.157853	-385.824117	-385.815335	-385.81439	-385.857421	34.136	
O	-0.2490321719	 1.4047615596	-0.1419328268	-0.473843
C	-0.0885458214	 0.0180625843	-0.0389419038	 0.432265
C	 1.0600348165	-0.5183326617	-0.8926935698	-0.417868
C	 2.3343266444	 0.0873701382	-0.5136496042	 0.279226
C	 3.3515492405	 0.6333572554	-0.176703871	-0.438458
C	-0.3549831339	-0.7137279979	 1.2485151646	-0.12379
C	-1.4516936813	-0.0024747865	 2.0494287811	-0.233165
C	-2.416925329	-0.1261317595	 0.827156803	-0.235646
C	-1.3109963989	-0.8316847565	 0.0316997852	-0.119278
H	 0.572120331	 1.8104150757	 0.1640577438	 0.28529
H	 1.1189307297	-1.6088467439	-0.7977811158	 0.131743
H	 0.8512444626	-0.2984979939	-1.947146884	 0.138768
H	 4.2665702992	 1.0902532083	 0.1091212013	 0.198997
H	 0.349299067	-1.4366776674	 1.6458461917	 0.08296
H	-1.7923175761	-0.5839689884	 2.9083325225	 0.100193
H	-1.2124172743	 1.0122146253	 2.3783960423	 0.099384
H	-3.2621217643	-0.7853424865	 1.0353015271	 0.100055
H	-2.7860433959	 0.8073296857	 0.3970104249	 0.112842
H	-1.462213664	-1.66190152	-0.6504736319	 0.080324
69.3632	106.7428	211.8759	228.9133	264.9699	337.1134	360.7238	378.9688	416.928	500.6377	590.046	620.9458	654.7661	700.4736	754.057	780.6884	842.7106	869.459	933.1603	942.6396	957.3793	986.0645	998.0036	1022.9089	1033.674	1098.0844	1105.7393	1154.563	1215.7915	1229.4255	1255.5225	1258.5749	1284.1376	1294.6218	1305.3078	1340.6813	1456.2859	1461.6222	1471.3913	1496.1638	2233.2824	3027.724	3061.0243	3067.7604	3070.6348	3108.1825	3126.9739	3157.6175	3169.8026	3505.0257	3770.1413
OC1(CC#C)C2CCC12	O[C@@]1(CC#C)[C@H]2CC[C@@H]12	
InChI=1S/C8H10O/c1-2-5-8(9)6-3-4-7(6)8/h1,6-7,9H,3-5H2	InChI=1S/C8H10O/c1-2-5-8(9)6-3-4-7(6)8/h1,6-7,9H,3-5H2/t6-,7+,8-
