21
gdb 89254	2.46495	1.76063	1.31827	1.7385	81.35	-0.2482	0.0736	0.3218	1065.1119	0.18176	-387.037421	-387.029047	-387.028103	-387.069692	33.526	
C	-0.2366817529	 1.5773431291	-0.0222615584	-0.417724
C	 0.0579165197	 0.0833736706	 0.0055179268	 0.046566
C	 1.1905705009	-0.4890886977	-0.9136064854	-0.310148
C	 1.8129771076	-1.2373496863	 0.3078267138	 0.33343
C	 1.9851251831	-2.7378034802	 0.2550289037	-0.497948
C	 2.922737739	-0.4531556624	 1.0645281288	-0.034514
O	 2.6567494436	 0.9459935201	 0.9430445309	-0.237635
C	 1.9256360383	 0.2042289725	 1.9306345373	 0.013768
C	 0.7600699499	-0.5497422556	 1.2471746239	-0.130096
H	 0.6736050324	 2.1608546476	 0.13042307	 0.140569
H	-0.6715573588	 1.8686456043	-0.9851443988	 0.108633
H	-0.9556121067	 1.8505711192	 0.7589101399	 0.105407
H	-0.8710419914	-0.4683930308	-0.1762941651	 0.069372
H	 0.8384082368	-1.1523184447	-1.7083789448	 0.089803
H	 1.8412405906	 0.2728822666	-1.3466605919	 0.107945
H	 2.7761514029	-3.0203797924	-0.4508609333	 0.118338
H	 2.2562395668	-3.1441808431	 1.2367213619	 0.114956
H	 1.0618445458	-3.2315678074	-0.0662224254	 0.118264
H	 3.9541603969	-0.7423991056	 1.2427320714	 0.095555
H	 1.9949559625	 0.5658727259	 2.9508866525	 0.100987
H	 0.1585930732	-1.1435140297	 1.9386482424	 0.064473
136.6584	211.0882	218.8821	231.851	239.8075	270.8284	325.678	389.42	485.0515	532.7135	644.2428	682.4497	786.4827	799.0934	825.7078	845.942	869.6908	884.3341	911.2602	928.4201	958.5121	990.6369	1011.8156	1047.2901	1074.0035	1102.7569	1127.8792	1157.3777	1185.1006	1205.4989	1218.4896	1243.8634	1251.5801	1266.5429	1313.6951	1328.7043	1361.4478	1379.4707	1403.6466	1411.0876	1470.791	1490.7259	1492.5868	1492.7949	1509.5131	3016.564	3027.4582	3035.7834	3059.3986	3077.3743	3084.7208	3090.2605	3091.0801	3121.1151	3131.1297	3156.3873	3176.8664
CC1CC2(C)C3OC3C12	C[C@H]1C[C@@]2(C)[C@H]3O[C@H]3[C@@H]12	
InChI=1S/C8H12O/c1-4-3-8(2)5(4)6-7(8)9-6/h4-7H,3H2,1-2H3	InChI=1S/C8H12O/c1-4-3-8(2)5(4)6-7(8)9-6/h4-7H,3H2,1-2H3/t4-,5+,6-,7-,8+/m0/s1
