25
gdb 39677	3.9867	0.90627	0.78256	0.0664	92.61	-0.2813	0.0829	0.3643	1559.3267	0.231649	-352.367455	-352.358323	-352.357378	-352.402745	34.765	
C	-0.1068496313	 1.5152277512	-0.1663263568	-0.212989
C	 1.4451554214	 1.5316653499	-0.1596011322	-0.233437
C	 1.4215278701	 0.1633441463	 0.5838499869	 0.051417
C	-0.0510215375	-0.0114664175	 0.1077720854	-0.233416
C	 2.4512839509	-0.8960640125	 0.2317078187	 0.029969
C	 3.8990697912	-0.5492040022	 0.6280523975	-0.207471
C	 4.6616315206	-1.8905926976	 0.5434666759	-0.206781
C	 3.5857381506	-3.00126402	 0.743350336	-0.206814
C	 2.2431439311	-2.256655515	 0.9241072368	-0.207557
H	-0.5209663112	 2.0641717855	 0.6845553259	 0.099231
H	-0.6156211774	 1.8514134963	-1.0730222962	 0.092862
H	 1.8525970008	 1.422505171	-1.1706904539	 0.094416
H	 1.9486052168	 2.3714909565	 0.3260922567	 0.091966
H	 1.4380587391	 0.3352298126	 1.668495739	 0.060199
H	-0.7718326761	-0.4343257799	 0.8122464929	 0.091967
H	-0.0974098012	-0.5886924055	-0.8222199698	 0.094419
H	 2.4219393968	-1.0561724939	-0.8579611641	 0.056414
H	 4.3409461838	 0.2319759699	 0.0024018454	 0.091829
H	 3.9042999707	-0.1739973173	 1.6601519677	 0.090052
H	 5.1378052667	-1.9962542016	-0.4365391429	 0.096426
H	 5.4628384406	-1.9500845034	 1.2854311406	 0.094322
H	 3.5454967521	-3.6530407171	-0.1351362134	 0.096442
H	 3.809471838	-3.6463152108	 1.5976662587	 0.094513
H	 2.0450050683	-2.0852530902	 1.9905378003	 0.090132
H	 1.390027015	-2.8148055248	 0.5271761952	 0.091887
28.2808	86.1177	100.5114	137.8009	169.5774	323.6571	357.2699	402.775	532.2489	626.7765	663.4608	758.5158	782.5108	810.7672	821.3148	884.3271	894.3147	904.8124	933.2348	940.9421	963.4232	966.7927	979.727	987.4145	1030.7295	1052.5928	1092.2135	1112.5748	1140.0752	1203.536	1204.9333	1209.8929	1227.2642	1250.1696	1253.7732	1257.3643	1263.058	1277.2187	1290.1203	1300.3584	1305.4122	1326.5814	1335.65	1345.948	1360.0553	1405.1423	1477.9473	1485.5347	1486.8137	1495.0689	1496.5065	1510.3372	1518.6397	2974.8145	3012.7252	3016.9296	3025.7827	3040.5839	3041.572	3045.3252	3054.0326	3055.5105	3071.7098	3082.5316	3085.1079	3091.9459	3096.6749	3101.3764	3113.2909
C1CC(C1)C1CCCC1	C1CC(C1)C1CCCC1	
InChI=1S/C9H16/c1-2-5-8(4-1)9-6-3-7-9/h8-9H,1-7H2	InChI=1S/C9H16/c1-2-5-8(4-1)9-6-3-7-9/h8-9H,1-7H2
