18
gdb 5863	4.17855	0.89851	0.88482	3.8623	80.23	-0.2619	-0.0567	0.2051	1386.5009	0.150127	-347.79565	-347.785758	-347.784813	-347.831729	34.251	
C	-0.0178786347	 1.5490598335	 0.0065369879	-0.394
C	-0.0004616646	 0.0037915644	 0.0064911024	 0.056366
C	 0.7539110189	-0.514910052	 1.2535924542	-0.393711
C	-1.448865157	-0.5398068763	 0.0087821294	-0.393706
C	 0.6839241609	-0.4819056323	-1.1945201957	 0.203827
C	 1.2446606469	-0.9041885755	-2.1789484508	-0.079965
C	 1.9194125636	-1.3645064757	-3.3634335513	 0.02026
O	 2.0874638653	-2.5276217636	-3.6535684575	-0.232007
H	 0.9982961074	 1.9529544499	 0.0007540668	 0.124834
H	-0.5438869979	 1.9356285677	-0.8707693053	 0.124856
H	-0.5286867368	 1.914938722	 0.903171828	 0.117202
H	 0.2501130146	-0.1637662287	 2.1599947669	 0.117828
H	 0.7773091796	-1.6076110599	 1.2707898603	 0.131233
H	 1.7845281479	-0.1501179728	 1.2692559287	 0.126489
H	-1.9999382468	-0.1934410252	-0.8697669665	 0.126515
H	-1.4569165449	-1.6328711178	 0.0086837804	 0.131229
H	-1.9716668364	-0.1884079184	 0.9042614687	 0.117781
H	 2.2901022242	-0.5496234794	-4.0188992167	 0.094968
14.735	86.2649	105.6793	202.4297	213.9226	257.7178	271.1985	274.8495	326.4378	353.3334	361.4316	533.2815	566.6672	574.8516	721.562	844.2795	934.3299	934.9233	966.974	1023.3048	1046.9055	1050.3979	1076.2194	1219.1953	1221.6158	1287.0576	1396.0201	1397.5408	1423.8555	1430.1223	1473.6883	1485.4389	1485.7794	1497.9289	1498.2952	1518.8144	1764.7909	2320.486	2912.8752	3036.4634	3037.7533	3043.0418	3109.922	3111.8271	3116.7813	3118.6596	3123.0886	3125.4463
CC(C)(C)C#CC=O	CC(C)(C)C#CC=O	
InChI=1S/C7H10O/c1-7(2,3)5-4-6-8/h6H,1-3H3	InChI=1S/C7H10O/c1-7(2,3)5-4-6-8/h6H,1-3H3
