17
gdb 42475	4.49557	0.84602	0.78754	3.0689	76.74	-0.2466	-0.0616	0.185	1457.5164	0.132487	-421.769476	-421.760128	-421.759184	-421.804806	33.38	
O	 0.6655100169	 0.0246332318	-0.0779409932	-0.270534
C	 0.3776595381	 1.1978019284	-0.1118907438	 0.23367
C	 1.3223909523	 2.3049227208	-0.5909911018	-0.190879
O	 2.5634079911	 1.8453229057	-1.039051392	-0.226721
C	 3.5689070229	 1.8078543284	-0.0629784385	 0.128628
C	 3.7087757887	 0.614000508	 0.8450900654	-0.295394
C	 4.677217291	 0.8369685358	-0.2998506253	-0.286181
C	-0.9326515579	 1.6877900258	 0.2900146127	 0.248647
C	-2.0054511735	 2.1258333902	 0.6162638535	-0.410614
H	 0.8229929834	 2.810781464	-1.4290396681	 0.139692
H	 1.4107634794	 3.0504731851	 0.2154585519	 0.121408
H	 3.81693336	 2.7917280232	 0.3372907841	 0.085036
H	 4.0539138555	 0.7807172388	 1.8599875577	 0.108313
H	 2.9765191977	-0.1734564083	 0.7232433735	 0.152092
H	 4.5696884774	 0.1918187161	-1.164057843	 0.131304
H	 5.6928735112	 1.1490156703	-0.0850495375	 0.112688
H	-2.9592201943	 2.4928776758	 0.9097689245	 0.218844
47.4415	50.2647	108.0927	147.009	233.5795	250.2379	275.6624	392.6834	423.3647	538.6927	574.0348	595.5194	656.7442	710.2503	750.2717	811.35	818.9851	839.65	958.921	974.547	1030.9775	1056.5663	1071.7553	1079.0494	1122.1799	1142.3621	1196.8794	1199.21	1244.9289	1305.1225	1372.1608	1403.9322	1452.015	1454.7199	1497.471	1785.8929	2209.1628	2985.3454	3040.4496	3091.3418	3140.6427	3144.2426	3229.3392	3248.6448	3493.56
O=C(COC1CC1)C#C	O=C(COC1CC1)C#C	
InChI=1S/C7H8O2/c1-2-6(8)5-9-7-3-4-7/h1,7H,3-5H2	InChI=1S/C7H8O2/c1-2-6(8)5-9-7-3-4-7/h1,7H,3-5H2
