12
gdb 25369	4.01199	1.07487	0.84775	5.3088	76.23	-0.2709	-0.0961	0.1748	1229.7276	0.077986	-435.535399	-435.528133	-435.527189	-435.567692	25.835	
O	 0.0789285305	-0.0826995352	-0.0021656414	-0.256341
C	 0.0389265875	 1.123791852	 0.0083602538	 0.066816
C	 1.207374055	 2.0022847845	 0.0022944125	 0.253412
C	 1.299925578	 3.3726210526	 0.0126579483	-0.211943
C	 2.6815166575	 3.6828374509	-0.0004381653	-0.254063
C	 3.3329493523	 2.4746215424	-0.0181136212	 0.266797
O	 2.4473552084	 1.4484880872	-0.0166275796	-0.176289
C	 4.7112257507	 2.1618522169	-0.0365179763	 0.236518
N	 5.8470238218	 1.9373722603	-0.0514018315	-0.318508
H	-0.9175096434	 1.6884238343	 0.0240521401	 0.092542
H	 0.4725529779	 4.0650690286	 0.0279077342	 0.148042
H	 3.1478025939	 4.6547582055	 0.0024435265	 0.153015
123.6383	129.3737	151.877	226.3654	302.1395	485.9411	493.8957	554.9664	584.8348	648.1368	695.9608	781.3946	825.0869	888.9446	986.2783	998.3167	1018.4587	1051.0568	1209.1423	1250.9928	1292.8996	1382.8088	1430.8993	1525.7491	1600.6032	1796.3775	2349.1712	2907.9269	3260.5639	3278.2967
O=CC1=CC=C(O1)C#N	O=Cc1ccc(o1)C#N	
InChI=1S/C6H3NO2/c7-3-5-1-2-6(4-8)9-5/h1-2,4H	InChI=1S/C6H3NO2/c7-3-5-1-2-6(4-8)9-5/h1-2,4H
