22
gdb 93493	2.62591	1.32356	0.94265	2.9883	83.5	-0.2236	-0.0102	0.2134	1289.6615	0.194669	-404.375662	-404.36653	-404.365585	-404.409312	35.129	
C	-0.5865237372	 1.2123313939	-0.0563342106	-0.415337
C	-0.1992835212	-0.2601914687	 0.1056124718	 0.066582
C	 0.3492758677	-0.7950814789	-1.235837633	-0.29209
C	 0.8448508545	-2.2260869766	-1.1417334072	 0.371248
O	 0.5435796798	-3.0830611459	-1.9394606019	-0.308774
C	 1.7433801203	-2.4757714106	 0.0538141453	-0.301941
C	 1.118543009	-1.8840010094	 1.3254890651	-0.149951
N	 0.8022096357	-0.4663379823	 1.1627942612	-0.07039
C	 0.422354571	 0.1155175937	 2.4439461605	-0.32594
H	 0.3086450202	 1.8321043279	-0.1752765568	 0.124477
H	-1.2073769754	 1.3326727161	-0.9488503269	 0.120195
H	-1.1601073484	 1.5895416253	 0.7933699573	 0.120175
H	-1.1205484399	-0.8318680244	 0.3442276629	 0.060707
H	-0.4114168235	-0.7350172063	-2.0176997464	 0.115501
H	 1.1987474172	-0.1635130669	-1.5304709439	 0.119178
H	 1.9236403341	-3.5482469831	 0.1565847132	 0.116718
H	 2.7021606411	-1.9742304286	-0.1301757682	 0.123024
H	 0.2188472579	-2.4728340151	 1.596367126	 0.085469
H	 1.8225343295	-1.9864904102	 2.1573510594	 0.10458
H	 1.2006561269	-0.1032300197	 3.1808914698	 0.119063
H	 0.3367019143	 1.2009508925	 2.368861846	 0.124302
H	-0.5342529636	-0.2796870628	 2.8365442366	 0.093204
78.3659	118.7579	190.858	218.8281	243.3329	301.7092	343.8063	382.0328	388.7292	435.0818	490.9939	500.1756	523.8819	685.7213	746.534	794.0697	840.8813	888.2785	949.1464	974.4143	1012.2666	1053.3314	1075.0604	1105.7794	1128.2628	1152.8875	1157.9951	1171.7134	1245.2674	1246.1342	1267.8118	1298.8851	1306.5309	1338.3228	1365.348	1382.596	1402.9472	1407.6224	1449.7791	1461.5897	1464.3574	1488.6075	1492.6938	1506.3101	1507.8368	1515.0237	1821.5582	2878.1823	2900.2094	2927.1846	3022.6637	3034.6129	3040.8914	3065.0892	3077.668	3107.5201	3113.6839	3114.482	3117.107	3128.5991
CC1CC(=O)CCN1C	C[C@H]1CC(=O)CCN1C	
InChI=1S/C7H13NO/c1-6-5-7(9)3-4-8(6)2/h6H,3-5H2,1-2H3	InChI=1S/C7H13NO/c1-6-5-7(9)3-4-8(6)2/h6H,3-5H2,1-2H3/t6-/m0/s1
