14
gdb 33596	3.98953	1.52736	1.38072	4.6964	69.56	-0.2704	0.0113	0.2817	909.1263	0.102561	-399.475946	-399.469896	-399.468952	-399.506429	24.451	
N	 0.0681639968	-1.0581318276	-0.0417506942	-0.352694
C	 0.0159874498	 0.0987298718	-0.0327888917	 0.132203
C	-0.0539601532	 1.514551674	 0.0181832717	 0.278478
C	 0.1380141651	 2.4396159155	-1.1988712301	-0.145484
C	 1.0659916158	 2.5483898407	-0.0211807387	-0.166683
C	 0.0604136958	 3.5572430385	 0.610046993	-0.103849
C	-0.7738650527	 3.6058470515	-0.7120519816	 0.077701
O	-1.9336413143	 3.0348213324	-0.0726737918	-0.276079
C	-1.0066749162	 2.4417060522	 0.8474790044	-0.000951
H	 0.3133780445	 2.0469756834	-2.1903582615	 0.123628
H	 2.1316857473	 2.4016755787	 0.0668219886	 0.123417
H	 0.2556435327	 4.3951577448	 1.2718806544	 0.100313
H	-0.977168958	 4.4642195712	-1.3484520115	 0.102011
H	-1.4352596734	 2.0977643328	 1.785779049	 0.10799
145.0093	163.7654	452.1982	503.8564	519.5824	575.3696	626.2006	743.9635	775.627	813.3828	831.7571	842.1787	855.5898	884.029	900.1266	932.0566	947.2051	976.4382	1006.0861	1063.474	1087.8374	1128.9451	1151.6583	1172.8581	1189.7497	1218.0807	1254.8475	1266.0988	1312.3342	1385.212	2345.1657	3150.4788	3158.0372	3174.763	3223.9408	3241.0354
N#CC12C3C1C1C3OC21	N#C[C@]12[C@@H]3[C@H]1[C@H]1[C@@H]3O[C@@H]21	
InChI=1S/C7H5NO/c8-1-7-3-2-5(4(3)7)9-6(2)7/h2-6H	InChI=1S/C7H5NO/c8-1-7-3-2-5(4(3)7)9-6(2)7/h2-6H/t2-,3+,4+,5-,6+,7+/m0/s1
