23
gdb 96148	2.61995	1.3989	1.0028	1.1096	85.83	-0.234	0.0849	0.3189	1260.5753	0.207608	-388.290729	-388.282178	-388.281233	-388.323411	34.45	
C	 0.0076652345	 1.5535850286	 0.0896690974	-0.396913
C	-0.0060348228	 0.0313142311	-0.0115920299	 0.145685
C	 0.5451348946	-0.4642522206	-1.3643570007	-0.224876
C	 0.1467973094	-1.8920635905	-1.6951296786	-0.008531
C	 1.1503285137	-2.9141496998	-2.1734281923	-0.320003
C	 0.5539805367	-3.0324803492	-0.7914339261	 0.004332
C	 1.3626838376	-2.7608501196	 0.4653160039	-0.233276
C	 0.6582076153	-1.8033816397	 1.438519261	-0.058491
O	 0.77294185	-0.4372400369	 1.0857771957	-0.259304
H	 1.0245913071	 1.9356979695	-0.0473791575	 0.120695
H	-0.6350921058	 1.9991753994	-0.6753122729	 0.109054
H	-0.3451071701	 1.8711601947	 1.0741281323	 0.119198
H	-1.0426706574	-0.3306125353	 0.1042929144	 0.059028
H	 0.1929311544	 0.2001366489	-2.1631015265	 0.092387
H	 1.6353163899	-0.3560763279	-1.3310565827	 0.100752
H	-0.8496737813	-1.9783295857	-2.1216621654	 0.078809
H	 0.8512928186	-3.6253245337	-2.9360164051	 0.107553
H	 2.1873404388	-2.5990838971	-2.2435473886	 0.109272
H	-0.1960063284	-3.8100157616	-0.6681047138	 0.079176
H	 1.5640058662	-3.70819601	 0.9816647526	 0.093236
H	 2.339925973	-2.3284535332	 0.2223012071	 0.103587
H	-0.4028862464	-2.0866554166	 1.5436704652	 0.080758
H	 1.1200440824	-1.8779257747	 2.4293074505	 0.097871
121.0037	148.3853	222.582	265.7687	271.745	327.2405	351.0286	375.7905	422.5722	479.4177	549.9847	562.9057	746.109	793.2489	817.3977	858.9757	882.6021	893.2703	938.1169	950.1107	984.0723	1026.4133	1037.7191	1060.03	1079.4175	1108.6105	1132.2409	1139.9419	1154.5289	1159.9271	1182.5709	1239.6929	1252.7937	1259.431	1305.2889	1307.307	1352.7784	1374.6103	1382.441	1401.3826	1408.0118	1418.8996	1430.4609	1468.4094	1479.2339	1484.7879	1490.0369	1497.8976	1501.998	2948.9128	2964.2394	3022.8118	3026.3726	3041.1819	3062.5804	3065.2049	3071.6985	3111.8935	3123.1001	3123.2847	3124.5948	3136.1501	3207.9477
CC1CC2CC2CCO1	C[C@H]1C[C@H]2C[C@H]2CCO1	
InChI=1S/C8H14O/c1-6-4-8-5-7(8)2-3-9-6/h6-8H,2-5H2,1H3	InChI=1S/C8H14O/c1-6-4-8-5-7(8)2-3-9-6/h6-8H,2-5H2,1H3/t6-,7+,8-/m0/s1
