20
gdb 89185	2.50273	1.40961	1.16245	1.8168	76.38	-0.1944	0.0604	0.2548	1159.4485	0.1681	-440.223782	-440.214241	-440.213297	-440.25715	36.819	
C	-0.1942061621	 1.3982549747	 0.0453356626	-0.320723
N	 0.0601469369	-0.0304938827	 0.0743623613	-0.098843
C	 1.1155691337	-0.4924199144	-0.8862799921	-0.246855
C	 1.8984848046	-1.1271709813	 0.2508021499	 0.365994
O	 3.2679129543	-1.2337337646	 0.2082095738	-0.463341
C	 0.8841384627	-0.48834931	 1.2138332449	-0.183862
C	 1.0363105366	-1.9998789052	 1.1278872536	 0.302697
C	-0.0578283843	-2.9400869972	 0.6868152503	-0.464808
O	 1.8855874039	-2.5174511545	 2.1348977537	-0.483376
H	 0.7183038529	 2.015364017	 0.1448444304	 0.094678
H	-0.680134094	 1.6597106869	-0.9003340918	 0.120885
H	-0.8768006209	 1.6658841687	 0.859103583	 0.118086
H	 0.7518918244	-1.1371562963	-1.693766599	 0.102499
H	 1.6772617571	 0.3477031441	-1.3122743233	 0.112479
H	 3.5155704544	-1.806709205	 0.9469456182	 0.297659
H	 0.9615284187	 0.0710774256	 2.1405952049	 0.089336
H	-0.7151313245	-2.4467542518	-0.0318926387	 0.144569
H	 0.3584767876	-3.8484199135	 0.2402172895	 0.120674
H	-0.6717700279	-3.2366601304	 1.5466704737	 0.103056
H	 1.4021614457	-2.5342968702	 2.9675874955	 0.289199
125.5804	184.795	204.2147	222.4942	236.5134	253.2433	270.4777	309.8864	361.0868	404.7212	440.9677	447.0311	477.0331	528.4264	662.9691	691.268	740.5574	854.4147	907.4895	949.4617	965.2197	1002.4202	1034.131	1055.7438	1095.6561	1111.4056	1139.9486	1173.4785	1213.1422	1214.1945	1223.9045	1276.0205	1304.402	1317.4714	1400.3884	1426.4892	1448.5677	1462.5105	1484.3057	1491.3411	1496.452	1503.2544	1509.8191	2931.1673	3023.4077	3026.1581	3056.5257	3075.1314	3088.9249	3098.4868	3136.546	3164.1608	3758.6928	3805.3946
CN1CC2(O)C1C2(C)O	CN1C[C@@]2(O)[C@@H]1[C@]2(C)O	
InChI=1S/C6H11NO2/c1-5(8)4-6(5,9)3-7(4)2/h4,8-9H,3H2,1-2H3	InChI=1S/C6H11NO2/c1-5(8)4-6(5,9)3-7(4)2/h4,8-9H,3H2,1-2H3/t4-,5-,6+/m0/s1
