23
gdb 36977	5.5289	0.63513	0.60024	1.5782	86.83	-0.2406	0.0896	0.3302	1917.8895	0.20591	-388.261494	-388.251965	-388.251021	-388.29731	34.854	
C	-0.0570412505	 1.5629549066	 0.1688287776	-0.204893
C	-0.0780271634	 0.0675695463	-0.1753563795	-0.193846
C	-1.4779087336	-0.5183702112	-0.1618496298	 0.162165
C	-1.6320122299	-2.0554746504	-0.2129575029	-0.300507
C	-2.3730934304	-1.8828375624	 1.1272547734	-0.056514
O	-2.0893848511	-0.4695471522	 1.1548816736	-0.293559
C	 1.3404289349	 2.1438094362	 0.2069510123	 0.034464
C	 2.0098036021	 2.6129054581	-1.0616487677	-0.256447
C	 1.5700976417	 3.615063644	-0.0208402011	-0.276596
H	-0.6570007028	 2.1145676218	-0.5682001937	 0.086253
H	-0.5502536102	 1.7056885659	 1.1378002105	 0.118607
H	 0.3617673769	-0.0960435318	-1.168746506	 0.095222
H	 0.540904245	-0.4865264113	 0.5426456363	 0.092211
H	-2.1123782884	 0.0078948588	-0.8913952463	 0.067329
H	-2.2170703996	-2.4563351926	-1.041852602	 0.10768
H	-0.6860634351	-2.5973874352	-0.1444811815	 0.107797
H	-3.4522004767	-2.0816621799	 1.0895129865	 0.098443
H	-1.9500364851	-2.4040357299	 1.9941484193	 0.102309
H	 1.9969994752	 1.6739216385	 0.9360962466	 0.078865
H	 3.0716748624	 2.4338550913	-1.1903058065	 0.107685
H	 1.4382768497	 2.5610333093	-1.9832698898	 0.105816
H	 0.7064174362	 4.2324206006	-0.2465519512	 0.10894
H	 2.3317027225	 4.1185255196	 0.564528992	 0.108574
54.1009	60.5006	89.4837	116.6526	134.8224	239.8946	298.9992	390.6187	435.9616	469.3095	730.446	765.1081	775.565	815.1723	821.6906	836.6242	877.42	919.1605	931.4453	958.211	977.4655	1017.4764	1036.5714	1048.6301	1066.1229	1075.3677	1085.6468	1111.4186	1140.8342	1163.2629	1191.3843	1198.5995	1219.2363	1228.2748	1235.1338	1255.596	1271.9281	1299.3499	1322.9596	1355.7087	1372.7666	1408.1792	1419.5334	1467.843	1471.8693	1490.27	1494.3715	1507.6195	1532.7834	2981.7379	3009.1373	3011.0292	3015.9127	3047.3904	3051.5432	3068.6488	3074.3438	3125.3129	3127.5454	3130.5584	3131.9895	3202.9898	3218.4388
C(CC1CCO1)C1CC1	C(C[C@H]1CCO1)C1CC1	
InChI=1S/C8H14O/c1-2-7(1)3-4-8-5-6-9-8/h7-8H,1-6H2	InChI=1S/C8H14O/c1-2-7(1)3-4-8-5-6-9-8/h7-8H,1-6H2/t8-/m0/s1
