21
gdb 88189	3.24912	1.18573	1.03072	1.2243	86.	-0.2206	0.0288	0.2494	1239.8399	0.183812	-387.092753	-387.084307	-387.083363	-387.125552	33.641	
O	-0.1065114299	 1.4353563936	-0.1089172563	-0.422348
C	-0.0463918655	 0.0416175904	-0.0088451017	 0.047564
C	-0.4687636678	-0.6395700377	 1.262345861	-0.376763
C	-1.3636731407	-0.6938456066	 0.0182253809	 0.320374
C	-2.6510837219	 0.1188919062	 0.0021640505	-0.268218
C	-3.8645618027	-0.7948482444	 0.2196581233	-0.21547
C	-3.9467034872	-1.8724965118	-0.8721105229	-0.246438
C	-2.6058344611	-2.5100428574	-1.130099385	-0.081571
C	-1.4539010774	-1.9843987629	-0.70924838	-0.09805
H	 0.5781295737	 1.8032260817	 0.4594831844	 0.287253
H	 0.7609957819	-0.4180774239	-0.580995774	 0.082666
H	 0.0513565463	-1.5398553306	 1.5722924953	 0.1087
H	-0.8090872456	-0.0035143726	 2.0734381998	 0.112423
H	-2.614354459	 0.9102261264	 0.7546054254	 0.09603
H	-2.7430968537	 0.6208343462	-0.9698686753	 0.10417
H	-3.7762880307	-1.2815821927	 1.1991864644	 0.098863
H	-4.7867381372	-0.2044696705	 0.2392987573	 0.088298
H	-4.6758845043	-2.6428155563	-0.5906000185	 0.098766
H	-4.3316295626	-1.4352412477	-1.8060816747	 0.106011
H	-2.596348674	-3.4457235053	-1.6838710444	 0.081249
H	-0.5175363706	-2.5048121842	-0.9021128195	 0.07649
79.4162	167.9764	203.0086	246.9026	280.0404	331.5677	368.8214	445.1435	461.8883	497.0516	557.9048	664.3629	712.5327	745.7742	812.4896	859.4025	876.0214	905.7546	915.3514	953.4513	988.9399	996.805	1015.4513	1043.2028	1065.6021	1081.6075	1100.2438	1149.0255	1167.6441	1192.5282	1231.5271	1267.1725	1284.2728	1298.517	1327.005	1368.2428	1370.904	1375.8396	1414.2913	1435.5987	1473.9282	1480.2479	1488.9877	1495.3396	1715.1435	2992.5837	3021.2118	3028.1942	3040.6984	3073.1929	3084.0265	3094.3728	3123.3469	3133.454	3161.0862	3214.798	3804.4168
OC1CC11CCCC=C1	O[C@H]1C[C@]21CCCC=C2	
InChI=1S/C8H12O/c9-7-6-8(7)4-2-1-3-5-8/h2,4,7,9H,1,3,5-6H2	InChI=1S/C8H12O/c9-7-6-8(7)4-2-1-3-5-8/h2,4,7,9H,1,3,5-6H2/t7-,8+/m0/s1
