20
gdb 60556	2.85829	1.21418	0.97896	1.8047	75.13	-0.2487	0.0644	0.3131	1251.7598	0.16944	-440.229455	-440.21994	-440.218996	-440.263795	35.979	
O	 0.219806589	 1.7853241628	 0.5699463865	-0.444567
C	 0.2309133081	 0.4465398782	 0.0882977572	 0.035474
C	 1.1080999982	 0.3184702605	-1.1364297891	 0.002574
C	 0.8140814352	-0.6815147827	-2.1822955305	-0.224933
N	 0.594317292	 0.7514745759	-2.4564902993	-0.342926
C	 0.6967577311	-0.4599077088	 1.2211967794	 0.40676
O	 0.6216706893	-1.8230476995	 0.8908065887	-0.466936
C	 1.8722433251	-0.0718723917	 2.0639440247	-0.287252
C	 0.4756985229	-0.0688500085	 2.6573934714	-0.338559
H	 0.2366144468	 2.3720745371	-0.1929005659	 0.292247
H	-0.7953965213	 0.1368833908	-0.1924794149	 0.04496
H	 2.1447877599	 0.6005061963	-0.9651130565	 0.10174
H	 1.6279568049	-1.13692955	-2.7378394066	 0.123443
H	-0.0505993301	-1.3234772337	-2.0404944556	 0.109147
H	-0.4030827194	 0.9501689788	-2.3869010238	 0.225168
H	-0.298148836	-2.096885287	 0.9789822753	 0.280311
H	 2.5429495645	-0.8721858619	 2.3530993374	 0.119118
H	 2.3357050448	 0.8888247145	 1.8746635481	 0.123993
H	 0.0144846758	 0.8887531916	 2.8632972135	 0.132746
H	 0.2254012092	-0.8725228927	 3.34145317	 0.107492
62.7619	90.0181	152.8251	236.5602	258.3749	278.0857	293.9775	310.6204	356.5764	382.3611	467.5494	507.2809	555.6448	747.0115	782.2886	819.6721	855.0633	906.6886	932.0908	942.2246	945.9321	976.0347	1004.5816	1053.9048	1056.0107	1084.2368	1089.5159	1123.393	1162.4663	1184.507	1198.8115	1243.9686	1260.0047	1272.5715	1283.4376	1296.8095	1328.2646	1383.382	1408.1641	1435.0364	1443.8024	1491.6319	1513.6384	2899.1106	3117.7556	3135.6952	3140.4904	3146.6031	3202.668	3232.9487	3245.3805	3465.039	3791.4428	3820.8618
OC(C1CN1)C1(O)CC1	O[C@@H]([C@H]1CN1)C1(O)CC1	
InChI=1S/C6H11NO2/c8-5(4-3-7-4)6(9)1-2-6/h4-5,7-9H,1-3H2	InChI=1S/C6H11NO2/c8-5(4-3-7-4)6(9)1-2-6/h4-5,7-9H,1-3H2/t4-,5+/m1/s1
