16
gdb 99794	2.51899	0.97279	0.84565	3.4091	74.62	-0.2703	-0.0026	0.2677	1428.2903	0.121047	-437.858605	-437.848273	-437.847328	-437.895952	35.506	
C	 0.0032101642	 1.5024550379	 0.0359645953	-0.503997
C	 0.0072548528	 0.0484077098	 0.021599005	 0.142195
C	-0.0041567833	-1.1542242925	 0.0286413245	 0.069612
C	 0.02732333	-2.612001392	-0.018248412	-0.008115
O	-1.2758636574	-3.1383178185	 0.1299180608	-0.431012
C	 0.6199509319	-3.1085393611	-1.3716388179	-0.10282
O	 0.4963493579	-4.5137757928	-1.4591854956	-0.424194
C	 0.9092599736	-3.1434936014	 1.0645251676	 0.247568
N	 1.6085883473	-3.6265352576	 1.8479777443	-0.341893
H	 0.6486483598	 1.888182287	 0.8319580221	 0.162101
H	 0.36003929	 1.9100811534	-0.9156224876	 0.156428
H	-1.007817267	 1.8862213468	 0.2080366186	 0.163193
H	-1.2269200651	-4.03769898	-0.2301271031	 0.296842
H	 0.006158258	-2.6831825303	-2.1687780767	 0.140926
H	 1.6537270235	-2.7632470434	-1.4840939084	 0.126023
H	 1.1661191737	-4.9135164252	-0.8906804369	 0.307145
11.7231	79.6421	94.3692	112.4626	182.2948	219.9303	274.5471	322.2103	348.3902	398.867	434.0316	466.5091	505.4452	535.0821	556.3322	613.6676	728.608	889.1257	929.7839	1045.9456	1050.5067	1055.9482	1084.9652	1096.6702	1190.3088	1240.2407	1364.9653	1403.1502	1411.7474	1420.763	1473.6512	1474.7115	1486.0062	2346.1394	2380.315	3034.1374	3044.971	3098.8534	3100.3116	3122.5193	3714.9377	3788.7715
CC#CC(O)(CO)C#N	CC#C[C@@](O)(CO)C#N	
InChI=1S/C6H7NO2/c1-2-3-6(9,4-7)5-8/h8-9H,5H2,1H3	InChI=1S/C6H7NO2/c1-2-3-6(9,4-7)5-8/h8-9H,5H2,1H3/t6-/m0/s1
