18
gdb 77949	2.55803	1.63744	1.14584	3.0872	72.79	-0.2405	0.0733	0.3139	1077.5404	0.146659	-438.972339	-438.964404	-438.963459	-439.004409	31.365	
C	 0.1017895143	 1.4112189967	-0.3541730986	-0.333381
N	 0.0646900783	-0.0111872858	-0.0205482594	-0.139562
C	-1.042987691	-0.5234871138	 0.8939730422	-0.199515
C	-0.1085891269	-1.7696171559	 1.1023986828	 0.204371
O	 0.0958882897	-2.6296487954	 0.0393255256	-0.453607
C	 0.8008575371	-0.4939487859	 1.2247358564	-0.199511
C	-0.3160185005	 0.1048656643	 2.0913570009	 0.533166
C	-0.4911023681	 1.2537244766	 2.9648891081	-0.305698
O	-0.558665171	-0.1011092985	 3.4624397568	-0.294286
H	 1.0760751922	 1.6375440324	-0.7992037446	 0.12644
H	-0.6630034408	 1.6095491267	-1.1119751324	 0.126439
H	-0.0604911283	 2.0983881497	 0.4866381411	 0.110467
H	-2.0942986667	-0.4886457587	 0.6075135709	 0.089864
H	-0.2629481152	-2.3448488371	 2.0142437768	 0.113069
H	 0.2231199202	-2.0418208283	-0.7223982967	 0.284256
H	 1.884574841	-0.4249024636	 1.3212681301	 0.08986
H	 0.3741265573	 1.8251347905	 3.2980486836	 0.123815
H	-1.4354576413	 1.7961688659	 2.9734558865	 0.123815
161.9074	172.6082	221.7128	232.3092	273.0094	344.6565	387.0562	438.8412	492.8214	619.1293	626.5562	690.8965	772.7713	782.3272	786.6088	858.2976	881.9195	898.4494	994.7241	1050.1225	1104.632	1111.9004	1118.4817	1120.5029	1132.6758	1142.2144	1161.0555	1177.131	1187.1623	1203.8793	1224.3926	1253.7212	1316.0441	1441.3636	1453.2217	1470.6176	1489.3774	1500.8146	1555.5418	3010.5851	3077.0452	3083.8147	3102.0196	3118.4685	3122.3663	3141.3616	3168.9876	3699.8739
CN1C2C(O)C1C21CO1	CN1[C@H]2[C@@H](O)[C@@H]1[C@]12CO1	
InChI=1S/C6H9NO2/c1-7-4-3(8)5(7)6(4)2-9-6/h3-5,8H,2H2,1H3	InChI=1S/C6H9NO2/c1-7-4-3(8)5(7)6(4)2-9-6/h3-5,8H,2H2,1H3/t3-,4+,5-,6-
