17
gdb 117316	2.59662	1.12236	0.80876	4.7138	67.11	-0.2556	-0.0007	0.2549	1376.9793	0.133847	-492.311563	-492.301396	-492.300452	-492.34846	34.536	
C	-0.4826954803	 0.1514876234	 2.1541960815	-0.23221
O	-0.9360999679	-0.5019877212	 0.9884326908	-0.225533
C	 0.0562990091	-0.7433912777	 0.0147202119	-0.145048
C	 0.5804089234	-2.165556173	 0.0287621922	 0.396139
N	 0.6744940403	-2.8547536339	-1.0162257329	-0.491743
O	 0.928898063	-2.5117143131	 1.340966274	-0.277928
C	 1.4249044135	-3.7489416246	 1.6693455832	 0.506457
N	 1.6051372721	-3.8013151267	 3.0152127002	-0.552979
O	 1.6909714771	-4.6390857994	 0.8979217297	-0.380353
H	-0.0243421374	 1.1244614224	 1.9194466373	 0.109066
H	-1.3595705245	 0.3212327568	 2.7840934716	 0.128866
H	 0.2470602155	-0.449986697	 2.7120199266	 0.103288
H	-0.3800897139	-0.585988344	-0.9744040331	 0.140659
H	 0.9021830311	-0.0487148927	 0.1323130459	 0.107218
H	 1.083454471	-3.7696537839	-0.8273077811	 0.262843
H	 1.1948587091	-3.0990851599	 3.6054606026	 0.274066
H	 1.8368739688	-4.6969090257	 3.4086125296	 0.277194
30.3932	60.6526	91.7563	96.8052	153.0622	203.1315	266.0425	275.1163	371.4434	431.9061	445.8698	507.3178	532.7321	624.4853	710.7183	773.9578	822.8894	950.0966	968.9753	999.9499	1039.2682	1071.9045	1112.6812	1163.818	1179.9505	1216.9158	1288.547	1318.6687	1374.9666	1390.1392	1468.9844	1484.0237	1488.6886	1511.2506	1608.0321	1749.2317	1847.5716	2983.389	2994.6793	3043.7477	3108.7481	3114.8776	3499.905	3620.6868	3753.8459
COCC(=N)OC(N)=O	COC[C]([NH])OC(=O)N	
InChI=1S/C4H8N2O3/c1-8-2-3(5)9-4(6)7/h5H,2H2,1H3,(H2,6,7)	InChI=1S/C4H8N2O3/c1-8-2-3(5)9-4(6)7/h5H,2H2,1H3,(H2,6,7)
