20
gdb 94772	3.65244	1.13073	0.99527	2.6466	81.41	-0.2529	-0.0261	0.2268	1246.7325	0.171661	-403.159609	-403.151134	-403.15019	-403.192572	32.598	
C	 0.0214236707	 1.5632153185	 0.0440616427	-0.404013
C	 0.0469005857	 0.0338816488	 0.0185116164	 0.037917
C	 0.7885829405	-0.5649210309	-1.2041420498	-0.234651
C	 1.2880947297	-1.9589429902	-0.7612903258	-0.280688
C	 1.4920908265	-1.8170429758	 0.733960643	 0.252837
N	 2.2097844953	-0.5730847436	 1.1263597936	-0.364626
C	 0.7544388453	-0.5955350987	 1.2128577655	-0.086505
C	 1.5867976894	-2.9855126369	 1.6289509886	 0.075413
O	 1.4974839319	-4.13651967	 1.2776472711	-0.264502
H	 1.0402015401	 1.9602771492	 0.0939102688	 0.131259
H	-0.4551953574	 1.9610593412	-0.8577529231	 0.11685
H	-0.5345498415	 1.9425862496	 0.9081095244	 0.110199
H	-0.9850591338	-0.3427675211	 0.0324643892	 0.078139
H	 0.1496257308	-0.6097010563	-2.0897407559	 0.098844
H	 1.6441115368	 0.0702690818	-1.4482915346	 0.119215
H	 0.5366134295	-2.7368902915	-0.9313768111	 0.11929
H	 2.199210063	-2.2659271342	-1.282029473	 0.112581
H	 2.6170219791	-0.6924826117	 2.0534869496	 0.23493
H	 0.2866661966	-0.5726728315	 2.1939887441	 0.092636
H	 1.7520474917	-2.7157995871	 2.7018377461	 0.054874
89.743	157.3219	174.8957	221.2644	249.9545	293.1037	363.9541	390.5074	475.3604	529.9622	598.6	643.5709	740.6534	814.8655	823.2252	851.398	927.2711	956.5412	964.697	976.3634	1004.8651	1034.8823	1065.29	1102.1604	1114.9434	1132.4481	1154.5639	1226.1676	1227.877	1264.2127	1294.0616	1318.7185	1346.2088	1365.7975	1381.5031	1403.1044	1417.4463	1440.5771	1483.2942	1495.2965	1498.4256	1501.9496	1811.2751	2822.2832	3014.0076	3031.9109	3057.1073	3065.2608	3096.2891	3097.5824	3108.584	3113.9785	3145.0505	3470.0433
CC1CCC2(NC12)C=O	C[C@H]1CC[C@]2(N[C@@H]12)C=O	
InChI=1S/C7H11NO/c1-5-2-3-7(4-9)6(5)8-7/h4-6,8H,2-3H2,1H3	InChI=1S/C7H11NO/c1-5-2-3-7(4-9)6(5)8-7/h4-6,8H,2-3H2,1H3/t5-,6-,7-/m0/s1
