18
gdb 107120	3.67788	1.11391	1.0723	2.9856	72.24	-0.2242	0.0533	0.2774	1198.7011	0.145491	-438.97994	-438.971308	-438.970364	-439.013148	32.878	
C	-0.1759222526	 1.516372954	 0.010244237	-0.507061
C	 0.1255276394	 0.0562681783	 0.0487580791	 0.440354
O	-0.7072767108	-0.8231384633	 0.8044534406	-0.255345
C	 0.7006896482	-0.8445714554	 1.0511761476	-0.10883
C	 1.418280325	-1.6743358373	-0.0768370485	 0.294659
C	 2.7721071257	-2.2926664448	 0.0392512726	-0.185631
O	 2.7837140614	-3.4197955147	 0.9027554599	-0.411479
N	 0.3569431732	-2.1928802711	-0.9834175383	-0.357655
C	 0.8149037993	-0.7865947779	-1.0968633846	-0.235302
H	 0.689666335	 2.0824307338	-0.3499744708	 0.1251
H	-1.0161048591	 1.7214670984	-0.6629148324	 0.135718
H	-0.4396958073	 1.8761675252	 1.0081306728	 0.138478
H	 1.0499881955	-0.6854144099	 2.0646815975	 0.110863
H	 3.1465861251	-2.5435998604	-0.9679796754	 0.085202
H	 3.4803607298	-1.5803743855	 0.4783993245	 0.115533
H	 2.0675629897	-4.0033175201	 0.6294462477	 0.290691
H	 0.8386179167	-2.7023080477	-1.7278127985	 0.225237
H	 1.2394193357	-0.3933865115	-2.0122863608	 0.099469
84.0294	112.921	194.0253	211.1934	279.0382	291.8846	361.7417	392.3821	443.6927	475.4223	574.1658	648.1725	700.3293	773.2271	792.61	856.6657	876.6316	914.2506	928.855	982.059	992.6183	1031.8739	1046.9618	1066.4454	1088.8401	1121.7261	1171.5957	1189.1141	1217.304	1265.1623	1327.8927	1360.0378	1398.9425	1409.7781	1442.2601	1467.5382	1485.1459	1495.4977	1497.3378	2958.2243	3032.6455	3056.6522	3094.1625	3121.9644	3188.6629	3193.4146	3438.5919	3809.2779
CC12OC1C1(CO)NC21	C[C@]12O[C@H]1[C@@]1(CO)N[C@@H]21	
InChI=1S/C6H9NO2/c1-5-3-6(2-8,7-3)4(5)9-5/h3-4,7-8H,2H2,1H3	InChI=1S/C6H9NO2/c1-5-3-6(2-8,7-3)4(5)9-5/h3-4,7-8H,2H2,1H3/t3-,4+,5+,6-/m0/s1
