21
gdb 82581	2.20371	2.16857	1.68348	0.7707	87.23	-0.212	0.004	0.216	948.835	0.184698	-349.90851	-349.901216	-349.900271	-349.939619	30.667	
C	-0.478858331	 1.5223387553	 0.1431217068	-0.413492
C	 0.0045076841	 0.0841460529	 0.0153378051	 0.031434
C	 0.6247415541	-0.4356773053	-1.3425610722	-0.052997
C	 1.6000166378	 0.4932294242	-2.1625081203	-0.298623
C	 2.4938291568	 0.3479877577	-0.94436679	 0.170944
C	 2.7641447178	 1.1814531271	 0.063672239	-0.157198
C	 2.2812689447	 0.5722172114	 1.3799076169	-0.254566
C	 1.2451417622	-0.4567164677	 0.8604394647	-0.053362
C	 1.8243405761	-0.9407073178	-0.4835982907	-0.062053
H	 0.3064454199	 2.245691659	-0.0925776583	 0.120667
H	-1.3180333724	 1.7067250428	-0.5376380544	 0.111838
H	-0.8307183696	 1.7299624081	 1.1603252221	 0.112736
H	-0.837669885	-0.5791986031	 0.2380721296	 0.07659
H	-0.0223867109	-1.0896250033	-1.9325628478	 0.06265
H	 1.9276936367	-0.0422251059	-3.0609414902	 0.104279
H	 1.2924241881	 1.5063046777	-2.4361026744	 0.100887
H	 2.9943952373	 2.2370476878	-0.0385396036	 0.087135
H	 3.0617632821	 0.0871286061	 1.9843142081	 0.098637
H	 1.8323379196	 1.3437444572	 2.0171971138	 0.100632
H	 0.9545784349	-1.2007248102	 1.6079783972	 0.051622
H	 2.3260798667	-1.8982227139	-0.6313984615	 0.06224
179.1582	203.5471	218.9658	283.7056	367.1524	415.0228	495.147	563.2204	656.7566	694.4367	716.81	777.9289	808.9315	843.1912	874.9175	884.3058	898.3637	930.1315	936.4606	964.3127	979.283	1012.461	1048.1627	1067.4611	1090.502	1102.4599	1124.7427	1139.354	1173.6654	1194.3461	1208.192	1222.7591	1245.3158	1266.1938	1291.4899	1298.8854	1317.376	1338.7283	1356.4482	1403.3565	1474.9543	1483.1872	1489.3627	1504.6641	1679.7389	2997.2514	3025.6814	3034.0809	3039.5268	3050.1366	3062.3836	3070.7854	3084.79	3095.8128	3097.5238	3110.2823	3179.4258
CC1C2CC3=CCC1C23	C[C@H]1[C@H]2C[C]3[CH]C[C@@H]1[C@@H]23	
InChI=1S/C9H12/c1-5-7-3-2-6-4-8(5)9(6)7/h2,5,7-9H,3-4H2,1H3	InChI=1S/C9H12/c1-5-7-3-2-6-4-8(5)9(6)7/h2,5,7-9H,3-4H2,1H3/t5-,7+,8-,9+/m1/s1
