19
gdb 98354	2.38291	0.99848	0.74112	1.5122	73.98	-0.2585	-0.029	0.2295	1526.9372	0.154909	-460.210993	-460.200381	-460.199437	-460.248505	36.115	
C	-0.3013684675	 1.400409986	-0.5500141731	-0.382157
C	-1.0906665869	 0.102559992	-0.6974807296	-0.281019
C	-1.2446273386	-0.6505112107	 0.6083602169	 0.362183
O	-0.8100861456	-0.2450111332	 1.6609111277	-0.304455
C	-1.9634643091	-2.0145319903	 0.5814070781	 0.009783
C	-2.9028490547	-2.1908484259	 1.7686682488	-0.39032
O	-2.6861821687	-2.1576620418	-0.6512407141	-0.185504
C	-2.5433578148	-3.3013625029	-1.3512242203	 0.170429
O	-3.1284863649	-3.5129754151	-2.3686693607	-0.26908
H	-0.2199494392	 1.9095922389	-1.5138893128	 0.115826
H	-0.7883137108	 2.0750751599	 0.1585216503	 0.133898
H	 0.7063431672	 1.2071506222	-0.1732976309	 0.130672
H	-2.0962239845	 0.278182883	-1.100166716	 0.146947
H	-0.6250574069	-0.574099894	-1.4272935641	 0.127219
H	-1.1680009937	-2.7749103405	 0.6179068249	 0.115453
H	-3.7515121348	-1.5066198825	 1.6833109514	 0.139458
H	-3.2846643899	-3.214283221	 1.8088909355	 0.123989
H	-2.363008077	-1.9671437314	 2.690228134	 0.154687
H	-1.8269193597	-4.0035601626	-0.8801018859	 0.08199
29.4828	42.3341	82.9864	144.1709	179.1648	189.9422	219.6007	235.2151	293.5436	334.4757	412.8092	437.3977	502.7235	633.8996	666.0474	767.6965	806.2193	918.023	990.508	1013.036	1028.6611	1044.8927	1100.5156	1113.0759	1129.5917	1172.1836	1193.7689	1269.7656	1315.9807	1352.2945	1374.0501	1401.594	1415.1828	1433.7277	1438.9808	1488.0754	1492.858	1495.0955	1497.5335	1809.3269	1870.1902	2940.5625	2993.4715	3028.3834	3053.2128	3053.9138	3058.6688	3125.778	3127.0232	3128.0466	3151.4178
CCC(=O)C(C)OC=O	CCC(=O)[C@@H](C)OC=O	
InChI=1S/C6H10O3/c1-3-6(8)5(2)9-4-7/h4-5H,3H2,1-2H3	InChI=1S/C6H10O3/c1-3-6(8)5(2)9-4-7/h4-5H,3H2,1-2H3/t5-/m1/s1
