18
gdb 24417	3.4907	1.51102	1.09379	1.9277	78.36	-0.1959	0.0444	0.2403	1080.0443	0.151585	-401.98944	-401.982263	-401.981319	-402.020902	28.737	
C	-0.0146501351	 1.4044370379	 0.0086707458	-0.074466
C	 1.4217481698	 1.9513346437	 0.0290805076	-0.336414
C	 2.2065580996	 1.2529199978	-1.042586619	 0.253566
C	 1.7366238839	 0.0860178931	-1.5964426125	 0.228668
C	 0.449554794	-0.5756180853	-1.2143508656	-0.192036
O	-0.0426125263	-0.0187009207	-0.0075810995	-0.244243
N	 2.6313871056	-0.3260776109	-2.5509466782	-0.336791
C	 3.6790075019	 0.5658975523	-2.607784059	-0.080924
C	 3.4439348277	 1.5559098814	-1.6831101422	-0.287316
H	-0.5656939149	 1.6996931654	 0.9058711512	 0.104366
H	-0.5505422281	 1.8016512356	-0.869046012	 0.088188
H	 1.3968610215	 3.0372713926	-0.1255835312	 0.100101
H	 1.8644256576	 1.7848085063	 1.0202735123	 0.109898
H	-0.3058241291	-0.4758937187	-2.0166352294	 0.093527
H	 0.5760959217	-1.6487454709	-1.0228301449	 0.112193
H	 2.5495606082	-1.1555353157	-3.1124519939	 0.256761
H	 4.4953563131	 0.4168558653	-3.2959127166	 0.115705
H	 4.0846055987	 2.4031724408	-1.489154103	 0.089219
109.9094	204.4279	269.171	328.93	364.4081	441.0182	459.7934	517.0183	629.1304	652.8859	691.9568	707.9393	744.1296	819.2004	861.8971	924.5071	938.9685	984.0229	1027.364	1074.5566	1091.8091	1110.9812	1118.7751	1182.2765	1213.7218	1233.8066	1256.9038	1281.1613	1313.7964	1358.5601	1382.7903	1422.1623	1436.7745	1478.772	1491.3582	1495.76	1503.4644	1516.9014	1631.3235	2919.822	2971.856	3012.7752	3034.635	3050.3215	3088.4061	3240.3184	3269.1528	3678.717
C1CC2=C(CO1)NC=C2	C1Cc2c(CO1)[nH]cc2	
InChI=1S/C7H9NO/c1-3-8-7-5-9-4-2-6(1)7/h1,3,8H,2,4-5H2	InChI=1S/C7H9NO/c1-3-8-7-5-9-4-2-6(1)7/h1,3,8H,2,4-5H2
