16
gdb 66953	2.58864	1.94997	1.4195	2.3587	67.8	-0.2241	0.0424	0.2665	922.893	0.12407	-437.765287	-437.758148	-437.757204	-437.796511	28.75	
O	-0.0153722293	 1.3717928566	 0.1030533837	-0.45535
C	 0.0504074673	 0.0044624398	-0.0054018995	 0.225337
C	-0.909895875	-0.91363242	 0.7628432636	 0.055136
O	-1.062023301	-2.1237069999	 0.0209037946	-0.289282
C	 0.3754945133	-2.0380285883	-0.2301880204	-0.048915
C	 0.5603005865	-1.0559034811	 0.9898500035	-0.225883
C	 0.4857566772	-0.8401529775	-1.1835297793	 0.359553
C	 0.3106249572	-0.7033916383	-2.6334591102	-0.317485
N	 1.6622235363	-0.5977342711	-2.0057046547	-0.391974
H	 0.8807697984	 1.7217122131	 0.1686990297	 0.292932
H	-1.7165067205	-0.5556156509	 1.3893950147	 0.119829
H	 0.8678301002	-2.9888742724	-0.4166553883	 0.098984
H	 1.2017505876	-1.0284004409	 1.8592769227	 0.110109
H	 0.1695260392	-1.5800805198	-3.2590556435	 0.125568
H	-0.1542378471	 0.2054584438	-3.0068072458	 0.120481
H	 1.9307079997	 0.3841180068	-1.9534303608	 0.220957
164.1981	197.9868	231.713	297.7328	365.5845	385.87	512.0848	572.23	627.5865	648.5102	766.9505	791.2592	824.2193	856.0485	893.4056	917.2207	936.2178	946.7629	958.7795	983.3603	995.3088	1047.2768	1058.0009	1109.2273	1126.8017	1150.7788	1182.9189	1228.934	1248.0985	1259.7217	1302.2622	1322.772	1424.538	1463.6414	1522.7593	3110.1634	3162.444	3196.7238	3205.6391	3219.6387	3462.7185	3782.4478
OC12C3OC(C13)C21CN1	O[C@]12[C@H]3O[C@H]([C@@H]13)[C@]12CN1	
InChI=1S/C6H7NO2/c8-6-2-3(9-4(2)6)5(6)1-7-5/h2-4,7-8H,1H2	InChI=1S/C6H7NO2/c8-6-2-3(9-4(2)6)5(6)1-7-5/h2-4,7-8H,1H2/t2-,3-,4+,5+,6+/m1/s1
