23
gdb 101389	2.85903	1.07725	0.95534	1.2398	87.04	-0.2285	0.0369	0.2654	1377.7398	0.205318	-388.297966	-388.288165	-388.287221	-388.333078	36.308	
C	-0.0473693391	 1.4465946151	-0.0887689815	-0.233111
O	-0.0307937108	 0.0605531679	 0.1531755052	-0.242222
C	-1.2916490169	-0.5912842483	 0.0373228206	 0.116466
C	-1.7280730105	-0.7381404398	-1.4243366377	-0.407645
C	-1.1667732979	-1.9407971515	 0.7526492641	 0.024841
C	-0.055747281	-2.8753489856	 0.190565267	-0.262933
C	 0.484166572	-3.5557840575	 1.4246812265	-0.062624
C	 0.0488116881	-2.986090779	 2.5465175277	-0.061304
C	-0.8641287113	-1.8167417057	 2.2726429341	-0.276885
H	 0.9491826421	 1.8267228743	 0.151103207	 0.125818
H	-0.2682287706	 1.694173818	-1.1374021046	 0.105832
H	-0.7842946526	 1.9617938586	 0.5477217604	 0.101514
H	-2.0480032976	 0.0119135196	 0.5703917532	 0.058737
H	-0.9925257164	-1.3176729363	-1.989947117	 0.126661
H	-2.6928748495	-1.2522471559	-1.4826534462	 0.114324
H	-1.8434359321	 0.2345859845	-1.9106681236	 0.113011
H	-2.1300229271	-2.4516209484	 0.6400194461	 0.069465
H	-0.4417788596	-3.5835289864	-0.5516945325	 0.093734
H	 0.7319130072	-2.2940339962	-0.3062099987	 0.120338
H	 1.1805066429	-4.3860152805	 1.3729435615	 0.084963
H	 0.3353462586	-3.2805515125	 3.5504640488	 0.085074
H	-0.3548161171	-0.86860204	 2.4902071207	 0.11391
H	-1.7777461508	-1.8330492045	 2.8789497588	 0.092036
67.8309	77.2025	90.5582	185.8955	206.2861	224.5242	257.8259	337.0697	361.7216	394.0221	483.216	555.3974	650.5106	721.2536	780.9031	797.5897	861.8586	920.5564	942.5278	974.8692	976.6885	985.5799	990.8776	1039.6031	1071.5552	1122.4166	1131.4987	1135.4253	1159.6687	1178.2971	1183.5207	1201.2169	1233.2164	1294.5706	1308.2956	1319.3456	1352.481	1366.0219	1383.414	1389.9373	1399.823	1476.5792	1481.1438	1482.6445	1490.0522	1492.9574	1504.9018	1513.5096	1691.713	2941.4425	2974.624	3018.9452	3022.814	3023.5087	3028.4172	3041.0387	3051.672	3060.6823	3106.8119	3109.3592	3117.3639	3176.4749	3202.5446
COC(C)C1CC=CC1	CO[C@@H](C)[C@H]1CC=CC1	
InChI=1S/C8H14O/c1-7(9-2)8-5-3-4-6-8/h3-4,7-8H,5-6H2,1-2H3	InChI=1S/C8H14O/c1-7(9-2)8-5-3-4-6-8/h3-4,7-8H,5-6H2,1-2H3/t7-/m0/s1
