18
gdb 88233	4.6673	0.6602	0.62979	2.2851	85.48	-0.24	0.01	0.25	1800.3446	0.14643	-401.870397	-401.861061	-401.860117	-401.906729	32.99	
C	-1.2783533233	 0.1376315409	 0.5337901507	-0.425255
C	 0.0775080438	-0.1425870887	-0.055595661	 0.098405
O	 0.8705595461	 0.9766827161	-0.4396663698	-0.242194
C	 1.3465594906	 0.1599992463	 0.6489240903	-0.171486
C	 1.3827294518	 0.744392499	 1.9608174963	 0.081145
C	 1.4507042901	 1.2087292899	 3.0728487034	 0.135533
C	 1.5134239508	 1.7908264496	 4.3824746233	-0.16546
C	 2.823180966	 1.8571507062	 5.1015160303	-0.224836
N	 2.2141279798	 3.0844115298	 4.5865510686	-0.303145
H	-1.2201814689	 0.9272884748	 1.2854973511	 0.14133
H	-1.9732408787	 0.4514104414	-0.2518535533	 0.131095
H	-1.6834826334	-0.766030169	 1.0013800638	 0.123935
H	 0.116767654	-0.9706247549	-0.7669277201	 0.093694
H	 2.2177958466	-0.4415931411	 0.389083046	 0.111144
H	 0.6094943853	 1.7000380543	 4.9792374263	 0.119018
H	 2.832521725	 1.767460735	 6.1840123743	 0.127497
H	 3.6901506282	 1.4432362813	 4.5954485321	 0.125468
H	 2.6644486562	 3.3524599691	 3.7144064777	 0.244112
15.2319	76.4416	94.2312	153.5842	182.0634	233.0356	320.1886	389.2824	446.6459	513.8583	561.6457	573.3279	731.5763	777.6304	810.9568	835.4247	890.5587	947.194	962.4758	992.0282	1016.7229	1075.2665	1096.8447	1119.4661	1149.4542	1163.7534	1174.4004	1222.8481	1256.3098	1289.1496	1298.6999	1374.1515	1395.8297	1414.8439	1448.5507	1485.3966	1496.6504	1504.6073	2350.1352	3040.5202	3082.0726	3103.9371	3105.7768	3114.731	3138.4516	3138.7218	3205.6356	3504.9442
CC1OC1C#CC1CN1	C[C@H]1O[C@H]1C#C[C@H]1CN1	
InChI=1S/C7H9NO/c1-5-7(9-5)3-2-6-4-8-6/h5-8H,4H2,1H3	InChI=1S/C7H9NO/c1-5-7(9-5)3-2-6-4-8-6/h5-8H,4H2,1H3/t5-,6+,7+/m1/s1
