18
gdb 111049	2.85757	1.17784	0.98842	1.6559	73.33	-0.2365	-0.0433	0.1932	1220.5567	0.147402	-438.996194	-438.987721	-438.986777	-439.030175	31.208	
O	-0.0250524687	 1.3856930915	-0.1600572275	-0.415453
C	 0.098154748	 0.0178733729	 0.1890512794	-0.11381
C	-1.2728332027	-0.6323711612	 0.1408152701	 0.004142
N	-1.9643472349	-0.6430768627	-1.2481873977	-0.171683
C	-1.1165194419	-1.8994231041	-1.5519171663	-0.222379
C	-1.549296081	-2.1526123369	-0.0954496837	 0.196626
C	-2.9336838251	-1.6352375113	-0.5839286112	-0.207365
C	-1.2454138651	-3.316783916	 0.791436242	 0.02904
O	-0.5720220103	-4.2591181681	 0.4550403532	-0.241788
H	-0.543607853	 1.4154721556	-0.9737280238	 0.297436
H	 0.8344808471	-0.4952049895	-0.4440904171	 0.099228
H	 0.4806723121	-0.0129563991	 1.2153088532	 0.115652
H	-1.9152287863	-0.1479069155	 0.8835858931	 0.090129
H	-1.5568166097	-2.534007458	-2.3234457843	 0.116122
H	-0.0682292284	-1.7011354031	-1.7673516842	 0.118312
H	-3.6040720004	-1.1747250275	 0.1455123235	 0.113877
H	-3.4749842049	-2.2599290786	-1.2980748823	 0.116929
H	-1.692545205	-3.2597211084	 1.8113993538	 0.074986
56.9236	75.7246	149.0472	184.6633	244.5549	350.3035	406.5351	420.4238	505.1991	590.2439	608.9119	691.9704	746.9123	787.5579	864.2569	910.6164	918.2944	994.4042	1012.8264	1043.9907	1061.2158	1077.3832	1114.7852	1136.5524	1157.6582	1173.3849	1177.8378	1197.0274	1221.5375	1263.9832	1311.5228	1351.4958	1414.4029	1421.1302	1447.932	1502.669	1521.1458	1556.236	1816.5391	2858.694	3010.1479	3052.0117	3061.1545	3072.1244	3086.9299	3133.1883	3158.0557	3781.7019
OCC1N2CC1(C2)C=O	OC[C@H]1N2C[C@@]1(C2)C=O	
InChI=1S/C6H9NO2/c8-1-5-6(4-9)2-7(5)3-6/h4-5,8H,1-3H2	InChI=1S/C6H9NO2/c8-1-5-6(4-9)2-7(5)3-6/h4-5,8H,1-3H2/t5-/m1/s1
