16
gdb 43494	2.30432	1.91303	1.16107	2.1953	69.17	-0.2547	-0.0187	0.236	1021.177	0.126798	-437.959587	-437.952318	-437.951373	-437.992133	27.479	
O	-0.0553522973	 0.0443326354	 0.3706313072	-0.349595
C	-0.0340010186	 1.2208054137	 0.1118860686	 0.413132
N	-1.1604903055	 2.0331713297	-0.0144782847	-0.354349
C	-0.9131909034	 3.3700657319	-0.3250281499	 0.413117
O	-1.7605691952	 4.2129865123	-0.4764452704	-0.349589
C	 0.5982359024	 3.526638599	-0.3977930715	-0.148495
C	 1.2554594805	 4.0658379142	 0.9153733476	-0.22866
C	 1.8345496849	 2.650328332	 1.2030104606	-0.228665
C	 1.1749050687	 2.1168811853	-0.1112914558	-0.1485
H	-2.0974043157	 1.6750543436	 0.109209331	 0.271433
H	 0.8829670015	 4.0410299372	-1.3155437483	 0.110062
H	 2.0122422995	 4.8304704145	 0.7341294402	 0.120569
H	 0.5493685074	 4.4530674299	 1.6527394866	 0.124456
H	 2.9242978438	 2.6010366707	 1.1871345742	 0.120568
H	 1.4847154928	 2.1667686346	 2.1173439062	 0.124452
H	 1.8552046843	 1.6641690758	-0.8325270914	 0.110063
48.0899	129.5374	222.6653	232.7436	387.5395	491.354	589.1646	619.8528	673.1632	720.3003	735.6034	740.2734	808.6239	820.6164	826.76	914.4404	972.094	975.67	1015.3645	1040.1242	1107.5994	1171.1473	1196.8785	1218.801	1231.1047	1257.595	1268.8276	1287.2578	1312.5075	1332.1883	1357.5883	1483.6488	1500.438	1831.1012	1870.5923	3076.1777	3080.6069	3110.2622	3120.0648	3123.1594	3140.1661	3616.1899
O=C1NC(=O)C2CCC12	O=C1NC(=O)[C@H]2CC[C@@H]12	
InChI=1S/C6H7NO2/c8-5-3-1-2-4(3)6(9)7-5/h3-4H,1-2H2,(H,7,8,9)	InChI=1S/C6H7NO2/c8-5-3-1-2-4(3)6(9)7-5/h3-4H,1-2H2,(H,7,8,9)/t3-,4+
