16
gdb 127982	3.36494	1.30348	0.9507	3.1218	70.15	-0.2109	0.0336	0.2445	1194.136	0.123163	-471.19534	-471.185942	-471.184998	-471.231128	31.906	
C	 0.0416776866	 1.3781456298	-0.0174985391	-0.320942
N	 0.0123679374	-0.0772112631	-0.0339320968	-0.398786
C	-1.1103325391	-0.647056984	-0.0011603346	 0.546344
O	-2.3567525022	-0.0816707815	 0.0461589266	-0.264182
N	-3.3569522259	-1.1166348958	 0.0604877312	-0.268618
C	-2.661987181	-2.2050786966	 0.0269420566	 0.490103
O	-3.1663531166	-3.4386215238	 0.0258519072	-0.412364
N	-1.3159090915	-2.024432552	-0.0065812775	-0.187905
C	-0.2592904227	-3.0120429719	-0.0619377526	-0.338532
H	 1.0752660815	 1.7120928755	-0.1360296227	 0.118229
H	-0.5563964456	 1.8187022319	-0.8266106069	 0.121304
H	-0.3400097883	 1.7869073688	 0.9280469409	 0.120866
H	-4.1295186725	-3.3596882495	 0.0615354767	 0.327511
H	-0.69651445	-4.0004393845	 0.0794175324	 0.154662
H	 0.255496602	-2.9700670943	-1.026307232	 0.152382
H	 0.4693669481	-2.8088880889	 0.7264157806	 0.15993
37.2344	41.0932	116.6853	139.9708	173.9839	265.5431	275.7297	348.5293	371.7685	433.8905	583.0665	641.7812	671.3061	737.4482	752.4831	760.264	928.2076	970.7724	1081.1984	1123.0689	1142.2685	1163.1626	1173.0241	1215.1452	1301.3231	1359.6456	1446.0793	1452.7402	1479.0524	1490.69	1501.6501	1510.4041	1603.9576	1691.4395	1808.0852	2999.2653	3047.7551	3052.2878	3104.2111	3116.981	3162.7955	3786.4626
CN=C1ON=C(O)N1C	CN=c1onc(O)n1C	
InChI=1S/C4H7N3O2/c1-5-4-7(2)3(8)6-9-4/h1-2H3,(H,6,8)	InChI=1S/C4H7N3O2/c1-5-4-7(2)3(8)6-9-4/h1-2H3,(H,6,8)
