18
gdb 56503	2.60481	1.24798	1.04458	2.8742	77.93	-0.2765	0.0131	0.2896	1200.4388	0.143494	-401.929131	-401.918752	-401.917808	-401.963951	38.028	
C	 0.0318238528	 1.5637107426	 0.0279144359	-0.433477
C	 0.0101951917	 0.0218437312	 0.0345477033	-0.174798
C	 0.7624452435	-0.4992431366	 1.1724047386	 0.328433
C	 1.3993042472	-0.8982025596	 2.110138039	-0.454165
C	-1.4521967925	-0.5528118932	 0.0184199416	 0.197941
C	-1.4663026596	-2.0841202484	 0.0503047252	-0.408692
O	-2.2024244992	-0.1255454122	 1.1406505373	-0.438351
C	-2.1107879608	-0.0866638995	-1.2294861231	 0.256882
N	-2.6242231391	 0.2988227845	-2.1906767005	-0.343065
H	 1.0618155558	 1.9215090042	-0.030319162	 0.141526
H	-0.5208245964	 1.95710345	-0.829694491	 0.147388
H	-0.3981769536	 1.9648024281	 0.9508365393	 0.127455
H	 0.485485662	-0.3300759523	-0.8905697888	 0.125404
H	 1.9617133763	-1.2573753469	 2.9365198234	 0.201933
H	-1.0022558207	-2.4192434931	 0.9791980967	 0.152667
H	-2.4963851851	-2.4431460488	 0.0120937723	 0.143779
H	-0.913611842	-2.494655441	-0.7980580146	 0.132907
H	-2.3001271704	 0.832574751	 1.1079989773	 0.29623
58.9456	129.3138	171.9345	184.6545	206.1311	236.2908	250.6323	271.1827	323.9064	350.9542	378.8044	421.0076	496.9645	545.1657	590.0631	613.2297	633.4566	654.161	738.6962	843.9888	912.3082	952.8574	1021.54	1039.3409	1107.4633	1108.5027	1164.9131	1199.2245	1310.3278	1334.5288	1364.5602	1405.3573	1410.036	1480.6727	1491.3909	1494.5802	1507.1756	2237.1562	2348.319	3024.3808	3046.1525	3061.9421	3119.6339	3133.891	3142.6626	3154.607	3502.3369	3811.401
CC(C#C)C(C)(O)C#N	C[C@@H](C#C)[C@@](C)(O)C#N	
InChI=1S/C7H9NO/c1-4-6(2)7(3,9)5-8/h1,6,9H,2-3H3	InChI=1S/C7H9NO/c1-4-6(2)7(3,9)5-8/h1,6,9H,2-3H3/t6-,7-/m0/s1
