15
gdb 75669	2.93215	1.34243	1.10921	4.2974	73.42	-0.2677	-0.0284	0.2393	1089.0737	0.11359	-412.94589	-412.937871	-412.936927	-412.978467	30.074	
N	 0.2432312095	 1.4919021669	-0.0536293769	-0.514212
C	-0.000722582	 0.0819771388	 0.0098258565	-0.140311
C	 0.1414940201	-0.6243124359	 1.3651240905	 0.366998
N	 0.9364049952	-0.6488920489	 2.3314305826	-0.491743
N	-1.0878455542	-1.3984797459	 1.2396086093	-0.150113
C	-2.1609027502	-0.3799292001	 1.2271166638	-0.272974
C	-1.4072368894	-0.5880132384	-0.0315464694	 0.154995
C	-1.9785148184	-1.1845319885	-1.1979057706	 0.20794
N	-2.4195756946	-1.6150941537	-2.177202038	-0.328823
H	 0.2041895928	 1.8429049031	-1.0038131548	 0.2502
H	-0.4111176246	 2.0232804443	 0.5099294144	 0.239992
H	 0.6392869162	-0.4217127636	-0.7223365452	 0.138919
H	 1.7098371855	 0.0000319844	 2.169986922	 0.244526
H	-3.1555405933	-0.808092188	 1.2879169985	 0.160192
H	-2.0197464926	 0.5361443356	 1.796489787	 0.134414
98.1162	139.9808	194.9059	222.7247	282.7591	320.547	421.0178	488.2045	520.8623	562.4894	648.2473	675.9222	688.6718	760.1269	803.1323	844.5152	911.4286	930.605	969.4101	981.7787	1109.1364	1137.6613	1148.9928	1191.3002	1210.7557	1228.1341	1281.11	1351.9873	1421.9078	1503.2744	1663.476	1819.101	2349.0058	3068.6701	3113.4325	3215.0968	3465.5799	3514.9263	3601.4587
NC1C(=N)N2CC12C#N	N[C@H]1[C]([NH])N2C[C@@]12C#N	
InChI=1S/C5H6N4/c6-1-5-2-9(5)4(8)3(5)7/h3,8H,2,7H2	InChI=1S/C5H6N4/c6-1-5-2-9(5)4(8)3(5)7/h3,8H,2,7H2/t3-,5-,9?/m0/s1
