16
gdb 87344	2.68805	1.28801	1.01682	3.4471	70.57	-0.2556	-0.0609	0.1947	1156.	0.122508	-437.887862	-437.879057	-437.878113	-437.921516	31.985	
O	-0.7451271089	 1.3069765396	 0.5801930313	-0.422508
C	-0.380983957	 0.0056084655	 0.3199899088	 0.128008
C	-0.7851119145	-1.1554353355	 1.1694188908	-0.371576
C	-1.3871394561	-1.0256343806	-0.2409408195	 0.068952
C	-2.8625703567	-0.7094582857	-0.4811108671	-0.370648
C	-3.6741945768	 0.0527396515	 0.5366676793	 0.155187
O	-3.2731650992	 0.6721372078	 1.4949249756	-0.259653
C	-0.8635325389	-1.9199682507	-1.2392020657	 0.244171
N	-0.4450412174	-2.6317486004	-2.0510868909	-0.343582
H	-1.5321179043	 1.2938669635	 1.1478324686	 0.308874
H	 0.6009759088	-0.033739138	-0.1397065571	 0.133805
H	-0.0780932472	-1.9605597518	 1.3324933407	 0.142137
H	-1.4590219357	-0.9640044178	 1.9952747248	 0.146608
H	-2.9774549302	-0.1459538291	-1.4212660182	 0.168465
H	-3.4127058649	-1.6438755287	-0.6596246965	 0.155413
H	-4.763374871	 0.0149297505	 0.3240805351	 0.116348
83.7949	142.1374	147.0362	176.9285	207.5299	238.0859	304.8708	425.4386	479.7297	550.1489	570.0445	592.869	630.4648	697.9019	784.4028	812.989	875.0308	893.5064	960.8007	1043.9313	1065.4191	1083.4328	1125.5226	1188.1496	1211.7261	1260.7723	1299.0312	1359.8872	1393.9327	1427.7873	1441.1843	1463.8228	1484.0747	1808.9986	2339.9581	2919.0556	3001.8601	3037.9224	3149.5468	3175.7382	3244.2394	3675.1715
OC1CC1(CC=O)C#N	O[C@H]1C[C@]1(CC=O)C#N	
InChI=1S/C6H7NO2/c7-4-6(1-2-8)3-5(6)9/h2,5,9H,1,3H2	InChI=1S/C6H7NO2/c7-4-6(1-2-8)3-5(6)9/h2,5,9H,1,3H2/t5-,6+/m0/s1
