21
gdb 64128	3.21045	1.04884	0.98537	4.781	82.82	-0.2405	0.0297	0.2702	1310.3749	0.18311	-383.298034	-383.288639	-383.287695	-383.332651	35.541	
C	 0.2195527814	 1.3755340884	 0.2641908637	-0.42352
C	-0.1171542955	-0.0891383902	-0.0866749001	 0.289521
C	-1.6346031197	-0.2823828118	-0.1385186793	-0.426702
C	 0.5845354645	-0.5280856137	-1.3886349137	-0.20989
C	 2.0120768553	-0.9216591879	-0.9568257916	-0.242952
C	 1.8928113229	-1.2044760984	 0.5770102361	-0.113836
N	 0.46433361	-1.0544897258	 0.8662670514	-0.316936
C	 2.3646338121	-2.545574039	 0.9549896879	 0.282898
N	 2.7574343633	-3.5891971758	 1.258398159	-0.327939
H	 1.2996753878	 1.5547318082	 0.2826460784	 0.11294
H	-0.2179643124	 2.0663670673	-0.4641674761	 0.118872
H	-0.1803306126	 1.6367917585	 1.2504187253	 0.111978
H	-2.0817124379	 0.3461077826	-0.9155615784	 0.11418
H	-1.8777505962	-1.3276748698	-0.3451200279	 0.126744
H	-2.0986271076	-0.0074800431	 0.8153478653	 0.110253
H	 0.0627680634	-1.395546284	-1.801841454	 0.112921
H	 0.5802319348	 0.2584206338	-2.1472856078	 0.102169
H	 2.3807536973	-1.7942187751	-1.4972288749	 0.132991
H	 2.7263863324	-0.1122544204	-1.1214141696	 0.116126
H	 2.5272966625	-0.489339286	 1.1234366935	 0.108668
H	 0.2929213441	-0.8082534577	 1.834813783	 0.221511
27.8837	125.9535	178.7274	221.9108	248.9593	250.7566	296.418	342.3123	386.6993	436.4459	503.8574	557.2374	574.1843	624.0872	740.1802	788.5485	831.7502	905.8122	919.0398	929.1186	953.0113	978.0753	994.7674	1034.7847	1068.7715	1093.3845	1139.7924	1200.3417	1235.5071	1246.5972	1260.6316	1298.3154	1330.9947	1341.0397	1372.4167	1399.745	1415.9346	1435.2805	1480.0527	1481.1066	1493.5245	1503.7278	1506.4965	1510.1528	2357.6256	2966.9796	3025.8538	3033.3036	3061.5556	3079.2871	3091.8203	3097.4054	3100.0375	3106.4681	3121.7091	3130.911	3538.7511
CC1(C)CCC(N1)C#N	CC1(C)CC[C@@H](N1)C#N	
InChI=1S/C7H12N2/c1-7(2)4-3-6(5-8)9-7/h6,9H,3-4H2,1-2H3	InChI=1S/C7H12N2/c1-7(2)4-3-6(5-8)9-7/h6,9H,3-4H2,1-2H3/t6-/m1/s1
