17
gdb 10949	4.8596	1.43875	1.26124	2.5122	72.72	-0.2455	0.0268	0.2722	1015.265	0.140898	-363.83843	-363.830365	-363.829421	-363.87086	29.584	
C	-0.1363454031	 1.3708256114	 0.0498115442	-0.339393
N	-0.0634845151	-0.0800291708	 0.1472608467	-0.347453
C	-1.1093958099	-0.7507192401	 0.0175831632	 0.486146
O	-2.4339750634	-0.3325765583	-0.1964336487	-0.317009
C	-2.8934261228	-1.7068510823	-0.0204553185	 0.459502
C	-4.1309069774	-1.9127719697	 0.7840599866	-0.486534
C	-2.3337350588	-2.5319053305	-1.1242454655	-0.328347
C	-1.46200473	-2.1950395907	 0.0952967341	-0.283611
H	 0.4384728051	 1.70072601	-0.8230157746	 0.127367
H	-1.1563511617	 1.7635876529	-0.0344342658	 0.126317
H	 0.3417043465	 1.8119488599	 0.9310179494	 0.125184
H	-4.9996950658	-1.4885509523	 0.2690054449	 0.138737
H	-4.3132830413	-2.9809711221	 0.9308805732	 0.130485
H	-4.0446722491	-1.4329353637	 1.7633379511	 0.137755
H	-2.6602659519	-3.5672734661	-1.1566985953	 0.123325
H	-2.1205908967	-2.0818685534	-2.0887772184	 0.128731
H	-1.0009409845	-2.9451288142	 0.7210447833	 0.1188
93.2926	110.4054	187.4403	215.8303	231.8	327.5202	365.7256	461.6731	492.0808	622.7495	685.8118	733.3329	816.3151	882.9057	908.5121	959.3547	975.825	985.2129	1025.8535	1059.8887	1076.9224	1099.3317	1128.8408	1135.8284	1169.2637	1230.0156	1277.8079	1388.4598	1431.9157	1440.268	1474.8068	1489.5128	1493.2497	1498.5623	1502.9687	1854.652	3017.0554	3038.1328	3081.3904	3088.1562	3103.9385	3120.8468	3122.7615	3212.9694	3227.7865
CN=C1OC2(C)CC12	CN=C1O[C@@]2(C)C[C@@H]12	
InChI=1S/C6H9NO/c1-6-3-4(6)5(7-2)8-6/h4H,3H2,1-2H3	InChI=1S/C6H9NO/c1-6-3-4(6)5(7-2)8-6/h4H,3H2,1-2H3/t4-,6-/m0/s1
