21
gdb 86999	4.51451	0.64768	0.62183	3.7363	81.04	-0.246	-0.0171	0.229	1830.8576	0.180293	-424.228766	-424.218848	-424.217904	-424.265236	35.064	
C	 0.5058850331	 1.4779335221	 0.1342309701	-0.398378
C	 0.0554965579	 0.0428311141	-0.0396787676	 0.179654
C	 0.4804149171	-0.7293230739	-1.308544732	-0.330509
C	 1.074342408	-1.7522094044	-0.3179179101	 0.166763
C	 2.5505287348	-2.0986322066	-0.4179718085	-0.221775
C	 3.0463491131	-2.8373825754	 0.8380536436	-0.269294
C	 4.5454249564	-3.0116846933	 0.8363483465	 0.156735
O	 5.1237029818	-4.0629338619	 0.9370156747	-0.239001
O	 0.7934142825	-0.8806159175	 0.8036119792	-0.315431
H	 1.5720211698	 1.5820799904	-0.0900477836	 0.116902
H	-0.0582681543	 2.1385083392	-0.5334143318	 0.11805
H	 0.3374990996	 1.8094588605	 1.1637668092	 0.12938
H	-1.0210855625	-0.0421065729	 0.1660897136	 0.075653
H	-0.319064106	-1.0839290731	-1.9601719401	 0.109954
H	 1.232766344	-0.2092761833	-1.9077343286	 0.105837
H	 0.4796241566	-2.6748089358	-0.2417029486	 0.07443
H	 2.7141050608	-2.7142510781	-1.3116952648	 0.110759
H	 3.1228946058	-1.1719832002	-0.5520385477	 0.101403
H	 2.7776583858	-2.2278433101	 1.7119859246	 0.142493
H	 2.5766291042	-3.8196645428	 0.9433196209	 0.118434
H	 5.1130485315	-2.0564452371	 0.7256362511	 0.067939
42.0979	55.8545	84.1134	113.6533	149.1785	227.858	301.5154	327.4464	363.3367	421.1837	473.5982	526.4198	683.6369	769.026	817.6555	851.0496	898.7289	917.3122	931.8697	969.7193	1009.5939	1038.4798	1068.2198	1093.2534	1111.9062	1141.1016	1161.5635	1196.0205	1214.438	1248.2712	1261.1835	1284.5596	1305.1554	1338.1971	1360.2608	1381.849	1403.4944	1419.6689	1432.7138	1463.259	1480.826	1483.8252	1491.7467	1496.1401	1836.0624	2844.4988	2987.3561	2998.8495	3019.7582	3028.1391	3033.1921	3064.4558	3066.7644	3101.7319	3105.8024	3112.2645	3129.7672
CC1CC(CCC=O)O1	C[C@H]1C[C@@H](CCC=O)O1	
InChI=1S/C7H12O2/c1-6-5-7(9-6)3-2-4-8/h4,6-7H,2-3,5H2,1H3	InChI=1S/C7H12O2/c1-6-5-7(9-6)3-2-4-8/h4,6-7H,2-3,5H2,1H3/t6-,7+/m0/s1
