21
gdb 26107	3.10283	1.25173	1.11249	4.2254	83.34	-0.2172	0.0376	0.2548	1199.8158	0.183041	-383.317464	-383.308379	-383.307435	-383.351191	35.044	
C	-0.0314183755	 1.5364191969	 0.0365866883	-0.419096
C	-0.0059332281	 0.0020249238	 0.0154815273	 0.232073
C	 0.7532047062	-0.5143309871	 1.2514009537	-0.38985
C	-1.4492572796	-0.5338449507	 0.0065260035	-0.389824
N	 0.687539127	-0.470822192	-1.2040246586	 0.002585
C	 0.8949349402	-1.7932629398	-1.549434983	-0.127201
C	 1.5678005553	-1.7725170116	-2.7412363896	-0.099347
N	 1.7859515952	-0.4796107935	-3.1490117674	-0.287143
C	 1.2487519741	 0.2678552686	-2.2101454157	 0.007158
H	 0.9780140036	 1.9569332389	 0.0499670364	 0.129934
H	-0.5695246699	 1.9432848489	-0.8241469387	 0.129926
H	-0.5455783209	 1.8702741712	 0.9415958088	 0.121786
H	 0.2621474446	-0.1696215985	 2.1664238843	 0.118317
H	 0.7812135033	-1.606840713	 1.2756991944	 0.121418
H	 1.7836533634	-0.1479612899	 1.2520126878	 0.128766
H	-1.9860988812	-0.1812274246	-0.8786380308	 0.128762
H	-1.469794391	-1.6267868369	 0.0031502467	 0.121421
H	-1.9845341788	-0.1896750828	 0.8966150229	 0.118312
H	 0.5533141727	-2.6057729996	-0.9310114833	 0.123485
H	 1.9061680393	-2.6145056896	-3.3263923446	 0.103961
H	 1.2388513401	 1.3451040413	-2.2104053126	 0.124557
44.958	133.2144	215.3185	235.0886	262.2433	318.1301	330.4166	342.9434	357.9492	447.2728	471.2137	589.4753	658.7771	679.0168	729.8155	818.5315	821.2645	856.5007	915.9805	922.7905	934.4555	963.9627	1023.4937	1046.4297	1054.1075	1102.584	1147.0239	1205.1192	1232.914	1249.3115	1273.9108	1303.5698	1355.7885	1383.8857	1400.9429	1401.7227	1432.5642	1475.4683	1482.6689	1487.9955	1499.3028	1503.5109	1518.7177	1521.2324	1543.3871	3040.8888	3041.9297	3048.9392	3113.4612	3115.7115	3117.9509	3122.0462	3123.395	3124.5259	3243.6263	3275.9928	3282.1598
CC(C)(C)N1C=CN=C1	CC(C)(C)n1ccnc1	
InChI=1S/C7H12N2/c1-7(2,3)9-5-4-8-6-9/h4-6H,1-3H3	InChI=1S/C7H12N2/c1-7(2,3)9-5-4-8-6-9/h4-6H,1-3H3
