21
gdb 92907	2.4154	1.50171	1.10317	1.3208	79.71	-0.2476	0.0079	0.2555	1171.9656	0.182883	-424.24277	-424.233538	-424.232594	-424.27636	35.492	
C	 0.0451336898	 1.5749082672	-0.0132109237	-0.407515
C	 0.0627626028	 0.0435997018	-0.0075297045	 0.003956
C	 0.7856660319	-0.5309325233	-1.2386373674	-0.243912
C	 0.9683145727	-2.0201558762	-1.1485420002	-0.057761
C	 0.8649698738	-2.7000432044	-0.0075693629	-0.113023
C	 0.5945609532	-2.0559698175	 1.3240007924	 0.078844
O	 1.5055933339	-2.5474645108	 2.3250838771	-0.456806
C	 0.690345501	-0.5132487952	 1.2743979229	 0.10562
O	 2.0476836683	-0.1071628632	 1.3219796261	-0.447059
H	 1.0611716767	 1.9705917861	 0.0692210253	 0.135977
H	-0.4008276871	 1.959232496	-0.936668035	 0.105608
H	-0.5370034452	 1.9649769234	 0.8283959842	 0.108691
H	-0.9743724498	-0.3202693701	-0.0298871776	 0.073184
H	 0.2291914084	-0.2779199233	-2.1496689685	 0.098341
H	 1.768683967	-0.0516279866	-1.3419043754	 0.127377
H	 1.1908000236	-2.5522800882	-2.0708694451	 0.0909
H	 0.9826492078	-3.7823360878	 0.0067905478	 0.089071
H	-0.4071695369	-2.334349352	 1.6796822496	 0.088002
H	 2.2698792544	-2.9032728889	 1.8598930677	 0.284996
H	 0.1498947348	-0.1110123049	 2.1475026407	 0.058423
H	 2.4361221888	-0.6213313919	 2.0412175467	 0.277086
94.2049	135.1678	143.7083	220.4269	246.869	271.3885	309.7176	326.4606	427.773	441.0627	485.4433	557.3483	602.8506	659.5479	693.3076	810.3792	847.7018	889.3549	921.3763	952.7736	996.2806	1000.2456	1010.3087	1039.0036	1051.8139	1102.1505	1121.7585	1171.6439	1201.1946	1217.9161	1249.9517	1277.464	1317.5538	1332.8674	1350.4605	1374.997	1389.5515	1402.0112	1408.5544	1428.3404	1439.3145	1468.0294	1495.7241	1505.3641	1722.4098	2955.1464	3003.3059	3011.0205	3018.8233	3034.3444	3049.9714	3097.3397	3118.9214	3133.7394	3159.4238	3768.6383	3813.7292
CC1CC=CC(O)C1O	C[C@H]1CC=C[C@@H](O)[C@H]1O	
InChI=1S/C7H12O2/c1-5-3-2-4-6(8)7(5)9/h2,4-9H,3H2,1H3	InChI=1S/C7H12O2/c1-5-3-2-4-6(8)7(5)9/h2,4-9H,3H2,1H3/t5-,6+,7-/m0/s1
