18
gdb 22275	3.84593	0.87828	0.77829	2.9458	76.39	-0.2398	-0.0178	0.222	1448.1766	0.144415	-439.0575	-439.047931	-439.046987	-439.093246	34.29	
C	 0.152617582	 1.4706079055	 0.0411189944	-0.47399
C	 0.0000539028	-0.0277423346	 0.0534159831	 0.350861
N	-0.0328330966	-0.7281634738	 1.1216915658	-0.16659
O	 0.0981244829	 0.0681430399	 2.2692153037	-0.398351
C	-0.1077798664	-0.7542307441	-1.2554035195	-0.082852
C	 1.2123296595	-0.8667334771	-2.1052636535	-0.354814
C	 0.8898887153	-2.3621852992	-2.2797799549	 0.401368
O	 1.3143811528	-3.2138587743	-3.0044013018	-0.289747
C	-0.2380653936	-2.3060420452	-1.2448645791	-0.356598
H	 1.0541974565	 1.7685837882	 0.5849620775	 0.150979
H	 0.2043784015	 1.8575958908	-0.9783612477	 0.120335
H	-0.6902654251	 1.9414462211	 0.5580121284	 0.150662
H	 0.0500218771	-0.584190066	 2.9759839312	 0.307517
H	-0.8962717162	-0.2890927817	-1.856483842	 0.0939
H	 1.2879763153	-0.2797372236	-3.0236199526	 0.129714
H	 2.1195174268	-0.71517892	-1.5107672567	 0.136119
H	 0.0621822507	-2.7352088493	-0.2846982569	 0.153543
H	-1.1942378052	-2.7423570867	-1.5424893395	 0.127944
51.0417	53.3058	62.448	151.6654	209.441	295.9353	351.2212	381.7611	414.2137	427.5868	494.6748	543.3913	597.8134	670.921	689.5438	751.2104	879.1234	923.9625	952.8444	988.5002	1011.7416	1019.2141	1052.3699	1078.7093	1106.5111	1176.9314	1191.9628	1228.5437	1234.4502	1251.9882	1364.3238	1399.5614	1404.9695	1426.3399	1446.3547	1474.5351	1484.7784	1727.2712	1895.932	3043.5771	3050.0418	3055.7782	3071.168	3102.8515	3118.6967	3126.5675	3134.6178	3820.4485
CC(=NO)C1CC(=O)C1	CC(=NO)C1CC(=O)C1	
InChI=1S/C6H9NO2/c1-4(7-9)5-2-6(8)3-5/h5,9H,2-3H2,1H3	InChI=1S/C6H9NO2/c1-4(7-9)5-2-6(8)3-5/h5,9H,2-3H2,1H3
