18
gdb 30798	3.77194	0.84486	0.69575	2.7796	82.5	-0.2384	-0.0656	0.1728	1628.5305	0.143362	-439.11991	-439.109006	-439.108062	-439.156541	37.776	
C	-0.4893376555	 1.5261698598	 0.8518427078	-0.489861
C	-0.2231759311	 0.1767057784	 0.2945090936	 0.41093
C	-0.8980325914	-0.5714780069	-0.6058368038	-0.394661
C	-0.1675049631	-1.8210631986	-0.773612315	 0.321399
O	-0.4157760185	-2.7810766442	-1.484771635	-0.355051
C	 1.0063082334	-1.6676017619	 0.1553624676	 0.276091
C	 2.0061881479	-2.5027233648	 0.4112023102	-0.425793
N	 1.4960193349	-5.245695847	-1.4763096818	-0.731146
H	 1.041596394	-6.1066156327	-1.1841221085	 0.229195
H	 0.7524435124	-4.5640133136	-1.632551232	 0.273341
H	 1.9047693883	-5.4405285612	-2.3862700985	 0.229202
O	 0.9050335734	-0.4247003501	 0.7717930904	-0.249649
H	 0.3491181609	 2.197687822	 0.6374141909	 0.155865
H	-1.4020036062	 1.9467396059	 0.4278742964	 0.145929
H	-0.5904027842	 1.4738131594	 1.9413424266	 0.155873
H	-1.810711295	-0.2998136731	-1.1113767305	 0.124404
H	 2.7832448847	-2.2353529769	 1.1182539206	 0.128327
H	 2.0493190749	-3.4661875845	-0.0920441688	 0.195606
41.36	107.0032	122.4772	126.8684	144.3695	168.2028	177.2841	226.6348	286.2895	322.9014	386.9572	412.1155	536.9588	597.8802	599.1292	641.2614	758.0392	786.3061	796.5796	837.8451	919.593	993.5474	1003.3018	1026.6976	1061.2235	1104.6003	1132.7598	1174.2208	1270.2954	1349.4023	1412.0705	1442.9045	1468.4179	1476.3836	1655.1422	1673.8575	1706.0443	1722.9315	1776.6185	3041.8189	3097.6595	3122.0473	3149.3678	3237.248	3265.8226	3435.5276	3551.1535	3581.5742
CC1=CC([O-])=C(C[NH3+])O1	CC1=CC(=O)C(=C)O1.N	
InChI=1S/C6H9NO2/c1-4-2-5(8)6(3-7)9-4/h2,8H,3,7H2,1H3	InChI=1S/C6H6O2.H3N/c1-4-3-6(7)5(2)8-4;/h3H,2H2,1H3;1H3
