19
gdb 15788	3.6973	1.1735	0.99637	3.8089	72.8	-0.2289	-0.0134	0.2155	1203.889	0.163321	-365.037095	-365.028105	-365.027161	-365.071624	31.987	
C	-0.115157223	 1.6185750048	 0.1955991151	-0.41905
C	 0.0650259693	 0.0938270869	 0.1358867768	 0.050008
C	-1.3078392193	-0.6084644943	 0.1199487273	-0.272359
C	-1.2206728492	-2.1006948665	 0.3641199104	 0.153371
O	-1.9841400206	-2.7144427622	 1.0673545023	-0.249719
N	 0.8529149791	-0.4538451088	-0.9785644742	-0.073196
C	 0.9639974899	 0.2538750036	-2.248241656	-0.224613
C	 2.1371020986	 0.1221383461	-1.3364076815	-0.226682
H	 0.8396726775	 2.1500512623	 0.143038857	 0.120502
H	-0.7589513782	 1.9829885367	-0.6113940882	 0.122919
H	-0.5888904359	 1.8933036664	 1.1426389748	 0.126733
H	 0.600968988	-0.2150586715	 1.0437325067	 0.093893
H	-1.989453003	-0.1782306991	 0.859181646	 0.115773
H	-1.7566880694	-0.4572681889	-0.8729242405	 0.123058
H	-0.3841740795	-2.604151916	-0.1640012008	 0.095637
H	 0.8820858381	-0.363794903	-3.1384413986	 0.118795
H	 0.5282874045	 1.2452490184	-2.3445667856	 0.113356
H	 2.4717774191	 1.0261282459	-0.831242414	 0.111798
H	 2.9278951838	-0.5927505509	-1.5482855373	 0.119775
47.1039	76.4371	92.9368	180.7469	248.2997	276.9632	287.1925	360.6798	429.3772	509.2407	532.3466	703.5222	780.9193	819.3852	892.2024	921.8771	944.322	972.5135	1024.7274	1031.3814	1096.9183	1110.1487	1121.7695	1134.9609	1155.4555	1171.7643	1181.7746	1240.3954	1287.543	1329.5744	1361.8099	1376.1707	1404.9501	1413.7608	1449.8257	1485.4155	1494.695	1507.4915	1524.7165	1826.5374	2922.0181	3007.7736	3020.0224	3038.5599	3097.212	3098.1878	3106.5934	3110.6792	3111.893	3176.2027	3192.5741
CC(CC=O)N1CC1	C[C@@H](CC=O)N1CC1	
InChI=1S/C6H11NO/c1-6(2-5-8)7-3-4-7/h5-6H,2-4H2,1H3	InChI=1S/C6H11NO/c1-6(2-5-8)7-3-4-7/h5-6H,2-4H2,1H3/t6-/m0/s1
