21
gdb 36787	7.96627	0.46714	0.45884	1.7262	86.13	-0.2589	0.0571	0.316	2338.4566	0.180139	-387.038773	-387.02852	-387.027576	-387.075367	36.497	
C	-0.0757417518	-1.2008310771	-0.0932977394	-0.437434
C	-0.0476989371	 0.0005958522	-0.1223871396	 0.292645
C	 0.020770678	 1.4565006053	-0.151011688	-0.356568
C	 1.4427609323	 1.9999478869	 0.0954360926	-0.177203
C	 1.5001043956	 3.5292102693	 0.0619706817	-0.173235
C	 2.9107255773	 4.0822478047	 0.305288012	-0.229339
C	 2.9530804199	 5.5899422971	 0.2637245525	 0.099722
C	 4.087699462	 6.3355412166	-0.2930792513	-0.181219
O	 2.8725135514	 6.1951515514	-1.0314843534	-0.236957
H	-0.1137163885	-2.2615354275	-0.0710246668	 0.19253
H	-0.3452846396	 1.8205349082	-1.120148904	 0.131326
H	-0.6630922526	 1.8686277171	 0.602971858	 0.128435
H	 1.8011594255	 1.6314295425	 1.0641273555	 0.107528
H	 2.1178518579	 1.5833111543	-0.6613798531	 0.110926
H	 1.1420247952	 3.8943998877	-0.9087580615	 0.116082
H	 0.8138600349	 3.9378684722	 0.8168869349	 0.094255
H	 3.2808391708	 3.7436844284	 1.2827252336	 0.100511
H	 3.5998477553	 3.6881952306	-0.4512685754	 0.10395
H	 2.3426532284	 6.0939392735	 1.0167608959	 0.088712
H	 4.3067938215	 7.3415124688	 0.0626984007	 0.113445
H	 4.9422448437	 5.7899302179	-0.6921424349	 0.111888
43.3044	64.3675	86.001	121.1738	139.2231	169.6662	292.9342	298.1713	349.5842	434.0123	464.9275	542.1075	615.5293	635.2541	735.6947	769.6268	805.7202	866.2715	913.3231	936.1678	962.399	1017.9476	1034.3962	1059.6079	1065.5734	1107.7879	1132.7406	1158.9096	1168.424	1198.6318	1247.3566	1278.7489	1294.9503	1319.0308	1323.3626	1330.5158	1373.6924	1398.3621	1449.4918	1470.7615	1475.0977	1489.5389	1508.4886	1532.0165	2238.7965	3009.4347	3014.5513	3018.233	3034.247	3041.011	3047.7938	3063.9716	3079.4417	3081.8912	3088.9206	3165.6312	3507.1269
C#CCCCCC1CO1	C#CCCCC[C@H]1CO1	
InChI=1S/C8H12O/c1-2-3-4-5-6-8-7-9-8/h1,8H,3-7H2	InChI=1S/C8H12O/c1-2-3-4-5-6-8-7-9-8/h1,8H,3-7H2/t8-/m0/s1
