18
gdb 89199	2.63069	1.53811	1.19856	1.8114	73.35	-0.2656	0.0162	0.2818	1082.8137	0.146931	-439.071476	-439.062935	-439.061991	-439.104517	32.402	
C	-0.8150643767	 1.2794862118	-0.0206843457	-0.407149
C	-0.0612378882	-0.0412615217	 0.0242271587	 0.0171
C	 1.0853936337	-0.2942723923	-1.01142363	-0.304719
C	 2.0816348485	-0.6243052953	 0.1362561926	 0.298254
O	 2.8013247118	-1.7927223995	-0.0181651635	-0.466778
C	 0.9429696213	-0.2683899179	 1.1721397998	 0.010735
O	 1.686974054	 0.9524766574	 1.5129910216	-0.269104
C	 2.7604122117	 0.5892263919	 0.7260357502	 0.35728
N	 3.9195055597	 1.0593743988	 0.6334037396	-0.555871
H	-0.1273169457	 2.1254926039	 0.0598479941	 0.131814
H	-1.3686604601	 1.3765381516	-0.9602026502	 0.118692
H	-1.5347602755	 1.3530517909	 0.8015925704	 0.118832
H	-0.7663551658	-0.8791516495	 0.0056159884	 0.086349
H	 0.9217025108	-1.1711147973	-1.6405306429	 0.123683
H	 1.3695989091	 0.5495216897	-1.6442306719	 0.116931
H	 3.6262430944	-1.7060307817	 0.4739284622	 0.298095
H	 0.6756587751	-0.8248105125	 2.0699969028	 0.093714
H	 4.0537036019	 1.8664685317	 1.2448239139	 0.232141
82.375	146.8839	198.9341	215.5211	228.8405	309.7754	320.3859	384.4702	434.4158	571.158	581.7796	688.0859	716.744	787.845	841.7496	867.0345	878.5764	895.8318	944.8921	948.8736	995.6264	1034.518	1054.3455	1101.233	1124.9709	1162.0127	1184.9136	1231.8272	1244.2501	1280.3064	1317.7289	1352.5963	1374.3776	1384.8231	1410.0809	1477.3306	1493.0456	1499.5118	1819.4259	3036.3559	3048.8836	3072.9529	3100.0493	3119.3945	3123.6751	3132.4248	3477.4749	3796.8974
CC1CC2(O)C1OC2=N	C[C@H]1C[C@]2(O)[C@H]1O[C]2[NH]	
InChI=1S/C6H9NO2/c1-3-2-6(8)4(3)9-5(6)7/h3-4,7-8H,2H2,1H3	InChI=1S/C6H9NO2/c1-3-2-6(8)4(3)9-5(6)7/h3-4,7-8H,2H2,1H3/t3-,4-,6-/m0/s1
