12
gdb 130864	3.95625	1.17035	0.90317	3.1292	66.28	-0.2799	-0.1269	0.1531	1153.1424	0.076735	-472.631788	-472.624567	-472.623622	-472.66401	25.869	
O	-0.061419212	-0.0079268067	 0.0311997562	-0.237745
C	 0.0018180396	 1.1930998754	-0.048369934	 0.110556
C	 1.2832855011	 1.9474990484	 0.0095799805	 0.198634
C	 1.3219168223	 3.2924247936	-0.0821869216	-0.345512
C	 2.6001359573	 3.9946620717	-0.0208597012	 0.481978
O	 2.7606660307	 5.18133204	-0.0907639133	-0.316197
O	 3.7222860274	 3.1843081456	 0.1339595474	-0.257865
N	 3.685078216	 1.80109744	 0.2285610259	-0.049557
C	 2.529111646	 1.2386117972	 0.1679276488	-0.012931
H	-0.9020544264	 1.8256162583	-0.1715358505	 0.102299
H	 0.4348335516	 3.9053514944	-0.2025709408	 0.154636
H	 2.5333245266	 0.1569872021	 0.2447967126	 0.171702
96.087	141.4063	191.8879	232.7833	371.1443	392.7068	457.7011	563.8954	625.6235	653.3398	735.5873	764.8058	861.5425	918.7268	923.6755	950.6492	1019.7522	1040.4033	1142.9801	1206.0642	1310.4767	1382.5484	1421.5634	1614.8988	1683.7229	1807.8881	1841.2629	2920.2031	3199.5925	3209.7636
O=CC1=CC(=O)ON=C1	O=Cc1cc(=O)onc1	
InChI=1S/C5H3NO3/c7-3-4-1-5(8)9-6-2-4/h1-3H	InChI=1S/C5H3NO3/c7-3-4-1-5(8)9-6-2-4/h1-3H
