15
gdb 32367	4.76162	1.03387	0.85823	2.0524	73.92	-0.2293	-0.0701	0.1592	1270.1541	0.113333	-453.954669	-453.946779	-453.945835	-453.987531	29.162	
O	 0.3541268909	 0.8231581694	-0.9412026283	-0.406374
C	-0.0654006273	 0.2855749191	 0.2990153901	-0.148497
C	-1.3641666619	-0.4778532415	 0.211133908	 0.177719
C	-1.9385818907	-0.8110237522	-0.9553503682	-0.003027
O	-3.1092947638	-1.4997958231	-1.0227648632	-0.225459
C	-3.7407055287	-1.8850903116	 0.1475363321	 0.359048
N	-4.8356601986	-2.5243311938	 0.1501804816	-0.522022
C	-3.0498163241	-1.4975299254	 1.3804452404	-0.02205
N	-1.9462747554	-0.8416304156	 1.4259316402	-0.274186
H	-0.2328173727	 1.5551283603	-1.158021537	 0.288261
H	 0.7365004371	-0.3866248185	 0.6269431494	 0.13698
H	-0.1635088509	 1.0549439302	 1.0791781218	 0.115625
H	-1.5348816064	-0.5805827747	-1.9311647156	 0.14978
H	-5.161927038	-2.7016280201	-0.8008188612	 0.22899
H	-3.5342279695	-1.8021099825	 2.30492088	 0.145212
72.6146	107.667	187.2765	272.5666	336.0824	371.8989	381.4462	460.4686	507.9142	532.5728	643.3841	738.4605	785.1754	812.1	866.7396	886.6695	952.4949	962.9958	993.8151	1067.1762	1085.6731	1182.4257	1200.6405	1241.3337	1294.4073	1326.1469	1373.6386	1395.6524	1411.6186	1494.7931	1615.6852	1687.4399	1730.1597	2999.9241	3057.6725	3170.2305	3242.5188	3484.9889	3812.7984
OCC1=COC(=N)C=N1	OCC1=COC(=C[N]1)[NH]	
InChI=1S/C5H6N2O2/c6-5-1-7-4(2-8)3-9-5/h1,3,6,8H,2H2	InChI=1S/C5H6N2O2/c6-5-1-7-4(2-8)3-9-5/h1,3,6,8H,2H2
