23
gdb 52870	2.49724	0.99621	0.81615	0.1375	95.59	-0.2249	0.0621	0.287	1557.8213	0.203176	-351.129421	-351.118393	-351.117449	-351.166931	39.968	
C	-0.2465088351	 1.4733658009	-0.2888594159	-0.502278
C	-0.1279462928	 0.027984836	-0.1543978241	 0.128404
C	-0.0365694687	-1.168734963	-0.038692882	-0.025119
C	 0.0907625125	-2.6027863592	 0.0715837856	 0.175231
C	-0.3203539938	-3.2135974144	 1.4052857904	-0.293996
C	-1.2155361455	-3.3737936855	 0.2101565197	-0.316342
C	 1.2953121933	-3.1725520649	-0.7057406841	-0.03676
C	 2.6090402194	-2.7053110717	-0.0594605908	-0.381902
C	 1.28818744	-4.6969339088	-0.8758756514	-0.417041
H	 0.4127850911	 1.8531579405	-1.0775006077	 0.145862
H	-1.2698370519	 1.7691116067	-0.5468089414	 0.144605
H	 0.0220258223	 1.9884805148	 0.6405689796	 0.144155
H	 0.2287167157	-4.083670434	 1.7484112515	 0.113946
H	-0.6217003957	-2.5334718501	 2.1927700351	 0.120616
H	-2.1313574663	-2.7961146127	 0.1729292993	 0.119797
H	-1.2828859632	-4.3532984813	-0.2471800218	 0.114564
H	 1.242078595	-2.7321766095	-1.7100208217	 0.08055
H	 3.4701138198	-3.0033314507	-0.6664489362	 0.104765
H	 2.6270554569	-1.6177243298	 0.0500896833	 0.125529
H	 2.7315019162	-3.1463498346	 0.9364448684	 0.109605
H	 0.4231606595	-5.0458850246	-1.4464101061	 0.117166
H	 2.1855200558	-5.0095086131	-1.4192368013	 0.113219
H	 1.2975704655	-5.220238001	 0.0868589716	 0.115426
16.7089	57.3392	87.1263	133.1794	223.3552	238.2471	258.794	268.5345	298.9607	307.7742	360.1801	399.1551	450.4857	536.2894	564.9246	607.6626	765.027	811.5681	872.9229	898.1698	928.8593	945.0471	957.1318	978.76	1051.9283	1054.3437	1059.134	1067.5671	1082.5388	1117.9695	1139.3069	1185.0538	1195.47	1282.9784	1308.1593	1348.2782	1378.2221	1399.2357	1415.5253	1419.18	1461.7149	1478.3306	1480.5111	1487.3199	1493.2814	1498.1388	1507.0246	1515.1373	2361.697	3015.4691	3022.2248	3029.6507	3035.4321	3079.9158	3082.8216	3092.9299	3099.6493	3109.1062	3115.9214	3138.7077	3147.5799	3222.0834	3238.0488
CC#CC1(CC1)C(C)C	CC#CC1(CC1)C(C)C	
InChI=1S/C9H14/c1-4-5-9(6-7-9)8(2)3/h8H,6-7H2,1-3H3	InChI=1S/C9H14/c1-4-5-9(6-7-9)8(2)3/h8H,6-7H2,1-3H3
