16
gdb 26639	3.25944	1.26614	0.9171	1.9186	81.42	-0.1858	0.018	0.2038	1211.1579	0.122702	-400.759747	-400.750388	-400.749444	-400.794042	34.169	
C	 0.0402286412	 1.496187761	 0.0470821319	-0.526137
C	 0.0314161038	-0.000027914	 0.0181004078	-0.000339
C	 0.010039766	-0.8170391541	-1.0837990916	 0.341948
O	-0.0176618346	-0.5735517474	-2.4191434514	-0.439468
N	 0.0119593681	-2.1259986504	-0.6849855804	-0.301785
C	 0.0361607717	-2.1847033582	 0.6878677172	-0.217011
C	 0.0500418416	-0.8881455551	 1.1597169653	 0.096388
C	 0.0693890561	-0.4868787673	 2.5144467691	 0.255777
C	 0.0837666161	-0.1132803443	 3.6607796682	-0.465124
H	 1.0269598801	 1.9048882903	 0.2973838174	 0.133447
H	-0.2537315292	 1.9245224003	-0.9191738805	 0.094984
H	-0.6626615782	 1.8794296711	 0.7937796666	 0.142593
H	 0.0348527504	 0.3778762358	-2.5533307991	 0.306915
H	-0.0029309924	-2.907454054	-1.3167051919	 0.27011
H	 0.0381629051	-3.123554002	 1.2142413691	 0.128761
H	 0.098082344	 0.2048158483	 4.6730577825	 0.178943
47.1705	120.6808	131.6213	189.6208	245.5523	259.788	299.7107	404.5061	418.6055	491.7708	511.4466	521.8022	574.7986	636.2521	648.2142	683.1233	699.7327	705.9359	760.9556	944.5183	1060.7085	1087.3362	1111.0138	1167.1817	1231.5433	1276.3843	1360.5676	1405.584	1423.8193	1475.4428	1498.8434	1536.0713	1562.9564	1657.5781	2224.596	3014.4189	3064.4476	3089.6	3283.2392	3506.2602	3686.8892	3839.7796
CC1=C(O)NC=C1C#C	Cc1c(O)[nH]cc1C#C	
InChI=1S/C7H7NO/c1-3-6-4-8-7(9)5(6)2/h1,4,8-9H,2H3	InChI=1S/C7H7NO/c1-3-6-4-8-7(9)5(6)2/h1,4,8-9H,2H3
