18
gdb 55124	2.5565	1.49309	1.16671	5.1096	71.4	-0.2437	0.0164	0.26	1096.0874	0.147975	-439.080386	-439.072089	-439.071144	-439.113425	31.498	
C	-0.0829133412	 1.5712313515	 0.0467283448	-0.500692
C	 0.0645802309	 0.0801304574	 0.0801093077	 0.333041
C	-0.793597554	-0.8456243933	 0.9171521061	-0.331567
C	 0.6955081566	-0.8957553176	 1.0629755615	-0.054242
N	 1.2440319396	-1.744949241	-0.0302485525	-0.363346
H	 2.2582732148	-1.7699033108	-0.0126692071	 0.235736
H	 0.1511419248	-2.9101171595	-1.1556719541	 0.303315
C	 0.7499095583	-0.741781089	-1.0349386091	-0.188208
C	-0.1540499876	-1.3390939058	-2.1076995675	 0.436383
O	-0.3751856739	-2.6543275286	-1.9440665781	-0.374041
O	-0.645857473	-0.6901432048	-2.9915528194	-0.345159
H	 0.8657406283	 2.0643056239	-0.1937937948	 0.119136
H	-0.8149007187	 1.8679296219	-0.7127493661	 0.147567
H	-0.4278362117	 1.95360818	 1.012516099	 0.121255
H	-1.3205414753	-0.3430306809	 1.7222230425	 0.120224
H	-1.3268961626	-1.6863890295	 0.4817444712	 0.126377
H	 1.2339927571	-0.7474986281	 1.9911367167	 0.105143
H	 1.5503105776	-0.1725433158	-1.5150752407	 0.109076
86.9112	131.5647	143.8918	198.0617	299.6029	308.5069	399.2007	447.0381	487.2635	595.5963	648.04	719.2119	769.9625	812.2877	819.7389	874.1156	895.1204	937.1356	968.2179	982.4462	1005.479	1024.6637	1041.35	1074.7497	1107.6342	1138.2932	1196.1647	1220.867	1248.8389	1251.7415	1331.6858	1357.2986	1399.3322	1419.5565	1435.0911	1483.0609	1494.1754	1501.4724	1868.8831	3026.5488	3079.5115	3089.4175	3102.8119	3117.2851	3186.7325	3208.0029	3489.7238	3529.1908
CC12CC1[NH2+]C2C([O-])=O	C[C@]12C[C@H]1N[C@H]2C(=O)O	
InChI=1S/C6H9NO2/c1-6-2-3(6)7-4(6)5(8)9/h3-4,7H,2H2,1H3,(H,8,9)	InChI=1S/C6H9NO2/c1-6-2-3(6)7-4(6)5(8)9/h3-4,7H,2H2,1H3,(H,8,9)/t3-,4+,6+/m1/s1
