15
gdb 25625	3.62097	0.98099	0.77618	2.0231	84.76	-0.1914	-0.0111	0.1803	1423.2695	0.112929	-416.822759	-416.813964	-416.81302	-416.857973	30.936	
C	-0.129901203	 1.4789405345	 0.0000233762	-0.512766
C	-0.0478393483	 0.0280742384	-0.0216680066	 0.263672
C	 0.0089072226	-1.1796931777	-0.0479795676	-0.159915
C	 0.1206124294	-2.5706960623	-0.0713193601	 0.157784
C	 1.1885164682	-3.4346623523	-0.0183903418	 0.152683
N	 2.5376536246	-3.1561268341	 0.016328301	-0.603579
N	 0.7344782148	-4.7387640805	-0.0688111304	-0.292768
C	-0.5549566903	-4.6211092567	-0.1534747233	 0.055726
O	-1.0200234908	-3.3683484051	-0.1642542284	-0.181051
H	 0.5439883153	 1.9305366005	-0.7371391849	 0.150936
H	-1.1468286085	 1.8093431722	-0.2393279471	 0.15717
H	 0.1269538197	 1.8886983672	 0.9839581395	 0.148095
H	 2.7709852512	-2.2487988054	 0.3927970744	 0.256648
H	 3.0880776315	-3.9024456793	 0.4161580276	 0.259179
H	-1.2838901667	-5.4146033896	-0.2135411985	 0.148185
18.9074	81.6223	105.7736	237.5853	264.5417	304.9933	331.0857	389.1814	478.8433	482.0113	565.5861	608.4047	641.5985	725.9824	763.5951	841.591	954.9148	987.3623	1036.7327	1049.9148	1052.2482	1129.8575	1195.2485	1314.3563	1326.7806	1410.9711	1444.7241	1471.2719	1478.5303	1544.2108	1623.6308	1675.7208	2338.4257	3021.122	3077.15	3087.8593	3270.8163	3565.2326	3671.4997
CC#CC1=C(N)N=CO1	CC#Cc1c(N)nco1	
InChI=1S/C6H6N2O/c1-2-3-5-6(7)8-4-9-5/h4H,7H2,1H3	InChI=1S/C6H6N2O/c1-2-3-5-6(7)8-4-9-5/h4H,7H2,1H3
