19
gdb 61078	3.47951	1.03513	0.88554	1.6924	71.9	-0.2556	-0.0407	0.215	1313.091	0.159037	-460.170022	-460.161104	-460.16016	-460.205005	32.127	
O	-0.2844107299	 1.2783892451	 0.202607299	-0.439604
C	 0.0276720517	-0.0859483098	 0.1209429613	 0.047175
C	 0.5780806056	-0.3962467585	-1.2567516303	 0.132836
O	 0.7204264789	 0.4667053286	-2.0906246732	-0.2628
C	 1.0323136381	-0.5163656171	 1.2230033171	-0.030604
C	 0.5806025782	-0.016363872	 2.6200707928	-0.262012
C	-0.0325626082	-1.273574186	 3.2875743173	-0.072758
O	-0.0586313954	-2.2930902793	 2.2905484414	-0.243616
C	 1.034394026	-2.0420355137	 1.4271305834	-0.10513
H	-0.0305206539	 1.6569476593	-0.6543977921	 0.294488
H	-0.8837252356	-0.695525051	 0.2544102188	 0.106719
H	 0.8538325473	-1.4484875162	-1.4658999337	 0.101104
H	 2.0248839178	-0.1329435638	 0.9682900834	 0.08199
H	 1.4346953395	 0.3542679978	 3.1918321665	 0.105408
H	-0.1303675405	 0.8043908232	 2.5250588224	 0.141866
H	 0.5765507644	-1.599541956	 4.143942735	 0.093527
H	-1.0584977662	-1.1279355778	 3.6351006628	 0.113967
H	 0.8771149853	-2.6308215064	 0.5184999575	 0.10512
H	 1.9864478566	-2.3639945265	 1.8810014807	 0.092323
36.603	67.6325	110.2501	170.2878	230.1501	319.1974	344.6296	371.5101	417.1701	483.7886	683.1737	715.2559	779.0676	810.8707	833.4654	907.6106	928.5389	947.8801	958.8772	985.4852	1012.0428	1089.7146	1114.6533	1145.5211	1162.2972	1216.392	1228.6057	1242.8283	1263.9048	1280.9706	1313.3854	1318.8919	1355.5695	1373.5251	1399.5631	1406.7264	1442.4695	1503.6539	1508.9547	1528.7838	1806.8004	2939.2906	2960.5748	2966.9806	2990.2014	3061.7159	3080.0132	3082.2622	3090.3891	3137.4257	3683.7311
OC(C=O)C1CCOC1	O[C@@H](C=O)[C@H]1CCOC1	
InChI=1S/C6H10O3/c7-3-6(8)5-1-2-9-4-5/h3,5-6,8H,1-2,4H2	InChI=1S/C6H10O3/c7-3-6(8)5-1-2-9-4-5/h3,5-6,8H,1-2,4H2/t5-,6-/m0/s1
