18
gdb 83169	2.55129	1.55106	1.42622	3.4928	71.51	-0.2292	0.0083	0.2375	1009.895	0.148527	-439.090659	-439.082535	-439.081591	-439.123461	30.491	
C	 0.010162123	 1.717195355	 0.006117646	-0.44474
C	 0.0082978039	 0.202164508	-0.0102835378	 0.006013
C	 0.4488344211	-0.6688999615	-1.1394650728	-0.053521
C	 1.1395577084	-0.1628458431	-2.3849028846	-0.110553
O	 2.0825408233	 0.896545819	-2.17241223	-0.224774
C	 2.8646040089	 0.9087674526	-1.0633422669	 0.394329
O	 3.7667220338	 1.6954507889	-0.9859398719	-0.32163
C	 2.5343196764	-0.0862167301	 0.0460830551	-0.296593
N	 1.1974485105	-0.6650320364	 0.115852463	-0.119614
H	 0.6977434838	 2.1746417588	-0.7031051261	 0.157872
H	-0.9967199533	 2.0722178451	-0.2381744242	 0.128525
H	 0.2467160974	 2.0873283009	 1.009737056	 0.132015
H	-0.8100138055	-0.2071735617	 0.5817731896	 0.100074
H	-0.1108179944	-1.5842980538	-1.3364704825	 0.097996
H	 1.6639712819	-0.9991461299	-2.8667965109	 0.125454
H	 0.4179029026	 0.2304301219	-3.1073790364	 0.134182
H	 3.2463357762	-0.9158444649	-0.0567222797	 0.145462
H	 2.777254402	 0.4090357511	 0.9897868544	 0.149502
81.8172	153.4588	161.5602	182.4442	251.662	406.2803	415.7651	432.5728	528.4018	562.6334	612.0982	731.2477	742.5281	778.066	816.9028	863.1735	981.8104	1015.379	1027.6083	1050.8491	1058.7112	1128.2387	1156.225	1161.7299	1183.4181	1216.4516	1274.0647	1294.2797	1334.3019	1342.5521	1392.4931	1413.4859	1426.3576	1454.4259	1464.5925	1498.4441	1506.6463	1515.0782	1850.4663	3016.4501	3029.5397	3042.5886	3079.6558	3091.52	3093.9691	3102.0481	3104.64	3167.3646
CC1C2COC(=O)CN12	C[C@H]1[C@H]2COC(=O)CN12	
InChI=1S/C6H9NO2/c1-4-5-3-9-6(8)2-7(4)5/h4-5H,2-3H2,1H3	InChI=1S/C6H9NO2/c1-4-5-3-9-6(8)2-7(4)5/h4-5H,2-3H2,1H3/t4-,5+,7?/m0/s1
