21
gdb 103043	2.37181	1.44955	1.08477	0.8615	89.2	-0.237	0.0534	0.2903	1209.8864	0.181511	-349.895493	-349.886335	-349.885391	-349.929065	35.615	
C	-0.4119420209	 1.3982212806	 0.1045544294	-0.378663
C	 0.1905749884	 0.0014305725	-0.081570076	-0.270465
C	 0.7955236378	-0.5598707563	 1.2042526976	 0.144347
C	 1.9382366493	 0.1861361275	 1.6772149383	 0.266879
C	 2.8928418631	 0.8178969744	 2.0488996587	-0.435404
C	-0.0357599121	-1.1511770438	 2.3373362031	-0.079096
C	-1.2576058825	-1.9125286059	 1.8063661555	-0.254632
C	-0.3010527313	-2.8373047841	 0.9843881484	-0.252881
C	 0.89667169	-2.0472007196	 1.5249158527	-0.097893
H	 0.3438359627	 2.1063036478	 0.4567783846	 0.130949
H	-0.8202279642	 1.776788686	-0.8374868399	 0.108925
H	-1.2218612461	 1.3813531772	 0.8416089517	 0.116084
H	-0.576342781	-0.6791934962	-0.4608619576	 0.101183
H	 0.9760766012	 0.0344521702	-0.8456607529	 0.104238
H	 3.7345080931	 1.3739459092	 2.3796383643	 0.186952
H	 0.0856160666	-0.7815346822	 3.3479175883	 0.095291
H	-1.776685401	-2.459748216	 2.5960644095	 0.107572
H	-1.9979237333	-1.3300873713	 1.2497782681	 0.102228
H	-0.311442564	-3.8643463587	 1.3555808339	 0.106755
H	-0.4295843005	-2.8641402184	-0.1017658111	 0.101964
H	 1.8527519949	-2.469352923	 1.8088359033	 0.095667
77.2901	142.9066	153.8069	195.7863	219.1379	287.6261	302.5156	406.8458	437.8448	522.8079	542.3963	576.9848	644.4865	648.8614	732.6013	782.197	787.9133	850.1952	871.7048	926.3115	959.0732	971.6396	989.9729	1017.3232	1026.7777	1055.9501	1093.7038	1108.8396	1111.5972	1193.496	1219.9899	1244.438	1254.3365	1271.5001	1287.4518	1308.7974	1358.6973	1388.7347	1409.4375	1474.0482	1488.6735	1496.2142	1504.5999	1509.2622	2228.5022	3036.2531	3040.2686	3052.463	3059.1973	3084.6467	3098.4475	3104.6303	3115.536	3117.9004	3183.262	3194.305	3503.9688
CCC1(C#C)C2CCC12	CC[C@@]1(C#C)[C@H]2CC[C@@H]12	
InChI=1S/C9H12/c1-3-9(4-2)7-5-6-8(7)9/h1,7-8H,4-6H2,2H3	InChI=1S/C9H12/c1-3-9(4-2)7-5-6-8(7)9/h1,7-8H,4-6H2,2H3/t7-,8+,9-
