24
gdb 102571	1.77602	1.3764	0.93874	2.6671	86.07	-0.2348	0.081	0.3158	1397.6605	0.216291	-405.518961	-405.508449	-405.507505	-405.554448	39.258	
C	 0.3177884288	 3.5165498074	-1.1538572545	-0.39577
C	 0.5570685203	 2.1696775466	-0.4667995161	-0.151126
C	 1.1573557626	 1.0583756949	-1.3451118542	 0.013581
C	 1.380687599	-0.2180862926	-0.5152656402	-0.056671
O	 0.1595187607	-0.7516300217	-0.0412751685	-0.425507
N	 0.232922272	 0.687020707	-2.422823162	-0.0987
C	 0.1798452535	 1.4643637681	-3.6555218712	-0.250962
C	 0.7142533649	 0.0749239881	-3.671231016	 0.02061
C	 2.1719309704	-0.1905855917	-3.9827254111	-0.416431
H	 1.2316829291	 3.8999512278	-1.6228742207	 0.105811
H	-0.454018881	 3.4513251271	-1.9249926801	 0.12652
H	-0.0121284785	 4.2622111216	-0.4234221743	 0.112545
H	 1.2465588371	 2.316715447	 0.3741773097	 0.092835
H	-0.376480514	 1.7955941617	-0.0353243897	 0.112151
H	 2.1339224669	 1.4024331998	-1.7267321686	 0.052855
H	 1.9260301111	-0.9574860576	-1.1239663465	 0.079699
H	 1.9999470882	 0.0070507631	 0.3600233249	 0.099748
H	-0.4516573219	-0.6765795196	-0.7871306826	 0.285645
H	-0.8114030345	 1.6973080295	-4.0370903006	 0.113867
H	 0.9100992134	 2.2623051225	-3.7811005401	 0.110803
H	 0.0474070094	-0.7112457717	-4.0229220504	 0.091228
H	 2.8221269075	 0.6332682734	-3.6791221977	 0.12442
H	 2.5287057566	-1.1048963381	-3.4970942035	 0.128353
H	 2.2930518083	-0.3232755827	-5.0632364657	 0.124493
62.6588	98.1062	119.8566	169.9423	189.7852	226.7677	259.2142	287.5102	296.2085	360.0425	400.5366	409.8195	494.3508	539.6479	637.6204	729.456	788.4355	825.403	856.9085	905.9525	931.5798	955.2937	1011.2795	1030.7043	1049.5258	1060.6992	1090.5179	1122.2185	1130.2494	1143.9831	1153.6671	1172.0378	1196.1304	1244.4275	1286.1167	1306.7164	1330.5822	1367.7395	1374.6936	1401.2505	1404.1325	1413.7607	1422.9844	1442.2494	1482.0747	1494.555	1499.1917	1501.4163	1507.8272	1512.5025	1513.7439	2951.4255	2975.1135	3029.2723	3031.8508	3039.9898	3064.958	3080.1663	3090.0315	3097.1444	3097.2878	3104.9198	3118.4513	3129.0705	3173.3557	3745.7904
CCC(CO)N1CC1C	CC[C@@H](CO)N1C[C@H]1C	
InChI=1S/C7H15NO/c1-3-7(5-9)8-4-6(8)2/h6-7,9H,3-5H2,1-2H3	InChI=1S/C7H15NO/c1-3-7(5-9)8-4-6(8)2/h6-7,9H,3-5H2,1-2H3/t6-,7+,8?/m1/s1
