18
gdb 82199	2.62158	1.83008	1.38591	3.458	69.98	-0.2374	0.0629	0.3004	975.1726	0.148142	-439.042214	-439.034441	-439.033497	-439.074032	30.968	
C	-0.2318663108	 1.4603081654	 0.0383182732	-0.494182
C	 0.119225872	 0.0009957659	-0.0091276874	 0.368222
O	-0.6405541171	-0.8665160666	 0.8504202313	-0.281938
C	 0.7742438693	-0.7822190904	 1.0530014785	-0.02209
C	 1.5681908924	-1.9124954443	 0.4202241118	-0.073688
N	 0.7293648499	-2.9090157466	-0.2807533828	-0.331997
C	 1.375200907	-1.829187705	-1.0494426861	-0.081042
C	 0.403489033	-0.6804123224	-1.3692250515	 0.071477
O	-0.7791785444	-1.110989893	-2.0042354498	-0.437419
H	 0.5829345243	 2.0734644276	-0.361382213	 0.119435
H	-1.1250950581	 1.6497201348	-0.5667246205	 0.14169
H	-0.4381865094	 1.7735940479	 1.0648592277	 0.128256
H	 1.0911564889	-0.3608246592	 2.0038759234	 0.093228
H	 2.5023001443	-2.2235819541	 0.8747173045	 0.089772
H	 1.259948439	-3.7688716259	-0.3994781695	 0.235985
H	 2.1542188476	-2.0822135306	-1.7610256981	 0.091068
H	 0.8811002619	 0.0342073593	-2.0477831326	 0.082704
H	-1.1425476097	-1.7856356327	-1.4133526891	 0.300521
139.8404	195.7166	222.3617	231.067	272.7528	379.2205	440.9164	485.1882	552.7664	573.7358	669.8454	699.2131	738.3586	821.136	853.209	863.8483	891.0703	916.2021	954.9264	969.3703	1027.3047	1058.8012	1061.4287	1095.9645	1113.3794	1140.1846	1163.7231	1214.7252	1237.0328	1286.6738	1312.0135	1317.3938	1364.094	1403.4245	1418.2766	1447.4027	1456.8467	1483.249	1497.0118	3034.6207	3062.9051	3099.6374	3122.6174	3142.705	3161.7412	3177.7404	3498.658	3756.5997
CC12OC1C1NC1C2O	C[C@]12O[C@H]1[C@H]1N[C@H]1[C@H]2O	
InChI=1S/C6H9NO2/c1-6-4(8)2-3(7-2)5(6)9-6/h2-5,7-8H,1H3	InChI=1S/C6H9NO2/c1-6-4(8)2-3(7-2)5(6)9-6/h2-5,7-8H,1H3/t2-,3+,4-,5+,6-/m1/s1
