22
gdb 40828	3.74577	1.04231	0.87307	1.9196	82.91	-0.2344	0.0846	0.319	1366.8183	0.196354	-404.325917	-404.317644	-404.3167	-404.358808	32.578	
C	 1.3646030618	 0.0702886746	-0.3638796876	-0.226259
C	 0.6032866596	-1.0648868111	-0.953994109	-0.22626
N	-0.0431227242	-0.1320677666	-0.0364794495	-0.062878
C	-0.3317108862	-0.6356155823	 1.3044680321	 0.055363
C	-0.3917204484	 0.5237927243	 2.3058100207	-0.209074
C	-0.852522695	 0.0211051573	 3.6767048406	-0.080333
O	-2.1013251545	-0.6441237682	 3.603843191	-0.241373
C	-2.0539544631	-1.7702937055	 2.7454472366	-0.080333
C	-1.6704106928	-1.3828056011	 1.3146664881	-0.209074
H	 2.1060347403	-0.1746893692	 0.3957759715	 0.107778
H	 1.5938416625	 0.9519648008	-0.9553253997	 0.116186
H	 0.2648403473	-1.0296625601	-1.9854612628	 0.116186
H	 0.8400376624	-2.0623814287	-0.5855309211	 0.107778
H	 0.4601363007	-1.3385248476	 1.6350359725	 0.046824
H	 0.5879444861	 1.0077041212	 2.3952734538	 0.091164
H	-1.0982329547	 1.2741109919	 1.9336295979	 0.113853
H	-0.090520555	-0.6546699852	 4.1049654787	 0.080781
H	-0.9886074137	 0.8527333863	 4.3740428532	 0.106937
H	-1.3371088575	-2.5133990084	 3.1387070265	 0.080781
H	-3.0500895223	-2.2210461706	 2.7761399915	 0.106937
H	-2.4416544006	-0.7290052435	 0.8923109328	 0.113853
H	-1.6167502125	-2.2796178883	 0.6863626223	 0.091164
102.2104	120.0209	183.4383	239.6246	272.1244	360.6189	397.6066	449.2901	483.5027	487.2931	581.6075	778.0162	823.4902	835.9815	863.2574	895.1786	897.2586	928.6103	999.7789	1005.1958	1021.8994	1029.3447	1073.6896	1112.3298	1112.8234	1118.1032	1137.6553	1161.7428	1183.4539	1192.1769	1199.679	1263.2959	1277.3171	1310.353	1317.1705	1329.901	1351.1458	1373.2874	1393.3163	1397.6903	1426.4116	1473.2167	1488.0346	1489.7688	1493.3834	1505.0169	1517.9292	2887.0867	2943.4637	2950.3907	3034.276	3036.59	3079.187	3082.1834	3084.9329	3087.9931	3090.4197	3094.7805	3174.9144	3189.1186
C1CN1C1CCOCC1	C1CN1C1CCOCC1	
InChI=1S/C7H13NO/c1-5-9-6-2-7(1)8-3-4-8/h7H,1-6H2	InChI=1S/C7H13NO/c1-5-9-6-2-7(1)8-3-4-8/h7H,1-6H2
