22
gdb 114614	2.35561	1.17739	0.98049	2.5882	81.76	-0.2268	0.0723	0.2991	1337.3972	0.193747	-404.300892	-404.291225	-404.290281	-404.335705	36.023	
C	 0.0064632257	 1.5473156021	 0.1145712839	-0.385426
C	-0.0306266307	 0.0310979968	-0.1122030721	-0.286738
C	-1.4026451478	-0.5787839309	 0.0186744133	 0.328606
C	-1.8774303184	-1.672738665	-0.858442227	-0.297892
N	-2.5005790896	-0.3453941667	-1.0182653278	-0.168728
C	-3.4895008577	-0.2491204675	 0.1155460312	-0.170329
C	-2.3739683198	-0.3573926239	 1.1868766045	-0.039184
C	-2.4632049412	-1.399900989	 2.2860330288	-0.104353
O	-3.4944003822	-0.9890260496	 3.174015891	-0.421297
H	 1.0104508659	 1.9421726723	-0.0675109337	 0.111901
H	-0.6870288587	 2.0523564912	-0.564601342	 0.133951
H	-0.2690807798	 1.8133032889	 1.1399802617	 0.117446
H	 0.3475291375	-0.1939178802	-1.1162669352	 0.105723
H	 0.6496226097	-0.4702195769	 0.5905864039	 0.098621
H	-1.2389989585	-1.9461025921	-1.6936186889	 0.114946
H	-2.479933029	-2.4919026953	-0.4709383494	 0.104581
H	-3.9991812828	 0.7152895929	 0.0956394867	 0.111517
H	-4.2394315836	-1.0479493869	 0.1094893947	 0.101889
H	-2.2084976103	 0.6144471486	 1.6590433637	 0.089558
H	-2.6808928232	-2.3914632469	 1.8605475616	 0.083036
H	-1.4923556846	-1.4734497443	 2.8044565195	 0.084718
H	-3.5947072309	-1.6620885274	 3.8533739915	 0.287454
64.5	81.41	149.1208	172.3109	206.7917	231.3186	270.6034	302.0734	395.2069	433.7078	486.3617	537.1037	610.2261	725.407	764.4644	809.8479	855.4546	872.8366	912.9751	967.0613	1005.858	1012.7499	1059.8969	1070.8385	1096.0087	1100.7001	1110.3161	1131.7857	1150.5666	1196.4267	1204.4471	1248.2011	1263.2139	1277.5437	1290.8351	1330.0102	1340.8377	1378.7363	1406.9149	1408.9061	1463.0447	1471.5753	1493.5442	1500.4869	1508.3994	1510.1123	1523.2294	2958.953	2993.609	3012.9579	3039.1675	3042.6436	3058.2202	3076.8354	3100.4205	3106.9594	3115.0404	3117.5804	3188.4122	3830.3986
CCC12CN1CC2CO	CC[C@]12CN1C[C@H]2CO	
InChI=1S/C7H13NO/c1-2-7-5-8(7)3-6(7)4-9/h6,9H,2-5H2,1H3	InChI=1S/C7H13NO/c1-2-7-5-8(7)3-6(7)4-9/h6,9H,2-5H2,1H3/t6-,7+,8?/m0/s1
