19
gdb 9609	3.02394	1.47524	1.19803	4.3165	76.65	-0.28	0.0316	0.3117	1081.2152	0.164488	-327.944318	-327.935367	-327.934423	-327.977669	32.848	
C	 0.1666685424	 1.4936490764	 0.2388408335	-0.386815
C	-0.1871541011	 0.0565616823	-0.1636346274	-0.251536
C	 0.6486638586	-0.4764996367	-1.3193384235	 0.350832
C	 0.4457618457	 0.2140200611	-2.655649529	-0.461979
C	 2.0140065274	-1.0201307244	-1.0109503184	-0.313959
C	 0.8987905793	-1.9862305074	-1.3957703402	-0.227651
C	 0.3573460495	-2.8817690391	-0.4141630454	 0.291703
N	-0.0853568859	-3.6041662989	 0.3746613091	-0.349656
H	 1.2237590932	 1.5785386962	 0.5123078229	 0.119028
H	-0.0271831913	 2.2052060631	-0.5696562697	 0.119614
H	-0.4283769061	 1.8069469553	 1.1015345155	 0.121201
H	-0.0652113001	-0.6013917825	 0.7030503069	 0.121814
H	-1.248298218	 0.0006785353	-0.4384292747	 0.106508
H	 0.7334064863	 1.2687885435	-2.6016398377	 0.12916
H	 1.048973603	-0.2506234299	-3.4416760848	 0.117703
H	-0.6042185813	 0.1682726707	-2.9649216526	 0.127023
H	 2.8124690445	-0.8887863324	-1.7329162313	 0.123966
H	 2.3372720073	-1.0375505554	 0.0238032152	 0.13509
H	 0.9476011268	-2.4143629173	-2.3916804185	 0.127952
82.5936	123.3728	143.0995	208.1631	222.466	255.5702	324.6386	363.7223	375.8804	431.8412	558.563	613.2344	686.502	783.1029	794.8594	860.6494	908.2938	937.9835	993.6293	1021.5825	1030.2218	1075.2144	1083.4494	1114.4275	1123.8029	1141.2311	1250.4177	1310.1102	1325.9235	1377.4463	1404.2048	1411.8418	1422.5424	1477.7487	1482.585	1495.2009	1500.0718	1505.6292	1509.5483	2347.7547	3028.3406	3032.599	3038.1668	3073.377	3098.4955	3102.8097	3107.7656	3111.9354	3137.5039	3164.1528	3227.4691
CCC1(C)CC1C#N	CC[C@@]1(C)C[C@H]1C#N	
InChI=1S/C7H11N/c1-3-7(2)4-6(7)5-8/h6H,3-4H2,1-2H3	InChI=1S/C7H11N/c1-3-7(2)4-6(7)5-8/h6H,3-4H2,1-2H3/t6-,7-/m0/s1
