16
gdb 35346	3.73454	1.45225	1.29839	5.618	74.63	-0.2496	0.0268	0.2765	983.5108	0.124452	-400.630268	-400.62331	-400.622366	-400.661545	27.781	
N	-0.366825273	-1.1991997583	-0.383698074	-0.341719
C	-0.1902424282	-0.0746555536	-0.1804050771	 0.313773
C	-0.0276996444	 1.3516105414	 0.0298153374	-0.198975
C	-0.0970538443	 1.8679571863	 1.5449922696	-0.341911
C	 1.4233658026	 2.0108185799	 1.4400224203	 0.381565
C	 2.8635477521	 2.5788832632	 1.4738717553	-0.311591
C	 2.7506427985	 1.3922743982	 0.4204761723	 0.027052
O	 2.0123491689	 0.6337762431	 1.4244627446	-0.318823
C	 1.4180357456	 1.9976886533	-0.0895041534	-0.04695
H	-0.7333557467	 1.8754199459	-0.6188830752	 0.129611
H	-0.6281907389	 2.8202621487	 1.5980665837	 0.12656
H	-0.4719808382	 1.1744322118	 2.2985366134	 0.144857
H	 3.006528846	 3.5968482063	 1.1032318656	 0.109708
H	 3.4757191377	 2.3449203868	 2.3456388537	 0.124764
H	 3.5632761362	 0.8867730983	-0.1056909283	 0.110453
H	 1.4385518161	 2.9342921587	-0.6472060579	 0.091626
122.4783	145.9197	307.6253	330.3955	403.1657	459.4549	527.6122	580.7141	669.4199	702.3926	720.5989	785.5886	815.5125	851.3149	871.8279	910.2322	956.9514	987.0964	1004.7737	1028.2023	1058.5306	1110.7818	1116.2839	1146.2769	1178.0174	1184.4698	1190.2608	1224.9181	1249.7306	1272.0253	1310.038	1352.1593	1463.7572	1483.196	2355.7035	3066.8113	3081.0393	3088.4414	3094.2358	3112.9839	3152.4383	3154.7196
N#CC1CC23CC(O2)C13	N#C[C@H]1C[C@@]23C[C@@H](O2)[C@@H]13	
InChI=1S/C7H7NO/c8-3-4-1-7-2-5(9-7)6(4)7/h4-6H,1-2H2	InChI=1S/C7H7NO/c8-3-4-1-7-2-5(9-7)6(4)7/h4-6H,1-2H2/t4-,5-,6-,7+/m1/s1
