19
gdb 65717	3.74534	1.07674	0.99577	2.5464	77.9	-0.2409	0.0232	0.2641	1246.4045	0.158611	-419.156418	-419.147745	-419.146801	-419.189762	32.993	
C	-0.0167852741	 1.6269676852	 0.1297127674	-0.450175
C	 0.0159881864	 0.1128580212	 0.0228753285	 0.427784
C	 1.0584274203	-0.5619794296	-0.9551370708	-0.288936
C	 1.6461671793	-1.3012552965	 0.2506562016	-0.039034
N	 2.0960377418	-0.2484622713	 1.1942139686	-0.341359
C	 0.674608057	-0.6644508474	 1.1751091239	-0.104444
O	-1.3027221952	-0.4366269357	-0.1209033743	-0.242836
C	-1.9528907248	-0.2191066224	-1.2791993131	 0.110839
N	-3.1440587448	-0.6177074694	-1.4160223375	-0.444503
H	 0.977704592	 1.9910123204	 0.3956500393	 0.148641
H	-0.3148917969	 2.0928368895	-0.8151513378	 0.113714
H	-0.7293190456	 1.9334139819	 0.9018230631	 0.128742
H	 0.5621202967	-1.2276779389	-1.663090425	 0.117895
H	 1.7445372938	 0.1065957457	-1.4806963828	 0.107431
H	 2.0816297905	-2.2918602329	 0.2728468556	 0.099176
H	 2.5285834753	-0.7160139357	 1.9902387756	 0.234397
H	 0.1699124024	-1.0415433973	 2.0553539433	 0.10396
H	-1.355155088	 0.3006734081	-2.0384621455	 0.092327
H	-3.4792622763	-0.3859876651	-2.34892506	 0.22638
74.1487	147.3798	162.2017	200.7215	238.6925	290.8416	367.4782	378.4754	449.0589	470.6343	596.1754	699.9292	783.5056	817.4964	825.4536	843.0647	867.0428	928.3574	945.8875	953.3541	990.2899	1010.1577	1050.2103	1083.0368	1098.1488	1105.8314	1145.3511	1172.2581	1194.1752	1222.8237	1253.2018	1288.1193	1309.0784	1337.0052	1382.9749	1404.1684	1423.6379	1465.0044	1488.124	1496.1734	1739.7482	3036.0398	3042.6433	3069.2327	3107.5079	3134.4809	3138.684	3193.7827	3207.6251	3478.5557	3514.2213
CC1(CC2NC12)OC=N	C[C@]1(C[C@H]2N[C@@H]12)O[CH][NH]	
InChI=1S/C6H10N2O/c1-6(9-3-7)2-4-5(6)8-4/h3-5,7-8H,2H2,1H3	InChI=1S/C6H10N2O/c1-6(9-3-7)2-4-5(6)8-4/h3-5,7-8H,2H2,1H3/t4-,5-,6-/m1/s1
