17
gdb 52829	2.72059	0.99072	0.95518	2.8098	79.07	-0.2472	0.0124	0.2596	1360.4818	0.13476	-417.969319	-417.959542	-417.958598	-418.005915	33.964	
C	 0.0153886845	 1.4998372822	-0.0676624249	-0.499425
C	 0.0236037236	 0.0453903062	-0.0195689132	 0.031815
C	 0.0145747876	-1.1589488262	 0.0135273369	 0.067459
C	 0.0505208093	-2.6158057932	 0.0382065417	-0.007208
N	 1.0002979541	-3.2325024701	-0.8905449397	-0.561501
C	 0.0574993218	-3.257651239	 1.4595800969	-0.088805
O	-1.2579264738	-3.8465965052	 1.2098836294	-0.253328
C	-1.3117105803	-3.3150474619	-0.0517495441	 0.43054
N	-2.1593064965	-3.408842838	-0.9670344456	-0.549237
H	 0.7143615154	 1.8760228141	-0.8226280861	 0.151505
H	-0.9810373046	 1.8788429679	-0.3193595451	 0.157338
H	 0.302761835	 1.9321541723	 0.8969587783	 0.150878
H	 0.5902554157	-3.2073552715	-1.8209487202	 0.251625
H	 1.8445845024	-2.6680239616	-0.9320320939	 0.233919
H	 0.8154936926	-4.0310142815	 1.5920572169	 0.12863
H	 0.0218277119	-2.5651732598	 2.3017384826	 0.123684
H	-2.9473433086	-4.0000075149	-0.6980713698	 0.232111
14.9616	82.261	83.8309	135.5099	206.5913	235.7366	279.877	304.9189	357.2778	422.5382	517.8411	539.2716	593.0053	700.1572	767.787	856.0692	889.5928	894.4066	936.2385	979.2313	1020.1373	1035.5411	1051.2407	1053.5325	1157.9304	1211.7562	1228.1574	1245.9528	1302.1457	1368.9528	1413.7907	1476.4783	1476.7975	1498.9209	1650.2518	1830.1074	2363.2296	3028.8007	3076.8241	3090.4878	3092.1639	3151.1277	3481.7347	3485.0871	3564.498
CC#CC1(N)COC1=N	CC#C[C@@]1(N)CO[C]1[NH]	
InChI=1S/C6H8N2O/c1-2-3-6(8)4-9-5(6)7/h7H,4,8H2,1H3	InChI=1S/C6H8N2O/c1-2-3-6(8)4-9-5(6)7/h7H,4,8H2,1H3/t6-/m1/s1
