23
gdb 37469	2.73817	1.56689	1.29507	0.2316	87.47	-0.2439	0.08	0.3239	1098.9086	0.210022	-351.142085	-351.134565	-351.133621	-351.173778	31.633	
C	 0.0216587021	 1.4498387443	 0.0291953563	-0.282018
C	 1.3307068423	 0.7177091189	 0.1177357136	-0.062592
C	 0.007651152	-0.0520087967	 0.0964926001	-0.065741
C	 0.3533539362	-0.6677052136	-1.2725188883	-0.012138
C	-0.5719139464	-0.3689407935	-2.4666074441	-0.218408
C	 0.2107592652	 0.0637157139	-3.7164807629	-0.184481
C	 1.1020563975	 1.2744549313	-3.408976188	-0.190279
C	 2.2194296841	 0.9122861684	-2.4129952726	-0.223664
C	 1.7508036743	 0.0730236015	-1.2093680929	 0.008315
H	-0.2796025647	 1.9495355987	 0.9448892998	 0.107256
H	-0.2762976573	 1.9797749033	-0.8702698631	 0.105743
H	 2.0039350776	 0.8796364773	 0.9522624422	 0.077123
H	-0.4842634535	-0.5756317272	 0.9077881698	 0.079586
H	 0.51016375	-1.7464244059	-1.1914823346	 0.067249
H	-1.194415494	-1.2426552317	-2.6905451797	 0.086271
H	-1.2653513219	 0.4391738621	-2.2033345958	 0.095389
H	 0.8348343984	-0.7659463475	-4.0781181361	 0.087556
H	-0.4888049158	 0.301694699	-4.5257177914	 0.088027
H	 1.5542972251	 1.6599156212	-4.3299236645	 0.087368
H	 0.4774796563	 2.0861514228	-3.0139019204	 0.095698
H	 2.9743522603	 0.3354709424	-2.9631076806	 0.090926
H	 2.7269348904	 1.8187366139	-2.0613995824	 0.092418
H	 2.5179843917	-0.6747842529	-0.9883762045	 0.070397
116.6198	144.1508	272.5629	308.8009	379.478	425.6995	462.3823	517.7856	601.2093	678.5676	727.195	770.8946	787.8759	819.5635	854.2183	907.1324	911.9627	927.1937	969.667	977.2827	1000.8545	1017.7934	1038.2022	1060.3681	1067.0774	1071.0636	1089.8941	1123.6667	1128.0992	1154.8771	1165.0066	1210.7991	1234.5426	1261.9072	1277.5505	1290.1447	1319.4397	1340.4888	1350.3293	1361.1118	1372.3824	1374.1468	1386.1331	1390.84	1480.2007	1485.6461	1492.6089	1495.84	1509.4144	3007.2957	3011.0916	3019.8729	3025.0627	3043.6549	3050.2719	3056.6475	3062.3584	3064.7916	3076.1536	3120.0514	3164.0294	3176.8362	3200.0921
C1C2C1C1CCCCC21	C1[C@H]2[C@@H]1[C@H]1CCCC[C@@H]21	
InChI=1S/C9H14/c1-2-4-7-6(3-1)8-5-9(7)8/h6-9H,1-5H2	InChI=1S/C9H14/c1-2-4-7-6(3-1)8-5-9(7)8/h6-9H,1-5H2/t6-,7+,8-,9+
