23
gdb 76201	2.11982	1.43197	1.19447	1.2309	86.6	-0.2345	0.0696	0.3041	1223.0644	0.20384	-388.272571	-388.262441	-388.261497	-388.30709	38.413	
C	 0.0174634948	 1.5726648422	-0.2216724304	-0.421444
C	 0.0275723279	 0.0641967355	-0.1126068704	-0.160221
C	 1.3305396174	-0.7197698467	-0.1171936752	 0.321969
C	 1.433022496	-2.0222600017	-0.8769110125	-0.44917
O	 2.5345018298	 0.0089305768	-0.075707655	-0.460129
C	 0.5227576177	-0.6160533774	 1.1448731445	 0.316383
C	 1.0234283922	 0.0435981076	 2.4390450191	-0.286185
C	 0.6418502017	-1.2604112434	 3.2010235266	-0.205664
C	-0.106486087	-1.7733654581	 1.9351341697	-0.304308
H	 0.9303365344	 1.9987556871	 0.2014712982	 0.129873
H	-0.0509210148	 1.8958668548	-1.2670703152	 0.107296
H	-0.837191688	 2.0044542995	 0.3110782672	 0.114419
H	-0.8058058324	-0.4343039923	-0.6064391349	 0.071817
H	 1.6777595951	-1.8403505164	-1.931288656	 0.104404
H	 2.2199268578	-2.6568738677	-0.454971677	 0.121623
H	 0.4906100448	-2.5760042691	-0.8493614724	 0.119371
H	 2.7314301161	 0.3087650868	-0.9703010373	 0.280172
H	 2.0764470996	 0.3303095395	 2.449550077	 0.115273
H	 0.4233472725	 0.9077762783	 2.7417755914	 0.094495
H	 1.5139403251	-1.8705463735	 3.4484528607	 0.103297
H	 0.0393215658	-1.1386823247	 4.1038089149	 0.09474
H	-1.1950247245	-1.6873073661	 2.0170054856	 0.096554
H	 0.133131448	-2.7880888011	 1.6048890514	 0.095434
70.0912	154.1796	166.6267	180.6495	206.6079	210.9322	241.7208	255.2782	290.2725	383.9303	452.4679	495.6468	532.164	599.3382	688.2998	719.666	779.8745	802.3567	859.502	942.426	949.0772	953.1837	970.9919	1014.3734	1052.959	1072.9984	1091.5265	1115.0316	1151.8743	1169.7989	1176.1307	1219.1603	1231.7059	1249.3061	1252.9622	1262.7044	1283.564	1303.5543	1352.8463	1408.7716	1416.3577	1462.1872	1478.0581	1482.3197	1486.5001	1496.8318	1499.6033	1507.0186	1512.151	3019.9507	3026.9037	3041.8961	3050.0457	3064.75	3079.839	3080.5431	3087.0574	3105.7531	3108.8207	3114.6265	3123.4858	3125.4373	3790.5687
CC1C(C)(O)C11CCC1	C[C@H]1[C@@](C)(O)C21CCC2	
InChI=1S/C8H14O/c1-6-7(2,9)8(6)4-3-5-8/h6,9H,3-5H2,1-2H3	InChI=1S/C8H14O/c1-6-7(2,9)8(6)4-3-5-8/h6,9H,3-5H2,1-2H3/t6-,7+/m0/s1
