19
gdb 43347	2.74509	1.7256	1.41331	3.6938	80.34	-0.232	-0.0453	0.1866	982.8084	0.16328	-385.942654	-385.935632	-385.934688	-385.974	28.615	
O	 0.0106352685	-0.0533806891	-0.0022208822	-0.348433
C	-0.0264536191	 1.1597489544	 0.044550168	 0.385396
C	-1.2993964295	 1.9187748122	 0.0775536184	-0.154745
C	-1.2908457765	 3.2584241864	 0.1347190531	-0.052168
C	 0.0003238524	 4.0395653039	 0.1797515671	-0.056988
C	 0.6402677989	 4.0809371658	-1.2407935771	-0.205747
C	 1.3703666655	 2.7141812909	-1.3726667082	-0.220993
C	 1.2324182008	 2.026878304	 0.0240247746	-0.107719
C	 1.0426885693	 3.2265000654	 0.9714565893	-0.24266
H	-2.2155044414	 1.338027078	 0.042242228	 0.104919
H	-2.2250056717	 3.8149653634	 0.1184502391	 0.105701
H	-0.1715377145	 5.041438611	 0.5800886839	 0.070582
H	-0.1041247029	 4.2408164007	-2.0242875291	 0.104826
H	 1.3528157892	 4.909904706	-1.2939102566	 0.103433
H	 0.9590759867	 2.0912694872	-2.1707680637	 0.116556
H	 2.4292638744	 2.8626360683	-1.6012008287	 0.110065
H	 2.0851873324	 1.3886415747	 0.2605503187	 0.083057
H	 1.977463985	 3.7874913289	 1.0818273726	 0.097843
H	 0.6923027724	 2.9421406178	 1.9675670528	 0.107074
98.4926	192.0854	273.7483	382.6112	391.4083	442.3892	458.3832	603.8272	701.9773	727.3137	729.636	793.0506	833.1039	864.3539	879.9247	896.495	924.767	951.2191	978.4303	1012.4447	1020.676	1054.8006	1070.5025	1112.7264	1163.8754	1177.9064	1206.1217	1215.6288	1241.7184	1261.2554	1305.501	1324.4948	1335.6545	1346.5817	1367.5268	1400.4585	1487.5495	1493.3088	1512.0369	1666.6147	1780.3255	3041.1743	3050.601	3063.8617	3082.1941	3092.7862	3096.5699	3104.0514	3112.8162	3155.1398	3191.5217
O=C1C=CC2CCC1C2	O=C1C=C[C@@H]2CC[C@H]1C2	
InChI=1S/C8H10O/c9-8-4-2-6-1-3-7(8)5-6/h2,4,6-7H,1,3,5H2	InChI=1S/C8H10O/c9-8-4-2-6-1-3-7(8)5-6/h2,4,6-7H,1,3,5H2/t6-,7-/m0/s1
