21
gdb 64302	2.28418	1.5222	1.15277	3.2413	86.51	-0.2465	-0.0535	0.193	1164.3742	0.181645	-387.130999	-387.121725	-387.120781	-387.164651	35.243	
C	 0.0073526853	 1.5890804033	-0.1092339294	-0.43875
C	-0.0021185881	 0.054674054	-0.0135556468	 0.190392
C	-1.4572970187	-0.4510044583	 0.0807910193	-0.430353
C	 0.7553909184	-0.6009422412	-1.212961929	-0.24962
C	 1.5661123311	-1.7862241426	-0.631540861	-0.268084
C	 1.6375714074	-1.4592723628	 0.8327275764	-0.156648
C	 0.8000736132	-0.4694984107	 1.176421006	 0.234367
C	 0.6345611872	-0.0348796944	 2.5665070672	 0.073306
O	-0.1781066376	 0.7764232408	 2.9577706429	-0.281178
H	 1.0318646947	 1.9751837024	-0.1391793705	 0.105152
H	-0.5003503936	 1.914011172	-1.0244382592	 0.10683
H	-0.5003439539	 2.0364753217	 0.7477073082	 0.14436
H	-2.0401322362	-0.0984763505	-0.7773201715	 0.110127
H	-1.4991583087	-1.5454817391	 0.0914423518	 0.105896
H	-1.9344502517	-0.0830181121	 0.992940457	 0.139434
H	 0.0722211152	-0.9071070725	-2.0098132643	 0.099751
H	 1.4468264943	 0.1297294462	-1.6447034352	 0.102723
H	 1.0611803599	-2.7523574338	-0.7746377497	 0.12085
H	 2.5553011769	-1.8951730965	-1.0902914652	 0.114817
H	 2.2680622075	-1.9988493556	 1.5337736074	 0.107201
H	 1.3327568772	-0.5280381802	 3.2809501257	 0.069429
79.3584	127.0428	187.1922	220.5972	246.1812	273.0891	292.6646	321.1959	358.6845	387.8466	471.397	586.0981	622.8393	686.6584	738.4349	797.6428	857.1444	899.5716	934.6298	946.5076	965.7778	995.3012	1023.2345	1031.2369	1049.5815	1124.7548	1150.1308	1220.0204	1226.3529	1237.3416	1266.1707	1318.6071	1322.8897	1365.4836	1393.7572	1415.2096	1427.9485	1472.1874	1481.2832	1494.0193	1498.3246	1501.5016	1516.4711	1674.6306	1776.5396	2867.0155	3009.0091	3027.0311	3030.6683	3046.332	3059.9595	3090.4734	3094.2036	3097.1387	3118.7414	3132.4352	3176.2711
CC1(C)CCC=C1C=O	CC1(C)CCC=C1C=O	
InChI=1S/C8H12O/c1-8(2)5-3-4-7(8)6-9/h4,6H,3,5H2,1-2H3	InChI=1S/C8H12O/c1-8(2)5-3-4-7(8)6-9/h4,6H,3,5H2,1-2H3
