14
gdb 131267	3.33944	1.32023	0.9902	3.5657	67.51	-0.226	0.0029	0.2289	1110.6425	0.102425	-432.896285	-432.888375	-432.887431	-432.92921	28.986	
O	 0.6756494732	 1.2390451268	 0.1337378072	-0.449791
C	 0.2954493387	-0.0621665323	 0.0622356996	 0.200814
C	 0.0154958327	-0.7480302969	-1.1031459149	-0.100753
N	-0.3628339845	-1.9945680002	-0.7154315731	-0.186003
N	-0.3364126353	-2.1743975977	 0.6106817102	-0.285011
C	 0.0519549833	-0.9969298338	 1.1006445039	 0.232665
C	 0.1596807706	-0.8029244335	 2.5897136067	-0.439221
C	 1.25513803	 0.104613708	 2.9353936101	 0.257396
N	 2.1075905217	 0.8578955629	 3.1439911095	-0.318096
H	 1.1971410356	 1.3829318202	 0.9340991248	 0.312977
H	 0.0606330374	-0.4438099886	-2.13531707	 0.143498
H	-0.6351544242	-2.7625851221	-1.3042488624	 0.28101
H	-0.7658923399	-0.3875667679	 3.0095047425	 0.17094
H	 0.3202730005	-1.7724920248	 3.0705934259	 0.179576
53.2712	119.1521	239.1777	263.9989	338.1376	356.5433	382.6171	456.1543	483.0878	497.8749	660.1528	681.5322	713.0138	765.6419	775.9069	935.4069	947.0812	950.6622	1075.3516	1160.5759	1199.1621	1228.9392	1268.8939	1320.8037	1356.2271	1426.011	1453.6395	1477.2329	1529.6069	1642.0598	2353.1648	3029.0464	3093.708	3279.336	3680.9271	3765.1821
OC1=CNN=C1CC#N	Oc1c[nH]nc1CC#N	
InChI=1S/C5H5N3O/c6-2-1-4-5(9)3-7-8-4/h3,9H,1H2,(H,7,8)	InChI=1S/C5H5N3O/c6-2-1-4-5(9)3-7-8-4/h3,9H,1H2,(H,7,8)
