20
gdb 91975	2.18829	1.74336	1.15951	2.02	83.64	-0.2374	0.0553	0.2927	1120.8165	0.171367	-365.963069	-365.954438	-365.953494	-365.996553	33.683	
C	 0.1207781938	 1.5740658156	-0.1502656223	-0.409651
C	 0.0899655704	 0.0548945242	-0.0158265648	 0.033663
C	 0.6334399536	-0.7113909002	-1.2516948706	-0.221255
C	 1.1638313573	-2.0300023328	-0.706278242	-0.041369
N	 2.5031107961	-1.8843293925	-0.1029997426	-0.316894
C	 1.3177107859	-1.9236593546	 0.7680225555	-0.048768
C	 0.8452614753	-0.538148455	 1.2382844469	-0.210117
C	 1.9272833501	 0.2885755227	 1.7620432388	 0.388687
C	 2.8000402759	 0.9734112497	 2.2254043268	-0.508937
H	 1.1459703106	 1.9353872202	-0.2705925516	 0.134024
H	-0.4605213899	 1.8931953189	-1.0219904358	 0.106936
H	-0.3023405786	 2.0639542837	 0.7325427667	 0.11463
H	-0.9534064656	-0.258412132	 0.1142535173	 0.075602
H	-0.1553471241	-0.8619495832	-1.9949872933	 0.094909
H	 1.4454658844	-0.1572809401	-1.7340745477	 0.114945
H	 0.9024935286	-2.9685506775	-1.184976434	 0.085544
H	 2.9709114198	-2.787170971	-0.0709511141	 0.229464
H	 1.1815922822	-2.7720510709	 1.4307363954	 0.088501
H	 0.1143051725	-0.6726587393	 2.0449688222	 0.099825
H	 3.5827371519	 1.5697626941	 2.623749139	 0.190262
40.7214	139.9803	165.7324	236.0401	306.0655	324.2843	384.7333	411.6932	470.1219	581.1741	610.6626	632.8187	636.278	688.8331	758.5831	811.9567	859.303	884.2088	925.4474	936.3031	942.9241	982.362	999.501	1068.8306	1079.9787	1122.166	1133.9432	1166.891	1173.3079	1219.3716	1236.0502	1275.7473	1309.2168	1320.2491	1353.3244	1367.7187	1372.3878	1411.8684	1422.2002	1483.4446	1494.2144	1496.3507	2232.904	3012.9862	3032.1957	3035.509	3046.5071	3091.518	3099.1983	3116.5442	3153.0038	3164.2549	3495.257	3504.7336
CC1CC2NC2C1C#C	C[C@H]1C[C@H]2N[C@H]2[C@H]1C#C	
InChI=1S/C8H11N/c1-3-6-5(2)4-7-8(6)9-7/h1,5-9H,4H2,2H3	InChI=1S/C8H11N/c1-3-6-5(2)4-7-8(6)9-7/h1,5-9H,4H2,2H3/t5-,6-,7+,8-/m0/s1
