20
gdb 72727	2.62981	1.967	1.56346	1.5181	78.95	-0.2366	0.0458	0.2824	944.8117	0.171945	-403.017368	-403.009967	-403.009022	-403.048496	31.173	
C	-0.0932524171	 1.5353419666	-0.0071419963	-0.435852
C	 0.0251256975	 0.0216533701	-0.0194012899	 0.450478
O	 1.1276294079	-0.3241593403	-0.9761786243	-0.370319
C	 2.0176952416	-0.3888176294	 0.2139091736	-0.219921
C	 0.7406150744	-0.7643670678	 1.0172328313	 0.234048
C	 0.4027361907	-2.2619545078	 0.7286865578	-0.231812
C	-1.1224455001	-2.1475903211	 0.476324036	-0.223916
C	-1.2346209643	-0.6452593155	 0.6938292422	-0.096363
N	-0.3679605081	-0.3532985518	 1.9685746625	-0.410069
H	 0.8735795065	 2.0345413957	 0.0980331827	 0.115533
H	-0.5129238124	 1.8407258872	-0.973354774	 0.121413
H	-0.7541076025	 1.8853408901	 0.7866227282	 0.135571
H	 2.7880492919	-1.1550254277	 0.0984784735	 0.113663
H	 2.466338217	 0.5862982449	 0.4193664743	 0.116963
H	 0.94187204	-2.6684663498	-0.1269431512	 0.116244
H	 0.6486053789	-2.8642599256	 1.6099110833	 0.090459
H	-1.4151881668	-2.4448561398	-0.5346805916	 0.111227
H	-1.7327280865	-2.715166979	 1.1849428177	 0.096422
H	-2.2157673078	-0.1660579513	 0.6776483171	 0.075672
H	-0.5436198508	-1.0515627579	 2.6951682473	 0.210558
177.8168	215.0244	252.5879	324.396	374.1308	399.3583	456.6161	502.4101	529.3192	610.9597	670.7413	743.2035	782.4091	822.1242	831.3853	865.0313	890.4573	913.212	940.831	954.4503	994.4337	1018.6686	1040.9247	1068.8603	1086.8145	1128.0243	1139.5903	1145.8658	1175.0765	1215.8531	1235.7034	1248.8626	1270.1488	1290.9699	1307.6818	1320.8112	1353.593	1406.1098	1476.4898	1481.9804	1496.5532	1505.2694	1512.7361	3036.9932	3045.6637	3055.8224	3057.9649	3094.1851	3099.0202	3100.6552	3120.0557	3129.1704	3144.2925	3413.921
CC12OCC11CCC2N1	C[C@@]12OC[C@@]31CC[C@H]2N3	
InChI=1S/C7H11NO/c1-6-5-2-3-7(6,8-5)4-9-6/h5,8H,2-4H2,1H3	InChI=1S/C7H11NO/c1-6-5-2-3-7(6,8-5)4-9-6/h5,8H,2-4H2,1H3/t5-,6+,7-/m1/s1
