22
gdb 100271	1.92407	1.39664	1.16894	4.8054	77.52	-0.2467	0.0232	0.2698	1240.6206	0.192821	-441.53236	-441.521706	-441.520762	-441.567862	39.154	
C	 0.0435921616	 1.5921778877	 0.0711123195	-0.407926
C	-0.0410003989	 0.0616679347	 0.0479544803	-0.204046
C	-1.4653247446	-0.5348351609	-0.0703692827	 0.100608
N	-2.1333255522	 0.0308214432	-1.2630627372	-0.563811
H	-2.8340998846	-0.6098981956	-1.6220699974	 0.242582
H	-3.0414074678	 1.0917664949	-0.0180543095	 0.306234
H	-1.4659100128	 0.1936184239	-2.009575428	 0.240211
C	-1.3706403103	-2.0763389099	-0.0734767304	-0.193599
C	-2.7099461702	-2.8134488171	-0.1725363253	-0.418569
C	-2.256867976	-0.0738454629	 1.1826778316	 0.448415
O	-3.1117263944	 0.9298075859	 0.9501239875	-0.379477
O	-2.0901985099	-0.5524217051	 2.2744554797	-0.362691
H	 1.0872620169	 1.9080901255	 0.1578414311	 0.119602
H	-0.3636892363	 2.0412471186	-0.8398336617	 0.115715
H	-0.5026844325	 2.0127638304	 0.9203734909	 0.143538
H	 0.5532950389	-0.331221122	-0.7882357156	 0.09174
H	 0.4014219679	-0.3423926813	 0.9633559019	 0.130671
H	-0.7170115112	-2.3745658931	-0.9028848423	 0.08608
H	-0.8736566119	-2.3743335868	 0.8538036155	 0.130339
H	-3.244414169	-2.5989633043	-1.1060329971	 0.103606
H	-2.5488428579	-3.8950193554	-0.1471334139	 0.124111
H	-3.3657619448	-2.5562919703	 0.6643588531	 0.146668
71.6477	93.771	101.7232	176.4179	184.6218	218.0266	263.2094	285.7937	301.0498	326.4593	382.498	391.2117	487.1667	549.388	561.5253	744.7275	747.9417	781.3819	792.8371	860.3375	891.4379	922.4519	961.986	996.395	1036.5254	1061.093	1079.8982	1092.9598	1175.6849	1205.4676	1222.6855	1269.506	1294.9965	1355.8494	1368.4868	1375.0424	1413.4828	1420.7441	1430.4975	1467.7744	1482.8532	1499.7414	1500.675	1505.4697	1508.0366	1650.0725	1855.7596	3015.2551	3027.9681	3029.9891	3043.0916	3081.7797	3085.9477	3103.0771	3111.6363	3117.1385	3118.1818	3448.2482	3504.655	3584.3039
CCC([NH3+])(CC)C([O-])=O	CCC(N)(CC)C(=O)O	
InChI=1S/C6H13NO2/c1-3-6(7,4-2)5(8)9/h3-4,7H2,1-2H3,(H,8,9)	InChI=1S/C6H13NO2/c1-3-6(7,4-2)5(8)9/h3-4,7H2,1-2H3,(H,8,9)
