18
gdb 126393	3.40264	1.11352	0.89235	1.934	75.21	-0.23	0.0322	0.2621	1331.841	0.14827	-435.311563	-435.30227	-435.301326	-435.346446	32.832	
C	 0.002527376	 1.5133249032	-0.2137947169	-0.37332
C	-0.1018408484	 0.0393587346	 0.2080345528	-0.278109
C	-1.4999017646	-0.4841330205	 0.1389593653	 0.3519
N	-2.1511363947	-0.9175839422	 1.2034899106	-0.322918
N	-3.3690083389	-1.2859456988	 0.6859123163	-0.020022
C	-4.4152868576	-1.830676772	 1.519159473	-0.329341
C	-3.358293632	-1.0476526537	-0.6361009169	 0.444763
O	-4.427827763	-1.3183125832	-1.3962206757	-0.426505
N	-2.2117621728	-0.5445536008	-1.0343030829	-0.417383
H	 1.0430866665	 1.8505436829	-0.1880378401	 0.110035
H	-0.3794289146	 1.6510336209	-1.2289618217	 0.133576
H	-0.5795025498	 2.1539925396	 0.4560609847	 0.119515
H	 0.5348189915	-0.5686236605	-0.4462322094	 0.113676
H	 0.2597384799	-0.0958723384	 1.2312293996	 0.117868
H	-4.6906135688	-1.1136206682	 2.2972271807	 0.149645
H	-5.2833400744	-2.0383775876	 0.8925162813	 0.157486
H	-4.0786562024	-2.7564884899	 1.9936333591	 0.149548
H	-4.1923666921	-1.0697518756	-2.2988965198	 0.319587
48.491	75.9904	123.1517	180.8331	198.8817	272.8874	280.1275	328.9718	399.8767	424.9088	528.4452	614.4308	679.8842	715.3289	760.6966	802.9761	837.8277	976.1946	1038.0385	1040.5824	1082.1981	1102.3572	1156.2001	1173.2908	1272.2573	1283.9433	1317.8684	1344.7273	1398.692	1413.2026	1452.8208	1475.8826	1479.5694	1495.6682	1501.1261	1509.5499	1535.0551	1594.1279	1632.9748	3035.6559	3040.7899	3050.9882	3092.4026	3110.3395	3115.2259	3123.9697	3156.7043	3806.9228
CCC1=NN(C)C(O)=N1	CCc1nn(C)c(O)n1	
InChI=1S/C5H9N3O/c1-3-4-6-5(9)8(2)7-4/h3H2,1-2H3,(H,6,7,9)	InChI=1S/C5H9N3O/c1-3-4-6-5(9)8(2)7-4/h3H2,1-2H3,(H,6,7,9)
