15
gdb 45809	3.07112	1.64361	1.14771	3.4389	67.65	-0.2552	-0.0096	0.2457	1007.3484	0.114738	-453.965311	-453.958157	-453.957213	-453.997289	27.232	
O	 0.002059649	-0.064179224	-0.3529898972	-0.353385
C	-0.0440806989	 1.1012606866	-0.0712560385	 0.450477
N	-1.1699808231	 1.7542081774	 0.3434933786	-0.350232
C	-1.4875812267	 3.1412106917	 0.2005588891	-0.031842
C	-1.6950446514	 3.9541976889	 1.4659637785	-0.310789
C	-0.4780407518	 4.1792523536	 0.6115160596	 0.034692
N	 0.8302014645	 3.891505791	 1.0973528941	-0.231746
C	 1.4699758136	 2.8747711258	 0.7287722822	 0.120838
O	 1.123121865	 1.8470846401	-0.1193559367	-0.224393
H	-1.9553417321	 1.1212153911	 0.402505146	 0.26445
H	-2.1141145351	 3.3754191962	-0.6581480357	 0.109543
H	-2.467345221	 4.7142837376	 1.4822218231	 0.124348
H	-1.5420913824	 3.4211475687	 2.3972136047	 0.134126
H	-0.484623441	 5.0958175818	 0.0275501054	 0.121783
H	 2.4995579113	 2.7333728935	 1.0507668267	 0.142129
86.2519	113.4649	256.4174	328.6389	373.8475	432.6476	516.0634	560.5603	620.0008	722.7117	745.1959	769.9539	797.9818	836.969	863.6749	906.7898	970.5325	1017.4739	1059.0193	1066.0942	1107.2766	1125.4755	1149.491	1162.0317	1239.3806	1324.0704	1391.0507	1409.1071	1429.2741	1465.1616	1494.6162	1755.3717	1858.5279	3113.8964	3142.1582	3145.233	3167.1714	3239.2293	3601.2932
O=C1NC2CC2N=CO1	O=C1N[C@H]2C[C@H]2N=CO1	
InChI=1S/C5H6N2O2/c8-5-7-4-1-3(4)6-2-9-5/h2-4H,1H2,(H,7,8)	InChI=1S/C5H6N2O2/c8-5-7-4-1-3(4)6-2-9-5/h2-4H,1H2,(H,7,8)/t3-,4+/m1/s1
