21
gdb 54906	3.13346	1.04066	0.99993	1.8765	78.89	-0.2317	-0.0156	0.2161	1331.1832	0.178679	-424.245063	-424.234786	-424.233841	-424.281432	37.209	
C	-0.9840977793	 0.7359923766	 0.157373591	-0.477201
C	 0.4403185921	 0.7872964937	-0.3496288145	 0.348041
O	 1.2428674957	 1.6224543869	-0.0005904596	-0.296987
C	 0.824906553	-0.2829057876	-1.3712415237	 0.045978
C	 2.2622482105	-0.8174776356	-1.3129729553	-0.347178
C	 1.6012622358	-2.1850214354	-0.9898031139	 0.434191
C	 1.7530062926	-3.2545627083	-2.061288281	-0.428381
C	 1.8563580965	-2.7249075011	 0.4099511391	-0.425198
O	 0.2651001838	-1.5783002912	-1.0688741184	-0.340664
H	-1.1855751137	-0.2494552736	 0.5863994467	 0.158565
H	-1.1476382949	 1.5233597473	 0.8937085698	 0.137274
H	-1.682718594	 0.8583924958	-0.6789223904	 0.140294
H	 0.4965674468	 0.0733030656	-2.3605173129	 0.096029
H	 2.8148539419	-0.7812958534	-2.2525114961	 0.107402
H	 2.8663502345	-0.3786787957	-0.5181164842	 0.126592
H	 2.7722751533	-3.655830733	-2.0649404399	 0.117196
H	 1.0598176183	-4.0814060864	-1.8763565443	 0.123977
H	 1.539388036	-2.8449609147	-3.0526390486	 0.117854
H	 1.7288364599	-1.9394717459	 1.1602463886	 0.120404
H	 1.1584349643	-3.5366713857	 0.6394668753	 0.123236
H	 2.8762442169	-3.1159881585	 0.4920318921	 0.118577
26.232	46.0673	122.6126	162.2418	206.5497	246.8732	248.1282	323.6695	340.8434	375.5465	428.3242	447.6301	518.1395	587.2761	666.4777	730.3758	861.4691	872.408	903.2343	941.0727	945.9917	980.5655	984.3225	1025.8618	1040.2774	1047.0258	1122.3801	1170.3028	1210.1055	1238.2354	1272.5012	1283.9986	1292.0299	1356.1699	1379.1659	1400.7145	1413.6521	1462.9989	1467.0913	1474.3026	1480.0718	1492.6716	1495.7486	1504.9127	1811.4033	2978.555	3030.7256	3036.4823	3041.7369	3086.9551	3101.5715	3108.9424	3109.0476	3111.6879	3114.6716	3143.7001	3159.4422
CC(=O)C1CC(C)(C)O1	CC(=O)[C@H]1CC(C)(C)O1	
InChI=1S/C7H12O2/c1-5(8)6-4-7(2,3)9-6/h6H,4H2,1-3H3	InChI=1S/C7H12O2/c1-5(8)6-4-7(2,3)9-6/h6H,4H2,1-3H3/t6-/m1/s1
