16
gdb 69612	3.63253	1.19369	1.1581	4.579	74.46	-0.252	-0.0112	0.2408	1112.0241	0.122981	-400.684758	-400.676927	-400.675983	-400.716916	30.209	
C	-0.0932648418	 1.5435850672	 0.0196398875	-0.495694
C	 0.0059739513	 0.0471873115	 0.018203637	 0.305929
C	-0.8655833691	-0.894943661	 0.8056732628	-0.33245
C	 0.6227206983	-0.900492491	 1.0420599911	-0.189895
C	 1.3675008482	-1.637205902	-0.1176869843	 0.317098
O	 0.4166676872	-2.1211429117	-1.0815760736	-0.263773
C	 0.7617430678	-0.7366616316	-1.1085575893	-0.111236
C	 2.6577332003	-2.2413235293	-0.0530369081	 0.209611
N	 3.7125122499	-2.7067933578	 0.0414791965	-0.3385
H	 0.8723494442	 2.0114900391	-0.203861932	 0.127073
H	-0.8155286441	 1.8944106146	-0.7269912212	 0.130354
H	-0.4209982202	 1.9097870769	 0.9972258705	 0.12974
H	-1.435104112	-0.417247516	 1.596981932	 0.121952
H	-1.3510811057	-1.7400241507	 0.3345809951	 0.1442
H	 1.0950461485	-0.6704741096	 1.9871660056	 0.114317
H	 1.1660914072	-0.3335591086	-2.0297707196	 0.131272
112.363	153.2155	203.0268	257.0492	288.4445	403.1831	429.0338	479.2999	532.3086	554.7537	597.4713	655.012	793.1998	800.6264	840.3583	891.0916	912.639	934.5309	967.4223	1006.7579	1014.3375	1077.7904	1100.2082	1119.1026	1125.7571	1194.719	1232.8263	1281.3055	1372.5536	1417.7815	1424.9557	1476.8746	1485.3092	1498.5813	2354.1346	3024.3276	3082.5393	3104.6087	3140.2867	3194.089	3214.8027	3233.5893
CC12CC1C1(OC21)C#N	C[C@]12C[C@H]1[C@]1(O[C@@H]21)C#N	
InChI=1S/C7H7NO/c1-6-2-4(6)7(3-8)5(6)9-7/h4-5H,2H2,1H3	InChI=1S/C7H7NO/c1-6-2-4(6)7(3-8)5(6)9-7/h4-5H,2H2,1H3/t4-,5+,6+,7-/m1/s1
