21
gdb 40432	3.90773	1.20099	1.06395	1.7155	81.8	-0.2487	0.0897	0.3384	1211.4809	0.18415	-387.08218	-387.074166	-387.073222	-387.114747	31.901	
C	-0.3591759054	 1.1903374555	-0.3256086202	-0.270817
C	 1.0056383203	 1.2690945317	 0.3095851211	-0.26422
C	 0.350976755	-0.0741040815	 0.0791523717	-0.107003
C	-0.1236864573	-0.8727572286	 1.2478868953	 0.42483
C	 0.7958370236	-1.8914850431	 1.9087623269	-0.280524
C	-0.1182471876	-2.6517342214	 2.8982916706	-0.215645
C	-1.540808346	-2.5726665386	 2.2902508822	-0.239957
C	-1.5154466519	-1.2890073525	 1.4874169423	-0.004916
O	-0.9455417853	-0.1781548826	 2.2060473995	-0.304689
H	-1.2010871328	 1.4949880913	 0.2846392882	 0.127854
H	-0.4531127841	 1.4066144176	-1.3837832036	 0.106082
H	 1.8547723668	 1.5396191319	-0.3078971094	 0.108445
H	 1.0543549456	 1.6276350848	 1.3317830119	 0.123578
H	 0.7694127204	-0.6803723729	-0.7200239183	 0.082237
H	 1.1903862272	-2.5599136462	 1.1327031866	 0.097896
H	 1.6537251046	-1.422446641	 2.4004768553	 0.106467
H	 0.2084059546	-3.6807738867	 3.0659986069	 0.095873
H	-0.1094387608	-2.1420595114	 3.8638477707	 0.118979
H	-1.7363015652	-3.4096920611	 1.6079251081	 0.100674
H	-2.3250800049	-2.5833073322	 3.0537228183	 0.10709
H	-2.3233317269	-1.0305599828	 0.8072352256	 0.087766
79.9255	145.7736	185.8116	227.3545	287.8751	365.5754	448.0759	465.4944	613.5516	658.9693	682.6794	792.5949	812.0309	826.2663	863.3644	888.1358	893.5857	904.6615	924.7927	948.389	973.0576	1032.2432	1040.7212	1064.1396	1086.9967	1092.1395	1131.4067	1142.621	1148.4993	1183.4792	1204.1752	1212.1612	1226.126	1258.1197	1289.0749	1324.248	1328.2058	1349.4059	1403.6651	1458.6097	1462.0448	1479.5328	1487.9223	1498.8921	1503.7911	3029.9449	3032.4927	3070.5154	3080.6153	3082.8725	3119.3633	3135.8855	3138.2759	3143.9477	3146.5185	3219.9101	3235.8495
C1CC1C12CCCC1O2	C1CC1[C@]12CCC[C@H]1O2	
InChI=1S/C8H12O/c1-2-7-8(5-1,9-7)6-3-4-6/h6-7H,1-5H2	InChI=1S/C8H12O/c1-2-7-8(5-1,9-7)6-3-4-6/h6-7H,1-5H2/t7-,8-/m1/s1
