19
gdb 40718	5.65986	0.80474	0.76868	1.9726	76.68	-0.2622	0.0703	0.3325	1485.4209	0.158374	-422.966926	-422.958616	-422.957672	-423.000634	31.303	
C	 0.1191474474	 1.4848770454	-0.0438707198	-0.185558
O	 1.1577433341	 0.5138834195	-0.1804394858	-0.239018
C	-0.1788103974	 0.0484409218	 0.0285548503	 0.084065
C	-0.4581397834	-0.6522339576	 1.3253807204	 0.009559
C	-1.9528358097	-0.9439079873	 1.6777748737	-0.345416
C	-1.5055808751	-2.3357786637	 2.1281899667	 0.468414
C	-1.7968075302	-3.0269595227	 3.3845332131	-0.267304
O	-2.3138698842	-3.4931714371	 2.127391273	-0.270834
C	-0.1672056351	-2.1860791309	 1.4038566441	-0.33571
H	 0.1472637156	 2.0731043737	 0.8729042152	 0.11144
H	-0.1218414162	 2.0452911873	-0.9461984683	 0.115698
H	-0.624570191	-0.4190008929	-0.8531176719	 0.089492
H	 0.0439351145	-0.1198044515	 2.1375570202	 0.080724
H	-2.4411331994	-0.294960509	 2.4080321607	 0.108952
H	-2.5782436024	-1.0031087826	 0.7804061729	 0.11464
H	-1.0408431909	-3.6644582948	 3.8418511878	 0.116613
H	-2.539011969	-2.6195340091	 4.0703571025	 0.115021
H	-0.1984176147	-2.6553512734	 0.4148075527	 0.115947
H	 0.739851577	-2.5061154453	 1.9202881525	 0.113276
58.6785	67.7373	164.3076	275.4252	310.6214	314.2252	351.1216	402.5545	494.4455	570.7407	717.482	819.5638	839.9865	860.1859	878.0638	886.4819	908.1229	951.1753	975.7085	1000.5256	1045.7533	1063.8705	1101.9637	1126.1321	1150.2669	1156.3344	1169.4235	1188.0993	1194.9504	1219.7	1224.2346	1251.6317	1266.1329	1294.0149	1323.7185	1432.5347	1457.619	1466.803	1493.1404	1529.1838	1539.3643	3049.5977	3055.5237	3069.1267	3077.4798	3079.7678	3083.6839	3112.1513	3118.3403	3164.4137	3166.2171
C1OC1C1CC2(CO2)C1	C1O[C@H]1[C@H]1C[C@]2(CO2)C1	
InChI=1S/C7H10O2/c1-5(6-3-8-6)2-7(1)4-9-7/h5-6H,1-4H2	InChI=1S/C7H10O2/c1-5(6-3-8-6)2-7(1)4-9-7/h5-6H,1-4H2/t5-,6-,7+/m1/s1
