18
gdb 98863	3.86898	1.01708	0.8838	1.5256	72.89	-0.2422	-0.0207	0.2215	1335.9144	0.147262	-439.121145	-439.112153	-439.111208	-439.156824	31.393	
C	 0.5811224294	 1.5415700764	 0.0440140954	-0.381391
C	 0.7463394596	 0.0316758905	-0.1048471537	-0.273785
C	 0.0784798473	-0.5352367538	-1.3410130075	 0.374755
O	-0.5549093082	 0.1407112034	-2.1181764243	-0.29953
C	 0.2415716543	-2.0555746516	-1.557930378	-0.099568
C	-0.3057450648	-2.5467692281	-2.9158449579	-0.125087
O	 0.8640514536	-3.0884743194	-3.5852102635	-0.214815
C	 1.8789479453	-2.9411543438	-2.7132088905	 0.131983
N	 1.6770113286	-2.4171908212	-1.5741419677	-0.282179
H	 1.0151006462	 2.0678546672	-0.8102083882	 0.131196
H	-0.474681014	 1.8202470852	 0.0941987118	 0.128858
H	 1.0759668387	 1.8941636807	 0.9530840765	 0.112078
H	 1.8003413634	-0.2685289031	-0.1429104739	 0.153293
H	 0.3372909896	-0.5038583921	 0.7640873621	 0.120534
H	-0.239294162	-2.5542846311	-0.7065089409	 0.105868
H	-1.0451607369	-3.3455053716	-2.8305436773	 0.120402
H	-0.7070165127	-1.7244336297	-3.5110600821	 0.14965
H	 2.8369759325	-3.303058908	-3.0700757205	 0.147738
25.9361	53.5931	88.5541	170.0419	193.7442	265.0763	320.3348	375.1168	502.5859	529.3084	656.3104	726.8907	773.289	817.0633	892.2955	944.0271	961.1894	965.7399	985.3772	1009.9649	1027.2233	1090.5222	1105.4811	1134.9262	1159.4802	1216.0631	1254.7776	1275.7009	1312.9597	1345.2944	1373.4458	1376.948	1414.1866	1450.0595	1493.6275	1498.3986	1517.6292	1694.6401	1809.6284	3016.6283	3025.2671	3050.7398	3067.1508	3076.2262	3122.1464	3124.8779	3133.4939	3216.7577
CCC(=O)C1COC=N1	CCC(=O)[C@H]1COC=N1	
InChI=1S/C6H9NO2/c1-2-6(8)5-3-9-4-7-5/h4-5H,2-3H2,1H3	InChI=1S/C6H9NO2/c1-2-6(8)5-3-9-4-7-5/h4-5H,2-3H2,1H3/t5-/m1/s1
