13
gdb 49224	4.30627	0.98586	0.88227	2.9812	65.54	-0.289	-0.0951	0.1938	1241.4551	0.088861	-452.762532	-452.754605	-452.753661	-452.796217	27.145	
O	-0.0729360226	 0.1331385134	 0.4989552522	-0.20741
C	 0.06298381	 1.2930021789	 0.2251620583	 0.110089
C	 1.4036717386	 1.93437817	 0.0050353268	 0.317909
N	 2.5371958047	 1.3781588674	 0.0986573841	-0.259717
C	 3.5360878425	 2.4029557522	-0.2028780641	-0.206601
C	 2.6995275025	 3.7018517895	-0.4763069381	-0.057973
O	 1.3320437783	 3.2589459534	-0.3346029587	-0.248459
C	 2.9676778292	 4.7896741937	 0.4669313742	 0.279177
N	 3.2152404355	 5.6421455038	 1.2058895487	-0.300733
H	-0.7865322981	 1.9945182685	 0.1099725146	 0.116141
H	 4.2236489483	 2.5212605714	 0.6385691591	 0.158654
H	 4.1230844345	 2.1092816835	-1.0776384384	 0.147091
H	 2.8283336266	 4.0773314942	-1.4949573687	 0.151834
43.0659	111.0783	147.4641	215.501	235.3057	262.5492	431.8378	513.585	576.3054	603.2179	741.133	770.2669	832.0824	940.4444	985.061	1020.8606	1029.8428	1042.391	1062.4346	1199.1546	1204.6089	1295.0359	1329.2153	1369.6831	1426.5752	1490.6801	1719.5889	1839.0806	2365.0801	2949.1756	3064.7554	3079.3449	3109.2283
O=CC1=NCC(O1)C#N	O=CC1=NC[C@@H](O1)C#N	
InChI=1S/C5H4N2O2/c6-1-4-2-7-5(3-8)9-4/h3-4H,2H2	InChI=1S/C5H4N2O2/c6-1-4-2-7-5(3-8)9-4/h3-4H,2H2/t4-/m0/s1
