20
gdb 101399	2.43686	1.42176	1.02762	4.5775	77.	-0.2492	0.0231	0.2723	1212.0963	0.171257	-440.31343	-440.304307	-440.303363	-440.347608	33.805	
C	 0.117996726	 1.3511525514	-0.3632402203	-0.385374
C	 0.011519535	-0.109579162	 0.0919199573	 0.007414
C	 0.673972825	-0.3288237841	 1.467748084	-0.074852
O	 0.1990455216	 0.5298792062	 2.4715889248	-0.425198
N	-1.3774405323	-0.5642087929	 0.0997361703	-0.080843
C	-2.2667415729	-0.9050592806	-1.0208656884	-0.169645
C	-3.3884201859	-1.1411906622	 0.0270016705	-0.36191
C	-2.3319082316	-0.729512615	 1.0663537775	 0.427717
O	-2.3152161701	-0.5924173797	 2.2724326224	-0.408336
H	 1.1681158094	 1.6260926671	-0.5032575969	 0.120157
H	-0.4028996176	 1.5146767587	-1.3113318147	 0.108343
H	-0.3079893829	 2.0068704066	 0.3991921979	 0.145933
H	 0.5403775992	-0.7539509684	-0.6252832191	 0.08262
H	 0.5695887818	-1.3890045055	 1.7459512223	 0.093138
H	 1.7443526375	-0.1246068705	 1.3483512078	 0.105201
H	-0.704341418	 0.2305689557	 2.682952278	 0.30527
H	-2.4463958711	-0.0779233843	-1.7151026699	 0.118853
H	-1.9443897318	-1.7886172063	-1.581731984	 0.115741
H	-4.2435644962	-0.4661651606	-0.0335385552	 0.138147
H	-3.7381320451	-2.1702333236	 0.1234951757	 0.137625
50.9196	120.3135	184.3665	196.7017	225.9866	231.5533	271.7058	330.8931	404.7376	494.6215	567.3566	604.0115	706.0425	715.5483	789.1673	824.0726	859.129	924.466	942.366	991.5618	1035.9562	1049.5451	1106.4225	1126.863	1136.3108	1154.8158	1158.2166	1185.7563	1223.5582	1257.2721	1277.6635	1330.3815	1363.5076	1391.8806	1415.8506	1437.9641	1462.8283	1483.8392	1488.671	1497.762	1499.873	1528.1238	1827.4215	2984.3448	3004.9508	3038.6898	3044.0216	3062.4707	3084.0707	3091.1571	3109.8616	3137.6813	3148.5806	3591.3029
CC(CO)N1CCC1=O	C[C@@H](CO)N1CCC1=O	
InChI=1S/C6H11NO2/c1-5(4-8)7-3-2-6(7)9/h5,8H,2-4H2,1H3	InChI=1S/C6H11NO2/c1-5(4-8)7-3-2-6(7)9/h5,8H,2-4H2,1H3/t5-/m0/s1
