20
gdb 55117	2.53375	1.41457	1.13252	2.8338	78.9	-0.2291	-0.0176	0.2114	1167.0076	0.169171	-403.129868	-403.120512	-403.119568	-403.16451	34.388	
C	-0.739248027	 1.1536562863	 0.1408490819	-0.481739
C	 0.2840638479	 0.0368078876	 0.0443821332	 0.374093
O	 1.0579549467	-0.2033948631	 0.9453564638	-0.3074
C	 0.2599773258	-0.7894817124	-1.2277120449	-0.162667
C	 1.3717892903	-1.8338423208	-1.4723040162	-0.186768
N	 0.3839986906	-2.9701038291	-1.5596427476	-0.163186
C	-0.2842000958	-3.0010505863	-0.2412380808	-0.289513
C	-0.7231844181	-1.9891789352	-1.2269161804	 0.32932
C	-2.0566093375	-1.9954541279	-1.9131160396	-0.494647
H	-0.5077022207	 1.9322628787	-0.5957115356	 0.142209
H	-1.7425181145	 0.7828934979	-0.097068951	 0.140012
H	-0.7290667019	 1.5866314721	 1.1417414648	 0.143523
H	 0.0805094024	-0.1471267171	-2.0947274109	 0.084559
H	 1.889155381	-1.7114908864	-2.4251527604	 0.110167
H	 2.0998806427	-1.9384599534	-0.6643169695	 0.127619
H	-0.9211410581	-3.8709587331	-0.1126581442	 0.117393
H	 0.2770636681	-2.7062107201	 0.6418153506	 0.137043
H	-2.7984129854	-1.4214706193	-1.3447681964	 0.121881
H	-1.9891203545	-1.5615673778	-2.9168104951	 0.122741
H	-2.4287130821	-3.0192876906	-2.0113287117	 0.135359
43.2827	114.8923	128.031	145.4821	183.0141	276.971	306.4719	360.2629	401.7944	479.4093	554.7452	598.9335	640.668	723.1422	757.6452	801.9285	880.755	933.5709	948.7585	974.3394	996.4338	1032.1222	1044.7022	1079.3767	1104.6429	1128.6804	1130.8554	1187.4203	1194.0122	1205.6723	1255.2915	1309.3232	1350.4301	1378.0211	1388.9463	1420.725	1460.5297	1473.862	1481.4149	1489.9749	1490.9454	1512.7272	1799.4591	3025.5565	3033.7257	3066.1532	3071.3586	3086.1464	3094.0858	3111.5845	3113.8504	3129.4696	3151.7982	3203.9609
CC(=O)C1CN2CC12C	CC(=O)[C@H]1CN2C[C@@]12C	
InChI=1S/C7H11NO/c1-5(9)6-3-8-4-7(6,8)2/h6H,3-4H2,1-2H3	InChI=1S/C7H11NO/c1-5(9)6-3-8-4-7(6,8)2/h6H,3-4H2,1-2H3/t6-,7+,8?/m1/s1
