13
gdb 129328	3.12599	1.27651	1.028	1.8401	66.65	-0.2518	-0.0468	0.205	1114.0921	0.087767	-448.835989	-448.827975	-448.82703	-448.869911	28.498	
N	-0.0406061317	 1.3273281836	 0.2756244348	-0.593867
C	 0.0463516779	 0.0773984301	 0.1220812404	 0.525258
O	 1.1396317638	-0.7380272398	 0.0663253167	-0.242018
N	 0.6720627693	-2.0831933353	-0.1191112533	 0.005674
N	-0.5719504813	-2.0576226053	-0.1666801274	-0.028144
N	-1.0203192693	-0.7998181096	-0.0191931978	-0.060301
C	-2.4292382133	-0.4438218883	-0.0867143277	-0.308806
C	-2.9744773669	-0.4843313297	-1.439588743	 0.315919
C	-3.4352989459	-0.5233956818	-2.546890232	-0.433494
H	 0.8727725737	 1.7618996797	 0.3693547158	 0.244458
H	-2.9864932279	-1.1135067658	 0.5758371319	 0.16707
H	-2.4847592947	 0.5690038309	 0.3251221038	 0.193299
H	-3.8397421838	-0.5550049687	-3.5287771923	 0.214954
30.4487	74.0255	208.6547	239.6957	258.3756	315.497	428.3349	514.5243	632.7165	650.1474	684.9916	708.757	726.0587	739.2845	753.9181	803.7987	952.1383	958.1454	1010.2208	1044.1297	1182.3706	1221.1035	1342.7926	1394.3381	1403.4336	1457.9797	1534.1999	1789.1346	2250.7216	3056.2614	3102.8119	3503.3255	3552.7967
N=C1ON=NN1CC#C	[NH][C@H]1ON=NN1CC#C	
InChI=1S/C4H4N4O/c1-2-3-8-4(5)9-7-6-8/h1,5H,3H2	InChI=1S/C4H5N4O/c1-2-3-8-4(5)9-7-6-8/h1,4-5H,3H2/t4-/m1/s1
