20
gdb 47908	2.18297	1.69024	1.17323	3.6884	77.04	-0.2423	0.0322	0.2745	1114.0209	0.173226	-440.288874	-440.280712	-440.279768	-440.321633	31.741	
N	-0.0796521739	 1.328705428	-0.424298383	-0.504511
C	-0.0135680995	 0.1139442563	-0.0698624529	 0.400689
C	-1.2870902653	-0.7024311299	 0.0370362147	-0.290761
C	-1.9383996831	-0.7011014819	 1.4349017518	-0.185764
C	-1.160889742	-1.4257944998	 2.5317962779	-0.083647
O	 0.085310447	-0.788827064	 2.783817527	-0.235591
C	 1.2380336262	-1.4834762502	 2.3697636012	-0.074509
C	 1.3202014414	-1.6979803665	 0.8582382125	-0.102982
O	 1.2046295634	-0.4747090284	 0.1454039372	-0.246307
H	 0.856155939	 1.7399736368	-0.432273669	 0.214759
H	-1.9820522819	-0.2293001364	-0.6588833674	 0.137829
H	-1.1332239006	-1.729550492	-0.3116638942	 0.106336
H	-2.0850659849	 0.3389982764	 1.7452839555	 0.132041
H	-2.9327111801	-1.158384878	 1.3588153526	 0.097356
H	-1.736380234	-1.3942594401	 3.4654594759	 0.108804
H	-1.0160207848	-2.4865799526	 2.279073982	 0.088539
H	 2.0812199351	-0.8659338898	 2.6941524926	 0.121879
H	 1.3214927878	-2.4656418752	 2.8662919262	 0.09033
H	 2.3062143518	-2.1011738914	 0.606264866	 0.118567
H	 0.5748380883	-2.4256238113	 0.5203424135	 0.106942
76.1201	151.8204	223.6172	230.208	267.0712	373.5537	408.9034	465.7686	479.7547	511.9045	570.011	656.1801	752.4924	828.3075	864.5853	883.2708	912.8742	920.0261	929.0832	1000.9621	1030.6165	1063.4308	1092.4196	1142.2112	1161.7321	1169.0773	1225.7236	1247.7959	1291.1143	1294.4856	1316.8655	1328.8193	1371.7131	1387.4986	1402.6183	1412.2261	1419.0845	1473.015	1480.7763	1483.7527	1500.8528	1517.58	1737.068	2962.9639	2995.7344	3031.663	3041.6928	3048.7744	3054.0376	3079.8926	3087.107	3098.8206	3118.1067	3461.6026
N=C1CCCOCCO1	[NH][C]1CCCOCCO1	
InChI=1S/C6H11NO2/c7-6-2-1-3-8-4-5-9-6/h7H,1-5H2	InChI=1S/C6H11NO2/c7-6-2-1-3-8-4-5-9-6/h7H,1-5H2
