20
gdb 22889	2.2138	1.55198	0.98429	0.8185	86.9	-0.2138	-0.0192	0.1947	1240.9047	0.170239	-403.138844	-403.129457	-403.128513	-403.17352	35.223	
C	-0.0214612676	 1.5523739937	 0.0589543023	-0.388574
C	 0.0321538065	 0.0197330692	 0.0343127231	-0.051186
C	 0.7787894449	-0.551093658	-1.2020721497	-0.290286
C	 1.9285567016	-1.3185253352	-0.6154203148	-0.140727
C	 1.955847927	-1.32701196	 0.7285098615	 0.242104
C	 2.9880943187	-2.0116366396	 1.5752063303	-0.488368
C	 0.8040367637	-0.5509295858	 1.2249689047	 0.311809
N	 0.3759245075	-0.2979224809	 2.4035182936	-0.250047
O	 1.1677320594	-0.8669698446	 3.4193956018	-0.399028
H	 0.9875358434	 1.9767142524	 0.0097400761	 0.114793
H	-0.5926560945	 1.9363854435	-0.7927769182	 0.108245
H	-0.4900897002	 1.9024543287	 0.9820419403	 0.132609
H	-0.9933857471	-0.3621273329	 0.0659044461	 0.094589
H	 0.135498123	-1.1965138725	-1.81391946	 0.110839
H	 1.1259303285	 0.2476366368	-1.8711337945	 0.10808
H	 2.6668404371	-1.8186340264	-1.2347897513	 0.094422
H	 3.7357169752	-2.4998262956	 0.9431819818	 0.10828
H	 3.4945231943	-1.3015589757	 2.234862667	 0.138761
H	 2.5325367732	-2.7625424874	 2.2265203909	 0.13988
H	 0.7030734956	-0.5822961397	 4.2127464892	 0.303805
22.3517	170.6913	193.052	217.7342	236.8011	262.4358	300.4289	317.3809	357.8012	418.6342	444.2421	486.4645	620.4342	689.856	726.3775	756.3423	827.8145	884.8313	939.6253	955.0753	978.4477	1017.3727	1043.4309	1071.0333	1091.83	1111.4369	1132.8103	1208.5752	1246.8891	1291.9929	1321.143	1341.0993	1350.3082	1391.5114	1406.6143	1418.5194	1475.2083	1483.7024	1486.2766	1493.6691	1501.3761	1682.3662	1717.9707	3015.4796	3031.7693	3035.6521	3043.3278	3054.0801	3098.9523	3110.4044	3116.8887	3122.8923	3180.7594	3824.3223
CC1CC=C(C)C1=NO	C[C@H]1CC=C(C)C1=NO	
InChI=1S/C7H11NO/c1-5-3-4-6(2)7(5)8-9/h3,6,9H,4H2,1-2H3	InChI=1S/C7H11NO/c1-5-3-4-6(2)7(5)8-9/h3,6,9H,4H2,1-2H3/t6-/m0/s1
