15
gdb 127308	3.12146	1.45082	0.99668	6.3686	74.75	-0.2148	-0.0308	0.184	1123.0034	0.113751	-453.976673	-453.96875	-453.967806	-454.009543	29.277	
C	 0.0717309466	 1.4467245686	 0.0165282953	-0.31591
N	-0.0013392114	-0.004642819	-0.0062654154	 0.000188
C	-1.1578537182	-0.6917575473	-0.1263506012	 0.04748
C	-1.1899477588	-2.0543334354	-0.1446154511	-0.275901
C	 0.026567479	-2.8211822346	-0.0349270932	 0.298986
O	 0.1280624454	-4.039576095	-0.0386102478	-0.377865
C	 1.2126183509	-1.9255019452	 0.0903027549	 0.328267
O	 2.3964794489	-2.5411238207	 0.1985177358	-0.376037
N	 1.198119584	-0.6269240991	 0.1033411665	-0.33197
H	 0.6873587869	 1.8057617844	-0.8129965356	 0.15224
H	-0.9344151792	 1.8567353988	-0.0762782803	 0.142371
H	 0.5163146091	 1.7864627295	 0.9561571397	 0.152256
H	-2.0513962872	-0.0834602369	-0.2064358501	 0.134743
H	-2.1314382006	-2.5789875901	-0.241911222	 0.119364
H	 3.0726095445	-1.8524412281	 0.2718918848	 0.301788
64.8816	112.4784	187.9407	309.3813	325.5872	340.6546	436.7744	468.4603	525.876	550.8618	580.1412	604.6229	704.9656	770.3499	807.0959	848.9245	949.2984	981.0936	1067.1896	1147.2177	1153.5004	1195.677	1246.8099	1304.8426	1372.2928	1432.7421	1463.9404	1471.0481	1490.3812	1528.198	1616.3865	1635.0189	1745.6859	3047.053	3111.3571	3151.8104	3196.2166	3223.6558	3760.4134
CN1C=CC(=O)C(O)=N1	Cn1ccc(=O)c(O)n1	
InChI=1S/C5H6N2O2/c1-7-3-2-4(8)5(9)6-7/h2-3H,1H3,(H,6,9)	InChI=1S/C5H6N2O2/c1-7-3-2-4(8)5(9)6-7/h2-3H,1H3,(H,6,9)
