16
gdb 42954	2.66061	1.97394	1.40538	2.7282	67.72	-0.243	-0.0458	0.1972	915.3549	0.126066	-437.845577	-437.838887	-437.837943	-437.876673	26.469	
O	-0.0253346224	 0.0557781489	 0.1563046015	-0.309932
C	-0.0561753945	 1.2532906949	 0.0447675075	 0.414744
C	-1.2755632914	 2.1146633677	-0.1168984452	-0.146666
C	-1.3837742686	 3.2359822032	 0.8656457931	-0.254086
N	-0.869801882	 3.4946644106	-0.4759418222	-0.113407
C	 0.6155365766	 3.5269946962	-0.6023385791	-0.034906
C	 1.3958922334	 4.1279639204	 0.5749059171	-0.096246
O	 1.6187912707	 2.8067857365	 1.136566375	-0.291
C	 1.1669307618	 2.1852820925	-0.0977444957	-0.01001
H	-2.1543672482	 1.6868666642	-0.5869305624	 0.11864
H	-2.3656243003	 3.6570153234	 1.0611188673	 0.132902
H	-0.707297981	 3.2216254094	 1.7146281844	 0.151015
H	 0.8672612448	 3.8664681802	-1.6069665397	 0.100029
H	 2.3430729921	 4.5966095465	 0.2828685553	 0.115863
H	 0.8523795544	 4.7904194113	 1.255587966	 0.119475
H	 1.9823565045	 1.692459494	-0.6360548231	 0.103585
117.2404	221.1276	249.0165	314.3999	433.3186	472.4494	562.3536	624.3352	706.1635	738.1819	805.1882	864.5321	871.0354	891.7751	908.124	964.012	999.5835	1004.6434	1053.3416	1074.5033	1089.7603	1125.942	1162.1541	1168.8405	1194.1998	1238.6194	1253.6042	1258.2324	1292.9495	1322.3277	1341.4853	1349.1577	1499.8367	1515.967	1844.7928	3031.4727	3067.7559	3087.5854	3111.5673	3118.278	3177.2562	3209.4739
O=C1C2CN2C2COC12	O=C1[C@H]2CN2[C@H]2CO[C@@H]12	
InChI=1S/C6H7NO2/c8-5-3-1-7(3)4-2-9-6(4)5/h3-4,6H,1-2H2	InChI=1S/C6H7NO2/c8-5-3-1-7(3)4-2-9-6(4)5/h3-4,6H,1-2H2/t3-,4+,6-,7?/m1/s1
