14
gdb 46810	2.71488	1.67847	1.1954	5.1023	68.55	-0.273	-0.0193	0.2538	993.2083	0.102814	-432.861421	-432.854161	-432.853217	-432.893295	27.191	
N	-0.0598909637	 1.2453708687	 0.3122463139	-0.530539
C	-0.0070975058	 0.0252770244	 0.0131451461	 0.409013
O	 1.1177182266	-0.6882334349	-0.2866727912	-0.249242
C	 0.8083728459	-1.9756328049	-0.8501947854	-0.086246
C	-0.67238306	-2.1901566895	-0.6124699733	-0.121867
N	-1.0143949149	-2.0865663699	 0.8039470805	-0.348049
C	-1.1891671905	-0.8925086248	-0.081798977	 0.131312
C	-2.5022021932	-0.390929406	-0.358878926	 0.223554
N	-3.5775902707	-0.0254052365	-0.5729617333	-0.332292
H	 0.8663914229	 1.6734291211	 0.2797776937	 0.236583
H	 1.0416883755	-1.9637472701	-1.9204622861	 0.12991
H	 1.4269629165	-2.7228469644	-0.3463945479	 0.141418
H	-1.2573590119	-2.8067484036	-1.2846570056	 0.13518
H	-1.9322547567	-2.4964469395	 0.9706801216	 0.261267
119.8514	146.3692	183.0901	256.8337	382.5793	406.049	505.5072	561.7702	575.7573	650.9938	706.2189	760.0985	844.2863	871.2113	907.0225	931.7282	977.805	1012.2433	1062.4231	1082.218	1090.4258	1170.2085	1225.9974	1232.4291	1283.4261	1357.8743	1401.1183	1431.2413	1504.7109	1791.9293	2365.2311	3048.3628	3106.6406	3193.9037	3487.3656	3495.1451
N=C1OCC2NC12C#N	[NH][C]1OC[C@H]2N[C@@]12C#N	
InChI=1S/C5H5N3O/c6-2-5-3(8-5)1-9-4(5)7/h3,7-8H,1H2	InChI=1S/C5H5N3O/c6-2-5-3(8-5)1-9-4(5)7/h3,7-8H,1H2/t3-,5-/m1/s1
