19
gdb 92035	2.74672	1.62295	1.2109	2.2099	73.65	-0.2507	0.0686	0.3193	1046.036	0.161108	-422.999841	-422.992304	-422.99136	-423.031553	30.58	
O	-0.13262112	 1.4451147973	 0.1777524475	-0.433432
C	-0.010877522	 0.0335234421	 0.0300875619	 0.108719
C	 0.8836819501	-0.5580069586	 1.1382679253	-0.287454
C	 0.8403704947	-2.0774866302	 1.2106443646	 0.028456
O	-0.0008869145	-2.6448459392	 2.2236664234	-0.252769
C	-0.4089585423	-2.774906959	 0.8569659906	 0.046941
C	-1.6059997599	-1.9948148213	 0.3868949511	-0.062734
C	-2.1660383991	-0.8883930638	 1.2497353238	-0.294928
C	-1.4084715996	-0.5405848132	-0.0006228743	-0.016795
H	 0.750539005	 1.8255673969	 0.1244469447	 0.278808
H	 0.4539719979	-0.1977971694	-0.9441412189	 0.062403
H	 1.9139987495	-0.2237615018	 0.9701120407	 0.092037
H	 0.5686439038	-0.1425020666	 2.1006649569	 0.13047
H	 1.7875560865	-2.6016284732	 1.0872067884	 0.090679
H	-0.3439337092	-3.7936953021	 0.4763035983	 0.088301
H	-2.3109008928	-2.5710637261	-0.2023604175	 0.082804
H	-3.2398673019	-0.7410425035	 1.2480937364	 0.112408
H	-1.6929865951	-0.7399144608	 2.2124028274	 0.134951
H	-1.9964944313	-0.1782410974	-0.8380172203	 0.091135
118.9802	196.6029	265.7255	275.0661	352.8908	400.622	407.128	500.5343	545.238	579.1525	699.1546	743.8899	800.808	816.3875	850.9443	887.4935	936.6682	968.3606	977.0448	1019.1259	1057.6234	1066.2102	1077.9881	1092.3179	1100.2822	1126.3342	1136.6593	1158.9698	1214.7071	1224.2772	1263.1384	1296.2084	1315.0686	1361.8797	1374.8603	1392.3208	1420.2078	1446.7852	1458.7568	1485.5832	1502.3735	2942.2694	3038.0764	3087.6468	3105.177	3116.6674	3147.9066	3154.8359	3167.7986	3237.7562	3805.8354
OC1CC2OC2C2CC12	O[C@H]1C[C@H]2O[C@H]2[C@H]2C[C@@H]12	
InChI=1S/C7H10O2/c8-5-2-6-7(9-6)4-1-3(4)5/h3-8H,1-2H2	InChI=1S/C7H10O2/c8-5-2-6-7(9-6)4-1-3(4)5/h3-8H,1-2H2/t3-,4+,5+,6-,7+/m1/s1
