18
gdb 15070	3.04264	1.51606	1.13713	2.6258	67.95	-0.2523	-0.0273	0.225	1083.7481	0.151402	-384.926168	-384.917284	-384.916339	-384.960347	31.087	
C	-0.0283742875	 1.5100366879	 0.1568521805	-0.395564
C	 0.0378502008	-0.0127041105	 0.0060965639	-0.199224
C	 0.6955583345	-0.4650028974	-1.309174437	-0.089737
C	 2.1686871783	-0.0661293361	-1.3503273646	 0.165283
O	 2.7649925436	 0.2238929668	-2.3550771866	-0.260233
C	 0.5881806423	-1.9738762089	-1.4939844869	 0.070224
C	 1.4324602157	-2.7319682516	-2.4226079954	-0.190296
O	 1.6822581633	-2.7634258743	-1.0109320035	-0.237309
H	 0.9690499129	 1.9628921362	 0.1381374749	 0.125386
H	-0.6082082867	 1.9611301413	-0.655657617	 0.122816
H	-0.5004077487	 1.7916004362	 1.1025255025	 0.121414
H	 0.5904125679	-0.4516286021	 0.847121603	 0.11607
H	-0.9738657146	-0.4318407088	 0.0560329997	 0.103554
H	 0.2029349981	 0.0177043056	-2.1629784194	 0.10255
H	 2.6774143966	-0.0759720016	-0.3612517536	 0.090204
H	-0.3937437838	-2.385169748	-1.2517102472	 0.095365
H	 1.0565331103	-3.6620747509	-2.8453010006	 0.118827
H	 2.1794673473	-2.2091508337	-3.0157606428	 0.14067
65.2785	74.3538	107.5996	182.2657	209.6399	250.4437	293.3815	365.9365	406.4534	533.6992	560.6702	768.0234	795.1802	858.5288	900.0467	945.5484	963.2041	1020.0536	1052.5732	1065.2285	1102.7164	1145.3125	1152.2043	1162.4122	1175.1696	1264.6177	1274.4261	1304.0022	1342.5257	1375.7601	1406.8975	1417.4344	1436.2868	1489.3984	1501.4842	1503.922	1526.3257	1828.7074	2889.4827	3024.6955	3033.1521	3036.7139	3061.4212	3089.0249	3096.7592	3099.9835	3110.2807	3188.5418
CCC(C=O)C1CO1	CC[C@@H](C=O)[C@H]1CO1	
InChI=1S/C6H10O2/c1-2-5(3-7)6-4-8-6/h3,5-6H,2,4H2,1H3	InChI=1S/C6H10O2/c1-2-5(3-7)6-4-8-6/h3,5-6H,2,4H2,1H3/t5-,6+/m0/s1
