21
gdb 103292	2.48724	1.3135	1.29471	1.5619	78.48	-0.2335	0.0678	0.3013	1147.8587	0.180363	-424.159149	-424.149672	-424.148728	-424.192879	36.384	
C	-0.1404602653	 1.6445560284	-0.0174642368	-0.493993
C	-0.0497412079	 0.1211052781	 0.0281091797	 0.28877
C	-1.4420860462	-0.4901410187	-0.1596080523	-0.139945
O	-2.0053492697	-0.1630843878	-1.4287548096	-0.423089
C	 1.1201452034	-0.6321461142	-0.6914085043	-0.001458
C	 2.1337670815	-0.107628101	 0.3480232223	-0.277755
C	 0.8634170896	-0.6062661003	 1.0883749551	 0.361082
C	 0.6386014494	-0.8315337004	 2.551998601	-0.518673
O	 0.8906650058	-1.7987562027	 0.1880169225	-0.347594
H	 0.8243896414	 2.1494615115	-0.0826647277	 0.112908
H	-0.7388954399	 1.9372189337	-0.8846411628	 0.140537
H	-0.6549524034	 2.0201097094	 0.8751044055	 0.116549
H	-1.401295743	-1.5721417334	-0.0091910458	 0.112659
H	-2.1290667756	-0.0637352313	 0.5806716165	 0.100702
H	-1.5401138114	-0.6823245163	-2.0918790124	 0.283631
H	 1.2703891335	-0.8340562085	-1.7537270539	 0.083275
H	 3.00377358	-0.7518835541	 0.4811958201	 0.104787
H	 2.3895380922	 0.9513619643	 0.3736373197	 0.098093
H	 0.6464344601	 0.1239926099	 3.08617228	 0.12926
H	-0.3258831313	-1.3173953972	 2.7285066783	 0.13494
H	 1.4272025067	-1.4659895195	 2.9677456351	 0.135315
90.5577	141.0118	169.6566	192.7573	203.7397	286.3635	308.8162	338.8441	352.5388	389.3025	469.7229	546.2766	615.384	646.991	694.1332	746.3112	782.874	871.3007	900.3345	936.4195	939.2309	976.4696	1018.5887	1032.3139	1052.5321	1105.0754	1115.6166	1141.4932	1148.812	1196.1675	1216.1372	1226.3909	1258.6788	1300.3727	1340.1735	1386.8388	1406.0004	1409.2984	1417.6929	1477.796	1487.3307	1490.0845	1491.2145	1506.4502	1515.327	3035.2223	3038.2468	3040.9822	3081.1819	3094.6705	3099.2937	3103.7965	3112.3695	3114.3529	3131.8741	3157.0648	3821.7869
CC1(CO)C2CC1(C)O2	C[C@@]1(CO)[C@H]2C[C@]1(C)O2	
InChI=1S/C7H12O2/c1-6(4-8)5-3-7(6,2)9-5/h5,8H,3-4H2,1-2H3	InChI=1S/C7H12O2/c1-6(4-8)5-3-7(6,2)9-5/h5,8H,3-4H2,1-2H3/t5-,6-,7+/m1/s1
