16
gdb 39742	3.91975	1.58862	1.3924	2.0947	75.35	-0.2256	-0.0572	0.1685	929.5376	0.124201	-400.59176	-400.58521	-400.584266	-400.622394	26.943	
C	-0.2816011062	 1.3767828211	-0.2928131116	-0.288146
O	 1.0253184985	 0.8910769775	 0.1062248231	-0.273511
C	 0.0007656827	-0.039328566	-0.1085320717	 0.432217
C	-0.3111269592	-1.0523149026	 1.0468702412	-0.119403
C	 0.2307397294	-2.1725330808	 0.2442749573	-0.084034
N	-1.1101329546	-2.318276854	 0.7724045521	-0.124491
C	-1.987016379	-2.3961192578	-0.4271892735	-0.179943
C	-1.2682246455	-1.5198352783	-1.4444752132	-0.079906
C	-0.0138241443	-1.2809675085	-1.0012490154	-0.113536
H	-0.821868261	 1.9321419671	 0.4722816444	 0.121343
H	-0.3257690472	 1.7965862795	-1.2964452559	 0.124698
H	-0.1498460063	-0.8287008797	 2.0957223512	 0.118044
H	 1.040259166	-2.8627563933	 0.4449292942	 0.103442
H	-2.1041836016	-3.459006418	-0.6709603781	 0.127071
H	-2.9841549277	-1.9839229374	-0.2342923002	 0.12337
H	-1.8250446839	-0.809520239	-2.0490858839	 0.112785
146.7595	259.8276	288.2931	374.2166	405.6604	486.7091	569.11	674.4316	739.5711	772.4257	784.6937	806.3817	826.336	869.6168	887.8294	893.1032	933.568	947.8628	999.9662	1011.3576	1053.2429	1055.0777	1110.6746	1113.1666	1156.1802	1189.8938	1195.218	1207.9064	1269.8494	1279.0069	1314.6416	1421.1481	1471.1023	1532.5276	1555.381	3030.26	3073.7794	3086.3451	3170.8003	3174.759	3180.4113	3199.0334
C1OC11C2C3N2CC=C13	C1O[C@]21[C@@H]1[C@H]3N1C[CH][C]23	
InChI=1S/C7H7NO/c1-2-8-5-4(1)7(3-9-7)6(5)8/h1,5-6H,2-3H2	InChI=1S/C7H7NO/c1-2-8-5-4(1)7(3-9-7)6(5)8/h1,5-6H,2-3H2/t5-,6-,7-,8?/m0/s1
