21
gdb 92548	3.24398	1.29447	1.02779	1.6987	83.76	-0.2387	0.0165	0.2552	1216.9411	0.184572	-387.089911	-387.081845	-387.080901	-387.122524	31.799	
C	-0.3471078845	 1.5167018602	 0.0151966558	-0.399346
C	-0.0159715662	 0.0181254257	 0.0099830352	-0.0331
C	 0.7423751207	-0.3834366884	-1.2703397954	-0.217312
C	 1.1589007012	-1.8538529647	-1.2506168684	 0.103395
O	 2.3896354749	-2.0990424288	-1.9780254806	-0.293758
C	 3.1210338804	-2.3321164844	-0.7563145958	-0.089651
C	 1.8113798357	-2.3116874288	 0.0747206382	-0.089588
C	 1.6486729093	-1.3964065984	 1.2442230285	-0.102756
C	 0.7958385266	-0.3713429694	 1.2278682174	-0.040484
H	 0.5682387316	 2.1187781076	-0.0047222886	 0.118688
H	-0.9483830527	 1.7902962368	-0.8576342312	 0.113245
H	-0.9103925535	 1.7937542174	 0.9125967732	 0.111967
H	-0.9713965775	-0.5299184321	 0.0380914181	 0.084592
H	 0.142729191	-0.1663045448	-2.1612880412	 0.095377
H	 1.6517776714	 0.2248006021	-1.3383860884	 0.106232
H	 0.3522738861	-2.4975591855	-1.6214110575	 0.073697
H	 3.6726988904	-3.2785667804	-0.7825567277	 0.101188
H	 3.8188407811	-1.5146954841	-0.5304766811	 0.096715
H	 1.5125547423	-3.3294392455	 0.3475111903	 0.089303
H	 2.2208537136	-1.6201715297	 2.1422309545	 0.087214
H	 0.6696395083	 0.240162425	 2.1189913846	 0.084382
85.0255	129.3686	222.8712	255.1661	281.9837	367.632	405.3514	430.8979	508.9489	555.3206	707.3548	724.5695	760.2292	826.135	859.653	908.9801	944.1648	954.8584	987.6231	998.4424	1017.5965	1049.5296	1063.6894	1089.0675	1107.0707	1122.1077	1155.1585	1163.0209	1173.4641	1242.2398	1264.2621	1269.1214	1308.3516	1324.6316	1344.0035	1349.3846	1373.7103	1383.4023	1407.2194	1424.6711	1490.0367	1497.8333	1501.2923	1525.3074	1709.5326	2972.3692	3007.6217	3023.7917	3028.102	3034.607	3042.9378	3064.3316	3079.6679	3097.0385	3102.8634	3135.3746	3158.7772
CC1CC2OCC2C=C1	C[C@H]1C[C@H]2OC[C@H]2C=C1	
InChI=1S/C8H12O/c1-6-2-3-7-5-9-8(7)4-6/h2-3,6-8H,4-5H2,1H3	InChI=1S/C8H12O/c1-6-2-3-7-5-9-8(7)4-6/h2-3,6-8H,4-5H2,1H3/t6-,7-,8-/m1/s1
