21
gdb 107067	3.73102	1.04407	0.93038	1.3284	77.93	-0.2573	0.0716	0.3288	1305.1221	0.183313	-424.220557	-424.211611	-424.210667	-424.253998	34.733	
O	 0.1112857339	 1.3424466684	 0.2696292963	-0.417631
C	 0.0093717961	-0.0115514472	-0.1538151108	-0.154707
C	-1.4060054026	-0.526775761	-0.1117982111	 0.324229
C	-1.936167695	-1.1138516015	 1.1795652521	-0.33906
C	-1.7261677238	-2.003306118	-0.0215112397	-0.083912
C	-2.9330295319	-2.2864212256	-0.8949463841	 0.127584
O	-3.7854473797	-3.2367674964	-0.2698581048	-0.437458
C	-3.5934395113	-0.903261133	-1.1163630786	-0.279375
C	-2.4414125861	 0.1181540966	-1.0338879848	-0.264525
H	-0.2769330572	 1.3931535657	 1.1497931126	 0.28086
H	 0.3898505616	-0.0208849843	-1.1821585225	 0.105039
H	 0.6635172061	-0.667725948	 0.4434175124	 0.081093
H	-1.2282785504	-1.2340351286	 1.9939901621	 0.106035
H	-2.9463077534	-0.8919075921	 1.5053701305	 0.118377
H	-0.9411304045	-2.7503419414	 0.022174901	 0.08349
H	-2.5734173386	-2.6842511665	-1.8580184294	 0.063324
H	-4.5069335636	-3.4312893895	-0.8765003886	 0.280166
H	-4.1416768567	-0.8466218949	-2.061289702	 0.092149
H	-4.3205388036	-0.7451422473	-0.3133136292	 0.111292
H	-2.7705921625	 1.1025836351	-0.6872117393	 0.103539
H	-1.9858499869	 0.2674034295	-2.0207925321	 0.09949
84.9984	120.7529	173.1649	229.8849	275.5976	298.7084	338.2673	366.0728	398.3902	420.1406	546.4827	598.1857	633.2149	701.2405	817.6166	855.5552	902.4294	936.5131	946.3595	962.0728	981.9842	1008.9944	1027.9821	1052.1706	1059.4105	1073.7916	1101.9527	1127.2739	1177.1321	1201.9681	1217.961	1245.7582	1267.4716	1288.2276	1315.3707	1334.016	1360.2996	1379.2563	1410.7337	1426.7109	1432.8991	1485.5038	1494.1024	1501.9767	1516.6891	2961.9863	2969.0851	3030.4109	3052.2764	3054.4683	3076.921	3096.6929	3127.3666	3168.6915	3210.8929	3804.9272	3816.0523
OCC12CC1C(O)CC2	OC[C@]12C[C@H]1[C@@H](O)CC2	
InChI=1S/C7H12O2/c8-4-7-2-1-6(9)5(7)3-7/h5-6,8-9H,1-4H2	InChI=1S/C7H12O2/c8-4-7-2-1-6(9)5(7)3-7/h5-6,8-9H,1-4H2/t5-,6-,7-/m0/s1
