17
gdb 18799	3.20597	3.06362	2.37382	1.3574	71.28	-0.2138	0.0089	0.2227	681.09	0.145966	-326.672971	-326.667559	-326.666614	-326.70195	23.722	
C	-0.0475718774	 1.5416164755	 0.0887910287	-0.226724
C	 1.5096532424	 1.4694925599	 0.0066957904	-0.048421
C	 1.9969588553	 1.275571788	 1.4180883483	-0.069769
C	 1.5462878367	 0.1675651817	 2.0119735312	-0.077347
C	 0.8138827863	-0.7726536132	 1.0906442646	-0.100814
C	 1.8280149856	-1.0543415023	-0.0661955787	-0.15295
N	 1.3416695409	 0.1497669115	-0.7912606227	-0.144742
C	 0.0247867367	 0.023989464	-0.0274995987	 0.015696
H	-0.4835261788	 2.0067373185	 0.9738108079	 0.099573
H	-0.481439974	 1.9565348985	-0.8242264955	 0.111225
H	 2.0433258071	 2.2359473831	-0.5557622801	 0.07299
H	 2.6071055008	 2.0295306143	 1.9033562009	 0.090529
H	 1.7680649155	-0.1111416178	 3.0363209612	 0.09304
H	 0.3151408147	-1.6052587709	 1.589683763	 0.061688
H	 2.8905153762	-1.0883386637	 0.1889562789	 0.100907
H	 1.5563178468	-1.9281368053	-0.668054456	 0.104666
H	-0.7857290049	-0.5372407417	-0.5012567636	 0.070452
350.3595	353.7691	407.5269	504.3555	583.0233	673.0028	704.0342	740.3158	747.882	797.8095	832.3925	868.7656	921.0394	941.5349	954.6695	964.3579	990.7685	1009.6614	1036.142	1061.3599	1091.1141	1101.7214	1152.0458	1174.7387	1196.9156	1206.9792	1229.9274	1249.9797	1280.8738	1297.4687	1311.9706	1339.3728	1385.5676	1470.1703	1488.2324	1672.9184	3039.792	3059.6558	3072.4827	3091.8952	3103.5749	3104.5499	3134.1454	3174.5786	3198.4205
C1C2C=CC3CN2C13	C1[C@H]2C=C[C@@H]3CN2[C@H]13	
InChI=1S/C7H9N/c1-2-6-3-7-5(1)4-8(6)7/h1-2,5-7H,3-4H2	InChI=1S/C7H9N/c1-2-6-3-7-5(1)4-8(6)7/h1-2,5-7H,3-4H2/t5-,6-,7-/m1/s1
