17
gdb 81832	2.26087	1.67284	1.19508	3.9663	72.86	-0.228	0.0089	0.2369	1063.5398	0.134881	-417.961076	-417.952479	-417.951535	-417.994045	32.327	
C	-0.2464936656	 1.4949076332	-0.0559910081	-0.333591
N	 0.0638880629	 0.0726499009	-0.0773108157	-0.086107
C	 0.699762613	-0.4965938577	-1.2646028241	-0.09795
C	 2.1497243851	-0.0723347688	-1.4327979801	-0.335702
C	 1.8022473636	-1.1211285083	-0.4255910387	 0.383501
O	 2.4060318644	-2.3523851836	-0.4366820703	-0.450531
C	 1.142289918	-0.470903565	 0.8125214727	-0.200159
C	 1.9538758485	 0.4885976451	 1.5584509911	 0.28368
N	 2.5852242999	 1.2673879739	 2.1350445257	-0.33567
H	 0.609002377	 2.1524154685	-0.2745867741	 0.118859
H	-1.025380063	 1.6843079039	-0.8006955812	 0.128124
H	-0.6432780864	 1.7673570107	 0.9260618957	 0.135735
H	 0.1006349052	-0.8979738202	-2.0739526648	 0.108296
H	 2.6309204606	-0.4795327821	-2.3164046378	 0.132009
H	 2.5004305264	 0.9110452185	-1.1330994824	 0.133482
H	 1.7639135967	-3.0196365642	-0.16730923	 0.293226
H	 0.7283438338	-1.2036318248	 1.516111942	 0.122799
107.9458	133.4508	181.9088	201.039	243.7584	343.6949	366.9369	382.0436	401.1513	492.5334	544.5636	572.9205	628.3478	723.4228	830.9516	853.9006	919.993	969.2953	983.4408	1010.1713	1023.6268	1075.4418	1088.7465	1150.745	1173.6197	1189.4855	1197.4133	1248.6399	1290.9575	1317.7038	1326.6736	1429.9554	1452.2871	1488.6065	1499.5724	1502.4083	2345.7194	2986.2381	3030.0003	3076.734	3115.8266	3122.8715	3179.2303	3214.9644	3787.1501
CN1C2CC2(O)C1C#N	CN1[C@H]2C[C@@]2(O)[C@H]1C#N	
InChI=1S/C6H8N2O/c1-8-4-2-6(4,9)5(8)3-7/h4-5,9H,2H2,1H3	InChI=1S/C6H8N2O/c1-8-4-2-6(4,9)5(8)3-7/h4-5,9H,2H2,1H3/t4-,5+,6-/m0/s1
