13
gdb 8834	3.13445	1.47807	1.09056	2.6	55.09	-0.2972	-0.0703	0.2268	1019.7336	0.092652	-435.745727	-435.73712	-435.736176	-435.779897	29.096	
O	 0.1431020202	 1.3484312193	 0.1227040166	-0.41202
C	 0.028689783	-0.0398409506	 0.0426013463	-0.133759
C	-1.4126494008	-0.4914369987	 0.0446829929	 0.331572
O	-2.3250541009	 0.3020182923	 0.0867711824	-0.319111
C	-1.7572757369	-2.0014588341	 0.0125884676	-0.073887
O	-3.1326983683	-2.1932520881	 0.1137580743	-0.401554
C	-1.2003199983	-2.5987923839	-1.2201901051	 0.260444
N	-0.7482713584	-3.0539307853	-2.1810228939	-0.3075
H	-0.7574321894	 1.7024669496	 0.1313779689	 0.302797
H	 0.5066478316	-0.432404582	-0.8694932417	 0.158128
H	 0.5378922249	-0.5302089268	 0.8894651456	 0.132997
H	-1.2480062086	-2.4776066258	 0.8648379159	 0.15276
H	-3.530322138	-1.312421936	 0.0116540202	 0.309132
39.4624	77.3517	131.3374	217.8848	244.0822	292.7699	348.4986	392.6475	399.9799	436.7574	544.0511	602.0954	729.7846	835.2924	953.87	1012.4289	1045.0873	1141.6574	1155.9402	1232.5664	1267.4273	1315.1251	1340.2307	1427.59	1444.8885	1483.0071	1803.8248	2356.3739	2976.2112	2997.8137	3002.6622	3679.0554	3741.8399
OCC(=O)C(O)C#N	OCC(=O)[C@@H](O)C#N	
InChI=1S/C4H5NO3/c5-1-3(7)4(8)2-6/h3,6-7H,2H2	InChI=1S/C4H5NO3/c5-1-3(7)4(8)2-6/h3,6-7H,2H2/t3-/m0/s1
