21
gdb 61885	3.25636	0.86593	0.75767	4.35	81.58	-0.2414	0.0337	0.2752	1552.7374	0.182133	-420.404511	-420.394733	-420.393789	-420.439914	35.452	
C	-0.0838920612	 1.5076620107	 0.05316589	-0.396892
C	 0.0310409174	-0.0153529063	-0.0589103271	 0.059788
C	 0.9237888131	-0.4124509017	-1.240953624	-0.168565
N	 1.1715732631	-1.8498694818	-1.258319892	-0.078458
C	 0.2329024089	-2.6696290359	-2.0208348095	-0.220567
C	 1.6129949864	-2.4241378588	-2.5233096651	-0.22112
N	 0.5925978229	-0.6163279866	 1.1510072993	-0.275074
C	-0.0442920602	-0.6045381289	 2.3497171394	 0.153057
O	-1.0479421451	 0.027736226	 2.6130933406	-0.330766
H	 0.8998110282	 1.9566650367	 0.2260070749	 0.113036
H	-0.4979965093	 1.9241860204	-0.8711427894	 0.108003
H	-0.7393909857	 1.7704606646	 0.8833965465	 0.160265
H	-0.9755032009	-0.4283071267	-0.2201753302	 0.093569
H	 0.4564953552	-0.0525604274	-2.1732934162	 0.091226
H	 1.8945784381	 0.0901773629	-1.1455032511	 0.11035
H	-0.0316825101	-3.6250792828	-1.5781734727	 0.124068
H	-0.5821561578	-2.1620860747	-2.5339821476	 0.117098
H	 1.7208310672	-1.753619867	-3.3740319181	 0.115236
H	 2.372135138	-3.1976255312	-2.4533002213	 0.12248
H	 1.2629253657	-1.3551899018	 0.9851925658	 0.252241
H	 0.4751768062	-1.2411735796	 3.0951254178	 0.071025
49.088	91.0891	109.244	147.6925	216.0897	236.5153	270.4325	301.7913	351.5914	406.8341	490.5907	499.0435	589.4547	772.9708	785.0822	834.6067	873.5369	907.5613	937.5943	957.5377	1031.3791	1034.0469	1036.9459	1106.5716	1115.3491	1121.8731	1139.5445	1155.6823	1183.605	1189.5848	1238.8537	1293.6804	1322.3384	1330.4308	1381.7196	1394.2758	1405.9046	1431.8051	1477.7455	1486.0972	1494.0802	1511.8915	1519.9202	1522.1583	1799.5751	2921.6006	2960.2266	2998.3932	3038.4382	3049.7381	3098.5653	3102.9461	3104.3471	3155.506	3183.039	3197.1848	3583.8013
CC(CN1CC1)NC=O	C[C@@H](CN1CC1)NC=O	
InChI=1S/C6H12N2O/c1-6(7-5-9)4-8-2-3-8/h5-6H,2-4H2,1H3,(H,7,9)	InChI=1S/C6H12N2O/c1-6(7-5-9)4-8-2-3-8/h5-6H,2-4H2,1H3,(H,7,9)/t6-/m0/s1
