14
gdb 34361	3.08851	1.63506	1.34057	3.9662	65.43	-0.2754	-0.0196	0.2559	932.4022	0.100935	-436.613154	-436.606337	-436.605392	-436.644419	26.277	
N	-0.0235312836	-1.1442015246	-0.016313032	-0.326323
C	 0.0028895845	 0.0115548715	-0.0281862579	 0.219515
C	 0.0440273862	 1.4594166911	 0.0026965368	 0.32623
O	-0.4168823713	 2.1133741715	-1.1812965905	-0.313099
C	 0.7873428822	 2.9314955457	-1.2589619379	-0.091538
C	 1.3590853354	 2.293111764	 0.0264951721	-0.196578
C	 0.8974635036	 2.9073126539	 1.3709766635	 0.02649
O	-0.3685455	 3.5315285865	 1.1515913347	-0.215909
C	-0.3577586145	 2.1302383741	 1.3685304953	-0.054729
H	 1.3519812416	 2.7013025119	-2.1675471594	 0.121172
H	 0.5540749775	 3.9969531929	-1.2072042628	 0.131722
H	 2.3374070947	 1.8197971826	 0.006711086	 0.119318
H	 1.503968185	 3.2755723699	 2.188854172	 0.125017
H	-0.9786462413	 1.724345369	 2.1584062102	 0.128713
136.8633	156.8285	247.3093	300.8326	423.0254	487.5818	532.5396	545.6693	650.897	729.4366	809.4225	823.1244	857.429	913.189	965.7252	972.6922	982.578	1030.0473	1037.3423	1063.8565	1081.4958	1107.9696	1162.8674	1191.0752	1238.3978	1269.6182	1291.6041	1338.4629	1373.5901	1504.1157	2352.4424	3053.1055	3119.2378	3157.0234	3190.6667	3207.2003
N#CC12OCC1C1OC21	N#C[C@]12OC[C@H]1[C@H]1O[C@@H]21	
InChI=1S/C6H5NO2/c7-2-6-3(1-8-6)4-5(6)9-4/h3-5H,1H2	InChI=1S/C6H5NO2/c7-2-6-3(1-8-6)4-5(6)9-4/h3-5H,1H2/t3-,4+,5+,6-/m0/s1
