17
gdb 51515	4.85916	0.8395	0.75718	2.5058	76.31	-0.2443	-0.0537	0.1906	1438.5619	0.134913	-421.870202	-421.861626	-421.860682	-421.905353	30.429	
O	-0.2128195239	-0.0593530162	-0.2333331606	-0.234203
C	-0.0780312954	 1.1211744127	-0.0408013762	 0.155631
C	 1.2449507445	 1.8537274672	-0.0286672684	-0.284356
C	 1.3483277534	 2.8511099223	-1.208384392	-0.061659
C	 2.612665153	 3.7370689042	-1.1753167386	-0.361202
C	 3.2749000548	 3.5696409577	-2.5544189891	 0.382303
O	 4.2546179116	 4.1575804238	-2.9456138215	-0.324019
C	 2.4817572876	 2.554289766	-3.2876382131	-0.184646
C	 1.435881331	 2.1600838547	-2.5543649667	-0.042248
H	-0.9646243254	 1.7784211186	 0.1261506573	 0.076035
H	 1.3116555025	 2.4188420752	 0.9104036394	 0.123943
H	 2.0598691821	 1.1249124543	-0.0619338716	 0.128186
H	 0.445513261	 3.4786055282	-1.1915169746	 0.100461
H	 2.4008387062	 4.7927405655	-0.9872343979	 0.135409
H	 3.3218749798	 3.4124075333	-0.4067453633	 0.136552
H	 2.7493171692	 2.2145389944	-4.2798848609	 0.1217
H	 0.702094338	 1.4195917281	-2.8562709622	 0.13211
32.8081	44.5669	95.0149	201.2787	233.9696	311.5371	407.3294	483.1047	505.1413	576.4111	653.958	725.2295	803.9556	810.1354	831.0005	892.5621	925.5935	991.5312	1004.6886	1035.2684	1079.0753	1088.8213	1130.3931	1173.5954	1187.1596	1201.7763	1254.9452	1272.508	1326.1735	1347.0831	1371.2227	1428.0295	1452.6617	1468.1871	1652.1752	1819.5864	1834.6849	2849.4886	3000.6486	3027.1768	3060.9023	3104.017	3108.0019	3188.0716	3228.6708
O=CCC1CC(=O)C=C1	O=CC[C@H]1CC(=O)C=C1	
InChI=1S/C7H8O2/c8-4-3-6-1-2-7(9)5-6/h1-2,4,6H,3,5H2	InChI=1S/C7H8O2/c8-4-3-6-1-2-7(9)5-6/h1-2,4,6H,3,5H2/t6-/m0/s1
