20
gdb 66318	2.97659	1.10889	0.94381	4.2554	76.4	-0.2414	0.0134	0.2547	1301.0799	0.170735	-440.299002	-440.289737	-440.288793	-440.333304	34.874	
O	 0.7535200513	 1.1661500222	-0.8781638728	-0.488763
C	 0.3771104751	-0.0447724918	-0.2957563903	 0.434444
C	 1.2093733849	-1.2532098527	-0.6912105597	-0.251074
C	 2.6828845962	-1.2076821893	-0.233228516	-0.181623
N	 3.5867369308	-0.463930317	-1.1072019891	-0.248026
C	 3.8924462336	 0.8397026819	-0.9497968923	 0.160839
O	 3.4172386317	 1.573913411	-0.0969625413	-0.347546
C	-0.2231955415	 0.0061110226	 1.0920144964	-0.318108
C	-1.1033067043	-0.2130046078	-0.1249087936	-0.30455
H	 1.5707826304	 1.4696628478	-0.4469098457	 0.303271
H	 0.7544699599	-2.1478213491	-0.2503888953	 0.097145
H	 1.1738135615	-1.3820749211	-1.7803393988	 0.098945
H	 2.7535050751	-0.7595307352	 0.7618678417	 0.144705
H	 3.0757071384	-2.2268521644	-0.1672225337	 0.108981
H	 4.0083288956	-0.9505234306	-1.8823685927	 0.253697
H	 4.6424084775	 1.1904597805	-1.6828097401	 0.092269
H	-0.0633867313	-0.8271136632	 1.768975163	 0.10098
H	-0.2655352182	 0.9785656491	 1.5685530826	 0.119001
H	-1.716297009	 0.6186568897	-0.451596809	 0.122109
H	-1.5427981975	-1.1933168726	-0.2759609734	 0.103302
63.4361	83.5408	172.0348	186.0915	220.0002	292.1926	315.0093	349.7277	409.2028	453.6429	533.3102	561.7174	676.2295	693.6893	768.5046	773.2035	815.3579	898.8733	930.854	937.1149	970.7698	998.2842	1029.0839	1037.9967	1043.1138	1071.9571	1088.2092	1187.5511	1197.8806	1243.1375	1284.7819	1295.8977	1335.2318	1377.8181	1396.9833	1415.3889	1427.132	1453.3043	1464.8453	1474.2196	1499.952	1547.6547	1772.8584	2964.2764	3025.1796	3051.5845	3072.1897	3107.8081	3128.4191	3135.7233	3216.5703	3231.3075	3627.5728	3635.3779
OC1(CCNC=O)CC1	OC1(CCNC=O)CC1	
InChI=1S/C6H11NO2/c8-5-7-4-3-6(9)1-2-6/h5,9H,1-4H2,(H,7,8)	InChI=1S/C6H11NO2/c8-5-7-4-3-6(9)1-2-6/h5,9H,1-4H2,(H,7,8)
