16
gdb 9792	3.07721	1.80125	1.34978	5.298	64.34	-0.267	0.0199	0.2869	929.1146	0.129554	-379.904457	-379.896029	-379.895085	-379.937237	30.763	
C	-0.0863606633	 1.5646307266	-0.1200081489	-0.473639
C	 0.0241340824	 0.0639296694	 0.0208297596	 0.408177
C	 0.902778397	-0.700892421	-0.873488289	-0.236063
O	 1.2829646849	-0.4322895661	 0.4827367788	-0.261201
C	-1.1902257333	-0.6543112038	 0.6587906641	-0.204415
N	-1.0269117519	-2.0768234794	 0.9275659863	-0.501462
C	-1.5501982483	 0.0260128789	 1.9211267015	 0.311471
N	-1.820632631	 0.5782152877	 2.8989623044	-0.325592
H	 0.8156890352	 1.9685700048	-0.5846167334	 0.133265
H	-0.9477012827	 1.8318746047	-0.7420917838	 0.126686
H	-0.2157333998	 2.0376919809	 0.8571714877	 0.161683
H	 0.6974945908	-1.745581609	-1.0964528958	 0.104153
H	 1.4746493355	-0.1689355411	-1.6317463313	 0.124787
H	-2.0452288446	-0.5276916654	-0.0173749091	 0.135819
H	-1.0938697767	-2.6088028985	 0.0677099181	 0.241196
H	-0.1034024243	-2.2332567987	 1.3228348508	 0.255135
62.8805	152.7766	189.8906	232.7181	255.8357	321.7918	357.9634	367.9112	402.4035	457.5757	560.4765	612.3762	734.6528	823.5689	831.2692	885.7795	924.27	963.3944	1019.3425	1099.565	1129.7483	1131.7872	1170.4251	1200.3927	1246.4543	1294.0036	1384.7121	1404.836	1421.1473	1482.8891	1496.5555	1524.5905	1661.0646	2361.5201	3040.2494	3044.3467	3093.6393	3113.181	3134.1021	3179.5964	3500.3743	3595.6304
CC1(CO1)C(N)C#N	C[C@]1(CO1)[C@@H](N)C#N	
InChI=1S/C5H8N2O/c1-5(3-8-5)4(7)2-6/h4H,3,7H2,1H3	InChI=1S/C5H8N2O/c1-5(3-8-5)4(7)2-6/h4H,3,7H2,1H3/t4-,5-/m0/s1
