19
gdb 94562	2.79358	1.38062	1.19609	1.1426	71.29	-0.2524	0.0671	0.3196	1108.898	0.158957	-460.123523	-460.115051	-460.114107	-460.156654	32.867	
O	 0.1855401737	 1.0739779951	-0.7774488584	-0.436393
C	-0.0053554887	-0.1257078665	-0.0884969288	 0.093448
C	 0.0031826467	-0.0952733979	 1.4585232516	-0.11935
O	-1.369561109	-0.5552448775	 1.5225270589	-0.311228
C	-1.4673681598	-0.6526821052	 0.0750040403	 0.003422
C	-2.5640279392	 0.2372337437	-0.4373074632	 0.415617
O	-2.4690094577	 1.5478160506	 0.0811853886	-0.479018
C	-3.0394306809	 0.1392667955	-1.8503453062	-0.301898
C	-3.9432861166	-0.3044772817	-0.7178002701	-0.32678
H	-0.5447384574	 1.6620219789	-0.5313026522	 0.292169
H	 0.6832066932	-0.8531824272	-0.5240386393	 0.096182
H	 0.6876460853	-0.7931980328	 1.954747829	 0.106454
H	 0.1275418611	 0.9055215771	 1.8896559882	 0.101842
H	-1.6240931619	-1.689361945	-0.2482879641	 0.074489
H	-2.4800914103	 1.438492713	 1.0424221148	 0.295021
H	-3.275262345	 1.0759573784	-2.3416013469	 0.131515
H	-2.5953516319	-0.6123652147	-2.4936293131	 0.121951
H	-4.1253137979	-1.3644082305	-0.5776896321	 0.118888
H	-4.7747291437	 0.3434286368	-0.465937487	 0.123667
83.4377	100.3917	181.8151	235.7299	288.6805	319.9472	405.058	422.3421	486.4038	514.5384	580.9706	654.3121	760.8228	766.127	813.1366	858.1972	888.5864	924.8464	952.6333	969.6221	985.4976	1008.8882	1014.8322	1056.0231	1057.4903	1082.9477	1152.2654	1176.5521	1188.8641	1222.3737	1249.3835	1258.4896	1304.9304	1329.5824	1334.6773	1365.3896	1424.3975	1453.6291	1479.9487	1504.7448	1515.9465	3017.8302	3028.8695	3066.8797	3091.6104	3136.9428	3142.0733	3223.1581	3236.5856	3702.1868	3753.5162
OC1COC1C1(O)CC1	O[C@H]1CO[C@H]1C1(O)CC1	
InChI=1S/C6H10O3/c7-4-3-9-5(4)6(8)1-2-6/h4-5,7-8H,1-3H2	InChI=1S/C6H10O3/c7-4-3-9-5(4)6(8)1-2-6/h4-5,7-8H,1-3H2/t4-,5+/m0/s1
