19
gdb 108160	3.30404	1.41349	1.2098	1.33	81.64	-0.2103	-0.0336	0.1768	1071.0127	0.159467	-385.780731	-385.773027	-385.772083	-385.812732	30.991	
O	-0.0897846884	 1.3954944301	-0.2605032958	-0.418756
C	-0.0174863772	 0.0339647161	 0.1449000568	-0.156779
C	-1.3775296668	-0.6137474093	 0.2287904592	 0.306034
C	-2.3853492916	-0.0954405014	 1.2775618234	-0.305876
C	-3.530959638	-1.0667418389	 1.034750935	-0.108257
C	-3.095498766	-2.1010788993	 0.2872936441	 0.046432
C	-3.2832979468	-1.9622976515	-1.2315131555	-0.268829
C	-1.8405280711	-1.342306113	-1.1228555265	-0.115793
C	-1.5595999976	-2.0857399172	 0.1517485506	-0.16035
H	-0.5655861337	 1.4162080991	-1.0977369987	 0.281473
H	 0.6471086221	-0.5481028234	-0.5131195493	 0.085958
H	 0.4466458754	 0.0514134953	 1.1379608923	 0.110549
H	-1.9158652332	-0.086057321	 2.2728820403	 0.107175
H	-2.7400564113	 0.9247786882	 1.0912312605	 0.116676
H	-4.5509083644	-0.6978379481	 0.966753594	 0.095998
H	-3.2244482596	-2.8823251122	-1.8252325338	 0.106079
H	-4.1200426005	-1.3460826728	-1.5725076683	 0.101216
H	-1.1654201949	-1.2722621933	-1.9738462623	 0.087636
H	-0.8586938163	-2.8856307373	 0.354929714	 0.089416
91.5783	149.9197	267.6445	296.6057	344.3117	381.5875	399.5002	457.2491	581.0838	643.6548	674.3077	752.6276	802.8274	835.3385	845.2887	868.4758	915.1628	924.2431	948.4297	1000.4183	1014.2109	1025.5441	1055.8337	1060.5306	1073.4005	1094.316	1148.4284	1156.8861	1194.5469	1209.6664	1235.2334	1252.7727	1282.9263	1303.8915	1346.2624	1390.7816	1423.424	1473.3809	1501.3191	1502.5503	1593.866	2976.6684	2990.7837	3024.3746	3057.7551	3059.657	3091.5259	3122.1554	3159.605	3188.3031	3807.1285
OCC12CC=C3CC1C23	OC[C@@]12C[CH][C]3C[C@@H]1[C@@H]23	
InChI=1S/C8H10O/c9-4-8-2-1-5-3-6(8)7(5)8/h1,6-7,9H,2-4H2	InChI=1S/C8H10O/c9-4-8-2-1-5-3-6(8)7(5)8/h1,6-7,9H,2-4H2/t6-,7+,8+/m1/s1
