20
gdb 116975	4.06667	0.50436	0.47483	3.8906	87.7	-0.2584	0.0205	0.2788	2355.0512	0.16861	-403.120341	-403.10943	-403.108486	-403.159921	36.626	
C	 0.282045419	 1.3370301509	-0.4062939144	-0.382676
C	 0.5162891221	-0.1563426395	-0.1721800066	-0.15628
C	-0.0902889412	-1.0257511348	-1.2928308503	-0.336867
C	 0.1216437919	-2.4546771256	-1.0964636988	 0.006494
C	 0.3127545664	-3.6285974862	-0.9049755494	 0.13873
C	 0.5507796481	-5.0520591202	-0.6960658618	-0.240356
O	 1.8017594853	-5.5079425511	-1.2286429319	-0.171403
C	 1.8801925582	-5.568616522	-2.5748015104	 0.13716
N	 2.9541490116	-5.9382277427	-3.1235659978	-0.438105
H	 0.7326821502	 1.6673814625	-1.3488280596	 0.117819
H	-0.7877014876	 1.5702149064	-0.4510198896	 0.116391
H	 0.7193164908	 1.9349276338	 0.3986398007	 0.118158
H	 1.5895054567	-0.3654082032	-0.1053775264	 0.115374
H	 0.0819220855	-0.4615490719	 0.7862510088	 0.110283
H	-1.1675577035	-0.8250743516	-1.3690269115	 0.129562
H	 0.3385684772	-0.7266177842	-2.2587729865	 0.131852
H	 0.60477796	-5.2839803701	 0.3712170143	 0.151402
H	-0.2724252556	-5.6456953806	-1.1180184611	 0.132815
H	 0.9511285794	-5.2787554405	-3.0835189861	 0.091204
H	 2.8419980556	-5.9424472795	-4.1352924216	 0.228442
8.9206	47.5174	72.9094	87.9801	95.1297	164.685	241.2216	267.1847	301.5337	327.8559	364.1225	466.5101	526.8676	666.2457	741.7568	789.6474	819.4367	870.8462	894.5423	952.1253	1028.4951	1039.9777	1042.1381	1107.5655	1114.0437	1121.3397	1165.8643	1243.676	1258.8275	1305.4296	1317.9592	1322.6706	1381.5906	1393.5496	1413.7238	1427.7418	1468.5111	1485.5497	1491.6876	1499.2428	1508.5299	1748.4922	2364.0999	3007.3261	3011.6427	3030.2043	3031.2684	3039.0784	3043.3434	3075.2245	3088.6725	3101.2566	3107.6688	3517.6329	8.9204	47.5179	72.9111	87.9808	95.1298	164.6854	241.2215	267.1849	301.5338	327.8561	364.1228	466.5104	526.8678	666.2456	741.7568	789.6475	819.4371	870.8463	894.5423	952.1258	1028.4952	1039.9781	1042.1381	1107.5655	1114.044	1121.3398	1165.8644	1243.6762	1258.8276	1305.4297	1317.9594	1322.6708	1381.5906	1393.5497	1413.7239	1427.7421	1468.5113	1485.5499	1491.6877	1499.2429	1508.53	1748.4926	2364.1	3007.3262	3011.6427	3030.2043	3031.2685	3039.0784	3043.3434	3075.2245	3088.6725	3101.2566	3107.6688	3517.6331
CCCC#CCOC=N	CCCC#CCO[CH][NH]	
InChI=1S/C7H11NO/c1-2-3-4-5-6-9-7-8/h7-8H,2-3,6H2,1H3	InChI=1S/C7H11NO/c1-2-3-4-5-6-9-7-8/h7-8H,2-3,6H2,1H3
