18
gdb 51070	3.51242	1.35522	1.20218	3.3455	76.88	-0.2404	0.0209	0.2613	1070.8094	0.149156	-401.92038	-401.912801	-401.911857	-401.953004	29.322	
O	-0.0222309943	 0.2127330531	 1.1529129826	-0.30798
C	 0.0033887368	 1.2714664834	 0.568096189	 0.128345
N	 1.1072911529	 1.8073382142	-0.0382062647	-0.451488
C	 2.3346601712	 1.1267237849	-0.1041561736	 0.441489
C	 3.2530704596	 0.6400296529	 0.98602731	-0.080577
C	 3.3022321972	-0.7649705656	 0.3922627307	-0.225052
C	 2.8996624343	-0.1058969592	-0.954160558	-0.104059
C	 4.1179817342	 0.7871428817	-1.3220686717	-0.224687
C	 3.7576623637	 1.6219003603	-0.094022633	-0.148537
H	-0.8789201436	 1.9350211459	 0.4681968927	 0.073899
H	 0.9770171116	 2.6437981153	-0.5882161096	 0.247742
H	 3.2310785402	 0.9341316954	 2.0269960358	 0.093034
H	 4.2482483546	-1.3174589823	 0.4138899345	 0.084515
H	 2.4921248467	-1.3755721484	 0.795989722	 0.125549
H	 2.3636236313	-0.665326455	-1.7174114864	 0.07488
H	 5.0995423523	 0.3010651974	-1.352501394	 0.091794
H	 3.9554617529	 1.345266417	-2.248707613	 0.094207
H	 4.1102607483	 2.6077357191	 0.1829599767	 0.086924
49.7889	115.424	213.1746	271.1752	371.3973	425.5836	472.7182	534.576	580.7887	708.0849	720.6775	808.7512	814.71	876.8965	915.1933	951.1185	956.6116	979.269	1009.5651	1013.9044	1028.5979	1029.6109	1069.5377	1103.9536	1122.4602	1130.3208	1149.1978	1184.1008	1216.9082	1237.7586	1251.6575	1296.6483	1314.0682	1421.174	1450.8876	1485.1748	1499.0715	1517.0522	1811.4201	2933.6869	3034.3647	3041.4842	3093.735	3119.0557	3143.5968	3191.4741	3209.024	3596.585
O=CNC12C3CC1CC23	O=CN[C@@]12[C@H]3C[C@@H]1C[C@@H]23	
InChI=1S/C7H9NO/c9-3-8-7-4-1-5(7)6(7)2-4/h3-6H,1-2H2,(H,8,9)	InChI=1S/C7H9NO/c9-3-8-7-4-1-5(7)6(7)2-4/h3-6H,1-2H2,(H,8,9)/t4-,5+,6-,7-
