18
gdb 38654	3.20565	1.94267	1.67565	2.14	73.54	-0.2454	0.0216	0.267	862.3127	0.152926	-401.953647	-401.94772	-401.946776	-401.983596	25.616	
C	-0.0522045551	 1.5824444466	 0.0584972935	-0.243575
C	 1.4978688619	 1.4397584486	-0.0159307936	-0.065989
C	 1.7971890727	 0.7831494109	 1.345767297	-0.231166
C	 0.752602736	-0.3871276782	 1.2854739914	 0.018418
N	 1.4059589029	-1.6854279924	 1.0862451987	-0.265452
C	 2.0312630578	-1.7951682227	-0.0077587549	 0.112871
O	 2.135629212	-0.8712014388	-1.0011271946	-0.250938
C	 1.2047094692	 0.2100712491	-0.9223622977	 0.149528
C	-0.016358221	 0.0349302697	 0.0078372323	-0.080851
H	-0.4639047404	 2.0550100039	 0.9534107602	 0.102109
H	-0.4958680034	 2.0239405056	-0.8372848237	 0.103178
H	 2.1400022121	 2.257345191	-0.342832147	 0.068361
H	 2.8158745558	 0.4011707971	 1.4357548805	 0.114731
H	 1.6158588868	 1.4731024452	 2.174913348	 0.099633
H	 0.1228954847	-0.4442411541	 2.1743347464	 0.075916
H	 2.5808865931	-2.6970559893	-0.2675043506	 0.124606
H	 0.9569317515	 0.4790614201	-1.9497291861	 0.093343
H	-0.8753028866	-0.5739573423	-0.2694746198	 0.075276
218.5208	322.1642	374.4852	453.2597	492.696	569.3257	613.5728	706.5918	788.7792	822.2861	834.1375	859.7363	875.2049	932.1462	953.3259	960.0776	965.8382	970.163	1009.7883	1022.9178	1056.5885	1080.5084	1095.455	1125.3609	1152.0352	1188.1749	1200.8732	1213.8035	1232.012	1267.3362	1283.465	1319.4185	1336.401	1340.8916	1381.9189	1401.1885	1493.9287	1514.4812	1711.0037	3060.9731	3062.6594	3092.7009	3108.7891	3117.4391	3119.1331	3122.3955	3133.3278	3169.325
C1C2CC3N=COC2C13	C1[C@H]2C[C@@H]3[N][CH]O[C@H]2[C@H]13	
InChI=1S/C7H9NO/c1-4-2-6-5(1)7(4)9-3-8-6/h3-7H,1-2H2	InChI=1S/C7H9NO/c1-4-2-6-5(1)7(4)9-3-8-6/h3-7H,1-2H2/t4-,5+,6-,7+/m0/s1
