19
gdb 109236	2.91846	1.20969	1.08939	2.1688	76.81	-0.2188	0.0198	0.2386	1188.0178	0.159238	-423.010955	-423.002329	-423.001384	-423.044296	32.934	
O	-0.0404476212	 1.4023951043	-0.0401372798	-0.41384
C	-0.0447911193	-0.011787477	 0.0107368514	-0.186192
C	-1.4530791068	-0.5141859499	 0.0194753217	 0.308458
C	-2.5729473334	 0.217688624	-0.0508843901	-0.199908
C	-3.8205401517	-0.6387046828	 0.0102400794	-0.276322
C	-3.2852040068	-2.0714770235	 0.0308220462	-0.107379
C	-2.4774950229	-2.5131544674	-1.1582105428	 0.13142
O	-2.5008460965	-1.847557868	-2.3812800016	-0.428492
C	-1.7501424775	-1.9769541287	 0.0637802074	-0.210466
H	 0.8736888863	 1.6991275704	-0.050689383	 0.291255
H	 0.489821381	-0.4498199587	-0.8505593522	 0.103979
H	 0.4722051971	-0.3856913488	 0.9127721262	 0.097499
H	-2.5936067058	 1.2958817105	-0.1447592374	 0.111348
H	-4.4175812969	-0.4146614456	 0.9032725492	 0.110454
H	-4.478023529	-0.4686834383	-0.853376929	 0.117119
H	-3.8128304573	-2.8228821866	 0.6072541899	 0.084715
H	-2.4048167368	-3.5832078432	-1.3246685878	 0.103338
H	-2.310408438	-0.9154859175	-2.2078824127	 0.283454
H	-1.1226154447	-2.6427664431	 0.648480795	 0.079562
70.5975	135.8329	196.9894	206.8261	234.578	257.0484	373.2703	407.362	444.2199	546.8619	631.6261	669.7178	724.5039	757.2223	789.8738	830.8755	870.8621	955.1682	974.259	979.0803	1022.3991	1037.952	1061.8552	1066.7437	1079.3035	1102.3219	1165.36	1184.3086	1197.0757	1209.6977	1248.9349	1270.6715	1299.7028	1331.8176	1358.8711	1364.1561	1447.9541	1467.5815	1479.1245	1506.9791	1698.3485	2941.0626	2955.8973	3015.3183	3042.0817	3148.8855	3161.4478	3175.3376	3221.7969	3737.7773	3839.9494
OCC1=CCC2C(O)C12	OCC1=CC[C@H]2[C@@H](O)[C@@H]12	
InChI=1S/C7H10O2/c8-3-4-1-2-5-6(4)7(5)9/h1,5-9H,2-3H2	InChI=1S/C7H10O2/c8-3-4-1-2-5-6(4)7(5)9/h1,5-9H,2-3H2/t5-,6+,7-/m1/s1
