22
gdb 77906	1.96505	1.5332	1.33568	2.0036	82.85	-0.1895	0.0744	0.264	1155.7768	0.191731	-404.293292	-404.283098	-404.282154	-404.327532	38.241	
C	 0.241999117	 1.9529018871	 0.0250229749	-0.432496
C	 0.3888430024	 0.4449691488	-0.0286597374	-0.072657
C	 1.6267840538	-0.385195178	-0.3366252303	-0.098996
N	 2.8599842324	 0.0235701833	 0.3139073075	-0.077973
C	 3.6398783029	 1.1577542434	-0.13341876	-0.330204
C	 2.2501521546	-0.0889498772	 1.6739747417	-0.001142
C	 2.3208234652	 1.0723137077	 2.6581880207	-0.428421
C	 0.9270504294	-0.5105310442	 1.0116698796	 0.300952
O	 0.1912638522	-1.5890543993	 1.4797997583	-0.460464
H	 1.1298586064	 2.4534820304	 0.4085835162	 0.129364
H	 0.0517239974	 2.3503304104	-0.9783126951	 0.116853
H	-0.6038442533	 2.2444082412	 0.6592906266	 0.109941
H	-0.468910831	-0.0374547654	-0.501042348	 0.088672
H	 1.6531093922	-1.0793399863	-1.1714813945	 0.094058
H	 3.1349456839	 2.1371054186	-0.1073015837	 0.09408
H	 4.5515617206	 1.2348579149	 0.4693358103	 0.117417
H	 3.9502688212	 0.9789830486	-1.1689072692	 0.12122
H	 2.6710033366	-0.9764945221	 2.1675971288	 0.086813
H	 1.8769689526	 1.9943918076	 2.279520943	 0.119378
H	 1.7910872232	 0.797467166	 3.5770287175	 0.118441
H	 3.3595914416	 1.2837406344	 2.9350364829	 0.119971
H	-0.5797276614	-1.2480794498	 1.9447299004	 0.285195
123.0882	134.1623	177.2724	192.9637	204.3769	225.9335	245.6632	259.3922	265.0634	301.8149	366.2509	467.731	571.2252	595.6941	604.1818	694.7859	719.4543	774.9273	902.1233	932.7635	961.8858	967.2735	1057.0211	1074.7992	1079.2995	1107.5124	1115.8836	1146.418	1150.4517	1200.1595	1228.3076	1244.4359	1275.8281	1296.9672	1340.9102	1350.7078	1388.5427	1402.7352	1411.5244	1450.1837	1471.8114	1483.5129	1491.1624	1493.8785	1504.7607	1509.0922	1511.0433	2968.106	2995.6848	3028.3666	3037.7952	3050.6384	3079.4936	3088.6606	3094.0136	3095.5944	3134.3709	3150.1568	3156.5729	3805.7744
CC1C2N(C)C(C)C12O	C[C@H]1[C@H]2N(C)[C@@H](C)[C@@]12O	
InChI=1S/C7H13NO/c1-4-6-7(4,9)5(2)8(6)3/h4-6,9H,1-3H3	InChI=1S/C7H13NO/c1-4-6-7(4,9)5(2)8(6)3/h4-6,9H,1-3H3/t4-,5-,6+,7-/m0/s1
