21
gdb 94897	2.65694	1.6431	1.25363	1.597	83.68	-0.2258	0.0169	0.2427	1083.6662	0.184544	-387.107622	-387.099496	-387.098552	-387.140242	31.751	
C	-0.0561226902	 1.55995757	 0.1089627713	-0.389212
C	 0.0069019306	 0.0351052838	-0.0098447957	-0.029345
C	 0.9428581777	-0.4497094072	-1.1595931455	-0.219713
C	 2.3881827428	-0.5668036783	-0.5574648178	-0.33481
C	 2.1483149531	-0.4298435825	 0.9167018709	 0.3478
C	 2.7618119917	 0.0487070656	 1.9916212464	-0.278979
C	 1.7492548241	 0.1886916448	 3.1066890229	-0.111437
O	 0.4742962673	-0.0432153098	 2.4930722689	-0.283557
C	 0.6863510662	-0.621606932	 1.2155899712	 0.072948
H	 0.9423722118	 1.9956061002	 0.221615363	 0.113641
H	-0.5154716575	 1.9966503418	-0.7835492342	 0.10501
H	-0.6432010392	 1.8538555563	 0.9827348704	 0.128263
H	-1.0064060685	-0.3520877668	-0.15717381	 0.068011
H	 0.6150169255	-1.430989633	-1.5169637322	 0.101886
H	 0.9071130473	 0.2261979194	-2.018277346	 0.101525
H	 2.8429394508	-1.5279765562	-0.8217669545	 0.114471
H	 3.0622771122	 0.2099817205	-0.929695752	 0.117296
H	 3.7947458892	 0.3586965482	 2.0904471772	 0.099022
H	 1.9109138408	-0.5324278408	 3.9259259104	 0.099793
H	 1.7537248044	 1.1926221527	 3.55348102	 0.108045
H	 0.4085198397	-1.6910823765	 1.2426756453	 0.069342
91.3764	121.8642	213.2174	228.9406	250.1992	332.2447	372.3961	457.9272	589.4982	647.6746	715.9794	742.9495	776.3328	800.5313	837.5684	887.5911	926.474	932.1396	959.5469	973.7437	1001.3295	1038.8705	1053.179	1081.1876	1088.6828	1139.4381	1185.5787	1192.9754	1199.1591	1210.0724	1264.1553	1267.3455	1292.0045	1328.0318	1338.7127	1358.8232	1379.4367	1386.5005	1412.6079	1477.5355	1490.0342	1501.1559	1503.3095	1519.6519	1744.5414	2928.2232	2957.9472	3016.275	3036.5991	3038.6974	3046.4131	3059.4465	3077.4882	3100.0968	3101.8039	3120.3804	3209.6283
CC1CCC2=CCOC12	C[C@H]1CCC2=CCO[C@@H]12	
InChI=1S/C8H12O/c1-6-2-3-7-4-5-9-8(6)7/h4,6,8H,2-3,5H2,1H3	InChI=1S/C8H12O/c1-6-2-3-7-4-5-9-8(6)7/h4,6,8H,2-3,5H2,1H3/t6-,8-/m0/s1
