14
gdb 21530	3.3755	2.05021	1.28719	1.6454	60.17	-0.1973	0.047	0.2442	881.3912	0.109518	-412.04965	-412.0418	-412.040856	-412.081245	29.243	
N	 0.124711024	 1.3933122166	 0.1327153936	-0.605146
C	-0.0023790427	 0.0138769753	 0.0156052147	 0.392369
C	-1.1541014235	-0.7564532935	 0.0056227143	-0.008632
N	-2.47313915	-0.2256491498	 0.0098515689	-0.634047
C	-0.6627190129	-2.0861176024	-0.0414810103	 0.37214
O	-1.4426078766	-3.1890416278	-0.0833832218	-0.436382
N	 0.6541189511	-2.1580205131	-0.0667549434	-0.351282
N	 1.0465388134	-0.837628472	-0.0435521478	-0.28447
H	 0.754495406	 1.8039290353	-0.5465759148	 0.247146
H	-0.7945953779	 1.8153662438	 0.0499137179	 0.260663
H	-2.9714323426	-0.4743041613	 0.8596586538	 0.240979
H	-3.0207058005	-0.59814504	-0.7602316528	 0.240668
H	-0.848646426	-3.9488684964	-0.1318500939	 0.29982
H	 2.0160988583	-0.6249136248	 0.1079129217	 0.266174
165.1238	197.1681	233.0198	271.7832	285.2826	295.2507	304.7413	411.9583	450.0462	559.1514	595.8734	662.7396	734.9438	744.6877	797.4882	820.0286	866.2557	1071.0595	1093.4155	1163.1244	1220.9844	1224.9407	1313.1147	1362.8463	1471.7226	1560.8684	1588.0568	1631.1566	1655.1531	1693.3679	3486.2553	3511.4735	3545.9803	3601.8599	3691.4701	3790.462
NC1=C(N)C(O)=NN1	Nc1c(N)c(O)n[nH]1	
InChI=1S/C3H6N4O/c4-1-2(5)6-7-3(1)8/h4H2,(H4,5,6,7,8)	InChI=1S/C3H6N4O/c4-1-2(5)6-7-3(1)8/h4H2,(H4,5,6,7,8)
