20
gdb 57899	2.44927	1.12995	1.04636	3.8489	76.4	-0.2542	-0.0304	0.2238	1289.0797	0.168752	-440.279156	-440.269125	-440.268181	-440.314548	36.455	
C	-1.6503260007	-1.3212761003	 1.5920975281	-0.406307
C	-2.5298879469	-0.055627576	 1.6088560336	 0.058655
O	-2.6122551918	 0.4883624607	 2.9017492705	-0.441456
C	-1.9426819759	 0.9883208114	 0.6587842462	 0.362276
O	-1.393512429	 1.9691198696	 1.1225342962	-0.345194
C	-1.9894832408	 0.7909575461	-0.8252482849	-0.131382
N	-2.7490917309	-0.341945325	-1.3726201443	-0.331449
C	-3.2358491546	 1.0113496537	-1.6377412921	 0.018446
C	-4.5711370719	 1.424344297	-1.0692451418	-0.407504
H	-2.0317459324	-2.0166319732	 2.3437957059	 0.132861
H	-1.6740845162	-1.8081246648	 0.6144949507	 0.129727
H	-0.6166546215	-1.0716889891	 1.8518044702	 0.119494
H	-3.5336002093	-0.3352333608	 1.2658238275	 0.102248
H	-2.0659884619	 1.2903888644	 2.8738729111	 0.288593
H	-1.0646940865	 1.0996555963	-1.3087732386	 0.110061
H	-2.2745713194	-0.7358262563	-2.1797181543	 0.241168
H	-3.0352077613	 1.4147833029	-2.6300384908	 0.098875
H	-4.7418008663	 1.0010190473	-0.0777013546	 0.140446
H	-4.6333752659	 2.5147129483	-0.994384434	 0.132203
H	-5.3803030569	 1.0834800679	-1.7235354045	 0.12824
56.3703	65.323	141.1395	156.7074	192.352	222.35	259.2788	337.7922	362.1064	411.7899	431.5974	473.3116	508.0956	581.8662	741.2402	763.4489	785.7321	851.1387	911.205	943.4966	985.3887	1026.1344	1041.5485	1055.3184	1087.6824	1099.6905	1147.1084	1158.3386	1231.0146	1241.846	1261.7763	1296.6836	1336.0408	1384.4461	1397.6712	1416.0599	1442.9227	1457.7858	1486.2629	1493.0127	1495.9435	1499.1676	1774.0395	3035.0308	3043.5755	3044.8716	3104.6829	3105.7076	3120.9149	3131.332	3137.3077	3140.0242	3515.7721	3682.1238
CC(O)C(=O)C1NC1C	C[C@@H](O)C(=O)[C@H]1N[C@H]1C	
InChI=1S/C6H11NO2/c1-3-5(7-3)6(9)4(2)8/h3-5,7-8H,1-2H3	InChI=1S/C6H11NO2/c1-3-5(7-3)6(9)4(2)8/h3-5,7-8H,1-2H3/t3-,4+,5-/m0/s1
