17
gdb 51148	3.03514	1.17545	0.94818	3.6855	74.01	-0.2491	-0.0251	0.224	1227.1672	0.134153	-421.827104	-421.818556	-421.817612	-421.861607	30.826	
O	 0.2944607281	-0.2248424757	-0.2297167126	-0.236164
C	 0.1032658437	 0.9626997165	-0.1945695059	 0.155276
C	 1.1897964741	 1.997155968	 0.057695448	-0.395708
C	 1.2455673856	 3.0042477797	-1.0642709073	 0.220674
C	 1.9594393198	 2.7433269108	-2.3887214942	-0.316222
C	 2.3752757331	 3.9350014654	-1.6037597695	-0.117366
C	 1.3775447292	 5.077301235	-1.8514314215	-0.3544
C	 0.2944205084	 4.1497899803	-1.2395725725	 0.362826
O	-0.8182803249	 4.3411570529	-0.8328952937	-0.318177
H	-0.9073899606	 1.3969980277	-0.3551181587	 0.104402
H	 0.9463290866	 2.5144993203	 0.9961794169	 0.131663
H	 2.1436359793	 1.4766943158	 0.1823910585	 0.124096
H	 2.6190031087	 1.8816087354	-2.354298013	 0.1364
H	 1.4356988521	 2.8635124448	-3.3333866178	 0.126437
H	 3.3620020126	 4.0483463986	-1.1749867688	 0.113847
H	 1.518537312	 5.9552372513	-1.2149045192	 0.136665
H	 1.2505658023	 5.4004815332	-2.8885521185	 0.125751
42.0207	61.674	121.6916	185.382	230.6333	337.7746	413.3433	442.5693	504.7966	560.6284	663.2615	690.574	786.2968	815.8874	858.6266	879.7738	941.1415	973.9823	990.2721	1017.4915	1049.6376	1068.0686	1084.1162	1103.9316	1143.3554	1194.628	1220.1229	1256.5458	1303.3484	1308.7167	1372.6574	1421.0284	1454.7435	1458.7147	1499.8499	1834.0671	1869.3652	2904.6056	3019.1218	3059.5278	3098.8305	3114.9468	3115.8425	3200.9115	3211.9257
O=CCC12CC1CC2=O	O=CC[C@]12C[C@H]1CC2=O	
InChI=1S/C7H8O2/c8-2-1-7-4-5(7)3-6(7)9/h2,5H,1,3-4H2	InChI=1S/C7H8O2/c8-2-1-7-4-5(7)3-6(7)9/h2,5H,1,3-4H2/t5-,7+/m1/s1
