18
gdb 106947	3.756	1.13247	0.99976	3.4465	71.63	-0.2525	-0.0111	0.2414	1196.1559	0.147775	-439.089501	-439.081053	-439.080109	-439.123105	31.542	
O	 0.0873853184	 1.4246319928	-0.1887309896	-0.410182
C	 0.0386422446	 0.0305295969	 0.0731448381	-0.152552
C	-1.3821411351	-0.4892680689	 0.0820444709	 0.28826
C	-1.9606880354	-1.1074325397	-1.133458074	-0.304089
N	-1.5373688019	-1.9576422223	 0.0169657932	-0.165902
C	-2.6684359458	-2.313824317	 0.8376183458	 0.388904
O	-3.0387161728	-3.441733198	 0.9891861292	-0.303602
C	-3.2943809501	-1.0566561014	 1.4632565929	-0.345212
C	-2.3513435067	 0.1034418831	 1.1101702514	-0.285287
H	-0.2318104054	 1.5676148758	-1.0859166903	 0.285576
H	 0.6421467864	-0.5489546666	-0.6398914309	 0.103003
H	 0.4840868813	-0.1015873585	 1.0651207808	 0.118555
H	-3.0273439165	-1.0053146349	-1.3204088271	 0.127606
H	-1.3579065039	-1.2480475318	-2.0263191537	 0.130304
H	-4.2998845125	-0.9416146095	 1.0454444809	 0.140533
H	-3.4236173253	-1.2096732724	 2.5368394776	 0.144387
H	-1.7794834399	 0.4272300541	 1.9845515153	 0.121884
H	-2.8707328497	 0.9847164585	 0.7269933295	 0.117815
67.8751	82.3764	128.8022	230.0632	300.9783	359.5047	371.8063	392.8673	498.1143	558.1332	626.9227	676.3381	710.1617	791.7222	816.9294	885.1039	925.4552	934.5671	987.0115	1017.0826	1034.4615	1069.6821	1079.0023	1119.3842	1144.0345	1167.6767	1190.3987	1241.5174	1274.1564	1284.8091	1336.7478	1365.9921	1404.8563	1418.8264	1459.0239	1494.0077	1499.3941	1517.6579	1868.4433	3005.8348	3062.3835	3066.2476	3074.8022	3101.5654	3104.4801	3117.4767	3190.9305	3810.2581
OCC12CN1C(=O)CC2	OC[C@@]12CN1C(=O)CC2	
InChI=1S/C6H9NO2/c8-4-6-2-1-5(9)7(6)3-6/h8H,1-4H2	InChI=1S/C6H9NO2/c8-4-6-2-1-5(9)7(6)3-6/h8H,1-4H2/t6-,7?/m1/s1
