17
gdb 94668	3.72278	0.90807	0.79755	6.5674	65.95	-0.2616	0.0169	0.2785	1398.5556	0.134005	-496.08778	-496.078516	-496.077572	-496.123274	31.827	
O	 0.2189231594	 1.27854709	-0.1423249918	-0.423598
C	-0.0079572689	-0.089133236	 0.0985545921	 0.042617
C	-0.5138498022	-0.5028531456	 1.5007079506	-0.100573
O	-1.7371602784	-1.0322321639	 0.9412739857	-0.28983
C	-1.3962640523	-0.5645106187	-0.3844820518	 0.10771
C	-2.3462217111	 0.5211543231	-0.8624574005	-0.100176
O	-3.6402085912	-0.0412721104	-1.0977100669	-0.185719
C	-4.5137343422	-0.0411412815	-0.0669657056	 0.181745
O	-5.5929808472	-0.5446674327	-0.1456825544	-0.277385
H	 1.1142037018	 1.4998438725	 0.1307480361	 0.295907
H	 0.8173663067	-0.706745825	-0.273375394	 0.090557
H	 0.0577437818	-1.2729010491	 2.0304144018	 0.109703
H	-0.6926254925	 0.3508833748	 2.1663572689	 0.107897
H	-1.3955577789	-1.3922892209	-1.102794816	 0.098989
H	-2.4021490897	 1.3334365292	-0.130742909	 0.124896
H	-2.0088671063	 0.9381083984	-1.8140633657	 0.134195
H	-4.1239572087	 0.4801746759	 0.8256525106	 0.083065
57.4599	59.7762	85.7554	150.3574	181.8535	218.0487	289.0553	360.3055	409.8665	466.2505	515.3227	671.2482	760.6284	858.0627	899.296	909.7506	1016.2732	1027.3295	1042.0814	1060.2731	1071.2498	1105.1807	1148.904	1161.215	1181.5907	1213.2554	1275.0409	1296.7572	1312.3457	1330.6744	1367.1497	1408.2929	1433.2635	1440.2554	1485.9146	1513.2676	1867.3675	2981.0848	3019.2241	3033.4855	3049.3869	3060.1328	3076.4637	3119.9974	3830.7699
OC1COC1COC=O	O[C@H]1CO[C@H]1COC=O	
InChI=1S/C5H8O4/c6-3-8-2-5-4(7)1-9-5/h3-5,7H,1-2H2	InChI=1S/C5H8O4/c6-3-8-2-5-4(7)1-9-5/h3-5,7H,1-2H2/t4-,5-/m0/s1
