21
gdb 6940	4.76466	0.97579	0.9133	1.4935	76.81	-0.2399	0.0786	0.3185	1372.1621	0.186594	-366.232743	-366.22295	-366.222006	-366.267424	35.019	
C	 0.1317833288	 1.3410127224	-0.2151955591	-0.22334
O	 0.1737844399	-0.0608436434	-0.1177546394	-0.233461
C	 0.5050554751	-0.5097102237	 1.181008846	-0.063053
C	 0.5300160024	-2.0152903611	 1.1580459998	-0.063789
N	 1.8247486605	-2.6725392892	 0.8984058898	-0.365782
C	 1.1591016313	-2.8752117132	 2.200389582	 0.323904
C	 1.8863286552	-2.2840030557	 3.3933473175	-0.437911
C	 0.5201519723	-4.2237068444	 2.4744288108	-0.456202
H	 1.1069872674	 1.7980443709	 0.0175763488	 0.104013
H	-0.136963574	 1.5907761103	-1.2446735952	 0.125243
H	-0.6192200658	 1.7777679248	 0.4635582607	 0.099262
H	 1.4846115008	-0.1141556985	 1.4875847329	 0.094295
H	-0.245257201	-0.1508637023	 1.9086857365	 0.080103
H	-0.3475666479	-2.4325117534	 0.6652713078	 0.083353
H	 1.693826615	-3.4840601786	 0.2991678009	 0.224286
H	 2.4007664996	-1.3582399652	 3.1312870378	 0.127027
H	 1.1909824889	-2.0785924876	 4.2151666313	 0.112213
H	 2.6395408523	-2.9889975911	 3.7633256899	 0.116301
H	 1.2808751496	-4.9621635315	 2.7547387694	 0.119693
H	-0.1978565223	-4.1627111716	 3.3001177425	 0.121359
H	-0.0119697384	-4.6000104279	 1.5948059193	 0.112486
64.9731	89.7758	122.3244	182.8354	203.7374	235.9272	244.4214	290.1122	332.2778	373.3416	433.6119	488.4011	520.9518	700.2955	843.6455	876.4913	955.3614	971.2473	989.4033	993.0692	1018.4859	1080.3818	1086.4802	1137.1315	1157.2746	1160.0088	1183.524	1214.2935	1238.9167	1279.21	1313.2779	1346.7848	1396.7388	1411.7923	1423.878	1468.0139	1475.9126	1480.6641	1485.7059	1491.4164	1498.3962	1499.9922	1515.7887	1524.6548	2942.0867	2965.1693	3006.2425	3010.3221	3021.4163	3032.3305	3083.295	3089.1211	3098.2968	3111.0841	3115.9691	3135.6818	3493.2017
COCC1NC1(C)C	COC[C@H]1NC1(C)C	
InChI=1S/C6H13NO/c1-6(2)5(7-6)4-8-3/h5,7H,4H2,1-3H3	InChI=1S/C6H13NO/c1-6(2)5(7-6)4-8-3/h5,7H,4H2,1-3H3/t5-/m1/s1
