19
gdb 72331	2.64456	1.97091	1.60977	1.1798	80.19	-0.2311	0.0152	0.2463	919.0761	0.160904	-385.817485	-385.810499	-385.809555	-385.848159	30.11	
O	 0.2072539983	 1.3756378551	-0.106975891	-0.494303
C	 0.0811728139	-0.0284029311	-0.052890857	 0.484003
C	 0.5837418579	-0.5224818583	-1.4279945879	-0.370833
C	-0.7447126728	-0.6755105128	-2.1843605244	-0.047343
C	-1.8232206789	-0.7273923552	-1.3865508731	-0.239211
C	-1.3273217861	-0.6898143325	 0.0198139092	 0.286331
C	-1.4725511357	-0.1013484411	 1.4547768854	-0.346293
C	 0.0082561215	-0.680260493	 1.3698112999	-0.167901
C	-0.6318231785	-1.9196278646	 0.7102532786	-0.249108
H	-0.0252663334	 1.7478958321	 0.7479569165	 0.278981
H	 1.2473724835	 0.2150152056	-1.885830504	 0.117861
H	 1.1266588053	-1.4730417523	-1.3976964406	 0.114694
H	-0.7728603034	-0.7721323294	-3.2647971663	 0.093175
H	-2.8465243592	-0.8555712474	-1.718008863	 0.096739
H	-1.6141040374	 0.9773686008	 1.5500032844	 0.087938
H	-2.1366678031	-0.6294197571	 2.1436497365	 0.097671
H	 0.7526794048	-0.6652603776	 2.1700308573	 0.06868
H	-1.2793566949	-2.52129383	 1.3516017923	 0.092401
H	 0.0069960583	-2.5520307411	 0.0934728772	 0.096514
208.7565	249.8252	284.2616	347.8994	436.8365	442.0729	515.2603	543.8439	569.5588	628.5031	706.7421	748.9136	783.3811	829.6529	858.0528	896.4679	909.5671	935.3669	953.8374	958.1843	967.9434	994.3486	1045.1779	1050.7676	1095.1208	1107.5322	1115.4946	1128.8059	1163.0277	1194.4875	1202.0654	1208.4534	1245.9145	1264.2472	1299.9359	1361.2302	1374.0868	1470.1849	1511.8046	1548.1568	1621.6259	3052.4798	3059.037	3070.1605	3083.7744	3099.6343	3117.0826	3140.0382	3181.7464	3209.2517	3837.9281
OC12CC=CC11CC2C1	O[C@]12CC=C[C@@]31C[C@H]2C3	
InChI=1S/C8H10O/c9-8-3-1-2-7(8)4-6(8)5-7/h1-2,6,9H,3-5H2	InChI=1S/C8H10O/c9-8-3-1-2-7(8)4-6(8)5-7/h1-2,6,9H,3-5H2/t6-,7+,8-/m0/s1
