20
gdb 61261	3.75955	0.82766	0.72778	3.0337	79.09	-0.2568	0.0283	0.2852	1538.3733	0.170356	-403.145553	-403.13599	-403.135046	-403.180966	33.948	
C	 0.0171458887	 1.5001741235	-0.1528429164	-0.409779
C	 0.0106910992	-0.022598343	 0.0268027497	-0.002275
C	 0.7782209876	-0.4460895964	 1.30420747	-0.349498
C	 2.186804104	-0.0585965567	 1.2806956653	 0.265136
N	 3.2987577259	 0.2540493397	 1.241664816	-0.3101
C	-1.4123281416	-0.5750092067	 0.0791194669	-0.020052
C	-2.2506705093	-0.5185612739	-1.2193618473	-0.097207
O	-2.4662074061	-1.9429967913	-1.1984011026	-0.26816
C	-1.615736667	-2.1041899096	-0.048002602	-0.096782
H	 1.0379562866	 1.888194741	-0.2080012216	 0.146725
H	-0.5009366782	 1.7868343642	-1.0728035896	 0.126123
H	-0.4882043844	 1.9958551686	 0.6843917427	 0.118592
H	 0.5225661596	-0.4790093337	-0.8309467381	 0.099117
H	 0.3086577981	 0.0046922589	 2.1874997272	 0.149574
H	 0.7252122532	-1.5326634349	 1.4377334834	 0.153157
H	-1.9420588916	-0.150079067	 0.9382447725	 0.081066
H	-3.1918599887	 0.040932966	-1.1721938749	 0.107625
H	-1.6936271114	-0.2016792357	-2.1121269608	 0.101459
H	-0.7052308911	-2.6723931134	-0.2889807354	 0.098483
H	-2.1337623536	-2.6027003397	 0.7796971849	 0.106797
52.695	80.9514	102.3465	125.0355	189.0677	242.1608	294.3911	337.0585	398.054	403.3332	435.3453	558.9855	755.7059	848.0915	879.5589	891.8787	894.6851	954.4824	977.7061	995.0973	1016.4335	1048.6524	1083.5412	1123.8928	1129.8976	1162.3916	1168.0351	1199.215	1245.3115	1267.5504	1288.7746	1313.4303	1335.7281	1362.7062	1377.4896	1405.6477	1418.0107	1464.6681	1497.8773	1503.5096	1511.2014	1536.2594	2360.6403	2989.8978	3005.2235	3018.436	3032.7149	3035.9315	3042.216	3052.3891	3065.8813	3076.6469	3101.9638	3118.7086
CC(CC#N)C1COC1	C[C@@H](CC#N)C1COC1	
InChI=1S/C7H11NO/c1-6(2-3-8)7-4-9-5-7/h6-7H,2,4-5H2,1H3	InChI=1S/C7H11NO/c1-6(2-3-8)7-4-9-5-7/h6-7H,2,4-5H2,1H3/t6-/m0/s1
