20
gdb 126900	3.14548	1.01215	0.77792	2.696	83.66	-0.1846	0.0319	0.2166	1489.0036	0.172022	-399.348905	-399.339267	-399.338323	-399.384074	34.695	
C	 0.0387003529	 1.536851023	 0.118823817	-0.400276
C	 0.0063672303	 0.0184180613	-0.0194888726	-0.10603
N	 0.7554578289	-0.4077916463	-1.1945889008	-0.410574
C	 0.8119174599	-1.7874013164	-1.4529731636	 0.165026
C	 1.4295420393	-2.3896763705	-2.5404971135	 0.274263
C	 2.1393893259	-1.7954831165	-3.7097589403	-0.517108
N	 1.2698877215	-3.7297508301	-2.3478743796	-0.246434
N	 0.6178885733	-4.0446830094	-1.2190777381	-0.240146
C	 0.3283721284	-2.8641686182	-0.6704397645	-0.073523
H	 1.0690070768	 1.898491198	 0.1828595622	 0.128171
H	-0.4382642896	 2.0220507449	-0.7411561734	 0.11212
H	-0.4997310274	 1.8542121656	 1.0162721827	 0.119672
H	 0.4723183388	-0.4433473004	 0.8594891618	 0.114256
H	-1.0407549341	-0.332832983	-0.0385305545	 0.089172
H	 0.4804903354	 0.1223075775	-2.0125282311	 0.223081
H	 2.6014068147	-0.8466532781	-3.4193864625	 0.143645
H	 2.935500971	-2.4540799872	-4.0729022277	 0.127663
H	 1.47124778	-1.5921162173	-4.5570266117	 0.131415
H	 1.5967570183	-4.47025129	-2.9449865799	 0.265007
H	-0.2052058242	-2.8279604569	 0.26695621	 0.100599
58.0428	84.9771	109.5202	129.0464	234.2164	252.4184	258.1029	318.0055	344.196	472.0655	476.4064	606.3069	652.8499	681.034	710.091	797.3761	823.7288	854.583	929.4594	957.2757	999.1106	1059.1525	1076.2842	1134.1305	1149.2562	1159.0185	1209.1012	1270.7379	1292.3196	1310.4277	1374.9562	1394.909	1409.9585	1417.3058	1442.2127	1477.4809	1484.0468	1494.0527	1498.9346	1502.0948	1527.172	1547.1448	1639.3349	2941.3193	3014.4693	3031.7752	3043.9927	3071.2497	3099.9498	3104.4494	3121.1995	3251.4392	3540.4605	3669.6671
CCNC1=C(C)NN=C1	CCNc1c(C)[nH]nc1	
InChI=1S/C6H11N3/c1-3-7-6-4-8-9-5(6)2/h4,7H,3H2,1-2H3,(H,8,9)	InChI=1S/C6H11N3/c1-3-7-6-4-8-9-5(6)2/h4,7H,3H2,1-2H3,(H,8,9)
