17
gdb 67403	2.72916	1.57031	1.28404	2.2351	80.48	-0.2237	0.0179	0.2416	1040.3538	0.134356	-384.593767	-384.585769	-384.584825	-384.625993	31.26	
C	-0.1005034284	 1.5386786497	-0.0966277151	-0.528729
C	 0.0078310486	 0.0539012185	-0.0067019651	 0.207366
C	 0.6159581038	-1.0199357706	-0.8973762034	-0.213511
C	 1.3699051319	-1.6480572339	 0.2714603007	-0.238979
C	 0.2792425017	-0.988355064	 1.1529699822	 0.004079
O	-0.9273363824	-1.7270413662	 0.8169681684	-0.34127
C	-0.8794522102	-1.0752655009	-0.4577103834	 0.354626
C	-1.9785710039	-1.1119825206	-1.3508466193	 0.1517
C	-2.9063878172	-1.1247926246	-2.1170766003	-0.382115
H	 0.861511897	 2.0253936324	 0.0996385345	 0.125481
H	-0.4250454426	 1.8330066294	-1.1001268383	 0.136081
H	-0.8313015719	 1.9291459954	 0.6196380237	 0.133804
H	 0.8904392625	-0.9512035519	-1.9422427354	 0.101152
H	 1.4512238833	-2.7368506522	 0.3356876734	 0.107208
H	 2.346316753	-1.1762302794	 0.4107991624	 0.106005
H	 0.3917432796	-0.8056815178	 2.219319361	 0.090764
H	-3.7273531646	-1.1426913132	-2.790213786	 0.186339
112.2357	152.8467	195.5773	221.1617	272.1121	405.4515	470.8293	506.4304	551.5789	561.3587	580.2185	667.4703	694.9476	749.4589	779.105	833.7917	893.2498	919.6205	936.8106	947.9306	997.2538	1046.8083	1066.5983	1102.9698	1119.3319	1146.3396	1169.9056	1219.1071	1264.6164	1268.5852	1312.762	1409.8545	1459.9608	1482.084	1486.131	1495.1666	2234.5489	3026.7646	3053.437	3089.4375	3101.0216	3114.3378	3149.2914	3204.2202	3502.5581
CC12C3CC1OC23C#C	C[C@@]12[C@H]3C[C@@H]1O[C@@]23C#C	
InChI=1S/C8H8O/c1-3-8-5-4-6(9-8)7(5,8)2/h1,5-6H,4H2,2H3	InChI=1S/C8H8O/c1-3-8-5-4-6(9-8)7(5,8)2/h1,5-6H,4H2,2H3/t5-,6+,7-,8-/m1/s1
