22
gdb 22201	2.41716	0.7707	0.61862	1.1346	82.04	-0.2418	0.0129	0.2548	1854.1118	0.191591	-441.447955	-441.436801	-441.435856	-441.485078	39.61	
C	-0.0763399043	 1.6102706743	-0.1003988657	-0.388654
C	 0.0079981332	 0.0854348664	 0.0061427399	-0.157868
C	 0.6361085008	-0.549314877	-1.2364965191	-0.258051
C	 0.7627551151	-2.0525555786	-1.2266703472	 0.33296
C	 1.4629869826	-2.7160125806	-2.3873035525	-0.295727
C	 2.9266812791	-3.0686558285	-2.0581884355	-0.055011
O	 3.6036817723	-3.6315326348	-3.1687573508	-0.416386
N	 0.2851885946	-2.6807461821	-0.2211651563	-0.167332
O	 0.4726935834	-4.07352601	-0.3288914486	-0.40897
H	 0.9165049132	 2.0586231411	-0.220626453	 0.112263
H	-0.6826315627	 1.9181741192	-0.9599418432	 0.112192
H	-0.5290936657	 2.0442018454	 0.7963560152	 0.113
H	 0.5902790158	-0.1991166276	 0.8891060088	 0.10791
H	-0.9900404211	-0.3375687154	 0.1607752797	 0.110699
H	 0.061784976	-0.2665239902	-2.1319597027	 0.112923
H	 1.6389011211	-0.1276429037	-1.4062187785	 0.111648
H	 0.9311412551	-3.6378019093	-2.6463814719	 0.117294
H	 1.4517711605	-2.0567773197	-3.2606745619	 0.105115
H	 3.4821813535	-2.1601136731	-1.8026742194	 0.111045
H	 2.951435821	-3.7319713112	-1.1841016751	 0.112938
H	 3.2054989296	-4.4890320186	-3.3494304672	 0.283112
H	 0.0485984969	-4.3933137961	 0.473904155	 0.304899
54.5072	76.3716	89.6109	112.814	152.7412	186.7981	247.9669	292.3037	298.6697	307.2087	337.0841	364.2568	409.6806	475.6498	587.8232	670.1881	742.4236	786.6556	857.5316	880.0461	917.8328	986.7652	1008.7882	1039.3407	1051.8403	1069.5664	1116.3311	1122.749	1152.9993	1222.7106	1256.2633	1295.32	1313.8303	1321.5007	1328.1238	1393.5438	1395.7953	1411.1641	1415.2939	1417.006	1467.427	1481.2823	1487.7091	1501.2248	1508.3675	1512.7234	1728.9802	2992.3728	3012.5744	3022.6561	3027.7366	3044.631	3049.3805	3073.1902	3074.5883	3099.9571	3101.7034	3102.9401	3816.7478	3825.5762
CCCC(CCO)=NO	CCCC(=NO)CCO	
InChI=1S/C6H13NO2/c1-2-3-6(7-9)4-5-8/h8-9H,2-5H2,1H3	InChI=1S/C6H13NO2/c1-2-3-6(7-9)4-5-8/h8-9H,2-5H2,1H3
