19
gdb 70003	2.94366	1.7146	1.60597	0.4422	73.19	-0.2374	0.0797	0.3171	927.0689	0.161855	-423.005891	-422.999015	-422.998071	-423.036566	29.457	
O	-0.114815056	 1.3893663609	 0.1727816914	-0.472878
C	-0.0176398831	 0.0113178913	-0.0169285778	 0.398709
C	-0.4196782923	-0.6456509768	-1.3040348638	-0.366113
C	-1.2513882522	-0.855100204	-0.0410347545	-0.097324
C	-0.9347796157	-1.9974856841	 0.9532869554	-0.055411
C	 0.1685062479	-2.8970950722	 0.3844361124	-0.090942
O	 1.3154573154	-2.0218340819	 0.3252548948	-0.278058
C	 0.9148564751	-0.7837367377	 0.9356419062	 0.030789
C	-0.0883504708	-1.2326545976	 2.0098941834	-0.22897
H	 0.5917841815	 1.8098654035	-0.3297860608	 0.283389
H	-0.8776186082	 0.0103228512	-2.0379135626	 0.108689
H	 0.1934471921	-1.4362731587	-1.7174399861	 0.130015
H	-2.2378895035	-0.4072065629	-0.0153569789	 0.094599
H	-1.8094358789	-2.5384642696	 1.3146055245	 0.068171
H	 0.3862069029	-3.7470132392	 1.0440364634	 0.096094
H	-0.052476877	-3.2812143622	-0.6169389425	 0.101666
H	 1.8085443729	-0.2431544897	 1.2486158124	 0.071601
H	-0.6249780994	-0.395668353	 2.4614792446	 0.112088
H	 0.3506850195	-1.8673221772	 2.7856627685	 0.093886
205.9405	280.9959	317.4714	327.7808	386.9748	453.1024	480.3058	514.4891	578.0964	696.4504	754.1514	782.4705	841.37	888.7836	896.621	906.8806	925.6437	948.9477	961.3557	968.3521	1005.1643	1014.3396	1038.09	1069.1097	1088.293	1099.2554	1139.9043	1169.4009	1210.1074	1231.6229	1244.8049	1269.7946	1279.3045	1295.3605	1319.5255	1325.4913	1379.8201	1399.7832	1483.6266	1491.1259	1532.7095	3017.1393	3059.3955	3066.3122	3115.4712	3119.8367	3124.9977	3137.0498	3181.4989	3229.9056	3791.575
OC12CC1C1COC2C1	O[C@]12C[C@H]1[C@H]1CO[C@@H]2C1	
InChI=1S/C7H10O2/c8-7-2-5(7)4-1-6(7)9-3-4/h4-6,8H,1-3H2	InChI=1S/C7H10O2/c8-7-2-5(7)4-1-6(7)9-3-4/h4-6,8H,1-3H2/t4-,5+,6-,7-/m1/s1
