14
gdb 132909	3.07864	1.42784	0.98133	3.6243	70.43	-0.2319	-0.0694	0.1625	1107.684	0.099652	-477.992862	-477.985028	-477.984084	-478.025729	28.778	
C	-0.0333383916	 1.5002901252	 0.0118597896	-0.484348
C	-0.0046345552	 0.0024456894	-0.0269356768	 0.231966
N	-0.0260203194	-0.6137048826	-1.164961513	-0.312244
C	-0.0002782269	-1.9937210136	-1.2238385281	 0.426458
N	-0.0198844462	-2.6299708651	-2.3158083457	-0.515372
O	 0.0503621925	-2.7249166987	-0.0024807909	-0.226488
C	 0.0720360856	-2.071749341	 1.1693914497	-0.027056
C	 0.0467064062	-0.7324440836	 1.2138691949	 0.130964
F	 0.0677475129	-0.0663085476	 2.3728874946	-0.068064
H	 0.8527975601	 1.8868812008	 0.5271409684	 0.150369
H	-0.0707084663	 1.8915630557	-1.0042082962	 0.157592
H	-0.9027800341	 1.8518671473	 0.5781519264	 0.150383
H	 0.0051751984	-3.6341821146	-2.1443807729	 0.228535
H	 0.1105852941	-2.7208021016	 2.0359098802	 0.157304
60.4882	124.1941	206.371	266.4564	340.5005	366.095	372.7604	464.5695	529.3715	585.5499	632.7742	715.0162	763.0352	770.4384	799.8746	849.1285	910.038	975.831	1051.8938	1086.4313	1167.3513	1216.9659	1270.7881	1329.2127	1398.2212	1441.1345	1466.2781	1473.2213	1606.8182	1724.592	1746.2291	3042.174	3096.9217	3164.7318	3215.1059	3511.4957
CC1=NC(=N)OC=C1F	CC1=C(COC(=N1)[NH])F	
InChI=1S/C5H5FN2O/c1-3-4(6)2-9-5(7)8-3/h2,7H,1H3	InChI=1S/C5H6FN2O/c1-3-4(6)2-9-5(7)8-3/h7H,2H2,1H3
