17
gdb 126866	4.78087	0.95243	0.82336	3.7044	84.17	-0.2203	-0.0414	0.179	1390.2902	0.137613	-414.194492	-414.186081	-414.185137	-414.228958	30.303	
C	-0.0150193155	 1.613268122	 0.1696163369	-0.360275
C	-0.0503984029	 0.1180020422	-0.1554156332	-0.136106
N	-1.4264629806	-0.3447056027	-0.2288698467	-0.32351
C	-1.7886736015	-1.1189247304	-1.1784675438	 0.338913
C	-3.1902236359	-1.5571064735	-1.2217732096	 0.003272
N	-3.6927377287	-2.3396423422	-2.1126695939	-0.184412
N	-2.8070239171	-2.7583991006	-3.0661812771	-0.232187
C	-1.5027627531	-2.3807164427	-3.0753255147	 0.119278
N	-0.954314402	-1.6060622544	-2.20912361	-0.332384
H	 1.0168381877	 1.9565704061	 0.2965288875	 0.103617
H	-0.4719353314	 2.1964343085	-0.6362968659	 0.113211
H	-0.5688251626	 1.8213133824	 1.0896492415	 0.120069
H	 0.5161975885	-0.0929568435	-1.0703677105	 0.110589
H	 0.440991704	-0.4333251069	 0.6597779836	 0.10146
H	-3.8619484297	-1.2013975546	-0.447061933	 0.141623
H	-3.192858437	-3.3744013273	-3.7621311633	 0.280302
H	-0.9156172723	-2.7909043025	-3.8974801177	 0.13654
25.1741	79.2889	151.7447	188.8213	273.9548	346.9058	399.7278	452.0386	494.4237	565.5525	598.8681	683.5787	775.3178	794.1311	828.7553	917.3377	959.3359	970.1069	973.0833	1031.7361	1077.377	1111.0665	1147.365	1182.5343	1263.9892	1291.4597	1349.4193	1374.1015	1404.791	1412.799	1482.2991	1486.9598	1490.8177	1507.6539	1651.5397	1674.8906	1702.6967	2996.6386	3036.1354	3049.0386	3105.7124	3116.0014	3129.7988	3193.0681	3656.9175
CCN=C1C=NNC=N1	CC[N]C1=NCNN=C1	
InChI=1S/C5H8N4/c1-2-6-5-3-8-9-4-7-5/h3-4H,2H2,1H3,(H,6,7,9)	InChI=1S/C5H9N4/c1-2-6-5-3-8-9-4-7-5/h3,9H,2,4H2,1H3
