17
gdb 49047	2.03576	1.7311	1.31043	2.8951	73.91	-0.245	-0.0436	0.2015	1041.8169	0.134514	-421.827595	-421.819287	-421.818342	-421.861376	30.214	
O	-0.7894049228	 0.9302691171	-0.485015517	-0.245726
C	 0.1303521407	 1.0382351535	 0.2882901089	 0.048096
C	 1.3511052296	 1.8556713912	 0.0305556354	 0.148399
C	 1.6085342661	 3.1115935668	 0.9389267597	-0.292884
C	 1.8628879316	 3.9616947949	-0.3430852098	-0.217744
C	 1.6199573292	 2.7231283891	-1.246831896	-0.088355
C	 2.8911651577	 1.8887224342	-1.5655519237	-0.350686
C	 2.6841386664	 1.111188285	-0.2558211658	 0.343131
O	 3.2980127725	 0.2754454947	 0.3364839052	-0.28672
H	 0.1246725358	 0.5171874079	 1.2719707161	 0.088722
H	 0.7175150424	 3.4136078928	 1.4941833066	 0.125623
H	 2.4368566969	 3.0133065197	 1.6437898197	 0.124873
H	 1.1253874286	 4.7542405443	-0.4822416069	 0.118339
H	 2.8593773327	 4.4038810773	-0.4226110981	 0.108786
H	 0.8796542105	 2.8072836073	-2.0390617502	 0.098962
H	 2.7578320743	 1.2224352213	-2.4255562988	 0.146341
H	 3.8461363378	 2.4104976528	-1.6764605154	 0.130842
54.3415	76.5138	143.4278	188.8498	231.4397	336.6119	392.3464	503.16	575.9945	605.392	653.931	752.4481	771.8597	815.3084	872.4963	915.8376	949.789	963.9413	1013.015	1033.1874	1040.2009	1083.5616	1123.5287	1146.086	1180.9	1211.9287	1233.7863	1234.6242	1276.9217	1292.9362	1314.1207	1415.5191	1428.8431	1479.0826	1494.6465	1804.3949	1886.6182	2880.8919	3047.6034	3063.7635	3068.6946	3103.7076	3109.8581	3127.4047	3145.1417
O=CC12CCC1CC2=O	O=C[C@]12CC[C@H]1CC2=O	
InChI=1S/C7H8O2/c8-4-7-2-1-5(7)3-6(7)9/h4-5H,1-3H2	InChI=1S/C7H8O2/c8-4-7-2-1-5(7)3-6(7)9/h4-5H,1-3H2/t5-,7+/m0/s1
