20
gdb 114279	3.60664	1.15341	1.03617	3.6884	79.85	-0.2438	0.0223	0.2661	1244.5867	0.172191	-403.136757	-403.128507	-403.127563	-403.169781	31.607	
C	-0.1723708043	 1.6647343676	 0.2541398964	-0.384421
C	 0.273151867	 0.2435343757	-0.1041130412	-0.184502
C	 0.8161897805	-0.5154837216	 1.0881044474	 0.078989
O	-0.2520574029	-0.7151177625	 2.1284192683	-0.288816
C	-0.2600326273	-2.0386461294	 1.7975579219	 0.434451
N	-1.1310800079	-2.9481127964	 1.7196535247	-0.312458
C	-0.4906885469	-3.9229681493	 0.7822285958	-0.153536
C	 0.564904746	-3.1020944549	-0.0574593856	-0.268468
C	 0.994364994	-2.0717318056	 1.0000561927	-0.160585
H	 0.6631302625	 2.2575771891	 0.6421766603	 0.115937
H	-0.5712229093	 2.1821360714	-0.622949048	 0.117433
H	-0.9515898079	 1.6381303866	 1.0204511206	 0.144556
H	-0.5674924615	-0.3145424442	-0.5320650797	 0.115429
H	 1.0603897689	 0.268911561	-0.8687873034	 0.106608
H	 1.6593322756	 0.0015710955	 1.5538510797	 0.095084
H	-0.0108040452	-4.740950723	 1.3362424232	 0.10715
H	-1.2640902897	-4.3665598984	 0.1499909558	 0.114596
H	 1.380684253	-3.7161114037	-0.4458916172	 0.10421
H	 0.0599581744	-2.6261833422	-0.9040033075	 0.114515
H	 1.8761277511	-2.3890013759	 1.5630532058	 0.103828
84.6343	113.8968	161.2756	228.7316	267.0151	291.0027	435.9178	450.5557	511.6528	630.1688	679.7947	750.1207	765.2356	779.9866	838.4666	861.6145	902.8964	921.5086	969.7729	991.9193	1033.6707	1042.6147	1090.0089	1114.4127	1128.2138	1161.0268	1190.503	1205.0083	1230.3364	1279.4116	1287.638	1306.9799	1315.4457	1348.4279	1358.9859	1403.2253	1411.3839	1472.723	1482.0038	1497.9927	1503.9579	1508.5312	1769.5775	3020.3211	3027.5631	3039.1453	3055.1956	3063.2103	3072.1421	3085.8168	3093.7108	3107.7138	3114.6576	3125.1878
CCC1OC2=NCCC12	CC[C@H]1O[C]2[N]CC[C@@H]12	
InChI=1S/C7H11NO/c1-2-6-5-3-4-8-7(5)9-6/h5-6H,2-4H2,1H3	InChI=1S/C7H11NO/c1-2-6-5-3-4-8-7(5)9-6/h5-6H,2-4H2,1H3/t5-,6+/m0/s1
