20
gdb 22960	3.58733	0.77221	0.67332	0.9611	80.5	-0.2461	-0.0012	0.2449	1702.003	0.1687	-440.225735	-440.215821	-440.214877	-440.261345	35.415	
C	 0.0332319637	 1.5486382171	-0.0535771705	-0.383446
C	-0.0456912263	 0.032602764	 0.1417485063	-0.167543
C	-1.4072822812	-0.5487711594	-0.2560806095	-0.181861
C	-1.4882869475	-2.0494751944	-0.0218721317	 0.038956
O	-1.3944860984	-2.4170326107	 1.3883545735	-0.298842
C	-2.6822408893	-3.0765969173	 1.3791391658	-0.161385
C	-2.8472058619	-2.7093144076	-0.0730453925	 0.346371
N	-3.7006144243	-2.8293971651	-0.9947208897	-0.229105
O	-4.8377966608	-3.519376638	-0.5385052136	-0.390374
H	 1.0140488184	 1.93605763	 0.23886842	 0.113691
H	-0.1357074547	 1.8244448763	-1.10057736	 0.113498
H	-0.7217617744	 2.0651164408	 0.5494614164	 0.116003
H	 0.7420322625	-0.4570109351	-0.4461540317	 0.094505
H	 0.1500552337	-0.2205293175	 1.1898219033	 0.119565
H	-2.2069414659	-0.0579895126	 0.3121786387	 0.098691
H	-1.6105606613	-0.3602572379	-1.3184824528	 0.108634
H	-0.7157477264	-2.5724530952	-0.6046040231	 0.09588
H	-2.6107389045	-4.1515698524	 1.58866605	 0.12733
H	-3.400033869	-2.6229593318	 2.0740280737	 0.129067
H	-5.3939567924	-3.539894793	-1.3248548626	 0.310364
70.5285	80.0987	92.6148	130.6054	200.7563	230.5449	252.777	313.7061	328.5058	370.1792	471.3966	524.4243	593.0597	724.0246	752.8598	843.5234	888.5622	900.6581	935.7479	977.1089	1005.1453	1016.7263	1045.9536	1080.9194	1117.3629	1133.0016	1148.6746	1183.3634	1249.2998	1261.6604	1292.6933	1321.5848	1331.7392	1369.2536	1396.644	1412.3951	1417.0898	1472.0285	1493.7863	1499.5265	1500.467	1509.8239	1815.0559	2997.3531	3016.8177	3019.0644	3025.3415	3030.2466	3055.9991	3057.1827	3074.5962	3098.7826	3103.2044	3816.1685
CCCC1OCC1=NO	CCC[C@H]1OCC1=NO	
InChI=1S/C6H11NO2/c1-2-3-6-5(7-8)4-9-6/h6,8H,2-4H2,1H3	InChI=1S/C6H11NO2/c1-2-3-6-5(7-8)4-9-6/h6,8H,2-4H2,1H3/t6-/m1/s1
