15
gdb 23646	3.66283	1.76422	1.19956	1.4813	70.78	-0.238	-0.0067	0.2314	949.9891	0.119424	-370.705773	-370.698796	-370.697852	-370.737591	26.206	
C	-0.0119004864	 1.5219307574	 0.0137820418	-0.491871
C	-0.0063964778	 0.012918316	-0.0007234065	 0.341938
C	-0.0347331601	-0.698426667	-1.2031008286	-0.205238
C	-0.0081960649	-2.0913736339	-1.2091438523	-0.078576
C	 0.0451685689	-2.8048517506	-0.0157768262	-0.263559
C	 0.0704911819	-2.0881231856	 1.1726611348	 0.325482
F	 0.1182945245	-2.7552387291	 2.332943679	-0.085389
C	 0.0448083378	-0.7026321189	 1.1995463973	-0.340595
H	 0.9855943675	 1.9192429189	 0.2370026741	 0.136662
H	-0.3190309213	 1.928120045	-0.953384993	 0.125808
H	-0.6913060063	 1.9124141612	 0.7780011408	 0.131032
H	-0.0789729398	-0.1565117714	-2.142293809	 0.09113
H	-0.0324705206	-2.6277557497	-2.1518827934	 0.102603
H	 0.0638289803	-3.8876728781	 0.0091296321	 0.108875
H	 0.0636119563	-0.1941905141	 2.1575691191	 0.101699
43.2717	206.199	245.6615	293.3897	445.7553	454.9053	517.206	533.4256	577.7753	704.2091	740.7522	798.1805	878.5481	900.6013	944.6638	960.8019	1013.2328	1025.2339	1061.329	1102.6438	1170.9138	1183.9412	1300.3543	1301.9607	1344.3011	1412.9747	1462.5392	1487.893	1500.213	1523.9674	1632.5673	1652.0406	3031.139	3087.5903	3117.8124	3173.0754	3188.7853	3190.8003	3210.2235
CC1=CC=CC(F)=C1	Cc1cccc(F)c1	
InChI=1S/C7H7F/c1-6-3-2-4-7(8)5-6/h2-5H,1H3	InChI=1S/C7H7F/c1-6-3-2-4-7(8)5-6/h2-5H,1H3
