21
gdb 63926	3.05734	1.45177	1.27651	1.4309	83.35	-0.24	0.019	0.259	1097.8553	0.182607	-387.100781	-387.092404	-387.09146	-387.133238	33.378	
C	-0.7231557408	 1.5582105403	 0.1545592969	-0.432243
C	-0.1392681118	 0.1576676754	 0.0737231745	 0.41814
C	-1.184279847	-0.8726268714	-0.344276038	-0.424334
O	 0.997804712	 0.1216789236	-0.8429754065	-0.341141
C	 1.8386442452	-0.5428232061	 0.1234011809	 0.125449
C	 3.0856551915	 0.2720343622	 0.5055527735	-0.278579
C	 2.6332639533	 1.0374352369	 1.7283594656	-0.062668
C	 1.4053295297	 0.6986886367	 2.1266303455	-0.087793
C	 0.7816415832	-0.3407634635	 1.239287108	-0.164164
H	 0.0380722891	 2.282329835	 0.4521282844	 0.12309
H	-1.1143468826	 1.8523561852	-0.825074618	 0.120384
H	-1.5478782653	 1.5974532652	 0.8746169501	 0.109492
H	-1.5962567837	-0.6171012481	-1.3257426758	 0.120963
H	-0.7450201941	-1.8725633766	-0.4099019971	 0.115174
H	-2.0085900615	-0.9063660082	 0.376754935	 0.11071
H	 2.0673994085	-1.5682644568	-0.1868858032	 0.068865
H	 3.951021513	-0.368011312	 0.7238440735	 0.100904
H	 3.3741270718	 0.9261527561	-0.3260389265	 0.120428
H	 3.262321854	 1.7726479128	 2.2193017753	 0.093877
H	 0.8928187512	 1.1209636499	 2.9842277937	 0.093444
H	 0.4002383843	-1.2130889966	 1.7770459582	 0.070002
95.8916	184.1292	209.4801	237.7542	291.5332	315.4733	343.3523	403.3502	440.7207	522.2733	595.8845	725.0501	756.6685	790.6252	838.3415	853.8776	896.1602	915.2242	935.6629	953.2999	971.8401	976.6675	1000.3076	1018.5989	1044.5216	1056.8019	1130.0216	1167.399	1180.6998	1189.4197	1231.6794	1251.2127	1281.4431	1308.4092	1330.4449	1342.7828	1388.4532	1399.4692	1411.6744	1467.4323	1474.4619	1480.6946	1493.948	1503.5853	1674.0977	3015.5266	3029.8583	3036.6664	3041.0243	3060.4959	3069.3069	3098.354	3104.9948	3110.0921	3128.7084	3177.127	3202.1173
CC1(C)OC2CC=CC12	CC1(C)O[C@H]2CC=C[C@@H]12	
InChI=1S/C8H12O/c1-8(2)6-4-3-5-7(6)9-8/h3-4,6-7H,5H2,1-2H3	InChI=1S/C8H12O/c1-8(2)6-4-3-5-7(6)9-8/h3-4,6-7H,5H2,1-2H3/t6-,7+/m1/s1
