19
gdb 17139	5.39813	1.15234	1.09556	1.4664	72.91	-0.2216	0.084	0.3057	1137.3818	0.165623	-365.014178	-365.006244	-365.0053	-365.046754	30.122	
O	 0.0398075326	 1.465870934	 0.026412997	-0.438018
C	 0.0820287001	 0.0587333447	 0.0245631428	 0.144115
C	 0.1724816459	-0.6005085785	 1.4261465599	-0.201224
N	-1.2983777565	-0.7701214963	 1.3914487474	-0.086654
C	-1.2976453335	-0.642634451	-0.0840668926	-0.201224
C	-1.8847953342	-1.919941854	 1.9943738627	 0.061688
C	-2.2922146628	-1.8343361223	 3.4421133221	-0.275156
C	-3.344935229	-1.8645007815	 2.3606881869	-0.275155
H	-0.6281586766	 1.7311150557	 0.6692490908	 0.286716
H	 0.8402975949	-0.2249519796	-0.7056654619	 0.091423
H	 0.723006231	-1.5551016613	 1.4058717385	 0.085312
H	 0.5563235476	 0.0191756758	 2.2437160018	 0.101001
H	-2.1213921092	-0.0575531945	-0.5070139019	 0.101001
H	-1.2357580805	-1.6112292166	-0.6063029441	 0.085312
H	-1.5044490453	-2.8893883336	 1.6511647178	 0.064688
H	-2.1610579245	-2.7122108404	 4.0645409154	 0.111594
H	-2.1199788068	-0.8887106936	 3.9426891676	 0.116494
H	-3.8667877432	-0.9387637457	 2.1482506061	 0.116494
H	-3.9388422599	-2.7631515213	 2.2382810535	 0.111594
78.7371	93.481	170.406	242.0763	342.83	372.0069	418.894	438.5562	475.7084	648.6268	782.0236	830.8242	842.7332	856.2143	893.5331	933.5383	952.4361	997.1725	1018.8099	1054.9098	1073.9934	1081.3242	1099.1628	1122.747	1131.8807	1141.5726	1173.7989	1195.7612	1219.599	1249.1404	1275.1218	1277.401	1318.556	1334.6816	1404.2218	1442.0062	1456.8616	1493.2421	1497.1537	1521.1211	2967.6786	2976.8279	3021.2978	3063.9458	3064.6435	3115.5953	3138.529	3143.3331	3222.4283	3236.1518	3796.6247
OC1CN(C1)C1CC1	O[C@H]1CN(C1)C1CC1	
InChI=1S/C6H11NO/c8-6-3-7(4-6)5-1-2-5/h5-6,8H,1-4H2	InChI=1S/C6H11NO/c8-6-3-7(4-6)5-1-2-5/h5-6,8H,1-4H2
