17
gdb 91724	2.65633	1.7041	1.52968	4.2578	67.27	-0.25	0.002	0.252	945.5791	0.137665	-459.00544	-458.998333	-458.997389	-459.036856	28.156	
C	-0.1418646561	 1.5484097336	-0.0190013175	-0.411173
C	 0.0328004997	 0.0406847853	 0.0276786275	 0.13615
O	 0.8197029589	-0.4164541154	-1.103169911	-0.298055
C	 1.8884886454	-1.2177535861	-0.562867981	-0.04218
C	 1.2505874374	-1.8980666184	 0.6506747233	-0.260662
C	 0.8384196267	-0.5248796481	 1.2107368693	 0.055855
O	 2.1013076086	 0.1880825137	 1.2516092884	-0.246751
C	 2.8188693456	-0.2242228208	 0.1489772222	 0.462327
O	 3.9035474586	 0.1892700394	-0.1227602854	-0.34218
H	 0.8163301213	 2.059276848	 0.0934026069	 0.146853
H	-0.5842127843	 1.838468559	-0.975545745	 0.13362
H	-0.8122151412	 1.8776294118	 0.781952984	 0.116722
H	-0.9490744073	-0.4518604362	-0.0093668056	 0.086231
H	 2.3490754258	-1.8030738276	-1.3536381463	 0.110673
H	 0.4107355679	-2.5443349291	 0.3906338621	 0.122381
H	 1.9592700739	-2.4217102472	 1.2953050826	 0.127776
H	 0.372347289	-0.469625212	 2.1921431157	 0.102414
121.8176	203.7751	236.6616	274.2912	405.2356	436.8843	480.3041	528.4879	591.8001	739.2721	755.4666	794.9282	834.8698	867.2106	886.067	941.3588	958.9901	962.5977	998.337	1014.4082	1064.4906	1080.3025	1132.2269	1147.6889	1163.6108	1212.961	1279.0649	1283.0393	1301.7793	1333.2561	1356.4166	1387.0325	1413.3418	1484.8722	1490.3284	1494.7728	1906.9599	3005.4056	3047.2822	3081.9606	3116.8828	3142.1707	3144.7496	3151.1315	3173.3396
CC1OC2CC1OC2=O	C[C@H]1O[C@@H]2C[C@H]1OC2=O	
InChI=1S/C6H8O3/c1-3-4-2-5(8-3)6(7)9-4/h3-5H,2H2,1H3	InChI=1S/C6H8O3/c1-3-4-2-5(8-3)6(7)9-4/h3-5H,2H2,1H3/t3-,4-,5-/m1/s1
