20
gdb 77427	1.9399	1.6936	1.64252	1.6168	79.49	-0.211	0.0573	0.2683	1048.5293	0.167532	-403.05473	-403.045424	-403.04448	-403.088031	35.338	
C	-0.1492783809	 1.5369809972	-0.0521324938	-0.304072
N	 0.1968468238	 0.1185059518	 0.0680054017	-0.145599
C	 1.4132613653	-0.5582137045	-0.2810754066	 0.230349
C	 1.4659880284	-1.5970774435	-1.3619169591	-0.493884
C	 2.7106375159	 0.1769602738	 0.258084889	-0.046578
O	 2.3411739602	 1.3980966125	 0.9075510861	-0.23613
C	 2.1859454928	 0.1643863507	 1.6170481642	-0.046583
C	 0.8676492048	-0.5716108011	 1.132524351	 0.230322
C	 0.1872653369	-1.6285204728	 1.9512206105	-0.493899
H	 0.5258135077	 2.060895277	-0.7325674357	 0.124129
H	-1.170426419	 1.6130092172	-0.4455961458	 0.103391
H	-0.1097714635	 2.0452574872	 0.9139491971	 0.124113
H	 1.6051561275	-1.1335369758	-2.3464599809	 0.123236
H	 2.2985560851	-2.291947264	-1.2032490348	 0.116876
H	 0.5346096486	-2.1684484498	-1.3872143243	 0.131439
H	 3.7240247258	 0.0836353058	-0.1150530223	 0.105661
H	 2.6862736141	 0.0587549614	 2.5727739368	 0.10566
H	-0.3740117469	-1.1822106726	 2.7814843799	 0.123237
H	-0.5159682369	-2.1943069429	 1.3348442516	 0.131449
H	 0.9150045201	-2.3259454074	 2.3815504053	 0.116883
128.5338	164.6128	183.234	188.1744	214.088	250.0838	264.9884	284.969	316.6918	422.473	569.2902	596.2461	608.6744	688.214	753.8921	773.093	845.8576	849.9743	852.422	871.3708	964.5805	1027.331	1061.612	1096.903	1113.1792	1129.4102	1152.5586	1172.2236	1176.2948	1193.8904	1250.1139	1273.6302	1365.6683	1403.424	1406.8963	1442.0148	1469.3658	1480.4336	1483.6518	1489.8109	1493.0578	1507.1418	1515.95	3018.7261	3022.0029	3023.8958	3079.2632	3080.1526	3088.96	3116.7301	3119.1207	3125.8547	3175.6109	3191.626
CN1C2(C)C3OC3C12C	CN1[C@@]2(C)[C@H]3O[C@H]3[C@@]12C	
InChI=1S/C7H11NO/c1-6-4-5(9-4)7(6,2)8(6)3/h4-5H,1-3H3	InChI=1S/C7H11NO/c1-6-4-5(9-4)7(6,2)8(6)3/h4-5H,1-3H3/t4-,5+,6-,7+,8?
