20
gdb 82493	2.626	1.77508	1.43351	1.1633	77.87	-0.2253	0.0627	0.288	995.3079	0.172612	-403.098169	-403.090563	-403.089619	-403.129675	31.27	
C	-0.0681780495	 1.4960850681	 0.1152282734	-0.512862
C	-0.0340062474	-0.0103126619	 0.0232442223	 0.315394
C	 0.3623465345	-0.7894535456	-1.250077291	-0.196669
N	-0.4218837594	-1.9517555798	-0.7102789261	-0.166867
C	 0.0688653645	-2.151639125	 0.7446305784	-0.068823
C	 0.7740397879	-0.8210121723	 1.0630482033	-0.257084
C	-1.3934409114	-1.8505514513	 1.183340201	 0.138837
O	-1.6736523432	-1.2681322844	 2.4291971386	-0.437331
C	-1.332575802	-0.9264743563	-0.0204372478	-0.068451
H	 0.9396303765	 1.9186242129	 0.0265039365	 0.115936
H	-0.6816260447	 1.9316425107	-0.6812050406	 0.11269
H	-0.4823601044	 1.823048119	 1.0748961461	 0.127302
H	-0.1314532408	-0.4369841655	-2.1613111064	 0.101067
H	 1.4241581709	-0.9703381163	-1.4514861601	 0.09246
H	 0.5677092132	-3.0954273185	 0.9633220234	 0.065543
H	 1.847513257	-0.8175349658	 0.8544688837	 0.088144
H	 0.6029804743	-0.5088633024	 2.0952482062	 0.10794
H	-2.0483099538	-2.701663794	 0.9612115826	 0.084892
H	-1.738321282	-1.9681097204	 3.0862898574	 0.287271
H	-2.2075638504	-0.5629873315	-0.5618387409	 0.070612
154.642	211.3403	260.6751	267.4811	297.96	332.6056	481.4094	484.1453	556.6588	602.9195	712.8624	717.0449	767.6581	830.0061	848.0631	876.8389	902.4848	955.3065	969.0395	984.6715	1001.7282	1011.2367	1037.0943	1080.9373	1117.3872	1143.8679	1152.7602	1179.4681	1191.7921	1212.3037	1236.0028	1247.7248	1258.9799	1275.6694	1291.2429	1318.9021	1364.0197	1411.4081	1440.3058	1489.0458	1493.7382	1495.1615	1514.7822	3023.4463	3032.5331	3037.9369	3060.8625	3086.2303	3090.4682	3095.8344	3104.0778	3116.4411	3119.6227	3820.9009
CC12CN3C(C1)C(O)C23	C[C@@]12CN3[C@@H](C1)[C@@H](O)[C@@H]23	
InChI=1S/C7H11NO/c1-7-2-4-5(9)6(7)8(4)3-7/h4-6,9H,2-3H2,1H3	InChI=1S/C7H11NO/c1-7-2-4-5(9)6(7)8(4)3-7/h4-6,9H,2-3H2,1H3/t4-,5+,6-,7-/m0/s1
