15
gdb 22090	2.84528	1.0462	0.7692	9.3769	74.2	-0.2271	-0.0536	0.1735	1378.6905	0.111963	-450.091038	-450.08178	-450.080835	-450.126409	32.418	
N	 0.5867163511	 1.0644632147	 0.7572948367	-0.537058
C	 0.2165351505	 0.0420906658	-0.0756892339	 0.409978
N	 0.9809714239	-0.8990188277	-0.4912303117	-0.544074
H	-0.0257111945	-1.81507677	-1.6672451259	 0.309903
H	 1.9274331629	-0.8437901516	-0.1176962908	 0.21747
C	-1.2353614285	 0.1308268993	-0.514803366	-0.357253
C	-1.7342724493	-0.8226918105	-1.5770288431	 0.100576
N	-0.9905688177	-1.7945804756	-2.0764299017	 0.072898
O	-1.3236508854	-2.6278311137	-2.9447989394	-0.441076
C	-3.0659183552	-0.6668860229	-2.0346736794	 0.256957
N	-4.1638177706	-0.4677305419	-2.3509583925	-0.334633
H	 1.4590328219	 0.9936115153	 1.2558497218	 0.262087
H	-0.1185793	 1.6382127271	 1.1892249726	 0.268489
H	-1.8563491889	 0.0155821894	 0.3862282869	 0.156496
H	-1.4176551903	 1.1589790523	-0.8546457037	 0.15924
27.8124	66.2292	139.6303	209.8844	227.7224	305.476	314.6351	350.7235	384.6465	423.2056	471.3664	533.7077	600.8632	617.918	739.0195	839.0496	842.9604	896.0644	963.399	1093.1875	1102.0098	1147.3728	1211.2534	1242.4734	1324.2633	1394.1705	1448.7677	1465.944	1522.5232	1645.8024	1666.1317	1726.2728	2323.3164	3002.6162	3036.3621	3047.7057	3483.2815	3596.1351	3712.3484
NC(=[NH2+])CC(=N[O-])C#N	NC(=N)C[C](N[O])C#N	
InChI=1S/C4H6N4O/c5-2-3(8-9)1-4(6)7/h9H,1H2,(H3,6,7)	InChI=1S/C4H6N4O/c5-2-3(8-9)1-4(6)7/h8H,1H2,(H3,6,7)
