23
gdb 110882	2.60404	1.22771	1.09413	1.0275	85.38	-0.2368	0.0789	0.3157	1277.0825	0.206401	-388.282473	-388.273292	-388.272348	-388.316473	35.203	
C	 0.0988982165	 1.0986785481	-0.3604168397	-0.23412
O	-0.1036696608	-0.0298246875	 0.4665657508	-0.230072
C	-1.3412097308	-0.6328124042	 0.2594904133	 0.12142
C	-1.5087165545	-1.7210592349	-0.7786968534	-0.105987
C	-0.2356084498	-2.3352889698	-1.3628825681	-0.237805
C	 0.2219649769	-3.4008807349	-0.334455005	 0.071382
C	 1.7116748399	-3.7334868547	-0.3844897076	-0.406542
C	-0.2685006981	-2.8578450247	 1.0314968274	-0.23729
C	-1.5254177352	-2.0462117404	 0.7165382355	-0.112464
H	 1.0912210129	 1.4940228438	-0.130714429	 0.125318
H	 0.0504660552	 0.8377847562	-1.426998647	 0.111212
H	-0.6504371697	 1.8802645412	-0.16221621	 0.106029
H	-2.18461484	 0.047259593	 0.3971804488	 0.074428
H	-2.419361304	-1.7336320297	-1.3679515942	 0.077952
H	-0.4206683539	-2.773058827	-2.3480930059	 0.091521
H	 0.5481636018	-1.5787127414	-1.4885977243	 0.099973
H	-0.3492930874	-4.3161284535	-0.5431196299	 0.06683
H	 2.3158755084	-2.8418952279	-0.1800009206	 0.116382
H	 1.9762678733	-4.4927040075	 0.3595479643	 0.109224
H	 2.0047523505	-4.1178323888	-1.3676853096	 0.107586
H	-0.4846297016	-3.6665967029	 1.7355154209	 0.090546
H	 0.4991323853	-2.2237626655	 1.4882154226	 0.112857
H	-2.4493636452	-2.291697727	 1.2284975008	 0.081621
61.8165	115.0106	165.2669	195.2398	234.6153	259.3498	293.8673	326.9554	410.8296	534.6048	554.2881	584.2411	693.2673	761.9449	799.3269	825.9333	879.3471	905.4862	927.2279	933.2065	997.0844	1030.633	1039.699	1052.762	1100.5559	1108.7552	1116.1593	1136.5635	1160.9619	1183.3917	1195.418	1203.2879	1255.8175	1265.3454	1288.7488	1303.0823	1329.4947	1354.6892	1356.0458	1375.3427	1407.8171	1426.0366	1481.1183	1483.0903	1485.9411	1494.3352	1497.3168	1501.8513	1509.992	2982.8919	3002.1053	3023.3243	3032.9975	3036.613	3045.8452	3073.9114	3082.739	3086.9559	3091.7945	3094.1086	3117.3033	3157.6816	3168.349
COC1C2CC(C)CC12	CO[C@H]1[C@H]2C[C@@H](C)C[C@@H]12	
InChI=1S/C8H14O/c1-5-3-6-7(4-5)8(6)9-2/h5-8H,3-4H2,1-2H3	InChI=1S/C8H14O/c1-5-3-6-7(4-5)8(6)9-2/h5-8H,3-4H2,1-2H3/t5-,6+,7-,8+
