19
gdb 63146	2.34394	2.01812	1.58225	0.5376	69.21	-0.2395	0.0789	0.3184	931.6338	0.160545	-460.160238	-460.152626	-460.151682	-460.191666	31.083	
C	-0.0774984652	 1.5689002499	 0.0504158099	-0.460734
C	 0.0263089991	 0.0543417063	-0.0046442282	 0.437487
O	-1.2719050255	-0.4617128865	-0.2159288708	-0.505974
C	 1.0649070194	-0.564424666	-0.9714425299	 0.001356
C	 2.3873212961	-0.0939049555	-0.369412491	-0.098895
O	 2.1137016252	-0.0813573707	 1.0518586273	-0.280493
C	 0.7855491525	-0.5973083572	 1.1903072929	 0.026349
C	 0.8029770772	-2.0658543145	 0.75388939	-0.11502
O	 0.9131031165	-1.9701428895	-0.6950834046	-0.30548
H	 0.8429332467	 2.023707788	 0.4194561232	 0.136677
H	-0.3115631982	 1.9761377896	-0.9379561933	 0.12014
H	-0.8942387321	 1.8446289153	 0.7236571236	 0.131872
H	-1.1640051253	-1.3254179797	-0.634026405	 0.291098
H	 0.9278454266	-0.3996163014	-2.039972357	 0.088465
H	 3.1995067611	-0.7944110054	-0.5931221848	 0.113315
H	 2.6786367284	 0.9102107195	-0.6995248799	 0.107016
H	 0.4217070716	-0.3956036113	 2.1968530586	 0.08778
H	 1.6694551994	-2.594665385	 1.1621005368	 0.116281
H	-0.1125582533	-2.608126426	 1.0127898922	 0.108761
184.2748	231.8466	238.8037	249.1881	341.8424	364.2415	439.4808	444.9327	508.5664	553.7398	626.5161	670.4453	749.9327	852.6318	864.7425	901.7088	918.5437	960.1119	965.435	991.394	1000.7486	1049.87	1075.6003	1093.1139	1111.9203	1167.2984	1196.6839	1201.0442	1219.1285	1237.7085	1289.5115	1298.366	1318.4557	1366.2104	1372.8662	1398.4121	1423.091	1487.7982	1497.4896	1511.2966	1520.4245	3027.3126	3041.1395	3048.6154	3070.8054	3091.5214	3112.1888	3129.3228	3137.9158	3144.5037	3772.5241
CC1(O)C2COC1CO2	C[C@@]1(O)[C@H]2CO[C@@H]1CO2	
InChI=1S/C6H10O3/c1-6(7)4-2-8-5(6)3-9-4/h4-5,7H,2-3H2,1H3	InChI=1S/C6H10O3/c1-6(7)4-2-8-5(6)3-9-4/h4-5,7H,2-3H2,1H3/t4-,5-/m1/s1
