19
gdb 47054	3.49877	1.35232	1.07756	3.9805	76.37	-0.2227	0.0363	0.259	1126.5631	0.162961	-419.230299	-419.222733	-419.221789	-419.262419	30.06	
O	 0.0027098345	-0.0806646456	-0.3000610122	-0.377344
C	-0.0038843223	 1.1257261065	-0.143857408	 0.413283
C	-1.2995120885	 1.9342988847	-0.1158778372	-0.284668
N	-1.1487671897	 3.1687101928	 0.6465840568	-0.305332
C	-0.1371105672	 4.0407010633	 0.073627282	 0.000743
C	 0.4276395322	 5.0197515704	 1.1371488033	-0.236449
C	 1.5021784092	 3.9559836881	 1.4983432299	-0.23498
C	 1.2188939545	 3.2936986269	 0.1165582745	 0.072734
N	 1.1412757292	 1.859353738	-0.0171637466	-0.32113
H	-1.6023940932	 2.0931000936	-1.1687120367	 0.104202
H	-2.0573567859	 1.2983398369	 0.3461652837	 0.133429
H	-2.0362263645	 3.6532264945	 0.7247778178	 0.224256
H	-0.4201798898	 4.4624474765	-0.9049605663	 0.053905
H	 0.8602616808	 5.9120685396	 0.6772593632	 0.102811
H	-0.2651045175	 5.3211009993	 1.9247891207	 0.105595
H	 2.5200271629	 4.3014480693	 1.6900046299	 0.09685
H	 1.1715353918	 3.3100186793	 2.3125314823	 0.122818
H	 1.8973883246	 3.70105741	-0.6414221404	 0.085702
H	 1.992995359	 1.3162478359	-0.0388557267	 0.243576
86.4888	135.9003	231.6276	324.8742	391.3176	417.2974	440.6091	496.3312	554.9568	644.4682	645.7787	722.129	745.9415	809.0537	840.0322	886.0748	936.0341	960.6164	980.8053	1015.7609	1033.0092	1081.272	1100.7053	1140.5244	1179.4913	1204.4551	1238.7769	1255.5503	1263.7783	1272.1257	1287.9764	1328.9598	1336.2863	1395.9133	1400.171	1466.5636	1471.6018	1473.8571	1488.7638	1494.5547	1796.5931	2922.8582	2950.8727	3036.6197	3067.1074	3078.1227	3109.3867	3121.9279	3143.9955	3524.7504	3599.0034
O=C1CNC2CCC2N1	O=C1CN[C@H]2CC[C@H]2N1	
InChI=1S/C6H10N2O/c9-6-3-7-4-1-2-5(4)8-6/h4-5,7H,1-3H2,(H,8,9)	InChI=1S/C6H10N2O/c9-6-3-7-4-1-2-5(4)8-6/h4-5,7H,1-3H2,(H,8,9)/t4-,5+/m0/s1
