15
gdb 24383	3.78094	1.64846	1.15787	5.4527	72.39	-0.1893	0.0131	0.2024	979.996	0.117395	-413.028794	-413.02207	-413.021125	-413.059924	26.35	
C	 0.0010551215	 1.4905185085	-0.0732822319	-0.27389
N	 1.3434802659	 2.0474852301	 0.1652595345	-0.237515
C	 2.3594837989	 1.3016286578	 0.2971336983	 0.072748
N	 2.4250085989	-0.1000797534	 0.1964023719	-0.438517
C	 1.1660165755	-0.6938598002	 0.1371345562	 0.359111
C	-0.0018054421	-0.0059130885	-0.0039862982	 0.226078
N	-1.058510494	-0.8857549968	-0.0974245747	-0.320936
C	-0.5267701635	-2.0809559479	-0.01485562	-0.011343
N	 0.844214855	-2.0271318111	 0.1235783899	-0.368744
H	-0.6838081911	 1.9360369711	 0.6609010789	 0.121437
H	-0.3475137668	 1.8541734159	-1.0513952512	 0.119524
H	 3.3325152068	 1.7556338474	 0.4859727534	 0.113072
H	 3.1509556404	-0.5438366799	 0.7419944674	 0.245677
H	-1.0563916931	-3.0207581535	-0.0385626754	 0.129526
H	 1.4740619676	-2.8089323894	 0.1853401008	 0.263774
93.8382	236.2332	302.6644	402.4767	421.577	448.7579	512.3974	538.9951	628.0471	662.5442	701.8393	760.2796	767.208	891.943	929.6007	940.675	961.3373	1035.0161	1076.0343	1096.0461	1178.6483	1236.4033	1265.2102	1267.5704	1353.3623	1381.2576	1408.8188	1434.9542	1494.7917	1504.7056	1552.6566	1662.4599	1743.398	2989.9421	3015.4998	3129.348	3259.4506	3577.5776	3666.9737
C1N=CNC2=C1N=CN2	C1N=CNc2c1nc[nH]2	
InChI=1S/C5H6N4/c1-4-5(8-2-6-1)9-3-7-4/h2-3H,1H2,(H,6,8)(H,7,9)	InChI=1S/C5H6N4/c1-4-5(8-2-6-1)9-3-7-4/h2-3H,1H2,(H,6,8)(H,7,9)
