16
gdb 52388	3.08655	0.78175	0.69599	3.6546	67.24	-0.252	-0.0981	0.1539	1578.303	0.121329	-475.063544	-475.05368	-475.052736	-475.100453	32.677	
O	 0.7477494305	 0.6304373664	-1.3787454247	-0.324306
C	 0.3695544531	 1.4361813562	-0.5528711781	 0.150887
N	 1.0812953008	 1.7988418956	 0.5446670864	-0.272099
C	 2.380900588	 1.2150141527	 0.8441218214	-0.169661
C	 3.4832106786	 1.7283888496	-0.0873348082	-0.304035
C	 4.8334149525	 1.1462759769	 0.2389197585	 0.289295
O	 5.0443789803	 0.3332360694	 1.1105640233	-0.280107
C	 6.0278311646	 1.6335410947	-0.5952792922	 0.095901
O	 5.945147516	 2.4858479477	-1.4389250597	-0.214711
H	-0.6053197686	 1.958896735	-0.6140714909	 0.080441
H	 0.6927790091	 2.4877896527	 1.1672329033	 0.253061
H	 2.6254006534	 1.4356070108	 1.8854971771	 0.122594
H	 2.3087781508	 0.1283129387	 0.7495207986	 0.150606
H	 3.2384054007	 1.4771384941	-1.126707049	 0.175334
H	 3.5615149045	 2.8227004444	-0.0668473249	 0.137056
H	 6.9761031757	 1.1227136151	-0.3247227311	 0.109744
32.3122	58.7878	83.3688	118.7156	133.0859	205.916	237.0919	275.5006	388.1256	462.5158	498.2397	514.7656	632.5857	713.19	795.3563	847.0345	947.6031	984.3474	1032.537	1058.0641	1091.3476	1155.7873	1198.1762	1235.0412	1327.3698	1338.54	1363.6358	1412.4756	1427.0545	1440.1442	1472.436	1523.8361	1797.493	1799.6435	1826.4638	2924.7342	2941.782	3042.8429	3073.5076	3074.3021	3123.0963	3648.2607
O=CNCCC(=O)C=O	O=CNCCC(=O)C=O	
InChI=1S/C5H7NO3/c7-3-5(9)1-2-6-4-8/h3-4H,1-2H2,(H,6,8)	InChI=1S/C5H7NO3/c7-3-5(9)1-2-6-4-8/h3-4H,1-2H2,(H,6,8)
