21
gdb 48840	2.71351	1.33544	1.10715	3.0869	83.15	-0.2448	-0.0126	0.2322	1183.0979	0.184507	-387.115436	-387.107253	-387.106309	-387.148111	32.278	
O	-0.1266508907	 0.0433613975	 0.2607544981	-0.275401
C	 0.0083941904	 1.1946557129	-0.0759639265	 0.110022
C	 1.2725401586	 1.9653215518	 0.0021276558	 0.242518
C	 1.0966554198	 3.4632081241	 0.2109887896	-0.32992
C	 1.4780403782	 2.9715096	-1.1463171252	-0.05857
C	 2.8826869789	 3.1962301211	-1.7102357511	-0.224845
C	 3.9026656058	 2.130280916	-1.2789220663	-0.185081
C	 3.8187426268	 1.8517095937	 0.2247314906	-0.219316
C	 2.4643294494	 1.2271026114	 0.588194619	-0.271309
H	-0.8512615749	 1.7746868865	-0.4910533331	 0.06034
H	 0.0905471752	 3.8389752532	 0.3694943141	 0.117107
H	 1.8562625315	 3.9571480646	 0.8082416493	 0.122648
H	 0.6804448982	 2.9877265705	-1.8839457915	 0.092406
H	 2.8257194717	 3.2283149028	-2.8027484751	 0.103654
H	 3.2409791546	 4.1844590354	-1.3954564088	 0.104558
H	 3.7126255539	 1.196214514	-1.823910242	 0.100496
H	 4.9098729386	 2.4575010433	-1.5580648695	 0.094341
H	 4.618822549	 1.1715857039	 0.5349224826	 0.099669
H	 3.9783569765	 2.785268158	 0.7812971967	 0.093206
H	 2.3518638558	 1.152388302	 1.6760095386	 0.103679
H	 2.4283807027	 0.1982699773	 0.2123888345	 0.119801
90.0172	128.511	223.0311	239.9262	313.6185	358.1469	379.783	435.509	479.2179	512.7737	636.4499	724.7264	748.2628	810.439	836.8579	894.0884	900.6163	933.843	942.8261	966.7714	1008.4498	1042.3694	1066.6731	1079.7352	1102.0532	1125.459	1141.574	1187.7638	1199.8138	1254.268	1285.0761	1294.1975	1316.3091	1367.0777	1369.0323	1377.1212	1389.3678	1409.7558	1440.9148	1478.8561	1488.8083	1491.873	1494.2599	1508.1375	1812.3567	2837.8372	3016.016	3022.2225	3025.9149	3035.7533	3065.7229	3070.077	3075.1555	3078.9555	3124.6387	3140.126	3209.8923
O=CC12CC1CCCC2	O=C[C@]12C[C@H]1CCCC2	
InChI=1S/C8H12O/c9-6-8-4-2-1-3-7(8)5-8/h6-7H,1-5H2	InChI=1S/C8H12O/c9-6-8-4-2-1-3-7(8)5-8/h6-7H,1-5H2/t7-,8+/m1/s1
