18
gdb 37938	2.82434	1.95858	1.44069	2.2841	74.92	-0.2317	0.0188	0.2505	926.1004	0.151503	-401.917617	-401.911005	-401.910061	-401.948356	27.272	
C	-0.0115434449	 1.4881266613	-0.1725477677	-0.267535
C	 1.5114678154	 1.5593473207	-0.0406708607	-0.06918
C	 1.9593519812	 1.0239136279	 1.3025398245	-0.043275
C	 1.1367382093	 1.1593308156	 2.5655468753	-0.11411
O	 0.5769641722	-0.0717424139	 3.0590325965	-0.222554
C	-0.4215833402	-0.6705968378	 2.3577714457	 0.123103
N	-0.7223818861	-0.6769760916	 1.1313535609	-0.269141
C	 0.0680904305	-0.0659723656	 0.0874054328	 0.033883
C	 1.596037692	 0.0554026689	 0.2156590239	-0.092944
H	-0.6047403304	 2.068484204	 0.5400256323	 0.101933
H	-0.3666446614	 1.7129913484	-1.1799552042	 0.109648
H	 2.1644565543	 2.1794212451	-0.6427276699	 0.08843
H	 3.0327849472	 1.0982620309	 1.4529553265	 0.094462
H	 1.7595130499	 1.5163010955	 3.388820036	 0.117813
H	 0.3180657829	 1.8767354796	 2.4387800188	 0.11446
H	-1.027730523	-1.2543634059	 3.0524703854	 0.116471
H	-0.1857932886	-0.5839822104	-0.8409662125	 0.090416
H	 2.3077238098	-0.6697202027	-0.1602724137	 0.088121
161.6883	213.5898	295.2674	354.9331	438.8914	473.238	540.3695	639.972	710.0964	762.6181	784.9854	823.305	842.144	899.7297	925.079	962.0491	976.3045	983.2795	994.0691	1029.2468	1048.7755	1061.3953	1081.2791	1103.8239	1148.2833	1181.6494	1208.2828	1229.8252	1268.755	1299.5656	1304.3938	1340.0102	1371.9225	1413.6351	1432.4752	1437.9864	1487.0412	1513.3768	1736.5112	3041.405	3060.126	3063.4058	3101.783	3115.7873	3124.961	3148.0632	3177.0999	3189.7122
C1C2C3COC=NC1C23	C1[C@H]2[C@H]3COC=N[C@@H]1[C@@H]23	
InChI=1S/C7H9NO/c1-4-5-2-9-3-8-6(1)7(4)5/h3-7H,1-2H2	InChI=1S/C7H9NO/c1-4-5-2-9-3-8-6(1)7(4)5/h3-7H,1-2H2/t4-,5+,6-,7-/m0/s1
