18
gdb 15844	5.5217	0.94272	0.88468	1.498	64.39	-0.2614	0.0799	0.3413	1304.0238	0.152292	-422.04267	-422.033753	-422.032809	-422.076689	31.799	
O	-0.1659361026	 1.4565370078	 0.1090985047	-0.423626
C	-0.0110532938	 0.0446159622	 0.0906280753	-0.079873
C	-1.3987865025	-0.5719032391	-0.020147752	-0.184786
C	-1.3625106843	-2.1048666724	-0.0746209718	 0.081664
O	-0.7108152763	-2.6617342431	 1.0555734381	-0.436754
C	-2.7684646589	-2.6756498814	-0.1991562449	 0.066648
C	-3.0869204355	-4.0348807664	 0.2438733333	-0.188175
O	-3.4232284083	-2.897681556	 1.0577462092	-0.250007
H	 0.6987862432	 1.8496071146	 0.2579005593	 0.285333
H	 0.605781768	-0.2772210706	-0.7657059618	 0.079989
H	 0.4787092935	-0.3236879712	 1.0021078594	 0.103639
H	-2.0050245929	-0.2501949182	 0.8357571211	 0.112314
H	-1.8893152697	-0.1842524236	-0.9217402889	 0.10239
H	-0.7775596595	-2.4224747307	-0.9486874123	 0.092382
H	-1.3674648916	-2.6404426025	 1.7665469563	 0.289912
H	-3.4005392144	-2.2138740448	-0.958166305	 0.098597
H	-3.9383615276	-4.5573891351	-0.1875015278	 0.120404
H	-2.2906160468	-4.6600866594	 0.639400038	 0.129948
73.8447	88.7321	115.0685	157.698	261.5706	277.3059	287.1499	343.9021	399.2516	495.8194	557.251	660.5992	789.0829	803.5986	880.9517	913.2183	969.5446	1006.0559	1042.5648	1075.1139	1097.2423	1117.3814	1134.8352	1163.2368	1170.6792	1211.6704	1235.4212	1271.3031	1290.4844	1307.4107	1334.8242	1370.9113	1419.2703	1441.5255	1459.9071	1485.9462	1517.1016	1530.5422	2958.0629	3020.4731	3024.3681	3030.4458	3075.8962	3100.0943	3113.4005	3196.305	3740.8183	3830.5226
OCCC(O)C1CO1	OCC[C@@H](O)[C@H]1CO1	
InChI=1S/C5H10O3/c6-2-1-4(7)5-3-8-5/h4-7H,1-3H2	InChI=1S/C5H10O3/c6-2-1-4(7)5-3-8-5/h4-7H,1-3H2/t4-,5-/m1/s1
