22
gdb 6476	3.9141	1.22681	1.15029	1.2887	78.35	-0.2509	0.0695	0.3204	1184.8659	0.198614	-350.206871	-350.197498	-350.196553	-350.240464	35.65	
C	-0.1429468308	 1.5514494225	-0.0265285601	-0.402845
C	 0.0776676397	 0.034925014	-0.0555504261	-0.224066
C	 0.7332886732	-0.5139366354	 1.2095773166	 0.421922
O	 2.0340655761	 0.0379987168	 1.4046159293	-0.49019
C	-0.0914568982	-0.5133467303	 2.5351641979	-0.28557
C	 0.4667707883	-1.9322965189	 2.8449190703	 0.059565
C	-0.4716705107	-2.9720577859	 3.4353488675	-0.408922
C	 0.8723598114	-2.0510223233	 1.3480112808	-0.262705
H	 0.8076111993	 2.0919676487	 0.0418654403	 0.111374
H	-0.6425908346	 1.8953399373	-0.936772409	 0.117878
H	-0.7649009808	 1.8494813537	 0.8252434825	 0.117835
H	-0.8833701706	-0.473301391	-0.2003956949	 0.088771
H	 0.7100899618	-0.2311320932	-0.9117748579	 0.101084
H	 1.9287422658	 0.9694378529	 1.6247829709	 0.27539
H	 0.125080083	 0.2874169038	 3.2485842651	 0.085564
H	-1.1702375153	-0.5346537038	 2.3452311972	 0.089813
H	 1.3667724742	-1.8454821683	 3.4604355629	 0.080243
H	-1.3799882749	-3.0735593983	 2.8293753256	 0.106759
H	 0.0055190884	-3.9574766662	 3.4847673681	 0.113453
H	-0.7795312328	-2.7015002332	 4.4518912944	 0.111697
H	 0.1147798623	-2.5802382935	 0.7607070015	 0.088694
H	 1.8596439152	-2.4538902982	 1.1127131269	 0.104258
73.4097	101.6376	182.6478	233.7759	249.4013	272.7686	313.9344	338.7332	350.1169	382.2963	438.577	483.2693	609.2644	731.1877	783.5207	818.6748	879.0347	898.0048	920.9603	951.2452	961.5461	992.3361	1033.3467	1046.9547	1081.5933	1110.8772	1142.9411	1190.1586	1214.192	1232.4543	1251.4114	1286.1222	1297.2695	1317.5099	1331.3971	1366.6217	1388.0724	1407.7752	1412.8235	1459.3966	1475.4115	1484.7706	1495.8481	1497.2346	1499.8373	1512.2004	3019.0765	3023.5717	3030.6889	3037.0785	3050.9183	3058.5182	3060.4952	3085.56	3087.7971	3095.6221	3097.1043	3105.1069	3117.8032	3809.7399
CCC1(O)CC(C)C1	CC[C@@]1(O)C[C@@H](C)C1	
InChI=1S/C7H14O/c1-3-7(8)4-6(2)5-7/h6,8H,3-5H2,1-2H3	InChI=1S/C7H14O/c1-3-7(8)4-6(2)5-7/h6,8H,3-5H2,1-2H3/t6-,7-
