15
gdb 52043	2.57182	0.86984	0.67591	1.9733	64.88	-0.273	-0.0659	0.2071	1545.1062	0.108036	-494.927137	-494.917388	-494.916444	-494.964339	31.43	
O	-0.1632022623	 0.1045809977	 0.2840248946	-0.262078
C	 0.0449239713	 1.2678044132	 0.4365516373	 0.172658
O	 0.865757014	 1.9719383648	-0.3736573455	-0.190143
C	 1.0326478772	 3.3700081149	-0.1207757921	-0.11075
C	 2.5215312261	 3.6842603524	-0.0734334143	-0.187667
C	 3.2559242573	 3.3955872528	-1.3860223667	 0.145804
O	 4.4425384351	 3.5426686677	-1.5083027037	-0.238555
C	 2.7863406641	 5.1337594735	 0.3318166983	 0.142181
O	 1.9185582957	 5.8901123554	 0.6794344883	-0.232299
H	-0.3954581236	 1.889509293	 1.2402591147	 0.086638
H	 0.5461036942	 3.9244311788	-0.9303801365	 0.13912
H	 0.5504008113	 3.6636394448	 0.8168735138	 0.139785
H	 3.0192324326	 3.0614200047	 0.6841993908	 0.151484
H	 2.6123307698	 3.0638673324	-2.2275059181	 0.116109
H	 3.852055487	 5.430385604	 0.2736743091	 0.127712
35.1896	43.8538	79.641	114.1899	134.2371	190.1888	226.2575	308.6091	340.5308	385.8466	577.1308	605.9513	721.7352	827.2675	878.8058	899.6653	1036.0146	1044.0684	1082.3544	1111.2114	1134.9853	1166.1447	1218.3425	1273.7208	1317.096	1392.5095	1409.9388	1422.5032	1434.987	1500.4416	1807.6197	1839.8766	1875.1353	2918.6541	2950.0673	2951.2815	3022.776	3048.0482	3095.3579
O=COCC(C=O)C=O	O=COCC(C=O)C=O	
InChI=1S/C5H6O4/c6-1-5(2-7)3-9-4-8/h1-2,4-5H,3H2	InChI=1S/C5H6O4/c6-1-5(2-7)3-9-4-8/h1-2,4-5H,3H2
