21
gdb 77308	2.84707	1.20091	0.91309	0.8793	91.19	-0.2319	0.0272	0.2591	1331.3379	0.181246	-349.948359	-349.93881	-349.937866	-349.982406	36.47	
C	-0.1040834444	 1.5404201208	-0.033332428	-0.411431
C	 0.0299123122	 0.0175282174	 0.0470270407	-0.065523
C	 0.7883698159	-0.5912218384	-1.1752837103	-0.167837
C	 1.5103872501	-1.8504258121	-0.6129480892	-0.275759
C	 1.6181722147	-1.5293098212	 0.855641145	-0.183105
C	 0.8247510221	-0.5225585255	 1.2276256014	 0.329427
C	 0.6319756416	 0.003285404	 2.6159364464	-0.498837
C	-0.0490282808	-0.83048645	-2.3405227369	 0.319761
C	-0.7541930809	-1.0287167746	-3.2946587818	-0.464508
H	 0.879606427	 2.0239992319	-0.0385607204	 0.113533
H	-0.6274502228	 1.827867942	-0.9507321904	 0.12711
H	-0.671655042	 1.9400659758	 0.8127540308	 0.114602
H	-0.984162556	-0.4090205562	 0.0845232846	 0.086724
H	 1.5681575952	 0.1319683233	-1.4501429145	 0.101194
H	 0.9106727559	-2.7551209131	-0.7812957561	 0.115316
H	 2.4750453619	-2.019422406	-1.1029525217	 0.108171
H	 2.2416387476	-2.1041275752	 1.5330440928	 0.08534
H	 1.2477852759	-0.5404075179	 3.3374448558	 0.122644
H	 0.8877120397	 1.0675083523	 2.6851507952	 0.127761
H	-0.416365133	-0.084637883	 2.9306605869	 0.12471
H	-1.37073879	-1.2040548544	-4.1409643901	 0.190706
63.6937	130.3069	179.8572	208.7815	231.1027	258.6807	263.1173	347.247	349.0805	467.9961	525.6065	539.0559	565.7173	617.0264	630.622	655.9224	792.831	827.925	832.7636	942.422	984.6505	1006.8844	1031.9508	1038.4268	1045.2108	1091.4432	1093.9406	1119.509	1180.4485	1205.3906	1255.9607	1294.2435	1311.4945	1324.2582	1352.3283	1361.2113	1407.5633	1414.8339	1479.4276	1487.1006	1493.4511	1499.8645	1503.049	1720.0113	2232.9103	2984.6669	3010.622	3017.1748	3019.7206	3029.355	3064.735	3065.9711	3097.7484	3105.8528	3110.385	3180.9983	3505.1706
CC1C(CC=C1C)C#C	C[C@H]1[C@@H](CC=C1C)C#C	
InChI=1S/C9H12/c1-4-9-6-5-7(2)8(9)3/h1,5,8-9H,6H2,2-3H3	InChI=1S/C9H12/c1-4-9-6-5-7(2)8(9)3/h1,5,8-9H,6H2,2-3H3/t8-,9-/m1/s1
