16
gdb 85782	2.85837	1.22225	0.95875	2.7689	66.44	-0.2439	-0.0453	0.1986	1199.016	0.122811	-475.057592	-475.048538	-475.047593	-475.092217	32.527	
N	 0.0108694701	 1.1774354651	 0.4847972045	-0.522953
C	 0.0842402033	-0.0540603585	-0.0961731479	 0.385823
O	 1.0762112581	-0.5081575441	-0.6260128161	-0.352933
C	-1.2396815837	-0.8185428945	-0.0599846768	-0.239356
C	-1.1923865362	-2.3714331389	 0.02992228	-0.260565
C	-2.2676812199	-2.3500074862	 1.1536627195	 0.046337
O	-1.9957308134	-3.1468035242	 2.2725308121	-0.423449
C	-2.0141693292	-0.8349653974	 1.2655087495	 0.352456
O	-2.1794056887	-0.0243380603	 2.1372464506	-0.322297
H	 0.8773135157	 1.6824090173	 0.591072059	 0.261415
H	-0.7340277695	 1.3653330429	 1.1420528428	 0.274962
H	-1.8705528243	-0.450438122	-0.8768989593	 0.138314
H	-1.447354663	-2.924875216	-0.8722261175	 0.120347
H	-0.2292717489	-2.7130258925	 0.4118757013	 0.148536
H	-3.2754357659	-2.5292808904	 0.7419740487	 0.095493
H	-2.5317715445	-2.8248809804	 3.0061982495	 0.297872
52.5096	69.8568	124.381	179.0063	237.1268	257.123	371.5264	388.1226	452.394	493.9749	560.292	593.0708	621.1755	670.1566	721.9673	801.9165	842.2201	938.4929	994.9164	1033.3109	1053.242	1067.8878	1134.8322	1146.2268	1192.4186	1224.862	1242.9479	1264.8602	1321.4057	1341.2578	1401.7308	1487.436	1632.378	1809.1994	1862.9555	2960.9848	3059.105	3100.0428	3162.4157	3546.9983	3685.9587	3805.286
NC(=O)C1CC(O)C1=O	NC(=O)[C@H]1C[C@@H](O)C1=O	
InChI=1S/C5H7NO3/c6-5(9)2-1-3(7)4(2)8/h2-3,7H,1H2,(H2,6,9)	InChI=1S/C5H7NO3/c6-5(9)2-1-3(7)4(2)8/h2-3,7H,1H2,(H2,6,9)/t2-,3+/m0/s1
