14
gdb 127970	2.76312	1.58459	1.01334	2.9886	70.95	-0.2666	-0.0552	0.2113	1100.2803	0.099662	-469.964681	-469.956418	-469.955474	-469.998954	28.661	
C	 0.1707877033	 1.4628053358	 0.1102962148	-0.343266
N	 0.3100936294	 0.0212539221	 0.0886563507	-0.241856
C	 0.5051733359	-0.6084599836	-0.9753364168	 0.34727
O	 0.600836381	 0.0372366022	-2.2080148179	-0.224667
C	 0.8123048849	-0.6975643655	-3.3169098336	 0.1493
N	 0.9459096844	-1.9552429133	-3.4260187364	-0.12445
O	 0.8637795116	-2.6950285787	-2.2322776922	-0.277449
C	 0.6502706529	-2.0944355649	-1.00962105	 0.345705
N	 0.5819204722	-2.7895348426	 0.0388231536	-0.464484
H	 0.9361908494	 1.8699414614	 0.7796250442	 0.14769
H	 0.2487003889	 1.9511766596	-0.8659966655	 0.128927
H	-0.7983891804	 1.7056407532	 0.5589945931	 0.147693
H	 0.8704255298	-0.0988127596	-4.2176888843	 0.168483
H	 0.7044637268	-3.7795314359	-0.1858900096	 0.241103
47.1904	64.6023	100.0498	199.3252	216.0942	364.1017	501.3951	501.6919	528.2369	556.2272	561.7094	721.2084	754.0408	895.8875	898.1793	907.2916	966.893	1002.4627	1052.6368	1119.2687	1128.3474	1159.2966	1205.7159	1336.6093	1362.1841	1433.9966	1490.5117	1492.0363	1715.858	1749.4156	1789.4364	3028.524	3092.1612	3105.6263	3227.2421	3471.2946
CN=C1OC=NOC1=N	CN=C1OC=NO[C]1[NH]	
InChI=1S/C4H5N3O2/c1-6-4-3(5)9-7-2-8-4/h2,5H,1H3	InChI=1S/C4H5N3O2/c1-6-4-3(5)9-7-2-8-4/h2,5H,1H3
