17
gdb 74099	2.62842	1.6936	1.22155	4.107	75.26	-0.2283	-0.0536	0.1747	1037.3015	0.136768	-421.834023	-421.826543	-421.825599	-421.865865	29.073	
C	-0.0286122373	 1.4977280437	 0.0451029261	-0.503348
C	 0.0205737746	 0.0051323375	-0.0045325327	 0.361199
C	 0.055891112	-0.738282695	-1.1247898074	-0.292144
C	 0.0167660919	-2.2124038783	-0.9766756024	 0.415469
O	-0.0352688612	-2.9995654243	-1.8965463347	-0.338054
C	 0.0052069056	-2.6355711142	 0.5010863635	-0.027704
C	-1.0989982796	-1.8598001972	 1.2635528008	-0.261697
C	 0.021639721	-0.7866027448	 1.296754034	-0.011532
O	 1.0150354765	-1.8461769885	 1.1949232516	-0.28923
H	 0.8405298835	 1.8956518145	 0.5841575466	 0.145003
H	-0.0496790192	 1.9367718995	-0.9548807167	 0.137243
H	-0.9154934938	 1.8421654125	 0.5927361382	 0.138957
H	 0.0745777634	-0.319305266	-2.1257775705	 0.108052
H	 0.1242991283	-3.7129063462	 0.6233137033	 0.098006
H	-2.032990361	-1.62336338	 0.7517024146	 0.116928
H	-1.286479199	-2.2936945827	 2.2472108105	 0.120082
H	 0.1586594844	-0.1662500203	 2.1857111953	 0.082768
138.6473	152.8659	188.5529	278.6459	338.5151	417.2415	453.2932	490.14	555.9766	580.1038	718.527	774.3143	822.0072	873.6561	879.4514	925.8117	945.916	959.0028	1009.2491	1026.8484	1057.7595	1076.8168	1107.9831	1168.682	1196.6546	1227.5783	1255.7045	1290.7842	1295.8392	1318.4746	1361.2474	1409.6878	1474.9018	1479.0298	1486.37	1678.7082	1799.7379	3019.0132	3066.8033	3075.6564	3087.6954	3116.1204	3123.8871	3143.9382	3186.2367
CC1=CC(=O)C2CC1O2	CC1=CC(=O)[C@@H]2C[C@H]1O2	
InChI=1S/C7H8O2/c1-4-2-5(8)7-3-6(4)9-7/h2,6-7H,3H2,1H3	InChI=1S/C7H8O2/c1-4-2-5(8)7-3-6(4)9-7/h2,6-7H,3H2,1H3/t6-,7+/m1/s1
