18
gdb 27781	2.02248	1.71557	0.939	3.8131	87.13	-0.2037	-0.0345	0.1692	1247.6954	0.147399	-402.004253	-401.995566	-401.994622	-402.037481	32.623	
C	 0.0923349104	 1.4822235292	-0.0425977245	-0.47082
C	-0.0541247775	-0.0032716295	-0.0153782386	 0.397147
C	-1.2072055204	-0.6962595254	-0.0723848385	-0.318238
C	-1.179211523	-2.1405512397	-0.0349371177	 0.32062
C	-2.4769015171	-2.8951544075	-0.0993890554	-0.486951
C	 0.0194139434	-2.7605742087	 0.0571574442	-0.255671
C	 1.2618734581	-2.0224552223	 0.1184927602	 0.37415
N	 2.4100585032	-2.5612324367	 0.204980959	-0.542317
O	 1.1476363457	-0.6266458377	 0.0772211971	-0.277757
H	 0.70840533	 1.791875517	-0.8939339233	 0.146171
H	-0.8831696778	 1.9655357761	-0.1171408115	 0.134295
H	 0.5955097905	 1.8352167341	 0.8642711844	 0.146173
H	-2.1470041826	-0.1639579781	-0.1459678536	 0.098732
H	-3.019934209	-2.6564618462	-1.021610491	 0.136214
H	-2.3168720839	-3.9748245815	-0.063205858	 0.13275
H	-3.1316447501	-2.6142215464	 0.7341306819	 0.136244
H	 0.1138471222	-3.8387312379	 0.0897322472	 0.113823
H	 3.1392308778	-1.8483366287	 0.2341425381	 0.215436
125.4951	143.2976	153.0179	187.0628	208.77	269.3844	312.3921	477.5217	504.8441	510.8957	538.497	611.549	616.0564	715.7053	820.6485	837.0824	857.4425	889.2555	957.5433	973.1328	1040.1668	1049.3758	1061.8544	1066.5125	1094.0733	1172.9682	1220.4355	1272.7127	1366.3354	1407.1889	1415.7016	1421.4897	1468.8284	1478.0909	1483.7892	1490.4885	1628.2252	1689.8537	1744.7462	3027.8629	3037.7121	3078.8027	3092.2115	3127.0911	3141.2556	3208.9683	3214.9927	3489.2173
CC1=CC(C)=CC(=N)O1	CC1=C[C@H](C)C=C([NH])O1	
InChI=1S/C7H9NO/c1-5-3-6(2)9-7(8)4-5/h3-4,8H,1-2H3	InChI=1S/C7H10NO/c1-5-3-6(2)9-7(8)4-5/h3-5,8H,1-2H3/t5-/m0/s1
