21
gdb 110212	2.4028	1.3767	1.14974	2.2907	79.4	-0.223	0.0588	0.2818	1184.955	0.181788	-424.195748	-424.186399	-424.185455	-424.229363	35.974	
C	 0.1865977678	 1.6478529385	 0.0132357929	-0.502503
C	 0.0927433375	 0.1488562819	 0.0322723738	 0.252661
C	 0.6145861446	-0.7510451901	-1.1005115434	-0.279778
C	 1.1055505574	-1.802025027	-0.0498001363	-0.292401
C	 0.5181333596	-0.924693497	 1.0496181673	 0.390494
O	 1.0628628414	-0.8089491776	 2.3115674694	-0.476238
C	-0.9481501732	-0.6624530868	 0.8008710815	-0.16786
C	-1.685131093	-0.0469696242	 1.9694212221	-0.131946
O	-1.6472359956	-0.8989734844	 3.1300743768	-0.418133
H	 1.1879207372	 1.9630393595	-0.3013841577	 0.121229
H	-0.5325143196	 2.0874368887	-0.6894398296	 0.11699
H	 0.0046416596	 2.0907449531	 0.9961509849	 0.125692
H	-0.1384269801	-1.1000699206	-1.8154252928	 0.090979
H	 1.4380819914	-0.2949241556	-1.6558380516	 0.102003
H	 0.7132580633	-2.8224880807	-0.1296663064	 0.085193
H	 2.1958746349	-1.8463035791	 0.0037625468	 0.110677
H	 0.3547829161	-0.9989446895	 2.9467372056	 0.29192
H	-1.53422884	-1.4032695378	 0.2496011337	 0.064144
H	-1.21512218	 0.8810890093	 2.2991498974	 0.124471
H	-2.7247606955	 0.1843129096	 1.7027031027	 0.104221
H	-2.0357084738	-1.7451162602	 2.8824625627	 0.288186
116.1397	134.9719	152.4295	190.9766	223.1188	252.9851	302.0453	345.7947	401.0105	433.6472	491.1303	546.9601	619.1299	670.2409	708.9345	728.2962	774.6836	825.6236	925.9833	940.3478	988.2531	1005.3645	1022.9977	1040.7277	1076.977	1100.5509	1129.6165	1167.3717	1194.1017	1206.5087	1226.0208	1237.6748	1239.5973	1320.7052	1350.0968	1365.9682	1410.572	1418.9769	1433.5527	1436.3754	1479.0199	1486.8463	1496.7598	1504.8401	1511.4536	3018.0197	3021.0661	3032.5075	3042.6969	3051.6238	3076.3126	3091.1143	3104.1718	3110.407	3121.2525	3683.1985	3808.1776
CC12CCC1(O)C2CO	C[C@@]12CC[C@]1(O)[C@H]2CO	
InChI=1S/C7H12O2/c1-6-2-3-7(6,9)5(6)4-8/h5,8-9H,2-4H2,1H3	InChI=1S/C7H12O2/c1-6-2-3-7(6,9)5(6)4-8/h5,8-9H,2-4H2,1H3/t5-,6-,7-/m0/s1
