17
gdb 45443	2.54753	1.74115	1.72246	4.3454	66.81	-0.249	0.007	0.2561	905.7259	0.139192	-459.009826	-459.002976	-459.002032	-459.041095	27.039	
O	-0.0202722195	-0.010168896	 0.0371279225	-0.341552
C	 0.011449909	 1.1861131659	 0.0070910368	 0.444314
O	-1.1293504464	 1.9327786738	-0.0010284213	-0.241772
C	-0.866250609	 3.3574534172	 0.0182749197	 0.069196
C	-0.1057083995	 3.6982548095	 1.3060573822	-0.226487
C	 1.2453865354	 2.9331389383	 1.2717569249	-0.232507
C	 1.2496239759	 2.0798611004	-0.00740117	-0.040913
O	 1.193994006	 2.9342095642	-1.1544400343	-0.27589
C	-0.0219035804	 3.682346405	-1.2092561931	-0.072317
H	-1.8431449838	 3.8406238488	-0.0305309977	 0.100164
H	 0.042940225	 4.7803138147	 1.3661693949	 0.114658
H	-0.7138068199	 3.4020358997	 2.1644799921	 0.123386
H	 2.0967200783	 3.6173320216	 1.2252935914	 0.118928
H	 1.3749193514	 2.2984782373	 2.1530223685	 0.124507
H	 2.1443766969	 1.4685534266	-0.1143656541	 0.108919
H	-0.565842452	 3.4155660273	-2.1239379069	 0.118533
H	 0.2100185527	 4.7550476558	-1.2414635255	 0.108834
114.1583	171.1641	280.1258	361.2817	383.8635	440.5381	543.5098	550.8235	634.8087	769.1447	799.018	831.808	847.0618	882.0426	893.1598	952.3031	984.4149	1013.4984	1045.8536	1070.1978	1085.6384	1115.9914	1165.9432	1224.4492	1239.9096	1254.8124	1262.4945	1323.737	1339.1738	1348.1185	1373.044	1386.2198	1403.2802	1474.2811	1493.8524	1515.9446	1875.5348	3013.9981	3053.5134	3056.0701	3065.0815	3096.5061	3108.8846	3115.9968	3136.9314
O=C1OC2CCC1OC2	O=C1O[C@H]2CC[C@@H]1OC2	
InChI=1S/C6H8O3/c7-6-5-2-1-4(9-6)3-8-5/h4-5H,1-3H2	InChI=1S/C6H8O3/c7-6-5-2-1-4(9-6)3-8-5/h4-5H,1-3H2/t4-,5-/m0/s1
