23
gdb 111055	2.30202	1.32728	1.01013	1.1921	86.43	-0.2431	0.0866	0.3296	1310.0103	0.205351	-388.237278	-388.227827	-388.226883	-388.271794	35.822	
C	-0.0759688059	 1.6858612824	-0.1054807115	-0.374788
C	 0.0118444194	 0.1936612603	 0.2425677112	-0.238216
C	-1.3377384918	-0.5062827843	 0.1260402919	-0.001557
C	-1.9962231135	-0.7996154011	-1.2629154952	-0.068111
C	-1.0046122645	-1.9812185042	-1.4683198946	-0.299991
C	-1.5106142219	-2.070463429	 0.0115542762	 0.417363
C	-2.9317442093	-1.8035125156	-0.529648626	-0.277787
O	-1.2526311991	-3.0458915958	 0.9499808428	-0.287966
C	 0.1188040624	-3.2654841566	 1.2197430749	-0.262278
H	 0.8891449572	 2.1836089284	 0.0315116873	 0.110283
H	-0.3830877522	 1.8325295908	-1.1463727699	 0.117056
H	-0.8081765975	 2.1969128622	 0.529434076	 0.114829
H	 0.7684016366	-0.2810298498	-0.3909588743	 0.095779
H	 0.3716248768	 0.0892735284	 1.2743647123	 0.098787
H	-2.0419530384	-0.0592442623	 0.8393766528	 0.060257
H	-2.2924947752	-0.0674251613	-2.0104422752	 0.077751
H	-1.3406221028	-2.7795169495	-2.1354336771	 0.091641
H	 0.0427669625	-1.7360849793	-1.6471869344	 0.091898
H	-3.6527295926	-1.3823389037	 0.1757810442	 0.091006
H	-3.3712173484	-2.5958625068	-1.1405439409	 0.090378
H	 0.1752195575	-4.1017197142	 1.9202141415	 0.12697
H	 0.6736351706	-3.5271592276	 0.3078533158	 0.11182
H	 0.5936385004	-2.3874375614	 1.677921682	 0.114875
68.0669	83.8454	134.6655	183.2441	215.8971	226.655	299.2153	336.8542	424.8793	466.9117	556.8475	579.8884	640.6584	743.9829	789.5371	817.7841	857.7742	911.558	946.0988	964.2975	969.9221	1011.8233	1022.7904	1051.5279	1081.9378	1099.9229	1124.646	1132.5028	1145.4659	1167.5422	1169.6319	1180.3026	1203.5438	1227.4808	1232.5015	1242.4559	1294.3482	1304.8153	1347.1724	1408.0336	1429.2384	1481.9344	1483.3112	1490.9278	1498.5189	1499.9965	1506.4719	1509.8196	1545.9892	2996.1303	3019.2439	3025.0378	3030.9361	3050.898	3053.5464	3062.5716	3069.6864	3100.1856	3102.6582	3119.4149	3121.5787	3131.5161	3142.1549
CCC1C2CC1(C2)OC	CC[C@H]1[C@H]2C[C@@]1(C2)OC	
InChI=1S/C8H14O/c1-3-7-6-4-8(7,5-6)9-2/h6-7H,3-5H2,1-2H3	InChI=1S/C8H14O/c1-3-7-6-4-8(7,5-6)9-2/h6-7H,3-5H2,1-2H3/t6-,7-,8-/m0/s1
