23
gdb 63377	2.53739	1.28117	1.00477	0.635	91.95	-0.2527	0.0563	0.309	1305.1747	0.202811	-351.127469	-351.117218	-351.116274	-351.161714	40.025	
C	-0.7569103401	 1.3833694387	-0.4657904658	-0.448408
C	 0.0421481407	 0.1025970486	-0.2402677808	 0.365534
C	-0.8593170632	-1.1297005034	-0.3533951287	-0.445063
C	 1.3447398202	-0.0328095638	-1.0901279372	-0.302086
C	 2.1714892231	-0.3612754964	 0.2050524734	 0.142389
C	 3.4391497978	 0.4770307601	 0.4113492722	-0.448507
C	 0.9219185523	 0.0800982592	 1.0492436914	-0.302086
C	 2.4749900169	-1.7794920406	 0.3398819021	 0.325742
C	 2.7425112125	-2.9473257196	 0.4544025434	-0.503089
H	-0.1212092218	 2.2720401898	-0.3870389758	 0.105116
H	-1.2186513061	 1.3906135419	-1.4603454307	 0.111991
H	-1.5612389546	 1.4820817123	 0.2729299381	 0.11199
H	-1.3213703716	-1.1850866641	-1.3460531032	 0.108033
H	-0.294084871	-2.0523848108	-0.1929922919	 0.129453
H	-1.6644411383	-1.0934766298	 0.3898367779	 0.108033
H	 1.3450365289	-0.8010985055	-1.8662126645	 0.103707
H	 1.6630744569	 0.9159587277	-1.5321650151	 0.091963
H	 3.21022152	 1.542738711	 0.3098565135	 0.108759
H	 3.8606537544	 0.3086049484	 1.4072870755	 0.124575
H	 4.203538859	 0.217039149	-0.3275948099	 0.124575
H	 1.0676711001	 1.0749514103	 1.4804265107	 0.091963
H	 0.612363344	-0.6054499599	 1.8409347424	 0.103707
H	 2.9739898101	-3.9786758731	 0.554641623	 0.19171
73.3002	140.7628	170.3207	227.7057	239.9175	260.9525	290.8395	301.2672	334.6029	341.713	416.2245	423.4157	488.0417	555.0511	594.3411	612.3814	620.8322	701.9961	820.545	852.7414	887.2584	910.148	925.2788	932.1699	962.8567	997.4883	1016.5682	1029.9385	1109.2757	1140.3956	1142.9588	1221.6494	1244.4863	1247.5047	1278.3714	1300.9757	1320.1323	1404.318	1407.3608	1422.6911	1472.1061	1484.693	1487.1553	1490.9933	1491.2991	1499.5978	1503.171	1512.0226	2224.8485	3016.9499	3023.6185	3031.6136	3049.6761	3055.1355	3081.4483	3086.9776	3088.6875	3104.9777	3108.3222	3109.8304	3113.8588	3115.6801	3502.3414
CC1(C)CC(C)(C1)C#C	CC1(C)CC(C)(C1)C#C	
InChI=1S/C9H14/c1-5-9(4)6-8(2,3)7-9/h1H,6-7H2,2-4H3	InChI=1S/C9H14/c1-5-9(4)6-8(2,3)7-9/h1H,6-7H2,2-4H3
