21
gdb 113243	4.76037	0.77835	0.75105	0.918	85.57	-0.2483	0.0434	0.2917	1599.7219	0.179273	-387.047885	-387.037504	-387.03656	-387.083402	38.578	
C	 0.4549590276	 1.4729531752	 0.2037807139	-0.372741
C	-0.1504374726	 0.1073226386	-0.1390791486	-0.196651
C	 0.5035171182	-0.5344506149	-1.3461126459	-0.048197
C	 1.8136042414	-1.2983519636	-1.2034795081	-0.344608
C	 0.5284048092	-2.0228181109	-1.5254513984	 0.396504
O	-0.082606806	-2.7670797263	-0.5103622612	-0.467659
C	 0.3260228411	-2.6199237741	-2.9161979223	-0.402101
C	 0.8619709179	-3.9767587746	-2.9956036966	 0.280277
C	 1.3016487546	-5.0962983886	-2.9926801509	-0.442603
H	 1.5235721765	 1.3854468674	 0.4267568265	 0.116229
H	 0.3487022771	 2.1769651522	-0.6293328901	 0.109991
H	-0.0364684816	 1.9145114266	 1.0764187781	 0.11021
H	-0.0636544345	-0.5710993625	 0.7146715738	 0.113766
H	-1.2257283213	 0.2191781645	-0.3288566228	 0.096894
H	 0.3996756378	 0.0383732998	-2.2663122503	 0.078884
H	 2.5754997291	-1.1966822277	-1.9692994286	 0.107937
H	 2.1945615747	-1.4280897664	-0.1956766436	 0.11288
H	 0.324888	-3.6423136155	-0.5171945351	 0.286645
H	-0.74738693	-2.6373991653	-3.1442389374	 0.137406
H	 0.8037849765	-1.981854954	-3.6685097593	 0.128072
H	 1.6922698144	-6.0833102898	-3.0240392333	 0.198865
56.1432	68.8796	112.0862	163.3736	189.9295	250.5105	294.2053	336.8395	357.8483	367.9859	405.898	423.7956	474.6203	620.8708	644.3671	654.4823	719.4792	783.0432	823.089	887.817	898.2283	946.0947	962.5311	972.3043	992.7297	1042.0266	1057.5412	1098.9285	1126.2826	1192.5482	1198.6858	1242.7049	1285.3775	1303.9707	1316.167	1339.8898	1385.7545	1408.3649	1430.8649	1459.7569	1487.5766	1496.8398	1501.4988	1508.2895	2231.83	3025.568	3027.6235	3029.5457	3067.0527	3078.6007	3100.0432	3103.7287	3119.2224	3126.3782	3215.4419	3504.7586	3771.6831
CCC1CC1(O)CC#C	CC[C@H]1C[C@]1(O)CC#C	
InChI=1S/C8H12O/c1-3-5-8(9)6-7(8)4-2/h1,7,9H,4-6H2,2H3	InChI=1S/C8H12O/c1-3-5-8(9)6-7(8)4-2/h1,7,9H,4-6H2,2H3/t7-,8+/m0/s1
