20
gdb 87590	3.20271	1.31135	1.21479	1.3654	85.62	-0.2205	0.015	0.2355	1133.383	0.17218	-365.980968	-365.973011	-365.972067	-366.013168	31.984	
C	-0.1106859235	 1.5107541269	-0.0611599799	-0.409989
C	 0.0196034953	 0.0059187384	 0.0199887269	-0.025365
C	 1.3426623752	-0.6759351889	-0.1941914145	-0.35634
C	 0.7051091225	-0.6820568884	 1.1863093716	 0.376117
C	 1.3079188678	 0.0376602414	 2.346120579	-0.164538
C	 1.2219893164	-0.6762388123	 3.4744828751	-0.07171
C	 0.4938657323	-1.9555705789	 3.2271814457	-0.096305
N	-0.9175818417	-1.7387368019	 2.780798815	-0.340822
C	 0.151955501	-1.9567798822	 1.7784887495	-0.155191
H	 0.8006758481	 2.0147616979	 0.2745110118	 0.113421
H	-0.2979263447	 1.8278888385	-1.0931641241	 0.115457
H	-0.9390529336	 1.8712188935	 0.5576332911	 0.127604
H	-0.8494335946	-0.5310719657	-0.3527324598	 0.086587
H	 1.3717664197	-1.6151822767	-0.738416262	 0.107884
H	 2.2201234569	-0.0521462293	-0.3358145099	 0.10878
H	 1.7384808364	 1.0284487006	 2.2630660435	 0.096295
H	 1.5878506084	-0.3716748203	 4.4470516824	 0.09584
H	 0.7283628656	-2.8583701938	 3.7811343735	 0.086088
H	-1.4218988135	-2.6178814531	 2.891993449	 0.223061
H	 0.1353054058	-2.8644260659	 1.1831181861	 0.083126
110.8273	149.4999	207.1206	221.6115	331.3464	386.5403	413.8121	465.0206	527.9273	615.9272	736.8859	758.1291	795.6269	829.8427	842.54	853.7976	885.2865	915.2061	924.6691	927.5634	947.8819	969.9023	1016.8878	1050.8151	1070.3912	1086.4884	1111.8205	1126.9902	1149.0973	1164.9864	1187.6384	1246.9134	1264.3028	1287.3424	1344.0835	1392.1508	1396.5878	1413.7062	1436.3235	1487.3821	1493.1858	1502.9045	1649.2752	3030.9976	3092.0036	3102.3986	3116.9704	3135.4634	3153.047	3167.0879	3194.9698	3202.7944	3219.5945	3466.5875
CC1CC11C=CC2NC12	C[C@H]1C[C@]21C=C[C@H]1N[C@@H]21	
InChI=1S/C8H11N/c1-5-4-8(5)3-2-6-7(8)9-6/h2-3,5-7,9H,4H2,1H3	InChI=1S/C8H11N/c1-5-4-8(5)3-2-6-7(8)9-6/h2-3,5-7,9H,4H2,1H3/t5-,6+,7+,8-/m0/s1
