20
gdb 5819	2.68446	1.67137	1.35394	1.2906	76.22	-0.2596	0.0558	0.3154	1024.5452	0.172779	-348.981874	-348.971809	-348.970865	-349.015662	37.829	
C	 0.0518954542	 1.5351942174	-0.0740125246	-0.407618
C	-0.0209336613	-0.0004342146	 0.0590657963	-0.145771
C	 0.7414513393	-0.4558268153	 1.2196636444	 0.333864
C	 1.3777123473	-0.7992596504	 2.1809435359	-0.485866
C	-1.4819595517	-0.5509137213	 0.065691821	 0.353417
C	-1.4727976022	-2.0850641249	 0.0604317085	-0.421756
C	-2.3023032348	-0.0170950443	 1.2464721524	-0.424752
O	-2.0265724531	-0.0740833997	-1.170921272	-0.467324
H	 1.088222153	 1.8470052757	-0.2273661147	 0.119498
H	-0.5485342893	 1.8601870943	-0.9249074946	 0.137935
H	-0.3125519359	 2.0313230581	 0.8292120831	 0.122129
H	 0.4393971598	-0.4296033526	-0.8410264645	 0.109905
H	 1.9432906192	-1.1111842034	 3.0237209947	 0.192872
H	-1.0101298834	-2.4850875456	 0.9660951564	 0.13235
H	-2.4981585456	-2.468774257	 0.0053744597	 0.098802
H	-0.9225249702	-2.4581190166	-0.8083661075	 0.119388
H	-2.4003379414	 1.069763716	 1.1951540368	 0.12375
H	-3.3101084293	-0.4480938612	 1.2309517825	 0.101251
H	-1.8381044368	-0.2834629011	 2.2001188061	 0.131511
H	-2.9379344278	-0.3790824434	-1.2257274799	 0.276415
72.6742	152.0116	198.2955	218.7483	242.8377	247.3394	262.1687	268.6556	331.1115	357.3293	390.1185	435.5269	475.7394	550.4962	568.3961	622.7578	641.4729	725.0047	855.8204	909.5732	924.6454	968.4484	999.3614	1042.9727	1080.786	1102.4405	1140.2681	1204.8212	1221.6113	1326.6784	1335.6383	1361.484	1396.2203	1401.8838	1414.2263	1480.3756	1484.495	1495.4446	1497.2979	1503.9354	1513.2722	2230.4727	3016.6213	3030.5261	3036.6748	3054.5893	3098.6661	3103.8515	3120.6582	3127.1995	3130.3906	3149.012	3503.765	3816.5094
CC(C#C)C(C)(C)O	C[C@@H](C#C)C(C)(C)O	
InChI=1S/C7H12O/c1-5-6(2)7(3,4)8/h1,6,8H,2-4H3	InChI=1S/C7H12O/c1-5-6(2)7(3,4)8/h1,6,8H,2-4H3/t6-/m0/s1
