19
gdb 40532	4.46803	1.03775	0.967	2.1713	82.36	-0.2226	0.0064	0.229	1266.5143	0.160263	-385.866454	-385.858785	-385.857841	-385.899025	30.28	
C	-0.0928317285	 1.4540030508	-0.1459662894	-0.27211
C	 1.2920760453	 0.9469181408	 0.1236261072	-0.269407
C	 0.1303108421	-0.0325420151	 0.0783475208	-0.08328
C	-0.3585862701	-0.7186620263	 1.2869218898	 0.350095
C	-0.7637095355	-1.9972939209	 1.3513574618	-0.228749
C	-1.0965695597	-2.3811777319	 2.750268265	 0.013094
O	 0.0289734787	-2.2713137787	 3.6625323304	-0.262304
C	-0.8891237718	-1.1822848283	 3.577779342	 0.039102
C	-0.4442843885	-0.0522052914	 2.657151766	-0.356715
H	-0.5898256912	 2.0153978137	 0.6371115671	 0.117188
H	-0.3450600843	 1.7746823398	-1.150429352	 0.116765
H	 2.0028744226	 0.9107461945	-0.694224688	 0.118548
H	 1.7366901742	 1.1621403271	 1.0884197331	 0.1199
H	 0.0862555119	-0.6471976417	-0.8157381616	 0.084432
H	-0.8014223637	-2.6843945535	 0.5147075636	 0.09148
H	-1.8004779246	-3.1718982998	 2.990576907	 0.092945
H	-1.4497171161	-0.9680853069	 4.4839613421	 0.092322
H	 0.5143141909	 0.370507871	 2.9798545991	 0.12527
H	-1.1748325715	 0.7669926069	 2.6633097261	 0.111424
60.6274	131.9007	187.5506	276.1983	361.2682	397.7725	509.6993	524.1603	599.02	716.0778	783.7441	802.4102	824.7727	836.4178	845.435	861.3691	907.8064	919.9157	930.2563	969.0473	1017.3044	1025.6467	1050.5209	1058.1799	1077.9887	1109.8739	1133.4715	1187.956	1193.1058	1203.5267	1233.3498	1262.2148	1279.6107	1310.2242	1361.9319	1391.102	1417.689	1457.6486	1468.5831	1500.6732	1676.0954	3026.6866	3066.6171	3137.5412	3141.0989	3144.5788	3150.8629	3165.7208	3204.1825	3216.1398	3231.642
C1CC1C1=CC2OC2C1	C1CC1C1=C[C@H]2O[C@H]2C1	
InChI=1S/C8H10O/c1-2-5(1)6-3-7-8(4-6)9-7/h3,5,7-8H,1-2,4H2	InChI=1S/C8H10O/c1-2-5(1)6-3-7-8(4-6)9-7/h3,5,7-8H,1-2,4H2/t7-,8+/m1/s1
