19
gdb 70688	2.25636	1.83865	1.22514	3.1648	75.38	-0.2305	-0.0161	0.2143	1060.885	0.159687	-423.036816	-423.028548	-423.027604	-423.06954	31.798	
C	 0.0824166825	 1.5349448136	 0.0078764385	-0.467413
C	 0.0786533366	 0.0218225486	-0.0084471668	 0.233217
C	-0.8521800509	-0.7185455254	 0.9529712857	-0.321918
C	 0.6285577558	-0.7692607749	 1.1728842318	-0.098312
C	 1.3975886669	-2.0604181799	 0.8940394796	-0.101936
O	 1.8364154771	-2.1809257434	-0.4474964457	-0.234533
C	 0.7778413558	-2.0360274644	-1.3745507173	-0.198055
C	 0.2326029156	-0.6055047765	-1.3571975462	 0.334259
O	-0.0167133396	-0.0116662702	-2.3832337451	-0.322052
H	 1.0439370429	 1.9285107967	-0.3366561749	 0.129201
H	-0.6912982422	 1.9248355404	-0.6583181001	 0.141747
H	-0.1004772465	 1.9133026324	 1.0179104827	 0.108761
H	-1.4608531661	-0.0969596528	 1.6006002746	 0.12455
H	-1.3475763857	-1.6201348731	 0.6065827634	 0.120608
H	 1.0183459236	-0.1646665642	 1.9860385643	 0.099752
H	 2.3047009922	-2.0939956167	 1.5027435474	 0.118849
H	 0.7801860179	-2.9343459089	 1.1620952898	 0.093917
H	 1.1768094487	-2.2345410213	-2.3709569517	 0.137178
H	-0.0316755546	-2.7616596801	-1.1751218102	 0.102181
78.7744	161.9142	201.1853	221.6062	291.0812	320.2069	382.8911	437.9721	474.9147	486.884	588.7634	647.5879	741.6478	790.4193	859.3978	882.3686	927.6105	946.1833	976.5348	1000.0406	1047.4937	1058.5844	1099.8861	1119.4735	1133.7786	1140.1564	1174.7241	1245.2266	1276.2772	1320.1374	1349.3057	1355.5939	1403.5874	1405.4046	1415.7275	1470.7262	1482.5582	1490.6313	1498.9664	1502.3262	1799.9159	2941.8664	2961.9572	3041.4963	3092.1457	3108.4865	3119.3394	3123.3962	3128.4598	3153.4919	3215.1931
CC12CC1COCC2=O	C[C@]12C[C@H]1COCC2=O	
InChI=1S/C7H10O2/c1-7-2-5(7)3-9-4-6(7)8/h5H,2-4H2,1H3	InChI=1S/C7H10O2/c1-7-2-5(7)3-9-4-6(7)8/h5H,2-4H2,1H3/t5-,7-/m0/s1
