19
gdb 110907	2.98939	1.48327	1.23416	2.3781	70.88	-0.2352	0.0746	0.3098	1068.3518	0.159677	-460.122997	-460.114884	-460.11394	-460.15548	31.456	
C	 0.070769586	 1.3999514978	 0.0441060645	-0.24799
O	-0.0477578277	-0.0116234763	 0.0825964951	-0.252526
C	 0.6430092138	-0.6066633455	 1.1487681857	 0.102827
C	 0.2737372351	-2.0943886813	 1.2480364873	 0.03826
C	 1.3361366223	-2.6509911435	 2.2206417274	-0.250271
C	 2.1914676809	-2.3551469489	 0.97246742	 0.040939
O	 1.0304177485	-2.683068949	 0.1394126165	-0.30803
C	 2.1935402514	-0.8156816416	 0.861613021	 0.112272
O	 2.5765908632	-0.3680011117	-0.4119456917	-0.435539
H	 1.1098849505	 1.7118584322	-0.1120593497	 0.131437
H	-0.5400370554	 1.747592207	-0.7924825615	 0.127194
H	-0.3080749685	 1.8549431834	 0.9722125783	 0.103342
H	 0.4528456322	-0.064796282	 2.0862969129	 0.066104
H	-0.7814858704	-2.3631571582	 1.260732121	 0.089809
H	 1.5426408421	-2.1148381936	 3.1512747707	 0.098852
H	 1.2142192008	-3.7202180344	 2.393558149	 0.119265
H	 3.101049664	-2.8903174374	 0.7014258288	 0.087928
H	 2.8456085933	-0.3271354978	 1.5896330875	 0.083466
H	 1.9076823078	-0.7145237092	-1.0179789328	 0.292659
117.7115	144.9283	184.5239	220.7091	279.2951	348.7094	406.1115	418.4989	447.9203	563.0073	648.1384	791.0521	808.777	821.2595	863.0745	875.9363	903.1271	947.1554	964.7428	1015.7132	1034.3701	1076.4729	1097.175	1128.7066	1156.174	1179.3192	1185.9719	1211.0314	1228.2118	1233.1356	1264.8748	1282.5731	1296.6171	1313.2809	1326.3681	1387.543	1447.3139	1478.6019	1485.6135	1486.949	1513.0275	2986.0496	3000.7507	3063.6047	3066.0801	3087.5762	3120.3382	3130.6095	3137.3533	3146.605	3767.2821
COC1C2CC(O2)C1O	CO[C@H]1[C@@H]2C[C@@H](O2)[C@H]1O	
InChI=1S/C6H10O3/c1-8-6-4-2-3(9-4)5(6)7/h3-7H,2H2,1H3	InChI=1S/C6H10O3/c1-8-6-4-2-3(9-4)5(6)7/h3-7H,2H2,1H3/t3-,4+,5-,6+/m1/s1
