22
gdb 54144	2.28682	1.34714	1.19144	3.176	82.75	-0.2377	0.0309	0.2686	1206.9717	0.191901	-404.38351	-404.372854	-404.37191	-404.418652	39.916	
C	-0.0644157137	 1.4361430714	-0.1701846746	-0.459315
C	 0.1135164884	-0.0594374037	 0.0215712873	 0.32931
C	-0.9695637306	-0.8716658845	-0.6701336245	-0.455061
C	 1.5120308552	-0.639507988	 0.0513928148	-0.400051
C	 0.6943709264	-0.5986903748	 1.3274027034	 0.192251
C	 1.1003840729	 0.3421532906	 2.4524504691	-0.454321
C	 0.0543336165	-1.8501458237	 1.8984843391	 0.325067
N	 0.6281551612	-3.0450322267	 1.5513373282	-0.516228
O	-0.9178053452	-1.7890484779	 2.627716169	-0.371681
H	 0.7577174402	 2.0200353934	 0.2484263894	 0.114275
H	-0.1202006568	 1.6713321784	-1.2394485839	 0.115539
H	-0.9952207124	 1.7840667651	 0.2921957728	 0.123887
H	-1.002233877	-0.6285458948	-1.7384599674	 0.107329
H	-0.8005455607	-1.9472133434	-0.5773631532	 0.12517
H	-1.9547158407	-0.6519523645	-0.2444507519	 0.129535
H	 1.6728541676	-1.5850517797	-0.4580429502	 0.100997
H	 2.354681503	 0.0423847209	-0.0160040493	 0.106702
H	 1.534536963	 1.2695079159	 2.0749150712	 0.112063
H	 0.2331946859	 0.5832625022	 3.072476391	 0.145021
H	 1.8500600522	-0.1319622191	 3.0965514085	 0.113846
H	 1.5539814994	-3.0741716168	 1.1610719933	 0.258446
H	 0.2923515953	-3.8647238603	 2.0327392879	 0.257218
50.6765	134.8306	157.1095	167.3892	179.5042	223.1569	270.3688	296.608	340.4101	358.6656	376.8738	396.8331	440.356	515.2436	528.6798	594.3371	661.5223	716.0287	789.2778	848.865	913.8211	931.9202	948.3821	976.113	1023.7084	1039.4376	1070.612	1090.6378	1113.812	1150.9453	1195.4912	1208.2709	1289.241	1356.1981	1387.2469	1404.6013	1414.1609	1428.4523	1478.404	1487.0141	1488.6546	1492.7811	1500.7344	1505.9138	1518.641	1608.9089	1783.0742	3026.6977	3031.2132	3038.1792	3083.7181	3089.8152	3102.8576	3114.5853	3118.2809	3120.6977	3139.3881	3196.3655	3591.7116	3727.5725
CC1(C)CC1(C)C(N)=O	CC1(C)C[C@]1(C)C(=O)N	
InChI=1S/C7H13NO/c1-6(2)4-7(6,3)5(8)9/h4H2,1-3H3,(H2,8,9)	InChI=1S/C7H13NO/c1-6(2)4-7(6,3)5(8)9/h4H2,1-3H3,(H2,8,9)/t7-/m1/s1
