13
gdb 25047	5.75605	1.06552	0.89908	2.3937	81.53	-0.2293	-0.0773	0.152	1195.894	0.089184	-415.590216	-415.582797	-415.581853	-415.62231	27.948	
N	-0.043514548	 1.2308859293	 0.5387040226	-0.519579
C	-0.019296011	 0.0703456667	 0.0344875865	 0.375353
O	 1.1642856663	-0.5326496152	-0.3766906065	-0.217491
C	 1.1334121048	-1.772350722	-0.9080333317	-0.000561
C	-0.0136508139	-2.4714369987	-1.063734599	 0.077676
N	-1.2419365258	-1.9206018308	-0.6694072914	-0.272012
C	-1.2224524502	-0.7416763578	-0.1628486612	-0.029514
C	-0.00941146	-3.7758273584	-1.6274745258	 0.240731
C	-0.0010045112	-4.88017784	-2.105386405	-0.392188
H	 0.892143982	 1.6349910605	 0.5939869748	 0.233582
H	 2.1159509379	-2.1292943534	-1.1873416046	 0.155168
H	-2.1549415073	-0.2815789893	 0.1546222117	 0.148271
H	-0.0003424135	-5.8550576608	-2.5264314903	 0.200564
72.0258	147.7784	205.6597	363.0311	400.2147	435.5801	441.2769	533.9072	546.0479	584.4285	632.3591	679.126	740.2314	760.9028	803.2925	868.5318	888.3362	940.3478	964.1639	1062.9607	1194.0118	1249.3329	1299.5251	1325.5367	1378.3157	1604.2069	1661.6168	1735.9842	2234.8006	3171.4581	3229.9586	3488.7981	3503.3309
N=C1OC=C(N=C1)C#C	[NH]C1=C[N]C(=CO1)C#C	
InChI=1S/C6H4N2O/c1-2-5-4-9-6(7)3-8-5/h1,3-4,7H	InChI=1S/C6H4N2O/c1-2-5-4-9-6(7)3-8-5/h1,3-4,7H
