14
gdb 51453	2.77667	1.33567	1.1168	5.9968	63.73	-0.2598	-0.0486	0.2112	1075.9672	0.099656	-473.79606	-473.788247	-473.787302	-473.82919	27.895	
O	 0.5154228471	 0.0801908687	 0.0617138333	-0.269948
C	 0.786097296	 1.2034948849	-0.2291371013	 0.181325
O	 0.3678681781	 2.2520286838	 0.5316483543	-0.201455
C	 0.8321349279	 3.5444161062	 0.2278127231	 0.013498
C	 2.2263894669	 3.9762978861	 0.694012088	-0.069463
N	 3.1754361965	 3.1957517671	-0.0964801234	-0.33122
C	 2.6013371671	 4.4579147764	-0.6835260148	-0.179658
C	 1.2600099302	 4.0169097722	-1.221842796	 0.396134
O	 0.677123912	 4.126493408	-2.2558828948	-0.294011
H	 1.3677831887	 1.5103076125	-1.111635856	 0.110161
H	 0.0626215119	 4.2408105444	 0.5765680857	 0.134482
H	 2.487538047	 4.4232156627	 1.6436971356	 0.125039
H	 4.1203622382	 3.4217411558	 0.2127197054	 0.253575
H	 3.2410697023	 5.2732510512	-0.9921287392	 0.131542
76.061	108.6944	156.1537	169.4282	271.7575	330.0984	476.1242	527.9707	592.521	664.3229	766.5764	801.0471	829.332	881.3504	892.8177	959.8039	994.7763	1018.4837	1045.5121	1070.2751	1095.7578	1099.0999	1172.2141	1178.1971	1278.6151	1314.3213	1354.7354	1383.6425	1430.5401	1868.9589	1907.525	3030.3802	3074.4811	3213.4771	3224.9455	3484.074
O=COC1C2NC2C1=O	O=CO[C@H]1[C@H]2N[C@H]2C1=O	
InChI=1S/C5H5NO3/c7-1-9-5-3-2(6-3)4(5)8/h1-3,5-6H	InChI=1S/C5H5NO3/c7-1-9-5-3-2(6-3)4(5)8/h1-3,5-6H/t2-,3+,5+/m1/s1
