20
gdb 73349	2.54971	1.98096	1.63167	1.5535	81.63	-0.2161	0.0041	0.2202	939.5664	0.173522	-366.003619	-365.996497	-365.995553	-366.03449	30.14	
C	-0.0260987406	 1.5370859286	 0.0169710944	-0.475263
C	 0.010155606	 0.0127614166	 0.0048919205	 0.247487
C	 0.6778538084	-0.6153203274	-1.2507401895	-0.22618
C	 0.1670031507	-2.0717962453	-1.2175001331	-0.166512
N	-1.1844788515	-2.0240485214	-0.6071076675	-0.11911
C	-1.2649908891	-1.8594123455	 0.8848244381	-0.068609
C	-0.0101553632	-1.6725432383	 1.6722443912	-0.093139
C	 0.6792157055	-0.6226073278	 1.2207162635	-0.120696
C	-1.3688963263	-0.6920508673	-0.0306210602	-0.090574
H	 0.984976109	 1.9583779338	 0.0176771315	 0.114478
H	-0.5467976829	 1.9222175069	-0.8669637578	 0.11495
H	-0.5430490229	 1.9131316758	 0.9056613022	 0.12097
H	 0.3163413721	-0.1019328984	-2.15004106	 0.098311
H	 1.7705040822	-0.5443322027	-1.2419303765	 0.095233
H	 0.0749836534	-2.5040716463	-2.217524905	 0.103954
H	 0.8365069627	-2.7147933908	-0.6377051782	 0.105102
H	-2.1224402005	-2.3599705187	 1.3235023718	 0.088096
H	 0.2914478829	-2.3375170878	 2.4729653716	 0.097015
H	 1.6609286256	-0.310255562	 1.5625463945	 0.09424
H	-2.2813248014	-0.1444190619	-0.2523453215	 0.080247
208.1374	218.2766	268.6704	300.0265	342.9001	413.4556	534.7856	590.5076	631.2775	668.6291	725.3746	755.7408	789.7127	830.5267	843.0234	862.5461	913.6383	916.784	948.4948	955.3398	974.504	1017.0375	1041.1953	1048.2494	1101.7227	1107.2346	1163.3321	1174.2709	1179.9108	1227.9831	1251.032	1272.0469	1286.0445	1314.7531	1341.0438	1358.4134	1386.4494	1411.9261	1483.4247	1493.4469	1498.128	1502.9944	1661.2129	3026.347	3030.8165	3052.0111	3078.5841	3093.1935	3095.5194	3099.9083	3134.1689	3158.1866	3176.0866	3208.5014
CC12CCN3C(C=C1)C23	C[C@@]12CCN3[C@@H](C=C1)[C@@H]23	
InChI=1S/C8H11N/c1-8-3-2-6-7(8)9(6)5-4-8/h2-3,6-7H,4-5H2,1H3	InChI=1S/C8H11N/c1-8-3-2-6-7(8)9(6)5-4-8/h2-3,6-7H,4-5H2,1H3/t6-,7-,8-,9?/m0/s1
