15
gdb 73003	2.61409	1.6827	1.27828	1.5424	63.	-0.2432	-0.0472	0.1961	973.6281	0.110247	-494.850433	-494.842516	-494.841572	-494.882474	30.47	
O	-0.2412315056	 1.4012420856	 0.0646271167	-0.447886
C	-0.1444417016	 0.0440872537	 0.0492456719	 0.302667
C	 0.6042779364	-0.7201285909	-1.0279691475	-0.15588
O	-0.3297154876	-1.8440534532	-0.8998748156	-0.297498
C	-1.1290481946	-1.0986651573	 0.0144132452	-0.061111
C	-0.266759318	-0.8858547633	 1.277645022	 0.211943
O	 0.6818862797	-1.8343339415	 1.6376306235	-0.478416
C	-0.9775079674	-0.2787945424	 2.4146003447	 0.107713
O	-1.6621808592	 0.7264729018	 2.3271136284	-0.312108
H	-0.8410809869	 1.6232650174	 0.7994030935	 0.312239
H	 0.5085875361	-0.2625086687	-2.0156026363	 0.140725
H	 1.6375507468	-1.0125708204	-0.8240498383	 0.130036
H	-2.205068608	-1.2267549488	 0.0056396353	 0.13345
H	 0.6363961387	-2.5325413582	 0.9690025337	 0.300598
H	-0.8351383788	-0.8061557938	 3.3778482729	 0.113528
133.2688	206.503	218.8427	270.4212	287.5794	311.9518	388.8303	447.0885	471.3673	542.1316	577.2779	653.3272	685.0909	717.1836	749.923	887.1803	955.1613	978.0007	1023.5351	1048.3324	1062.0318	1068.6039	1150.3747	1168.4745	1218.8475	1233.5463	1302.8502	1366.6037	1413.378	1427.0894	1461.274	1503.9262	1759.1725	2953.6024	3062.9364	3126.8712	3188.9948	3629.232	3742.1588
OC12COC1C2(O)C=O	O[C@]12CO[C@H]1[C@]2(O)C=O	
InChI=1S/C5H6O4/c6-1-4(7)3-5(4,8)2-9-3/h1,3,7-8H,2H2	InChI=1S/C5H6O4/c6-1-4(7)3-5(4,8)2-9-3/h1,3,7-8H,2H2/t3-,4+,5+/m0/s1
