22
gdb 86383	2.47209	1.48062	1.12131	2.0159	81.74	-0.2259	0.0682	0.2941	1189.7062	0.193966	-404.340336	-404.33105	-404.330106	-404.373668	36.226	
C	-0.0477836397	 1.5426363821	 0.0035256186	-0.392664
C	 0.0569133335	 0.022281079	 0.0196095827	 0.066891
C	 0.697326884	-0.6050236269	-1.2388810891	-0.299307
C	 1.3279351217	-1.9141102075	-0.719364722	 0.066847
O	 2.5289172274	-2.2991399435	-1.373972759	-0.439261
C	 1.6100598133	-1.6400102211	 0.754329876	 0.358488
C	 1.7353887006	-2.8251984402	 1.6767675295	-0.48952
C	 2.2857770889	-0.34795268	 1.0404882652	-0.295415
N	 0.8243636017	-0.4699668915	 1.1919482022	-0.144935
H	 0.9391866385	 2.0036381513	-0.1107128967	 0.114683
H	-0.6747147029	 1.8790609057	-0.8284833097	 0.112318
H	-0.4879271292	 1.9072837121	 0.9359379955	 0.125659
H	-0.9513481976	-0.3934749822	 0.1451254974	 0.078835
H	-0.0325478635	-0.770744765	-2.0363279723	 0.094424
H	 1.4891447828	 0.0303946199	-1.6491519884	 0.108031
H	 0.5921766588	-2.7327359796	-0.7769150414	 0.063019
H	 2.3045517609	-2.5945397311	-2.2617306676	 0.283356
H	 2.5742653632	-3.4568547983	 1.3660310966	 0.129359
H	 1.9049316064	-2.5031091198	 2.7071676083	 0.122136
H	 0.8255604519	-3.4364534622	 1.6576410904	 0.112246
H	 2.8215478689	-0.2283409817	 1.97787747	 0.110246
H	 2.6969570905	 0.2269346904	 0.2160093639	 0.114564
114.1086	150.5421	190.1948	228.5951	239.4182	249.3066	271.8231	319.5455	407.6324	438.7719	479.7071	555.4727	577.6026	614.3811	696.564	776.3076	836.9573	881.9937	927.7547	943.251	951.8051	990.754	1022.13	1079.5789	1093.4302	1100.2361	1106.5972	1118.3211	1142.079	1175.4626	1206.6326	1238.255	1267.4016	1278.7779	1348.5233	1355.8163	1374.7537	1389.95	1406.0162	1416.3424	1441.8139	1485.453	1488.7475	1490.0281	1496.6956	1498.3119	1523.0057	2964.7094	3014.3604	3029.9711	3035.5771	3050.0743	3093.3938	3095.21	3104.1501	3114.0514	3115.3139	3120.4874	3196.3909	3820.5435
CC1CC(O)C2(C)CN12	C[C@H]1C[C@@H](O)[C@@]2(C)CN12	
InChI=1S/C7H13NO/c1-5-3-6(9)7(2)4-8(5)7/h5-6,9H,3-4H2,1-2H3	InChI=1S/C7H13NO/c1-5-3-6(9)7(2)4-8(5)7/h5-6,9H,3-4H2,1-2H3/t5-,6+,7+,8?/m0/s1
