18
gdb 67197	2.89026	1.53532	1.23783	1.9642	81.86	-0.2362	0.0397	0.2759	1060.8073	0.146976	-364.714741	-364.706762	-364.705818	-364.746938	31.447	
C	-0.0519584258	 1.5533106893	-0.0867870113	-0.532588
C	 0.0981869298	 0.0749482818	 0.010637752	 0.359685
C	 0.6620668256	-0.9810788535	-0.8651530814	-0.087406
C	 1.3779378503	-1.6652111849	 0.2955867252	-0.26248
C	 0.3486893528	-0.9430633565	 1.201095746	-0.118175
C	-0.9825237365	-1.5957553051	 0.754627965	-0.159057
C	-2.1663420055	-1.1191442032	 1.445636887	 0.337154
C	-3.1336870844	-0.7312461942	 2.0446310279	-0.433069
N	-0.8272294602	-0.9287125186	-0.593287788	-0.178219
H	 0.8754567708	 2.0665889837	 0.1901989477	 0.12167
H	-0.3069566806	 1.8335626879	-1.1134988134	 0.136327
H	-0.8508859052	 1.9108114609	 0.5711395824	 0.136704
H	 0.9437698821	-0.9329653486	-1.9092369744	 0.099737
H	 1.4110537796	-2.7594651039	 0.3376809839	 0.096918
H	 2.3856269122	-1.2605489715	 0.4209985809	 0.108113
H	 0.5558394466	-0.7217645819	 2.2457679568	 0.084233
H	-0.989287915	-2.6922724837	 0.7050264003	 0.09544
H	-3.9962231067	-0.393196968	 2.5635826633	 0.195014
103.6069	155.1154	207.9254	237.5341	281.7583	377.6773	461.6755	490.6318	504.4271	614.1114	624.6296	647.6527	727.5944	785.2873	836.3061	848.5699	892.155	914.2827	950.4341	976.0086	995.3353	1040.2387	1061.0044	1079.6036	1099.3915	1126.6339	1150.1174	1170.0814	1219.0913	1228.617	1265.2507	1282.2347	1351.2866	1400.5549	1450.3426	1479.519	1492.353	1499.5853	2237.8609	3021.23	3030.9675	3041.3265	3096.2649	3102.8381	3109.853	3142.6346	3199.6476	3503.8856
CC12C3CC1C(C#C)N23	C[C@@]12[C@H]3C[C@@H]1[C@@H](C#C)N23	
InChI=1S/C8H9N/c1-3-6-5-4-7-8(5,2)9(6)7/h1,5-7H,4H2,2H3	InChI=1S/C8H9N/c1-3-6-5-4-7-8(5,2)9(6)7/h1,5-7H,4H2,2H3/t5-,6-,7-,8+,9?/m1/s1
