19
gdb 81603	4.61847	0.91949	0.87591	4.7087	81.55	-0.2393	0.0282	0.2675	1371.0731	0.159361	-382.001577	-381.993178	-381.992234	-382.035095	31.886	
C	-0.3820829061	 1.5339267468	 0.7001442435	-0.446229
C	-0.0433459625	 0.0657209469	 0.5181652433	 0.070553
C	 1.2331483416	-0.4222371343	-0.2375343038	-0.034354
C	 2.0933802947	 0.0143134161	 0.9817000025	-0.258898
C	 0.8427062696	-0.7305516166	 1.5272005019	-0.031455
N	 0.948514881	-1.7694662481	 0.4152827743	-0.111613
C	 2.0362403108	-2.748702855	 0.468803746	-0.301728
C	 1.707197749	-3.8047943012	 1.4319539752	 0.281322
N	 1.463344137	-4.6282614177	 2.2044060948	-0.308492
H	 0.466879727	 2.1529903276	 0.9990878632	 0.12046
H	-0.7809105703	 1.9466293074	-0.232713757	 0.12553
H	-1.1594297035	 1.647501746	 1.4632122519	 0.127903
H	-0.9220523125	-0.5124312096	 0.2224864052	 0.090664
H	 1.4610957622	-0.3460660647	-1.3028198408	 0.083578
H	 3.0625882624	-0.466718403	 1.1133018171	 0.103273
H	 2.1849489019	 1.0811039156	 1.1877976344	 0.105097
H	 0.6085346623	-1.0234500457	 2.551646473	 0.098738
H	 2.1226024059	-3.2038044647	-0.5250837659	 0.154344
H	 3.0355534695	-2.3657578057	 0.7287019913	 0.131309
49.2563	106.1205	175.1653	229.2569	266.2715	366.4927	385.2404	412.1896	462.7875	579.4347	605.2656	728.3721	779.8255	796.7736	818.8199	884.5505	903.7635	953.6422	997.3809	1008.0079	1024.375	1053.1228	1069.1947	1092.3097	1113.5964	1134.4624	1163.0893	1182.7284	1201.8303	1237.0675	1248.4745	1261.459	1284.4482	1364.0217	1393.1549	1420.0134	1473.7545	1495.081	1497.9586	1539.9777	2366.0917	2984.3065	3040.1595	3056.0375	3082.6055	3088.3887	3096.8488	3097.7748	3113.3553	3124.693	3142.3745
CC1C2CC1N2CC#N	C[C@H]1[C@H]2C[C@@H]1N2CC#N	
InChI=1S/C7H10N2/c1-5-6-4-7(5)9(6)3-2-8/h5-7H,3-4H2,1H3	InChI=1S/C7H10N2/c1-5-6-4-7(5)9(6)3-2-8/h5-7H,3-4H2,1H3/t5-,6+,7-
