20
gdb 113908	4.09326	0.71544	0.65179	2.6997	76.39	-0.237	0.0364	0.2734	1697.888	0.169596	-440.298121	-440.287719	-440.286775	-440.334902	36.856	
N	 0.404612477	 0.0998357786	 1.0560158616	-0.510913
C	 0.0081325909	 0.1407734444	-0.2478801886	 0.382229
O	 0.4473779573	 0.9483568657	-1.0427968279	-0.365256
C	-1.0639005811	-0.8819927371	-0.6430242787	-0.313854
C	-1.0627809881	-2.1797767492	 0.1417207947	-0.041432
C	-1.8486257826	-2.3350242132	 1.430839661	-0.293603
C	-2.2505773169	-3.1121037978	 0.2025693332	-0.009565
C	-3.5572814963	-2.8272490821	-0.491008958	-0.097438
O	-4.5749788924	-3.5363520924	 0.2040569623	-0.419993
H	 1.0800202179	 0.7762199862	 1.3706612995	 0.258157
H	 0.0288920217	-0.5690079618	 1.7047823395	 0.266639
H	-2.0286132035	-0.3702753603	-0.5454154762	 0.124918
H	-0.9194354295	-1.063602784	-1.7120883588	 0.131432
H	-0.1027061411	-2.689766335	 0.1206477715	 0.097404
H	-1.4066472562	-2.8712485607	 2.2638465747	 0.115252
H	-2.497557979	-1.5143550372	 1.7233906238	 0.118875
H	-2.0083094392	-4.1711056819	 0.2143742646	 0.096251
H	-3.7639053542	-1.7463591806	-0.4955512101	 0.083314
H	-3.498464408	-3.151629923	-1.5424527115	 0.091126
H	-5.3965332966	-3.4343583386	-0.2857716465	 0.286457
36.2898	56.6843	94.5729	110.5041	185.1344	202.9334	251.6113	274.7873	314.4417	411.669	447.8401	514.5446	546.6983	590.8715	680.7343	789.8229	836.7225	870.9496	881.0537	903.4635	935.1269	1002.8547	1050.97	1061.656	1072.8565	1102.9871	1141.1038	1147.4536	1184.0986	1236.0815	1247.9623	1259.0549	1281.8356	1306.7481	1354.2773	1385.6883	1422.7512	1462.0575	1471.8828	1495.9675	1519.2126	1606.778	1800.6744	2968.8213	2999.2491	3046.9469	3093.0345	3122.2073	3133.2373	3150.0251	3207.8549	3603.274	3742.212	3825.8859
NC(=O)CC1CC1CO	NC(=O)C[C@H]1C[C@H]1CO	
InChI=1S/C6H11NO2/c7-6(9)2-4-1-5(4)3-8/h4-5,8H,1-3H2,(H2,7,9)	InChI=1S/C6H11NO2/c7-6(9)2-4-1-5(4)3-8/h4-5,8H,1-3H2,(H2,7,9)/t4-,5+/m1/s1
