17
gdb 118624	1.89848	1.0044	0.68252	2.9086	72.51	-0.2727	-0.0051	0.2677	1577.8926	0.132036	-458.936599	-458.926282	-458.925338	-458.97328	35.193	
O	 0.0809095625	 1.4502237745	-0.1305775923	-0.41494
C	 0.0708178626	 0.035516026	-0.0528063727	-0.07922
C	-1.3555419983	-0.5210789062	 0.015694118	-0.211986
C	-1.402995297	-2.051848601	 0.0051294301	-0.11704
O	-0.7240422825	-2.5008689858	 1.2046262172	-0.185812
C	-0.2854668416	-3.7778184069	 1.220124434	 0.178099
O	 0.268144717	-4.2509023328	 2.1650780412	-0.268254
C	-2.7681252091	-2.5694091567	-0.0405124159	 0.346228
C	-3.8923212081	-2.9906840508	-0.0799085548	-0.430194
H	-0.1769522469	 1.7970951458	 0.7292911901	 0.286452
H	 0.5621310146	-0.3167219216	-0.9676825573	 0.111364
H	 0.6608566059	-0.3308866054	 0.7974082663	 0.118039
H	-1.8580327539	-0.1689086362	 0.9238275788	 0.119282
H	-1.9289145935	-0.1503000511	-0.8392272519	 0.128305
H	-0.8463895622	-2.4250604128	-0.8666599313	 0.119202
H	-0.4865386672	-4.3177460547	 0.2755270736	 0.089049
H	-4.8854222623	-3.367057834	-0.1135208931	 0.211427
46.7575	83.8527	94.943	114.2754	122.0875	212.8254	239.9764	284.8738	299.5154	345.7271	441.4132	510.6423	582.0572	641.7184	661.6056	686.8469	795.1723	925.6213	990.3209	1037.1875	1041.6829	1064.1247	1075.4333	1106.7866	1154.8077	1207.6141	1276.5141	1310.7959	1353.0386	1361.4167	1406.7841	1421.1059	1435.894	1476.25	1514.4445	1869.709	2240.4414	2961.4992	3003.9378	3018.7115	3049.1359	3064.3117	3105.3241	3500.0759	3819.9581
OCCC(OC=O)C#C	OCC[C@@H](OC=O)C#C	
InChI=1S/C6H8O3/c1-2-6(3-4-7)9-5-8/h1,5-7H,3-4H2	InChI=1S/C6H8O3/c1-2-6(3-4-7)9-5-8/h1,5-7H,3-4H2/t6-/m0/s1
