21
gdb 68215	3.34288	1.39905	1.29257	1.3612	83.12	-0.2197	0.0879	0.3076	1096.2441	0.182703	-387.064652	-387.056743	-387.055799	-387.096453	32.813	
C	-0.1425766032	 1.4714519335	-0.0002780065	-0.490883
C	 0.0690970105	-0.0150379514	 0.0350335866	 0.441179
C	 1.0334298572	-0.8051720169	-0.8958628875	-0.271602
C	 0.7174734869	-1.9307457839	 0.13887026	-0.146998
C	 0.7053154013	-0.8016954267	 1.2170704103	-0.271602
C	-0.7747185965	-2.0762155463	-0.0926082777	 0.515304
C	-1.4450600058	-3.0832020318	-0.9677290535	-0.35604
C	-1.6793816488	-3.0807240892	 0.5412396824	-0.356041
O	-1.1881561577	-0.7095382251	-0.1590587087	-0.353893
H	 0.8051638059	 1.997235374	 0.1458875241	 0.116243
H	-0.5651702852	 1.7761318492	-0.9628101084	 0.127501
H	-0.8367998083	 1.779052309	 0.7879605292	 0.127498
H	 0.7167318646	-0.9515498396	-1.931158779	 0.099507
H	 2.0661352002	-0.4549996107	-0.8430023206	 0.094394
H	 1.3080897909	-2.8408475715	 0.232082786	 0.070374
H	 1.7055920233	-0.4511798093	 1.4787582538	 0.094394
H	 0.0894887246	-0.9449020824	 2.1080312609	 0.099507
H	-2.2559987665	-2.7299993155	-1.5951196747	 0.121029
H	-0.8501468956	-3.8825272268	-1.398494085	 0.109551
H	-1.2435201078	-3.8783736055	 1.1346879811	 0.109551
H	-2.6422136899	-2.725909023	 0.892029827	 0.121029
134.5809	208.4901	224.8933	231.5849	327.4643	353.5445	456.4157	496.2373	527.392	546.9673	640.6954	729.8733	763.3119	818.2456	852.9647	875.196	878.3721	884.336	912.8364	955.6477	966.3307	977.2068	999.4242	1030.313	1046.0159	1051.7855	1067.8483	1072.4298	1107.7818	1172.8548	1185.5382	1187.1192	1214.8928	1233.5409	1248.5724	1282.6379	1331.8239	1394.1169	1421.1999	1450.3156	1469.3776	1480.8155	1493.3548	1498.339	1516.0455	3039.9456	3062.2669	3068.8295	3109.6992	3117.6264	3124.7917	3127.0931	3129.5527	3130.2117	3135.2571	3209.5895	3223.7638
CC12CC(C1)C1(CC1)O2	C[C@@]12C[C@@H](C1)C1(CC1)O2	
InChI=1S/C8H12O/c1-7-4-6(5-7)8(9-7)2-3-8/h6H,2-5H2,1H3	InChI=1S/C8H12O/c1-7-4-6(5-7)8(9-7)2-3-8/h6H,2-5H2,1H3/t6-,7+
