19
gdb 79901	3.93606	1.36333	1.1834	1.9382	74.25	-0.2365	0.0664	0.3029	1063.6033	0.161652	-422.974834	-422.967669	-422.966725	-423.006046	29.419	
O	 0.267283795	 1.3945744401	-0.1848762684	-0.448857
C	 0.0723442813	 0.0167824769	-0.0383187064	 0.178145
C	-0.016933255	-0.6529165029	 1.362340698	-0.14263
C	-1.4721473981	-0.0910345061	 1.4874060116	-0.018851
C	-2.4157426762	-0.850070038	 2.4189750991	-0.267723
C	-2.6194551429	-2.2596875506	 1.861961779	-0.064696
O	-1.4048234922	-2.7914227849	 1.3516299407	-0.278844
C	-0.6585773615	-1.8610311433	 0.6155040127	 0.16802
C	-1.3561636182	-0.6016486932	 0.0020659062	-0.171419
H	-0.3037562369	 1.8667057529	 0.42920091	 0.285178
H	 0.7652254207	-0.4551062108	-0.740636322	 0.083392
H	 0.7443207908	-0.6891275594	 2.1433924867	 0.071344
H	-1.5605869626	 0.9916513343	 1.625566	 0.043802
H	-1.9870219249	-0.8821192874	 3.4281502982	 0.106724
H	-3.3852954102	-0.3454096033	 2.4965797184	 0.100535
H	-2.9757578921	-2.9634186466	 2.6188309924	 0.106969
H	-3.3675137492	-2.2248546406	 1.0546173088	 0.094328
H	 0.0022084294	-2.4304038193	-0.0436377038	 0.079853
H	-2.1140093371	-0.5666309776	-0.7820913812	 0.07473
187.8471	222.4633	245.204	263.0739	320.4774	450.7642	481.3546	547.1352	568.7031	703.0724	735.0629	785.426	821.	842.9904	898.4005	928.6001	941.8284	976.7076	1009.0182	1034.5099	1068.146	1081.1168	1100.6813	1104.3991	1122.175	1157.5271	1179.08	1186.7629	1230.4984	1235.3244	1267.2677	1270.2738	1282.9704	1291.4107	1346.476	1375.0664	1422.4161	1425.9073	1462.5658	1483.7787	1510.0349	2981.4319	3025.5781	3040.5981	3070.3073	3072.4274	3078.8743	3091.2252	3100.3347	3107.6775	3821.2341
OC1C2C3CCOC2C13	O[C@H]1[C@H]2[C@@H]3CCO[C@H]2[C@H]13	
InChI=1S/C7H10O2/c8-6-4-3-1-2-9-7(4)5(3)6/h3-8H,1-2H2	InChI=1S/C7H10O2/c8-6-4-3-1-2-9-7(4)5(3)6/h3-8H,1-2H2/t3-,4+,5-,6-,7+
