17
gdb 123894	3.5558	1.61045	1.15656	3.0215	72.72	-0.244	0.0135	0.2575	1020.2209	0.141968	-414.218468	-414.211711	-414.210767	-414.24977	26.328	
C	 0.013510934	 1.4629924257	 0.0490602673	-0.184095
C	 1.4529484526	 2.0026770213	-0.0318427976	-0.154983
N	 2.138927182	 1.3069980516	-1.1061775624	 0.010646
N	 3.3190464095	 1.7243303773	-1.630295623	-0.264781
C	 3.5685296064	 0.7781286649	-2.522535608	 0.020241
N	 2.6397415644	-0.2140719907	-2.6009768662	-0.344756
C	 1.7534316494	 0.1510755299	-1.6878312978	 0.36948
C	 0.4666168342	-0.5136970325	-1.2868402745	-0.300572
N	-0.0749066245	 0.0056709475	-0.0268269913	-0.283204
H	-0.4488975552	 1.8059836083	 0.9790465397	 0.11889
H	-0.5756791438	 1.8764165062	-0.7786242671	 0.124775
H	 1.4720243508	 3.0766587436	-0.2373667953	 0.136687
H	 1.9894805437	 1.8326009597	 0.9100749751	 0.124025
H	 4.4549345248	 0.804662371	-3.1389643931	 0.12346
H	-0.2782821167	-0.3639659769	-2.080394428	 0.13823
H	 0.6172246374	-1.5931870957	-1.2043688022	 0.140962
H	 0.4273495511	-0.4071137813	 0.7534237346	 0.224994
102.367	187.9004	276.8172	327.1592	384.844	467.575	531.6781	670.9027	687.1486	712.9211	738.5187	800.3001	878.9884	907.1306	948.1107	978.4693	992.6601	994.4083	1121.2984	1137.4952	1162.9948	1207.8309	1215.9155	1241.8046	1292.1441	1304.1047	1327.9597	1338.9134	1373.2275	1388.2678	1438.5518	1470.6748	1484.6811	1492.0153	1497.1811	1532.7773	1557.5497	3018.9195	3028.0901	3039.4744	3091.2296	3098.0759	3098.4586	3257.5879	3511.4161
C1CN2N=CN=C2CN1	C1Cn2ncnc2CN1	
InChI=1S/C5H8N4/c1-2-9-5(3-6-1)7-4-8-9/h4,6H,1-3H2	InChI=1S/C5H8N4/c1-2-9-5(3-6-1)7-4-8-9/h4,6H,1-3H2
