17
gdb 94139	1.95247	1.56374	1.33693	3.2068	79.5	-0.2427	-0.0044	0.2382	1088.6469	0.134145	-380.816813	-380.807654	-380.806709	-380.850482	33.588	
C	-0.0209137877	 1.4828753568	-0.1275600724	-0.34357
N	-0.0603330924	 0.0532582521	 0.1036948084	-0.074739
C	-1.3132688073	-0.6160841403	 0.4982811296	-0.176936
C	-0.474966365	-1.6181152184	 1.322399708	-0.26877
C	 0.6797234068	-0.5537415204	 1.2369650592	-0.018898
C	 2.0304471378	-1.0098510032	 0.9343728997	 0.268334
C	 3.1345085501	-1.4055745149	 0.6766148283	-0.384004
C	 0.6906338517	 0.2963316158	 2.4516486845	 0.250314
N	 0.6472540426	 0.997235229	 3.3700808272	-0.345041
H	 1.0059650034	 1.7870627007	-0.3524081432	 0.138216
H	-0.6400259761	 1.7129329098	-1.0000361614	 0.129884
H	-0.3835861634	 2.0768516734	 0.7273798349	 0.122995
H	-1.9639297719	 0.0039872312	 1.1342614106	 0.108106
H	-1.8976921906	-1.0061536835	-0.3397724051	 0.115681
H	-0.8164105969	-1.8723350471	 2.3239484874	 0.135263
H	-0.2052360075	-2.5156459465	 0.7674027391	 0.13782
H	 4.1137179464	-1.7494837646	 0.4491977252	 0.205346
109.0646	123.9648	143.5215	154.5778	217.9597	238.2029	314.0337	333.4371	465.3887	493.7507	535.9628	582.3835	611.9597	646.2981	667.7759	697.279	793.1311	911.5468	954.8412	969.4958	999.5767	1090.1678	1133.0478	1170.0105	1187.4507	1206.1057	1232.17	1258.3529	1270.2225	1329.8846	1448.7365	1479.6412	1487.671	1502.7154	1526.086	2243.6326	2342.8411	2975.2061	2986.9556	3073.5407	3079.2154	3108.1879	3112.2766	3175.5611	3498.9411
CN1CCC1(C#C)C#N	CN1CC[C@]1(C#C)C#N	
InChI=1S/C7H8N2/c1-3-7(6-8)4-5-9(7)2/h1H,4-5H2,2H3	InChI=1S/C7H8N2/c1-3-7(6-8)4-5-9(7)2/h1H,4-5H2,2H3/t7-/m1/s1
