19
gdb 38249	3.21276	1.73178	1.43169	1.869	73.93	-0.2458	0.0774	0.3232	947.4215	0.162593	-422.99071	-422.98401	-422.983066	-423.021856	27.669	
C	-0.0283654841	 1.6198502878	-0.0179151171	-0.26854
C	 1.4807577451	 1.3112670143	-0.0010769604	 0.102216
C	 1.1425081998	 0.1294663046	 0.9699766742	-0.329516
C	-0.0864645089	 0.054793653	 0.0206037999	 0.281121
C	-1.364270637	-0.7305159411	-0.1032130271	-0.198314
O	-1.6477884213	-0.7214035857	-1.5204605273	-0.282211
C	-0.5209137603	-0.2522012536	-2.2845345755	-0.113325
C	 0.6385117685	-0.2835119745	-1.2892888928	 0.105003
O	 1.686469952	 0.6932935402	-1.2940693999	-0.298215
H	-0.3999055029	 2.0602288394	 0.9095287925	 0.101401
H	-0.4183371324	 2.1516792511	-0.8869789006	 0.109033
H	 2.2613050508	 2.0458707288	 0.1876705329	 0.085468
H	 1.8254455547	-0.7232414727	 0.9926681304	 0.105438
H	 0.9146688078	 0.4772097264	 1.9789925426	 0.106568
H	-1.2491732532	-1.7675287712	 0.2444701604	 0.099541
H	-2.216013174	-0.2838755187	 0.4200372496	 0.106798
H	-0.3876739363	-0.9231941693	-3.1385601211	 0.104446
H	-0.7023585138	 0.7620302732	-2.6633488368	 0.102312
H	 1.0816671157	-1.2876186422	-1.2668925236	 0.080775
81.758	238.4462	306.4131	373.4997	472.7332	505.9881	539.0937	619.3748	647.0612	754.4795	816.0231	839.9349	885.4636	892.3777	907.315	939.5396	961.1947	984.1406	1008.1802	1029.3475	1035.9258	1068.1777	1108.9923	1122.0777	1134.0749	1168.9911	1177.4026	1206.7303	1225.1901	1227.1823	1265.2507	1269.7291	1299.7068	1329.7035	1347.7759	1390.3923	1403.3618	1477.9839	1513.5239	1520.3457	1531.9159	2996.5736	3013.7124	3021.3137	3066.0993	3068.2101	3077.2052	3078.8172	3135.5892	3141.4613	3144.4351
C1C2CC11COCC1O2	C1[C@H]2C[C@]31COC[C@H]3O2	
InChI=1S/C7H10O2/c1-5-2-7(1)4-8-3-6(7)9-5/h5-6H,1-4H2	InChI=1S/C7H10O2/c1-5-2-7(1)4-8-3-6(7)9-5/h5-6H,1-4H2/t5-,6-,7+/m1/s1
