16
gdb 13063	4.26012	1.11733	0.94065	2.525	75.46	-0.2302	-0.0208	0.2094	1245.2217	0.128393	-346.590582	-346.581898	-346.580953	-346.625948	29.787	
C	 0.1774717819	 1.56856259	-0.2998960839	-0.499407
C	 0.1157445955	 0.1267306206	-0.1123459119	 0.106686
C	 0.0674962669	-1.0677640125	 0.0360832598	 0.053333
C	-0.0349437246	-2.4944971381	 0.2317132732	-0.284674
C	 0.0326159845	-3.1075752249	 1.6769277669	-0.23667
C	-1.1796292635	-4.0297926709	 1.360125174	-0.341974
C	-1.429726205	-3.1862185322	 0.1006013496	 0.39847
O	-2.3558852891	-3.0354456196	-0.6345717799	-0.280706
H	 0.9585960467	 1.8450449353	-1.0166491537	 0.148685
H	-0.773642762	 1.9592662983	-0.6781909508	 0.152943
H	 0.3951166038	 2.0831545755	 0.6426385366	 0.147636
H	 0.6579468224	-3.032476893	-0.4303072271	 0.126011
H	 0.9696406316	-3.6015671711	 1.9335422831	 0.114219
H	-0.2009683455	-2.3590892657	 2.4351238948	 0.125646
H	-0.8966334218	-5.0563369777	 1.1046225661	 0.134796
H	-2.0027895317	-4.065742614	 2.0770845731	 0.135005
16.0273	74.1674	83.1511	141.1169	245.5234	300.2878	398.7988	411.4216	469.1334	571.5035	620.6173	685.5411	767.4926	870.6125	912.6527	957.7489	1011.3188	1030.9855	1051.6021	1053.672	1068.8842	1188.3729	1195.6031	1210.0754	1229.5606	1255.5599	1330.4522	1414.5793	1441.7724	1477.0543	1478.3492	1492.6515	1902.3444	2368.283	3013.2166	3026.2686	3058.9767	3086.9819	3087.8526	3090.0313	3117.9239	3149.664
CC#CC1CCC1=O	CC#C[C@H]1CCC1=O	
InChI=1S/C7H8O/c1-2-3-6-4-5-7(6)8/h6H,4-5H2,1H3	InChI=1S/C7H8O/c1-2-3-6-4-5-7(6)8/h6H,4-5H2,1H3/t6-/m0/s1
