17
gdb 34526	3.84627	1.30771	1.23185	0.7458	86.85	-0.2145	-0.0281	0.1864	1058.4812	0.137516	-347.517096	-347.510097	-347.509153	-347.548241	29.164	
C	 0.0783468923	-1.1892844849	-0.0173403407	-0.377624
C	-0.0225469115	 0.012816797	-0.0147794494	 0.108107
C	-0.0770590257	 1.4185552898	-0.0194914591	 0.252592
C	-1.140844409	 2.2382398323	-0.0047789169	-0.193698
C	-0.6118951176	 3.6805173356	 0.0364106121	-0.104716
C	 0.6386046576	 3.4911293206	-0.8762961149	-0.201914
C	 1.1822173476	 2.3347812402	 0.0128346518	-0.166738
C	 1.1798656444	 3.060685987	 1.3693920497	-0.076843
C	 0.1155245329	 3.8623379819	 1.3855306033	-0.070209
H	 0.1472419247	-2.2485122899	-0.0186427382	 0.184509
H	-2.1841073867	 1.9565568941	 0.026367	 0.108899
H	-1.3291620694	 4.455435282	-0.2308159984	 0.064579
H	 0.3888438247	 3.1757106741	-1.892943472	 0.099074
H	 1.29524956	 4.364932671	-0.8918810221	 0.098411
H	 2.111329232	 1.848747688	-0.2791493148	 0.071572
H	 1.897681238	 2.8811367489	 2.1579591998	 0.102966
H	-0.2424934042	 4.4887998224	 2.1911738496	 0.101035
118.6719	156.2387	375.7853	432.1998	457.1188	489.8807	538.9013	570.0704	578.6216	626.2718	635.2333	734.4581	752.8366	806.8742	839.4574	864.2366	891.8038	900.5024	927.6002	930.1435	949.9895	962.5957	1038.416	1090.8653	1126.0683	1141.7029	1196.8992	1222.465	1242.9627	1262.2671	1272.6119	1287.2405	1330.7949	1492.3138	1625.6369	1655.6849	2216.3289	3056.4431	3118.094	3124.3751	3135.367	3212.5686	3230.9232	3238.8968	3504.2555
C#CC1=CC2CC1C=C2	C#CC1=C[C@@H]2C[C@H]1C=C2	
InChI=1S/C9H8/c1-2-8-5-7-3-4-9(8)6-7/h1,3-5,7,9H,6H2	InChI=1S/C9H8/c1-2-8-5-7-3-4-9(8)6-7/h1,3-5,7,9H,6H2/t7-,9-/m1/s1
