18
gdb 120181	5.10301	0.83246	0.8072	2.592	74.67	-0.2506	0.0005	0.2511	1450.768	0.147149	-439.009095	-439.00051	-438.999566	-439.043183	31.013	
C	 0.0244434983	 1.3458094759	 0.154045502	-0.223984
O	-0.0324510499	-0.0604426075	 0.1751192295	-0.239094
C	-1.3182891052	-0.5610081312	-0.134977766	-0.106926
C	-1.2303718924	-2.0737183565	-0.0921725324	 0.028037
C	-1.1650922719	-2.7651796234	 1.3053104324	-0.154642
N	-2.6424834492	-2.3992302527	 1.4597787277	-0.317375
C	-2.5503837135	-2.8946096329	 0.015552086	-0.18232
C	-1.6888616582	-4.0402233542	 0.6047299531	 0.43778
O	-1.6235035737	-5.2283729146	 0.6502076061	-0.323094
H	 1.0466918792	 1.6359122332	 0.4086926749	 0.127821
H	-0.2220615383	 1.7504011139	-0.8407331062	 0.103377
H	-0.6662031088	 1.7942711999	 0.8855286231	 0.106183
H	-2.0678440411	-0.1907185934	 0.5760121225	 0.116863
H	-1.6211235606	-0.2381978935	-1.1463640862	 0.085286
H	-0.5053919496	-2.443930504	-0.8205067563	 0.09707
H	-0.4447741717	-2.6167280418	 2.1061656135	 0.109323
H	-3.1298181006	-3.0776638242	 2.0515997958	 0.23369
H	-3.4128466627	-2.903125513	-0.6485377095	 0.102005
66.0254	90.8659	108.3797	173.3084	229.0886	306.6046	345.3245	399.1743	484.1203	583.8199	699.933	767.9563	783.9602	806.6779	859.0857	892.1633	976.5762	996.9948	1040.9007	1062.3945	1109.1264	1114.1715	1130.7245	1159.046	1175.5365	1182.6836	1187.35	1199.6831	1230.8603	1258.931	1271.0295	1280.1631	1378.2875	1431.0061	1480.3464	1485.3737	1502.6694	1529.6243	1908.8031	2953.3772	2970.8303	3013.5213	3041.5087	3094.554	3114.3862	3141.8895	3158.8618	3413.189
COCC1C2NC1C2=O	COC[C@H]1[C@H]2N[C@@H]1C2=O	
InChI=1S/C6H9NO2/c1-9-2-3-4-6(8)5(3)7-4/h3-5,7H,2H2,1H3	InChI=1S/C6H9NO2/c1-9-2-3-4-6(8)5(3)7-4/h3-5,7H,2H2,1H3/t3-,4+,5-
