21
gdb 114761	3.81804	1.04641	0.88793	2.1183	83.78	-0.2432	0.0025	0.2456	1361.7094	0.183442	-387.086607	-387.07805	-387.077106	-387.120048	33.	
C	-0.112995688	 1.5216145129	-0.1834096471	-0.394301
C	 0.0802904156	 0.0086694073	-0.0448100154	-0.178185
C	 0.741007577	-0.4336786028	 1.2760900049	-0.03135
C	 0.5726063938	-1.9557879588	 1.4820615248	-0.245343
C	 1.4526625627	-2.525262769	 2.5874798807	 0.019793
O	 2.6741177425	-3.1459606163	 2.166796975	-0.258056
C	 2.744452652	-1.883926431	 2.8636079942	 0.015827
C	 3.1103957098	-0.6844361925	 2.0690375151	-0.102801
C	 2.1962232945	-0.023773589	 1.3573965646	-0.037144
H	 0.8369668098	 2.0649201692	-0.1527975649	 0.120073
H	-0.5982119139	 1.7679068877	-1.1328785484	 0.116106
H	-0.742374921	 1.9136673555	 0.6233434039	 0.115691
H	-0.8980838109	-0.4825260349	-0.1200285259	 0.09536
H	 0.6766877195	-0.3717252429	-0.8845011588	 0.101306
H	 0.2077740065	 0.0822886031	 2.0914635187	 0.084186
H	-0.479923613	-2.1805453573	 1.6858870797	 0.096447
H	 0.8366733401	-2.4727306764	 0.5522969032	 0.118436
H	 0.9484102108	-3.0554125945	 3.3948711478	 0.089546
H	 3.1804882689	-1.9633496068	 3.8593290289	 0.089352
H	 4.1443278268	-0.3518315376	 2.0954732069	 0.092396
H	 2.4925685965	 0.8643400242	 0.8046225522	 0.092661
65.5736	103.8822	196.0681	204.9639	249.3355	334.5778	367.0377	431.6651	480.6158	537.0937	582.5005	722.3585	742.2405	782.1728	811.6145	828.3187	911.0854	921.1052	961.8436	980.9562	996.8426	1010.8828	1039.4869	1076.4696	1080.1323	1116.0041	1151.0946	1154.6875	1207.3954	1243.1499	1271.9762	1287.9606	1304.5967	1343.1252	1356.329	1373.1232	1383.9786	1414.1619	1425.9964	1462.4339	1475.5551	1488.3937	1501.0341	1505.7762	1707.3515	2965.0569	3017.7837	3033.1255	3035.7297	3051.2356	3078.4661	3099.0959	3103.8643	3104.2093	3115.9839	3150.1864	3174.0836
CCC1CC2OC2C=C1	CC[C@H]1C[C@H]2O[C@H]2C=C1	
InChI=1S/C8H12O/c1-2-6-3-4-7-8(5-6)9-7/h3-4,6-8H,2,5H2,1H3	InChI=1S/C8H12O/c1-2-6-3-4-7-8(5-6)9-7/h3-4,6-8H,2,5H2,1H3/t6-,7+,8-/m1/s1
