19
gdb 103460	2.51971	1.36517	1.1323	1.5544	71.41	-0.2273	0.0573	0.2846	1146.7287	0.156826	-460.101233	-460.091822	-460.090878	-460.135128	35.28	
C	-0.0127512022	 1.5897476766	 0.0966474762	-0.493541
C	-0.0059703938	 0.0750746816	 0.1013275727	 0.235399
C	-1.269084197	-0.584190338	-0.4421433282	-0.130887
O	-1.5043908713	-0.2919494445	-1.812431498	-0.421704
C	 1.2470353101	-0.7179307411	-0.2174033868	-0.027007
O	 2.4240453789	-0.0380986667	 0.2339706484	-0.287624
C	 1.980931928	-0.1192528195	 1.6142463318	-0.157443
C	 0.65798449	-0.7491269736	 1.184578559	 0.250885
O	-0.0586486237	-1.6682946307	 1.924859945	-0.448195
H	 0.9768369839	 1.9922478232	 0.321829911	 0.141483
H	-0.2853470138	 1.9693403181	-0.8948735787	 0.10883
H	-0.7287439814	 1.9903199896	 0.8232418849	 0.116489
H	-1.1833773807	-1.6718356307	-0.3777888676	 0.113161
H	-2.1294727475	-0.2969821129	 0.1807924842	 0.097209
H	-1.7629309883	 0.6314683214	-1.8824694543	 0.285111
H	 1.3430300337	-1.4247976823	-1.0332721935	 0.115917
H	 2.6156664766	-0.8135959861	 2.1808121192	 0.101196
H	 1.9618522696	 0.8545019459	 2.1160183885	 0.110576
H	 0.5102545489	-2.4242109304	 2.111143446	 0.290145
69.5662	155.0828	169.4432	197.143	247.4188	283.2706	306.5793	323.4443	335.3449	360.153	433.7592	518.841	542.5013	689.2293	719.8256	759.5638	906.8512	929.751	946.695	969.507	995.008	1032.5048	1043.3776	1059.3639	1081.0786	1121.5796	1146.9561	1177.0033	1213.6978	1252.2581	1295.5017	1319.007	1338.9697	1381.6944	1408.1943	1418.3634	1463.1866	1485.7904	1497.3749	1506.5701	1519.9171	2993.295	3013.0344	3028.4357	3070.5434	3083.9409	3097.4048	3125.8619	3186.3641	3786.4534	3832.1229
CC1(CO)C2OCC12O	C[C@@]1(CO)[C@H]2OC[C@@]12O	
InChI=1S/C6H10O3/c1-5(2-7)4-6(5,8)3-9-4/h4,7-8H,2-3H2,1H3	InChI=1S/C6H10O3/c1-5(2-7)4-6(5,8)3-9-4/h4,7-8H,2-3H2,1H3/t4-,5-,6+/m1/s1
