19
gdb 65177	2.7056	1.30928	1.09931	1.3756	82.53	-0.2383	0.0385	0.2768	1176.2578	0.157413	-385.827586	-385.818702	-385.817758	-385.860898	35.027	
O	 0.1830927817	 1.3522275401	 0.3776863547	-0.47195
C	 0.0841217815	-0.0120971121	 0.0781254678	 0.412109
C	 1.1448640225	-0.6107830337	-0.8161338341	-0.31979
C	 1.1701101017	-0.8537478831	 0.6805432171	-0.30464
C	-1.3145763285	-0.5610992525	 0.0189781795	-0.067059
C	-2.4309861713	 0.1109659094	 0.7563323466	-0.307787
C	-2.4167444809	 0.1527366732	-0.767337307	-0.20682
C	-2.1634169079	 1.3725378826	-1.4784460919	 0.320063
C	-1.9572623045	 2.3810573859	-2.1053770187	-0.465842
H	-0.172295209	 1.8413991006	-0.3770649133	 0.285011
H	 0.8727588264	-1.4315298456	-1.4715486547	 0.109076
H	 1.8817746095	 0.0729790556	-1.2213665323	 0.116647
H	 1.9167263139	-0.3234100767	 1.2599219557	 0.124537
H	 0.9188153501	-1.8410585594	 1.052715259	 0.110179
H	-1.3530564022	-1.6441218609	-0.0534473956	 0.090946
H	-3.1965359585	-0.4933937812	 1.2292208979	 0.11705
H	-2.181280804	 1.033356244	 1.2660103487	 0.142182
H	-3.1261148789	-0.5031176843	-1.2637375865	 0.115123
H	-1.7956220816	 3.2738862781	-2.657202993	 0.200964
64.8868	138.2207	179.4558	241.6274	253.1314	327.3298	358.6979	439.0745	478.0897	500.5192	541.0726	575.2705	624.3447	654.6704	718.5952	768.3817	771.2292	828.9874	876.1628	905.3433	931.807	952.4807	990.6987	1018.9762	1037.3743	1054.9535	1076.511	1084.7465	1121.8362	1145.4696	1189.1658	1209.7731	1252.8569	1312.0818	1366.9111	1375.3229	1430.7589	1452.9347	1477.2739	1503.811	2221.3947	3131.6324	3136.8014	3143.9156	3144.2832	3155.024	3218.0412	3232.5577	3241.9221	3500.6855	3739.3151
OC1(CC1)C1CC1C#C	OC1(CC1)[C@H]1C[C@H]1C#C	
InChI=1S/C8H10O/c1-2-6-5-7(6)8(9)3-4-8/h1,6-7,9H,3-5H2	InChI=1S/C8H10O/c1-2-6-5-7(6)8(9)3-4-8/h1,6-7,9H,3-5H2/t6-,7+/m1/s1
