16
gdb 105163	2.70722	1.19517	1.02458	4.3125	72.22	-0.2643	-0.0496	0.2147	1191.5596	0.121561	-437.877638	-437.868435	-437.867491	-437.911884	32.368	
C	 0.0639673356	 1.2574850582	 0.2717029841	-0.261673
O	-0.2960192018	-0.0562074026	-0.1544353937	-0.272569
C	 0.4396256185	-0.5497458345	-1.2029257698	 0.331709
C	 1.8328947897	-1.0966073059	-0.9347346601	-0.347318
C	 0.6970583469	-2.062262584	-1.1728884434	-0.251096
C	 0.1606410369	-2.8259530326	-0.0819948163	 0.318351
N	-0.2615944066	-3.4678946469	 0.7815775831	-0.325662
C	 0.1906134958	 0.0225048104	-2.5624798418	 0.128715
O	-0.537796372	 0.9533159186	-2.7825994917	-0.255022
H	 1.1232424386	 1.3034314069	 0.5584087916	 0.110233
H	-0.139319347	 1.9951416746	-0.5093357007	 0.148063
H	-0.5522070903	 1.4690007695	 1.1467166958	 0.144193
H	 2.5936756025	-1.0180610333	-1.7030614596	 0.141644
H	 2.1822076555	-0.99283939	 0.0851085385	 0.16188
H	 0.673205672	-2.5744948563	-2.129700687	 0.147974
H	 0.7571055858	-0.4875761622	-3.376710879	 0.080578
89.2785	110.176	119.6032	176.3354	196.0748	227.2783	292.8907	323.1679	361.4089	429.9806	529.8149	569.3229	657.1086	764.217	812.824	852.9163	910.1923	986.9207	1033.4948	1040.3192	1071.1829	1093.26	1134.8475	1177.2837	1215.9011	1227.3176	1330.5325	1386.2429	1429.2593	1464.3308	1482.7448	1484.7846	1510.6871	1831.6619	2365.0377	2856.2925	3012.6202	3099.6384	3146.0007	3147.083	3162.4078	3246.8579
COC1(CC1C#N)C=O	CO[C@]1(C[C@H]1C#N)C=O	
InChI=1S/C6H7NO2/c1-9-6(4-8)2-5(6)3-7/h4-5H,2H2,1H3	InChI=1S/C6H7NO2/c1-9-6(4-8)2-5(6)3-7/h4-5H,2H2,1H3/t5-,6+/m0/s1
