17
gdb 40986	4.05693	1.61464	1.53165	1.5663	77.1	-0.2256	-0.0026	0.223	903.3025	0.137112	-384.545881	-384.539733	-384.538789	-384.575921	26.667	
C	 0.0025346401	 1.5584189718	 0.1414635764	-0.161073
O	 1.4515614085	 1.457961918	-0.1994900104	-0.361081
C	 1.1160057262	 0.1899258629	-0.7587233764	 0.44054
C	-0.1591094482	 0.0087489876	 0.0077232662	-0.111163
C	-0.2528215277	-0.9519949565	-1.2169749973	-0.080052
C	 0.3951851664	 0.0748825759	-2.1863138799	-0.121418
C	 1.301323636	-0.6927195656	-3.1121830996	-0.105029
C	 1.8761528922	-1.6271195432	-2.3443547944	-0.099587
C	 1.3037230253	-1.3808377004	-0.9756625156	-0.167113
H	-0.1250230045	 1.9449666652	 1.154302961	 0.120945
H	-0.5132312003	 2.1950319855	-0.5819462473	 0.119305
H	-0.0589961949	-0.4820110625	 0.9774733551	 0.083206
H	-1.0382537656	-1.6624285367	-1.4892482057	 0.08427
H	-0.1987846277	 0.9057354801	-2.5627165751	 0.068909
H	 1.458232695	-0.4818828781	-4.1608871627	 0.10486
H	 2.6129497709	-2.3733222986	-2.6048269865	 0.105737
H	 1.5506790883	-2.0130742254	-0.1236563977	 0.078744
243.8546	277.5362	311.6184	482.4426	496.2082	546.0553	631.2508	698.3277	712.7758	762.1435	763.8622	812.0018	843.7074	862.9834	910.405	914.6665	941.4205	958.6308	989.472	1009.5707	1027.0425	1045.1998	1075.7259	1114.3824	1132.8523	1136.1741	1143.2076	1148.94	1171.4739	1226.8034	1254.6532	1300.6988	1313.1592	1340.7929	1373.4877	1497.4287	1620.3188	3060.9936	3074.7201	3087.0409	3127.9117	3135.769	3138.7137	3221.4306	3247.4281
C1OC23C1C1C2C=CC31	C1O[C@@]23[C@@H]1[C@H]1[C@@H]2C=C[C@@H]31	
InChI=1S/C8H8O/c1-2-5-7-4(1)8(5)6(7)3-9-8/h1-2,4-7H,3H2	InChI=1S/C8H8O/c1-2-5-7-4(1)8(5)6(7)3-9-8/h1-2,4-7H,3H2/t4-,5+,6-,7-,8-/m0/s1
