19
gdb 62645	2.85224	1.72129	1.2553	2.5546	75.45	-0.2405	0.0667	0.3072	1027.4123	0.158153	-422.957745	-422.949738	-422.948794	-422.989437	33.005	
C	-0.2059658399	 1.5460227068	-0.047397802	-0.477319
C	-0.0100671501	 0.0412152393	-0.0311267473	 0.408938
O	-1.2368413127	-0.6379049963	-0.3219727775	-0.491346
C	 1.2451692516	-0.5811369384	-0.6875282951	-0.187243
C	 2.1291529564	-0.305646979	 0.5740033842	-0.070023
C	 2.5968700365	-1.7778340946	 0.6697708005	-0.312288
C	 1.1316865995	-1.8571663668	 0.2406284343	 0.434612
O	 0.4247471865	-3.0088701026	 0.0050232205	-0.480319
C	 0.7098619539	-0.6338026064	 1.1475898837	-0.153952
H	 0.7167024323	 2.0698406827	 0.2173512119	 0.124764
H	-0.5060908851	 1.8907594035	-1.045417012	 0.106468
H	-0.9886139474	 1.8388925522	 0.6594971633	 0.126881
H	-1.5887758467	-0.2844730002	-1.1462268566	 0.278973
H	 1.5753482934	-0.5557441292	-1.7280730205	 0.063909
H	 2.6998882659	 0.599003317	 0.76774327	 0.079209
H	 3.3428041217	-2.1049977016	-0.0612787273	 0.095482
H	 2.8375745282	-2.1532424149	 1.6693537572	 0.096419
H	-0.4742744252	-2.7211872815	-0.2092295046	 0.286842
H	 0.4235760313	-0.6670364402	 2.1998981874	 0.069992
181.1825	201.4369	237.1943	296.3451	323.1128	332.599	401.5026	408.3656	493.9785	531.4596	544.0681	624.2553	693.2706	726.1055	822.0923	859.3975	863.0106	893.8263	923.6756	933.5608	984.9354	1007.5346	1048.4843	1052.9439	1089.1344	1107.1029	1126.005	1139.9214	1154.4656	1166.3972	1186.6976	1211.4003	1248.5489	1273.6776	1345.4794	1383.7733	1409.7335	1420.0352	1488.9454	1495.1258	1519.6181	3022.7117	3041.7693	3088.3714	3093.7534	3101.0664	3106.1501	3117.3467	3147.566	3748.5596	3803.537
CC1(O)C2C3CC2(O)C13	C[C@@]1(O)[C@H]2[C@@H]3C[C@@]2(O)[C@H]13	
InChI=1S/C7H10O2/c1-6(8)4-3-2-7(4,9)5(3)6/h3-5,8-9H,2H2,1H3	InChI=1S/C7H10O2/c1-6(8)4-3-2-7(4,9)5(3)6/h3-5,8-9H,2H2,1H3/t3-,4+,5-,6+,7-
