21
gdb 107848	3.36498	1.42277	1.35071	1.0315	81.81	-0.2381	0.0918	0.3299	1063.8287	0.184417	-387.049987	-387.042432	-387.041488	-387.081903	30.863	
C	-0.0182919635	 1.3222419548	 0.0500252946	-0.263986
O	-0.0601312333	-0.0835512398	-0.0832047579	-0.304801
C	 0.649250655	-0.5757329676	-1.1701935099	 0.448889
C	 2.2019470777	-0.4703398656	-1.2948642449	-0.307749
C	 2.0146175787	-1.721411448	-2.1659235405	-0.032256
C	 0.8668951954	-1.4646193596	-3.2439992963	-0.040293
C	 0.0571218264	-2.6127729198	-2.5807159576	-0.241731
C	 0.7811108115	-2.1480944359	-1.3100620469	-0.083136
C	 0.2055213768	-0.2220290047	-2.6132591402	-0.272801
H	 1.0119776225	 1.690413754	 0.1623727222	 0.110243
H	-0.476896961	 1.8321068102	-0.8094494607	 0.109663
H	-0.5824335185	 1.5756218311	 0.9505195993	 0.12626
H	 2.6380625472	 0.4374228985	-1.7241417508	 0.085551
H	 2.7029684812	-0.7238258497	-0.3557788347	 0.099262
H	 2.8198201405	-2.4035947895	-2.4312491231	 0.068486
H	 1.0737134905	-1.44923398	-4.313975372	 0.060089
H	-1.0355770664	-2.5692905235	-2.6362925286	 0.090536
H	 0.4034199211	-3.6044250637	-2.8869855781	 0.09467
H	 0.8550548964	-2.7144536524	-0.3828460643	 0.069635
H	-0.880755048	-0.2122664298	-2.741815268	 0.095368
H	 0.6145742997	 0.729732291	-2.9639146615	 0.088099
80.4638	181.7646	205.9724	305.3943	366.2833	439.0396	474.3652	476.7917	602.7839	644.7273	733.1014	802.0894	818.6769	847.6953	880.3431	903.9217	941.9639	966.0386	985.4043	989.72	1002.3693	1032.5042	1036.9554	1064.8452	1081.3211	1137.6757	1144.2053	1163.3408	1181.9582	1192.4578	1198.7445	1210.3424	1229.5787	1237.0222	1257.9735	1271.1995	1285.9996	1304.3378	1345.1625	1481.6532	1485.4923	1489.1603	1499.1462	1507.6965	1518.4353	2986.7965	3034.519	3040.8139	3041.2619	3051.2856	3095.2212	3098.5347	3102.1424	3111.5479	3116.8874	3127.0703	3137.7046
COC12CC3C(CC13)C2	CO[C@@]12C[C@@H]3[C@@H](C[C@H]13)C2	
InChI=1S/C8H12O/c1-9-8-3-5-2-7(8)6(5)4-8/h5-7H,2-4H2,1H3	InChI=1S/C8H12O/c1-9-8-3-5-2-7(8)6(5)4-8/h5-7H,2-4H2,1H3/t5-,6+,7-,8-/m0/s1
