21
gdb 50341	3.07544	1.27891	1.20439	3.0151	81.61	-0.2436	-0.0199	0.2238	1132.5606	0.18579	-387.12508	-387.11747	-387.116525	-387.15759	30.408	
O	 0.1432604946	-0.1610517513	 0.0045470081	-0.261602
C	 0.0926388199	 1.0290562692	-0.177360711	 0.145919
C	 1.2741710062	 1.9633980282	-0.0948236786	-0.048541
C	 1.3058339259	 3.0355200811	-1.2368272881	-0.252338
C	 1.4202462077	 4.3750441737	-0.4734305951	 0.007134
C	 0.0552608693	 4.6774489166	 0.1881888968	-0.208266
C	-0.009436413	 3.6388796021	 1.3550698331	-0.218482
C	 1.3102868507	 2.8461093494	 1.193785264	-0.024969
C	 2.2744793064	 3.9641710709	 0.7441892728	-0.221894
H	-0.8751664145	 1.520663093	-0.4363043605	 0.069873
H	 2.1693126474	 1.3356570247	-0.1130608595	 0.091776
H	 2.1648571627	 2.8669992024	-1.8918533831	 0.105689
H	 0.4089353801	 2.99975856	-1.8659645978	 0.098644
H	 1.8067544145	 5.1932386936	-1.0838384126	 0.06065
H	 0.022668056	 5.7019214141	 0.5704232438	 0.097749
H	-0.7728091678	 4.5706045421	-0.5190456855	 0.095364
H	-0.0164273728	 4.1422991952	 2.3263785016	 0.101427
H	-0.9028477566	 3.0111860411	 1.3217286874	 0.10203
H	 1.5970908013	 2.2790682611	 2.0807164274	 0.071863
H	 3.2700531246	 3.5978209688	 0.4755516809	 0.094348
H	 2.3779530673	 4.7593093841	 1.4896372459	 0.093627
68.0476	92.9163	272.9749	312.0454	382.3293	405.4435	431.4909	467.5571	587.5598	755.9682	769.8752	813.9573	819.3738	838.8324	894.6589	929.9318	935.2845	951.9827	965.639	968.1849	989.5351	1028.3849	1037.9324	1083.1871	1111.632	1132.7044	1146.6854	1182.5144	1195.9541	1231.8918	1263.9705	1276.6704	1282.6461	1297.0813	1310.717	1324.1096	1342.0751	1350.9179	1354.1572	1428.1736	1487.7298	1495.1535	1499.3677	1521.5501	1826.3866	2846.2661	3038.2183	3046.7627	3048.0203	3059.4532	3067.8386	3083.5114	3088.9744	3097.1424	3098.6256	3105.4196	3107.1266
O=CC1CC2CCC1C2	O=C[C@H]1C[C@H]2CC[C@@H]1C2	
InChI=1S/C8H12O/c9-5-8-4-6-1-2-7(8)3-6/h5-8H,1-4H2	InChI=1S/C8H12O/c9-5-8-4-6-1-2-7(8)3-6/h5-8H,1-4H2/t6-,7+,8+/m0/s1
