20
gdb 113666	2.82716	1.12274	0.89324	2.2367	77.41	-0.2519	0.035	0.2869	1372.4025	0.169507	-440.300941	-440.290973	-440.290029	-440.336357	35.115	
C	-0.131071627	 1.3209689015	 0.5814815183	-0.388384
C	-0.0926863944	-0.1813890539	 0.2761494182	-0.194669
C	-1.4453659199	-0.7417345521	-0.1090163846	 0.016824
C	-1.7532729948	-2.2046528967	 0.0339721895	-0.261331
N	-2.395766521	-1.2211238074	 0.8825122405	-0.13495
C	-2.2453394729	-1.1334055918	 2.2530348951	 0.483652
O	-2.0278386376	-0.1184675748	 2.8734940707	-0.400404
O	-2.4637081992	-2.3394738775	 2.8241405024	-0.238033
C	-2.4617910848	-2.3324026232	 4.254675311	-0.229492
H	 0.8698792052	 1.6947187401	 0.8172257669	 0.109697
H	-0.5014058086	 1.8854465035	-0.2815078879	 0.109677
H	-0.7871386636	 1.5178738874	 1.4317082119	 0.160947
H	 0.5965642836	-0.3774977975	-0.5556018197	 0.10203
H	 0.2965638419	-0.7320022573	 1.1403798929	 0.103912
H	-1.9300560392	-0.2150064516	-0.9308486863	 0.099884
H	-2.3972240646	-2.7089535924	-0.6814462933	 0.12378
H	-0.9915140336	-2.8335690977	 0.4884102667	 0.128157
H	-1.4998230444	-1.9865752078	 4.641683518	 0.137302
H	-3.2489531882	-1.6793316607	 4.6402868687	 0.140809
H	-2.644113487	-3.36476669	 4.5545660108	 0.130592
64.3698	104.4751	118.1369	130.6064	169.1172	181.2372	239.3629	264.6904	322.547	397.3105	458.6701	523.7167	605.7368	765.8789	797.7782	804.3226	838.7729	929.4219	963.4258	996.7564	1052.0933	1068.0221	1095.0263	1126.7722	1146.1826	1166.2564	1182.2277	1197.2024	1212.5492	1233.5695	1291.5386	1343.1055	1388.2923	1410.5067	1438.305	1476.925	1480.6442	1481.7197	1497.7973	1501.6056	1515.8217	1517.6651	1798.1842	3023.1176	3037.3786	3049.9199	3063.3914	3100.7724	3106.7234	3112.8072	3123.7593	3140.1881	3154.543	3193.9098
CCC1CN1C(=O)OC	CC[C@H]1CN1C(=O)OC	
InChI=1S/C6H11NO2/c1-3-5-4-7(5)6(8)9-2/h5H,3-4H2,1-2H3	InChI=1S/C6H11NO2/c1-3-5-4-7(5)6(8)9-2/h5H,3-4H2,1-2H3/t5-,7?/m0/s1
