14
gdb 16934	3.78794	2.18861	1.95984	1.1208	55.89	-0.2462	-0.0291	0.2171	716.1579	0.108872	-419.693533	-419.687655	-419.686711	-419.723565	22.949	
O	-0.0025344029	 0.0180211008	 0.0843362054	-0.309199
C	-0.0376213979	 1.2150710666	 0.0243295438	 0.426235
C	-1.2639734533	 2.1467014179	-0.0217919952	-0.356688
C	-0.5338013073	 3.4992355265	 0.0269599067	 0.185523
O	-0.0070132806	 3.7043433445	 1.3356779438	-0.273209
C	 1.1706675619	 2.8811323578	 1.3922889412	-0.097968
C	 1.1441848393	 2.203396591	 0.0026731804	-0.080743
O	 0.6033121949	 3.2691535231	-0.7935540403	-0.248127
H	-1.8119727728	 2.0188370126	-0.9604707363	 0.141329
H	-1.9391673894	 1.9640028305	 0.8160811311	 0.142627
H	-1.0772916097	 4.3845849568	-0.2987798793	 0.106686
H	 2.0583765556	 3.510994772	 1.5128275102	 0.122073
H	 1.1052683343	 2.1732791374	 2.22468887	 0.126129
H	 2.0848878178	 1.8296341126	-0.3925269817	 0.115332
124.6518	237.2059	384.3475	434.6824	514.5376	613.7333	627.6397	705.0352	805.9294	819.6607	870.6663	899.436	949.2107	961.0022	977.0473	1002.7748	1031.2322	1075.4292	1129.7894	1172.8536	1183.8167	1236.6805	1258.4396	1264.7311	1321.1894	1337.2683	1373.	1439.7222	1516.4966	1876.058	3039.9177	3067.8238	3089.9473	3131.4536	3144.2276	3171.7688
O=C1CC2OCC1O2	O=C1C[C@H]2OC[C@@H]1O2	
InChI=1S/C5H6O3/c6-3-1-5-7-2-4(3)8-5/h4-5H,1-2H2	InChI=1S/C5H6O3/c6-3-1-5-7-2-4(3)8-5/h4-5H,1-2H2/t4-,5-/m0/s1
