15
gdb 14215	2.82516	2.4684	1.88661	1.7923	60.56	-0.2087	0.0653	0.274	757.5321	0.119195	-399.703559	-399.696793	-399.695849	-399.733952	27.113	
O	-0.1871799564	 1.2947062663	-0.0732038229	-0.460936
C	-0.001053266	-0.0685336975	-0.0736803958	 0.345509
C	 0.9575529302	-0.9028587906	-0.9172085867	-0.26844
C	 0.1261280705	-2.113529582	-0.4157416248	-0.129407
N	 0.4811734889	-2.1608937126	 1.0457608708	-0.307146
C	-0.3369199658	-0.9402828132	 1.1823073266	-0.210635
C	-1.0922065276	-1.0993704461	-0.120054251	 0.300367
O	-2.3823831349	-0.9650297945	-0.5504877651	-0.439472
H	 0.4997382912	 1.6960769266	 0.470910437	 0.288343
H	 0.8073882127	-0.7135905171	-1.9830928767	 0.10848
H	 2.0219621778	-0.9210029787	-0.6652307373	 0.097573
H	 0.103523977	-3.0534885473	-0.9624932357	 0.079029
H	-0.0375896222	-2.9310155686	 1.468000975	 0.210451
H	-0.6004411341	-0.4730789695	 2.1233762025	 0.094831
H	-2.9331984313	-1.6076674853	-0.0888252958	 0.291454
198.6264	248.2123	289.7742	338.6571	373.2686	392.091	461.5362	555.3799	617.2864	671.4979	691.1054	796.7899	831.7979	899.1303	932.3375	949.4287	985.0062	1013.8818	1032.0008	1076.8369	1112.1454	1134.9871	1167.4285	1180.3452	1234.3879	1263.216	1305.2874	1311.952	1340.2684	1374.2543	1474.7927	1533.206	3052.9997	3117.9582	3145.7155	3195.5837	3446.2733	3783.9797	3791.0838
OC12CC3NC1C23O	O[C@@]12C[C@H]3N[C@@H]1[C@@]23O	
InChI=1S/C5H7NO2/c7-4-1-2-5(4,8)3(4)6-2/h2-3,6-8H,1H2	InChI=1S/C5H7NO2/c7-4-1-2-5(4,8)3(4)6-2/h2-3,6-8H,1H2/t2-,3+,4+,5-/m1/s1
