18
gdb 54254	2.87823	1.33147	1.1915	3.1644	73.71	-0.2389	0.0003	0.2391	1108.719	0.147835	-439.133459	-439.12465	-439.123706	-439.16723	33.521	
N	 0.0119340948	 1.3496404751	-0.1331342255	-0.52708
C	 0.0850370631	 0.0051984892	 0.0405400792	 0.365674
O	 1.1198488955	-0.5987507547	 0.2508474844	-0.375215
C	-1.2831133403	-0.711965091	 0.0304753195	 0.273931
O	-2.208713218	 0.1492544292	-0.6591358005	-0.489615
C	-1.1854810841	-2.131248323	-0.58702159	-0.266237
C	-1.9752566555	-3.0746527188	 0.3541394302	-0.270239
C	-2.1688537334	-2.2444537599	 1.5970322787	-0.062478
C	-1.7660194904	-0.9843008315	 1.4414943901	-0.133701
H	 0.8737769849	 1.8648279069	-0.2026869752	 0.257643
H	-0.8493924621	 1.7507395592	-0.4636250373	 0.271455
H	-3.0936718155	-0.0934099432	-0.3678693485	 0.278628
H	-1.5652169564	-2.11994047	-1.6108542551	 0.104505
H	-0.1326081539	-2.4168734765	-0.6088622358	 0.141929
H	-2.9421427725	-3.3876183231	-0.0624855675	 0.106516
H	-1.4243651413	-3.9987510135	 0.5621011653	 0.118201
H	-2.5992319433	-2.6484705259	 2.5076109927	 0.102235
H	-1.8091413315	-0.1974285986	 2.1859295951	 0.103851
52.6899	75.6079	189.4711	268.3148	286.4265	325.4125	367.9571	399.6469	413.7558	458.9561	555.5888	612.4778	644.5919	731.4808	759.5816	773.275	800.8999	841.7119	927.4655	941.7953	980.1028	998.5411	1034.457	1081.3416	1104.9305	1111.7619	1171.0409	1186.3262	1245.9552	1279.878	1307.366	1319.8362	1375.1434	1403.6181	1473.1811	1492.5893	1588.5999	1677.9876	1798.0071	3019.0166	3059.2164	3080.5812	3135.7082	3181.6646	3209.4521	3597.5097	3736.7932	3814.4035
NC(=O)C1(O)CCC=C1	NC(=O)[C@@]1(O)CCC=C1	
InChI=1S/C6H9NO2/c7-5(8)6(9)3-1-2-4-6/h1,3,9H,2,4H2,(H2,7,8)	InChI=1S/C6H9NO2/c7-5(8)6(9)3-1-2-4-6/h1,3,9H,2,4H2,(H2,7,8)/t6-/m0/s1
