14
gdb 128495	2.45537	1.52114	0.9449	2.147	74.69	-0.2214	-0.0055	0.2159	1169.7613	0.099543	-436.64038	-436.632077	-436.631132	-436.673696	29.773	
C	 0.0170543258	 1.4283864151	-0.0482136442	-0.256458
O	 0.0110844895	-0.0072378354	-0.0197782686	-0.258533
C	 0.5856971664	-0.6370311883	-1.025612505	 0.466098
C	 0.7199786206	-1.9914250418	-1.2455692505	-0.115233
C	 1.4231628757	-2.0161748936	-2.4857141622	-0.036702
N	 1.6865042459	-0.8291978365	-2.9653170748	-0.156096
O	 1.1391120774	 0.0682825697	-2.0108696546	-0.227345
C	 0.2747596059	-3.0620358793	-0.4466912182	 0.235186
C	-0.0989588913	-3.989337044	 0.2243814392	-0.439837
H	 1.0414329203	 1.8103462159	-0.0504319339	 0.151744
H	-0.5118300474	 1.7993611389	-0.9302110644	 0.151734
H	-0.4994699551	 1.7362313338	 0.8598578136	 0.151472
H	 1.7433698146	-2.8875423674	-3.0396550456	 0.14492
H	-0.4314384183	-4.8014725371	 0.8214961791	 0.18905
81.851	119.1708	159.0309	175.7986	243.283	296.3356	415.9662	471.9067	534.6417	541.2521	622.2018	629.1152	668.3577	719.4971	734.9654	881.7702	922.2795	936.278	1031.5498	1175.7884	1193.4721	1205.8502	1211.1179	1309.4579	1405.8261	1467.7741	1486.9381	1497.1766	1561.1819	1662.2863	2238.7686	3049.1949	3125.3248	3168.4622	3246.3577	3504.1982
COC1=C(C=NO1)C#C	COc1c(cno1)C#C	
InChI=1S/C6H5NO2/c1-3-5-4-7-9-6(5)8-2/h1,4H,2H3	InChI=1S/C6H5NO2/c1-3-5-4-7-9-6(5)8-2/h1,4H,2H3
