16
gdb 45892	2.50997	1.83226	1.29208	3.0426	69.95	-0.262	-0.0243	0.2377	976.1217	0.125953	-437.906177	-437.898842	-437.897898	-437.938283	27.863	
O	 0.011997911	 0.0374324881	 0.5026179812	-0.30407
C	 0.0356988421	 1.1659779658	 0.1048590115	 0.418335
O	-1.1929909216	 1.7990952602	-0.0483784051	-0.226534
C	-1.5131627165	 2.9258149242	-0.7701948752	 0.128266
N	-0.9436808069	 3.5256329389	-1.7133494139	-0.232809
C	 0.3231485298	 3.1128685427	-2.2939283388	-0.194749
C	 1.4620706896	 2.8645959713	-1.3196217237	-0.029948
C	 1.4526136545	 3.4067265958	 0.0710078623	-0.312597
C	 1.2914269951	 1.9078472346	-0.151718174	-0.143083
H	-2.4840257783	 3.2684680033	-0.4164175214	 0.138423
H	 0.1652131511	 2.2114796637	-2.9044395863	 0.126451
H	 0.629179424	 3.9036479828	-2.9870717325	 0.121899
H	 2.4300602787	 2.7944185266	-1.807927287	 0.108326
H	 2.3880029903	 3.7235134242	 0.5168895435	 0.131739
H	 0.5858199229	 3.9666639389	 0.3996236166	 0.146111
H	 2.1412894044	 1.2829851987	 0.093015623	 0.124241
90.7253	109.3157	225.5074	296.5893	341.6283	440.6629	470.5875	538.6804	625.1731	683.0554	735.0319	784.167	837.5406	872.1922	910.2919	932.9873	959.1339	995.4581	1019.29	1057.8606	1071.7764	1107.9395	1132.4565	1154.8876	1195.7359	1254.3429	1281.5792	1369.5534	1378.9662	1416.3565	1434.7809	1491.7624	1501.0532	1768.1629	1847.5426	3002.1202	3058.5561	3148.3944	3153.0435	3158.6874	3193.0344	3240.4169
O=C1OC=NCC2CC12	O=C1OC=NC[C@H]2C[C@@H]12	
InChI=1S/C6H7NO2/c8-6-5-1-4(5)2-7-3-9-6/h3-5H,1-2H2	InChI=1S/C6H7NO2/c8-6-5-1-4(5)2-7-3-9-6/h3-5H,1-2H2/t4-,5-/m1/s1
