18
gdb 32469	4.57152	0.92924	0.81396	3.2908	78.06	-0.2076	0.0238	0.2313	1453.2576	0.146309	-439.108004	-439.098631	-439.097686	-439.143606	32.756	
C	 0.2985871684	 1.5349751808	-0.1184241373	-0.37672
C	-0.0724369919	 0.0598104573	 0.11264479	-0.299319
C	 0.5323948356	-0.508183528	 1.3428740205	 0.328106
C	 0.043483317	-1.0154846325	 2.4709809846	-0.16558
O	 1.0862690963	-1.3946570513	 3.3007311614	-0.22685
C	 2.2508531323	-1.0918160275	 2.6285976785	 0.521584
O	 1.9184892957	-0.5455812204	 1.4176440194	-0.25234
N	 3.4329140157	-1.2592805171	 2.9983515402	-0.362424
C	 3.7010481539	-1.8453181481	 4.2984659205	-0.330973
H	 1.3827742145	 1.6551029046	-0.1860352676	 0.144747
H	-0.1460065167	 1.8986717543	-1.0488632424	 0.119976
H	-0.0613845056	 2.1612781562	 0.7030882422	 0.124987
H	-1.158649045	-0.0554228692	 0.1874952782	 0.119175
H	 0.2508305765	-0.5363678546	-0.7503728548	 0.128557
H	-0.9564198602	-1.1774691255	 2.8321844013	 0.155736
H	 4.31368412	-2.745098192	 4.1707909428	 0.125783
H	 4.2908959117	-1.1426152295	 4.8983209418	 0.125635
H	 2.8031517718	-2.1159149875	 4.8671958208	 0.119919
28.771	77.8662	91.7495	167.523	197.4539	229.0398	261.5063	321.4083	404.3	519.0944	608.4217	669.551	718.8826	731.3887	744.0559	791.2059	876.7948	946.7734	980.8546	1070.2751	1077.8464	1094.6376	1108.8546	1135.1665	1138.234	1198.5618	1256.0778	1271.7364	1347.0452	1365.7907	1409.5187	1448.2779	1471.7792	1495.3618	1496.2629	1503.3936	1508.1381	1744.1199	1843.4538	3012.3236	3028.5197	3046.9618	3073.2863	3078.6823	3080.6195	3119.3163	3129.5869	3301.7272
CCC1=COC(O1)=NC	CCc1coc(=NC)o1	
InChI=1S/C6H9NO2/c1-3-5-4-8-6(7-2)9-5/h4H,3H2,1-2H3	InChI=1S/C6H9NO2/c1-3-5-4-8-6(7-2)9-5/h4H,3H2,1-2H3
