12
gdb 33335	3.15182	0.86841	0.7108	7.4215	78.77	-0.2932	-0.0637	0.2295	1462.5533	0.077726	-394.488811	-394.480682	-394.479738	-394.522625	28.232	
N	-0.1247766273	-3.7632827513	-0.0359943334	-0.325428
C	-0.0741671168	-2.6031579275	-0.0160185162	 0.215579
C	-0.0235867499	-1.2390466282	 0.0048541635	 0.103831
C	 0.0160368675	-0.0325694915	 0.0281304568	 0.174189
C	 0.040326801	 1.3991995141	 0.0180909251	-0.288167
N	 0.5320735142	 2.0791688295	 1.227185648	-0.288566
C	 1.3333812621	 2.181708384	 0.0048271989	-0.182613
C	 2.616207184	 1.5214437567	 0.0022846876	 0.343182
N	 3.650256564	 1.0077792744	-0.0352551163	-0.309351
H	-0.7741775924	 1.8620125545	-0.5355692385	 0.144921
H	 0.0158374174	 2.9415854649	 1.3831320621	 0.261645
H	 1.3141989862	 3.1099440304	-0.5605511476	 0.150778
55.5195	98.4287	149.2231	216.993	266.6908	270.0349	430.8361	489.2126	568.058	575.9069	580.2942	622.5348	707.4713	815.6192	873.6251	905.6283	962.6136	1063.4139	1146.3861	1186.9814	1195.8177	1257.0142	1398.5364	1441.4295	2272.1683	2369.3262	2403.0579	3132.3612	3150.0854	3512.6839
N#CC#CC1NC1C#N	N#CC#C[C@H]1N[C@H]1C#N	
InChI=1S/C6H3N3/c7-3-1-2-5-6(4-8)9-5/h5-6,9H	InChI=1S/C6H3N3/c7-3-1-2-5-6(4-8)9-5/h5-6,9H/t5-,6+/m1/s1
