17
gdb 50479	4.23011	0.87936	0.75783	2.636	86.82	-0.2368	-0.042	0.1948	1445.6904	0.134715	-384.684953	-384.67624	-384.675296	-384.719161	31.817	
O	-0.012598338	-0.096650747	 0.0847862269	-0.246181
C	 0.0515163147	 1.1023279971	 0.0220946409	 0.156295
C	 1.3366701058	 1.9130194556	 0.0334087054	-0.095207
C	 1.4056629268	 2.9051077772	-1.1637909174	-0.254827
C	 1.9872811389	 4.2211653358	-0.5971300221	-0.31936
C	 1.7605521287	 4.0862583428	 0.8999632121	 0.19572
C	 1.4156719589	 2.8324681078	 1.2322918331	-0.199075
C	 1.9599465795	 5.1675384478	 1.7907446091	 0.201083
C	 2.136503623	 6.1189796066	 2.5088833057	-0.401285
H	-0.8687840455	 1.7301771188	-0.0482499156	 0.074806
H	 2.1653962085	 1.1937574187	 0.035284843	 0.102938
H	 1.9867868826	 2.5012721215	-1.9949732023	 0.117728
H	 0.3911002551	 3.0873788338	-1.5371258181	 0.112659
H	 3.0601333619	 4.3237913002	-0.8028740895	 0.122881
H	 1.5034429168	 5.1107451097	-1.0114417794	 0.120981
H	 1.2493347382	 2.4871236281	 2.2456218261	 0.114032
H	 2.2902071139	 6.9467153154	 3.1560877021	 0.196813
54.449	85.1097	122.238	155.7379	277.8326	319.5911	413.2859	429.9828	519.5121	532.4776	556.1063	611.0194	639.4687	685.5507	836.4793	876.0349	900.748	913.6356	945.8462	989.8682	1011.5863	1083.0635	1096.6323	1162.3108	1182.8887	1237.4107	1259.6211	1274.2048	1293.159	1327.4211	1356.3221	1420.58	1482.6762	1498.693	1664.4106	1835.028	2222.6024	2848.9254	3030.6053	3032.6105	3040.9636	3081.4905	3112.8222	3209.2376	3502.6929
O=CC1CCC(=C1)C#C	O=C[C@H]1CCC(=C1)C#C	
InChI=1S/C8H8O/c1-2-7-3-4-8(5-7)6-9/h1,5-6,8H,3-4H2	InChI=1S/C8H8O/c1-2-7-3-4-8(5-7)6-9/h1,5-6,8H,3-4H2/t8-/m0/s1
