19
gdb 90919	3.4698	1.48995	1.42876	2.2643	75.99	-0.2286	0.0555	0.2841	1003.0844	0.159676	-422.913073	-422.905824	-422.90488	-422.944269	29.927	
C	-0.4228689035	 1.4342075246	-0.2026972267	-0.4055
C	 0.0519979542	 0.0097656237	-0.021782988	 0.038997
O	 1.2032843711	-0.3157648044	-0.9208644366	-0.332622
C	 2.0863033236	-0.083006568	 0.2166405993	 0.126475
C	 2.939116026	-0.9070708655	 1.2632743463	-0.144517
C	 2.0045915532	-0.1016790969	 2.3201315382	-0.334758
C	 0.9824655159	-0.3641871867	 1.1729355839	 0.33178
O	 0.8797197235	-1.8136024654	 1.2195147114	-0.294086
C	 2.2449691282	-2.2549507135	 1.2623532816	-0.076657
H	 0.3733258917	 2.1587130016	-0.0110103936	 0.118987
H	-0.7748534652	 1.5786519557	-1.2282022067	 0.134268
H	-1.2540139579	 1.6432042695	 0.4789659214	 0.123763
H	-0.7501347324	-0.7164034509	-0.1688984091	 0.104988
H	 2.4457154545	 0.9491176977	 0.1925918846	 0.088041
H	 4.0275685094	-0.8688578757	 1.3061147316	 0.081025
H	 1.8315060019	-0.5862940671	 3.2830329421	 0.115114
H	 2.3068142497	 0.9380030511	 2.4419935568	 0.11579
H	 2.4790815048	-2.8603847149	 0.3787617933	 0.110761
H	 2.4313376114	-2.8489098748	 2.1651985	 0.098153
173.5825	208.2171	231.2696	309.248	355.6824	432.1826	468.061	492.2145	586.1709	670.0113	750.5299	790.3079	798.9106	826.8992	851.8445	918.7512	951.2273	969.1268	988.1562	997.7339	1000.4441	1040.7465	1049.4282	1066.2218	1119.3322	1127.2902	1149.5698	1174.2257	1205.3004	1219.1582	1238.969	1263.0314	1290.414	1347.6634	1359.9348	1391.8524	1411.4206	1481.3665	1486.1682	1492.3253	1527.4745	3021.6022	3040.9904	3061.0911	3064.6498	3081.1783	3091.265	3112.7723	3122.2308	3122.9962	3158.6027
CC1OC2C3CC12OC3	C[C@H]1O[C@@H]2[C@H]3C[C@@]12OC3	
InChI=1S/C7H10O2/c1-4-7-2-5(3-8-7)6(7)9-4/h4-6H,2-3H2,1H3	InChI=1S/C7H10O2/c1-4-7-2-5(3-8-7)6(7)9-4/h4-6H,2-3H2,1H3/t4-,5+,6-,7-/m1/s1
