17
gdb 35880	2.21504	1.58188	1.11146	1.2366	78.53	-0.2559	0.0356	0.2915	1120.9122	0.134598	-384.619936	-384.611091	-384.610146	-384.653803	32.764	
C	-0.5587363234	-1.1135396543	-0.7031121082	-0.444803
C	-0.3196618905	-0.0038097334	-0.3088424375	 0.312442
C	-0.0451991396	 1.3401880595	 0.1635030721	-0.1757
C	-0.2048648774	 1.5550565804	 1.6894868055	-0.254676
C	 0.7290703247	 2.7546090632	 1.9737826618	-0.086078
O	 1.4420723236	 3.0293150068	 0.7606965445	-0.246963
C	 1.4043504894	 1.869604113	-0.0568297674	-0.091175
C	 2.4408087996	 0.8976611511	 0.3064211876	 0.358047
C	 3.2991394309	 0.1189986835	 0.624187798	-0.478146
H	-0.7611865856	-2.0952779234	-1.0532395664	 0.195994
H	-0.6974554051	 2.047543122	-0.3620853836	 0.116474
H	-1.2431635635	 1.7492017123	 1.9640418041	 0.118074
H	 0.125847525	 0.6616057516	 2.2227244212	 0.130389
H	 0.1865729909	 3.6670391438	 2.237950107	 0.112861
H	 1.4338717152	 2.5253618709	 2.7823296261	 0.111173
H	 1.5553020878	 2.2000197068	-1.0887957317	 0.120869
H	 4.0592477178	-0.5715078539	 0.8954395367	 0.201218
74.5848	94.4107	118.1778	167.5818	216.7959	291.292	408.9317	471.6439	506.6938	566.2219	629.5948	638.2472	640.4448	665.3304	668.3733	720.6899	827.1379	875.2839	923.4121	934.4788	983.7081	1059.6124	1078.2855	1081.0567	1096.9268	1206.6778	1236.6072	1271.2176	1288.6038	1299.5003	1350.5276	1369.4188	1386.5569	1496.2413	1525.3911	2233.4226	2241.4359	3027.4339	3037.5656	3071.6099	3080.0257	3081.6888	3131.4832	3502.626	3504.9464
C#CC1CCOC1C#C	C#C[C@H]1CCO[C@H]1C#C	
InChI=1S/C8H8O/c1-3-7-5-6-9-8(7)4-2/h1-2,7-8H,5-6H2	InChI=1S/C8H8O/c1-3-7-5-6-9-8(7)4-2/h1-2,7-8H,5-6H2/t7-,8-/m0/s1
