16
gdb 17215	4.52326	1.78087	1.55622	0.7022	63.98	-0.2505	0.0587	0.3093	834.7654	0.130603	-383.675965	-383.669377	-383.668432	-383.706837	25.453	
C	 0.2919191728	 1.5470198991	-0.0555460553	-0.265154
O	 1.2952323326	 0.5299812184	 0.0864076452	-0.272986
C	-0.0575976317	 0.1260768504	-0.0136451428	 0.455016
C	-0.745249476	-0.7171789008	 1.0729177522	-0.332482
C	-1.3479587679	-1.5931016041	-0.0524263402	 0.119472
O	-2.6072665316	-1.0905256422	-0.5451107794	-0.292084
C	-1.9657710213	-0.4207307149	-1.6559101918	-0.079609
C	-0.5654571507	-0.7889935388	-1.1369758728	-0.186014
H	 0.1316144312	 2.169864817	 0.823599383	 0.118463
H	 0.299281068	 2.0791718954	-1.0063712789	 0.114893
H	-0.0113773046	-1.2496519826	 1.6859095643	 0.119291
H	-1.4742607114	-0.2205649899	 1.716931884	 0.117535
H	-1.3446580015	-2.6788779186	 0.064589232	 0.08281
H	-2.2312888269	-0.8930864189	-2.6100149734	 0.104135
H	-2.2126442634	 0.6470438307	-1.7017847492	 0.103235
H	 0.1754951024	-1.1954477102	-1.8233780268	 0.093478
83.345	208.4377	294.3105	335.6752	367.9891	458.2156	558.3766	717.544	802.8422	819.1623	846.73	869.2057	922.8562	952.3996	965.2842	985.4599	1013.0931	1049.0322	1075.446	1123.9008	1136.9176	1148.4245	1156.9029	1173.3282	1186.414	1227.6611	1259.3379	1278.3627	1309.5639	1356.436	1424.5832	1455.3288	1520.3685	1533.9291	3011.596	3056.7517	3057.4769	3079.0468	3087.0617	3122.2423	3131.9493	3165.2767
C1OC11CC2OCC12	C1O[C@]21C[C@H]1OC[C@@H]21	
InChI=1S/C6H8O2/c1-5-4(2-7-5)6(1)3-8-6/h4-5H,1-3H2	InChI=1S/C6H8O2/c1-5-4(2-7-5)6(1)3-8-6/h4-5H,1-3H2/t4-,5-,6+/m1/s1
