20
gdb 9272	4.35514	0.91654	0.79317	1.7997	78.34	-0.2493	0.0614	0.3107	1457.9633	0.17363	-348.968658	-348.958551	-348.957607	-349.004077	35.666	
C	-0.1126782477	 1.4048691178	 0.051853912	-0.23458
O	 0.1421482649	 0.0225814048	-0.0327566763	-0.244759
C	 0.6973707073	-0.5620493288	 1.1407562453	 0.138479
C	-0.3520344941	-0.7444740874	 2.2407268079	-0.406629
C	 1.3100117968	-1.8969578711	 0.7162676352	-0.182447
C	 2.4113724272	-1.7330391923	-0.3493643404	-0.359356
C	 2.989969411	-3.0039603193	-0.7656658446	 0.293713
C	 3.4499174062	-4.065783546	-1.091898185	-0.442606
H	 0.7904478343	 1.9685331322	 0.3349777714	 0.102826
H	-0.4345816391	 1.7334090663	-0.9396697191	 0.12781
H	-0.90778714	 1.6475949602	 0.7715162866	 0.107254
H	 1.5009068114	 0.0961946506	 1.5178774806	 0.060568
H	-1.1657708994	-1.3842403062	 1.884955071	 0.12531
H	 0.0960828638	-1.2111620997	 3.1235500242	 0.117035
H	-0.7796261346	 0.2121041515	 2.5539402963	 0.116297
H	 1.7217042955	-2.3990952948	 1.5978973201	 0.10606
H	 0.5171614099	-2.5412198294	 0.3202899154	 0.116469
H	 1.9860058668	-1.2121328935	-1.213426628	 0.147156
H	 3.2049080485	-1.0822415805	 0.0424048894	 0.121132
H	 3.8634197815	-4.9966579847	-1.3907097621	 0.190267
59.3082	72.3568	113.001	124.6219	192.9047	212.7092	252.9086	293.7585	348.1573	363.0186	455.4736	482.6199	559.793	611.8908	633.5435	759.5532	832.0805	923.4024	951.4046	958.4154	1033.3981	1088.5616	1118.1791	1121.7225	1164.4185	1182.0407	1195.939	1248.3682	1278.4002	1316.9057	1355.2465	1382.8839	1397.3578	1404.2692	1471.1456	1477.9989	1481.8774	1486.8238	1493.8589	1502.996	1512.8699	2238.177	2939.5255	2975.9355	3018.5856	3025.3894	3039.5935	3047.9591	3072.3262	3095.5872	3109.7124	3111.8985	3116.0279	3508.0545
COC(C)CCC#C	CO[C@@H](C)CCC#C	
InChI=1S/C7H12O/c1-4-5-6-7(2)8-3/h1,7H,5-6H2,2-3H3	InChI=1S/C7H12O/c1-4-5-6-7(2)8-3/h1,7H,5-6H2,2-3H3/t7-/m0/s1
