19
gdb 88742	4.44985	0.80091	0.74928	2.9097	79.62	-0.2363	-0.0043	0.232	1532.9254	0.158012	-419.160926	-419.151714	-419.15077	-419.195766	33.003	
C	-0.0396510503	 1.6215393715	 0.0030646879	-0.311463
N	-0.0130093186	 0.1652027761	 0.0256825705	-0.081969
C	 1.2480357605	-0.5014295462	-0.2649504574	-0.261643
C	 0.6680300207	-0.5394096961	 1.1107628833	 0.003772
C	 1.3385910699	 0.171903524	 2.2445544911	-0.038958
C	 0.701598732	 0.2585898614	 3.6081262099	-0.246318
N	 1.7874208205	-0.6585756283	 3.3554413191	-0.071281
C	 3.029558693	-0.5548959912	 3.9634961243	 0.137559
O	 3.2099124824	-0.2696506845	 5.1208752888	-0.281554
H	 0.9122322458	 2.1058726906	 0.2720168963	 0.099361
H	-0.3031364135	 1.9464766879	-1.0081465417	 0.129379
H	-0.8144321105	 1.9818336716	 0.6869433002	 0.12847
H	 1.1980930224	-1.3716017058	-0.9140828202	 0.121987
H	 2.1324210891	 0.1209036172	-0.4070736421	 0.105828
H	 0.1557093965	-1.4443790033	 1.4345299868	 0.101146
H	 1.9919636196	 1.0005393287	 1.9795265721	 0.107368
H	 0.920739513	 1.1242793796	 4.2274462371	 0.13955
H	-0.2732912841	-0.1945477617	 3.7654938834	 0.131723
H	 3.8463951114	-0.8309543914	 3.2692783107	 0.087041
50.0348	80.0063	129.3695	170.2225	214.8395	269.321	302.008	330.1597	370.0164	431.865	497.1212	694.299	740.2873	797.4748	874.1367	914.3735	937.1482	969.169	1032.365	1034.818	1083.8796	1088.5142	1120.2871	1122.7127	1130.2687	1134.1244	1161.183	1177.6121	1203.5305	1211.543	1302.7057	1330.7527	1367.6527	1414.9329	1451.7292	1467.409	1490.3062	1502.2518	1509.9756	1515.1041	1803.8067	2953.8458	2976.8774	3070.1051	3081.0419	3106.392	3113.2569	3115.5622	3134.9721	3173.3986	3204.2942
CN1CC1C1CN1C=O	CN1C[C@H]1[C@H]1CN1C=O	
InChI=1S/C6H10N2O/c1-7-2-5(7)6-3-8(6)4-9/h4-6H,2-3H2,1H3	InChI=1S/C6H10N2O/c1-7-2-5(7)6-3-8(6)4-9/h4-6H,2-3H2,1H3/t5-,6+,7?,8?/m0/s1
