15
gdb 47238	2.5329	1.85009	1.32542	3.8854	66.63	-0.2678	-0.0369	0.231	951.3751	0.113816	-457.766298	-457.759254	-457.75831	-457.797801	27.147	
O	 0.0091990506	 0.0224939003	 0.4800766991	-0.319324
C	 0.0217951749	 1.1595492945	 0.0866131004	 0.412296
O	-1.1426759252	 1.8038689263	-0.1107473235	-0.235285
C	-1.2511801157	 3.1447125472	-0.6510607446	-0.129385
C	-0.7101186508	 3.2511676449	-2.053002498	-0.113016
C	 0.5640251745	 3.015825026	-2.367962002	-0.024949
C	 1.616646324	 2.6650152577	-1.385670551	-0.002076
O	 1.5229400124	 3.2248227728	-0.0702339616	-0.235828
C	 1.3525123984	 1.8179712313	-0.1896384448	-0.104664
H	-2.3260519457	 3.3298603483	-0.6406851558	 0.128278
H	-0.7652192328	 3.8498266169	 0.0239768658	 0.154037
H	-1.4150570921	 3.5011419653	-2.8394693225	 0.115357
H	 0.8870661696	 3.068343591	-3.4033623847	 0.107392
H	 2.6341288176	 2.6326420058	-1.771484431	 0.116273
H	 2.1657549304	 1.2130110115	 0.2047645443	 0.130893
104.2383	210.1706	269.7631	292.2433	332.3385	414.7564	458.3687	586.7896	642.8899	694.4984	726.8257	790.5367	804.4237	868.9967	882.5023	932.7594	990.5736	995.0467	1052.8479	1064.7872	1093.9465	1133.386	1225.2739	1260.0105	1282.6596	1295.559	1366.4222	1409.8109	1426.8129	1443.4544	1497.2802	1716.8441	1822.6057	3090.4809	3128.3764	3138.241	3151.3095	3170.6899	3190.9214
O=C1OCC=CC2OC12	O=C1OCC=C[C@H]2O[C@@H]12	
InChI=1S/C6H6O3/c7-6-5-4(9-5)2-1-3-8-6/h1-2,4-5H,3H2	InChI=1S/C6H6O3/c7-6-5-4(9-5)2-1-3-8-6/h1-2,4-5H,3H2/t4-,5-/m1/s1
