17
gdb 16278	3.16263	1.79246	1.43442	4.3167	73.6	-0.2681	0.0194	0.2875	926.2679	0.142985	-326.722509	-326.715004	-326.71406	-326.754085	28.578	
C	-0.1100865996	 1.570592389	 0.0500990551	-0.413517
C	 0.0661392879	 0.0596891278	 0.0078389867	-0.036515
C	 1.1639957505	-0.5711833415	-0.9182300447	-0.250318
C	 1.7723652299	-1.290939903	 0.2895367911	-0.093169
C	 2.1950636157	-0.3043912512	 1.327758791	-0.321061
C	 0.7222098491	-0.6421323755	 1.2214329885	 0.217415
C	 0.0015384102	-1.2210868399	 2.30624097	 0.184486
N	-0.6055552386	-1.6863363999	 3.1761109128	-0.354173
H	 0.8323446363	 2.0873427476	 0.2579683669	 0.117725
H	-0.4850618702	 1.9402799797	-0.9102271564	 0.122632
H	-0.8291338371	 1.8585868077	 0.8239990138	 0.131877
H	-0.895614421	-0.4176666137	-0.1969079052	 0.097201
H	 0.7433202863	-1.2449899832	-1.6662249335	 0.116024
H	 1.8345764611	 0.1344248089	-1.4191377709	 0.105767
H	 2.1077189985	-2.3198850112	 0.3112356785	 0.114227
H	 2.6897667818	-0.7166112749	 2.2001962759	 0.139486
H	 2.5366635193	 0.6869159131	 1.0427473105	 0.121915
120.585	161.1563	209.6439	225.9137	298.5746	397.0629	456.977	518.2241	564.4387	610.8294	677.9707	812.2119	842.659	863.6613	883.7226	940.1028	972.4017	1029.8542	1039.1198	1080.5562	1099.0228	1113.5774	1141.2525	1182.4165	1212.5304	1244.0301	1269.0379	1288.5358	1362.7897	1386.8687	1414.11	1482.0032	1493.5142	1495.4352	1504.7873	2340.2632	3033.3723	3053.9813	3070.6718	3101.5053	3106.1462	3120.2793	3123.5768	3199.4063	3218.545
CC1CC2CC12C#N	C[C@H]1C[C@H]2C[C@@]12C#N	
InChI=1S/C7H9N/c1-5-2-6-3-7(5,6)4-8/h5-6H,2-3H2,1H3	InChI=1S/C7H9N/c1-5-2-6-3-7(5,6)4-8/h5-6H,2-3H2,1H3/t5-,6-,7+/m0/s1
