17
gdb 66012	2.89462	1.31473	1.17157	1.0631	69.24	-0.2504	0.0062	0.2566	1099.9367	0.136088	-455.103122	-455.09463	-455.093686	-455.136622	31.358	
O	-0.01560564	 1.4147384346	 0.0577079517	-0.476367
C	 0.0096018879	 0.0033071274	 0.0159902665	 0.228969
C	 0.9838956253	-0.5713151894	-1.0453696395	-0.114859
O	 1.7769256529	-1.1963776455	 0.0215991316	-0.254141
C	 0.9927542467	-0.6297733003	 0.9941210186	 0.380711
N	 1.0944299774	-0.5859660297	 2.2422198516	-0.54972
C	-1.3851222982	-0.5894665706	 0.0046421899	-0.022136
C	-2.4734478121	 0.0443980249	 0.7813544137	-0.240608
N	-2.4617577036	 0.1265945869	-0.6913696226	-0.331273
H	 0.1249969634	 1.6767546209	 0.975315111	 0.305807
H	 0.5855894748	-1.3230524611	-1.7287177216	 0.130379
H	 1.5655087124	 0.1864450196	-1.5725426869	 0.133718
H	 1.9260297778	-1.0721638114	 2.5811070529	 0.235732
H	-1.4021880918	-1.6687822566	-0.1332418434	 0.097726
H	-3.2600456798	-0.5720360488	 1.2052868946	 0.123572
H	-2.2392489288	 0.9424593731	 1.3447765938	 0.110139
H	-2.1107238242	 1.047836266	-0.9496752918	 0.242351
69.8476	101.1848	146.6458	233.9843	266.7662	286.3163	319.3003	400.4037	449.1809	581.1123	666.162	716.4033	779.6829	852.4414	869.0952	877.2488	933.4923	941.1859	965.4606	982.622	1020.0497	1037.5138	1103.3841	1145.0565	1151.9178	1161.0368	1182.4703	1230.7446	1253.5154	1282.372	1306.5487	1354.0248	1365.8192	1419.8045	1502.8996	1505.8471	1825.7399	3077.6937	3120.1148	3128.3781	3149.0969	3207.1383	3481.4011	3484.2416	3800.2306
OC1(COC1=N)C1CN1	O[C@]1(CO[C]1[NH])[C@H]1CN1	
InChI=1S/C5H8N2O2/c6-4-5(8,2-9-4)3-1-7-3/h3,6-8H,1-2H2	InChI=1S/C5H8N2O2/c6-4-5(8,2-9-4)3-1-7-3/h3,6-8H,1-2H2/t3-,5-/m1/s1
