16
gdb 117916	2.40224	0.96185	0.72809	2.8776	67.99	-0.2778	-0.1024	0.1754	1479.9927	0.121142	-475.028162	-475.018096	-475.017152	-475.064244	34.244	
O	-0.0966682306	 1.4581031082	-0.1997246549	-0.419872
C	 0.0214374448	 0.0604848402	 0.0008158564	-0.077149
C	-1.385911407	-0.5228855578	-0.0730125627	-0.206274
C	-1.369683145	-2.0511879944	 0.1104270919	 0.021239
O	-0.8160650366	-2.4167090532	 1.3430768968	-0.431658
C	-2.7704929074	-2.6276344772	-0.0081957837	 0.276276
O	-3.2897543725	-3.2457137428	 0.8908923917	-0.291347
C	-3.4696375477	-2.411560442	-1.2826831738	 0.259339
N	-3.9996018585	-2.2451179658	-2.2967340214	-0.299056
H	 0.7643700003	 1.8584832479	-0.0485455387	 0.290664
H	 0.6534921852	-0.4058247313	-0.7738006549	 0.087995
H	 0.4626861067	-0.1782367824	 0.9776014134	 0.116401
H	-2.0041481454	-0.0702101791	 0.7097344073	 0.124159
H	-1.827933167	-0.265078397	-1.0417191688	 0.134003
H	-0.7812279762	-2.4936697808	-0.7143500212	 0.113599
H	-1.4938267831	-2.9226496526	 1.8166320927	 0.301679
51.2463	87.3346	97.6477	120.1589	168.0619	241.2562	251.51	300.0227	337.3832	346.2909	388.1131	464.9274	520.8485	616.3411	712.3802	802.0233	867.4285	950.4116	1025.5864	1084.724	1090.3947	1103.673	1174.3291	1224.0997	1230.1874	1274.5014	1310.0832	1328.6896	1358.3915	1425.916	1460.0665	1480.4182	1530.6855	1779.1359	2341.1345	2945.8558	2961.3046	3031.8014	3046.8428	3098.6947	3712.1547	3833.264
OCCC(O)C(=O)C#N	OCC[C@@H](O)C(=O)C#N	
InChI=1S/C5H7NO3/c6-3-5(9)4(8)1-2-7/h4,7-8H,1-2H2	InChI=1S/C5H7NO3/c6-3-5(9)4(8)1-2-7/h4,7-8H,1-2H2/t4-/m1/s1
