21
gdb 115884	2.45007	1.48836	1.07673	2.5655	78.5	-0.2463	0.0804	0.3267	1200.0922	0.181784	-424.219599	-424.210486	-424.209542	-424.253295	34.321	
C	-0.0147295829	 1.3606101147	-0.1410216009	-0.233924
O	-0.0657519472	 0.0064173253	 0.244100819	-0.251391
C	-1.3400589674	-0.5830755497	 0.1069701168	 0.100592
C	-1.791163189	-0.8527325253	-1.3496386803	-0.259445
C	-2.7227816448	-2.0834292779	-1.2574872179	-0.250518
C	-2.188520488	-2.8394569442	-0.0548544612	-0.015765
O	-0.7598966708	-2.9698107807	-0.0692740674	-0.299056
C	-1.3497490831	-1.9559438645	 0.7667604761	 0.401762
C	-1.1073109674	-2.0773875887	 2.2439167968	-0.49628
H	 0.9921769842	 1.7226042499	 0.0807057629	 0.127823
H	-0.2077796008	 1.4971704782	-1.215087234	 0.10871
H	-0.7422973502	 1.9697125363	 0.4196447025	 0.100555
H	-2.0901988722	 0.0443630662	 0.6239181446	 0.057907
H	-2.2785103288	 0.0078616117	-1.8128708337	 0.094923
H	-0.8998560682	-1.0985561633	-1.9314254056	 0.128232
H	-3.761981791	-1.7888840853	-1.0657563904	 0.102123
H	-2.7169444747	-2.6854429847	-2.1715085839	 0.111221
H	-2.7311424435	-3.6833400545	 0.3658367265	 0.087422
H	-0.1182400179	-1.6809012497	 2.4925747465	 0.142514
H	-1.8508423213	-1.504790325	 2.8090098616	 0.116234
H	-1.1540151749	-3.1227777687	 2.5577358617	 0.126361
89.668	119.4161	183.0073	190.6952	220.3548	242.7065	285.1094	331.1092	426.8151	459.3731	526.3344	568.3238	664.064	727.745	828.4554	854.5184	882.3719	923.7656	970.6651	995.1059	1015.2246	1031.1328	1044.8033	1110.055	1120.9332	1156.7279	1173.6785	1186.9	1225.9633	1232.7849	1252.0202	1287.723	1318.6315	1334.336	1349.4458	1392.6318	1407.6588	1461.3293	1477.2724	1479.2295	1485.8891	1489.2586	1495.9037	1502.6741	1509.9542	2928.6517	2971.7504	3024.0279	3035.49	3039.3515	3072.3834	3082.8294	3104.9837	3113.3018	3123.7073	3128.0328	3137.8051
COC1CCC2OC12C	CO[C@H]1CC[C@H]2O[C@@]12C	
InChI=1S/C7H12O2/c1-7-5(8-2)3-4-6(7)9-7/h5-6H,3-4H2,1-2H3	InChI=1S/C7H12O2/c1-7-5(8-2)3-4-6(7)9-7/h5-6H,3-4H2,1-2H3/t5-,6+,7-/m0/s1
