16
gdb 54430	2.52774	1.64296	1.2626	2.2937	65.95	-0.239	0.0109	0.2499	1009.8574	0.123127	-475.007772	-474.999294	-474.99835	-475.040883	32.035	
N	-0.0147572505	 1.1239303804	 0.2676156745	-0.538663
C	-0.0086984132	-0.1998373229	-0.0216749972	 0.329656
O	 1.0014909346	-0.8848126601	-0.1501772139	-0.402174
C	-1.3358544334	-0.8338789837	-0.1175403886	 0.269884
C	-1.6641732179	-2.0436705041	-0.969838058	-0.389233
C	-1.6408866526	-2.1750264367	 0.5245895024	 0.315215
O	-0.7964167185	-2.994513065	 1.2313899942	-0.462678
C	-2.8267408405	-1.4477297332	 1.1536604216	-0.136468
O	-2.5303338458	-0.2307189602	 0.3947568659	-0.343731
H	 0.856603499	 1.5746950077	 0.4937797286	 0.26659
H	-0.8845391209	 1.5761701604	 0.4979158993	 0.276715
H	-2.5923745923	-2.0240961466	-1.5342242459	 0.12136
H	-0.8057241599	-2.4842257523	-1.4648393162	 0.14564
H	 0.1074094199	-2.731247734	 0.9959001427	 0.306243
H	-3.8345789166	-1.8223657389	 0.9487490246	 0.117183
H	-2.6871357414	-1.2796433711	 2.226018306	 0.124462
80.7024	95.5514	166.6572	287.0024	317.7755	355.3795	384.3157	411.948	434.8165	471.4095	542.6223	609.8708	628.7236	716.9264	746.0232	812.0545	857.0719	925.5779	941.0019	972.5977	1035.8351	1063.6638	1091.5847	1125.4875	1147.5223	1199.9633	1217.1793	1305.9508	1377.0189	1418.6054	1440.2038	1474.4127	1511.7852	1610.7546	1750.0697	3042.6999	3102.7343	3119.6828	3228.3254	3592.4161	3703.4018	3729.1008
NC(=O)C12CC1(O)CO2	NC(=O)[C@@]12C[C@]1(O)CO2	
InChI=1S/C5H7NO3/c6-3(7)5-1-4(5,8)2-9-5/h8H,1-2H2,(H2,6,7)	InChI=1S/C5H7NO3/c6-3(7)5-1-4(5,8)2-9-5/h8H,1-2H2,(H2,6,7)/t4-,5-/m0/s1
