17
gdb 113614	3.61867	0.67264	0.60193	3.1363	83.28	-0.2716	-0.0705	0.2011	1819.4556	0.132794	-421.783845	-421.774036	-421.773092	-421.820324	33.234	
C	-0.0748027254	 1.5161027562	-0.3172021687	-0.379634
C	-0.0672922164	 0.1614770438	 0.40190783	-0.223628
C	-1.3967220336	-0.5394155914	 0.2843874446	 0.095594
O	-1.7126306185	-1.1445056069	-0.9654383871	-0.236097
C	-1.5475333718	-2.0129555713	 0.1684690762	-0.181775
C	-0.4190615366	-2.8974958514	 0.1731519449	 0.130078
C	 0.5051740421	-3.6759384477	 0.2111192851	 0.061789
C	 1.6252928815	-4.5809316595	 0.216080673	 0.018746
O	 1.775561962	-5.4785795089	 1.0128507626	-0.226931
H	 0.8955844661	 2.0113261557	-0.2238272129	 0.121399
H	-0.2908940123	 1.3864005547	-1.3817240946	 0.13732
H	-0.833867829	 2.1856864935	 0.1014693835	 0.118992
H	 0.7143881381	-0.4835717218	-0.0102545065	 0.118167
H	 0.157127532	 0.2994605677	 1.4671065402	 0.111121
H	-2.2416063666	-0.019941641	 0.7433885997	 0.10212
H	-2.4756268746	-2.4554715617	 0.5289657178	 0.128223
H	 2.3630635628	-4.38848019	-0.5889553779	 0.104516
43.3607	62.8662	86.048	106.4728	175.0472	219.4137	233.6095	259.3627	394.5821	445.1155	504.4908	576.9058	646.7863	759.2031	787.6888	838.4207	887.5732	935.3686	1011.0021	1019.6528	1048.9251	1082.8865	1130.5611	1173.9989	1185.3001	1282.6581	1290.7951	1341.3674	1385.5901	1410.7738	1420.646	1457.8293	1475.1892	1499.355	1508.1214	1765.6703	2320.3681	2923.649	3035.6269	3039.2125	3077.3516	3091.2833	3111.6332	3117.6329	3120.2255
CCC1OC1C#CC=O	CC[C@H]1O[C@H]1C#CC=O	
InChI=1S/C7H8O2/c1-2-6-7(9-6)4-3-5-8/h5-7H,2H2,1H3	InChI=1S/C7H8O2/c1-2-6-7(9-6)4-3-5-8/h5-7H,2H2,1H3/t6-,7+/m1/s1
