19
gdb 66945	2.47523	1.92842	1.39118	1.8512	78.81	-0.2232	0.0803	0.3035	993.4389	0.158668	-385.804335	-385.796645	-385.795701	-385.836056	31.016	
C	 0.0383720778	 1.5150762421	 0.1087656597	-0.518329
C	 0.0500770372	 0.0233428681	-0.0154521869	 0.187142
C	-0.9372657377	-0.918828236	 0.7149047258	 0.044944
O	-1.0456217674	-2.1354615371	-0.0231968642	-0.293125
C	 0.3964025264	-2.0306244456	-0.2272349292	-0.057407
C	 0.5222360086	-1.0349794447	 0.9902168499	-0.186075
C	 0.535808358	-0.8332479195	-1.1697849898	 0.395356
C	 0.3067007345	-0.7554648407	-2.6415645294	-0.334556
C	 1.7002776772	-0.5506518143	-2.0640694317	-0.34396
H	 1.0344864128	 1.9397714115	-0.0620107923	 0.123301
H	-0.649630673	 1.9687151402	-0.6140507786	 0.126386
H	-0.2834336046	 1.8252597707	 1.1088029865	 0.12248
H	-1.7758400512	-0.5886641789	 1.3150077506	 0.105088
H	 0.8900770301	-2.9869581031	-0.3895360962	 0.081781
H	 1.1365734923	-0.9913433422	 1.8791486654	 0.098345
H	 0.1050059989	-1.6754917988	-3.180774847	 0.115344
H	-0.2074231994	 0.11381694	-3.0395906676	 0.11131
H	 2.11429304	 0.4529826933	-2.0772917054	 0.11095
H	 2.4369279895	-1.333010455	-2.2204468395	 0.111026
160.1831	184.9235	198.4587	218.6903	284.9697	333.2777	497.5135	558.0678	611.1206	631.4072	752.1315	775.2384	789.9122	811.0346	845.6608	885.7818	906.8554	922.6459	945.0296	963.4689	984.3281	995.7796	1042.0557	1049.4038	1075.9165	1090.3162	1098.5427	1138.3734	1167.9437	1181.5217	1195.7786	1205.499	1260.9886	1304.8238	1385.6594	1413.1232	1434.5596	1461.7762	1485.8119	1497.499	1513.18	3021.1221	3081.1064	3090.9541	3118.1464	3125.5482	3140.2402	3194.5363	3195.4284	3209.2985	3211.5947
CC12C3OC(C13)C21CC1	C[C@]12[C@H]3O[C@H]([C@@H]13)C12CC1	
InChI=1S/C8H10O/c1-7-4-5(7)9-6(4)8(7)2-3-8/h4-6H,2-3H2,1H3	InChI=1S/C8H10O/c1-7-4-5(7)9-6(4)8(7)2-3-8/h4-6H,2-3H2,1H3/t4-,5-,6+,7+/m0/s1
