16
gdb 52342	9.11755	0.44268	0.43548	2.4079	74.46	-0.2603	-0.0357	0.2245	2331.1971	0.120556	-475.043513	-475.033733	-475.032789	-475.080229	32.017	
O	-0.2785946146	 0.041608909	-0.0064951046	-0.229808
C	-0.040594931	 1.2201627333	 0.0334424433	 0.155187
C	 1.3345521977	 1.8315378517	-0.1123040719	-0.260376
C	 1.3780173843	 2.874542017	-1.2424552357	-0.171494
N	 2.6219397651	 3.6197859582	-1.1841586042	-0.189055
C	 3.3818517823	 3.5632258037	-2.1780622436	 0.130086
O	 4.5665845699	 4.2461385767	-2.158321014	-0.154846
C	 5.3743063071	 4.1647086576	-3.2562046171	 0.186069
O	 6.4172959638	 4.7312633518	-3.312008247	-0.246565
H	-0.8575050876	 1.9647715526	 0.1879498851	 0.075566
H	 1.5830005562	 2.3437496641	 0.8269562898	 0.142357
H	 2.0662724866	 1.0361630484	-0.2751942727	 0.12596
H	 1.2204532975	 2.3803761632	-2.2153663434	 0.103869
H	 0.5559748381	 3.588032343	-1.1023047338	 0.125344
H	 3.1939649323	 3.0045041953	-3.104814802	 0.106893
H	 4.9515959924	 3.5297500644	-4.0553752584	 0.100814
39.3568	66.007	81.8088	119.9617	123.3218	179.69	249.3258	285.1342	355.491	408.1502	517.2122	557.8261	718.8115	785.2133	869.7153	972.3871	992.4735	1036.5901	1043.9701	1090.9617	1126.9667	1160.0868	1186.7468	1224.9295	1269.6776	1311.9255	1375.518	1400.8864	1429.9536	1446.7115	1464.8558	1504.3672	1768.3796	1839.7376	1897.5624	2851.1721	2967.3578	2979.2583	3030.1608	3033.3286	3042.5697	3112.4574
O=CCCN=COC=O	O=CCCN=COC=O	
InChI=1S/C5H7NO3/c7-3-1-2-6-4-9-5-8/h3-5H,1-2H2	InChI=1S/C5H7NO3/c7-3-1-2-6-4-9-5-8/h3-5H,1-2H2
