18
gdb 54151	2.48926	1.49121	1.11176	5.3065	69.37	-0.2457	0.0138	0.2595	1118.9323	0.146436	-476.250646	-476.241694	-476.24075	-476.283743	34.624	
C	-0.0293041293	 1.5592107902	 0.0124740444	-0.450571
C	 0.0332760788	 0.047518796	-0.0269524261	 0.208719
N	-1.0829239022	-0.6400894544	-0.6694627578	-0.576009
H	-1.0478931321	-0.5059269964	-1.6769262887	 0.246766
H	-0.8547598138	-2.1825336164	 0.0905284836	 0.321737
H	-1.9698943391	-0.2617907912	-0.3456034735	 0.249046
C	 1.3618039046	-0.6461979441	-0.2002031027	-0.371802
C	 0.6651196977	-0.6785266976	 1.1545816091	 0.266613
O	 1.196759527	 0.1006763255	 2.1704144601	-0.472611
C	 0.1403449614	-1.9952510704	 1.682087017	 0.383381
O	 0.4105364266	-2.3184700966	 2.8180088363	-0.374193
O	-0.5785425116	-2.7522998018	 0.8633929548	-0.380049
H	 0.8131472306	 1.9734153994	 0.5679864447	 0.153964
H	-0.0198894912	 1.9714856618	-1.0030548191	 0.113745
H	-0.9479689017	 1.8945726735	 0.5078387173	 0.120241
H	 1.394116579	-1.5587821725	-0.7856315191	 0.126843
H	 2.2497176161	-0.0260953547	-0.2465545561	 0.13573
H	 1.221072929	-0.5016513202	 2.9340231757	 0.29845
103.644	141.0564	203.2389	235.7621	291.8113	304.0132	362.7595	394.1318	415.8633	424.4289	469.3575	497.0083	553.2302	570.5728	681.981	757.7059	809.1495	898.694	908.1061	921.0883	955.1532	985.3288	1006.9526	1050.1182	1070.645	1112.6102	1225.0458	1236.3801	1265.4469	1318.0927	1361.6439	1415.4311	1440.7666	1479.5879	1491.243	1499.6061	1512.3493	1648.7675	1820.7914	3028.3225	3086.0269	3128.659	3135.0733	3144.2078	3232.8965	3474.9421	3551.6251	3656.668
CC1([NH3+])CC1(O)C([O-])=O	C[C@@]1(N)C[C@]1(O)C(=O)O	
InChI=1S/C5H9NO3/c1-4(6)2-5(4,9)3(7)8/h9H,2,6H2,1H3,(H,7,8)	InChI=1S/C5H9NO3/c1-4(6)2-5(4,9)3(7)8/h9H,2,6H2,1H3,(H,7,8)/t4-,5+/m1/s1
