15
gdb 79496	2.2931	1.90651	1.22297	2.7051	72.27	-0.2357	0.03	0.2657	996.2503	0.110495	-420.486485	-420.478862	-420.477918	-420.51842	29.716	
O	-0.0385283212	 1.468602379	-0.0832480641	-0.432015
C	 0.0466094962	 0.0662256842	-0.0418262492	 0.03688
C	 0.0541853166	-0.6140196161	 1.3415424807	-0.163847
C	-1.4756860019	-0.3687724705	 1.5375332982	 0.052526
O	-1.7785558408	-1.7552216351	 1.8513792254	-0.321909
C	-0.7633574071	-1.8297610755	 0.8131793251	 0.03186
C	-1.3341006659	-0.6175382967	-0.0184101656	 0.237798
C	-2.3583862278	-0.630260619	-1.0121991684	 0.081075
C	-3.2146834558	-0.6375733694	-1.8569451378	-0.388543
H	 0.8511197809	 1.8311426212	-0.0301886169	 0.28959
H	 0.7552683813	-0.3279336787	-0.7819052157	 0.078649
H	 0.8144343337	-0.6324366887	 2.1202142585	 0.091399
H	-2.0086329846	 0.423059642	 2.0580857993	 0.116015
H	-0.4368721815	-2.806146912	 0.4593028443	 0.107166
H	-3.9752679621	-0.6438918448	-2.5979134139	 0.183354
121.0768	160.4802	204.82	250.3501	310.8447	408.8211	480.5397	567.5142	570.6539	628.551	637.2635	641.8129	754.7631	800.8325	822.2486	857.678	905.5633	915.2135	946.9989	996.4011	1042.8896	1084.4383	1121.3839	1129.0251	1146.2731	1168.5621	1202.0745	1251.8412	1263.1739	1317.7045	1329.0854	1442.7521	2234.9004	3020.3654	3134.2313	3143.855	3159.5179	3501.8177	3825.3659
OC1C2C3OC2C13C#C	O[C@H]1[C@H]2[C@@H]3O[C@H]2[C@]13C#C	
InChI=1S/C7H6O2/c1-2-7-4(8)3-5(7)9-6(3)7/h1,3-6,8H	InChI=1S/C7H6O2/c1-2-7-4(8)3-5(7)9-6(3)7/h1,3-6,8H/t3-,4-,5-,6+,7+/m0/s1
