19
gdb 73728	2.66703	1.84754	1.3814	0.8289	73.61	-0.2185	0.0715	0.29	976.3829	0.161112	-422.993564	-422.986332	-422.985388	-423.024649	30.186	
O	-0.0421596467	 1.3407884617	 0.0009789371	-0.468153
C	 0.0210475339	-0.0633805888	 0.0147573283	 0.363455
C	 1.1480264449	-0.6544328475	-0.8125953623	-0.276487
C	 1.1378353612	-2.1937014072	-0.9036380251	-0.205153
C	-0.2779072155	-2.778477799	-1.0387442604	-0.217625
C	-1.1897663688	-2.1777352039	 0.0246677185	 0.09162
O	-0.5045638413	-2.0843098848	 1.3221224731	-0.306104
C	-0.5917360925	-0.6633132506	 1.2686084071	 0.022988
C	-1.3628594889	-0.6534054039	-0.0296224164	-0.184563
H	 0.7227632982	 1.6731337514	 0.4843642521	 0.283531
H	 1.0528408036	-0.2153540163	-1.8145222594	 0.106063
H	 2.1163345502	-0.3162738138	-0.4190141748	 0.086673
H	 1.7603907307	-2.5129708915	-1.745680019	 0.090324
H	 1.5852642869	-2.6085488936	 0.0026450213	 0.121474
H	-0.7114723643	-2.5640022573	-2.0244879155	 0.101566
H	-0.2373766656	-3.8686077825	-0.9365913075	 0.102292
H	-2.1292726292	-2.7259758258	 0.1422858127	 0.083725
H	-0.7166792024	-0.1145015675	 2.1955738134	 0.102834
H	-2.2372236842	-0.1008729391	-0.3453826932	 0.101539
180.3989	246.2106	298.0352	331.5547	346.9374	385.6968	419.8975	483.8709	552.7659	636.2881	685.4612	725.4908	823.1864	853.4874	868.2122	906.0288	908.5675	939.4848	946.7302	1011.5507	1023.2266	1053.4723	1057.6706	1084.958	1112.9771	1144.8707	1176.7457	1215.3919	1232.0662	1244.3577	1257.53	1311.3068	1323.0599	1348.636	1372.7762	1376.6993	1393.9884	1444.5538	1476.8986	1486.5983	1498.5768	3007.6249	3024.2838	3040.7911	3053.4454	3059.4964	3070.8142	3105.6334	3173.7192	3207.354	3790.6862
OC12CCCC3OC1C23	O[C@@]12CCC[C@H]3O[C@@H]1[C@@H]23	
InChI=1S/C7H10O2/c8-7-3-1-2-4-5(7)6(7)9-4/h4-6,8H,1-3H2	InChI=1S/C7H10O2/c8-7-3-1-2-4-5(7)6(7)9-4/h4-6,8H,1-3H2/t4-,5+,6-,7-/m1/s1
