15
gdb 10996	4.23909	1.9113	1.57573	4.4868	67.32	-0.2506	-0.0528	0.1978	824.0487	0.119386	-362.677373	-362.670588	-362.669644	-362.708055	26.128	
C	-0.0352276041	 1.5394993335	-0.0011551223	-0.476803
C	 0.0021387871	 0.0292634467	-0.0086915783	 0.284056
C	 0.7160568297	-0.7272588601	-1.0873717693	-0.276692
N	 1.2746469172	-0.6443727745	 0.2799177592	-0.159183
C	 0.9559005749	-1.8114560318	 1.0843035559	 0.358938
O	 1.7600767984	-2.6455637477	 1.4034637257	-0.321338
C	-0.5010927353	-1.7623503082	 1.3845414378	-0.189951
C	-1.0495172663	-0.7333682594	 0.7288277403	-0.130732
H	 0.8416965832	 1.9483421701	-0.5080182871	 0.137675
H	-0.9318196309	 1.9041384319	-0.5140028425	 0.124224
H	-0.0472705866	 1.9241709677	 1.0233605346	 0.134726
H	 0.3067880088	-1.6817328574	-1.4081441268	 0.132698
H	 1.2740741994	-0.1810008549	-1.8434176049	 0.130973
H	-0.9966971378	-2.5172187471	 1.9793732143	 0.128404
H	-2.0934509878	-0.4421557887	 0.7306909134	 0.123006
144.8386	193.8191	242.2196	301.1061	378.9962	441.6054	521.9091	590.5947	680.8981	764.125	774.346	809.9472	854.174	868.4516	919.9194	953.8891	978.8491	1035.5219	1074.3562	1092.7412	1113.6019	1126.9254	1160.3033	1274.9125	1343.022	1367.0017	1416.3847	1485.3197	1495.5018	1499.0552	1638.3211	1841.6708	3038.9432	3104.2064	3106.3746	3128.7528	3200.0664	3202.0781	3239.6056
CC12CN1C(=O)C=C2	C[C@@]12CN1C(=O)C=C2	
InChI=1S/C6H7NO/c1-6-3-2-5(8)7(6)4-6/h2-3H,4H2,1H3	InChI=1S/C6H7NO/c1-6-3-2-5(8)7(6)4-6/h2-3H,4H2,1H3/t6-,7?/m1/s1
