16
gdb 37402	2.93636	2.2435	1.80121	1.5337	65.75	-0.2386	0.0504	0.289	796.2969	0.127425	-437.793936	-437.788292	-437.787348	-437.82363	24.508	
N	-0.0242940765	 1.4834004658	 0.0329540163	-0.323434
C	 1.2874447674	 0.7983151127	-0.0495678693	-0.038261
C	 0.0239775544	 0.018036989	-0.0411211017	-0.026158
C	-0.1464627357	-0.6989216417	-1.3686277089	 0.01885
O	 1.0166760562	-1.605138731	-1.3988836189	-0.301081
C	 1.7160470417	-0.623646372	-2.1557372961	 0.071276
C	 1.9177141143	 0.8045188032	-1.4392572136	 0.020417
O	 0.9657670019	 1.3807834794	-2.3731016188	-0.268485
C	 0.4535499141	 0.0798044862	-2.621489926	 0.068816
H	-0.1933887331	 1.7478085414	 1.0008078251	 0.234653
H	 1.9424938639	 0.7940190097	 0.8150231065	 0.092805
H	-0.2483777208	-0.5671107996	 0.8332153039	 0.096476
H	-1.0818423237	-1.245559314	-1.5004666537	 0.081094
H	 2.5377992116	-1.0110122143	-2.7577873658	 0.095875
H	 2.8955270232	 1.2858314994	-1.4987029679	 0.080377
H	-0.0681332688	-0.0291961944	-3.5724648411	 0.096779
273.0913	322.676	401.6782	494.6165	559.0545	634.3115	699.0161	729.9787	750.3303	798.3554	838.5086	849.7761	858.815	894.4693	921.7122	961.863	967.2189	1008.3262	1032.7872	1044.2774	1062.7455	1097.9572	1120.289	1156.5219	1179.3222	1187.637	1224.5963	1240.1793	1247.8312	1299.0921	1318.5316	1337.6965	1356.9608	1382.9806	1444.2582	3093.7776	3095.2742	3112.5666	3125.534	3140.9448	3168.0336	3499.3224
N1C2C1C1OC3C2OC13	N1[C@H]2[C@@H]1[C@@H]1O[C@@H]3[C@H]2O[C@H]13	
InChI=1S/C6H7NO2/c7-1-2(7)4-6-5(9-4)3(1)8-6/h1-7H	InChI=1S/C6H7NO2/c7-1-2(7)4-6-5(9-4)3(1)8-6/h1-7H/t1-,2+,3-,4-,5+,6+/m0/s1
