18
gdb 110468	3.86951	1.44048	1.28645	2.9017	72.87	-0.2339	0.066	0.2999	1004.859	0.149867	-401.882523	-401.875703	-401.874759	-401.913737	28.043	
O	 0.0929270136	 1.3680850263	 0.1190572823	-0.42621
C	 0.0750689942	-0.0419710609	 0.0139275764	-0.056075
C	-1.3531777509	-0.5735897563	-0.0519012666	 0.005806
C	-1.5103766215	-2.0815688338	-0.0198052821	-0.096208
C	-1.5498813263	-2.5386856676	 1.4227448468	-0.091848
C	-2.8347153245	-2.4160509648	 0.6290828286	-0.108223
C	-3.1811879261	-1.1172754498	 1.4166008555	-0.065425
C	-1.9177851045	-1.2404277856	 2.192851374	-0.067321
N	-2.0744856229	-0.1793322469	 1.1748452532	-0.137794
H	-0.5637648913	 1.588112736	 0.7917729076	 0.289353
H	 0.6184052693	-0.3016441361	-0.9010678813	 0.10271
H	 0.5994076092	-0.5200434658	 0.8581685353	 0.084179
H	-1.867264096	-0.1240834986	-0.9092187212	 0.088644
H	-1.1046837909	-2.7322741848	-0.7846857264	 0.094733
H	-1.0577264689	-3.4153130512	 1.8170340323	 0.094322
H	-3.5196650884	-3.1807701421	 0.2936204848	 0.095366
H	-4.1625209794	-0.7438290862	 1.6784712178	 0.097267
H	-1.6641048549	-0.976935682	 3.210945103	 0.096725
114.3929	165.8844	227.5303	396.7173	457.6444	535.165	589.6365	716.1127	722.5139	761.7474	786.3519	802.2165	811.0277	851.336	890.5748	922.9566	928.3111	966.4841	980.3084	1001.4287	1020.652	1023.7672	1038.9904	1059.5023	1079.9648	1100.134	1125.1311	1199.1695	1207.2766	1224.2696	1254.4779	1258.0618	1283.6525	1305.1162	1332.042	1379.4444	1397.1535	1443.9539	1507.2748	2967.9145	3051.0546	3070.3066	3193.5787	3196.738	3206.3536	3220.7924	3232.4123	3776.2662
OCC1C2C3C2C2C3N12	OC[C@H]1[C@H]2[C@@H]3[C@H]2[C@H]2[C@@H]3N12	
InChI=1S/C7H9NO/c9-1-2-3-4-5(3)7-6(4)8(2)7/h2-7,9H,1H2	InChI=1S/C7H9NO/c9-1-2-3-4-5(3)7-6(4)8(2)7/h2-7,9H,1H2/t2-,3-,4+,5-,6+,7-,8?/m0/s1
