23
gdb 80563	2.23787	1.47981	1.22522	1.1877	85.79	-0.2281	0.081	0.3091	1199.055	0.204878	-388.299061	-388.289486	-388.288542	-388.332914	36.84	
C	-0.0594864943	 1.5926464401	 0.0857183537	-0.417197
C	 0.0397370356	 0.0854384536	 0.0475405318	-0.06512
C	 1.3014709363	-0.6733122455	-0.3589236557	-0.136147
C	 2.6415686301	 0.0567501579	-0.3338113849	-0.264241
C	 2.9901130062	 0.0830922653	 1.1716494135	 0.158034
C	 3.772706841	 1.290255237	 1.6560687526	-0.411684
O	 1.7234200365	 0.0401618769	 1.8495832276	-0.312332
C	 0.8170414342	-0.7136816303	 1.0696217126	 0.41391
C	 0.2537345508	-1.9182786021	 1.7738743333	-0.463616
H	 0.7769381447	 2.0341339585	 0.6311154739	 0.129568
H	-0.0820584675	 2.0208058808	-0.9227474134	 0.111141
H	-0.9780634772	 1.9003283537	 0.5967792533	 0.115769
H	-0.8711207739	-0.4067260068	-0.2886544876	 0.077035
H	 1.1887922615	-1.5321240533	-1.0114454297	 0.082146
H	 3.4015213682	-0.4747439756	-0.9133489559	 0.100169
H	 2.5747301867	 1.0738276053	-0.7370755794	 0.10043
H	 3.5484703378	-0.8348766849	 1.4208700881	 0.065843
H	 3.2486589588	 2.2189309169	 1.4089614133	 0.122301
H	 3.9102497651	 1.2517842051	 2.740273538	 0.125548
H	 4.76086825	 1.3149639564	 1.185559807	 0.11421
H	-0.3059485192	-1.6195918948	 2.666868364	 0.124835
H	-0.4265727942	-2.4680512046	 1.1164028248	 0.112778
H	 1.0525616228	-2.5985131794	 2.0890674292	 0.11662
84.8039	139.4639	193.0482	203.5982	214.4635	235.329	247.895	281.6294	361.8245	460.2318	500.373	532.7154	579.3366	635.9781	741.0527	787.5371	827.8585	862.9752	895.83	922.4615	957.7905	983.4481	1002.0088	1030.1127	1062.8969	1116.629	1125.0603	1129.9724	1132.0134	1150.2108	1171.9877	1219.889	1237.0131	1262.8589	1301.6329	1341.1875	1368.5654	1387.4146	1407.5639	1410.1191	1413.3695	1452.8325	1479.8517	1483.8355	1486.3838	1495.4146	1495.4909	1501.524	1505.4293	2955.0154	3028.9274	3032.3846	3036.058	3039.8318	3087.407	3089.6774	3092.725	3107.0915	3110.1742	3116.7344	3117.0663	3132.349	3164.7156
CC1C2CC(C)OC12C	C[C@H]1[C@H]2C[C@@H](C)O[C@@]12C	
InChI=1S/C8H14O/c1-5-4-7-6(2)8(7,3)9-5/h5-7H,4H2,1-3H3	InChI=1S/C8H14O/c1-5-4-7-6(2)8(7,3)9-5/h5-7H,4H2,1-3H3/t5-,6+,7-,8+/m1/s1
