21
gdb 105176	2.16435	1.02015	0.7958	1.3924	89.25	-0.2259	0.0557	0.2816	1550.3798	0.179295	-387.055801	-387.044784	-387.04384	-387.093622	38.925	
C	 0.2087540691	 1.4517897544	-0.318046886	-0.378767
C	 0.0160621753	 0.0491025733	 0.2648835344	-0.248041
C	-1.4117461032	-0.4706735866	 0.1118470365	 0.132422
C	-1.8196475553	-1.0577358858	-1.2452103948	-0.36113
C	-1.6325683777	-1.9636704343	-0.0618306073	 0.058038
O	-0.5069710696	-2.7871772474	 0.0150535087	-0.42167
C	-2.4197223039	 0.2493743174	 0.8484048887	 0.002345
C	-3.2488052276	 0.8606064001	 1.4749900219	 0.105536
C	-4.2528513353	 1.594270602	 2.2327215757	-0.501737
H	 1.2365320784	 1.7973004776	-0.1695201092	 0.108059
H	 0.0010479757	 1.46541036	-1.3934755836	 0.110472
H	-0.463802382	 2.1707904226	 0.1595057247	 0.125227
H	 0.6951722265	-0.6623303917	-0.2121048307	 0.108768
H	 0.2703093182	 0.0531623982	 1.3312605334	 0.10349
H	-2.8219988126	-0.8682101444	-1.6106934528	 0.118767
H	-1.0431995943	-1.0776945183	-2.0034927382	 0.114696
H	-2.5276345251	-2.3690435968	 0.4078218154	 0.096652
H	-0.5857836905	-3.4605697017	-0.6686631816	 0.28926
H	-4.9740505781	 0.9150572361	 2.7013082439	 0.145609
H	-3.7920606233	 2.1852429646	 3.0321542497	 0.147401
H	-4.8155718347	 2.2849615906	 1.5943372512	 0.144603
13.3537	74.3277	103.4064	105.3207	175.285	219.0503	243.2522	268.2177	274.7349	317.3645	348.5339	412.3485	489.2762	534.0198	590.2436	609.2019	775.4745	812.791	852.9202	910.3368	965.2866	987.2263	1030.6915	1047.9389	1052.5801	1054.1829	1097.7023	1112.0981	1120.3309	1178.8797	1260.7171	1271.5861	1309.4706	1345.2144	1362.0204	1409.4105	1413.4595	1420.2071	1473.6453	1478.1124	1479.9389	1489.4765	1496.4207	1509.4465	2362.8133	3022.9661	3033.9737	3040.9154	3080.9541	3084.1021	3090.1206	3102.7442	3111.1967	3114.3202	3130.8109	3226.3843	3804.7768
CCC1(CC1O)C#CC	CC[C@]1(C[C@H]1O)C#CC	
InChI=1S/C8H12O/c1-3-5-8(4-2)6-7(8)9/h7,9H,4,6H2,1-2H3	InChI=1S/C8H12O/c1-3-5-8(4-2)6-7(8)9/h7,9H,4,6H2,1-2H3/t7-,8-/m1/s1
