12
gdb 42242	2.96693	1.27021	1.01754	3.9307	60.44	-0.3087	-0.1133	0.1954	1097.7449	0.076047	-472.654734	-472.646781	-472.645837	-472.688573	27.199	
O	 1.4868933835	 2.3950526218	-1.1953942869	-0.253216
C	 0.4789030161	 1.9781062606	-0.689250605	 0.302813
C	 0.5206951409	 1.1502757234	 0.532766494	 0.23707
N	 0.568780765	 0.4738772079	 1.4691085207	-0.293418
C	-0.9018625362	 2.2186295567	-1.2640326161	 0.02333
C	-1.66355317	 0.970836506	-1.7746159384	-0.442448
C	-2.6594512726	 1.3420353241	-0.6737284871	 0.465386
O	-3.6980233797	 0.9655659547	-0.2552467825	-0.282885
O	-1.907972848	 2.4209416796	-0.2324839422	-0.24086
H	-0.8530563797	 3.0626103394	-1.9534792834	 0.142373
H	-2.0474568334	 1.0305913781	-2.7930563089	 0.170059
H	-1.1738328358	 0.0077402877	-1.6173426539	 0.171796
45.012	74.8466	158.3969	183.8904	301.0125	319.3904	413.8572	496.9665	519.2664	650.2936	667.8529	737.3643	784.4359	891.5521	953.2496	962.6272	1032.0343	1097.7143	1112.2696	1216.7552	1221.5197	1270.0796	1334.2902	1450.9204	1804.1572	1969.9626	2341.4148	3094.1264	3117.1479	3158.3621
O=C(C#N)C1CC(=O)O1	O=C(C#N)[C@H]1CC(=O)O1	
InChI=1S/C5H3NO3/c6-2-3(7)4-1-5(8)9-4/h4H,1H2	InChI=1S/C5H3NO3/c6-2-3(7)4-1-5(8)9-4/h4H,1H2/t4-/m1/s1
