19
gdb 38427	3.74464	1.28776	1.27646	0.2345	73.59	-0.2437	0.0766	0.3204	1064.4271	0.160433	-423.004436	-422.99696	-422.996015	-423.036773	29.376	
C	 0.4489640087	 1.6836082337	-0.3374006299	-0.083042
C	 1.7565558443	 1.2789278027	 0.3661657252	-0.322632
C	 1.0010100754	-0.0224820308	 0.7297512594	 0.47231
C	 1.5576068835	-1.3464988008	 0.1563854514	-0.317727
C	 2.2509864532	-1.9983727845	 1.3306648076	 0.048384
O	 3.0919095444	-1.0946979108	 2.0679725304	-0.263185
C	 1.775306963	-1.3750503004	 2.5733084574	 0.048384
C	 0.7633101025	-0.3056623687	 2.2313750455	-0.317729
O	-0.184922172	 0.4423736866	 0.0426044092	-0.329179
H	-0.0740500255	 2.5519599078	 0.0808897777	 0.101928
H	 0.5031636703	 1.795560954	-1.4269303475	 0.101928
H	 2.6220244199	 1.1418152069	-0.2831820594	 0.11218
H	 2.0473402293	 1.8948348054	 1.2179824948	 0.112179
H	 0.718391046	-1.9711288061	-0.1736539619	 0.116707
H	 2.2132379775	-1.1858476401	-0.7046074295	 0.106341
H	 2.6028693058	-3.0254708838	 1.2815890365	 0.095052
H	 1.7444467801	-1.9006062055	 3.5240970402	 0.095052
H	 0.8541824239	 0.595042789	 2.8457382252	 0.106341
H	-0.2522871104	-0.6991638546	 2.3621069475	 0.116708
68.1498	99.615	249.5328	343.0849	364.1445	394.8752	420.522	505.6257	661.057	770.4395	781.5769	815.259	859.3534	865.559	878.8576	925.0737	949.665	964.2266	973.0123	993.0595	1023.8819	1035.4809	1086.3908	1108.9459	1144.6022	1158.2953	1171.6417	1200.0436	1230.4823	1246.2203	1262.4029	1280.8324	1292.0244	1332.8609	1340.1471	1355.6147	1439.0371	1469.0469	1478.0504	1495.6299	1530.7554	3017.8967	3037.7642	3041.8187	3056.785	3085.4161	3087.1614	3090.193	3140.5842	3143.5152	3155.8066
C1CC2(CC3OC3C2)O1	C1C[C@]2(C[C@H]3O[C@H]3C2)O1	
InChI=1S/C7H10O2/c1-2-8-7(1)3-5-6(4-7)9-5/h5-6H,1-4H2	InChI=1S/C7H10O2/c1-2-8-7(1)3-5-6(4-7)9-5/h5-6H,1-4H2/t5-,6+,7-
