13
gdb 129047	3.07005	1.54628	1.02834	2.5374	78.05	-0.2424	-0.0664	0.176	1062.9248	0.088939	-415.542383	-415.534976	-415.534032	-415.57442	27.979	
N	-0.1170583454	 1.2959682961	-0.2110917781	-0.516141
C	 0.0154786174	 0.0330596235	-0.0364433708	 0.224408
C	 1.2282440451	-0.737365652	 0.1546568574	-0.225296
C	 1.1448058601	-2.0639488414	 0.3214701611	 0.094018
O	-0.008743355	-2.7613522723	 0.3262635813	-0.230213
N	-1.222287312	-2.1096123704	 0.150580156	-0.143999
C	-1.2013296515	-0.8215115068	-0.0158893867	 0.114553
C	-2.4796745689	-0.2169579703	-0.1902398735	 0.343865
C	-3.5574455311	 0.2939266362	-0.3373792071	-0.357633
H	 0.7981388517	 1.7525097141	-0.2022744258	 0.215868
H	 2.1949917619	-0.2484565968	 0.1631048678	 0.121432
H	 1.9862009171	-2.7306802439	 0.4713020453	 0.150905
H	-4.5063519095	 0.7533475241	-0.4681372369	 0.208232
85.8897	149.1852	197.791	372.5553	373.8185	420.0798	453.3888	544.0813	566.8696	578.2519	658.5356	664.4912	710.0563	770.3188	829.8483	883.2738	908.4057	916.5199	959.7705	1027.4276	1129.4293	1229.3918	1255.3589	1384.7177	1444.2504	1572.4003	1648.0358	1703.2919	2240.5933	3199.4018	3218.7987	3441.6892	3501.8688
N=C1C=CON=C1C#C	[NH]C1=C[CH]ON=C1C#C	
InChI=1S/C6H4N2O/c1-2-6-5(7)3-4-9-8-6/h1,3-4,7H	InChI=1S/C6H4N2O/c1-2-6-5(7)3-4-9-8-6/h1,3-4,7H
