19
gdb 53552	4.45484	0.82103	0.76042	1.9296	83.51	-0.2306	0.0548	0.2854	1551.0438	0.157512	-385.824302	-385.814911	-385.813967	-385.860647	33.519	
C	 0.5450166342	 0.8793226942	 1.2350250498	-0.497545
C	 0.1439624191	-0.2116628887	 0.3576503782	 0.078192
C	-0.1785766661	-1.1088902138	-0.3775128354	 0.05038
C	-0.5732127394	-2.204826708	-1.2552065292	-0.469225
C	-1.6657183721	-3.0695875277	-0.6811304365	 0.484156
C	-2.8233280849	-2.6535339403	 0.1672269544	-0.328584
C	-1.8962838686	-3.7605765529	 0.6436091986	-0.171175
C	-2.1454404387	-5.0036419344	-0.199847637	-0.088712
O	-1.9983458506	-4.245804593	-1.4336353733	-0.326627
H	 1.5982612917	 1.1413605877	 1.0853887944	 0.149458
H	-0.0496772612	 1.7806741144	 1.0500369225	 0.148244
H	 0.419061537	 0.6101725727	 2.289567208	 0.147124
H	-0.9191019739	-1.8097335288	-2.2212644287	 0.139
H	 0.2915900291	-2.842300465	-1.4808040709	 0.135469
H	-2.6974290645	-1.7120535005	 0.6909870975	 0.126211
H	-3.8354252561	-2.8817882239	-0.1571783484	 0.10916
H	-1.3430133735	-3.711522265	 1.5712426125	 0.103226
H	-1.3569356411	-5.7605239811	-0.1196047557	 0.107742
H	-3.1285095406	-5.484028356	-0.124258391	 0.103508
16.0791	49.2187	81.6897	197.0958	233.0005	243.0947	328.7675	384.7929	395.1832	420.1077	490.0825	671.4829	745.3427	777.775	816.5441	877.1639	945.5637	967.0903	982.5329	991.3892	1018.7737	1031.0416	1054.1415	1054.9319	1072.9919	1129.8189	1140.9383	1166.3664	1172.9054	1229.1308	1271.8137	1324.209	1364.2755	1394.764	1415.7213	1472.1905	1478.5759	1479.5673	1487.5277	1519.1628	2375.6085	3005.4766	3020.5232	3026.6435	3038.7092	3068.9675	3087.0015	3087.4869	3113.9704	3205.8913	3216.7589
CC#CCC12CC1CO2	CC#CC[C@]12C[C@H]1CO2	
InChI=1S/C8H10O/c1-2-3-4-8-5-7(8)6-9-8/h7H,4-6H2,1H3	InChI=1S/C8H10O/c1-2-3-4-8-5-7(8)6-9-8/h7H,4-6H2,1H3/t7-,8-/m0/s1
