20
gdb 107116	3.37075	1.11383	1.07865	1.702	79.42	-0.2059	0.0728	0.2787	1232.4913	0.170175	-403.0625	-403.053725	-403.05278	-403.095733	34.201	
C	-0.0768557857	 1.5220347248	-0.0047949892	-0.50934
C	 0.0964391911	 0.0374563683	 0.0262818404	 0.351594
N	-0.8113139175	-0.8649939971	 0.7806447999	-0.38119
C	 0.6561230223	-0.8806616802	 1.0385050338	-0.18131
C	 1.3637925826	-1.7219767827	-0.0660940453	 0.333024
C	 2.7707601441	-2.2102698518	 0.0742164738	-0.166531
O	 2.8841245672	-3.3002597897	 0.9826989747	-0.416876
C	 0.3764347812	-2.2553962911	-1.0787413737	-0.350729
C	 0.7588267276	-0.7985543724	-1.1177424764	-0.175342
H	 0.836808359	 2.0170313308	-0.3522978038	 0.126539
H	-0.890193754	 1.8136391052	-0.680348749	 0.129119
H	-0.3097639342	 1.910622587	 0.9925840692	 0.117422
H	-1.2327165505	-0.3068330809	 1.5233650263	 0.223735
H	 1.0557484197	-0.6911828467	 2.0270700939	 0.094414
H	 3.1691416039	-2.4687511902	-0.9207166817	 0.083657
H	 3.4158873596	-1.4250826671	 0.4867503917	 0.104305
H	 2.2387058141	-3.9613852569	 0.710320638	 0.281827
H	 0.8241507137	-2.8524178872	-1.8687881705	 0.103241
H	-0.6203674797	-2.5502712504	-0.7780263559	 0.143413
H	 1.2557581753	-0.3436547717	-1.9659984962	 0.08903
82.4698	114.4016	210.12	215.9619	282.4427	295.6999	354.5343	389.5748	426.9632	457.2852	539.0308	617.679	684.6655	786.7321	814.7352	849.5921	873.4574	905.5359	925.0403	939.2269	975.647	990.6309	1002.5115	1025.5269	1053.255	1083.5246	1097.6554	1110.743	1122.3649	1180.9002	1221.2315	1241.7004	1282.1638	1335.1182	1358.1156	1378.0734	1411.34	1429.4315	1449.1071	1471.0417	1481.2058	1499.5236	1502.0802	2968.5982	3020.4732	3049.9462	3081.6295	3094.9412	3130.5216	3186.2657	3191.4894	3231.9829	3466.3688	3807.8844
CC12NC1C1(CO)CC21	C[C@]12N[C@H]1[C@@]1(CO)C[C@@H]21	
InChI=1S/C7H11NO/c1-6-4-2-7(4,3-9)5(6)8-6/h4-5,8-9H,2-3H2,1H3	InChI=1S/C7H11NO/c1-6-4-2-7(4,3-9)5(6)8-6/h4-5,8-9H,2-3H2,1H3/t4-,5+,6+,7+/m0/s1
