18
gdb 65863	2.70123	1.28707	1.17836	2.4248	73.61	-0.2554	-0.0417	0.2137	1134.5793	0.146491	-439.125332	-439.116543	-439.115599	-439.159237	32.428	
C	-0.1556373347	 1.6373172731	 0.4131909723	-0.446537
C	 0.08574067	 0.1659984925	 0.0866238086	 0.271059
C	 0.8967036548	-0.0992636594	-1.1903731324	-0.271799
C	 1.6679460309	-1.3769412347	-0.8339117383	-0.308731
C	 1.7881490063	-1.3067364773	 0.6723704262	 0.407854
N	 2.6035659173	-1.9475786052	 1.388458668	-0.534222
O	 0.858517594	-0.4191822713	 1.1619216228	-0.27621
C	-1.2642893249	-0.5622422944	 0.0776331305	 0.131875
O	-1.8883880151	-0.8323721938	-0.9137397269	-0.243445
H	 0.8036133351	 2.1456389037	 0.5434299955	 0.13746
H	-0.7070269111	 2.1173458835	-0.4004904968	 0.140769
H	-0.7314757278	 1.7477702159	 1.3370995831	 0.134207
H	 0.2344946944	-0.2093465648	-2.0499414522	 0.13803
H	 1.5798179155	 0.7346793137	-1.3753746194	 0.112287
H	 1.0951609641	-2.2719791846	-1.1019822971	 0.143879
H	 2.6490605935	-1.4632476109	-1.3005159517	 0.140877
H	 2.4660846157	-1.7298129826	 2.3769686788	 0.223087
H	-1.630054868	-0.8157259633	 1.097287579	 0.099563
55.2058	101.1848	134.4239	220.0095	277.1172	290.9037	299.9876	403.2312	456.1028	514.2001	544.9031	614.7336	690.0995	773.7559	818.4185	892.9929	897.3271	916.3476	949.2829	979.1367	1008.0275	1029.4858	1084.974	1124.8245	1128.6281	1207.8803	1224.1095	1270.557	1312.6811	1318.0358	1346.7154	1396.5385	1405.8151	1474.8664	1481.7548	1490.764	1498.0336	1783.7677	1835.4506	2897.2276	3041.3845	3055.554	3067.9735	3117.2107	3125.8851	3132.8487	3139.439	3472.5354
CC1(CCC(=N)O1)C=O	C[C@]1(CC[C]([NH])O1)C=O	
InChI=1S/C6H9NO2/c1-6(4-8)3-2-5(7)9-6/h4,7H,2-3H2,1H3	InChI=1S/C6H9NO2/c1-6(4-8)3-2-5(7)9-6/h4,7H,2-3H2,1H3/t6-/m0/s1
