23
gdb 88661	3.04293	1.04117	0.99214	1.571	86.39	-0.244	0.0853	0.3294	1372.1397	0.205114	-388.271612	-388.262014	-388.26107	-388.30647	36.227	
C	 0.2601925171	 1.5361040782	-0.1882423582	-0.419433
C	 0.1733132209	 0.0348069571	-0.006882242	 0.000265
C	 1.4160252943	-0.8271544199	 0.0233059467	-0.299385
C	 0.5840420507	-0.6614219604	 1.2707438491	-0.028704
C	 1.120060475	 0.0596363841	 2.4831859674	 0.128016
C	 2.0385720829	-0.7285345625	 3.4449807086	-0.313556
C	 3.0101856596	 0.4570922536	 3.2675964844	 0.179531
C	 4.4318115663	 0.1909494341	 2.8197184668	-0.403948
O	 2.1823456419	 1.0095129371	 2.2116237368	-0.307325
H	 1.1253214169	 1.9504752382	 0.3329240184	 0.150247
H	 0.3423687444	 1.7919597527	-1.2507738931	 0.108192
H	-0.6364941603	 2.032830156	 0.2005760576	 0.107599
H	-0.683505396	-0.4167771682	-0.502495075	 0.077187
H	 1.4109759324	-1.7818786319	-0.4914579459	 0.100666
H	 2.3670241168	-0.3054596012	 0.0101645588	 0.122482
H	-0.033492527	-1.509919712	 1.5609012072	 0.080395
H	 0.2971702614	 0.5633719692	 3.0127821107	 0.071144
H	 1.6607961392	-0.9170314755	 4.4509404713	 0.102689
H	 2.4117943006	-1.6592149779	 3.0101753194	 0.10752
H	 3.009427405	 1.1351304611	 4.1337331095	 0.072039
H	 4.4522817431	-0.5096398113	 1.9794492713	 0.122426
H	 4.9145174086	 1.1216728141	 2.5046271106	 0.126397
H	 5.0165003664	-0.2338494846	 3.6433002697	 0.115559
56.6016	61.3778	149.4336	199.0935	224.4641	239.8809	284.4422	330.1744	366.6591	431.4924	486.2336	583.9154	664.6315	761.0174	787.0663	848.2512	878.6701	893.9935	924.1603	925.8225	941.6171	974.9368	994.4464	1059.8356	1079.2811	1092.0629	1112.4693	1119.6384	1134.3597	1148.6286	1156.3416	1200.3899	1203.2618	1238.0472	1251.962	1280.735	1325.0312	1365.7156	1384.8841	1397.8035	1411.3358	1417.0684	1425.9923	1481.4989	1486.4609	1490.6736	1495.3355	1504.5333	1506.2694	2980.3046	2991.6913	3027.8787	3032.4744	3068.6124	3079.8727	3103.9426	3112.2345	3113.8002	3123.0343	3129.7342	3131.9188	3140.9965	3219.984
CC1CC1C1CC(C)O1	C[C@H]1C[C@H]1[C@H]1C[C@@H](C)O1	
InChI=1S/C8H14O/c1-5-3-7(5)8-4-6(2)9-8/h5-8H,3-4H2,1-2H3	InChI=1S/C8H14O/c1-5-3-7(5)8-4-6(2)9-8/h5-8H,3-4H2,1-2H3/t5-,6+,7+,8+/m0/s1
