23
gdb 115295	3.87694	0.89348	0.76493	1.4192	88.84	-0.2237	0.0371	0.2609	1550.7905	0.206389	-388.315382	-388.305773	-388.304829	-388.349601	36.581	
C	-0.0248482838	 1.5410549024	 0.0578706976	-0.473758
C	 0.0112176352	 0.0394204805	-0.0286662467	 0.329921
C	-0.0288785092	-0.6133165365	-1.1930773802	-0.15699
C	-0.0326975594	-2.1124927106	-1.3356775144	-0.236274
C	-0.3403710234	-2.8286753671	-0.0108485334	 0.033791
C	-0.0759735255	-4.3272452225	-0.0973760435	-0.097591
O	-0.8897320001	-4.8699753987	-1.1286959673	-0.425171
C	 0.4569543079	-2.1799245009	 1.1277108776	-0.215741
C	 0.0846655916	-0.7006094623	 1.2894623897	-0.299094
H	 0.8788144434	 1.9344444188	 0.5421092271	 0.117138
H	-0.1101661637	 2.0024675094	-0.9298076057	 0.116712
H	-0.873151832	 1.8826441592	 0.666129125	 0.118045
H	-0.0669090632	-0.0392866276	-2.1175921315	 0.070321
H	-0.7588529886	-2.418236583	-2.0961327784	 0.117196
H	 0.9443154717	-2.4516854581	-1.7171237717	 0.095048
H	-1.4109672301	-2.700501308	 0.2031721912	 0.079636
H	 0.9940137732	-4.5005408392	-0.3040906513	 0.079813
H	-0.3023790526	-4.798193346	 0.873316751	 0.080751
H	-0.688725271	-5.8064864347	-1.2099219112	 0.28578
H	 0.2901650937	-2.7135663835	 2.071087464	 0.08703
H	 1.5296870397	-2.2615488862	 0.9052702381	 0.094997
H	 0.8092165737	-0.2026009369	 1.9479372993	 0.095114
H	-0.8828467275	-0.6100685586	 1.8070340947	 0.103325
79.5923	116.0086	182.331	191.0037	211.3062	259.0728	273.9615	319.1733	367.4903	417.4436	449.8084	488.8203	523.0726	665.7411	766.7625	810.6626	825.6975	904.1069	936.0195	956.8028	977.4207	1027.4821	1050.1821	1052.3073	1073.8892	1102.1191	1106.6272	1136.8655	1166.3512	1179.8727	1216.4943	1245.3127	1271.0715	1291.3076	1322.2884	1331.742	1343.5175	1382.3254	1387.8874	1405.888	1414.8715	1460.3341	1474.9251	1479.2634	1480.7345	1493.2756	1495.8292	1520.6465	1743.0199	2952.0986	2975.6359	2979.402	2989.6155	3007.2119	3009.7378	3017.0816	3030.1359	3053.0373	3057.7348	3066.6368	3107.3614	3136.0973	3833.9955
CC1=CCC(CO)CC1	CC1=CC[C@@H](CO)CC1	
InChI=1S/C8H14O/c1-7-2-4-8(6-9)5-3-7/h2,8-9H,3-6H2,1H3	InChI=1S/C8H14O/c1-7-2-4-8(6-9)5-3-7/h2,8-9H,3-6H2,1H3/t8-/m1/s1
