23
gdb 59470	3.04967	0.93276	0.799	1.8	86.97	-0.2525	0.0842	0.3367	1552.2151	0.204096	-388.2662	-388.256143	-388.255199	-388.301832	37.39	
C	-0.3537496114	 1.3926435896	 0.2701956203	-0.390588
C	 0.1824625005	 0.0386160161	-0.2169808188	 0.000446
C	 1.0560876968	 0.1873581562	-1.4708690253	-0.392796
C	 0.9691580244	-0.6337891431	 0.8892647374	 0.063197
O	 0.2362919537	-1.1760596975	 1.9947441322	-0.278658
C	 0.9825738973	-2.0803369584	 1.1661813016	 0.054785
C	 0.2248502992	-3.1091621581	 0.3983370103	-0.006764
C	 0.9905419181	-4.2140306286	-0.2943139689	-0.269545
C	 0.1647979022	-4.524268168	 0.9247394529	-0.268601
H	 0.4692230271	 2.0732841088	 0.5190767992	 0.11086
H	-0.9621587922	 1.8744305265	-0.5019263101	 0.109209
H	-0.9696979514	 1.2659136701	 1.1649819584	 0.131314
H	-0.6763874468	-0.5965980436	-0.4604743942	 0.077516
H	 1.944579839	 0.7948691114	-1.2615610235	 0.114185
H	 1.3957870171	-0.7858572444	-1.8390565722	 0.118951
H	 0.5019840568	 0.680889178	-2.2754512923	 0.114409
H	 1.8575448517	-0.0705425937	 1.1935211648	 0.078493
H	 1.8779732305	-2.4768981551	 1.6538768519	 0.079728
H	-0.6671533155	-2.7480753055	-0.1005713275	 0.091137
H	 0.6363395862	-4.5484746502	-1.2627196762	 0.115407
H	 2.0709166366	-4.2223395976	-0.1915812149	 0.113912
H	 0.6865806852	-4.7389690344	 1.8515275201	 0.117471
H	-0.7606934448	-5.0742966985	 0.7979286849	 0.115932
47.8349	60.0016	124.2741	171.0215	223.3947	244.1947	266.8672	279.9912	338.7326	368.144	449.0501	502.9485	581.3254	754.824	786.5225	827.0339	841.1427	875.1418	907.9342	925.8409	928.4257	960.878	972.2796	989.5761	1060.3465	1073.044	1082.3044	1117.6492	1128.764	1150.3271	1184.9135	1197.4725	1204.8682	1214.2955	1226.2302	1299.6458	1312.9285	1335.3861	1344.3775	1397.1385	1414.6802	1431.838	1470.1264	1488.8713	1490.753	1492.6424	1503.894	1510.3276	1520.3695	3026.5727	3029.8801	3041.4184	3052.5504	3066.3193	3091.4604	3098.8833	3105.9944	3114.631	3131.9189	3136.3508	3174.3407	3210.5698	3226.1561
CC(C)C1OC1C1CC1	CC(C)[C@H]1O[C@H]1C1CC1	
InChI=1S/C8H14O/c1-5(2)7-8(9-7)6-3-4-6/h5-8H,3-4H2,1-2H3	InChI=1S/C8H14O/c1-5(2)7-8(9-7)6-3-4-6/h5-8H,3-4H2,1-2H3/t7-,8+/m1/s1
