17
gdb 39889	4.09337	1.52524	1.41229	1.234	71.61	-0.2356	0.0728	0.3084	942.9084	0.137433	-421.746621	-421.740283	-421.739339	-421.777147	26.497	
C	 0.0327380807	 1.5369632123	 0.0634936873	-0.290644
O	 1.1789719609	 0.6570753699	-0.0132683236	-0.294102
C	-0.1181521649	 0.0926536244	-0.0122771647	 0.530455
C	-0.5603517241	-0.9813744049	 0.9860279817	-0.053643
O	-1.982698491	-0.978111969	 0.7801599315	-0.270948
C	-1.9695308005	-1.4356717827	-0.5894578838	 0.081808
C	-1.3852669192	-2.8585187691	-0.4476795457	-0.249318
C	-0.1150989367	-2.0776483012	-0.0781076985	-0.058098
C	-0.5491707125	-0.9160563051	-1.0624602061	-0.192856
H	-0.0946654705	 2.0480605	 1.0164402326	 0.120655
H	-0.1350279266	 2.1504261094	-0.8203509507	 0.117603
H	-0.2976527448	-0.9883764093	 2.0416603503	 0.088545
H	-2.909094894	-1.200043749	-1.0854691421	 0.084428
H	-1.8592775566	-3.5166973201	 0.2841886665	 0.10523
H	-1.2661400004	-3.3626371383	-1.4104349193	 0.104876
H	 0.8913848961	-2.4842190478	-0.0231396612	 0.091004
H	-0.3014207959	-0.8709926198	-2.1198425842	 0.085004
145.3184	252.7142	301.1385	452.9013	460.3388	514.148	607.7463	683.9013	765.2562	805.6	819.5227	850.4058	880.0213	893.5754	917.6554	932.8397	952.3683	992.0473	998.9461	1037.3822	1058.5168	1067.269	1091.5485	1115.2814	1149.2894	1159.9483	1171.8765	1172.7996	1212.3123	1226.1915	1238.789	1252.6533	1277.8884	1324.9312	1462.6214	1483.4592	1548.3035	3061.567	3086.2441	3124.3035	3140.4251	3148.1054	3153.8988	3161.0986	3173.1474
C1OC11C2OC3CC2C13	C1O[C@]21[C@H]1O[C@@H]3C[C@H]1[C@H]23	
InChI=1S/C7H8O2/c1-3-5-4(1)9-6(3)7(5)2-8-7/h3-6H,1-2H2	InChI=1S/C7H8O2/c1-3-5-4(1)9-6(3)7(5)2-8-7/h3-6H,1-2H2/t3-,4+,5-,6-,7-/m0/s1
