23
gdb 104453	2.9928	1.18835	1.05887	1.6979	81.17	-0.2447	0.0757	0.3204	1271.031	0.206661	-425.444386	-425.435161	-425.434216	-425.477832	36.368	
C	-0.1641295505	 1.5729856761	-0.0710876097	-0.397242
C	 0.0159441552	 0.0520759585	-0.0216250259	-0.203451
C	 0.7703453493	-0.4709212564	 1.2074951382	 0.371381
O	 0.0444181223	-0.0456739369	 2.3641459466	-0.482623
C	 0.8530543852	-2.0139865377	 1.1826442421	-0.223274
C	 1.6682059625	-2.5420890671	 2.3725367236	-0.229646
C	 3.0058210306	-1.8075541651	 2.4697969019	-0.068227
O	 2.8244208404	-0.3947396442	 2.4958343133	-0.261806
C	 2.2022681455	 0.0802249342	 1.3079866191	-0.127363
H	 0.7850023071	 2.0972971941	-0.2229038814	 0.111443
H	-0.8247527503	 1.8541900149	-0.896676376	 0.10858
H	-0.6052133683	 1.9327629419	 0.8613839366	 0.137168
H	-0.970693839	-0.427261192	-0.0209257096	 0.103709
H	 0.5298384822	-0.3002707418	-0.9246099632	 0.090133
H	 0.6795796175	-0.028617675	 3.09079191	 0.283655
H	-0.1612393745	-2.4256628473	 1.1967782888	 0.101359
H	 1.3215293255	-2.3316809111	 0.2414592385	 0.088608
H	 1.10446443	-2.3864780438	 3.2995718143	 0.107187
H	 1.8422595017	-3.6199308292	 2.280411022	 0.096658
H	 3.5401881254	-2.0619339211	 3.3895595894	 0.107638
H	 3.6507359706	-2.0770260624	 1.6160068216	 0.088165
H	 2.7923800434	-0.2060336198	 0.4221729073	 0.086278
H	 2.1945221284	 1.1696359314	 1.3881785926	 0.11167
89.1591	137.0638	194.4105	230.4839	235.3891	311.348	328.3755	367.313	412.04	437.758	466.8536	514.8237	527.061	603.9885	743.4434	782.075	853.8037	866.4889	902.8214	933.6333	944.805	984.9711	1009.5394	1042.6485	1067.9037	1089.2152	1105.4062	1114.5228	1179.6211	1204.1107	1227.0197	1241.2322	1277.0162	1321.9482	1331.952	1350.624	1363.9536	1378.8699	1379.6324	1405.731	1411.4766	1425.4129	1469.4959	1479.9346	1486.0143	1486.4174	1500.3264	1502.5091	1511.7694	2963.2387	2976.3705	3018.491	3027.4706	3036.9004	3042.2168	3060.2895	3074.4847	3081.5066	3088.1048	3098.4586	3106.3935	3129.9257	3777.2477
CCC1(O)CCCOC1	CC[C@@]1(O)CCCOC1	
InChI=1S/C7H14O2/c1-2-7(8)4-3-5-9-6-7/h8H,2-6H2,1H3	InChI=1S/C7H14O2/c1-2-7(8)4-3-5-9-6-7/h8H,2-6H2,1H3/t7-/m1/s1
