18
gdb 60941	3.73073	1.0675	0.97283	2.3211	73.35	-0.2405	-0.0388	0.2017	1238.1474	0.147599	-438.999891	-438.991865	-438.990921	-439.033297	30.292	
O	 0.4850219445	 1.3145041865	-0.2992609169	-0.43173
C	 0.0098823485	 0.0124727486	-0.080745077	-0.027117
C	 0.3854357533	-0.8911267275	-1.2421966876	 0.138993
O	 1.0016054037	-0.4646850178	-2.190007639	-0.26695
C	 0.6241747599	-0.5413008355	 1.2087246134	 0.077273
C	 0.085664191	-0.2227800584	 2.6252934574	-0.076909
C	-1.0548201219	-1.2052618631	 2.2907404877	-0.176418
N	 0.1733874914	-1.9364677232	 1.7049174085	-0.173581
C	 0.8543006274	-1.5044429555	 3.0201124254	-0.16716
H	 0.9241977911	 1.284491046	-1.165306889	 0.295392
H	-1.090592984	 0.0128472044	-0.028970981	 0.094163
H	 0.074140653	-1.9492619595	-1.1653707484	 0.125786
H	 1.7130554312	-0.481175022	 1.1016866964	 0.084376
H	 0.0414200418	 0.7425864399	 3.1382437037	 0.079856
H	-1.5163855827	-1.7461398551	 3.1208479479	 0.105879
H	-1.8101136193	-0.925029977	 1.5556574627	 0.10537
H	 1.945958273	-1.4933445529	 2.9633077938	 0.107237
H	 0.502954228	-2.0659819779	 3.889287802	 0.10554
47.7247	99.7196	156.8632	268.7303	305.2409	354.9115	409.1431	477.3453	566.7226	612.4829	761.5178	779.9315	785.0889	842.2461	847.0416	903.4797	907.6987	935.1644	1004.7209	1035.542	1051.4779	1081.0085	1124.0131	1146.1746	1151.7027	1171.1056	1176.2921	1200.0809	1225.4964	1245.7803	1258.2146	1288.4468	1313.6352	1387.7214	1415.6482	1445.7434	1519.0738	1556.3189	1808.0924	2970.348	2985.9105	3047.2827	3052.1422	3061.809	3074.9958	3123.1252	3132.8191	3672.6391
OC(C=O)C1C2CN1C2	O[C@@H](C=O)[C@H]1[C@H]2CN1C2	
InChI=1S/C6H9NO2/c8-3-5(9)6-4-1-7(6)2-4/h3-6,9H,1-2H2	InChI=1S/C6H9NO2/c8-3-5(9)6-4-1-7(6)2-4/h3-6,9H,1-2H2/t5-,6+/m0/s1
