15
gdb 48829	2.71344	1.63079	1.15051	4.2966	66.76	-0.2482	-0.0479	0.2002	1023.1239	0.113954	-453.968654	-453.961014	-453.960069	-454.000961	28.226	
O	-0.949732211	 1.2911473822	-0.2183206143	-0.280797
C	 0.1583910864	 0.87864519	 0.0393675855	 0.074651
C	 1.3638284465	 1.7361542372	-0.0540024283	 0.114338
N	 1.1743600139	 3.2126994202	-0.0445323372	-0.349463
C	 1.63728656	 2.5835848749	-1.265567825	-0.085642
C	 3.1512047222	 2.6488985746	-1.4395622748	-0.16524
N	 3.6489781254	 1.9198625756	-0.2828709249	-0.329941
C	 2.7056987035	 1.3037488007	 0.4943517028	 0.389834
O	 2.9029060811	 0.5410077289	 1.4146365641	-0.377393
H	 0.3399275182	-0.1627366779	 0.365441581	 0.116405
H	 0.163509773	 3.3541680565	-0.1164425409	 0.256488
H	 0.9885109871	 2.5360326816	-2.1329648472	 0.124704
H	 3.4542394515	 2.1700398896	-2.3792363029	 0.119377
H	 3.5000947677	 3.687933305	-1.4476180475	 0.132667
H	 4.6283287745	 1.8274438209	-0.0666958303	 0.260011
115.3339	138.0043	182.7513	223.0225	285.7634	362.3639	435.2941	492.9998	556.3043	633.735	720.4807	751.729	783.2111	860.558	883.8115	934.3354	1007.4997	1033.8311	1049.866	1090.6242	1098.297	1174.1599	1220.1775	1231.8644	1296.0094	1338.2224	1356.9493	1418.3572	1429.7855	1455.9792	1515.437	1793.2922	1828.9391	2963.9452	3020.9025	3062.7908	3183.9437	3438.541	3651.0429
O=CC12NC1CNC2=O	O=C[C@]12N[C@H]1CNC2=O	
InChI=1S/C5H6N2O2/c8-2-5-3(7-5)1-6-4(5)9/h2-3,7H,1H2,(H,6,9)	InChI=1S/C5H6N2O2/c8-2-5-3(7-5)1-6-4(5)9/h2-3,7H,1H2,(H,6,9)/t3-,5-/m0/s1
