21
gdb 107761	3.48122	1.40451	1.37179	1.0903	80.37	-0.2422	0.0875	0.3297	1052.2694	0.185063	-387.092724	-387.085198	-387.084254	-387.124557	30.962	
C	 0.0385682468	 1.3425836407	 0.0137471396	-0.257615
O	-0.0620784154	-0.0646039896	 0.0053319717	-0.312241
C	-1.3577494713	-0.5901115629	 0.0086004116	 0.405685
C	-2.2986278079	-0.278726117	-1.1925525236	-0.276753
C	-3.4518510235	-1.1665093217	-0.7450244001	-0.057688
C	-2.8477411595	-2.3410327491	 0.0055847697	-0.062605
C	-1.3409443439	-2.1354691714	-0.0005463879	-0.257819
C	-3.4444317096	-1.1754425281	 0.7758008972	-0.057696
C	-2.2868486901	-0.2929076132	 1.2224543219	-0.276769
H	 1.1050171184	 1.5809987682	 0.0093799801	 0.125586
H	-0.4245507965	 1.7991852392	-0.8724370593	 0.108194
H	-0.4147117326	 1.7877908046	 0.9107508534	 0.108205
H	-2.5785302539	 0.7778052971	-1.2560490252	 0.091173
H	-1.8540275406	-0.5841930503	-2.1453274725	 0.097356
H	-4.3708056461	-1.2587351852	-1.3091227959	 0.079667
H	-3.3076329294	-3.3203256613	 0.0020670539	 0.079831
H	-0.8470621701	-2.5279454495	-0.8948581866	 0.097647
H	-0.8383982584	-2.5383632818	 0.884254429	 0.097644
H	-4.3578408209	-1.2743412415	 1.3477212656	 0.079668
H	-1.8330104246	-0.6095061379	 2.1672084421	 0.097354
H	-2.5660488509	 0.7627921807	 1.3010584054	 0.091176
75.9776	198.1846	222.4411	335.6378	380.2306	434.783	460.0441	470.5817	605.3988	640.3067	650.5679	781.1722	814.1931	814.8354	893.2167	908.1654	949.0991	957.0624	975.3087	976.7172	1019.1502	1023.108	1047.7259	1059.8539	1085.1907	1115.6966	1123.4513	1142.6052	1177.6316	1182.2301	1221.3059	1224.4413	1253.8581	1263.177	1265.837	1314.536	1319.7962	1327.2066	1397.4697	1485.6608	1487.3644	1487.5458	1492.6209	1508.0911	1519.5168	2990.6548	3035.648	3043.5923	3045.7109	3051.2849	3086.8767	3090.6869	3095.8855	3112.7464	3190.6927	3193.7082	3206.8867
COC12CC3C(C1)C3C2	CO[C@@]12C[C@H]3[C@@H](C1)[C@H]3C2	
InChI=1S/C8H12O/c1-9-8-2-5-6(3-8)7(5)4-8/h5-7H,2-4H2,1H3	InChI=1S/C8H12O/c1-9-8-2-5-6(3-8)7(5)4-8/h5-7H,2-4H2,1H3/t5-,6+,7-,8-
