18
gdb 98229	3.21668	1.09919	0.83172	1.6953	72.35	-0.2396	-0.0139	0.2257	1338.37	0.147099	-472.439015	-472.42929	-472.428346	-472.474106	35.361	
C	-1.1903126989	 1.0734179095	-0.2492272243	-0.346182
N	-0.2345128952	-0.0158238441	-0.0008763525	-0.157266
C	-0.1149412683	-0.4575102577	 1.3607577517	 0.436519
N	 0.9219984055	-1.3129547839	 1.6117545293	-0.557365
N	-0.9441617331	 0.0279840469	 2.2042525533	-0.558283
C	 0.3961550857	-0.6058375197	-1.0631247692	 0.420794
O	 1.1741401819	-1.5557958178	-0.9894161058	-0.414701
C	 0.116265939	-0.0451469831	-2.4641365521	-0.147567
O	 0.7856021622	-0.8021894618	-3.4241594821	-0.423885
H	-0.7476744769	 1.8222569472	-0.908086909	 0.134429
H	-2.1149716541	 0.696557287	-0.6967602609	 0.138981
H	-1.4300060503	 1.5205048296	 0.711047123	 0.188789
H	 1.3282361149	-1.7933697904	 0.8178822729	 0.285335
H	 0.8796626832	-1.8018803593	 2.4901932609	 0.249726
H	-0.7574988091	-0.3252692936	 3.1398426416	 0.210729
H	-0.9676752333	-0.0472864798	-2.6510838128	 0.121893
H	 0.4394363679	 1.0081240611	-2.4953751316	 0.121686
H	 1.2950533087	-1.4561048101	-2.9174426024	 0.296367
56.6384	80.5164	106.6846	141.826	227.8944	252.9009	367.1226	407.3835	421.46	434.7933	443.2452	459.6987	555.0938	574.8354	612.3451	668.4981	728.4668	789.4225	797.7775	915.4197	1026.9301	1103.7852	1117.3886	1131.3965	1154.2928	1166.2252	1223.1019	1269.4996	1301.6177	1371.6017	1417.9152	1460.1092	1467.0494	1493.0903	1505.3031	1518.798	1613.6596	1714.5476	1738.3815	2975.7131	3010.7411	3053.2495	3122.4444	3192.9357	3504.5099	3515.4699	3670.3981	3686.7034
CN(C(N)=N)C(=O)CO	CN(C(=N)N)C(=O)CO	
InChI=1S/C4H9N3O2/c1-7(4(5)6)3(9)2-8/h8H,2H2,1H3,(H3,5,6)	InChI=1S/C4H9N3O2/c1-7(4(5)6)3(9)2-8/h8H,2H2,1H3,(H3,5,6)
