18
gdb 55091	3.22397	1.21187	1.04143	5.3123	72.22	-0.2451	0.0188	0.264	1183.0535	0.147954	-439.08804	-439.079818	-439.078874	-439.121111	31.332	
C	-0.024765152	 1.5484952213	 0.0888828045	-0.480977
C	 0.0146094313	 0.0511907164	 0.0732565049	 0.371098
C	-0.91238296	-0.851295524	 0.840376517	-0.334731
C	 0.5774925391	-0.9822291554	 1.0464337751	-0.114403
C	 1.1826951344	-1.7092942633	-0.156121695	-0.130849
N	 0.6251156195	-0.6627470301	-1.0703247993	-0.398388
H	-0.0397003039	-1.0030125148	-1.7617215235	 0.226807
H	 2.4643631601	-0.3664347302	-1.418355664	 0.304264
C	 2.7153850115	-1.7099307865	-0.1729292128	 0.427438
O	 3.3666836829	-2.4419801594	 0.5229517877	-0.348336
O	 3.2429370397	-0.8117523398	-1.011524851	-0.365634
H	 0.9591475436	 1.9693891443	-0.1405104924	 0.131892
H	-0.7380017391	 1.9307629865	-0.6511811297	 0.125397
H	-0.3376465504	 1.9155067279	 1.0706356153	 0.128531
H	-1.4464190675	-0.3788197658	 1.6592648038	 0.122548
H	-1.4684232039	-1.6395326848	 0.3363463062	 0.105907
H	 1.0647111628	-0.8499858485	 2.0027475141	 0.120187
H	 0.8308712617	-2.7331096936	-0.3212786909	 0.109247
78.8187	103.1946	191.4868	220.9338	305.6969	326.4915	380.9324	443.7239	484.7593	620.8305	651.0509	698.3252	788.1949	816.6189	843.1347	882.1308	902.8513	936.2902	968.1844	988.77	1004.8576	1014.8364	1050.0933	1072.4133	1100.171	1120.5381	1212.2165	1224.5735	1251.1362	1270.0319	1316.2117	1363.9175	1379.7397	1426.9806	1437.2705	1480.7297	1488.7233	1499.1437	1871.6523	3029.8658	3058.2665	3092.6116	3101.0199	3116.1346	3196.4565	3214.9154	3437.3067	3480.0363
CC12CC1C([NH2+]2)C([O-])=O	C[C@]12C[C@H]1[C@@H](N2)C(=O)O	
InChI=1S/C6H9NO2/c1-6-2-3(6)4(7-6)5(8)9/h3-4,7H,2H2,1H3,(H,8,9)	InChI=1S/C6H9NO2/c1-6-2-3(6)4(7-6)5(8)9/h3-4,7H,2H2,1H3,(H,8,9)/t3-,4+,6-/m0/s1
