19
gdb 91469	2.5221	1.64588	1.21272	3.0669	79.25	-0.2478	0.0184	0.2662	1065.6916	0.161794	-382.056153	-382.048346	-382.047402	-382.088237	30.78	
C	-0.1488810964	 1.5199347434	 0.019342267	-0.427052
C	 0.0464426487	 0.0066997664	 0.0335542359	-0.026213
C	 1.0476365395	-0.5658963856	-1.036359169	-0.192882
N	 2.0476036069	-1.3149705059	-0.2204072467	-0.129726
C	 1.1231069922	-2.0038390367	 0.7591486271	-0.217419
C	 0.7907628415	-0.5696411211	 1.2704292231	 0.206381
C	 2.2824227072	-0.3170724726	 0.8886064766	-0.216989
C	 0.2429401686	-0.2979048898	 2.5798078146	 0.158295
N	-0.1870519042	-0.0834333439	 3.632087605	-0.344585
H	 0.801229968	 2.0571685427	 0.1069150723	 0.119976
H	-0.6180345214	 1.8340101803	-0.9185767176	 0.124708
H	-0.7953101066	 1.8433465656	 0.8410750644	 0.140315
H	-0.9321739658	-0.4775546088	-0.0504567518	 0.090024
H	 0.5710026741	-1.2441987753	-1.7475192964	 0.113929
H	 1.5523864535	 0.225708539	-1.5966912455	 0.113575
H	 0.316278961	-2.5906901866	 0.3128937528	 0.115051
H	 1.6926831058	-2.6036719832	 1.4705938976	 0.127446
H	 2.9875958621	-0.7134513438	 1.6207340164	 0.128146
H	 2.5829459553	 0.682391076	 0.5678868242	 0.117019
129.1461	148.347	209.0276	224.1257	295.8536	444.1027	470.5924	500.6574	520.8271	547.033	585.7245	663.9041	803.1904	843.8512	857.9306	870.1757	941.0075	962.8579	975.7155	1003.7289	1015.5253	1058.0054	1092.554	1121.5081	1161.2694	1172.2884	1207.854	1226.0364	1236.4523	1255.8436	1266.2541	1307.2111	1326.4524	1378.3108	1416.8416	1492.9816	1494.9114	1502.0813	1504.2776	1536.3822	2347.5966	3035.7649	3047.6765	3063.566	3067.2911	3077.434	3103.8233	3108.4305	3116.7366	3137.9415	3142.0684
CC1CN2CC1(C2)C#N	C[C@H]1CN2C[C@]1(C2)C#N	
InChI=1S/C7H10N2/c1-6-2-9-4-7(6,3-8)5-9/h6H,2,4-5H2,1H3	InChI=1S/C7H10N2/c1-6-2-9-4-7(6,3-8)5-9/h6H,2,4-5H2,1H3/t6-/m0/s1
