18
gdb 105422	2.03423	1.52763	1.09362	3.2926	68.17	-0.2507	0.0191	0.2699	1146.8688	0.146581	-476.212048	-476.202661	-476.201717	-476.246828	33.22	
O	-0.3759153262	 1.5196834695	-0.6610567085	-0.43759
C	-0.0904172776	 0.1998035096	-0.2165029115	-0.126353
C	-1.4299118914	-0.4640890421	 0.0815740198	 0.277576
C	-2.2425635129	-0.7824388414	-1.193296951	-0.115986
O	-1.8571343091	-2.1685729446	-1.1292089428	-0.277097
C	-1.3426574286	-1.998458548	 0.2119164585	-0.109912
N	-2.1548666534	 0.2358614845	 1.1275664522	-0.324953
C	-1.8340343757	 0.0854821452	 2.4410011084	 0.143123
O	-1.0485092276	-0.7353422736	 2.8707895485	-0.328226
H	 0.4554543039	 1.979868799	-0.8059125232	 0.294963
H	 0.433392038	-0.3830789017	-0.9886624721	 0.10142
H	 0.5209361827	 0.1976985561	 0.6963818779	 0.118119
H	-3.3255058932	-0.6477093209	-1.0666080125	 0.094899
H	-1.9143230393	-0.2936953103	-2.1156831931	 0.117251
H	-0.3435513536	-2.4267483608	 0.335400986	 0.114215
H	-2.0141821525	-2.4128722039	 0.9697331141	 0.118672
H	-2.6406555564	 1.0788750705	 0.8595926181	 0.255631
H	-2.396687557	 0.783506153	 3.0916972412	 0.084248
57.3452	105.0937	120.573	161.7141	187.4303	230.5804	277.6372	326.7133	372.3466	438.9308	500.5977	525.0164	662.2314	828.8705	839.2994	914.3033	944.7153	980.7958	1008.8725	1026.1856	1031.6428	1074.4386	1113.8056	1150.1137	1163.6359	1180.6141	1220.2472	1240.1943	1277.8342	1300.1632	1305.3205	1383.9048	1426.2808	1446.5497	1503.8965	1505.5324	1519.2806	1530.8229	1792.7337	2941.516	2990.0914	3006.753	3038.2245	3049.2064	3082.5194	3100.5674	3617.3518	3838.9395
OCC1(COC1)NC=O	OCC1(COC1)NC=O	
InChI=1S/C5H9NO3/c7-1-5(6-4-8)2-9-3-5/h4,7H,1-3H2,(H,6,8)	InChI=1S/C5H9NO3/c7-1-5(6-4-8)2-9-3-5/h4,7H,1-3H2,(H,6,8)
