21
gdb 102191	2.72705	0.99479	0.78337	1.9789	84.93	-0.2499	0.0424	0.2923	1486.5184	0.180541	-387.039476	-387.029423	-387.028479	-387.07481	37.371	
O	 0.0564365418	 1.3398713967	 0.4916191806	-0.42833
C	-0.0431612405	-0.0240164969	 0.137844051	-0.06203
C	-1.4890214492	-0.5251064266	-0.0420050574	-0.035818
C	-2.1307602973	-0.0324858705	-1.3661303974	-0.362042
C	-2.2007286315	 1.4169123631	-1.5295637507	 0.276273
C	-2.2633307435	 2.6105954012	-1.6728717636	-0.428774
C	-1.542935797	-2.0407874745	 0.0064175322	 0.031778
C	-1.5936344833	-2.7615301154	 1.3287439486	-0.281985
C	-2.8042279208	-2.7533523562	 0.4271546751	-0.276676
H	-0.3856404041	 1.8567273678	-0.192649237	 0.284869
H	 0.535586827	-0.2522745726	-0.7751801286	 0.077272
H	 0.4219928825	-0.582275107	 0.9569422175	 0.108529
H	-2.073712145	-0.1228470933	 0.79511283	 0.088081
H	-1.5671421921	-0.4579631693	-2.2081184315	 0.130071
H	-3.1438212949	-0.4459365823	-1.4407543069	 0.137255
H	-2.3325224302	 3.6625656781	-1.8022885986	 0.201985
H	-0.9646041107	-2.5303738538	-0.7752377236	 0.08169
H	-1.0365662805	-3.685477131	 1.436296335	 0.113767
H	-1.632504183	-2.1596009522	 2.230876035	 0.118057
H	-3.6513539532	-2.1449466206	 0.7283707393	 0.113083
H	-3.0768508545	-3.6716894847	-0.0809295491	 0.112944
58.0787	86.6523	117.6755	142.1222	178.1428	255.7866	280.7523	352.9326	400.8691	419.8168	431.9673	452.6093	533.2712	622.5882	638.5332	782.0795	829.6555	849.9486	867.0453	891.3398	923.2458	966.6941	980.3271	1056.7415	1076.8791	1079.0581	1084.4877	1102.5354	1140.3771	1163.6721	1196.5946	1199.3547	1226.1706	1266.4855	1280.1948	1316.286	1358.4331	1397.3541	1418.9495	1441.3729	1467.5009	1470.8028	1506.8948	1507.393	2225.0979	2944.8526	3013.1764	3032.7311	3055.9786	3070.4418	3120.6852	3128.3635	3133.914	3206.8613	3221.9537	3501.594	3773.2151
OCC(CC#C)C1CC1	OC[C@@H](CC#C)C1CC1	
InChI=1S/C8H12O/c1-2-3-8(6-9)7-4-5-7/h1,7-9H,3-6H2	InChI=1S/C8H12O/c1-2-3-8(6-9)7-4-5-7/h1,7-9H,3-6H2/t8-/m1/s1
