23
gdb 60466	4.80145	0.58674	0.55025	0.5357	83.69	-0.2412	0.0709	0.3121	2077.0775	0.203179	-425.40304	-425.392327	-425.391382	-425.440015	38.74	
C	 0.0252090266	 1.467887784	 0.0594018455	-0.40148
C	-0.0470784513	-0.0522557495	 0.2043414544	 0.135809
O	 0.2532276876	-0.4573032597	 1.5406086795	-0.429578
C	-1.3919432742	-0.6166224536	-0.2672931437	-0.210677
C	-1.4583538071	-2.1357043178	-0.1898031113	-0.057125
O	-2.7411671043	-2.5472757141	-0.6366622341	-0.253259
C	-2.9165461959	-3.9271457267	-0.6040677768	 0.151923
C	-3.3293468248	-4.5891310131	 0.6869996398	-0.285849
C	-4.3185982669	-4.4170552947	-0.4506089458	-0.288129
H	 0.9873628648	 1.837319479	 0.4241853329	 0.123728
H	-0.0939704551	 1.7745752196	-0.9846931957	 0.11734
H	-0.7705320637	 1.9510194623	 0.6405370243	 0.106623
H	 0.7549736106	-0.5032441362	-0.3944284843	 0.089044
H	-0.3982355735	-0.046236717	 2.120274992	 0.275639
H	-2.2019307021	-0.1925305716	 0.3426061023	 0.092155
H	-1.5823027522	-0.3011487507	-1.2998842846	 0.104908
H	-0.6740568168	-2.5843082847	-0.8230972034	 0.082857
H	-1.2779714299	-2.4755267462	 0.8388148823	 0.102822
H	-2.2449120626	-4.4802066709	-1.2631546488	 0.079917
H	-2.9541044084	-5.5814020783	 0.9121294634	 0.111319
H	-3.4561441413	-3.9425755516	 1.5481120528	 0.11656
H	-5.0818702711	-3.6569618146	-0.3294316281	 0.123257
H	-4.6289403783	-5.2891528338	-1.0149124027	 0.1122
43.1076	50.2174	101.1111	129.9191	137.3491	227.2352	240.7939	271.1015	312.0688	378.9389	412.4373	454.4943	493.9289	521.9348	756.8934	797.2293	817.4962	829.2491	861.4035	938.4172	963.1765	975.3861	983.4901	1045.95	1053.9599	1070.8366	1086.7215	1095.8871	1129.03	1132.7159	1165.8903	1193.6953	1206.6337	1218.35	1244.7566	1289.7361	1295.6477	1335.1897	1370.6315	1387.0352	1402.955	1420.9253	1438.0517	1453.0867	1481.6652	1492.78	1495.5901	1498.492	1528.7489	2960.9403	3013.9628	3022.9958	3029.7942	3033.0903	3070.0889	3083.5132	3094.9884	3119.1372	3135.3913	3141.5737	3219.5228	3234.1403	3793.9297
CC(O)CCOC1CC1	C[C@@H](O)CCOC1CC1	
InChI=1S/C7H14O2/c1-6(8)4-5-9-7-2-3-7/h6-8H,2-5H2,1H3	InChI=1S/C7H14O2/c1-6(8)4-5-9-7-2-3-7/h6-8H,2-5H2,1H3/t6-/m1/s1
