20
gdb 120235	2.83635	1.10782	0.92137	3.7054	80.28	-0.2301	0.018	0.2481	1352.6785	0.170731	-403.145007	-403.135983	-403.135038	-403.179552	33.225	
C	-0.0055302492	 1.3569156254	 0.2025157562	-0.378911
C	 0.1830069852	-0.15635758	 0.06769142	-0.182358
C	 0.6709193955	-0.5516262063	-1.3337996925	-0.163987
N	 0.8919842068	-1.9704898858	-1.5353381046	-0.093856
C	 1.7034024041	-2.9230350876	-0.7714082829	-0.009149
C	 0.8896253113	-3.6274512942	 0.2737691965	-0.288727
C	 0.7670221593	-4.0364019745	-1.1939410789	-0.220645
C	-0.0236293838	-2.9477120621	-1.9249327838	 0.410946
O	-1.0360669961	-2.8813936043	-2.5679984129	-0.368299
H	 0.9334021865	 1.8917223544	 0.0207548864	 0.116543
H	-0.7433410715	 1.7300915069	-0.5160353294	 0.122471
H	-0.3518745589	 1.625272773	 1.2047886808	 0.117429
H	 0.9036632754	-0.5083291927	 0.8157877147	 0.103186
H	-0.7630975444	-0.6713649033	 0.2737013515	 0.110602
H	-0.0684774573	-0.255898151	-2.0860078682	 0.136063
H	 1.5974854243	-0.0114263987	-1.5679214271	 0.105496
H	 2.7843519524	-2.902476555	-0.8194611405	 0.113727
H	 1.4166273858	-4.3429652171	 0.8998036279	 0.123648
H	 0.0709254649	-3.1117786544	 0.765573803	 0.127938
H	 1.0010121796	-5.0289489627	-1.5495672562	 0.11788
52.7915	93.7007	101.8491	209.3152	233.8753	246.5775	271.4002	357.8379	466.9708	537.5854	696.4678	738.2552	745.8021	765.1949	831.61	835.4495	884.467	898.5569	933.3412	958.7886	989.3683	1039.1211	1046.4388	1054.5284	1079.5154	1106.8522	1125.9107	1184.8899	1218.783	1245.2791	1286.8451	1299.2079	1328.2477	1342.591	1384.1278	1403.0954	1414.6725	1476.7393	1481.4694	1492.6678	1500.0061	1510.0148	1878.552	3019.317	3029.1855	3033.3963	3059.1034	3084.5996	3101.1934	3107.955	3118.3272	3199.8394	3207.9068	3232.8279
CCCN1C2CC2C1=O	CCCN1[C@H]2C[C@H]2C1=O	
InChI=1S/C7H11NO/c1-2-3-8-6-4-5(6)7(8)9/h5-6H,2-4H2,1H3	InChI=1S/C7H11NO/c1-2-3-8-6-4-5(6)7(8)9/h5-6H,2-4H2,1H3/t5-,6+/m1/s1
