16
gdb 29038	2.59127	1.72943	1.15219	0.6717	85.23	-0.2339	-0.0689	0.1649	1053.61	0.125158	-396.939205	-396.931298	-396.930354	-396.971853	29.463	
C	-0.4945107505	 1.4402062433	 0.056851958	-0.456002
C	-0.0501617696	 0.0061969821	-0.0061305914	 0.288238
N	 0.0642631888	-0.5650895563	-1.154833129	-0.272873
C	 0.3864760799	-1.8776284127	-1.3729685826	-0.010613
C	 0.1773110963	-2.9568589278	-0.5700709378	-0.01999
N	-0.3832053105	-2.9843237771	 0.6813113563	-0.201765
C	-0.3897261041	-1.9823468554	 1.4836430963	-0.063346
C	 0.2389448607	-0.6497065547	 1.304985712	 0.192532
N	 0.8536505635	-0.0011395794	 2.2189522618	-0.477577
H	 0.2742791054	 2.041748583	 0.5516119977	 0.163712
H	-0.682598237	 1.8153297351	-0.9491067888	 0.13976
H	-1.4019936828	 1.537618317	 0.6636962972	 0.137126
H	 0.7486103435	-2.0739592014	-2.3798252213	 0.115404
H	 0.3715532359	-3.9405642574	-0.989282384	 0.114891
H	-0.9135452937	-2.1141398245	 2.4348541611	 0.125454
H	 0.9288755344	-0.5641814335	 3.0716706744	 0.225049
67.6634	146.4863	170.0557	282.3468	298.1687	351.8824	406.5614	434.4264	497.6478	628.0824	643.3097	696.5462	757.9228	848.9617	878.0577	894.2326	941.5722	954.5462	974.767	1014.196	1046.734	1076.0123	1189.0904	1212.3593	1309.9501	1374.4548	1394.5687	1396.333	1460.4761	1468.8233	1469.6625	1549.2189	1639.1235	1659.4143	1681.6188	3041.8293	3086.5442	3100.4286	3147.4743	3158.2828	3170.712	3417.3307
CC1=NC=CN=CC1=N	CC1=NC=CN=C[C]1[NH]	
InChI=1S/C6H7N3/c1-5-6(7)4-8-2-3-9-5/h2-4,7H,1H3	InChI=1S/C6H7N3/c1-5-6(7)4-8-2-3-9-5/h2-4,7H,1H3
