19
gdb 114349	3.1285	1.17624	1.11349	2.0361	70.31	-0.2433	0.0635	0.3069	1168.6685	0.159818	-460.137781	-460.12943	-460.128485	-460.171014	32.244	
O	 0.1121476876	 1.2675093587	 0.2849623828	-0.422492
C	 0.0432943822	-0.1363255273	 0.1412903221	-0.074011
C	-1.3861339041	-0.6237984775	-0.0210700916	 0.116446
C	-1.5732920481	-2.1509134392	-0.1185491136	-0.278294
C	-2.8669649168	-2.4019156643	 0.6518345845	-0.12766
C	-2.7748579293	-2.3228712675	 2.1710810213	 0.102133
O	-1.5383511216	-2.3233188592	 2.807450166	-0.42648
C	-3.17982859	-1.1125442676	 1.3739816361	 0.014031
O	-2.1128013031	-0.2153250865	 1.165780305	-0.30376
H	-0.5019697533	 1.4999222073	 0.9907929865	 0.292038
H	 0.6230005754	-0.3950378549	-0.7512570474	 0.113346
H	 0.502085677	-0.658324845	 0.9981279417	 0.08853
H	-1.8427297056	-0.1195347283	-0.8848922978	 0.087109
H	-1.6523177912	-2.4787889593	-1.1571838142	 0.11053
H	-0.7326476199	-2.6771642685	 0.3469082798	 0.121166
H	-3.6496913193	-3.0040147429	 0.2063856813	 0.09596
H	-3.5416747982	-2.8446055855	 2.7373862057	 0.100593
H	-1.2032855909	-1.4182148577	 2.7398248658	 0.290943
H	-4.1599708808	-0.6508082648	 1.4345428562	 0.09987
59.3125	127.0226	180.4259	243.6491	257.6775	392.6749	407.1959	426.8989	471.6285	532.7422	620.4344	657.4991	734.5911	767.4591	787.254	831.0421	906.3175	941.4747	1007.2894	1024.0437	1058.5285	1060.8594	1071.7602	1099.5751	1102.4578	1124.3075	1127.1237	1196.3684	1212.6608	1243.2231	1278.0219	1303.7024	1334.0033	1340.9461	1355.5766	1374.1719	1401.0357	1432.3564	1440.4482	1487.6899	1498.3913	2964.11	3006.1325	3049.1054	3075.9413	3109.697	3144.5297	3158.7267	3183.8527	3737.1763	3803.0049
OCC1CC2C(O)C2O1	OC[C@H]1C[C@H]2[C@@H](O)[C@H]2O1	
InChI=1S/C6H10O3/c7-2-3-1-4-5(8)6(4)9-3/h3-8H,1-2H2	InChI=1S/C6H10O3/c7-2-3-1-4-5(8)6(4)9-3/h3-8H,1-2H2/t3-,4+,5-,6+/m1/s1
