16
gdb 83995	2.56082	1.81441	1.48814	2.7512	65.69	-0.2327	0.008	0.2407	921.421	0.125841	-474.98891	-474.981615	-474.980671	-475.020697	28.276	
O	-0.1747822257	 1.4026941404	-0.4658753109	-0.417038
C	-0.0496013722	 0.0704881146	-0.1131620932	 0.096522
C	-1.3102831958	-0.6643568102	 0.2644053207	-0.028861
O	-2.4553796491	 0.1459247567	 0.2524272956	-0.246495
C	-3.3945319029	-0.1771365269	-0.7329986477	 0.010176
O	-3.1188552304	 0.429207041	-1.9816115704	-0.217873
C	-2.0454692328	-0.020307536	-2.699001285	 0.10788
N	-1.0183965112	-0.6643154654	-2.3582447041	-0.222762
C	-0.6091994633	-1.0090524597	-1.048494061	-0.075812
H	-1.0868515883	 1.6603828117	-0.2701363174	 0.296487
H	 0.8758692561	-0.1479504876	 0.4110076701	 0.10792
H	-1.3111130478	-1.3998717584	 1.0652942843	 0.10435
H	-3.4641187326	-1.2647555016	-0.8599110102	 0.115485
H	-4.3503339537	 0.2429571325	-0.4160662089	 0.130597
H	-2.1727563174	 0.2767130472	-3.7382473909	 0.131111
H	-0.0580070529	-1.9452651583	-1.021913461	 0.108314
84.3205	184.3888	250.0802	307.6852	358.6132	404.086	450.2668	489.0001	619.686	657.419	726.895	747.0315	755.9343	814.3794	908.4778	949.8588	957.4461	984.987	1053.4539	1072.1874	1084.1048	1114.6718	1157.6612	1173.8899	1219.3321	1251.9598	1323.0621	1340.8174	1360.6398	1372.5002	1427.4008	1436.2912	1451.4082	1503.0603	1765.8236	3028.0895	3127.8288	3129.8962	3139.1865	3156.9558	3160.4377	3736.5728
OC1C2OCOC=NC12	O[C@H]1[C@H]2OCOC=N[C@@H]12	
InChI=1S/C5H7NO3/c7-4-3-5(4)9-2-8-1-6-3/h1,3-5,7H,2H2	InChI=1S/C5H7NO3/c7-4-3-5(4)9-2-8-1-6-3/h1,3-5,7H,2H2/t3-,4+,5-/m0/s1
