14
gdb 128916	7.42164	0.72557	0.66634	2.2547	67.48	-0.3193	-0.0575	0.2618	1533.0849	0.10133	-432.843925	-432.836052	-432.835108	-432.877826	27.256	
N	-0.0266527079	-1.179843963	-0.0393793409	-0.296019
C	-0.0117013752	-0.0310605728	-0.1606576674	 0.260257
C	 0.0302278842	 1.4220380092	-0.3012920185	-0.341379
C	 1.2983079369	 2.0161717591	 0.3431588378	-0.323467
C	 1.3652699971	 3.5057347356	 0.2128723209	 0.333545
N	 0.4418353103	 4.2112371441	-0.3841565881	-0.129858
O	 0.8461016504	 5.5141694552	-0.3043453659	-0.157593
N	 2.0377628857	 5.6233436283	 0.3512500957	-0.051817
C	 2.3711456793	 4.4066626338	 0.6751423581	-0.106676
H	-0.0115755871	 1.6824252489	-1.3634840774	 0.175259
H	-0.8647589654	 1.8541474705	 0.1570473581	 0.175281
H	 1.3359640724	 1.7423761492	 1.4035437919	 0.153587
H	 2.1883265342	 1.5711907694	-0.1157963434	 0.153571
H	 3.2858045852	 4.2039396823	 1.2106098392	 0.15531
54.8578	63.4689	109.145	210.8083	279.7632	379.3829	400.3559	521.6107	649.3136	674.4655	747.4618	778.0049	895.7865	898.0762	938.0375	953.2091	1028.4221	1033.8677	1041.6218	1074.4341	1185.2703	1202.9961	1275.5643	1312.8565	1365.1785	1440.9466	1462.277	1468.971	1484.251	1616.1462	2366.8177	3046.0071	3066.6066	3076.529	3107.3636	3268.664
N#CCCC1=NON=C1	N#CCCc1nonc1	
InChI=1S/C5H5N3O/c6-3-1-2-5-4-7-9-8-5/h4H,1-2H2	InChI=1S/C5H5N3O/c6-3-1-2-5-4-7-9-8-5/h4H,1-2H2
