15
gdb 22331	3.57926	1.11451	0.85469	2.4773	80.21	-0.209	-0.059	0.1501	1258.0923	0.112533	-453.952014	-453.943663	-453.942718	-453.984851	31.539	
N	 0.0698993615	 1.3709034504	 0.1168356977	-0.59577
C	-0.0885658954	 0.0285091546	 0.0472640088	 0.278187
C	-1.1923044745	-0.7693439124	 0.0368026029	-0.288489
C	-0.807581163	-2.1671685159	-0.0021958021	 0.388072
C	 0.7022311551	-2.270413908	-0.0138674417	-0.420638
C	 1.1434776202	-0.8133530443	-0.0044849909	 0.355471
O	 2.2683363388	-0.3668735448	-0.0446554306	-0.339834
N	-1.5366157136	-3.2216776909	-0.027325301	-0.247436
O	-2.9060093023	-2.8929993056	-0.0143319343	-0.398015
H	 1.0055989505	 1.7068471761	-0.057961568	 0.271662
H	-0.6929170929	 1.9933800322	-0.0851443622	 0.264768
H	-2.2237401159	-0.4487506547	 0.0544981495	 0.121037
H	 1.0954023812	-2.7963818832	 0.8621905724	 0.153082
H	 1.0867945663	-2.7864179743	-0.8989348837	 0.151944
H	-3.3200564758	-3.7615617291	-0.0346006666	 0.305959
84.4055	176.2821	200.6502	277.485	285.9861	313.9782	378.2822	409.3251	419.5958	513.1926	552.9643	577.8384	626.1982	676.271	689.7439	776.534	885.4741	890.2687	951.8189	974.0298	1069.4314	1137.1023	1143.9657	1232.395	1258.5637	1303.21	1398.6888	1404.7699	1439.9087	1608.117	1684.9711	1719.7932	1808.5195	3060.6977	3099.348	3242.0508	3582.3733	3714.5169	3827.4024
NC1=CC(CC1=O)=NO	NC1=CC(=NO)CC1=O	
InChI=1S/C5H6N2O2/c6-4-1-3(7-9)2-5(4)8/h1,9H,2,6H2	InChI=1S/C5H6N2O2/c6-4-1-3(7-9)2-5(4)8/h1,9H,2,6H2
