22
gdb 111279	3.00961	1.16869	0.99245	2.6955	82.01	-0.2207	0.0657	0.2865	1289.2287	0.193225	-404.306118	-404.296247	-404.295303	-404.340502	37.137	
C	-0.6056468442	 1.5325814813	-0.3037490335	-0.42812
C	-0.2405829847	 0.0537502857	-0.2502928363	-0.041346
C	 1.0180467402	-0.5047972782	-1.0447514354	-0.014841
C	 1.8971908485	 0.4311044595	-1.8648079696	-0.086471
O	 1.2607267476	 0.8795059037	-3.0569271418	-0.427308
C	 1.5779757545	-0.991465024	 0.2965509794	-0.141926
N	 1.70869969	 0.2171246222	 1.159933288	-0.375213
C	 0.400999196	-0.4769857069	 1.0476999205	 0.350251
C	-0.31926414	-1.0050615741	 2.2496364195	-0.510681
H	 0.2512394406	 2.1606073765	-0.0482217913	 0.139743
H	-0.9776957998	 1.8215671175	-1.2938971961	 0.103746
H	-1.4067306881	 1.7579766996	 0.4096002004	 0.113321
H	-1.1153968182	-0.5541222949	-0.5030410833	 0.072041
H	 0.7116412427	-1.3427606519	-1.6775446136	 0.076065
H	 2.2391677469	 1.2695725378	-1.2459454111	 0.109536
H	 2.7902843619	-0.1143441542	-2.1925071742	 0.101212
H	 0.5929865264	 1.5227670056	-2.8030155276	 0.282251
H	 2.1917186777	-1.8655813788	 0.4834170429	 0.087428
H	 2.1337941455	-0.0904248962	 2.0347070183	 0.221749
H	-0.7901145752	-0.1960796151	 2.8211802953	 0.127622
H	-1.1073801503	-1.708169808	 1.9586373444	 0.124443
H	 0.367306802	-1.5313624371	 2.922359745	 0.116497
77.2329	119.1047	175.7794	196.5494	210.2596	225.6535	244.1037	279.7597	327.8388	337.6365	478.8445	518.9534	577.3037	659.9479	672.6052	751.1739	837.2328	857.4728	941.7039	959.5993	980.5507	994.5943	1009.5969	1038.9833	1063.6401	1093.0036	1101.9819	1119.2307	1135.3293	1156.6639	1193.2474	1232.3001	1246.416	1306.2273	1314.3652	1342.6624	1374.732	1393.0744	1398.3817	1408.5425	1414.0779	1455.8966	1482.0974	1496.8129	1497.6118	1499.2	1512.83	3020.0798	3024.4642	3025.4036	3047.1717	3060.894	3076.4959	3078.0181	3081.479	3092.1951	3122.5914	3174.7541	3465.4649	3836.1542
CC1C(CO)C2NC12C	C[C@H]1[C@@H](CO)[C@H]2N[C@@]12C	
InChI=1S/C7H13NO/c1-4-5(3-9)6-7(4,2)8-6/h4-6,8-9H,3H2,1-2H3	InChI=1S/C7H13NO/c1-4-5(3-9)6-7(4,2)8-6/h4-6,8-9H,3H2,1-2H3/t4-,5+,6+,7-/m0/s1
