16
gdb 37835	3.04264	1.95491	1.69661	0.8027	67.24	-0.234	0.0529	0.2869	839.295	0.125482	-437.739013	-437.732626	-437.731681	-437.769662	25.974	
C	 0.0170348766	 1.4724117171	-0.1925532544	-0.206176
O	 1.3821475552	 1.8631773559	 0.0835869104	-0.279325
C	 2.0059799874	 0.9554292543	 1.0202368616	-0.193272
C	 1.1162644153	-0.2612684548	 1.0393829064	 0.35447
O	 0.1393043405	-0.4961729551	 2.1054017079	-0.348286
C	-0.4679359657	-1.1077905761	 0.9340723138	 0.032886
C	 0.8802872893	-1.6387011847	 0.3308538836	-0.143562
N	 0.5909114058	-1.042343386	-1.0176912128	-0.377473
C	 0.050074835	-0.0222065739	-0.0550577213	 0.239212
H	-0.6737550343	 1.9066102832	 0.5431265594	 0.118377
H	-0.2280019267	 1.8475085086	-1.188440081	 0.127714
H	 3.0239481671	 0.764904988	 0.6684735379	 0.122183
H	 2.0525218734	 1.3972801115	 2.0235628408	 0.127436
H	-1.4382579669	-1.5925106942	 1.0326691844	 0.109234
H	 1.3704087948	-2.6024224962	 0.4756625676	 0.096596
H	 1.4615922134	-0.6991917376	-1.4324891544	 0.219986
124.526	230.6662	280.8758	430.6109	466.5285	521.9769	620.8497	724.7769	745.4278	769.1366	792.1613	820.0287	865.5694	876.6596	918.5206	930.2453	948.5897	960.6224	1028.8809	1071.7576	1086.7469	1101.342	1136.4206	1158.6599	1204.1669	1216.5483	1235.1704	1269.7182	1273.442	1305.9455	1337.9017	1357.5325	1381.7528	1488.9314	1497.8182	3016.2416	3029.5678	3088.2167	3110.8368	3111.0308	3136.0223	3407.6257
C1OCC23OC4C2NC134	C1OC[C@]23O[C@@H]4[C@H]2N[C@]134	
InChI=1S/C6H7NO2/c1-5-4-3(7-5)6(5,9-4)2-8-1/h3-4,7H,1-2H2	InChI=1S/C6H7NO2/c1-5-4-3(7-5)6(5,9-4)2-8-1/h3-4,7H,1-2H2/t3-,4-,5+,6+/m1/s1
