23
gdb 39625	3.83238	1.08771	1.023	0.1915	90.12	-0.2729	0.0905	0.3633	1293.1473	0.208043	-351.098697	-351.090688	-351.089744	-351.131743	32.24	
C	-0.0827240478	 1.5175031849	-0.011947772	-0.210133
C	 1.4671163963	 1.513777598	-0.0942985923	-0.230294
C	 1.4594781598	 0.0928556767	 0.5455479721	-0.117944
C	-0.0407140752	-0.0264054739	 0.1409673516	-0.230299
C	 2.4362945909	-0.9372218594	 0.0622963154	 0.378609
C	 3.9913057075	-0.9211839732	 0.2309815782	-0.25738
C	 3.6709106394	-2.2363897116	-0.5307986804	-0.044232
C	 2.4973155814	-2.4475860625	 0.4645963158	-0.25739
C	 2.6902947484	-1.4109490003	-1.4086419365	-0.253845
H	-0.4376779873	 2.004472686	 0.9011114027	 0.10023
H	-0.6355403206	 1.9292182659	-0.8596631301	 0.094325
H	 1.813955438	 1.4760289965	-1.1319096822	 0.099562
H	 2.0131973314	 2.3040934455	 0.4264239557	 0.093745
H	 1.5410719496	 0.1795785581	 1.6362248562	 0.064742
H	-0.72508072	-0.4929310199	 0.8536745977	 0.093744
H	-0.1486525276	-0.5286922284	-0.8256842575	 0.099565
H	 4.5360687079	-0.1507036073	-0.3229268337	 0.085644
H	 4.3722270195	-1.0228211842	 1.2518515784	 0.083625
H	 4.3833519638	-2.9864939076	-0.8757218971	 0.067772
H	 2.7646697175	-2.6652507038	 1.5032258452	 0.083625
H	 1.6703626538	-3.0785922514	 0.1251824441	 0.085644
H	 1.8817938522	-1.9659529952	-1.8939539556	 0.085344
H	 3.138528737	-0.6819521772	-2.0904633849	 0.085344
54.7436	115.2734	148.1769	226.5696	355.3244	396.4895	521.096	550.6465	563.7319	701.4703	774.0584	789.0858	805.8851	841.9757	881.5579	904.6679	932.5852	941.6173	941.6657	958.1346	961.4497	972.7169	997.0858	1029.2013	1037.1686	1084.5936	1100.232	1110.2955	1142.7979	1145.8301	1162.5353	1172.0638	1204.2193	1228.7362	1236.9729	1239.6554	1245.6315	1256.6957	1260.9424	1279.9197	1288.4428	1314.5359	1390.5172	1475.9123	1486.1041	1496.9961	1497.9257	1508.732	1554.2146	3025.0824	3036.4846	3037.3866	3045.7919	3048.9662	3052.1686	3057.3733	3095.3495	3098.7715	3102.926	3104.8407	3105.1971	3106.0316	3116.9553
C1CC(C1)C12CC(C1)C2	C1CC(C1)[C@@]12C[C@@H](C1)C2	
InChI=1S/C9H14/c1-2-8(3-1)9-4-7(5-9)6-9/h7-8H,1-6H2	InChI=1S/C9H14/c1-2-8(3-1)9-4-7(5-9)6-9/h7-8H,1-6H2/t7-,9-
