17
gdb 115095	2.4932	1.48562	0.99811	3.4028	70.15	-0.223	-0.0262	0.1968	1152.1461	0.136788	-455.162315	-455.153699	-455.152755	-455.196423	31.205	
O	-0.5113756799	 1.5663362635	 0.2107882136	-0.429126
C	-0.1203510951	 0.2031789085	 0.3087717729	-0.082196
C	-1.348168308	-0.6254669239	-0.08065315	-0.075616
N	-1.8327757158	-0.2588009028	-1.4054175799	-0.305167
C	-1.6450049105	-1.095975348	-2.477100233	 0.085259
N	-1.4773124839	-2.3601087336	-2.4488499088	-0.261663
C	-1.5225955249	-2.9850454501	-1.131908143	-0.259803
C	-1.0370309889	-2.120762802	 0.0186227569	 0.361203
O	-0.439336929	-2.5579596539	 0.974264015	-0.315973
H	 0.2631306602	 2.1178251967	 0.3527864258	 0.296751
H	 0.7094918926	-0.0260548921	-0.3763948491	 0.101681
H	 0.1824397954	-0.0725618156	 1.3256181762	 0.123386
H	-2.1322085157	-0.4119078067	 0.6610288921	 0.12683
H	-1.8018399707	 0.7350733325	-1.5826713954	 0.254165
H	-1.6845472429	-0.5944193305	-3.4450719586	 0.112743
H	-2.5648124532	-3.2648554302	-0.8999671515	 0.132791
H	-0.9453939098	-3.9137423119	-1.1281044133	 0.134736
51.1458	82.8732	128.7363	194.047	260.7835	316.9085	384.7128	474.2549	495.7716	499.0814	542.9588	595.3662	622.0146	772.1621	872.6341	914.2737	958.7585	980.4379	1025.0871	1063.7886	1072.6814	1102.6646	1154.7255	1212.4645	1229.9199	1246.8208	1260.6134	1289.833	1330.5156	1352.3698	1413.9646	1441.9906	1453.3367	1504.7701	1516.6705	1733.3916	1811.822	2967.7413	2990.4263	3003.6677	3063.3106	3089.1397	3123.6136	3601.6558	3839.2348
OCC1NC=NCC1=O	OC[C@H]1NC=NCC1=O	
InChI=1S/C5H8N2O2/c8-2-4-5(9)1-6-3-7-4/h3-4,8H,1-2H2,(H,6,7)	InChI=1S/C5H8N2O2/c8-2-4-5(9)1-6-3-7-4/h3-4,8H,1-2H2,(H,6,7)/t4-/m1/s1
