15
gdb 55623	2.52936	1.05573	0.86892	4.9011	71.87	-0.267	0.0032	0.2702	1328.432	0.110497	-416.816824	-416.807149	-416.806205	-416.852417	33.919	
N	 0.0521487039	 1.2698632581	-0.2894212947	-0.526214
C	 0.0542435063	-0.0036850748	 0.1869321433	 0.426031
O	 1.0087492014	-0.5032456727	 0.7501609669	-0.353393
C	-1.2669255235	-0.7618298697	 0.0254816676	-0.319849
C	-0.9977261592	-2.2811161189	-0.1198094187	-0.312652
C	-2.1974564087	-3.0803506782	 0.1236756125	 0.298577
C	-3.193657079	-3.7127627472	 0.3424155862	-0.395305
C	-0.4279550749	-2.5749920812	-1.4458626256	 0.291915
N	 0.0162388341	-2.7769443783	-2.4925532817	-0.323915
H	 0.9121991523	 1.7926360155	-0.2405424873	 0.270003
H	-0.6850059112	 1.6175339243	-0.8774413468	 0.265805
H	-1.8533172381	-0.609018181	 0.9372390539	 0.155944
H	-1.8628086093	-0.394824574	-0.8141344031	 0.129066
H	-0.2248436371	-2.5221244625	 0.622070432	 0.185888
H	-4.0668768268	-4.2868376295	 0.5331636755	 0.2081
42.4453	60.4364	119.1183	132.0147	213.8514	257.9462	275.6143	360.0691	394.225	463.9163	517.202	577.7516	585.7723	605.6887	645.0049	670.8589	675.1351	840.3918	861.4977	956.2033	1052.412	1061.707	1099.1419	1189.9277	1248.7341	1307.3039	1343.0226	1401.2372	1463.3575	1622.2497	1798.3056	2250.1903	2366.0254	3036.3826	3061.1713	3111.554	3502.3395	3599.0349	3733.36
NC(=O)CC(C#C)C#N	NC(=O)C[C@@H](C#C)C#N	
InChI=1S/C6H6N2O/c1-2-5(4-7)3-6(8)9/h1,5H,3H2,(H2,8,9)	InChI=1S/C6H6N2O/c1-2-5(4-7)3-6(8)9/h1,5H,3H2,(H2,8,9)/t5-/m1/s1
