22
gdb 77076	2.59255	1.11778	0.97538	4.4157	87.11	-0.2958	0.0328	0.3286	1337.926	0.192982	-367.23722	-367.227278	-367.226334	-367.271552	37.615	
C	-0.7076754115	 1.0158662103	-0.105313462	-0.425903
C	 0.0208499024	-0.3072752785	 0.0613443564	 0.006073
C	 1.3703303495	-0.5220079444	-0.6981272723	-0.159552
C	 1.8798307831	-1.3379372827	 0.5282500563	-0.272417
C	 0.7600251254	-0.6842713771	 1.3976274222	 0.308859
C	 1.285633255	 0.5287849572	 2.1710985517	-0.44086
C	-0.0047051906	-1.6240349175	 2.3243931324	-0.456699
C	 1.3300558243	-1.1706904794	-1.9964064863	 0.264051
N	 1.2788042718	-1.703203133	-3.0221075685	-0.333004
H	-0.0604364939	 1.8701837992	 0.1153166738	 0.117989
H	-1.0704107356	 1.128521324	-1.1325470832	 0.131457
H	-1.5766363849	 1.0731424664	 0.5591767021	 0.122891
H	-0.6521248913	-1.13092199	-0.1996622608	 0.090438
H	 1.9135416228	 0.423101889	-0.7929041077	 0.117569
H	 1.7198237403	-2.4090880707	 0.3862141574	 0.118584
H	 2.9165098344	-1.1684168096	 0.8275842608	 0.110097
H	 1.8577031669	 1.2136567257	 1.5365645242	 0.114225
H	 0.4676097099	 1.0999231368	 2.6229316566	 0.118908
H	 1.9485700389	 0.2013565801	 2.9794685716	 0.117939
H	 0.6299716353	-1.9698399142	 3.1485626935	 0.117094
H	-0.8729954839	-1.1216184177	 2.7667586476	 0.116762
H	-0.3661022782	-2.5069669341	 1.7871376743	 0.115501
72.0613	134.2421	186.2154	201.5524	228.1112	245.1311	267.7801	286.5237	338.4741	354.8839	399.4096	482.9388	524.6418	557.2731	578.3129	717.5487	799.3195	861.8039	902.9299	940.5054	957.4447	969.2071	1017.0898	1037.996	1051.1049	1077.1462	1117.7297	1154.9213	1186.4751	1217.6785	1230.66	1248.927	1285.5363	1309.203	1349.1367	1386.8851	1406.3225	1411.3096	1425.9631	1482.7154	1483.6002	1489.9319	1496.2255	1496.767	1507.2541	1510.1819	2349.6164	3021.2942	3028.3213	3033.2855	3047.9184	3066.3158	3069.3271	3086.0315	3094.1864	3096.5836	3096.8055	3099.6543	3107.5508	3125.4063
CC1C(CC1(C)C)C#N	C[C@H]1[C@@H](CC1(C)C)C#N	
InChI=1S/C8H13N/c1-6-7(5-9)4-8(6,2)3/h6-7H,4H2,1-3H3	InChI=1S/C8H13N/c1-6-7(5-9)4-8(6,2)3/h6-7H,4H2,1-3H3/t6-,7-/m0/s1
