19
gdb 35781	3.62495	1.16168	0.98186	4.6728	79.04	-0.2418	0.0275	0.2692	1212.8969	0.162594	-382.071977	-382.064131	-382.063187	-382.10443	30.744	
N	 0.0427256633	-1.1731210977	 0.079568747	-0.320279
C	 0.0364497844	-0.0189181537	 0.0301550651	 0.273105
C	 0.0085074515	 1.4500845391	 0.0133951378	-0.107367
C	-0.7633386606	 1.9927193165	 1.2436254725	-0.233062
C	-0.5848186544	 3.5019287659	 1.4001265483	-0.040537
C	 0.6390022036	 4.0415352346	 2.1047944617	-0.288163
C	 0.500210205	 4.2203383891	 0.6184782403	-0.012446
C	 1.3624978274	 3.4203290331	-0.3481534452	-0.197158
N	 1.3688015236	 1.9727347161	-0.1234880398	-0.292561
H	-0.5294833909	 1.7536801865	-0.8950621489	 0.129513
H	-1.8238715094	 1.7455586159	 1.1344066799	 0.119684
H	-0.4132711401	 1.4660145997	 2.1386994117	 0.118266
H	-1.5058660056	 4.0518899284	 1.5611623851	 0.092199
H	 0.5311870107	 4.9110454331	 2.743391747	 0.115716
H	 1.3608681528	 3.3142119683	 2.4676855311	 0.102439
H	 0.263564012	 5.2229338941	 0.2735256552	 0.088502
H	 0.9996373631	 3.5895349229	-1.3711746465	 0.111755
H	 2.4010404072	 3.7677118367	-0.3216913479	 0.112571
H	 1.9154891865	 1.7328911314	 0.6981706756	 0.227822
79.5775	154.8983	186.5825	285.0726	343.501	364.4481	415.0236	499.0418	545.1716	558.8812	649.5669	752.78	786.8802	800.1568	829.0285	861.599	914.2866	983.6246	992.2776	1014.175	1058.142	1064.5651	1075.3053	1104.6491	1128.8595	1149.9172	1162.8161	1223.7203	1233.9628	1276.5549	1309.6532	1354.9816	1365.2553	1369.4428	1377.3029	1416.0393	1478.5646	1485.8958	1489.3685	1498.5343	2362.5098	3014.2428	3020.3672	3039.813	3067.0987	3083.6549	3117.2045	3144.1816	3160.3536	3206.8913	3514.2223
N#CC1CC2CC2CN1	N#C[C@H]1C[C@H]2C[C@H]2CN1	
InChI=1S/C7H10N2/c8-3-7-2-5-1-6(5)4-9-7/h5-7,9H,1-2,4H2	InChI=1S/C7H10N2/c8-3-7-2-5-1-6(5)4-9-7/h5-7,9H,1-2,4H2/t5-,6+,7-/m1/s1
