14
gdb 98015	4.99001	0.60717	0.59156	3.5983	72.22	-0.2721	-0.0522	0.2199	1846.1017	0.098468	-473.845641	-473.835595	-473.834651	-473.882835	32.769	
C	 0.2318424641	 1.3249248712	 0.1405888206	-0.243723
O	 0.3464879977	-0.1009275927	 0.0064084508	-0.214508
C	 0.2692308829	-0.5588925366	-1.2522771303	 0.260398
O	 0.1229925324	 0.1269705584	-2.2329537285	-0.349375
C	 0.3885957779	-2.0007947061	-1.285049567	-0.08821
C	 0.4788414063	-3.1984115203	-1.3908888788	 0.229596
C	 0.5055605794	-4.6551898096	-1.4910049105	 0.264033
N	 1.7072064876	-5.1583135079	-1.8860622377	-0.521673
O	-0.4681116786	-5.3318882897	-1.230518398	-0.322372
H	 1.0316580753	 1.827078845	-0.4089798462	 0.147018
H	-0.731672045	 1.6686275516	-0.2430446005	 0.149754
H	 0.3141167997	 1.5243124048	 1.208317327	 0.142318
H	 2.4660528438	-4.5600783275	-2.1632943356	 0.27356
H	 1.7847507466	-6.1534505505	-2.0205926755	 0.273184
22.1347	70.8006	77.0555	120.8288	157.8532	183.0053	234.1063	299.0436	316.3315	336.8884	540.5806	562.5856	589.2344	625.26	770.4872	773.2064	791.5335	928.049	1054.1199	1091.0023	1176.7122	1211.1081	1271.2222	1348.7278	1471.8152	1481.4416	1495.084	1611.0043	1780.9821	1794.7437	2338.3918	3056.0639	3132.7785	3168.753	3599.7073	3739.8756
COC(=O)C#CC(N)=O	COC(=O)C#CC(=O)N	
InChI=1S/C5H5NO3/c1-9-5(8)3-2-4(6)7/h1H3,(H2,6,7)	InChI=1S/C5H5NO3/c1-9-5(8)3-2-4(6)7/h1H3,(H2,6,7)
