21
gdb 89588	4.17388	1.00049	0.9551	1.8307	78.33	-0.2351	0.0764	0.3115	1310.9746	0.183276	-424.224515	-424.215994	-424.21505	-424.257953	33.202	
O	 0.8569104384	 0.4660644172	-0.7691442458	-0.435478
C	 0.0539900534	-0.320028136	 0.074369382	 0.177662
C	 0.0550956136	-0.0621179712	 1.6045690496	-0.333864
C	-1.4739544328	-0.3644014239	 1.6074340306	 0.459501
C	-1.4864393127	-0.1240006728	 0.0776928317	-0.344649
C	-1.86940736	-1.7644141183	 2.09402073	-0.281724
C	-2.2494473351	-1.4991240671	 3.5564399408	-0.2344
C	-2.9210631725	-0.1266496818	 3.4431662008	-0.069802
O	-2.2712589255	 0.5430703114	 2.3619248373	-0.311437
H	 0.6540221815	 1.3908562938	-0.5924328765	 0.276104
H	 0.3216248719	-1.3553888937	-0.1555250064	 0.089749
H	 0.7128521724	-0.6617752659	 2.2397552723	 0.094055
H	 0.2161057733	 0.9996495013	 1.8190535633	 0.099025
H	-1.7437093806	 0.9206676299	-0.1267373952	 0.102576
H	-2.1026850138	-0.7749181749	-0.5480459213	 0.096263
H	-2.741583897	-2.1211950922	 1.533575122	 0.103533
H	-1.0693004032	-2.4988238464	 1.9739857588	 0.105459
H	-2.9057528119	-2.2606871495	 3.9842259426	 0.102539
H	-1.3512890495	-1.4356400366	 4.1801943483	 0.109188
H	-3.9941180568	-0.2287985668	 3.2218559766	 0.093037
H	-2.8200581031	 0.4820774535	 4.3481131983	 0.102663
61.6924	89.0145	190.5181	278.6892	284.7749	336.8954	349.3514	417.9022	474.5181	489.4517	600.1188	688.629	750.6344	819.0809	852.9384	873.661	901.0109	928.3996	943.2031	949.6603	1003.5887	1012.2273	1028.8415	1052.993	1081.9849	1102.5542	1157.9801	1168.6627	1202.5093	1208.0076	1219.8668	1239.9813	1260.6961	1277.103	1301.2215	1328.6637	1339.834	1344.1811	1393.1222	1438.6486	1461.8912	1485.1623	1491.4406	1497.9328	1531.3304	2989.6744	3038.1436	3044.1283	3047.104	3051.3261	3064.2704	3068.5047	3101.2106	3105.4818	3110.6033	3111.623	3806.2809
OC1CC2(C1)CCCO2	O[C@H]1C[C@@]2(C1)CCCO2	
InChI=1S/C7H12O2/c8-6-4-7(5-6)2-1-3-9-7/h6,8H,1-5H2	InChI=1S/C7H12O2/c8-6-4-7(5-6)2-1-3-9-7/h6,8H,1-5H2/t6-,7+
