17
gdb 78337	2.87331	1.38568	1.07047	5.1825	74.57	-0.2381	-0.0184	0.2198	1148.3187	0.135482	-417.956242	-417.9481	-417.947156	-417.988896	30.655	
C	-0.1162552526	 1.4235964437	-0.0096549827	-0.416524
C	 0.0517518542	-0.0711876559	-0.1096346285	 0.000551
C	 0.827160076	-0.6898223335	-1.1994458446	-0.148123
N	 1.4354882362	-0.5641917315	 0.2014874217	-0.197297
C	 1.3388302619	-2.0195608161	 0.3262663905	 0.35745
O	 1.6587520545	-2.7213626455	 1.231034877	-0.29519
C	 0.8007036445	-2.2018476016	-1.0849403557	 0.223602
C	-0.1172667214	-3.2052639495	-1.678148237	-0.29696
N	 1.3115854206	-3.1978251743	-2.0222121701	-0.357224
H	 0.7465586164	 1.9402930704	-0.4373198943	 0.134686
H	-1.0181884609	 1.7415583667	-0.543098449	 0.124721
H	-0.2107808113	 1.7280244974	 1.036624422	 0.139677
H	-0.770246162	-0.6544129158	 0.3041055416	 0.107738
H	 1.2568096321	-0.129613024	-2.0226402432	 0.114539
H	-0.434389993	-4.0549471555	-1.0806439335	 0.142779
H	-0.842151723	-2.8485939158	-2.4056977177	 0.122833
H	 1.4583156578	-2.7683879292	-2.9334371864	 0.24274
115.2148	160.2053	199.9761	210.0907	222.1237	263.2914	372.5305	430.1262	502.2388	644.6972	679.5922	746.6596	758.675	819.0221	893.3285	899.7859	952.7926	963.2755	982.5881	989.8789	1023.5289	1039.6954	1089.1729	1123.8281	1145.7477	1151.8115	1215.4283	1257.4202	1281.9628	1290.5258	1403.7037	1415.7324	1439.1711	1486.9292	1494.5649	1503.8131	1923.2012	3042.2797	3108.2565	3109.4974	3112.8461	3131.5571	3179.1488	3200.5975	3493.1183
CC1C2N1C(=O)C21CN1	C[C@H]1[C@H]2N1C(=O)[C@]12CN1	
InChI=1S/C6H8N2O/c1-3-4-6(2-7-6)5(9)8(3)4/h3-4,7H,2H2,1H3	InChI=1S/C6H8N2O/c1-3-4-6(2-7-6)5(9)8(3)4/h3-4,7H,2H2,1H3/t3-,4+,6+,8?/m0/s1
