20
gdb 97143	3.2103	1.19755	0.96699	2.5849	82.94	-0.2336	0.0335	0.2671	1281.8123	0.170729	-403.157789	-403.148878	-403.147934	-403.192512	33.093	
C	 0.1430924517	 1.3990839207	 0.1560646301	-0.329407
N	 0.379671377	-0.0352440666	 0.1022677429	-0.329769
C	 0.4986141279	-0.6002349333	-1.0155333147	 0.428322
C	 0.7612937489	-2.0748565293	-1.2420616718	-0.318045
C	 0.3057698578	-2.2834718686	-2.6946944768	-0.304386
C	 0.5581956171	-0.9090034253	-3.2886770691	 0.451418
C	 1.6236197592	-0.6092168212	-4.303990888	-0.323642
C	 0.1484422494	-0.4556323455	-4.6470888698	-0.33579
O	 0.4010947217	 0.033451665	-2.2331983032	-0.279796
H	 1.0848732073	 1.9225760909	 0.3649265689	 0.121846
H	-0.2793968029	 1.8165247577	-0.7654500301	 0.118664
H	-0.5337298457	 1.6160768304	 0.9884162189	 0.118764
H	 1.835506412	-2.2655255745	-1.1358404938	 0.12976
H	 0.2399208523	-2.6857144321	-0.505376561	 0.132534
H	 0.848617088	-3.0723491068	-3.2185236641	 0.11147
H	-0.7632661627	-2.5210248352	-2.7316566607	 0.116448
H	 2.1954662387	 0.3009003957	-4.1637185025	 0.127239
H	 2.1749315396	-1.4368201922	-4.7380577028	 0.115595
H	-0.3107901406	-1.1791109789	-5.3127375263	 0.118718
H	-0.2390183067	 0.5530496793	-4.734399456	 0.13006
29.7119	85.4484	113.9547	188.581	252.1218	291.5161	335.9687	446.0386	490.5251	514.9097	571.7019	667.4922	757.6116	763.2354	811.1292	881.3557	906.8273	930.0789	955.1821	990.5765	993.0595	1041.6881	1052.4606	1073.0023	1077.2532	1125.367	1150.3496	1168.219	1186.6018	1189.3963	1200.857	1297.8999	1310.4944	1317.7319	1383.1086	1438.5092	1451.3722	1473.5185	1490.8268	1495.7812	1499.4593	1502.8286	1805.8796	3012.0377	3044.0868	3051.0881	3068.8712	3090.8183	3113.4239	3131.9272	3134.7971	3135.8328	3217.5153	3231.3377
CN=C1CCC2(CC2)O1	CN=C1CCC2(CC2)O1	
InChI=1S/C7H11NO/c1-8-6-2-3-7(9-6)4-5-7/h2-5H2,1H3	InChI=1S/C7H11NO/c1-8-6-2-3-7(9-6)4-5-7/h2-5H2,1H3
