20
gdb 101856	3.22361	0.65677	0.60537	3.2418	76.7	-0.2526	0.0207	0.2733	1892.0506	0.168105	-477.401547	-477.390844	-477.3899	-477.438791	37.306	
C	 0.462124667	 0.618646147	 0.6404521525	-0.315894
N	 1.220014086	-0.0983595248	-0.3634239358	-0.203521
C	 0.587260306	-0.8637717696	-1.1309802017	 0.132979
O	 1.2277237136	-1.5358170864	-2.1156805862	-0.199
C	 0.471060323	-2.5091924646	-2.8255816417	-0.127314
C	 0.6157430707	-3.9013670471	-2.2057123899	 0.07899
O	-0.2006822896	-4.8401187795	-2.9081420745	-0.435463
C	 2.0589519907	-4.3999532496	-2.155319864	-0.057227
O	 2.1259132456	-5.6867553636	-1.5817299435	-0.421389
H	 0.5953837034	 1.6973155143	 0.5001814147	 0.130355
H	-0.6182712318	 0.3997080132	 0.6293998655	 0.096844
H	 0.8522149855	 0.3771156995	 1.6355322817	 0.130822
H	-0.4998620796	-1.042239809	-1.0973774042	 0.077089
H	-0.5908287682	-2.2357960476	-2.8664263863	 0.119611
H	 0.8605079781	-2.5085858041	-3.8508507749	 0.110644
H	 0.2149247915	-3.8896548281	-1.1854313463	 0.105731
H	 0.1031425424	-4.8694861161	-3.8241031691	 0.285899
H	 2.4732673176	-4.3896932716	-3.1822114707	 0.070177
H	 2.6728967639	-3.7280257693	-1.5497342191	 0.135812
H	 1.3907548441	-6.1846421729	-1.9610823665	 0.284856
31.3391	63.221	85.5571	128.9037	190.0349	209.0899	253.2596	268.4572	302.5721	348.9315	386.1679	436.6481	476.7073	491.3104	553.2448	620.4588	834.0922	924.8625	978.2123	1031.6317	1048.675	1067.3439	1096.4492	1102.3799	1133.1438	1141.4995	1156.8214	1198.8914	1204.0472	1290.3823	1306.4758	1335.4231	1384.6642	1392.3937	1409.9127	1422.4588	1442.6757	1451.1127	1480.5106	1497.9192	1506.1778	1506.9791	1781.8222	2919.9415	2967.8702	2983.6653	3022.6983	3052.4446	3060.6301	3076.1524	3080.4182	3100.6865	3773.8587	3778.1998
CN=COCC(O)CO	CN=COC[C@@H](O)CO	
InChI=1S/C5H11NO3/c1-6-4-9-3-5(8)2-7/h4-5,7-8H,2-3H2,1H3	InChI=1S/C5H11NO3/c1-6-4-9-3-5(8)2-7/h4-5,7-8H,2-3H2,1H3/t5-/m0/s1
