15
gdb 133237	3.21988	1.4	0.98179	3.6631	76.47	-0.2091	-0.0365	0.1726	1126.197	0.113034	-458.094322	-458.086419	-458.085475	-458.127228	28.962	
C	 0.0079091374	 1.4487124514	-0.0179882104	-0.335574
N	 0.0213779276	-0.0077500881	 0.0102455884	-0.071842
N	-0.0270440826	-0.6470190626	-1.1816255753	-0.211225
C	-0.0162525931	-1.9401119878	-1.1801938944	-0.04795
C	 0.0440993177	-2.8175832072	-0.0013727401	 0.279364
N	 0.0539020556	-4.1063104068	-0.0206719261	-0.552452
C	 0.0936541202	-2.0622177549	 1.2362159048	-0.345961
C	 0.0797213	-0.7179661262	 1.1754166447	 0.420114
F	 0.1219890183	 0.0538533213	 2.2546963937	-0.058708
H	 0.9148951728	 1.8591803829	 0.4349174258	 0.149429
H	-0.0409306141	 1.7355326238	-1.0667604562	 0.164854
H	-0.8622368328	 1.8443296335	 0.5135983008	 0.149412
H	-0.0570040006	-2.3961724093	-2.166759055	 0.125077
H	 0.0132683854	-4.4442128657	-0.9845319557	 0.20343
H	 0.1408908584	-2.5660799442	 2.191505865	 0.132033
75.0864	105.2384	193.499	221.1656	312.6974	353.2203	453.8148	474.2227	508.5289	582.9998	646.912	706.2803	743.0671	790.2584	825.1558	868.4862	935.5923	955.2976	1026.843	1148.1595	1151.4556	1221.0492	1226.5676	1288.0105	1361.1462	1377.0278	1437.7768	1483.3615	1485.3379	1512.5054	1606.8435	1659.5801	1705.9589	3047.9673	3109.4903	3160.6012	3177.1061	3235.4102	3442.51
CN1N=CC(=N)C=C1F	CN1N=CC(=C[C@H]1F)[NH]	
InChI=1S/C5H6FN3/c1-9-5(6)2-4(7)3-8-9/h2-3,7H,1H3	InChI=1S/C5H7FN3/c1-9-5(6)2-4(7)3-8-9/h2-3,5,7H,1H3/t5-/m0/s1
