18
gdb 61574	3.43201	0.95227	0.82332	3.8892	67.47	-0.2547	0.0157	0.2704	1375.7386	0.147781	-476.230008	-476.221067	-476.220123	-476.264501	32.664	
N	-0.201309413	 1.6164287286	 0.1025485439	-0.540345
H	 0.0389684576	 0.7437424065	-0.362722687	 0.238923
H	 1.1476709241	 1.7564407262	 1.4341556791	 0.307649
H	-0.7349091102	 2.1565929524	-0.5718122664	 0.259075
C	-1.0551710293	 1.3368060029	 1.2676404473	-0.139736
C	-2.1705668153	 0.3065763318	 1.0520711059	-0.244171
C	-3.3140472164	 0.7821777159	 0.1780233709	 0.074658
C	-3.9418410674	 2.1044128244	 0.287224787	-0.178884
O	-3.0481979078	 1.8088696713	-0.7929703239	-0.23561
C	-0.1620448786	 0.9471113277	 2.4659770954	 0.441356
O	 1.1050105227	 1.3543554127	 2.3305484616	-0.370797
O	-0.5680749378	 0.368825616	 3.4389889367	-0.342821
H	-1.4994342724	 2.2963463762	 1.5623723881	 0.124515
H	-1.7303644625	-0.5942013035	 0.6036303856	 0.106454
H	-2.5609477044	-0.0005317714	 2.0278940171	 0.149016
H	-3.9424723259	-0.0200727216	-0.2110930167	 0.10356
H	-4.9857468661	 2.2282627382	 0.0041263165	 0.124875
H	-3.5767789972	 2.8296256359	 1.0122926189	 0.122282
56.1408	84.7933	119.277	173.2998	237.9454	343.8324	349.1043	363.4554	418.1601	498.4349	528.8562	630.7314	727.6568	784.2174	842.4664	864.9713	871.0051	896.9727	926.8377	977.7269	1023.9974	1076.7889	1108.1114	1135.6257	1156.4889	1161.4042	1186.7722	1220.9718	1269.7205	1277.4385	1317.6013	1383.5024	1393.1242	1429.4461	1438.852	1478.7602	1534.6048	1671.8043	1865.8529	3021.0332	3038.8077	3087.7837	3091.6253	3103.1967	3176.3422	3467.1288	3488.1126	3567.4424
[NH3+]C(CC1CO1)C([O-])=O	N[C@@H](C[C@H]1CO1)C(=O)O	
InChI=1S/C5H9NO3/c6-4(5(7)8)1-3-2-9-3/h3-4H,1-2,6H2,(H,7,8)	InChI=1S/C5H9NO3/c6-4(5(7)8)1-3-2-9-3/h3-4H,1-2,6H2,(H,7,8)/t3-,4-/m0/s1
