17
gdb 55973	3.49454	0.88322	0.81967	2.4333	70.77	-0.2538	-0.0368	0.2171	1435.1762	0.132229	-458.977275	-458.967895	-458.966951	-459.013161	32.412	
C	-0.181811213	 1.4898913781	 0.0488675745	-0.479385
C	 0.0461583631	-0.0051015023	 0.1282179386	 0.394968
O	 0.1414978382	-0.5939333918	 1.1785094337	-0.289408
C	 0.1774231103	-0.7367397053	-1.2118525345	-0.333951
C	-0.1476097934	-2.216272134	-1.1122772976	 0.023156
O	-1.5654495743	-2.5164178391	-1.2093391354	-0.294066
C	-1.4051686643	-3.4100754585	-2.3295449724	-0.188654
C	 0.0929395235	-3.0839464692	-2.3543988061	 0.325233
O	 1.0273277647	-3.3430878492	-3.048673324	-0.272065
H	 0.5365903215	 1.9579344418	-0.6331702313	 0.139156
H	-1.18035759	 1.6833782938	-0.3609333298	 0.150532
H	-0.1046233339	 1.9351390789	 1.0412048691	 0.147593
H	-0.4385611726	-0.2569371943	-1.9793421901	 0.122432
H	 1.223290728	-0.627557282	-1.5342945652	 0.151222
H	 0.2851544263	-2.6261887817	-0.1903857427	 0.133317
H	-1.6469166033	-4.4530458534	-2.0870565501	 0.135604
H	-1.9761923008	-3.1011552319	-3.2140326065	 0.134316
41.7426	51.3395	109.9795	126.8275	142.4692	216.2418	329.1743	376.3316	472.8222	482.5589	543.316	597.0559	691.0135	795.7265	821.8685	831.334	919.1242	957.7235	1005.3117	1014.3731	1064.2855	1088.506	1116.5783	1138.4784	1172.7842	1204.5022	1248.6498	1287.0004	1323.8007	1378.4923	1386.9932	1432.5031	1462.5797	1475.6527	1481.723	1818.8278	1921.7203	3016.475	3021.9833	3035.7564	3037.5367	3064.3542	3084.6161	3096.3757	3155.1383
CC(=O)CC1OCC1=O	CC(=O)C[C@H]1OCC1=O	
InChI=1S/C6H8O3/c1-4(7)2-6-5(8)3-9-6/h6H,2-3H2,1H3	InChI=1S/C6H8O3/c1-4(7)2-6-5(8)3-9-6/h6H,2-3H2,1H3/t6-/m1/s1
