19
gdb 82464	3.2103	1.60487	1.4019	0.4855	73.98	-0.2326	0.068	0.3005	986.0436	0.16007	-422.986252	-422.978737	-422.977793	-423.017633	30.82	
C	-0.1258097766	 1.4802804496	 0.0475782352	-0.512036
C	 0.0057388713	-0.010771249	 0.0713805794	 0.47642
O	-1.2236731287	-0.7537209919	 0.2095265455	-0.331341
C	-0.3427903766	-1.8748190614	 0.5094828166	 0.007127
C	 0.7508465893	-0.9058702977	 1.0942721076	-0.118045
C	 1.9912932402	-0.9360138997	 0.1857550295	-0.248104
C	 0.9612294521	-0.7907838626	-0.9657599687	-0.155942
C	 0.2294012111	-2.1421369559	-0.9083181887	 0.151867
O	 1.1212243657	-3.2292424281	-1.0442808852	-0.440372
H	 0.8597939256	 1.9546450683	 0.0158970388	 0.126205
H	-0.6847593556	 1.7996536557	-0.8386271168	 0.13122
H	-0.6573421135	 1.8354195666	 0.9353943655	 0.129521
H	-0.814058445	-2.6816728955	 1.071251048	 0.070308
H	 0.7586846063	-0.7221932289	 2.1677116075	 0.07161
H	 2.5907436825	-0.0317091352	 0.3216678028	 0.095415
H	 2.6324686223	-1.816320133	 0.1746860592	 0.119469
H	 1.2282649632	-0.3879390318	-1.9413497143	 0.066817
H	-0.5980517657	-2.2030806999	-1.6251538492	 0.074658
H	 0.6079143021	-4.0408054696	-0.9860056826	 0.285203
181.2732	203.9367	247.14	283.6765	302.2637	338.1097	464.2459	507.0534	529.7154	639.336	697.9728	737.1942	791.3533	837.7614	859.2993	887.769	903.6806	941.7148	971.1865	984.5958	990.1593	1011.1887	1077.0237	1105.1176	1111.3405	1145.0194	1150.9987	1160.7971	1199.3949	1225.5386	1248.383	1255.3905	1272.7606	1308.706	1329.4425	1359.8056	1415.7543	1418.2657	1476.0592	1490.3043	1494.2493	3035.2578	3036.6205	3069.3067	3104.8446	3115.8406	3116.263	3128.9255	3132.2662	3144.8466	3823.3791
CC12OC3C1CC2C3O	C[C@]12O[C@@H]3[C@H]1C[C@H]2[C@H]3O	
InChI=1S/C7H10O2/c1-7-3-2-4(7)6(9-7)5(3)8/h3-6,8H,2H2,1H3	InChI=1S/C7H10O2/c1-7-3-2-4(7)6(9-7)5(3)8/h3-6,8H,2H2,1H3/t3-,4+,5+,6+,7+/m0/s1
