17
gdb 37817	3.06007	2.01438	1.74979	1.3933	76.83	-0.2205	-0.0038	0.2167	843.8443	0.138957	-380.737675	-380.731557	-380.730612	-380.767722	26.258	
C	-0.0377098004	 1.4902666857	-0.193964011	-0.411105
C	 1.4295318745	 1.8817674924	 0.037060068	-0.048763
C	 2.1831937383	 0.922272667	 0.6039326796	-0.215782
C	 1.3259358304	-0.2655316038	 0.8634767003	 0.251085
N	 0.50789769	-0.4973891465	 2.1176473056	-0.381016
C	-0.3022371614	-1.133012172	 1.0318340851	-0.089892
C	 0.9207524356	-1.6277380673	 0.1730098819	-0.100167
N	 0.3885993954	-0.9925097605	-1.072168313	-0.374711
C	 0.0572980792	-0.0088048132	 0.0146954954	 0.330827
H	-0.6893820963	 1.9837722086	 0.5364266781	 0.136617
H	-0.4016332176	 1.7596019164	-1.191341264	 0.12004
H	 1.7978799941	 2.8714446462	-0.2185299849	 0.102244
H	 3.2280026294	 1.0341403264	 0.8694735215	 0.102221
H	 0.9437373071	-1.2182776286	 2.6985562411	 0.207289
H	-1.2526912603	-1.6399313105	 1.2031768678	 0.08816
H	 1.4116936554	-2.6040291384	 0.1896234751	 0.077859
H	 1.1711848264	-0.6314817317	-1.6272492466	 0.205093
216.9246	243.7956	408.9907	442.4522	485.6312	526.756	610.6853	732.3405	748.0265	772.8068	790.5221	834.0636	852.5366	877.2561	900.4094	929.2745	948.7063	953.3165	968.2243	999.8714	1049.6224	1073.4375	1103.6667	1121.3032	1151.0628	1170.7204	1187.271	1211.7076	1249.9942	1271.7413	1278.8735	1283.7539	1311.3965	1361.6154	1371.7331	1461.8627	1616.0369	3039.9274	3078.5438	3083.0391	3113.321	3171.8192	3202.6131	3384.2973	3403.0101
C1C=CC23NC4C2NC134	C1C=C[C@]23N[C@@H]4[C@H]2N[C@]134	
InChI=1S/C7H8N2/c1-2-6-4-5(8-6)7(6,3-1)9-4/h1-2,4-5,8-9H,3H2	InChI=1S/C7H8N2/c1-2-6-4-5(8-6)7(6,3-1)9-4/h1-2,4-5,8-9H,3H2/t4-,5-,6+,7+/m1/s1
