19
gdb 61594	3.32809	0.85086	0.7572	2.8452	72.17	-0.2617	0.0592	0.3209	1524.4554	0.157051	-460.104916	-460.095492	-460.094547	-460.140382	33.649	
O	 0.0220302936	 1.6741356445	-0.0348245284	-0.431853
C	 0.1351103623	 0.2539221166	-0.016327607	 0.097173
C	 0.8806316567	-0.2832282397	-1.245695291	-0.255326
C	 0.1861783467	 0.0775293056	-2.5360585316	 0.098634
C	 0.1981544326	-0.8115104857	-3.7030413279	-0.182183
O	-0.9599925119	-0.7119570562	-2.8730275772	-0.236826
C	 0.7839092362	-0.2090362299	 1.2731385268	 0.064624
C	-0.0035638139	-0.6222378013	 2.4372684985	-0.177134
O	 0.6352090386	-1.5904602001	 1.5973958757	-0.235
H	 0.9125752493	 2.0435534881	-0.029368899	 0.279327
H	-0.893914904	-0.1198842851	-0.0432236493	 0.114468
H	 1.9043850855	 0.1210386412	-1.2537425323	 0.087275
H	 0.9597763552	-1.3722418885	-1.1620682709	 0.128157
H	 0.0464526458	 1.1451451257	-2.70449054	 0.100205
H	 0.0945307872	-0.3961287398	-4.7046469459	 0.113928
H	 0.7316929079	-1.7600280729	-3.648346912	 0.112685
H	 1.790229819	 0.1856840918	 1.4451714138	 0.081736
H	 0.4143831206	-0.5265997147	 3.4380303358	 0.11752
H	-1.0906689775	-0.5996399295	 2.3802268318	 0.12259
54.9262	68.2813	87.6574	135.0903	208.7834	287.5664	305.9531	341.6728	355.2419	460.5621	500.1943	553.5622	789.9057	838.7126	855.7248	876.118	904.241	940.7372	964.4553	1014.0428	1068.7515	1085.3424	1101.6666	1117.3069	1141.918	1157.1365	1161.15	1168.8886	1173.985	1214.3828	1271.8399	1284.7496	1298.1198	1312.7247	1369.2112	1405.9264	1443.6865	1455.741	1466.4708	1528.8858	1531.1632	3000.5355	3056.3732	3070.9682	3079.6833	3084.3978	3088.2748	3119.2808	3165.9039	3176.4847	3793.2081
OC(CC1CO1)C1CO1	O[C@@H](C[C@H]1CO1)[C@H]1CO1	
InChI=1S/C6H10O3/c7-5(6-3-9-6)1-4-2-8-4/h4-7H,1-3H2	InChI=1S/C6H10O3/c7-5(6-3-9-6)1-4-2-8-4/h4-7H,1-3H2/t4-,5-,6+/m0/s1
