21
gdb 95297	2.03587	1.80219	1.38733	1.8078	76.87	-0.2473	0.0672	0.3145	1057.3216	0.183273	-424.22855	-424.219965	-424.219021	-424.261328	34.264	
O	-0.071792579	 1.448954912	 0.0296509538	-0.450967
C	-0.0242112126	 0.0324596333	 0.1169813554	 0.062492
C	 0.5163314445	-0.5458288258	 1.4347185801	-0.265338
C	-0.0420960956	-1.9839809521	 1.4369420109	-0.230093
C	-1.4581929816	-1.8379388887	 0.8536188461	-0.037781
C	-2.5079494446	-1.1740596955	 1.7950291696	-0.226533
C	-2.5172028165	 0.1010786908	 0.9052149448	-0.284315
C	-1.4430143266	-0.5434740256	-0.0206692705	 0.433957
O	-1.8256093451	-0.7342720305	-1.3650085055	-0.500345
H	 0.8292196723	 1.7844644653	 0.0601795402	 0.284229
H	 0.5568509697	-0.382396198	-0.7226550704	 0.068795
H	 1.6081796774	-0.5060029332	 1.5029946961	 0.088187
H	 0.1131191652	 0.0357291433	 2.2722082626	 0.108251
H	 0.5685556653	-2.6205700727	 0.785841049	 0.100373
H	-0.0382176102	-2.4409733139	 2.4315461156	 0.096944
H	-1.8136459054	-2.7324639529	 0.3402166306	 0.072591
H	-3.4637020596	-1.6995189396	 1.8471258121	 0.100237
H	-2.1522220552	-1.0175983678	 2.8176474141	 0.093734
H	-3.457109604	 0.2602415867	 0.3726459928	 0.099133
H	-2.2173836746	 1.0340471459	 1.3860779053	 0.10824
H	-1.8039909038	 0.131196579	-1.7904177426	 0.278211
76.6723	176.4107	239.8817	243.7036	282.5562	297.1256	343.8857	404.471	435.3534	522.5731	549.4411	585.8373	644.2945	737.6296	804.3199	824.7729	851.0754	917.8923	944.8009	957.6139	966.7176	1003.9844	1029.4159	1064.6116	1075.5244	1111.1301	1140.6239	1157.5011	1191.1595	1215.3436	1229.2407	1246.0251	1247.0633	1275.9627	1292.5265	1300.6424	1317.6335	1339.1732	1355.6953	1386.9261	1428.236	1471.6732	1485.9039	1488.903	1504.5253	2970.1496	3034.5711	3038.5803	3054.5181	3071.9126	3077.5171	3088.0615	3094.4468	3108.5816	3131.8946	3786.5873	3824.0905
OC1CCC2CCC12O	O[C@H]1CC[C@H]2CC[C@@]12O	
InChI=1S/C7H12O2/c8-6-2-1-5-3-4-7(5,6)9/h5-6,8-9H,1-4H2	InChI=1S/C7H12O2/c8-6-2-1-5-3-4-7(5,6)9/h5-6,8-9H,1-4H2/t5-,6-,7-/m0/s1
