17
gdb 18905	3.38287	2.73904	2.22685	1.7552	69.99	-0.225	0.0865	0.3116	712.2435	0.143866	-326.650233	-326.64418	-326.643235	-326.679917	25.089	
C	-0.1212391441	 1.5288034495	 0.0157334164	-0.527361
C	-0.0153879382	 0.039505279	 0.0070854476	 0.413995
C	 0.7198631623	-0.8683140503	-1.0438184331	-0.121925
C	 1.8261513704	-1.180088363	-0.0047928677	-0.24929
C	 0.7254912641	-0.8801157302	 1.0436706848	-0.121925
C	-0.444654109	-1.8348259416	 0.7424813298	-0.039552
C	-0.4486129721	-1.8264731174	-0.7470531859	-0.039543
N	-1.2862903926	-0.8315786524	 0.0055335032	-0.213393
H	 0.8717146293	 1.9920442548	 0.0126637079	 0.120666
H	-0.668173501	 1.8823252321	-0.8651802393	 0.129269
H	-0.6583910584	 1.8730344124	 0.9062897569	 0.129191
H	 0.9261798104	-0.5781384342	-2.0724368227	 0.070766
H	 2.2804469864	-2.1753187163	-0.0116620222	 0.09519
H	 2.6080682384	-0.4135999528	-0.0025769608	 0.099243
H	 0.9373926519	-0.6015344892	 2.0743579207	 0.070757
H	-0.8864599904	-2.6053703515	 1.3623201079	 0.091957
H	-0.8937215473	-2.5900560689	-1.3731134433	 0.091954
209.1012	241.8366	260.3313	420.4486	549.2657	599.2524	734.5533	739.4338	801.9831	817.7677	827.2673	846.9437	856.0263	888.8936	938.3812	954.1869	967.6006	988.5791	1037.5206	1068.7936	1069.4176	1120.3117	1122.3972	1139.2636	1162.8193	1182.4758	1227.9735	1233.8372	1266.1341	1313.0352	1341.005	1356.2142	1412.0344	1475.9832	1484.3177	1488.6131	3025.7931	3044.2958	3096.2143	3097.1461	3102.0949	3131.5184	3133.3797	3181.7944	3193.5704
CC12C3CC1C1C3N21	C[C@@]12[C@H]3C[C@@H]1[C@@H]1[C@H]3N21	
InChI=1S/C7H9N/c1-7-3-2-4(7)6-5(3)8(6)7/h3-6H,2H2,1H3	InChI=1S/C7H9N/c1-7-3-2-4(7)6-5(3)8(6)7/h3-6H,2H2,1H3/t3-,4+,5-,6+,7+,8?
