15
gdb 10287	2.22061	1.98385	1.29091	2.8853	63.92	-0.2402	0.0082	0.2483	977.1124	0.116005	-399.778602	-399.769495	-399.768551	-399.812497	32.013	
C	-0.7207465019	 0.7797451217	 0.268313893	-0.243944
O	-0.1096052428	-0.4779375771	 0.0290062767	-0.246062
C	 0.7577986537	-0.4684898174	-1.096266314	-0.153579
C	 1.6731200165	-1.5999983141	-0.9934888723	 0.317654
C	 2.4202399069	-2.5380467994	-0.9341903492	-0.424342
C	-0.0111866157	-0.5533080473	-2.4486998618	 0.362768
N	-1.2073649461	-1.1829357807	-2.3396760158	-0.507364
O	 0.4509495869	-0.0992317333	-3.4722714163	-0.352384
H	 0.0324353127	 1.5584743062	 0.453064316	 0.122145
H	-1.356055245	 1.0947303453	-0.5709269067	 0.122365
H	-1.339539102	 0.6636898545	 1.1604221961	 0.135285
H	 1.3328544244	 0.4675451491	-1.139409699	 0.124118
H	 3.0873873384	-3.3626473471	-0.8785752159	 0.203892
H	-1.4963078107	-1.5628946856	-1.4539745052	 0.27328
H	-1.7480290253	-1.3561882147	-3.1703606256	 0.266168
58.46	117.9062	140.6417	167.2561	187.4301	285.4034	315.788	354.6654	397.4909	471.1324	537.4394	579.0268	617.4059	623.5182	676.8983	746.842	883.8089	984.6476	1020.0718	1093.4766	1127.4674	1181.251	1217.5512	1278.4363	1343.4983	1347.9605	1477.8223	1489.64	1506.5862	1598.0846	1821.0667	2244.0309	2995.6232	3010.8178	3052.1556	3127.4926	3503.3412	3599.2488	3738.881
COC(C#C)C(N)=O	CO[C@@H](C#C)C(=O)N	
InChI=1S/C5H7NO2/c1-3-4(8-2)5(6)7/h1,4H,2H3,(H2,6,7)	InChI=1S/C5H7NO2/c1-3-4(8-2)5(6)7/h1,4H,2H3,(H2,6,7)/t4-/m0/s1
