17
gdb 15117	8.16835	0.71722	0.68763	5.0337	69.63	-0.2764	0.0337	0.3101	1563.9889	0.141521	-363.858509	-363.849971	-363.849026	-363.892779	29.51	
N	 0.0400198757	-1.1258759289	 0.3946218143	-0.302368
C	 0.0130095595	 0.0152444231	 0.2147489314	 0.257317
C	 0.0007148082	 1.4582882207	-0.0150525329	-0.343133
C	 1.4151270622	 2.0698816747	-0.0289487682	-0.17396
C	 1.3830353628	 3.5811370308	-0.2890585349	-0.228879
C	 2.7671610874	 4.1835117251	-0.2814353443	 0.093685
C	 3.0441302582	 5.5148884455	 0.2697164085	-0.179975
O	 3.3831602041	 4.3344511775	 1.0003237522	-0.233335
H	-0.5073477137	 1.6522593075	-0.9673274536	 0.15059
H	-0.6082763975	 1.9289595687	 0.7657894416	 0.153809
H	 1.9052766557	 1.8769070576	 0.9303316953	 0.141805
H	 2.0148402138	 1.5685485349	-0.7969162272	 0.12154
H	 0.9094132337	 3.7855167293	-1.258970795	 0.105526
H	 0.7761956532	 4.0784525095	 0.477092209	 0.108328
H	 3.4440502747	 3.8045341038	-1.0503223291	 0.095429
H	 3.8876278095	 6.0932323199	-0.1043032841	 0.119046
H	 2.2269629425	 6.1030028405	 0.685917507	 0.114575
53.719	86.7161	98.199	124.5756	217.5685	297.9293	398.694	404.1443	457.0294	563.7703	739.1723	790.78	845.5577	878.1691	941.5402	952.2551	1015.6046	1041.7862	1054.4982	1104.2382	1132.5226	1160.2262	1169.8358	1206.3893	1259.7396	1295.258	1300.2354	1329.2967	1342.363	1390.2849	1450.7014	1467.7373	1472.2301	1501.8102	1532.0235	2363.4451	3017.2788	3035.857	3049.0906	3060.3615	3071.132	3083.046	3090.2724	3103.4944	3169.9769
N#CCCCC1CO1	N#CCCC[C@H]1CO1	
InChI=1S/C6H9NO/c7-4-2-1-3-6-5-8-6/h6H,1-3,5H2	InChI=1S/C6H9NO/c7-4-2-1-3-6-5-8-6/h6H,1-3,5H2/t6-/m0/s1
