14
gdb 133676	3.25692	0.96298	0.87419	1.44	54.8	-0.2739	0.0172	0.2911	1256.0413	0.097154	-564.386435	-564.377517	-564.376572	-564.420836	31.498	
N	-0.0930961324	 1.4710566168	 0.0614269183	-0.511082
C	-0.0051631781	 0.0267309621	 0.000179777	-0.125259
C	 0.663092892	-0.5621493817	-1.2783178337	-0.364292
C	-0.0145746408	-0.0865569011	-2.4785908286	 0.252853
N	-0.5773736051	 0.3185116555	-3.4030213017	-0.298809
C	 0.7611302623	-0.4624121937	 1.2309170535	 0.310746
F	 0.1380446424	-0.1512521002	 2.3627315096	-0.054973
F	 0.9174453087	-1.7971937097	 1.1993378268	-0.085582
F	 1.9910665196	 0.0844982641	 1.268775837	-0.091629
H	 0.8229535378	 1.8935528179	-0.0538414162	 0.242403
H	-0.6926399436	 1.8225429653	-0.6772315031	 0.258775
H	-1.0162878298	-0.3838190615	 0.085183307	 0.135167
H	 1.7142643783	-0.2547774951	-1.3143595763	 0.162402
H	 0.6436555886	-1.6558807588	-1.2564696496	 0.16928
67.3423	80.6464	127.072	216.5227	244.6034	294.6952	324.405	396.1853	398.0738	439.9361	507.168	572.4075	590.4221	685.4829	820.5899	847.4923	885.7584	957.7909	1031.0127	1102.4861	1141.4924	1194.8107	1225.9465	1270.8519	1283.3675	1304.7725	1363.8659	1439.1836	1469.5864	1659.9195	2363.3926	3053.6568	3075.962	3104.4963	3509.3029	3595.0053
NC(CC#N)C(F)(F)F	N[C@@H](CC#N)C(F)(F)F	
InChI=1S/C4H5F3N2/c5-4(6,7)3(9)1-2-8/h3H,1,9H2	InChI=1S/C4H5F3N2/c5-4(6,7)3(9)1-2-8/h3H,1,9H2/t3-/m0/s1
