18
gdb 77357	2.27249	1.58059	1.19445	4.5367	73.27	-0.2385	-0.038	0.2005	1093.4401	0.147465	-439.143037	-439.134172	-439.133228	-439.17716	31.625	
C	-0.0238276629	 1.4046443263	 0.0901274627	-0.355722
N	 0.0005498909	-0.0365436118	-0.0426403604	-0.043738
C	-1.1844989968	-0.8517373916	 0.0545017575	-0.100803
C	-0.6987018396	-2.2627835596	-0.3903364128	-0.25202
C	 0.8056666069	-2.2356923717	-0.0852642814	-0.332793
C	 1.1748245539	-0.7512226009	-0.0874882689	 0.418163
O	 2.2883146834	-0.2748532586	-0.1114304491	-0.386935
C	-1.7802582034	-0.9048739929	 1.4588536801	 0.15983
O	-1.2842075049	-0.4100066725	 2.4355198974	-0.236605
H	 1.0027637005	 1.7560511925	-0.025365682	 0.166886
H	-0.6511272253	 1.8563400025	-0.6877634277	 0.117443
H	-0.4001393914	 1.7048247107	 1.0730821159	 0.145313
H	-1.9811373986	-0.4884151215	-0.6124484371	 0.098191
H	-1.237035122	-3.0639760422	 0.122457878	 0.11717
H	-0.8746865192	-2.3800432204	-1.4621995295	 0.125738
H	 1.0350581547	-2.6374481581	 0.9077103591	 0.141869
H	 1.4143938193	-2.7810723038	-0.8079041258	 0.135338
H	-2.7413976156	-1.4690979465	 1.5130031842	 0.082675
59.3716	113.5483	149.066	158.0095	167.1193	269.937	317.0548	338.2907	480.7706	566.0427	613.8782	660.508	692.6694	749.3157	831.6948	918.1363	935.4968	961.1775	1026.9741	1035.6109	1081.5843	1128.5463	1154.1322	1173.3418	1212.4579	1248.4332	1292.9372	1303.5043	1339.0289	1360.1322	1403.7219	1419.6145	1455.2417	1471.1152	1493.3538	1501.2041	1518.9768	1815.8513	1839.3251	2855.9771	2991.4558	3025.9585	3059.7107	3067.6489	3089.052	3108.1593	3127.7275	3147.0053
CN1C(CCC1=O)C=O	CN1[C@@H](CCC1=O)C=O	
InChI=1S/C6H9NO2/c1-7-5(4-8)2-3-6(7)9/h4-5H,2-3H2,1H3	InChI=1S/C6H9NO2/c1-7-5(4-8)2-3-6(7)9/h4-5H,2-3H2,1H3/t5-/m0/s1
