24
gdb 102531	1.54896	1.41099	0.92298	3.8946	86.66	-0.2381	0.0339	0.272	1436.4891	0.215533	-405.586621	-405.575247	-405.574303	-405.623752	40.211	
C	 0.07857142	 1.5622994493	 0.05258288	-0.394766
C	 0.0118014305	 0.0370929168	-0.0484337668	-0.183351
C	-1.4157593826	-0.5369059506	 0.0423248421	 0.016253
C	-1.4239374273	-2.0627810288	-0.1750909533	-0.183357
C	-2.8229210654	-2.6816452791	-0.2027225688	-0.39476
N	-2.0957297963	-0.1465429292	 1.2793395794	-0.020706
C	-1.5766374934	-0.5787348938	 2.5675643852	-0.354518
C	-3.2224179831	 0.6252502619	 1.2521442277	 0.154166
O	-3.8531326649	 0.9982316263	 2.2199399217	-0.350801
H	 1.1093531724	 1.9150616281	-0.0467454934	 0.117234
H	-0.5126688204	 2.0377288497	-0.7380486984	 0.116054
H	-0.3069239177	 1.9201876372	 1.0118352691	 0.131502
H	 0.4358213123	-0.2881301464	-1.0058553462	 0.101495
H	 0.640863737	-0.4193648434	 0.7258304247	 0.100946
H	-2.0059034678	-0.0846620974	-0.766081166	 0.086694
H	-0.9138788465	-2.2614132945	-1.1251457301	 0.1015
H	-0.8133548632	-2.5468962605	 0.5971650888	 0.100942
H	-3.3492454658	-2.531275289	 0.7444979902	 0.131495
H	-3.4366336626	-2.237854656	-0.9946265425	 0.116052
H	-2.7695187631	-3.7583604971	-0.3888787683	 0.117234
H	-0.561041255	-0.204744661	 2.7365229806	 0.125391
H	-2.2378461844	-0.1740299491	 3.3337718591	 0.169467
H	-1.5614634062	-1.6710606743	 2.6475935675	 0.125384
H	-3.5122385365	 0.8856334509	 0.2154465578	 0.07045
50.1952	79.2203	94.109	97.3064	170.8067	184.7541	203.6766	251.3867	287.4593	290.4541	342.2202	366.927	384.5113	486.2	517.1634	622.7874	772.8012	816.4355	858.5796	903.9199	931.3201	1020.4331	1028.5983	1038.8905	1040.8228	1069.5795	1116.9403	1130.2338	1159.3445	1170.8507	1259.3506	1275.4848	1293.2141	1304.1303	1363.9212	1376.1131	1381.4802	1412.0957	1415.038	1435.2648	1439.6164	1453.3762	1477.0428	1494.5798	1497.6547	1497.7834	1503.8568	1505.6891	1508.6254	1518.4726	1789.7927	2937.1016	3016.4021	3027.1824	3029.0334	3035.689	3035.8736	3038.7087	3057.7599	3068.2479	3083.3743	3102.3339	3103.171	3113.1659	3114.056	3155.4965
CCC(CC)N(C)C=O	CCC(CC)N(C)C=O	
InChI=1S/C7H15NO/c1-4-7(5-2)8(3)6-9/h6-7H,4-5H2,1-3H3	InChI=1S/C7H15NO/c1-4-7(5-2)8(3)6-9/h6-7H,4-5H2,1-3H3
