17
gdb 28173	4.95815	1.21527	0.98692	1.4505	82.94	-0.1739	0.0145	0.1884	1166.7156	0.138852	-380.90697	-380.899216	-380.898272	-380.939736	29.996	
N	 0.1798165417	 1.3898801873	-0.0221415227	-0.612197
C	-0.0059765169	-0.0136192506	-0.0193431218	 0.273575
C	-1.1215415689	-0.83052136	-0.0889745318	-0.422235
C	-0.6418995524	-2.1698099517	-0.0676690088	 0.32215
C	 0.7355811503	-2.122911665	 0.0164122294	 0.283456
C	 1.3355672226	-3.4924224561	 0.0577595189	-0.419456
C	 0.0743540745	-4.3486583619	-0.0218817503	-0.091095
C	-1.0313005164	-3.5796609497	-0.0919695438	-0.198829
N	 1.1231228114	-0.8179743781	 0.0439881547	-0.383777
H	-0.3676752183	 1.8311577902	-0.7526428442	 0.243425
H	-0.1010835863	 1.8125758031	 0.8577675178	 0.241757
H	-2.1427233621	-0.4832332775	-0.1407358051	 0.082643
H	 2.0162724331	-3.7023954164	-0.778761763	 0.122761
H	 1.9011108627	-3.6965317809	 0.9773964096	 0.123084
H	 0.1072975963	-5.4298008811	-0.0214124343	 0.089357
H	-2.0483427752	-3.9465135431	-0.1563445711	 0.089514
H	 2.0555450237	-0.4412400284	 0.0679369563	 0.255866
36.5836	136.0701	250.9866	282.8614	302.884	427.1287	495.8952	519.5749	551.2042	638.2614	658.9884	721.6136	736.7418	780.8837	787.1762	808.7095	877.5707	922.5423	928.4387	946.9686	1014.8717	1075.2395	1127.5216	1150.2091	1170.5425	1200.0167	1212.6296	1252.8846	1324.0423	1388.9213	1435.9956	1461.5602	1487.6437	1527.6904	1572.9967	1619.4627	1659.0538	3015.4376	3040.9173	3202.164	3229.8188	3238.4621	3493.0347	3566.5547	3670.3021	36.5746	136.0702	250.9866	282.8616	302.8839	427.1288	495.8952	519.575	551.2042	638.2614	658.9885	721.6135	736.7417	780.8837	787.1759	808.7091	877.5707	922.5421	928.4387	946.9682	1014.8717	1075.2393	1127.5216	1150.2089	1170.5424	1200.0168	1212.6298	1252.8847	1324.0421	1388.9211	1435.9956	1461.5602	1487.6437	1527.6903	1572.9968	1619.4628	1659.054	3015.4376	3040.9173	3202.1639	3229.8187	3238.4621	3493.0346	3566.5546	3670.3019
NC1=CC2=C(CC=C2)N1	Nc1cc2c(CC=C2)[nH]1	
InChI=1S/C7H8N2/c8-7-4-5-2-1-3-6(5)9-7/h1-2,4,9H,3,8H2	InChI=1S/C7H8N2/c8-7-4-5-2-1-3-6(5)9-7/h1-2,4,9H,3,8H2
