17
gdb 96542	2.50583	1.63327	1.1762	4.2258	64.52	-0.2617	0.0004	0.262	1050.0137	0.136889	-496.118181	-496.110324	-496.10938	-496.1507	29.972	
O	 0.5059642342	 0.3963121214	 0.9670870903	-0.443965
C	-0.1508978333	-0.3257141959	-0.0383085925	-0.021573
C	-1.6497597627	 0.0947245532	-0.1306074263	-0.107215
O	-2.046292796	 0.5145908516	-1.424954187	-0.229595
C	-2.243342551	-0.5362985798	-2.3448116322	-0.080546
C	-1.046935672	-1.4884359465	-2.407523674	-0.114667
O	 0.1814110057	-0.755420561	-2.4677835554	-0.206963
C	 0.5873089824	-0.0938475222	-1.3709043406	 0.418289
O	 1.5491750713	 0.628503119	-1.4191255625	-0.344864
H	 1.22141743	 0.8737322936	 0.5147259603	 0.298114
H	-0.0826414662	-1.401041683	 0.1938528404	 0.101781
H	-2.3045199092	-0.7106705184	 0.2341635309	 0.095769
H	-1.7643706701	 0.9616056944	 0.5222541795	 0.141984
H	-3.1448096039	-1.1236385917	-2.1018720181	 0.100595
H	-2.3952138471	-0.0537273329	-3.3139752048	 0.131013
H	-1.0350290661	-2.1791406547	-1.5572597062	 0.124969
H	-1.080980416	-2.0866225572	-3.3205090419	 0.136871
83.0489	122.5287	262.6456	303.0272	336.531	354.9759	402.8378	442.4526	449.9273	548.9781	587.2673	635.2422	717.2787	813.6198	866.0445	915.4754	969.0493	988.4786	1059.7825	1085.4171	1114.2321	1153.5536	1175.3011	1221.8946	1252.4498	1267.7189	1305.9907	1320.7294	1356.8992	1377.1498	1407.8144	1411.233	1457.4746	1486.4694	1495.708	1512.1019	1831.4207	2963.7638	2973.8022	2997.7436	3050.5418	3096.1153	3120.0112	3123.2605	3669.3136
OC1COCCOC1=O	O[C@H]1COCCOC1=O	
InChI=1S/C5H8O4/c6-4-3-8-1-2-9-5(4)7/h4,6H,1-3H2	InChI=1S/C5H8O4/c6-4-3-8-1-2-9-5(4)7/h4,6H,1-3H2/t4-/m0/s1
