18
gdb 68174	3.5067	1.4082	1.20197	3.6213	71.65	-0.24	0.0329	0.2729	1039.093	0.149772	-439.118496	-439.110873	-439.109929	-439.150217	30.639	
O	-0.05670242	 1.4275544987	-0.0728282387	-0.480559
C	-0.0064194165	 0.0309906851	 0.0231308568	 0.394719
C	 0.2518572859	-0.6639411046	 1.3902312248	-0.29075
C	-0.6929704542	-1.7826850293	 0.8576989516	-0.130356
C	-1.3717923557	-0.6854752863	-0.0173596898	-0.259187
C	 0.1033700407	-2.7166203375	-0.0429788049	 0.401578
O	 0.0688599473	-3.9289615095	 0.016080176	-0.38474
N	 0.8817290287	-2.0326356944	-0.9441213072	-0.305145
C	 0.9179670183	-0.5819960875	-1.0416507945	-0.21914
H	 0.834577146	 1.7784346047	 0.0358674739	 0.279789
H	 1.2769012276	-0.9344754572	 1.6581115339	 0.101888
H	-0.2158551446	-0.1000137018	 2.2005213909	 0.11175
H	-1.2918217101	-2.3615377947	 1.5565799768	 0.094023
H	-2.1143011476	-0.1235747008	 0.5532346677	 0.115608
H	-1.7800410834	-0.97039956	-0.9899927576	 0.108374
H	 1.4277458805	-2.5953550325	-1.5785252352	 0.24842
H	 0.587398647	-0.2422396321	-2.0320371261	 0.11821
H	 1.94392271	-0.2121914601	-0.8881583483	 0.095519
110.8658	216.9773	259.2101	308.0957	340.8952	421.0686	427.0856	442.8807	471.9867	535.6354	621.6467	689.1495	748.4332	776.2122	863.5687	898.4205	916.4152	947.2423	955.2397	990.5192	1042.8569	1059.8178	1108.0758	1121.9853	1159.6008	1190.5579	1227.887	1237.1262	1246.9302	1273.7482	1299.5289	1343.7407	1355.2505	1393.4798	1470.8503	1474.5816	1511.6494	1526.1071	1808.3057	2978.5649	3030.8848	3056.6338	3066.319	3120.5913	3127.2502	3148.1747	3624.5521	3795.6675
OC12CC(C1)C(=O)NC2	O[C@@]12C[C@@H](C1)C(=O)NC2	
InChI=1S/C6H9NO2/c8-5-4-1-6(9,2-4)3-7-5/h4,9H,1-3H2,(H,7,8)	InChI=1S/C6H9NO2/c8-5-4-1-6(9,2-4)3-7-5/h4,9H,1-3H2,(H,7,8)/t4-,6-
