18
gdb 80836	2.63231	1.68507	1.30776	3.353	71.73	-0.2492	0.0159	0.2652	1014.1149	0.148311	-439.10001	-439.091988	-439.091044	-439.132002	31.87	
C	-0.1581420197	 1.5678927745	 0.0154291882	-0.438396
C	 0.0045722269	 0.0552555503	 0.0310736788	-0.00493
C	 1.1277058557	-0.6014076344	-0.8344424127	-0.038876
C	 2.1495002302	-0.2233053096	 0.2772132484	-0.302401
C	 0.8959023236	-0.5676128388	 1.1715962882	 0.305872
O	 0.7738707069	-0.2731346908	 2.507025657	-0.486851
C	 0.7844432904	-2.0564639081	 0.8243371486	 0.363236
O	 0.6941701808	-2.9735976562	 1.6085297896	-0.402718
N	 0.8504977773	-2.0362307019	-0.5535396459	-0.318295
H	 0.785963674	 2.1104524502	 0.1056198061	 0.122942
H	-0.6421926861	 1.8903661821	-0.9125915713	 0.11899
H	-0.7954066955	 1.8780515976	 0.8492197231	 0.138216
H	-0.9698456655	-0.4270267774	-0.094800427	 0.085433
H	 1.2689452012	-0.3782710474	-1.888927817	 0.088155
H	 3.0363759652	-0.8546132928	 0.3754068539	 0.104771
H	 2.4258500842	 0.8301555954	 0.3063082628	 0.116651
H	 0.6788158951	-1.1262214574	 2.9606735364	 0.293709
H	 1.280904255	-2.7881340154	-1.0712343772	 0.254491
154.6531	171.796	199.5714	264.961	323.9112	370.4579	386.4261	441.2869	487.0736	495.3445	576.7582	640.8356	701.6155	729.5119	806.0809	842.7715	880.7892	922.1799	944.4331	961.9996	1034.0338	1052.2601	1076.5968	1103.8752	1128.4435	1170.8107	1186.9484	1214.8221	1240.6746	1296.2352	1340.2786	1367.7354	1387.2287	1413.8434	1421.4953	1492.8941	1496.0124	1511.9429	1853.9407	3040.6133	3059.1889	3073.0637	3103.474	3120.0487	3148.5863	3155.4529	3618.659	3689.3735
CC1C2CC1(O)C(=O)N2	C[C@H]1[C@H]2C[C@]1(O)C(=O)N2	
InChI=1S/C6H9NO2/c1-3-4-2-6(3,9)5(8)7-4/h3-4,9H,2H2,1H3,(H,7,8)	InChI=1S/C6H9NO2/c1-3-4-2-6(3,9)5(8)7-4/h3-4,9H,2H2,1H3,(H,7,8)/t3-,4+,6+/m0/s1
