13
gdb 23653	3.84549	1.92156	1.2915	1.3517	62.06	-0.2627	-0.0395	0.2232	869.8139	0.096202	-402.817019	-402.810357	-402.809413	-402.848533	24.026	
C	-0.0127470678	 1.483324088	 0.0175160782	-0.458764
C	 0.003818309	-0.0177239899	-0.0106393343	 0.35705
N	-0.1005641281	-0.6249418339	-1.1950057303	-0.282215
C	-0.0821412242	-1.9634342386	-1.1821637585	 0.024358
C	 0.0373919674	-2.7080053556	-0.0206063474	-0.279916
C	 0.1378241385	-1.9512139892	 1.1424440313	 0.342671
F	 0.2559816845	-2.5721334399	 2.3069675293	-0.061057
N	 0.1241255626	-0.6419279054	 1.1753284947	-0.326236
H	 0.9085556277	 1.8619018693	 0.4713611554	 0.14551
H	-0.1138046469	 1.8794214894	-0.9925925807	 0.140688
H	-0.8412420412	 1.8395525715	 0.6378031974	 0.145508
H	-0.1672974212	-2.4563101968	-2.1476030752	 0.126324
H	 0.0526492997	-3.7892511688	-0.0055445698	 0.126079
53.8974	189.2095	222.7764	311.8239	452.288	481.0844	553.8265	581.2988	649.0239	768.9889	794.7629	851.9684	960.0851	1002.0422	1003.2052	1047.2294	1068.6108	1112.6102	1263.6499	1294.9853	1340.9785	1393.2538	1441.2577	1463.6121	1478.517	1497.0459	1605.7348	1633.8232	3049.5466	3106.7285	3161.2694	3163.7007	3229.0526
CC1=NC=CC(F)=N1	Cc1nccc(F)n1	
InChI=1S/C5H5FN2/c1-4-7-3-2-5(6)8-4/h2-3H,1H3	InChI=1S/C5H5FN2/c1-4-7-3-2-5(6)8-4/h2-3H,1H3
