18
gdb 17828	3.95825	1.61039	1.37998	3.3001	67.36	-0.2262	0.0668	0.2929	944.222	0.154282	-384.899212	-384.891573	-384.890629	-384.931612	28.763	
O	-0.0276817481	 1.4246337929	 0.4685016503	-0.434915
C	-0.0332300698	 0.0533057329	 0.2327108823	 0.14626
C	-0.6644765327	-0.9268861158	 1.1896306964	-0.344307
C	-1.2781605659	-0.6970020643	-0.1837495149	-0.087681
C	-2.5984544423	 0.0154911039	-0.3216708012	 0.128359
C	-3.8737941157	-0.671142909	 0.2275835008	-0.286436
C	-3.999422967	 0.571924363	 1.1289387285	-0.065644
O	-2.7566224517	 1.1135572734	 0.6254188888	-0.30555
H	-0.9116215144	 1.6717199816	 0.7761744738	 0.297774
H	 0.8997424265	-0.242163059	-0.2375653179	 0.101916
H	-0.1725767748	-1.8714583976	 1.3961136015	 0.107711
H	-1.1885914953	-0.4929864196	 2.0355871266	 0.115852
H	-1.1495730717	-1.4840523788	-0.9238077053	 0.087404
H	-2.7130363099	 0.3928541674	-1.3467008535	 0.085963
H	-4.6800056031	-0.8251693276	-0.4904983598	 0.113251
H	-3.6756050166	-1.6010734542	 0.7625064812	 0.118553
H	-4.8422631775	 1.2360260508	 0.9046976806	 0.110106
H	-3.95905823	 0.3978024702	 2.2097625518	 0.111385
76.0208	82.1448	188.7598	232.1782	300.9681	417.8487	519.815	524.8512	630.5358	705.4504	778.2969	795.9453	821.9372	859.2286	922.9411	944.255	979.882	1001.942	1021.5311	1045.7366	1064.7623	1108.5908	1126.6496	1140.1997	1142.9911	1170.2688	1219.2425	1229.5648	1259.093	1277.1476	1342.4395	1361.2168	1383.2402	1394.6826	1456.5283	1485.7806	1492.8938	1529.032	3010.9463	3027.3986	3070.4692	3084.4464	3125.404	3129.9696	3142.2642	3157.8045	3215.154	3723.4708
OC1CC1C1CCO1	O[C@H]1C[C@H]1[C@H]1CCO1	
InChI=1S/C6H10O2/c7-5-3-4(5)6-1-2-8-6/h4-7H,1-3H2	InChI=1S/C6H10O2/c7-5-3-4(5)6-1-2-8-6/h4-7H,1-3H2/t4-,5+,6-/m1/s1
