22
gdb 58479	2.13217	1.31031	1.06593	4.2162	86.83	-0.2792	0.0319	0.3111	1274.7893	0.192534	-367.232837	-367.222581	-367.221637	-367.267582	38.356	
C	 0.1118356156	 1.4277460654	-0.3152958549	-0.403337
C	 0.0229260692	-0.0291217581	 0.1647938271	-0.030503
C	 0.645665292	-0.198097502	 1.5588436541	-0.404324
C	-1.414754831	-0.5546658599	 0.1000775668	 0.364974
C	-2.4351518343	 0.1027007119	 1.0133473652	-0.473034
C	-1.9057413558	-1.0523596202	-1.2286776405	-0.332259
C	-1.6190005635	-2.0579187073	-0.119165979	-0.228955
C	-0.5045349394	-2.9542512004	-0.2363164303	 0.295169
N	 0.3936363465	-3.6798845895	-0.3211542167	-0.355443
H	 1.157038481	 1.7477509834	-0.368068132	 0.118157
H	-0.3285541438	 1.5489560026	-1.3101846546	 0.114514
H	-0.4043230066	 2.1111124546	 0.3675172458	 0.116879
H	 0.6134317968	-0.6393104753	-0.5298220188	 0.094371
H	 0.5987661679	-1.2385702051	 1.8933704383	 0.13062
H	 1.6988638455	 0.0986594799	 1.5426871879	 0.118159
H	 0.1419460854	 0.4257208178	 2.3050638079	 0.113076
H	-2.5231179611	 1.1722955139	 0.7983679699	 0.12859
H	-3.4260489881	-0.3409533895	 0.8763984065	 0.117396
H	-2.1647274135	-0.0082400225	 2.0677033722	 0.130727
H	-2.9468497704	-0.9100560738	-1.4973604844	 0.12321
H	-1.2173180091	-1.0430701637	-2.0663875923	 0.134409
H	-2.4798403234	-2.5026551923	 0.3695297818	 0.127604
72.1487	114.2068	142.2924	206.2827	220.8702	245.0485	252.3782	277.0511	301.3969	341.2142	393.008	440.6183	485.889	563.7581	618.6069	670.3393	788.4341	850.9321	878.5824	929.9631	940.2039	944.1956	966.4527	995.6611	1048.9371	1079.834	1106.158	1114.835	1128.2959	1147.0263	1190.8661	1260.92	1309.0355	1345.0304	1365.3978	1399.5683	1406.3664	1423.6314	1427.4343	1481.8524	1485.3057	1488.59	1501.0702	1502.0861	1508.7938	1511.6082	2346.254	3028.1099	3032.0521	3036.0291	3040.3205	3097.1284	3101.9255	3105.463	3107.5337	3109.8624	3113.2502	3135.9018	3161.6358	3225.0876
CC(C)C1(C)CC1C#N	CC(C)[C@@]1(C)C[C@H]1C#N	
InChI=1S/C8H13N/c1-6(2)8(3)4-7(8)5-9/h6-7H,4H2,1-3H3	InChI=1S/C8H13N/c1-6(2)8(3)4-7(8)5-9/h6-7H,4H2,1-3H3/t7-,8+/m0/s1
