18
gdb 63082	2.38619	1.78454	1.38247	2.065	71.53	-0.2334	0.0133	0.2468	1000.57	0.146226	-439.081072	-439.072377	-439.071433	-439.113745	33.217	
C	-0.1013977551	 1.564412963	 0.0195757016	-0.460856
C	 0.0404749349	 0.0624032231	 0.0353463798	 0.292423
O	-1.0798748449	-0.624314433	-0.4692210778	-0.453956
C	 1.3340134909	-0.6729774704	-0.2405076483	-0.060096
O	 2.5553721171	 0.0412544699	-0.0866022846	-0.210259
C	 2.5863859097	 0.3909328044	 1.226598769	 0.082193
N	 1.6341363304	 0.0294189921	 1.9859062333	-0.297286
C	 0.7063422382	-0.7266967948	 1.1575741881	 0.267354
C	 0.044775815	-1.9062548756	 1.8194566494	-0.472168
H	 0.7210744607	 2.0685738417	 0.5275904994	 0.139062
H	-0.1389515934	 1.9357514153	-1.0117611212	 0.11047
H	-1.0344334321	 1.8444494703	 0.5175936546	 0.133222
H	-1.1406843133	-0.4322161855	-1.4122855816	 0.284858
H	 1.3871428565	-1.4749389136	-0.9669603044	 0.112353
H	 3.4542723177	 0.968355955	 1.5213623042	 0.144252
H	-0.5313748697	-1.5720322484	 2.6879227915	 0.131455
H	-0.6317482566	-2.4082884111	 1.1272989774	 0.137431
H	 0.797414994	-2.6194400423	 2.1694142694	 0.119547
141.492	171.8998	175.9544	227.2614	247.4146	281.2667	311.2733	378.4282	400.3562	422.3599	544.668	594.3272	648.8336	712.345	751.1282	880.7407	896.4987	926.4073	947.8559	974.4393	987.9747	1028.9785	1074.1226	1104.532	1131.7203	1168.0674	1206.3136	1246.8659	1281.6428	1306.5168	1333.7601	1409.3803	1415.9853	1438.2362	1483.188	1488.4539	1493.2826	1501.6346	1669.3103	3032.7579	3045.5951	3098.074	3106.0088	3146.919	3151.9102	3186.9082	3228.3811	3784.4377
CC1(O)C2OC=NC12C	C[C@@]1(O)[C@H]2OC=N[C@@]12C	
InChI=1S/C6H9NO2/c1-5-4(6(5,2)8)9-3-7-5/h3-4,8H,1-2H3	InChI=1S/C6H9NO2/c1-5-4(6(5,2)8)9-3-7-5/h3-4,8H,1-2H3/t4-,5+,6+/m0/s1
