13
gdb 30550	6.6292	0.84076	0.75785	8.1052	68.11	-0.2132	-0.0225	0.1906	1391.0347	0.089482	-489.934535	-489.926754	-489.925809	-489.96726	28.195	
N	-0.0938862684	 1.3828664684	 0.0981020635	-0.485569
C	-0.1215855361	 0.0550326101	-0.1522285069	 0.107241
N	-1.0478373827	-0.7064054885	 0.3059152927	-0.318176
C	-0.9082646207	-2.0543574228	 0.1612284072	 0.334577
C	 0.0923912501	-2.9355278384	 0.295028411	-0.139465
O	-0.4041282501	-4.2153953228	 0.0816784949	-0.212175
C	-1.7367666715	-4.0945465316	-0.182094395	 0.500211
O	-2.485706697	-4.9872440419	-0.4195565216	-0.376056
O	-2.0643208244	-2.766994934	-0.1317221107	-0.231494
H	 0.4850466978	 1.9862097218	-0.4591891894	 0.273639
H	-0.8888429895	 1.7932045432	 0.5635296605	 0.276794
H	 0.7185820613	-0.3151642113	-0.7511409683	 0.11908
H	 1.1216887612	-2.8446368523	 0.588415722	 0.151393
85.1098	125.2593	174.8915	233.4806	329.7769	369.2895	396.9136	444.044	594.4175	604.7706	646.0527	690.6592	743.0087	778.1597	791.7349	932.8962	971.0555	1020.1745	1063.1807	1098.4586	1140.0619	1278.338	1309.941	1332.4864	1415.8344	1624.0221	1702.8821	1740.6015	1936.2019	3062.2327	3312.4361	3597.941	3731.6203
NC=NC1=COC(=O)O1	NC=Nc1coc(=O)o1	
InChI=1S/C4H4N2O3/c5-2-6-3-1-8-4(7)9-3/h1-2H,(H2,5,6)	InChI=1S/C4H4N2O3/c5-2-6-3-1-8-4(7)9-3/h1-2H,(H2,5,6)
