19
gdb 69601	3.51934	1.31215	1.20507	2.3165	76.07	-0.2334	0.0886	0.322	1114.1866	0.158377	-423.000886	-422.992754	-422.991809	-423.033264	31.903	
C	 0.0418640332	 1.4833345563	-0.125956624	-0.490787
C	-0.0329475074	-0.0045392169	 0.065030923	 0.397144
C	-1.2720194125	-0.7876936521	-0.3435122724	-0.14825
O	-1.1497937629	-2.0702118424	 0.2670437897	-0.30046
C	-0.2937467526	-1.9678798716	 1.3840793376	 0.468197
C	-0.8265982065	-2.294428152	 2.7575984013	-0.339676
C	 0.1181374842	-3.2431148012	 2.0382718623	-0.327521
C	 0.5797629185	-0.779886689	 1.15000684	-0.153559
O	 1.1658542552	-0.7634829169	-0.1620958892	-0.292747
H	 0.9800383274	 1.872390441	 0.2765216227	 0.135338
H	-0.0021009515	 1.7402959178	-1.190069575	 0.132295
H	-0.7919963717	 1.9847876966	 0.3760737634	 0.126099
H	-2.1742889025	-0.2602397611	 0.0055593829	 0.093578
H	-1.3500525601	-0.9382154339	-1.4253071943	 0.115915
H	-0.4571371201	-1.7390213983	 3.6140856801	 0.110673
H	-1.8704784094	-2.5812948733	 2.8129036985	 0.123805
H	-0.3064388434	-4.1525280171	 1.6284672887	 0.130073
H	 1.138098759	-3.3368912234	 2.3944094173	 0.120081
H	 1.169026893	-0.3462215024	 1.9533034375	 0.099801
104.5125	176.009	184.8578	226.9579	309.6384	336.2111	383.7167	411.0886	481.2835	574.0697	615.2329	741.1217	764.4529	823.9658	869.9336	886.3114	910.1573	915.9332	958.1386	980.9188	997.0561	1013.1188	1049.6899	1065.629	1074.3497	1079.8267	1134.3662	1188.539	1223.622	1237.7367	1258.0505	1286.9574	1354.6423	1396.652	1411.9642	1451.5095	1464.3018	1487.6757	1493.6613	1504.4961	1507.4195	2978.5769	3037.2594	3071.8126	3099.1148	3126.9319	3127.8571	3138.0446	3155.9129	3216.6027	3231.6485
CC12COC3(CC3)C1O2	C[C@]12COC3(CC3)[C@H]1O2	
InChI=1S/C7H10O2/c1-6-4-8-7(2-3-7)5(6)9-6/h5H,2-4H2,1H3	InChI=1S/C7H10O2/c1-6-4-8-7(2-3-7)5(6)9-6/h5H,2-4H2,1H3/t5-,6-/m0/s1
