18
gdb 72666	2.34883	1.49334	1.43187	3.0837	76.24	-0.2634	0.0083	0.2717	1040.6505	0.147285	-401.940991	-401.932557	-401.931613	-401.974062	31.704	
C	-0.1962783525	 1.554536361	 0.0752616405	-0.473468
C	 0.0038116454	 0.0655886104	 0.0548863851	 0.406077
C	-1.2085516088	-0.8971264072	 0.0184668335	-0.261599
C	-0.560954059	-1.7730084517	 1.132785775	-0.286572
C	 0.661445472	-0.8065064931	 1.202976942	 0.082466
C	 1.7471314045	-1.0902168556	 0.1424403934	-0.12028
O	 1.0332284417	-0.3556241688	-0.8698148747	-0.320193
C	 1.0695874042	-0.3015694845	 2.4877097473	 0.199138
N	 1.3876760756	 0.1176204662	 3.5185258841	-0.346526
H	 0.7460929056	 2.0732774183	 0.2713690005	 0.137158
H	-0.5743433862	 1.8863353226	-0.8983151963	 0.137134
H	-0.9221407902	 1.8418200208	 0.8417095868	 0.130171
H	-2.1483924726	-0.4322621021	 0.3258062271	 0.112725
H	-1.3447556582	-1.3740503907	-0.9535356072	 0.12
H	-1.1339721127	-1.7935703463	 2.0604351458	 0.130996
H	-0.3015696574	-2.7980473404	 0.8594013952	 0.11705
H	 2.7188515438	-0.63459184	 0.3639033571	 0.12345
H	 1.8883139548	-2.1456335289	-0.1185479154	 0.112274
78.1244	118.8133	179.7169	205.5731	257.6186	338.3999	357.7844	384.2703	530.6788	553.0628	564.4115	659.3347	685.2167	751.9728	866.7462	898.5827	916.3903	941.0439	953.2899	1002.1133	1021.8101	1068.1799	1140.0042	1163.9387	1171.0896	1194.8194	1218.6187	1237.1015	1256.5585	1289.989	1313.0719	1359.0225	1411.6698	1466.5149	1478.6737	1484.3878	1487.9011	1524.5204	2344.1744	3022.3375	3037.0518	3070.1303	3072.5683	3077.1495	3107.67	3122.0694	3125.0233	3141.6245
CC12CCC1(CO2)C#N	C[C@]12CC[C@]1(CO2)C#N	
InChI=1S/C7H9NO/c1-6-2-3-7(6,4-8)5-9-6/h2-3,5H2,1H3	InChI=1S/C7H9NO/c1-6-2-3-7(6,4-8)5-9-6/h2-3,5H2,1H3/t6-,7+/m0/s1
