17
gdb 85506	2.13841	1.67496	1.12355	4.8167	70.42	-0.2364	-0.0455	0.1909	1105.1378	0.136059	-455.175828	-455.167363	-455.166419	-455.209392	31.121	
C	-0.0781697139	 1.5401032831	-0.1678154016	-0.420517
C	-0.035249467	 0.0362146745	 0.038143132	 0.111054
O	 0.6379753535	-0.5791023823	-1.0692873307	-0.251988
C	 1.3746764219	-1.6510953265	-0.6369496623	 0.45897
N	 2.0432237576	-2.4377905133	-1.362255458	-0.583565
N	 1.2550157265	-1.7433223382	 0.747043817	-0.324569
C	 0.7418072875	-0.5020371065	 1.2747926093	-0.113559
C	 1.8283242222	 0.4206704388	 1.8202945189	 0.151558
O	 2.9944693107	 0.1277734702	 1.8505570476	-0.23851
H	 0.9285683957	 1.9585320993	-0.2544962612	 0.1416
H	-0.6203953847	 1.7669957139	-1.0890063288	 0.144146
H	-0.5973090702	 2.0310247581	 0.6612982332	 0.12727
H	-1.056328845	-0.3641749666	 0.0769348212	 0.105438
H	 1.9526091063	-2.1824000296	-2.3427105475	 0.225167
H	 2.0667853097	-2.1371617984	 1.2025177814	 0.267444
H	 0.0353027695	-0.6608410841	 2.1032684167	 0.111293
H	 1.4580088097	 1.3801465476	 2.244479873	 0.088768
74.1057	97.8391	123.3084	246.276	274.8998	287.2511	323.4562	474.076	490.2862	544.3411	654.5499	684.2899	731.2634	739.5575	796.9814	820.7373	895.113	952.8628	966.2864	1001.3259	1060.1317	1112.5089	1131.0827	1152.6223	1172.6739	1253.3626	1304.1451	1355.4152	1383.6855	1398.8453	1410.6916	1422.4112	1425.5111	1483.8416	1504.3499	1794.8012	1834.2372	2887.9715	2995.7479	3024.3703	3045.6701	3119.7927	3128.625	3531.3743	3610.4864
CC1OC(=N)NC1C=O	C[C@H]1O[C]([NH])N[C@H]1C=O	
InChI=1S/C5H8N2O2/c1-3-4(2-8)7-5(6)9-3/h2-4H,1H3,(H2,6,7)	InChI=1S/C5H8N2O2/c1-3-4(2-8)7-5(6)9-3/h2-4H,1H3,(H2,6,7)/t3-,4+/m1/s1
