17
gdb 48243	2.18008	1.37576	1.00026	1.5111	69.17	-0.2543	-0.0542	0.2001	1200.1981	0.133084	-458.949459	-458.940188	-458.939244	-458.985931	31.297	
O	-0.1884433776	 0.177925156	 0.6580008885	-0.250105
C	-0.0592375961	 1.1703273249	-0.0103793615	 0.146224
C	 1.2431474723	 1.9528098605	-0.089421166	-0.192726
C	 1.2885026889	 2.9053506985	-1.2697836488	 0.153489
O	 2.3094567179	 3.2858713437	-1.7840393235	-0.253948
C	 1.4357538839	 2.7402450952	 1.2328596873	 0.142692
C	 2.6971753412	 3.6114483339	 1.3990372914	-0.309802
C	 1.6921308797	 4.7587598194	 1.6312323968	-0.064089
O	 0.5737441715	 3.8949234565	 1.3075110569	-0.300465
H	-0.9102740987	 1.5837561216	-0.5958354796	 0.09376
H	 2.0760105777	 1.2438030538	-0.1536574425	 0.136608
H	 0.299450174	 3.2624874452	-1.6309349543	 0.099132
H	 1.2507105841	 2.0428041792	 2.0599242675	 0.104733
H	 3.3446164261	 3.3484519217	 2.2359767471	 0.117977
H	 3.2879865642	 3.7120224949	 0.4884529523	 0.145914
H	 1.6309141832	 5.122637022	 2.6634277372	 0.111882
H	 1.7538740878	 5.6127610228	 0.9493193014	 0.118722
17.856	63.9899	88.8593	114.5642	195.1086	217.5866	235.4759	371.2766	440.0298	533.2557	606.1456	707.1534	808.9733	870.6131	916.3625	945.4471	967.0021	1001.5792	1006.3045	1053.197	1088.2573	1118.4149	1132.0287	1171.3399	1209.7933	1218.7094	1241.9627	1268.9039	1300.211	1362.8248	1367.6529	1430.1387	1443.5394	1491.4054	1532.1202	1808.5221	1843.0106	2878.7227	2900.0452	3022.826	3032.1323	3066.5212	3080.672	3092.8713	3153.6445
O=CC(C=O)C1CCO1	O=CC(C=O)[C@H]1CCO1	
InChI=1S/C6H8O3/c7-3-5(4-8)6-1-2-9-6/h3-6H,1-2H2	InChI=1S/C6H8O3/c7-3-5(4-8)6-1-2-9-6/h3-6H,1-2H2/t6-/m1/s1
