20
gdb 115780	2.58975	0.99782	0.77995	1.9298	78.37	-0.2574	0.0246	0.282	1478.3913	0.170084	-440.262584	-440.252888	-440.251944	-440.298729	34.514	
O	 0.0098743853	 1.1988113487	-0.1083597503	-0.425947
C	 0.0417598198	-0.2104439656	-0.2895483349	-0.07784
C	-1.3287274052	-0.7426088704	 0.1014816651	-0.036603
C	-2.4548653258	-0.3678425294	-0.906772462	-0.223168
C	-2.3097725963	-1.7739883412	-1.5566217646	-0.259486
C	-1.5633196067	-2.2305110108	-0.2884748285	 0.131779
O	-0.4175040343	-3.0384159496	-0.5176287163	-0.187382
C	-0.1220234546	-3.9974935973	 0.3803559992	 0.119834
N	 0.9540752636	-4.6493066459	 0.2816157939	-0.445061
H	 0.8656296176	 1.5517288792	-0.3685135925	 0.287815
H	 0.2706002693	-0.4739020253	-1.3333631232	 0.09449
H	 0.8144292277	-0.6804350696	 0.3367261926	 0.099715
H	-1.5168203017	-0.4898177179	 1.1487106272	 0.075913
H	-3.4226717475	-0.2293054725	-0.4193735473	 0.103254
H	-2.2547299884	 0.4989995684	-1.537689925	 0.118304
H	-3.2159062185	-2.3190094651	-1.8290373096	 0.102576
H	-1.6336092458	-1.7652373735	-2.4146216597	 0.124286
H	-2.2310374517	-2.7290395011	 0.4243546577	 0.084128
H	-0.8996301137	-4.1314112024	 1.1463000348	 0.084837
H	 1.0051717369	-5.3461357487	 1.0217350533	 0.228556
24.4009	99.9868	108.422	112.5502	175.8445	252.786	265.2468	289.1607	396.9628	419.222	500.9617	617.2875	711.3113	793.8619	820.0024	847.9002	898.0651	925.2844	944.4798	970.1467	1035.2536	1043.09	1071.4977	1077.9367	1114.4499	1152.7363	1159.0589	1192.6165	1237.8667	1249.4648	1250.374	1258.3868	1290.2984	1295.4892	1305.3547	1359.9384	1386.7391	1429.6194	1463.345	1483.7662	1500.7439	1521.0637	1743.0111	2983.7547	3010.2652	3012.7505	3030.8758	3067.217	3071.8799	3078.9236	3121.0234	3135.9353	3518.1318	3831.4286
OCC1CCC1OC=N	OC[C@H]1CC[C@H]1O[CH][NH]	
InChI=1S/C6H11NO2/c7-4-9-6-2-1-5(6)3-8/h4-8H,1-3H2	InChI=1S/C6H11NO2/c7-4-9-6-2-1-5(6)3-8/h4-8H,1-3H2/t5-,6-/m1/s1
