16
gdb 47330	3.26758	1.19254	0.8941	5.0322	85.24	-0.2208	-0.0564	0.1644	1239.8706	0.124977	-400.755897	-400.747813	-400.746869	-400.78851	30.899	
O	-0.0686328924	-0.1002787397	 0.0469732107	-0.353226
C	-0.0355351043	 1.1177282273	 0.0315852852	 0.379179
C	-1.3177570471	 1.9518712476	-0.076232668	-0.304531
C	-1.1677866341	 3.3118641428	 0.6035918224	-0.189417
N	 0.020637621	 3.9864463875	 0.0916837151	-0.358607
C	 1.1860950263	 3.2566582011	 0.0265751526	 0.206699
C	 1.1989787019	 1.8902887755	 0.0390708322	-0.298092
C	 2.3895039809	 4.015160157	-0.0726725191	 0.248282
C	 3.389497542	 4.680293489	-0.1499117241	-0.38765
H	-1.5288878267	 2.0929402246	-1.144745541	 0.130273
H	-2.1465501586	 1.3853952242	 0.3533635491	 0.126004
H	-2.0377558466	 3.9467019192	 0.4152032969	 0.117003
H	-1.0841451558	 3.1682735498	 1.6938336402	 0.113563
H	 0.1337627132	 4.9574562658	 0.3377610481	 0.252712
H	 2.1392734612	 1.3587579673	-0.0145799731	 0.107811
H	 4.2831103993	 5.2505359109	-0.2215606072	 0.209998
119.1611	134.5349	145.873	240.9245	342.1884	411.1056	425.4143	468.7205	530.0249	563.7191	564.7322	624.3599	659.4936	666.846	697.8007	781.9948	847.9345	898.9221	929.6448	1017.8662	1062.1242	1115.1929	1167.7995	1194.5337	1246.2712	1258.4128	1344.8985	1365.8375	1386.6407	1456.2267	1493.9409	1531.4378	1620.3902	1757.2076	2231.3336	2968.0166	3031.0209	3086.4916	3117.0774	3228.7486	3498.4452	3625.2834
O=C1CCNC(=C1)C#C	O=C1CCNC(=C1)C#C	
InChI=1S/C7H7NO/c1-2-6-5-7(9)3-4-8-6/h1,5,8H,3-4H2	InChI=1S/C7H7NO/c1-2-6-5-7(9)3-4-8-6/h1,5,8H,3-4H2
