16
gdb 20580	3.28754	1.99795	1.26428	3.3774	68.07	-0.2243	0.0134	0.2376	945.0132	0.130169	-379.935462	-379.927087	-379.926142	-379.968328	30.016	
C	 0.0840880554	 1.4982994248	-0.0269540806	-0.493979
C	-0.0607396501	 0.0176545443	-0.0547215975	 0.3692
C	-1.1327180419	-0.8173818735	 0.032703283	 0.021618
C	-2.5853484373	-0.5114026923	 0.2054002245	-0.525009
C	-0.5322744814	-2.115649037	-0.0591521898	 0.345482
N	-1.194839585	-3.328914868	 0.0581991975	-0.587938
N	 0.7722180957	-2.0586506148	-0.1986524482	-0.237984
O	 1.0767313729	-0.6897560863	-0.1850801935	-0.227616
H	 0.7675070047	 1.8073733954	 0.7705750813	 0.149765
H	 0.4919649071	 1.8718818232	-0.97234469	 0.148015
H	-0.8831382024	 1.9758729131	 0.1419543218	 0.135006
H	-3.1774356262	-0.8164456366	-0.6672619558	 0.124796
H	-3.0010719118	-1.0330742324	 1.075211081	 0.139245
H	-2.7535220027	 0.559089851	 0.3493890372	 0.129784
H	-2.0875989512	-3.3559007418	-0.4148952579	 0.251109
H	-0.6143361357	-4.1135774691	-0.2088738228	 0.258507
72.8251	116.0424	159.073	237.8101	253.0495	274.4043	323.8761	376.2743	491.5586	581.4698	618.0527	672.0995	696.4663	759.9323	790.6593	935.6285	953.7147	1016.754	1058.5034	1069.2985	1145.336	1146.8101	1234.8637	1316.7837	1410.2906	1423.7828	1471.7671	1481.6489	1483.7473	1486.5544	1511.9722	1561.3447	1644.4329	1701.308	3017.9039	3040.6645	3067.2743	3096.4916	3111.3798	3133.3686	3547.283	3645.1658
CC1=C(C)C(N)=NO1	Cc1c(C)c(N)no1	
InChI=1S/C5H8N2O/c1-3-4(2)8-7-5(3)6/h1-2H3,(H2,6,7)	InChI=1S/C5H8N2O/c1-3-4(2)8-7-5(3)6/h1-2H3,(H2,6,7)
