18
gdb 81171	2.53845	1.49552	1.33002	2.6076	72.2	-0.2496	-0.0361	0.2134	1035.3178	0.148362	-439.062421	-439.054395	-439.053451	-439.095036	30.878	
O	 0.073243722	 1.4199409311	-0.2543827731	-0.427344
C	-0.0452212834	 0.0493379022	-0.0503508031	 0.123311
C	 0.1333024817	-0.636612888	 1.3328303363	-0.055768
C	-0.8873587441	 0.0888509214	 2.226154592	-0.226225
C	-2.1070003236	 0.0695436937	 1.246389473	-0.256837
C	-1.4439056724	-0.6805714858	 0.0807251638	 0.18995
N	-0.715680664	-1.7783967886	 0.8207655697	-0.353703
C	-2.2411599292	-1.0197549231	-1.1334752896	 0.046936
O	-3.2660162579	-0.4672144375	-1.4476024877	-0.245446
H	-0.45107803	 1.8873974569	 0.4041980888	 0.293184
H	 0.5681196582	-0.4359677632	-0.8145830427	 0.094982
H	 1.1108445306	-0.8745197246	 1.7526516461	 0.07617
H	-1.0802524869	-0.469608061	 3.1431271235	 0.120442
H	-0.5596589459	 1.09573422	 2.5039634753	 0.096399
H	-2.958279325	-0.4872042173	 1.6391149174	 0.124597
H	-2.4607604833	 1.059449858	 0.9473258096	 0.110861
H	-0.1580179578	-2.3012365569	 0.1417081567	 0.218886
H	-1.797414759	-1.8183150276	-1.7734395861	 0.069606
72.2965	178.3557	212.4019	252.2812	265.3283	275.3655	430.5156	452.579	509.6442	582.3948	673.9486	778.4273	788.103	822.1096	834.8078	864.7909	901.1934	946.4889	979.9223	990.3985	1036.076	1077.0582	1123.9385	1127.3932	1158.0435	1166.4285	1189.909	1228.4094	1263.2987	1269.0531	1273.1397	1311.0147	1334.3661	1378.0778	1428.8107	1437.4885	1487.8521	1507.2429	1816.5539	2856.7232	3055.9809	3078.1522	3083.7385	3116.1822	3121.1432	3135.1982	3430.9461	3819.8651
OC1C2CCC1(N2)C=O	O[C@H]1[C@H]2CC[C@@]1(N2)C=O	
InChI=1S/C6H9NO2/c8-3-6-2-1-4(7-6)5(6)9/h3-5,7,9H,1-2H2	InChI=1S/C6H9NO2/c8-3-6-2-1-4(7-6)5(6)9/h3-5,7,9H,1-2H2/t4-,5+,6-/m1/s1
