18
gdb 79756	2.46258	1.76394	1.38299	3.5735	70.51	-0.2202	0.0562	0.2763	984.3223	0.14782	-439.022673	-439.014705	-439.013761	-439.054583	31.742	
O	 0.178351398	 1.3716761955	 0.1337729708	-0.403005
C	 0.0276523825	-0.008641288	-0.0358362103	 0.00123
C	-1.3319013642	-0.7056482585	-0.0392678347	-0.084542
N	-2.630097993	-0.0886597552	-0.2529167358	-0.1082
C	-2.7030230656	 1.3776853551	-0.4197019186	-0.255012
C	-2.6239779865	 0.4972545653	-1.6129874585	-0.013665
C	-1.2789169045	 0.2207492149	-2.2875275359	-0.32489
C	-0.4894363068	-0.6531671574	-1.2964412803	 0.305715
O	 0.12613414	-1.8092593172	-1.7842616602	-0.454333
H	 0.9567728063	 1.650313832	-0.3606575486	 0.289515
H	 0.78415868	-0.6049331993	 0.4788872319	 0.09365
H	-1.3773990286	-1.6142641471	 0.5515011053	 0.108896
H	-3.668115667	 1.7932554975	-0.1407201039	 0.107798
H	-1.8437730755	 1.9763391702	-0.1545913258	 0.151071
H	-3.5195147813	 0.3274343844	-2.205535524	 0.090556
H	-1.4193287037	-0.3648595203	-3.1995589219	 0.118279
H	-0.7503854078	 1.1415066395	-2.5588181071	 0.097501
H	 0.9901145578	-1.5698022713	-2.1370069225	 0.279436
150.1503	204.3324	237.0894	265.879	267.3459	310.0471	375.1824	404.2698	512.3347	577.0162	656.4064	667.2931	712.785	783.2504	804.8791	858.416	878.7006	923.425	943.9113	984.4274	1054.6426	1082.3066	1096.3436	1121.264	1127.1583	1133.0833	1176.019	1189.5268	1227.907	1276.2498	1281.1069	1288.9277	1300.3672	1329.3955	1357.6904	1386.1048	1458.82	1481.0965	1507.5612	3043.0641	3079.2616	3100.5491	3120.2928	3136.1354	3168.3907	3254.2481	3792.5989	3798.2814
OC1C2N3CC3CC12O	O[C@H]1[C@H]2N3C[C@H]3C[C@@]12O	
InChI=1S/C6H9NO2/c8-5-4-6(5,9)1-3-2-7(3)4/h3-5,8-9H,1-2H2	InChI=1S/C6H9NO2/c8-5-4-6(5,9)1-3-2-7(3)4/h3-5,8-9H,1-2H2/t3-,4-,5+,6+,7?/m1/s1
