19
gdb 87638	2.53443	1.27336	1.09935	2.4696	76.69	-0.2439	-0.0283	0.2156	1195.0959	0.156868	-423.016334	-423.006996	-423.006052	-423.05058	34.541	
C	-0.1269872758	 1.4163453452	-0.099125056	-0.410096
C	 0.0570677236	-0.079975991	 0.0137445831	-0.040799
C	 1.4278107926	-0.704837319	-0.1464234164	-0.367049
C	 0.7519258652	-0.7094659021	 1.1893067964	 0.277257
C	 1.1364176947	-0.0173239862	 2.5093101543	-0.425332
C	 0.1759974524	-1.0172274176	 3.184307073	 0.338776
O	-0.5299994095	-0.9726231924	 4.1507609443	-0.297024
C	 0.1799395986	-1.9374459266	 1.9475389146	-0.01056
O	-1.0049003006	-2.5587915679	 1.5486372375	-0.420652
H	 0.7412422261	 1.9565908236	 0.2924837098	 0.116615
H	-0.25545763	 1.7152368985	-1.1449423716	 0.123982
H	-1.0091293518	 1.7581404841	 0.4541541303	 0.118881
H	-0.7659326429	-0.6742736063	-0.3772694402	 0.096409
H	 1.5123148592	-1.6463847663	-0.6806649063	 0.118002
H	 2.2707814131	-0.0334926097	-0.284543907	 0.111618
H	 2.1805516124	-0.1693896769	 2.8033107795	 0.129992
H	 0.8786517379	 1.0361623809	 2.6414010957	 0.133131
H	 0.9478924413	-2.7169863529	 2.0414413028	 0.113198
H	-1.7427910263	-2.0432288675	 1.8940968964	 0.293651
60.1047	132.6695	139.2572	188.0941	193.0247	243.1599	273.1783	378.6093	398.5414	443.0272	532.9264	537.7371	624.599	745.6549	756.07	790.2021	869.3442	888.8784	898.4978	992.5692	1005.6888	1051.4526	1069.0693	1089.9067	1104.4659	1125.3183	1152.376	1163.9162	1183.7534	1214.8589	1246.6892	1305.8059	1330.4118	1408.4314	1416.5301	1429.5734	1450.9244	1489.5965	1492.2558	1506.3273	1882.3613	3025.3505	3027.5854	3051.6419	3089.4932	3096.1819	3112.055	3115.2629	3135.6532	3200.1073	3798.1042
CC1CC11CC(=O)C1O	C[C@H]1C[C@]21CC(=O)[C@H]2O	
InChI=1S/C7H10O2/c1-4-2-7(4)3-5(8)6(7)9/h4,6,9H,2-3H2,1H3	InChI=1S/C7H10O2/c1-4-2-7(4)3-5(8)6(7)9/h4,6,9H,2-3H2,1H3/t4-,6+,7+/m0/s1
