19
gdb 38527	3.28279	1.63586	1.32108	1.65	80.39	-0.2316	0.0152	0.2468	1003.0058	0.162312	-385.887833	-385.88094	-385.879996	-385.918997	28.286	
C	-0.0009857149	 1.4850015966	 0.0216913402	-0.286508
C	 1.3289225719	 0.7764133358	 0.0316245796	-0.032708
C	 1.9966765644	 0.5537801937	 1.4005558788	-0.336688
C	 0.8602644722	-0.0093207446	 2.1967693986	 0.293471
C	 0.2772299336	 0.1876509486	 3.3718929575	-0.262609
C	-1.0975822352	-0.4442727119	 3.3420825769	-0.112688
O	-1.3337233927	-0.7664182755	 1.9681371526	-0.282795
C	-0.0836518464	-0.7653809199	 1.2883411491	 0.086838
C	 0.0253166008	-0.0202823803	-0.0322838899	-0.064579
H	-0.3485770524	 1.9619535126	 0.9326263996	 0.118484
H	-0.2801647311	 2.0033894904	-0.8886226264	 0.110104
H	 1.9670323029	 0.8639512916	-0.8404503223	 0.08353
H	 2.8159266893	-0.1699036227	 1.2953090166	 0.112016
H	 2.4181970375	 1.4659025714	 1.8348841307	 0.111438
H	 0.6545859298	 0.7477841344	 4.2183719542	 0.101753
H	-1.1604419934	-1.3518244909	 3.9672547892	 0.098737
H	-1.8826115613	 0.242001338	 3.6872586814	 0.109216
H	 0.2441962928	-1.8083201209	 1.1265825557	 0.069968
H	-0.2751185881	-0.5193503462	-0.9459084221	 0.08302
118.9133	185.8725	264.7821	357.2491	375.3682	479.4402	576.9362	649.892	674.0229	773.1851	784.9835	816.7342	829.5917	870.5915	888.8905	928.4261	936.1384	971.6615	1012.6478	1033.6915	1041.6223	1045.8763	1074.9577	1081.9852	1105.4353	1121.2734	1174.585	1185.6848	1198.6151	1201.7145	1263.6339	1290.7648	1312.815	1340.8879	1355.7959	1377.9172	1394.2617	1480.2538	1487.9723	1518.164	1748.3321	2931.2733	2953.3753	3018.6113	3023.1832	3074.9955	3132.7728	3170.2963	3181.0384	3211.7662	3218.0166
C1C2CC3=CCOC3C12	C1[C@H]2CC3=CCO[C@H]3[C@@H]12	
InChI=1S/C8H10O/c1-2-9-8-5(1)3-6-4-7(6)8/h1,6-8H,2-4H2	InChI=1S/C8H10O/c1-2-9-8-5(1)3-6-4-7(6)8/h1,6-8H,2-4H2/t6-,7+,8-/m1/s1
