20
gdb 14227	4.59359	1.68175	1.48387	0.2662	78.94	-0.2381	0.0977	0.3357	943.4843	0.177533	-311.829377	-311.821918	-311.820973	-311.860398	30.025	
C	-0.1303081894	 1.4588789055	 0.0204049152	-0.407169
C	 0.0434120282	-0.0548152527	 0.0390734113	 0.022061
C	 0.8451220292	-0.6028787637	-1.1436508795	-0.099801
C	 2.1475865871	-0.5175967525	-0.376881452	-0.12377
C	 1.2326779289	-0.5492974986	 0.9160087638	-0.061701
C	 1.1823440446	-2.0939310438	 0.7830332292	-0.289041
C	 1.5688979278	-1.8815135159	-0.6829273223	 0.339956
C	 2.0608402301	-2.9144482315	-1.652484508	-0.504807
H	 0.8252882194	 1.961398997	-0.1661863592	 0.114239
H	-0.8293150523	 1.7693015372	-0.764212944	 0.109345
H	-0.5227597789	 1.8210646227	 0.9772414178	 0.108238
H	-0.9194294364	-0.5410550666	 0.2486308047	 0.054438
H	 0.6867626363	-0.4118300636	-2.1990795956	 0.073791
H	 3.1027288535	-0.0703499362	-0.6125555943	 0.08156
H	 1.448091177	-0.0721124204	 1.8710634179	 0.062694
H	 1.9948587568	-2.5802325806	 1.3325997577	 0.089998
H	 0.2323318375	-2.5907846597	 1.0189160623	 0.08083
H	 1.2682212925	-3.6246433974	-1.9174425944	 0.117716
H	 2.4118317431	-2.4509379561	-2.5810576863	 0.11605
H	 2.894731255	-3.4890965332	-1.2328479244	 0.115373
181.8015	209.2561	221.4957	244.5865	297.9282	331.6478	436.9517	476.9759	610.7842	749.334	761.6734	794.0948	821.6133	860.6089	891.7793	911.6373	921.7478	952.8144	998.9037	1012.9174	1022.5644	1055.123	1081.0171	1093.7982	1118.4724	1144.2349	1158.2753	1180.0532	1195.3931	1237.7979	1260.5091	1284.9995	1302.4974	1374.8549	1405.6503	1410.2958	1426.8542	1486.5277	1494.8238	1498.25	1499.0177	1503.9581	3002.8471	3015.8592	3019.8087	3024.0838	3076.7178	3078.7016	3088.5483	3089.0045	3095.0154	3123.0506	3175.6579	3215.2546
CC1C2C3C1CC23C	C[C@H]1[C@H]2[C@H]3[C@@H]1C[C@@]23C	
InChI=1S/C8H12/c1-4-5-3-8(2)6(4)7(5)8/h4-7H,3H2,1-2H3	InChI=1S/C8H12/c1-4-5-3-8(2)6(4)7(5)8/h4-7H,3H2,1-2H3/t4-,5-,6+,7-,8+/m1/s1
