19
gdb 17460	4.13273	1.92105	1.6472	1.4873	73.84	-0.2174	0.0804	0.2977	858.7996	0.167301	-327.892925	-327.88598	-327.885035	-327.923501	28.341	
C	-0.0688227781	 1.5082564066	 0.0332997946	-0.482124
C	 0.0095860281	-0.0007083772	-0.003103372	 0.357551
C	-0.8295483165	-0.8150666308	 0.9495471723	-0.346753
C	 0.6768335866	-0.8235615598	 1.0855860661	-0.079382
C	 1.4944819627	-1.8949823283	 0.4034458886	-0.024508
C	 0.8348174707	-2.9528591186	-0.4044047607	-0.253122
N	 1.3778186296	-1.7595930072	-1.0670653234	-0.094228
C	 0.413965189	-0.6649666672	-1.3308130269	-0.245537
H	 0.8661512104	 1.9649073967	-0.3116692628	 0.118738
H	-0.8765665944	 1.8820380896	-0.6074179081	 0.118945
H	-0.2649227443	 1.8680085612	 1.0484075757	 0.11458
H	-1.3800133876	-0.2637313398	 1.7064957633	 0.106868
H	-1.3486191773	-1.7006926446	 0.6019064816	 0.110444
H	 1.1159212941	-0.3479808591	 1.9556798776	 0.08328
H	 2.4938740431	-2.0647890521	 0.79562806	 0.087121
H	 1.3668609089	-3.8732883655	-0.6337684074	 0.110564
H	-0.2418723631	-3.0771337457	-0.3317046283	 0.108305
H	-0.4436322876	-1.04023591	-1.9019314082	 0.102992
H	 0.9219169856	 0.0743625517	-1.959983672	 0.106267
171.2455	204.1702	247.7777	323.6042	358.2862	435.0864	500.5389	582.0832	667.5839	725.3825	755.5964	811.0668	846.0235	863.2192	918.4895	951.1949	959.7109	986.5953	1006.8918	1044.5845	1062.7611	1064.3087	1094.2511	1115.2623	1122.3197	1133.2776	1158.3757	1228.6734	1262.0519	1274.984	1299.9878	1333.8831	1377.7314	1405.267	1419.4673	1486.7349	1489.0151	1497.5332	1503.5009	1525.6891	3019.8324	3029.7332	3064.9248	3078.9668	3097.5961	3103.0125	3127.0635	3135.7454	3171.5386	3182.9356	3211.0898
CC12CC1C1CN1C2	C[C@]12C[C@H]1[C@H]1CN1C2	
InChI=1S/C7H11N/c1-7-2-5(7)6-3-8(6)4-7/h5-6H,2-4H2,1H3	InChI=1S/C7H11N/c1-7-2-5(7)6-3-8(6)4-7/h5-6H,2-4H2,1H3/t5-,6+,7+,8?/m0/s1
