16
gdb 43148	2.43298	2.12666	1.70668	3.9943	66.84	-0.2294	-0.0177	0.2117	854.8537	0.126954	-437.860035	-437.853598	-437.852654	-437.89063	26.278	
O	 0.0006575167	 0.0466070845	 0.1066540556	-0.322308
C	-0.0153334738	 1.2329598071	-0.0178152591	 0.439981
C	-1.1717128755	 2.2547121141	-0.0006691131	-0.17985
C	-0.6885018216	 3.0669651829	 1.2219267052	-0.079576
O	 0.7656728572	 3.0382535355	 1.1356650063	-0.291193
C	 1.1088329123	 2.288910887	-0.04433871	-0.002805
C	 0.6961436779	 3.1237422328	-1.2504937355	-0.054541
N	-0.0546651357	 2.335061656	-2.2520655165	-0.344911
C	-0.7951717333	 3.0928899705	-1.2236437017	-0.033871
H	-2.1789011253	 1.8483727736	 0.0579898059	 0.096362
H	-1.0267717813	 4.1094773834	 1.2050432729	 0.106367
H	-0.9982052671	 2.6075488845	 2.1671475694	 0.119586
H	 2.1350219807	 1.9377704667	 0.0339198954	 0.098931
H	 1.2560547886	 4.004934892	-1.5404992365	 0.105127
H	-0.0771285544	 2.8349544146	-3.1365880793	 0.240944
H	-1.3913005756	 3.9544937648	-1.5035397192	 0.101756
166.4526	236.9735	293.8932	343.8308	463.1023	500.4814	581.3609	626.6309	742.835	796.8992	823.6822	853.7994	861.0106	879.9275	907.1694	928.2586	960.7181	970.3579	1029.0802	1047.9891	1066.0491	1099.2511	1122.9544	1141.814	1178.5916	1204.0252	1222.5024	1251.8855	1279.6282	1302.5763	1347.5112	1372.8027	1410.2158	1521.5974	1911.8677	3025.2494	3069.11	3148.6621	3156.1318	3171.6241	3187.6607	3520.1011
O=C1C2COC1C1NC21	O=C1[C@H]2CO[C@@H]1[C@H]1N[C@@H]21	
InChI=1S/C6H7NO2/c8-5-2-1-9-6(5)4-3(2)7-4/h2-4,6-7H,1H2	InChI=1S/C6H7NO2/c8-5-2-1-9-6(5)4-3(2)7-4/h2-4,6-7H,1H2/t2-,3-,4-,6+/m0/s1
