21
gdb 94087	3.80244	1.02597	0.88084	3.8057	82.16	-0.2235	0.0315	0.255	1357.4034	0.184805	-420.435248	-420.426586	-420.425642	-420.4687	32.874	
C	 0.1021806897	 1.4736934235	 0.0181778813	-0.316876
N	 0.0399420349	 0.0222461598	-0.0004881772	-0.065413
C	 0.6068161374	-0.5340708955	-1.2238536014	-0.132344
C	 0.4003167878	-2.0507276529	-1.2601365565	-0.185949
N	 0.9331280099	-2.6593287572	-0.0562636662	-0.040937
C	 0.4627306826	-2.0839193986	 1.1951726296	-0.182698
C	 0.6629696996	-0.5681140576	 1.1817494066	-0.143162
C	 1.8480532935	-3.667042834	-0.0736316548	 0.148082
O	 2.3366003075	-4.1948963724	 0.9039056752	-0.344018
H	 1.136757199	 1.8666177029	 0.0019397822	 0.095412
H	-0.4260859666	 1.8785415701	-0.8509372262	 0.11837
H	-0.3875749795	 1.8525877986	 0.9207568643	 0.120297
H	 0.1055622125	-0.0779382493	-2.084552841	 0.103249
H	 1.6898874597	-0.3138714514	-1.3130870017	 0.081567
H	-0.6750871859	-2.2625115516	-1.3411547342	 0.112889
H	 0.9008726404	-2.4847818267	-2.130711075	 0.114324
H	-0.604938688	-2.3085380218	 1.321932111	 0.110805
H	 1.0222788018	-2.5555469821	 2.0040484525	 0.145985
H	 1.7474055366	-0.3447058972	 1.226305267	 0.08723
H	 0.2015267772	-0.1335878697	 2.0749197029	 0.104485
H	 2.1070606699	-3.962309217	-1.1104452783	 0.068703
54.5005	168.081	190.457	244.0072	282.9095	318.0312	329.3455	363.0347	393.8972	428.1384	496.6924	593.5602	671.6644	783.9986	835.8561	859.2447	950.5485	1014.1256	1027.8569	1029.6047	1080.8153	1088.6934	1100.5459	1159.6641	1173.5824	1197.6395	1227.1063	1229.1073	1289.0063	1316.833	1325.5664	1363.8768	1390.7837	1401.8002	1413.4378	1434.2252	1461.4668	1463.9882	1481.0508	1485.5558	1486.8322	1490.519	1507.6663	1508.4356	1792.2726	2900.8811	2911.045	2927.7702	2930.1436	3007.5586	3017.9601	3059.318	3063.2351	3067.8739	3089.7453	3104.1946	3134.0834
CN1CCN(CC1)C=O	CN1CCN(CC1)C=O	
InChI=1S/C6H12N2O/c1-7-2-4-8(6-9)5-3-7/h6H,2-5H2,1H3	InChI=1S/C6H12N2O/c1-7-2-4-8(6-9)5-3-7/h6H,2-5H2,1H3
