16
gdb 13830	4.60448	1.46729	1.13503	4.0785	70.47	-0.1977	-0.0045	0.1933	1011.1558	0.132784	-379.967039	-379.959375	-379.958431	-379.99911	28.501	
N	-0.0196695493	 1.3592297449	 0.1696026112	-0.546538
C	 0.0522655486	-0.0207209851	 0.1252336549	 0.290371
O	 1.1252063459	-0.6023914611	 0.2068692262	-0.385497
C	-1.236060796	-0.7120631443	 0.0291290454	 0.176611
C	-1.3468799079	-2.0512142448	-0.0764408289	-0.060878
N	-2.6461704695	-2.4823598192	-0.2401255479	-0.295279
C	-3.5382442136	-1.3609949525	 0.1129967511	-0.162901
C	-2.6325481462	-0.1125495746	-0.0606222235	-0.346572
H	 0.8615615341	 1.8380755094	 0.0674010572	 0.2517
H	-0.8328538311	 1.8345410412	-0.1853999056	 0.248044
H	-0.5273865171	-2.7573552959	-0.0878648004	 0.143785
H	-2.8888034427	-3.3993941721	 0.1046890204	 0.243991
H	-4.4223216518	-1.3448138739	-0.5292382889	 0.114152
H	-3.8736511148	-1.4489542196	 1.1560200673	 0.107822
H	-2.8405810075	 0.6438893863	 0.7026693643	 0.11341
H	-2.8061788514	 0.3583587914	-1.0394216728	 0.107779
87.4183	135.5754	185.46	224.9392	348.4196	393.044	473.7377	493.7462	533.8952	542.3097	644.8656	755.3055	764.7357	858.6774	895.891	944.5817	958.3823	1003.41	1073.1098	1084.7057	1130.1171	1159.9317	1200.2345	1242.8355	1281.1862	1321.9206	1341.1652	1394.3779	1461.5119	1498.6517	1520.9897	1616.2823	1667.3228	1757.3149	2991.4511	3001.1501	3065.763	3089.5697	3237.521	3585.7657	3605.1218	3713.1324
NC(=O)C1=CNCC1	NC(=O)C1=CNCC1	
InChI=1S/C5H8N2O/c6-5(8)4-1-2-7-3-4/h3,7H,1-2H2,(H2,6,8)	InChI=1S/C5H8N2O/c6-5(8)4-1-2-7-3-4/h3,7H,1-2H2,(H2,6,8)
