12
gdb 130540	3.62333	1.28718	0.94978	0.5318	71.41	-0.283	-0.0973	0.1857	1120.8611	0.076655	-435.451145	-435.443667	-435.442723	-435.483845	26.649	
O	 0.0165393835	-0.0600500446	 0.0041041769	-0.287442
C	-0.0317436468	 1.1546573659	 0.0078089615	 0.135402
C	 1.153662776	 1.9848884915	 0.0015566962	 0.29036
C	 2.1515243735	 2.656614202	-0.0037573785	-0.40833
C	-1.3326424245	 1.8542371708	 0.0190470734	 0.352609
C	-2.6056225949	 1.3626458306	 0.0267637925	-0.3043
C	-3.4032694175	 2.5309962449	 0.0358760422	 0.022283
N	-2.6746750434	 3.6258314792	 0.0334397735	-0.117105
O	-1.361211981	 3.2015031685	 0.0228967322	-0.207927
H	 3.0345092206	 3.2491594521	-0.0083090198	 0.223391
H	-2.9043556439	 0.3286502452	 0.0260311526	 0.153613
H	-4.4801606014	 2.6196071139	 0.0439061973	 0.147446
67.4586	114.2567	178.0407	235.2829	269.9329	437.8866	490.4236	622.9749	648.913	664.1255	674.2579	713.8606	789.88	858.2616	930.0207	934.4282	958.0751	961.4434	1041.3788	1096.5782	1228.2114	1268.9099	1369.1859	1482.9482	1613.7752	1734.7958	2221.1868	3251.9209	3296.6362	3492.4839
O=C(C#C)C1=CC=NO1	O=C(C#C)c1ccno1	
InChI=1S/C6H3NO2/c1-2-5(8)6-3-4-7-9-6/h1,3-4H	InChI=1S/C6H3NO2/c1-2-5(8)6-3-4-7-9-6/h1,3-4H
