17
gdb 54943	2.58889	1.81036	1.32198	2.5968	67.77	-0.2441	0.0154	0.2595	973.3285	0.138653	-455.146891	-455.13953	-455.138586	-455.178575	29.052	
O	 0.7987529342	 0.8229216466	 0.2132197641	-0.343211
C	-0.0596587591	 1.4347990423	 0.7881205068	 0.419455
O	 0.0687158189	 1.7599929223	 2.0965048947	-0.280883
C	-1.3507948699	 1.9246928474	 0.1548878593	-0.148714
C	-2.499412095	 1.617021915	 1.1464639094	-0.189072
N	-2.1162182564	 2.8554838526	 1.9105142399	-0.102426
C	-1.5575465274	 3.3882572157	 0.6120162248	-0.200969
C	-1.0411768376	 2.5156171102	 2.7986935038	 0.15072
N	-0.5062966545	 3.6485323257	 3.4653301753	-0.493793
H	 0.2951137283	 3.373469508	 4.0229318498	 0.249534
H	-0.1942695939	 4.3556160347	 2.8075940087	 0.236994
H	-1.4036845402	 1.6370111966	-0.8940185452	 0.098458
H	-3.4926288684	 1.7457655152	 0.7092148006	 0.121748
H	-2.4633738763	 0.6862091581	 1.7185758501	 0.126379
H	-0.6814010508	 4.0361969821	 0.6923640114	 0.117387
H	-2.3465445234	 3.908113854	 0.0637681668	 0.12403
H	-1.4009003385	 1.7953166934	 3.5378213298	 0.114364
112.9485	184.029	221.4045	318.5855	360.6094	418.3622	451.989	489.0372	536.3066	673.7609	714.1209	760.9966	812.0805	834.9191	864.152	883.9518	911.7232	946.5515	966.2339	1026.7195	1035.3734	1084.2796	1120.0244	1186.7527	1212.0904	1220.3648	1265.5272	1269.5724	1285.6089	1316.0869	1331.4769	1369.243	1451.9058	1496.1732	1526.1928	1662.8235	1848.5225	3057.9526	3064.2292	3086.7524	3116.5702	3119.2668	3132.6784	3515.9092	3597.7236
[O-]C(=O)C1CN(C1)C=[NH2+]	O=C1O[C@H](N2C[C@H]1C2)N	
InChI=1S/C5H8N2O2/c6-3-7-1-4(2-7)5(8)9/h3-4,6H,1-2H2,(H,8,9)	InChI=1S/C5H8N2O2/c6-5-7-1-3(2-7)4(8)9-5/h3,5H,1-2,6H2/t5-/m0/s1
