25
gdb 81002	2.36653	1.45727	1.19708	0.0676	92.41	-0.273	0.0872	0.3602	1225.4351	0.229731	-352.363746	-352.35446	-352.353516	-352.396754	37.477	
C	-0.1510639333	 1.5695883019	-0.0042426334	-0.437428
C	-0.0115700034	 0.0516908119	 0.0296692642	 0.016818
C	 1.0879921969	-0.5900037374	-0.8766646041	-0.02858
C	 2.095581821	-0.2846366228	 0.2665381384	-0.283311
C	 0.8598026789	-0.5842124658	 1.1722394708	 0.35593
C	 0.7747257725	-0.1306482316	 2.6115377673	-0.502881
C	 0.6440715615	-2.0879685347	 0.8830700774	-0.271243
C	 0.8557670462	-2.10559092	-0.6719874565	 0.046897
C	-0.2827998146	-2.7219959006	-1.4828250106	-0.418616
H	 0.8052651685	 2.094448187	 0.0712604229	 0.115361
H	-0.6248380678	 1.8881422159	-0.9394971154	 0.112925
H	-0.7847500409	 1.9209592705	 0.817922346	 0.113495
H	-1.0110589731	-0.3882714327	-0.0682259125	 0.052964
H	 1.2560316421	-0.2464836338	-1.8996396655	 0.047428
H	 2.9669891477	-0.9412350945	 0.3627454423	 0.080718
H	 2.4195878276	 0.7559645539	 0.3064024363	 0.091987
H	 0.9253365441	 0.9501123826	 2.7055999808	 0.111967
H	-0.2035928729	-0.3700454293	 3.0457289783	 0.111201
H	 1.5358081843	-0.6259761076	 3.2260086833	 0.112584
H	 1.3619383066	-2.7197484373	 1.416508528	 0.086922
H	-0.3626335208	-2.415308993	 1.1674784183	 0.087325
H	 1.7778657583	-2.6459653175	-0.9170100213	 0.062861
H	-1.23665679	-2.2151178563	-1.3030278935	 0.114522
H	-0.0749502867	-2.6685448034	-2.557441587	 0.108767
H	-0.4198062227	-3.7777848953	-1.2242061545	 0.111386
168.7394	183.936	196.626	209.3903	217.1268	226.7026	299.102	349.4843	373.5821	434.6443	477.715	531.8664	595.7367	651.8851	769.7052	811.6298	822.2525	847.9299	900.3138	923.3871	926.522	945.9701	996.092	1018.6578	1036.0528	1051.8253	1061.0044	1083.8213	1104.7841	1129.8423	1161.5905	1181.979	1193.0157	1227.3123	1235.505	1253.2029	1261.5745	1276.7133	1316.5018	1339.793	1380.1674	1393.3054	1408.7748	1413.0868	1414.8795	1486.2995	1490.447	1494.3456	1498.1276	1498.5525	1500.2981	1502.1433	1517.4167	3018.7738	3022.4895	3023.2096	3027.2807	3030.5174	3034.7233	3047.4779	3075.3043	3080.5425	3085.3559	3088.8783	3089.81	3091.315	3098.3401	3106.4795	3128.405
CC1C2CC1(C)CC2C	C[C@H]1[C@H]2C[C@]1(C)C[C@H]2C	
InChI=1S/C9H16/c1-6-4-9(3)5-8(6)7(9)2/h6-8H,4-5H2,1-3H3	InChI=1S/C9H16/c1-6-4-9(3)5-8(6)7(9)2/h6-8H,4-5H2,1-3H3/t6-,7+,8+,9+/m1/s1
