23
gdb 70520	2.33949	1.62271	1.18755	0.2074	90.05	-0.2317	0.0273	0.259	1158.7876	0.207892	-351.160873	-351.152408	-351.151464	-351.193241	34.602	
C	-0.2740224439	 1.4755738818	-0.0362523569	-0.466886
C	-0.0822613883	-0.0302424927	-0.0195752427	 0.389851
C	-0.7848970144	-0.8059685316	 1.0742409969	-0.367865
C	 0.7171135787	-0.6271099483	 1.1129848171	-0.021683
C	 1.655633991	-1.7982175904	 0.8574905955	-0.292712
C	 2.7684271194	-1.5023419802	-0.129994281	-0.060517
C	 2.6637530125	-0.9146993493	-1.3237978689	-0.023699
C	 1.4429869756	-0.392072676	-2.0412901938	-0.245973
C	 0.0786171492	-0.6750525098	-1.3886099893	-0.286031
H	 0.5691321796	 1.9892508136	-0.5120740356	 0.116548
H	-1.183477321	 1.7510747419	-0.5842269449	 0.110513
H	-0.3659945795	 1.872486394	 0.9795687614	 0.110928
H	-1.3931059204	-0.2552457454	 1.7846856338	 0.103093
H	-1.1677549923	-1.7945986196	 0.8383064237	 0.102315
H	 1.0948656288	 0.0874673057	 1.8403438471	 0.076462
H	 2.0972159101	-2.113426905	 1.8095537922	 0.097251
H	 1.0802021115	-2.6670011547	 0.5127859182	 0.108647
H	 3.7618675011	-1.8250371736	 0.175687681	 0.079714
H	 3.5855815922	-0.7879565964	-1.8914044832	 0.078838
H	 1.5649215531	 0.6906404187	-2.1938834942	 0.106553
H	 1.4428749634	-0.8120873137	-3.0575070678	 0.0996
H	-0.0606348526	-1.7585457013	-1.3139909685	 0.096958
H	-0.7149614535	-0.3154397977	-2.0567504202	 0.088096
118.3069	193.5832	208.0331	241.401	319.5906	355.4582	360.0126	382.9405	435.7287	445.7649	568.4917	653.0363	698.1359	735.2763	811.2164	825.5578	877.6686	909.3923	918.7253	932.5212	974.7778	988.8309	1000.1662	1015.9541	1043.1092	1058.2301	1079.2562	1103.8438	1122.1718	1145.4535	1181.7819	1236.5306	1249.3719	1277.0807	1308.5563	1315.841	1351.6836	1380.5707	1391.2763	1415.8076	1422.3937	1432.0923	1470.5341	1482.4258	1487.2299	1495.0923	1505.4154	1507.9584	1728.0242	2996.6026	3011.8884	3020.2633	3020.7048	3025.7891	3053.7971	3072.932	3079.171	3096.3713	3117.1408	3117.7676	3130.5831	3147.1161	3201.4292
CC12CC1CC=CCC2	C[C@]12C[C@H]1CC=CCC2	
InChI=1S/C9H14/c1-9-6-4-2-3-5-8(9)7-9/h2-3,8H,4-7H2,1H3	InChI=1S/C9H14/c1-9-6-4-2-3-5-8(9)7-9/h2-3,8H,4-7H2,1H3/t8-,9+/m1/s1
