18
gdb 23382	3.69841	1.07277	0.95099	1.8756	75.22	-0.2344	0.0027	0.2371	1254.1323	0.14575	-438.970048	-438.961378	-438.960434	-439.004173	32.167	
C	 0.2094288244	 1.4950431633	 0.0386927148	-0.477575
C	 0.0071055131	 0.006358544	 0.1440429157	 0.315216
N	-0.1657010461	-0.6173720777	 1.2480170885	-0.17125
O	-0.1240116548	 0.2557145298	 2.3462414629	-0.396543
C	-0.0276217688	-0.8059516497	-1.1108297941	-0.046622
C	 1.2669050176	-1.2210349105	-1.8956788674	 0.034005
C	 1.6151916425	-2.2492963275	-0.797852091	-0.22106
C	 0.1057279347	-2.3488071363	-1.130990919	 0.034982
O	 0.4577620093	-2.2538150921	-2.572926814	-0.311344
H	 1.166610914	 1.7834887485	 0.4869398668	 0.14804
H	 0.1986117156	 1.8221580763	-1.0029390288	 0.1226
H	-0.5680574959	 2.0265081913	 0.5950066961	 0.151836
H	-0.295457595	-0.3384779221	 3.084467907	 0.306926
H	-0.7954148242	-0.4413900823	-1.8009247519	 0.096205
H	 1.9202321203	-0.6060380332	-2.5156393217	 0.094117
H	 2.2129454687	-3.0923426106	-1.1450135362	 0.107175
H	 1.8999249346	-1.8901590854	 0.1906685322	 0.11393
H	-0.6240313	-3.1021481457	-0.8379772898	 0.099362
58.52	70.7016	139.1225	150.0931	289.5391	347.001	406.953	417.6185	438.3949	547.4246	584.9608	711.191	729.1928	820.0858	865.4571	876.3855	897.5246	924.6335	940.3452	1006.3411	1010.6106	1035.6609	1042.3369	1071.7176	1092.4057	1141.1185	1169.3185	1197.1824	1209.0063	1231.2975	1262.172	1283.6305	1367.7805	1399.7225	1407.6229	1475.022	1485.0519	1488.1997	1718.6059	3042.4832	3064.7272	3087.9599	3102.5702	3112.9407	3133.7342	3134.777	3167.3133	3820.3523
CC(=NO)C1C2CC1O2	CC(=NO)[C@H]1[C@H]2C[C@@H]1O2	
InChI=1S/C6H9NO2/c1-3(7-8)6-4-2-5(6)9-4/h4-6,8H,2H2,1H3	InChI=1S/C6H9NO2/c1-3(7-8)6-4-2-5(6)9-4/h4-6,8H,2H2,1H3/t4-,5+,6+
