19
gdb 69557	2.7374	1.56544	1.36363	2.8858	74.88	-0.2382	0.0585	0.2967	1046.8637	0.157555	-422.964356	-422.956065	-422.955121	-422.996671	32.271	
C	-0.1716551259	 1.5264818232	 0.0271102215	-0.511856
C	 0.1260301639	 0.0636608844	-0.0124088335	 0.414245
O	-0.7140909566	-0.8225473994	 0.7360551803	-0.269791
C	 0.6941675467	-0.8910692425	 0.9680151987	-0.122881
C	 1.3342413263	-1.7633619549	-0.1486019192	 0.259277
C	 2.8074358167	-2.068998796	-0.0220415884	-0.498846
C	 0.3725116721	-2.7830655895	-0.8125647524	-0.120223
O	-0.1136881648	-1.7856509255	-1.7487323627	-0.286928
C	 0.7345727102	-0.778679086	-1.1835517278	-0.01248
H	 0.6761259346	 2.1072746326	-0.3505669281	 0.124123
H	-1.0432175396	 1.7588683984	-0.5951254267	 0.139078
H	-0.3876945283	 1.8457411932	 1.0503575349	 0.134732
H	 1.0385249768	-0.7504166171	 1.9883065107	 0.098142
H	 2.9886243756	-2.8202611682	 0.7560075148	 0.124032
H	 3.2155067231	-2.4543435812	-0.9618671849	 0.126637
H	 3.3769214448	-1.172451907	 0.2483758843	 0.120016
H	 0.8813482148	-3.5999659193	-1.3391604519	 0.094584
H	-0.4292557869	-3.1789454961	-0.1832136046	 0.114433
H	 1.3256694666	-0.224826059	-1.9196999449	 0.073708
142.285	188.3238	204.9911	237.5722	249.7179	284.8597	312.8729	355.1086	505.8464	551.9532	581.6126	694.0252	755.1734	828.8986	845.7927	863.9261	895.16	925.3311	970.3717	990.4267	1002.13	1021.8238	1039.6503	1097.2464	1140.4262	1153.6202	1171.657	1200.8066	1221.1145	1236.4088	1282.5794	1307.2161	1375.0834	1402.7848	1412.9635	1452.9127	1480.8222	1490.1199	1492.1013	1494.1007	1504.5864	3019.9186	3024.112	3033.6564	3063.809	3083.9679	3092.0933	3097.6202	3098.8373	3118.6423	3161.449
CC12OC1C1(C)COC21	C[C@]12O[C@H]1[C@@]1(C)CO[C@@H]21	
InChI=1S/C7H10O2/c1-6-3-8-4(6)7(2)5(6)9-7/h4-5H,3H2,1-2H3	InChI=1S/C7H10O2/c1-6-3-8-4(6)7(2)5(6)9-7/h4-5H,3H2,1-2H3/t4-,5+,6+,7-/m1/s1
