19
gdb 93217	2.75312	1.35578	0.95483	3.106	80.35	-0.2328	-0.0517	0.1811	1246.9852	0.158138	-423.063173	-423.054153	-423.053209	-423.096936	33.435	
C	-0.1457069274	 1.5106325523	-0.0042084686	-0.401742
C	-0.0182206229	-0.0108938013	-0.0134554088	 0.087172
O	 0.6747501261	-0.3608982046	-1.1999740762	-0.255168
C	 0.9983083173	-1.7320873453	-1.2778662274	-0.190075
C	 1.832105851	-2.2157318796	-0.094526676	 0.303881
O	 2.5850595319	-3.1633615727	-0.1958483315	-0.31592
C	 1.5936755161	-1.5139807779	 1.1907089527	 0.187009
C	 2.3458962481	-2.00927749	 2.3925360765	-0.477537
C	 0.6802884868	-0.5316971834	 1.2152100915	-0.153075
H	 0.8439139939	 1.973039444	 0.046426172	 0.132435
H	-0.6398967411	 1.8450540155	-0.919490081	 0.132112
H	-0.7353835215	 1.8429184835	 0.8549421431	 0.118317
H	-1.0368294827	-0.4484074994	-0.043462424	 0.081525
H	 0.0878710376	-2.3579058121	-1.3308452167	 0.108606
H	 1.5633583939	-1.8862574742	-2.1996179805	 0.13657
H	 2.1787031486	-3.0807284404	 2.5409632845	 0.143099
H	 3.4246261227	-1.8855076578	 2.2498581245	 0.143257
H	 2.0484311527	-1.4717770919	 3.2963020061	 0.115692
H	 0.4070998787	-0.0616829646	 2.1587391499	 0.103843
68.5387	131.8637	167.1909	201.4001	242.5904	268.2133	314.4807	340.0554	405.2999	441.6598	527.8594	564.4672	620.9031	705.0683	758.7234	831.5683	881.1409	934.5534	994.1065	1013.9723	1052.4654	1072.5085	1095.872	1112.5184	1161.9461	1182.3178	1241.9417	1271.4909	1335.1202	1347.2668	1377.4602	1386.1747	1403.2222	1413.3932	1467.9392	1469.5661	1482.8388	1486.656	1499.8375	1704.0846	1780.0239	2895.9906	2939.3364	3040.6454	3047.5215	3098.0456	3111.9909	3124.0233	3124.5513	3131.3656	3142.5975
CC1OCC(=O)C(C)=C1	C[C@H]1OCC(=O)C(=C1)C	
InChI=1S/C7H10O2/c1-5-3-6(2)9-4-7(5)8/h3,6H,4H2,1-2H3	InChI=1S/C7H10O2/c1-5-3-6(2)9-4-7(5)8/h3,6H,4H2,1-2H3/t6-/m1/s1
