18
gdb 50229	3.00178	1.56945	1.35871	1.7851	74.43	-0.2231	-0.0275	0.1956	989.8653	0.14785	-401.876806	-401.8694	-401.868456	-401.908797	29.027	
O	-0.6127901952	 0.7141422339	-1.0659493189	-0.247396
C	 0.0594793684	 0.9603803838	-0.0964924905	 0.146509
C	 1.1865643644	 1.961122714	-0.0674214757	-0.045362
C	 1.1809683034	 3.1637468959	-1.0469222608	-0.297787
C	 1.2874733919	 4.0708313448	 0.2120651142	 0.038852
C	 0.0359462996	 4.6409628074	 0.8969174327	-0.076163
C	-1.1153261597	 3.6811529379	 0.8073597888	-0.308167
C	 0.0245827248	 3.3686919848	 1.7475073951	-0.027092
N	 1.2796933226	 2.8761351975	 1.1313852363	-0.151921
H	-0.092029153	 0.4226024148	 0.8676420411	 0.086744
H	 2.1084334008	 1.3629917269	-0.1227114034	 0.110771
H	 2.0409794534	 3.2123890652	-1.716550176	 0.110863
H	 0.2683965206	 3.2591279922	-1.638816031	 0.128651
H	 2.1733036557	 4.7070975091	 0.280050095	 0.083194
H	-0.0867641384	 5.6727228308	 1.2005972003	 0.094222
H	-2.0137201832	 4.0122490524	 1.3198158524	 0.119484
H	-1.3174628386	 3.1093804475	-0.0910660504	 0.136186
H	-0.1354942475	 3.2344649711	 2.811299261	 0.098411
90.96	149.5016	173.5595	286.2249	319.3436	432.3917	558.7528	564.361	681.2992	710.704	754.2273	771.9702	858.085	866.9015	890.2095	939.9643	943.0765	975.336	993.7221	1017.3832	1034.8935	1062.3838	1077.3298	1104.2241	1109.3519	1126.1771	1137.2793	1189.9353	1202.8835	1238.331	1248.3366	1287.9162	1321.5258	1336.9523	1362.5426	1412.9399	1480.4707	1499.7681	1821.7865	2872.3326	2995.6341	3071.2797	3079.2267	3132.3765	3135.3846	3169.7818	3192.8339	3216.8306
O=CC1CC2C3CC3N12	O=C[C@H]1C[C@H]2[C@H]3C[C@H]3N12	
InChI=1S/C7H9NO/c9-3-4-1-6-5-2-7(5)8(4)6/h3-7H,1-2H2	InChI=1S/C7H9NO/c9-3-4-1-6-5-2-7(5)8(4)6/h3-7H,1-2H2/t4-,5-,6+,7-/m1/s1
