21
gdb 118979	2.99184	0.99666	0.93644	0.9191	80.55	-0.2323	0.0177	0.25	1369.9917	0.180905	-424.226754	-424.216964	-424.21602	-424.261835	35.957	
C	 0.1525662255	 1.4759089378	-0.0667595791	-0.415208
C	-0.0563913386	-0.0446529287	 0.0165789313	 0.321122
C	-1.5476036553	-0.43981525	-0.0093905451	-0.183774
C	-2.2841348079	-0.0581252742	-1.2885943721	-0.086971
O	-3.5981539031	-0.5952363906	-1.1914855363	-0.425147
O	 0.6128380871	-0.6584481577	-1.1074637356	-0.307546
C	 1.6139167203	-1.571362554	-0.6705854041	-0.128644
C	 1.5796866334	-1.5014543419	 0.8296607827	-0.101519
C	 0.6437456909	-0.6444442127	 1.2151668299	-0.114189
H	 1.21709491	 1.7117238163	 0.0118188878	 0.117293
H	-0.2129553146	 1.8669670204	-1.0196868372	 0.125545
H	-0.3773351745	 1.9891560197	 0.7426639897	 0.11094
H	-1.6206482811	-1.5259595397	 0.1097779065	 0.106551
H	-2.0601625721	 0.0114617011	 0.8489053344	 0.096232
H	-2.3188733716	 1.0360050595	-1.4044939938	 0.081259
H	-1.7419719127	-0.4685407537	-2.151684413	 0.1049
H	-4.061025226	-0.3961607085	-2.0103748564	 0.283385
H	 1.3954572215	-2.5831106378	-1.0482572707	 0.104368
H	 2.5929386002	-1.2800214925	-1.0831733596	 0.103638
H	 2.2372476118	-2.0806247998	 1.4657578312	 0.105459
H	 0.378428467	-0.3815575331	 2.2316110594	 0.102308
64.66	82.7476	103.5027	158.9335	223.0907	261.9736	264.8309	331.205	337.25	388.2913	417.6748	533.8741	683.7702	744.0673	781.0266	792.1908	819.9193	901.0736	937.1728	958.5033	959.2847	985.2428	1025.1692	1046.5974	1067.2365	1074.7197	1114.9926	1171.9989	1179.4116	1194.948	1210.5702	1243.8189	1263.6175	1320.8414	1337.0546	1363.64	1380.4821	1401.425	1455.4843	1477.5181	1488.2555	1495.6031	1522.5767	1531.1023	1693.8733	2971.5102	2977.7621	2986.6826	3023.168	3035.6588	3041.6303	3084.8958	3112.502	3123.5153	3202.543	3227.4294	3829.5758
CC1(CCO)OCC=C1	C[C@@]1(CCO)OCC=C1	
InChI=1S/C7H12O2/c1-7(4-5-8)3-2-6-9-7/h2-3,8H,4-6H2,1H3	InChI=1S/C7H12O2/c1-7(4-5-8)3-2-6-9-7/h2-3,8H,4-6H2,1H3/t7-/m1/s1
