19
gdb 33496	2.60631	1.20152	0.91819	1.573	81.32	-0.2578	0.0264	0.2842	1309.7646	0.15703	-385.817053	-385.80791	-385.806965	-385.851449	34.318	
C	-0.348483478	-1.1881399461	 0.5689746976	-0.444168
C	-0.2425627287	-0.0114855192	 0.3473104268	 0.331894
C	-0.1380663489	 1.4099408851	 0.1036032561	 0.200955
C	-1.3365383053	 2.086340624	-0.5457279784	-0.313312
C	-1.5767219514	 1.6249437501	-1.9680561603	 0.043027
C	-2.4538225836	 0.4338096731	-2.2587518709	-0.246787
C	-2.9264359766	 1.8224422523	-2.610217319	-0.282763
C	 0.7940795937	 2.1970025082	 0.9390622124	-0.216623
O	 1.141140673	 1.853016173	-0.3973853362	-0.263818
H	-0.4349618909	-2.2301859	 0.75515901	 0.198851
H	-2.2268152115	 1.8968042445	 0.0664553227	 0.103731
H	-1.1560739622	 3.1675989572	-0.530326459	 0.106414
H	-0.7144481911	 1.7539266824	-2.6158607148	 0.097143
H	-2.1637691669	-0.2334849953	-3.0623984049	 0.112901
H	-2.9227468211	-0.065377696	-1.4178542223	 0.114975
H	-3.716716984	 2.2571098118	-2.006055486	 0.107841
H	-2.9613710524	 2.1099380724	-3.6551595333	 0.111589
H	 0.5788094479	 3.250387319	 1.1163088279	 0.115113
H	 1.3655577182	 1.6945306736	 1.7171036916	 0.123038
55.1898	83.8722	134.9834	175.4452	229.7805	286.9184	336.9968	398.9035	422.3162	551.709	572.4269	618.4006	662.165	708.54	771.585	805.7348	825.7648	843.6465	908.9195	912.3272	947.518	971.9426	1012.9951	1059.201	1078.7875	1126.48	1139.1792	1151.7644	1168.5579	1198.1251	1221.6702	1233.6713	1285.7351	1314.5554	1384.597	1415.0277	1464.1536	1474.3269	1509.1395	1519.456	2237.5541	3026.3073	3069.6519	3081.823	3128.836	3138.8864	3152.1362	3175.3933	3208.0277	3225.5092	3501.7358
C#CC1(CC2CC2)CO1	C#C[C@@]1(CC2CC2)CO1	
InChI=1S/C8H10O/c1-2-8(6-9-8)5-7-3-4-7/h1,7H,3-6H2	InChI=1S/C8H10O/c1-2-8(6-9-8)5-7-3-4-7/h1,7H,3-6H2/t8-/m1/s1
