22
gdb 109152	2.89815	1.12002	1.02214	1.5945	83.14	-0.2369	0.0337	0.2705	1335.9026	0.193005	-404.394549	-404.384572	-404.383628	-404.430061	36.742	
C	 0.3767113156	 0.7147853479	 0.6773167044	-0.378897
C	-0.3706418717	 0.3487195389	-0.6150482075	-0.274252
C	 0.5308064839	-0.2264716091	-1.6608064403	 0.40139
N	 0.7548341051	 0.2640692302	-2.8127423985	-0.315788
C	 1.6968473791	-0.6434818638	-3.4745151029	-0.227069
C	 2.0108078278	-1.7626876059	-2.4339909028	 0.362206
C	 1.5800129876	-3.1523188065	-2.8926343666	-0.427003
C	 3.4572713171	-1.7363397074	-1.947571403	-0.424395
O	 1.1584931054	-1.381724127	-1.3084471585	-0.286993
H	 0.8724930217	-0.161670494	 1.1020160943	 0.133689
H	 1.1379901604	 1.4771282848	 0.485429158	 0.125423
H	-0.3193742804	 1.1113634095	 1.4216355339	 0.117049
H	-1.1491859588	-0.3898463419	-0.3878726591	 0.118907
H	-0.8575463595	 1.2245728064	-1.0487176817	 0.129379
H	 1.247624515	-1.0484839685	-4.3893350028	 0.106633
H	 2.5996822664	-0.0984164965	-3.7736712885	 0.107029
H	 2.1801779694	-3.4710558443	-3.7512006264	 0.119072
H	 1.7082720899	-3.8867647619	-2.0919553604	 0.123084
H	 0.5282187201	-3.1478832436	-3.1928483602	 0.124532
H	 3.7241269751	-0.7365052757	-1.5927412758	 0.124578
H	 3.6079349044	-2.445628083	-1.1283483907	 0.122758
H	 4.1369839066	-2.0026657886	-2.7637113546	 0.118668
36.9289	57.2573	147.5296	199.0882	215.6067	252.1704	266.2001	318.9181	332.698	365.1292	437.7913	466.7867	588.1826	646.4728	710.358	793.4332	825.2069	883.4857	926.3591	943.4279	966.6416	974.4732	998.1035	1013.5629	1030.6153	1083.434	1113.3686	1173.3057	1174.8503	1249.4814	1264.5312	1287.5352	1308.1391	1335.6891	1377.5592	1400.8601	1409.5672	1416.7666	1474.1827	1476.4187	1484.0735	1494.1269	1496.7143	1499.5472	1508.8882	1509.4938	1734.6171	3024.5144	3034.613	3039.5962	3040.1452	3045.5777	3055.6364	3107.1949	3108.608	3112.6558	3114.9105	3116.4293	3117.7148	3132.2507
CCC1=NCC(C)(C)O1	CCC1=NCC(C)(C)O1	
InChI=1S/C7H13NO/c1-4-6-8-5-7(2,3)9-6/h4-5H2,1-3H3	InChI=1S/C7H13NO/c1-4-6-8-5-7(2,3)9-6/h4-5H2,1-3H3
