16
gdb 14329	3.9694	1.83845	1.585	3.2374	63.56	-0.2403	-0.0199	0.2204	833.1911	0.131564	-383.753738	-383.747084	-383.74614	-383.78507	25.261	
O	-0.1026867043	 0.0204240467	 0.394813999	-0.299063
C	-0.0674963058	 1.2003970079	 0.1711751728	 0.389205
C	-1.2826448831	 2.0838158729	-0.1626694943	-0.334714
C	-0.8545863031	 3.5275905893	 0.112382424	-0.083922
C	-0.9431577329	 3.9853749783	 1.5814910872	-0.075945
O	 0.4671845515	 3.7586863196	 1.7908214897	-0.291628
C	 0.6852995061	 3.4922178721	 0.3862549627	 0.121315
C	 1.1897608507	 2.0799959583	 0.1460599498	-0.331562
H	-1.5129236946	 1.9312154559	-1.2247795776	 0.131828
H	-2.1587425666	 1.7546007675	 0.4022045113	 0.133049
H	-1.2168654871	 4.240254621	-0.6279373302	 0.083629
H	-1.2093863567	 5.0415857902	 1.7162584185	 0.102668
H	-1.5617355419	 3.3730470468	 2.2490640564	 0.107937
H	 1.2956521733	 4.2730295825	-0.0794858751	 0.077643
H	 1.920799315	 1.7534475962	 0.8885800588	 0.144108
H	 1.6509364595	 1.9870810247	-0.8467042229	 0.125452
75.0331	100.6515	345.7918	350.4528	445.2116	462.9553	601.5181	651.0072	737.7599	782.5441	837.0325	851.459	890.3804	894.7452	966.9612	1021.8584	1026.8522	1084.9919	1091.4955	1122.6465	1158.6652	1166.1015	1178.9945	1228.8521	1268.1404	1273.1086	1293.6583	1346.4989	1353.2072	1367.9277	1428.3684	1448.4289	1527.0334	1852.9802	3010.5318	3028.3455	3037.8002	3050.7335	3055.5995	3100.8893	3112.5803	3120.1836
O=C1CC2COC2C1	O=C1C[C@H]2CO[C@H]2C1	
InChI=1S/C6H8O2/c7-5-1-4-3-8-6(4)2-5/h4,6H,1-3H2	InChI=1S/C6H8O2/c7-5-1-4-3-8-6(4)2-5/h4,6H,1-3H2/t4-,6-/m0/s1
