16
gdb 25769	4.27196	1.04187	0.84277	3.8483	77.74	-0.2107	-0.0453	0.1654	1316.8685	0.123813	-437.934184	-437.925465	-437.924521	-437.967906	31.756	
C	-0.1265172847	 1.5053849024	 0.0206942637	-0.485347
C	 0.0452339605	-0.0018062095	-0.0040242606	 0.290038
O	 1.1381720571	-0.537538479	-0.0190086803	-0.318078
C	-1.1736226104	-0.8166249709	-0.0094658023	 0.29117
C	-1.3450505225	-2.1746387782	-0.036418035	-0.328568
C	-2.7511934264	-2.4120564983	-0.0232936058	 0.235802
N	-3.379776283	-3.6566740998	-0.1149433296	-0.606562
C	-3.3327795114	-1.1694303311	 0.010530415	-0.086652
O	-2.3852144603	-0.1948669218	 0.0154361941	-0.180739
H	 0.8580398285	 1.9734495206	 0.020874989	 0.138072
H	-0.7011693366	 1.8415259606	-0.8484529755	 0.143723
H	-0.6883452023	 1.8142019585	 0.9082152371	 0.142701
H	-0.550311015	-2.9033347638	-0.0657681643	 0.133312
H	-2.8570852319	-4.39826542	 0.331014826	 0.25194
H	-4.3317505348	-3.6568894105	 0.2255291631	 0.247751
H	-4.3577958067	-0.8371440191	 0.0260985855	 0.131437
74.8819	107.2628	152.9726	158.1553	222.5585	325.5788	338.524	399.7325	507.7716	557.5345	605.5193	622.6098	682.1908	689.9277	712.8945	740.5413	853.0856	916.2221	983.1474	1001.877	1041.9028	1087.1471	1105.4915	1164.5693	1241.665	1274.4521	1346.9412	1381.9737	1449.8697	1462.2105	1471.62	1544.0406	1648.1722	1670.1006	1763.733	3045.2035	3107.4224	3158.4806	3265.3769	3273.6488	3549.9188	3640.5502
CC(=O)C1=CC(N)=CO1	CC(=O)c1cc(N)co1	
InChI=1S/C6H7NO2/c1-4(8)6-2-5(7)3-9-6/h2-3H,7H2,1H3	InChI=1S/C6H7NO2/c1-4(8)6-2-5(7)3-9-6/h2-3H,7H2,1H3
