21
gdb 93150	2.03074	1.68522	1.19502	2.6842	83.46	-0.2334	-0.0093	0.2241	1140.5457	0.183573	-387.124573	-387.115686	-387.114742	-387.158315	33.836	
C	-0.1866115244	 1.5916305261	 0.1180213764	-0.413533
C	-0.0122668827	 0.0677962563	 0.0176536317	-0.053766
C	 0.6494114932	-0.3652044844	-1.3215613837	-0.282202
C	 1.9973528719	 0.2436211274	-1.6269248921	-0.045449
C	 3.0862432022	 0.1576535376	-0.8610002402	-0.053291
C	 3.1733820431	-0.546706321	 0.4707108413	-0.260948
C	 2.143608648	-0.0648389718	 1.5258810298	-0.282277
C	 0.726713656	-0.5291972893	 1.2164546614	 0.375668
O	 0.202815171	-1.3891168757	 1.8909402095	-0.316459
H	 0.7674255166	 2.1174336858	 0.0263778064	 0.128093
H	-0.8390909856	 1.9463272399	-0.686875539	 0.118233
H	-0.6473406276	 1.8757748843	 1.0692589897	 0.123637
H	-1.000164548	-0.4027915027	 0.0515803557	 0.092859
H	 0.7243440475	-1.4615867477	-1.3226181806	 0.121061
H	-0.0479239534	-0.1114513668	-2.1267663602	 0.105852
H	 2.074881199	 0.7895843541	-2.5640482826	 0.089665
H	 3.9986242831	 0.634639691	-1.2110825382	 0.089731
H	 3.0536352515	-1.6315141339	 0.3403798004	 0.123559
H	 4.1736947711	-0.4035971488	 0.8895020852	 0.109361
H	 2.4007749054	-0.4795473552	 2.5037431471	 0.117277
H	 2.1840682622	 1.0280119347	 1.588398372	 0.112931
51.8669	123.7514	163.0603	219.0295	249.9067	285.9973	328.7316	355.3067	470.4067	500.884	544.225	659.7261	703.6349	712.3574	787.8682	852.6097	862.3719	901.8482	920.1772	972.0159	997.8694	1004.3721	1032.4219	1056.7567	1098.0937	1099.051	1166.6355	1218.6871	1233.6588	1270.51	1279.4884	1289.5268	1325.6822	1354.1633	1368.6165	1376.1067	1406.6545	1425.1745	1472.5951	1480.904	1490.4523	1497.996	1505.4659	1718.1879	1795.4735	3009.88	3013.5333	3036.574	3048.0648	3056.7999	3067.7093	3078.7878	3101.3221	3109.1006	3119.9418	3141.6515	3165.5299
CC1CC=CCCC1=O	C[C@H]1CC=CCCC1=O	
InChI=1S/C8H12O/c1-7-5-3-2-4-6-8(7)9/h2-3,7H,4-6H2,1H3	InChI=1S/C8H12O/c1-7-5-3-2-4-6-8(7)9/h2-3,7H,4-6H2,1H3/t7-/m0/s1
