20
gdb 36735	5.21473	0.70726	0.65888	5.2438	80.28	-0.2568	0.0423	0.2991	1688.1849	0.171997	-403.179574	-403.170445	-403.1695	-403.215068	32.598	
N	-0.161621797	-1.1228877526	 0.1730420292	-0.309325
C	-0.1214167802	 0.0315442189	 0.1354741153	 0.255126
C	-0.0466791975	 1.4892472173	 0.0912020246	-0.340166
C	 1.4025569047	 2.0106836306	 0.1520086804	-0.200138
C	 1.4533758615	 3.534064114	 0.0820974593	 0.148542
C	 2.8680632928	 4.1300823139	 0.0503845277	-0.24834
C	 2.6595806428	 5.4132249899	-0.7661228778	-0.229682
C	 1.6030314145	 4.9645951901	-1.7813654204	-0.060974
O	 0.8117275178	 3.9744415227	-1.1212381293	-0.282177
H	-0.5181577495	 1.8464248413	-0.8294198456	 0.172221
H	-0.6321641422	 1.8931763758	 0.9258062209	 0.146789
H	 1.8805550297	 1.6723678106	 1.0780051649	 0.116969
H	 1.9731132187	 1.5920330426	-0.6838393643	 0.120422
H	 0.8958010693	 3.948651889	 0.9392116783	 0.069436
H	 3.269238415	 4.3077497426	 1.0507680119	 0.109047
H	 3.551115027	 3.449888688	-0.471821607	 0.107638
H	 2.263377366	 6.2112011309	-0.1293376787	 0.111023
H	 3.5726397195	 5.7809707214	-1.2398978691	 0.108526
H	 0.9459090214	 5.7766538912	-2.1098910988	 0.107623
H	 2.0721927558	 4.5260517018	-2.6743654415	 0.09744
33.501	75.2205	106.0666	111.5938	201.5301	245.7947	356.2295	397.1212	448.0403	541.9631	596.0664	668.9656	763.8659	843.1976	881.3768	892.3693	927.7001	931.8128	964.0775	1009.5525	1025.387	1037.0309	1101.5328	1112.3912	1141.9065	1193.8394	1203.8412	1214.5855	1259.2888	1274.4946	1312.9933	1313.2479	1339.4912	1363.5901	1367.4949	1400.1742	1409.4793	1467.7331	1482.6679	1487.7206	1498.4656	1532.0299	2361.9015	2951.9134	2994.3544	3038.7446	3042.4936	3048.4528	3050.0547	3067.6719	3084.0678	3102.9632	3106.1713	3113.7982
N#CCCC1CCCO1	N#CCC[C@H]1CCCO1	
InChI=1S/C7H11NO/c8-5-1-3-7-4-2-6-9-7/h7H,1-4,6H2	InChI=1S/C7H11NO/c8-5-1-3-7-4-2-6-9-7/h7H,1-4,6H2/t7-/m0/s1
