15
gdb 37550	4.15529	1.76469	1.51422	1.5761	68.14	-0.2388	0.0022	0.241	849.0469	0.114986	-416.67312	-416.667382	-416.666438	-416.702992	24.101	
N	-0.1177825528	 1.5545226271	-0.1082942169	-0.334298
C	 1.3501735388	 1.2742728612	 0.0322023818	-0.084364
C	 1.2158085078	 0.0889367351	 1.0261373747	-0.117107
C	-0.0481615638	 0.0696313482	 0.01118981	-0.141865
C	 1.246853953	-0.0274824682	-0.8449094427	 0.470177
O	 1.8518793349	-0.1552658155	-2.1125784002	-0.288314
C	 3.1348484044	-0.4977279792	-1.6863050047	 0.084148
N	 3.3611521478	-0.8244582411	-0.4719065666	-0.293419
C	 1.996328406	-0.8954114381	 0.1111739606	-0.034211
H	-0.4794938066	 1.9566132153	 0.7607222507	 0.212587
H	 2.1157864742	 2.047116041	 0.0000994634	 0.099343
H	 1.1343952105	 0.1484894578	 2.1113924423	 0.092338
H	-0.9151756794	-0.5900488082	 0.02879754	 0.100961
H	 3.8750799243	-0.452756677	-2.4770335849	 0.143422
H	 1.7042725808	-1.9456047885	 0.2223007524	 0.090602
208.1445	319.5955	341.5209	513.9508	559.9918	582.5117	674.3493	707.308	815.8082	833.8022	866.3206	883.3247	903.731	920.3871	929.3613	958.7287	979.4336	1022.892	1043.5466	1054.8223	1077.0353	1091.9073	1132.0377	1154.6162	1171.8152	1213.1969	1228.5933	1283.2921	1294.1495	1317.6946	1331.6691	1376.5848	1614.7107	3046.8558	3119.0536	3129.7242	3141.9091	3221.6551	3407.0919
N1C2C3C1C21OC=NC31	N1[C@H]2[C@H]3[C@@H]1[C@]12O[CH][N][C@@H]31	
InChI=1S/C6H6N2O/c1-7-3-2-4-6(3,9-1)5(2)8-4/h1-5,8H	InChI=1S/C6H6N2O/c1-7-3-2-4-6(3,9-1)5(2)8-4/h1-5,8H/t2-,3-,4-,5+,6-/m0/s1
