17
gdb 35367	3.81146	1.36463	1.28575	2.721	74.27	-0.2444	0.0251	0.2694	1006.4633	0.139183	-380.846849	-380.840037	-380.839092	-380.878172	27.124	
N	-0.044764822	-1.1716389116	-0.1274768738	-0.321856
C	-0.0375301959	-0.0175956417	-0.0593295901	 0.26608
C	-0.0101396672	 1.4422200416	 0.0333254423	-0.154823
C	-0.5975804982	 1.9589571142	 1.3891259188	-0.267718
C	 0.6359038146	 2.2765312811	 2.2272594232	-0.006542
C	 1.8797458955	 1.8773928158	 1.5438044494	-0.045324
C	 1.4398706776	 1.9790803777	 0.0634723194	-0.060533
C	 1.4090820852	 3.5073229933	 0.2998011744	-0.175781
N	 1.5875143672	 3.3391793872	 1.7822484637	-0.147924
H	-0.5598370473	 1.8471192065	-0.8231841108	 0.125086
H	-1.22763778	 2.838894206	 1.2292084525	 0.122256
H	-1.2144761576	 1.2014971823	 1.8770100849	 0.135183
H	 0.5634264623	 2.2305084843	 3.3078995671	 0.107049
H	 2.7308969653	 1.3602269209	 1.9683023251	 0.105392
H	 2.0847720419	 1.5924510704	-0.7232756976	 0.096971
H	 2.2901071401	 4.017765647	-0.0940875551	 0.121262
H	 0.5115843086	 4.0579325251	-0.0061634131	 0.101221
97.53	159.3563	283.2819	370.6954	402.2915	461.5759	556.6193	685.8582	711.1022	760.9889	779.4885	816.1294	834.8337	879.0818	916.9231	925.7246	958.3881	993.0301	1011.8168	1046.1279	1055.1325	1078.6684	1107.0979	1160.1487	1192.9337	1198.5794	1215.6148	1245.8891	1277.33	1287.5301	1314.6224	1326.6502	1343.5567	1394.8464	1485.8392	1511.7963	2354.7001	3034.6765	3054.6817	3066.4724	3109.0885	3113.7512	3136.0682	3180.3674	3197.557
N#CC1CC2C3C1CN23	N#C[C@H]1C[C@H]2[C@H]3[C@@H]1CN23	
InChI=1S/C7H8N2/c8-2-4-1-6-7-5(4)3-9(6)7/h4-7H,1,3H2	InChI=1S/C7H8N2/c8-2-4-1-6-7-5(4)3-9(6)7/h4-7H,1,3H2/t4-,5-,6+,7-,9?/m1/s1
