17
gdb 25715	2.55273	1.56724	0.98284	3.0119	79.54	-0.2352	-0.0456	0.1896	1174.0032	0.134762	-421.891199	-421.882303	-421.881359	-421.925404	31.771	
C	-0.0044453949	 1.5370202555	-0.1275470493	-0.479639
C	-0.0014620016	 0.0298331411	 0.0584534054	 0.299002
O	-0.0005338604	-0.4803128857	 1.165962453	-0.324915
C	-0.0002289572	-0.7898289413	-1.1552346015	 0.183174
C	 0.0019680508	-2.1499532748	-1.3685140434	 0.166583
C	 0.0029271625	-3.2376002132	-0.3408537531	-0.517781
C	 0.0025749095	-2.317199644	-2.7882072748	-0.252894
C	 0.0007169146	-1.0668384331	-3.3270250579	-0.014944
O	-0.0009923142	-0.1278663444	-2.3617211332	-0.179008
H	 0.869276927	 1.8576240363	-0.7038741104	 0.142556
H	-0.8876298577	 1.8544129468	-0.6913283804	 0.142695
H	 0.0011150191	 2.0105875628	 0.8543668217	 0.137613
H	-0.8840197118	-3.8725212249	-0.4485667948	 0.13165
H	 0.8769826271	-3.88698017	-0.465288397	 0.131117
H	 0.0148338801	-2.8154083934	 0.6630149966	 0.171637
H	 0.004354519	-3.2500962328	-3.330852883	 0.119198
H	 0.0005540381	-0.7001554747	-4.3411687779	 0.143957
73.3675	82.3662	116.9133	169.7128	192.9304	277.6849	297.8763	414.6184	480.962	559.396	623.9658	637.5685	672.3223	702.4597	785.1713	844.8013	899.2398	949.614	997.3043	1040.8065	1067.1051	1069.4376	1098.3479	1148.0593	1204.6569	1286.2571	1299.7535	1379.8594	1409.0252	1437.5672	1462.2342	1471.3802	1483.0113	1500.7309	1516.0813	1626.8614	1755.9777	3033.4729	3045.4406	3081.3184	3108.1894	3158.4425	3164.2665	3250.1546	3277.0702
CC(=O)C1=C(C)C=CO1	CC(=O)c1c(C)cco1	
InChI=1S/C7H8O2/c1-5-3-4-9-7(5)6(2)8/h3-4H,1-2H3	InChI=1S/C7H8O2/c1-5-3-4-9-7(5)6(2)8/h3-4H,1-2H3
