16
gdb 22971	2.99244	0.83363	0.67187	6.6366	80.76	-0.2335	-0.1059	0.1276	1603.7892	0.122088	-434.005677	-433.995946	-433.995001	-434.041491	33.363	
O	-0.2490998291	-0.0096153946	 0.0227197587	-0.222263
N	 0.0051708349	 1.0895306779	-0.4134750919	-0.029505
C	 1.1807053648	 1.714795339	 0.1527684837	 0.164556
C	 1.9387167372	 1.0340896368	 1.1567088239	 0.260443
N	 2.5486269957	 0.4819013254	 1.9704628457	-0.33464
C	 1.4738643627	 2.9362040042	-0.3330061381	-0.027844
C	 2.6104848868	 3.8077260737	 0.0680978901	-0.286908
C	 2.1791433442	 5.2772000704	 0.2552611665	-0.15578
N	 1.6603263449	 5.8196760516	-0.9994062497	-0.501249
H	 2.4225280547	 6.0244283458	-1.6386427488	 0.232759
H	 1.1773026455	 6.6960977472	-0.8351811979	 0.239716
H	 0.7994281154	 3.326235	-1.0916925139	 0.158345
H	 3.0996997162	 3.4302892891	 0.970649698	 0.139648
H	 3.3622456608	 3.7745260682	-0.7361183646	 0.136573
H	 1.3799137645	 5.3248634472	 1.0029275688	 0.123293
H	 3.0355015208	 5.8307679481	 0.6712122996	 0.102856
42.8337	91.5067	99.7832	137.1631	187.9337	226.9491	261.9624	288.4515	357.2054	398.3133	456.552	511.1277	648.452	719.6198	770.0473	825.9475	883.5015	910.8357	942.4703	1013.7501	1039.1838	1098.9906	1117.7774	1172.8466	1278.658	1305.9945	1323.4829	1381.1748	1417.9336	1461.4198	1509.9738	1612.5871	1661.9019	1687.2292	2343.2629	2977.4419	2998.0479	3069.1534	3093.8769	3181.476	3501.1037	3582.5711
[O-]N=C(C#N)C1CC[NH2+]1	[O][N]C(=CCCN)C#N	
InChI=1S/C5H7N3O/c6-3-5(8-9)4-1-2-7-4/h4,7,9H,1-2H2	InChI=1S/C5H7N3O/c6-3-1-2-5(4-7)8-9/h2H,1,3,6H2
