23
gdb 105510	2.11899	1.3265	1.17818	1.8211	80.61	-0.2495	0.0748	0.3243	1242.6632	0.204507	-425.415149	-425.405007	-425.404063	-425.449914	38.124	
C	 0.8806385098	-0.2370733478	 1.3649932459	-0.405875
C	 0.0820750639	 0.0634789888	 0.0872898759	-0.020891
C	-0.2132679926	 1.5636502907	-0.0611477703	-0.406873
C	 0.7519358518	-0.5299791701	-1.1624983431	 0.42259
C	 2.1628067488	-0.0082956256	-1.4482801645	-0.123615
O	 2.6170482864	-0.4407321634	-2.7154131541	-0.428101
C	 0.5854916994	-2.0639622484	-1.3319469058	-0.326484
C	-0.3530329427	-1.7070400798	-2.4953079415	-0.079311
O	-0.0739554433	-0.2943906112	-2.3547774143	-0.346006
H	 1.1103962064	-1.3035214543	 1.4614487656	 0.115627
H	 1.8270269012	 0.3135916669	 1.3875509836	 0.121518
H	 0.3096048836	 0.0606448924	 2.2498818074	 0.116714
H	-0.8865210767	-0.4485880899	 0.1706725936	 0.072482
H	 0.7007054834	 2.1663125005	-0.0345860156	 0.114346
H	-0.728203857	 1.7621836731	-1.0044030445	 0.135054
H	-0.8529247927	 1.906683451	 0.7583461158	 0.109502
H	 2.177495489	 1.0898065905	-1.3786823114	 0.092871
H	 2.864294214	-0.4003701398	-0.7047759888	 0.110813
H	 1.9012295946	-0.2116740956	-3.3228697947	 0.287108
H	 1.4999389329	-2.572205134	-1.6378619707	 0.124469
H	 0.1317538279	-2.5851720194	-0.4874683052	 0.103783
H	-0.0625584107	-2.0817413615	-3.4829365118	 0.105724
H	-1.4154736075	-1.9231411432	-2.3311478314	 0.104554
85.2638	92.5606	128.4204	200.5962	216.6682	244.5538	254.3984	296.2292	307.9519	333.2425	453.4205	468.1368	507.916	557.3886	661.181	770.7106	848.6116	865.0177	884.9295	929.5853	939.9538	968.9016	983.7891	1007.7924	1053.2672	1061.9403	1101.4211	1131.347	1158.366	1170.6337	1205.2934	1217.1252	1244.1475	1257.3792	1282.7892	1343.2905	1349.6561	1379.7606	1388.0211	1399.1643	1418.2273	1441.3482	1476.175	1490.4126	1493.0318	1498.7145	1506.7008	1514.106	1527.3175	2992.7982	3003.8358	3022.7364	3031.5754	3038.6726	3065.9253	3078.0033	3083.4773	3097.743	3100.6435	3103.9202	3124.0388	3144.9847	3763.1253
CC(C)C1(CO)CCO1	CC(C)[C@@]1(CO)CCO1	
InChI=1S/C7H14O2/c1-6(2)7(5-8)3-4-9-7/h6,8H,3-5H2,1-2H3	InChI=1S/C7H14O2/c1-6(2)7(5-8)3-4-9-7/h6,8H,3-5H2,1-2H3/t7-/m0/s1
