21
gdb 95450	2.90888	1.23458	0.95443	1.8204	85.44	-0.2213	0.0207	0.242	1290.4139	0.182539	-387.086392	-387.077428	-387.076484	-387.120851	33.56	
C	 0.3835895064	 1.5485487774	 0.0827252985	-0.387325
C	 0.0046358862	 0.0670636494	 0.0844336526	 0.048691
O	 0.4249253665	-0.5394274328	-1.1400866389	-0.280679
C	 1.2224724052	-1.6894601007	-0.8774416771	-0.111878
C	 1.3414429876	-1.7518695825	 0.6168762521	-0.237201
C	 0.6543073592	-0.7586784215	 1.1783917567	 0.319369
C	 0.4718294993	-0.4156716643	 2.6043786179	-0.103032
C	 1.2105514461	-1.1320738055	 3.7060709887	-0.275829
C	 1.576073797	 0.2895100592	 3.379407866	-0.248033
H	 1.4702230473	 1.6660276253	 0.0331541184	 0.116144
H	-0.0590803805	 2.0440932933	-0.7858326461	 0.123612
H	 0.0178755976	 2.044881753	 0.9873131547	 0.112047
H	-1.0952278029	-0.0094603021	 0.1603367038	 0.074206
H	 0.738724888	-2.5894438434	-1.2926467674	 0.099866
H	 2.195579508	-1.5886974552	-1.3840293849	 0.101204
H	 1.8970989058	-2.5271577191	 1.1294133108	 0.095477
H	-0.5336412331	-0.0823844096	 2.8518236911	 0.087818
H	 0.6732712757	-1.3285912591	 4.6270465172	 0.114965
H	 1.9107123911	-1.9114207485	 3.4275519153	 0.117203
H	 2.5096097045	 0.4614536054	 2.8559690548	 0.119254
H	 1.2934717849	 1.0741795013	 4.0725702159	 0.114124
43.3594	79.485	143.5941	178.13	243.3671	271.7257	319.3082	374.885	435.1327	592.8715	625.5956	762.2201	782.1259	807.1067	817.9062	832.8397	872.6262	904.3576	917.3719	965.1134	1026.2791	1045.8796	1057.8208	1063.6697	1082.7573	1102.6347	1119.0538	1120.9716	1133.5641	1177.1876	1198.4469	1199.0254	1234.9109	1279.7581	1333.5224	1369.5258	1383.0729	1399.6959	1422.8842	1466.8866	1484.3329	1495.9219	1503.0309	1524.9851	1723.936	2931.4664	2961.8382	2979.8755	3038.8012	3113.5713	3119.7062	3127.2499	3135.2492	3140.9511	3210.1659	3216.2544	3231.5406
CC1OCC=C1C1CC1	C[C@H]1OCC=C1C1CC1	
InChI=1S/C8H12O/c1-6-8(4-5-9-6)7-2-3-7/h4,6-7H,2-3,5H2,1H3	InChI=1S/C8H12O/c1-6-8(4-5-9-6)7-2-3-7/h4,6-7H,2-3,5H2,1H3/t6-/m1/s1
