15
gdb 19385	3.06952	2.42883	1.63558	2.1832	66.66	-0.245	-0.0228	0.2221	797.83	0.118923	-362.617329	-362.61066	-362.609716	-362.648028	25.732	
O	-0.0085349666	 0.023767239	-0.0644689774	-0.322204
C	-0.0228140043	 1.216746429	 0.0442984079	 0.373745
C	-1.0827081725	 2.287747769	-0.0346462147	-0.171001
C	-0.8510850724	 3.2803590188	 1.0575597579	-0.235615
N	 0.0022492099	 3.3652089134	-0.1265187608	-0.158013
C	 1.0290085266	 2.2996427475	 0.0723466856	 0.232573
C	 2.3124123093	 2.4456113007	 0.835634369	-0.324188
C	 2.3370065764	 2.2678129566	-0.6605621573	-0.330244
H	-1.9709109633	 2.2910763809	-0.6550509428	 0.125758
H	-1.5773743586	 4.0840824399	 1.136425678	 0.134458
H	-0.4162652744	 2.9563588163	 1.9999692057	 0.129676
H	 2.5331242195	 3.4322835097	 1.2293476665	 0.131141
H	 2.619494511	 1.6174508777	 1.4652583238	 0.135499
H	 2.6450697418	 1.3108957119	-1.067845115	 0.140087
H	 2.5665745377	 3.1339082696	-1.2707015366	 0.138326
148.9873	186.3295	210.2286	273.7373	422.6117	515.1435	612.6952	660.4343	708.8016	767.5078	795.1696	813.8692	895.4613	915.4023	944.5978	975.8037	995.8383	1033.6439	1053.023	1077.4259	1078.662	1120.6837	1149.3965	1194.5669	1211.4647	1229.7328	1292.7846	1361.3743	1449.9074	1485.3197	1499.7684	1888.6448	3109.331	3132.2726	3138.7614	3193.0671	3203.7636	3218.8918	3235.8985
O=C1C2CN2C11CC1	O=C1[C@H]2CN2C21CC2	
InChI=1S/C6H7NO/c8-5-4-3-7(4)6(5)1-2-6/h4H,1-3H2	InChI=1S/C6H7NO/c8-5-4-3-7(4)6(5)1-2-6/h4H,1-3H2/t4-,7?/m1/s1
