19
gdb 71236	2.81702	1.83605	1.66241	0.3264	73.11	-0.2366	0.0694	0.306	919.2132	0.160799	-423.002382	-422.995362	-422.994417	-423.033265	29.281	
C	 0.1374853294	 1.4860091256	-0.1766375852	-0.479769
C	 0.0077632755	-0.0048210499	 0.0088899137	 0.378994
C	-1.3948661967	-0.594509161	-0.1594956749	-0.238558
C	-1.2529790293	-2.138728961	-0.1778231042	-0.219172
C	-0.0337715247	-2.4762660189	 0.6742431174	 0.055529
O	-0.0975377995	-1.6748299811	 1.9013891324	-0.307895
C	 0.708947171	-0.6875485083	 1.2569650094	 0.026786
C	 1.2100460929	-1.6384557508	 0.1811175329	 0.06627
O	 0.9023225711	-0.7558157401	-0.8958143814	-0.335106
H	 1.1692099654	 1.8107399408	-0.012936372	 0.122747
H	-0.1539341745	 1.7744899843	-1.191829621	 0.128795
H	-0.5111191516	 2.0143151422	 0.5302701939	 0.12299
H	-2.0225140956	-0.277408925	 0.6787732258	 0.112849
H	-1.8535327171	-0.2254352175	-1.0818577702	 0.100641
H	-2.1483744025	-2.6261972553	 0.2176077532	 0.103814
H	-1.0930314437	-2.5010447845	-1.1978471929	 0.114079
H	 0.1015454326	-3.5373320303	 0.894832274	 0.078831
H	 1.2866287444	-0.0590236485	 1.9370094011	 0.082084
H	 2.183204753	-2.1243440907	 0.1036614779	 0.086089
198.7099	225.1525	275.0219	285.5184	376.7926	442.1416	478.8605	529.4177	646.0921	693.824	759.054	792.176	808.3957	826.1632	856.0323	889.185	920.1547	948.224	989.0165	998.9716	1034.9549	1038.684	1068.9629	1113.9118	1140.1774	1185.3606	1186.2216	1207.1271	1249.2111	1255.0683	1272.2651	1307.2669	1311.4448	1353.4406	1355.5716	1374.8781	1408.3492	1465.724	1479.626	1483.5804	1493.2246	3033.8995	3050.4334	3058.8592	3087.0605	3092.0361	3095.9081	3105.6963	3109.3384	3111.5844	3114.0212
CC12CCC3OC1C3O2	C[C@]12CC[C@@H]3O[C@H]1[C@@H]3O2	
InChI=1S/C7H10O2/c1-7-3-2-4-5(9-7)6(7)8-4/h4-6H,2-3H2,1H3	InChI=1S/C7H10O2/c1-7-3-2-4-5(9-7)6(7)8-4/h4-6H,2-3H2,1H3/t4-,5+,6-,7-/m0/s1
