21
gdb 95349	3.01669	1.44217	1.21711	1.2175	78.01	-0.2401	0.0795	0.3196	1117.5019	0.183938	-424.222498	-424.21428	-424.213336	-424.255858	31.983	
C	-0.0237774202	 1.5006399105	 0.3503071811	-0.403215
C	-0.014960921	 0.0094330136	 0.0838211005	 0.226839
O	 0.8825085174	-0.2639047502	-0.959075052	-0.246474
C	 0.8365337919	-1.6417807262	-1.318802151	-0.0985
C	 1.3365913375	-2.5185719522	-0.1707547127	-0.062269
C	 2.8789379993	-2.5311100538	 0.0331261366	-0.229609
C	 2.7376256457	-1.4548295862	 1.143038516	-0.241638
C	 1.21241133	-1.7532527451	 1.1902029258	 0.151704
O	 0.3183776632	-0.6675272374	 1.2923210082	-0.295359
H	 0.9876326201	 1.8394032312	 0.5888798496	 0.128985
H	-0.3850391934	 2.0397782584	-0.529253934	 0.119957
H	-0.6774845991	 1.7171267392	 1.198391246	 0.12783
H	-1.0201485692	-0.3386495139	-0.2227670778	 0.05985
H	-0.19832192	-1.9100081857	-1.5853193345	 0.092454
H	 1.4576317871	-1.7511028902	-2.2132428569	 0.107822
H	 0.8553387399	-3.4994111257	-0.2136115113	 0.069874
H	 3.2361836826	-3.4909461165	 0.4142299807	 0.101221
H	 3.4806609685	-2.2614795822	-0.8389985059	 0.099915
H	 3.2981367404	-1.6026062855	 2.0692438432	 0.092952
H	 2.9243762244	-0.4487313934	 0.7650193665	 0.116546
H	 0.9606346947	-2.4257585686	 2.0150095521	 0.081113
36.9369	110.3918	213.8097	254.6167	310.7389	356.5016	376.45	467.5872	506.9447	565.3486	660.7633	743.2547	756.1107	800.1408	845.5466	890.2959	896.1233	943.1823	957.4077	985.2886	1017.7231	1066.5193	1094.255	1102.7363	1115.7824	1147.8173	1174.4415	1192.3932	1196.6974	1247.7883	1262.3074	1265.5274	1281.3349	1309.269	1345.7204	1379.4209	1391.2344	1399.4696	1411.4258	1434.2707	1472.8401	1482.2591	1485.9004	1495.0054	1501.4979	2912.5089	2976.2863	3053.0236	3055.879	3058.0674	3067.7721	3074.7519	3077.2368	3105.098	3133.3533	3136.2031	3138.0741
CC1OCC2CCC2O1	C[C@H]1OC[C@H]2CC[C@H]2O1	
InChI=1S/C7H12O2/c1-5-8-4-6-2-3-7(6)9-5/h5-7H,2-4H2,1H3	InChI=1S/C7H12O2/c1-5-8-4-6-2-3-7(6)9-5/h5-7H,2-4H2,1H3/t5-,6+,7+/m0/s1
