21
gdb 58131	2.79509	0.97985	0.87687	3.2913	75.13	-0.2404	-0.0199	0.2204	1404.7757	0.177451	-461.371678	-461.360558	-461.359614	-461.407913	40.314	
C	 0.1070690452	 1.5619602083	 0.0627947859	-0.422615
C	-0.0130283267	 0.039367081	 0.0507244593	 0.106091
O	 0.7336655084	-0.558246222	 1.1041622864	-0.429748
C	-1.4828519862	-0.4775709768	 0.026811298	 0.309222
C	-2.2801669959	-0.012897269	 1.2471317845	-0.420079
O	-2.1537855935	 0.0789461917	-1.1091239091	-0.460355
C	-1.4696809098	-2.0214037112	-0.068700073	-0.306995
C	-2.8523988003	-2.6324003525	-0.1370304186	 0.149033
O	-3.2145737121	-3.5742903908	 0.5221232534	-0.246401
H	 1.1509991487	 1.853809588	-0.0784094026	 0.125303
H	-0.5001623655	 2.006228624	-0.7288773763	 0.134188
H	-0.2324725211	 1.9786022494	 1.0183590461	 0.112634
H	 0.4585526027	-0.3392054612	-0.8685703708	 0.073394
H	 0.5564571228	-0.0635152212	 1.9110799209	 0.284316
H	-2.3564329756	 1.0763556963	 1.2698327747	 0.129071
H	-3.2959988413	-0.4159163624	 1.220007741	 0.137225
H	-1.808232024	-0.3598812507	 2.1708303673	 0.118575
H	-1.6750309197	-0.1911774984	-1.9015014052	 0.278847
H	-0.9457438196	-2.3012533207	-0.9968755097	 0.103482
H	-0.9150095276	-2.4609671734	 0.7620256119	 0.138222
H	-3.534684449	-2.1465777283	-0.868172824	 0.086593
54.7089	84.9455	88.1514	169.9113	206.9512	243.1294	266.9516	280.6083	293.7071	324.8982	337.4617	357.0011	406.1885	440.6405	483.6122	526.3975	594.0332	725.1236	824.4876	881.4866	928.2981	930.5505	982.3136	1032.4352	1052.5784	1083.654	1104.7442	1138.2777	1167.3611	1191.6296	1226.9355	1294.2085	1307.8316	1339.8043	1384.6298	1401.3518	1413.8584	1421.3167	1430.6432	1460.0178	1487.5808	1489.1717	1498.5769	1509.4546	1827.9053	2897.2985	2989.7923	2997.5772	3037.5937	3050.7493	3106.228	3119.5783	3126.3982	3132.466	3136.5685	3789.3801	3813.0361
CC(O)C(C)(O)CC=O	C[C@@H](O)[C@@](C)(O)CC=O	
InChI=1S/C6H12O3/c1-5(8)6(2,9)3-4-7/h4-5,8-9H,3H2,1-2H3	InChI=1S/C6H12O3/c1-5(8)6(2,9)3-4-7/h4-5,8-9H,3H2,1-2H3/t5-,6+/m1/s1
