15
gdb 48185	5.22398	0.67458	0.6262	3.4206	68.27	-0.2684	-0.093	0.1754	1664.0382	0.111476	-453.994551	-453.985193	-453.984249	-454.030337	31.485	
O	-0.4502394288	 1.0649252945	 0.7887536359	-0.242999
C	 0.2530214304	 1.0821206413	-0.188209881	 0.10713
C	 1.3948987525	 2.0840064922	-0.3808293175	 0.299754
O	 2.0652048055	 2.0813592514	-1.3985846191	-0.35827
N	 1.5497536278	 2.9238040362	 0.6670016327	-0.30605
C	 2.5937282986	 3.9271102168	 0.7047800356	-0.162754
C	 2.2761272575	 5.1232426047	-0.2244935651	-0.334229
C	 3.3078608881	 6.1524470463	-0.1473160763	 0.258987
N	 4.1351102853	 6.9544637208	-0.0614310752	-0.296849
H	 0.1421121686	 0.3836590713	-1.0400000295	 0.125258
H	 0.9044605107	 2.81153893	 1.4355115665	 0.273662
H	 2.7107274392	 4.2687593721	 1.7349448557	 0.138798
H	 3.5358162748	 3.4726561672	 0.3851551193	 0.158956
H	 2.2011582257	 4.7586134737	-1.2532715858	 0.184629
H	 1.3102278742	 5.5632616716	 0.0453870439	 0.153978
47.8308	63.1137	73.4411	160.3542	179.9972	205.4275	269.2803	400.5171	408.7045	508.1263	533.0875	535.882	635.6572	716.3352	770.166	889.1942	959.0986	1017.9922	1027.2105	1090.3463	1115.3174	1232.0922	1267.4289	1302.3308	1342.8314	1363.04	1404.075	1470.2773	1481.8625	1549.3227	1782.293	1823.333	2364.8951	2965.3402	3055.4086	3071.5807	3102.8208	3131.0869	3615.1043
O=CC(=O)NCCC#N	O=CC(=O)NCCC#N	
InChI=1S/C5H6N2O2/c6-2-1-3-7-5(9)4-8/h4H,1,3H2,(H,7,9)	InChI=1S/C5H6N2O2/c6-2-1-3-7-5(9)4-8/h4H,1,3H2,(H,7,9)
