16
gdb 8865	2.30058	1.76796	1.43343	2.0349	67.77	-0.2504	-0.0633	0.187	978.8033	0.126376	-383.706337	-383.69693	-383.695986	-383.740973	32.315	
C	 0.2613468205	 1.2197730429	-1.7431950928	-0.244847
O	 0.1221317214	 0.3005169316	-0.6771331405	-0.2351
C	 1.1428171576	-0.6687776424	-0.6224606751	 0.037227
C	 1.0503405696	-1.3667572928	 0.7348796091	-0.41614
C	 1.027325949	-1.7201509589	-1.7396046492	 0.199048
O	 2.0031113583	-2.24980762	-2.2237075746	-0.282876
C	-0.321869168	-2.0786607262	-2.1458532113	 0.311178
C	-1.4286719357	-2.397052954	-2.4964544674	-0.449177
H	 1.2200848646	 1.7565050231	-1.686934631	 0.112438
H	 0.1916102212	 0.7315427917	-2.7256245799	 0.117182
H	-0.5552920204	 1.9391489566	-1.6521990269	 0.132903
H	 2.1353520827	-0.2078524294	-0.7418331077	 0.092093
H	 1.1540897797	-0.6255108543	 1.5310214489	 0.133223
H	 0.0791392135	-1.8579765517	 0.8433871137	 0.138092
H	 1.841514025	-2.1140619152	 0.8342064182	 0.136917
H	-2.405216979	-2.6805827712	-2.8066927134	 0.21784
35.6812	109.8372	138.6895	168.561	205.6219	218.6321	263.5478	284.518	318.6125	462.3301	497.8966	648.474	665.9376	692.407	715.8859	748.3113	882.5721	984.7686	1068.771	1125.4876	1151.3794	1182.0095	1203.1168	1242.1761	1319.923	1356.737	1397.6784	1479.9491	1482.5001	1491.9684	1497.8716	1503.9965	1768.1373	2209.0797	2985.1979	2996.0753	3039.0156	3049.2724	3123.211	3127.523	3135.6219	3493.8112
COC(C)C(=O)C#C	CO[C@@H](C)C(=O)C#C	
InChI=1S/C6H8O2/c1-4-6(7)5(2)8-3/h1,5H,2-3H3	InChI=1S/C6H8O2/c1-4-6(7)5(2)8-3/h1,5H,2-3H3/t5-/m0/s1
