17
gdb 10553	2.97947	1.37759	1.06302	3.3674	68.95	-0.2745	0.0335	0.308	1118.4135	0.141571	-363.86086	-363.852212	-363.851268	-363.8944	30.909	
O	-0.1472578574	 1.4676244147	 0.0559474367	-0.41851
C	-0.0193669741	 0.0639202731	 0.2099440715	-0.077866
C	-1.342582167	-0.5577216928	-0.2281582812	-0.262268
C	-1.3776280274	-2.0719834785	-0.0729555213	 0.179108
C	-1.7398609545	-2.6739506629	 1.2797936468	-0.285479
C	-2.7159979111	-2.7629396007	 0.1464574737	-0.300864
C	-0.4053119643	-2.7930528558	-0.8586556643	 0.243059
N	 0.3811620067	-3.3582049231	-1.4923537881	-0.353534
H	 0.7044274612	 1.8709781975	 0.2464672275	 0.290184
H	 0.7999892939	-0.33798611	-0.4047146099	 0.112554
H	 0.1907114936	-0.2095255999	 1.2567137468	 0.089146
H	-2.1500542849	-0.1240927711	 0.3715451057	 0.112551
H	-1.5350000128	-0.2819564065	-1.2706030043	 0.126084
H	-1.2245916382	-3.5760575357	 1.5863976834	 0.14123
H	-1.9359841638	-1.9681301725	 2.0793036456	 0.130967
H	-3.5887303352	-2.1198583953	 0.1591284783	 0.131741
H	-2.8670625647	-3.7259945005	-0.325849187	 0.141897
78.9531	96.0168	140.3153	198.9777	229.7906	252.8715	323.0046	380.1417	404.3091	572.9024	590.2058	709.9294	790.5149	799.3822	883.2285	937.3447	955.4326	967.6573	1035.279	1066.5381	1084.4755	1091.4533	1106.7494	1194.7786	1212.2315	1251.2545	1285.0511	1301.6898	1339.0439	1355.1924	1464.7984	1467.6707	1486.2497	1500.0519	1529.47	2346.3987	2969.82	3008.6415	3045.6821	3091.6371	3143.3337	3147.1898	3229.0725	3242.8037	3834.7862
OCCC1(CC1)C#N	OCCC1(CC1)C#N	
InChI=1S/C6H9NO/c7-5-6(1-2-6)3-4-8/h8H,1-4H2	InChI=1S/C6H9NO/c7-5-6(1-2-6)3-4-8/h8H,1-4H2
