21
gdb 81041	2.4849	1.70112	1.27843	2.5189	76.93	-0.2459	0.0681	0.314	1059.346	0.184329	-424.228569	-424.220399	-424.219455	-424.260479	33.616	
O	-0.2608930131	 1.3670631405	-0.0318435916	-0.470435
C	-0.0829136351	-0.0396103163	 0.0259054218	 0.097638
C	 0.0906797198	-0.6109629678	 1.4586783583	-0.064976
C	-1.4578837718	-0.5139604721	 1.6072093114	-0.299228
C	-1.4955778662	-0.6818602836	 0.0502667214	 0.429884
O	-2.496140037	-0.0662780919	-0.7054256607	-0.501689
C	-1.3858271068	-2.1587596683	-0.3395054198	-0.244479
C	-0.5506039627	-2.9443391948	 0.6979129264	-0.208692
C	 0.5520003244	-2.0753225757	 1.3501326883	-0.209578
H	 0.559924542	 1.7952504001	 0.2288882347	 0.286025
H	 0.623500938	-0.3786932728	-0.7461357153	 0.053393
H	 0.7099245471	-0.0263947076	 2.1450155542	 0.054934
H	-1.9774724368	-1.2455100851	 2.2298332146	 0.090437
H	-1.7657964712	 0.4937189262	 1.888827538	 0.100817
H	-2.3238207626	 0.8827391993	-0.6594487063	 0.288201
H	-2.3943266208	-2.5788030719	-0.4142575796	 0.10647
H	-0.9434743455	-2.2201864926	-1.3408838332	 0.099454
H	-1.221490803	-3.3005329082	 1.4859399934	 0.107243
H	-0.1181995938	-3.8415618418	 0.245081139	 0.094904
H	 1.4769706492	-2.1144669373	 0.760023646	 0.09405
H	 0.798623706	-2.4756935582	 2.339502859	 0.095626
179.792	213.4108	227.8294	261.3641	278.7765	359.7056	397.8443	422.0844	448.3089	476.3601	515.7869	621.0766	666.1771	794.6616	822.5357	829.1524	891.3116	900.9119	930.8764	951.8605	964.2954	1014.0396	1044.4564	1066.0431	1101.0341	1117.8231	1135.2141	1167.0784	1188.7279	1196.5098	1218.1117	1232.4971	1265.1893	1288.414	1305.2126	1320.6846	1352.9192	1365.4317	1368.6188	1408.8708	1418.4913	1482.8006	1491.0172	1492.9218	1517.8928	2988.0454	3019.0208	3033.8068	3046.1051	3059.2464	3066.736	3074.48	3076.6124	3092.1976	3134.8801	3778.8168	3826.9864
OC1C2CC1(O)CCC2	O[C@H]1[C@H]2C[C@]1(O)CCC2	
InChI=1S/C7H12O2/c8-6-5-2-1-3-7(6,9)4-5/h5-6,8-9H,1-4H2	InChI=1S/C7H12O2/c8-6-5-2-1-3-7(6,9)4-5/h5-6,8-9H,1-4H2/t5-,6+,7-/m1/s1
