21
gdb 90431	2.16341	1.70091	1.51046	2.541	77.69	-0.2404	0.0525	0.2929	1035.2481	0.183349	-424.193329	-424.184855	-424.183911	-424.225704	34.136	
C	-0.1164199055	 1.626601526	-0.0628423032	-0.418424
C	 0.0674729155	 0.115910193	 0.0060786275	 0.007595
C	 1.0304242859	-0.6324070146	-0.9778851896	 0.091627
O	 2.0966763134	 0.1194764782	-1.5014986495	-0.4351
C	 1.3810995569	-1.640631631	 0.1864991991	-0.044894
C	 2.7654470568	-1.4305988956	 0.8239907863	-0.269221
C	 2.1830401928	-0.2379935991	 1.6427543556	 0.072311
O	 2.5909714636	 1.0529582809	 1.1879874795	-0.421264
C	 0.7351161642	-0.6242475727	 1.1933661347	-0.058903
H	 0.8315030189	 2.1631487828	-0.034446072	 0.130814
H	-0.6400071178	 1.90305043	-0.9845795155	 0.111392
H	-0.7217889498	 1.9768669783	 0.7807268498	 0.107343
H	-0.9177385122	-0.355959843	-0.105394858	 0.074673
H	 0.5407115392	-1.093363079	-1.8396366506	 0.076794
H	 2.4465428486	 0.66520904	-0.7807914231	 0.285118
H	 1.01283217	-2.6580470989	 0.0514399002	 0.060821
H	 3.0688347959	-2.2634590374	 1.4641654451	 0.099021
H	 3.5838142722	-1.1848325066	 0.1414105667	 0.103846
H	 2.3353696386	-0.3084056408	 2.7262469995	 0.07657
H	 3.5138187106	 1.1729925024	 1.4371622165	 0.290968
H	 0.0907288025	-0.9254101928	 2.0212882509	 0.058912
146.6422	173.7634	195.6521	235.8497	251.3237	305.1988	359.6827	429.5529	485.5514	515.6997	591.0192	626.266	642.7275	735.0697	751.1083	817.0844	842.8459	877.7642	913.7965	960.398	987.1323	1006.6361	1047.3551	1058.4982	1090.963	1128.2715	1142.3114	1153.0272	1178.0741	1186.3452	1213.3756	1234.791	1256.0767	1276.9732	1288.605	1315.2528	1336.2204	1342.2059	1370.7794	1406.9567	1415.5179	1466.8501	1480.3343	1496.3827	1503.6233	3012.2359	3023.1247	3036.8101	3053.9	3070.6218	3086.4255	3091.0799	3102.2198	3110.6815	3152.5186	3694.5104	3807.2718
CC1C(O)C2CC(O)C12	C[C@H]1[C@@H](O)[C@H]2C[C@@H](O)[C@@H]12	
InChI=1S/C7H12O2/c1-3-6-4(7(3)9)2-5(6)8/h3-9H,2H2,1H3	InChI=1S/C7H12O2/c1-3-6-4(7(3)9)2-5(6)8/h3-9H,2H2,1H3/t3-,4+,5-,6+,7-/m1/s1
