17
gdb 97535	2.67483	0.79127	0.72273	3.4186	78.35	-0.2634	0.0035	0.2669	1621.8365	0.133744	-417.97044	-417.959865	-417.958921	-418.007452	36.681	
C	-0.026645577	 1.5230871227	 0.0386280615	-0.386458
C	 0.0334061579	-0.021507488	-0.0038008704	-0.117988
N	 0.7006015925	-0.4932350744	 1.224873318	-0.503522
C	-1.3506116317	-0.5532885487	 0.0155863171	 0.320607
N	-2.4297880287	-0.9643763372	 0.0187602219	-0.338149
C	 0.6893476372	-0.4718886265	-1.2456644576	 0.11456
C	 1.2797233227	-0.8357859425	-2.2310901083	 0.025686
C	 1.9507905109	-1.3327992725	-3.4342813911	-0.198021
O	 2.1492156533	-2.7370112286	-3.4296095288	-0.396981
H	 0.9919746812	 1.9197347857	 0.0144680987	 0.130137
H	-0.5728118572	 1.9123744118	-0.8220362357	 0.145918
H	-0.5157479842	 1.8388296282	 0.9619237318	 0.150606
H	 0.7726456262	-1.5071165612	 1.2011363103	 0.247594
H	 1.6545396233	-0.1402448664	 1.2182232321	 0.240466
H	 1.3868908562	-1.0044749075	-4.3216203568	 0.127428
H	 2.9495159556	-0.8896123986	-3.5138922903	 0.14537
H	 1.2879296618	-3.1530582065	-3.3163437024	 0.292746
20.3629	73.9289	96.0818	182.6939	194.7024	210.991	240.8377	270.8154	296.4395	349.2348	377.7055	455.5612	478.9209	527.6206	595.568	619.803	666.7688	838.1922	893.7728	966.9325	981.4282	1024.2116	1046.9117	1079.8561	1176.4787	1215.4106	1218.692	1328.5647	1365.1304	1401.9582	1416.4943	1485.0872	1485.9367	1487.5441	1658.4491	2351.8045	2364.8245	2983.3111	3055.8068	3066.4697	3136.6634	3154.8105	3484.335	3565.4897	3814.4186
CC(N)(C#N)C#CCO	C[C@@](N)(C#N)C#CCO	
InChI=1S/C6H8N2O/c1-6(8,5-7)3-2-4-9/h9H,4,8H2,1H3	InChI=1S/C6H8N2O/c1-6(8,5-7)3-2-4-9/h9H,4,8H2,1H3/t6-/m0/s1
