19
gdb 79999	2.7361	1.7816	1.55366	1.5164	78.98	-0.2223	-0.0004	0.2219	956.0399	0.16018	-385.789333	-385.782234	-385.78129	-385.820225	29.981	
C	-0.0291341657	 1.6659369102	 0.0409467956	-0.441342
C	 0.0609376775	 0.1517695245	 0.0116320903	 0.009216
C	 1.1962695352	-0.6034714594	-0.7543515541	-0.150221
C	 2.433989008	-0.0434045555	 0.0207012085	-0.075735
C	 2.0969027251	-0.0898996364	 1.3210936697	-0.195142
C	 0.7067808457	-0.7029766481	 1.1963782529	 0.406193
O	-0.1945694205	-1.4405551074	 2.0174168387	-0.355956
C	-0.3804400128	-2.3671465018	 0.8812702758	-0.162933
C	 0.9216439891	-1.8315685587	 0.1957942836	-0.056192
H	 0.9236092104	 2.1316456372	 0.3038708966	 0.118098
H	-0.3355773789	 2.0517288544	-0.9382004816	 0.112488
H	-0.7815079537	 1.9897831839	 0.7683392252	 0.119875
H	-0.9199505561	-0.2575669074	-0.2446905732	 0.073622
H	 1.2616059029	-0.6430067979	-1.8422845699	 0.061637
H	 3.3318563961	 0.3492445967	-0.4347454284	 0.103593
H	 2.6371457532	 0.2287261182	 2.1996946357	 0.115015
H	-0.3077246824	-3.4034151651	 1.2204271151	 0.115642
H	-1.3431288652	-2.2068781755	 0.3881846251	 0.116619
H	 1.7682757122	-2.4979944517	 0.3580562343	 0.085523
204.7488	224.3447	263.2303	319.455	364.1623	431.7079	531.7644	555.028	582.4817	653.5354	719.4737	750.5491	780.2994	798.2062	855.9532	883.8769	892.656	911.8826	945.4029	1007.681	1028.878	1034.7022	1046.0579	1064.3115	1084.1124	1144.2459	1152.6412	1177.7659	1186.7646	1204.6641	1226.8282	1239.5874	1308.3218	1325.8495	1343.306	1401.5262	1414.6506	1493.7259	1500.7538	1508.7346	1576.9328	3031.3756	3050.5306	3071.4764	3088.401	3100.8759	3105.9986	3118.3088	3121.1305	3226.6114	3255.1852
CC1C2C=CC11OCC21	C[C@H]1[C@H]2C=C[C@]31OC[C@@H]23	
InChI=1S/C8H10O/c1-5-6-2-3-8(5)7(6)4-9-8/h2-3,5-7H,4H2,1H3	InChI=1S/C8H10O/c1-5-6-2-3-8(5)7(6)4-9-8/h2-3,5-7H,4H2,1H3/t5-,6+,7-,8+/m0/s1
