17
gdb 66368	2.38072	1.4687	1.37508	4.0046	68.14	-0.2801	0.0231	0.3032	1034.5542	0.137714	-455.144021	-455.135821	-455.134876	-455.176566	30.981	
N	-0.0504568543	 1.4495383161	 0.0612846081	-0.533524
C	 0.0125099946	-0.0084912681	-0.0202404717	 0.047467
C	 0.7251459941	-0.5560592327	 1.240461326	-0.096838
O	 0.6241828936	-1.9617887404	 1.3028115289	-0.229096
C	-0.7170303121	-2.3801904246	 1.3045903767	 0.018445
O	-1.4043807612	-1.9846409979	 0.1448460281	-0.229095
C	-1.4258998953	-0.5802933114	 0.012572034	-0.096837
C	 0.7115918339	-0.4808643261	-1.2355862066	 0.270238
N	 1.2692409744	-0.7679906812	-2.2068273343	-0.339208
H	 0.888267076	 1.8400932816	 0.0472640819	 0.247225
H	-0.5221739798	 1.8242010021	-0.7578875328	 0.247226
H	 1.7899155005	-0.3094935501	 1.232818354	 0.126479
H	 0.253075973	-0.0767867055	 2.1121507743	 0.11233
H	-0.7122809792	-3.4704675153	 1.3177868001	 0.131562
H	-1.2317384082	-1.9790200521	 2.1983562023	 0.084817
H	-1.9446051045	-0.1015401989	 0.8576372118	 0.11233
H	-1.9647482854	-0.3517931954	-0.9104757708	 0.126479
115.2376	145.0783	220.1392	241.2664	278.9585	315.3824	352.7153	436.4204	445.9871	466.0628	601.9083	610.3071	665.8538	741.6199	881.3125	944.1883	948.4202	962.6873	989.0616	1069.3986	1075.309	1112.2607	1155.9898	1199.9919	1231.3193	1238.5964	1320.959	1325.0328	1333.8729	1371.2672	1407.302	1442.0906	1491.8459	1496.8337	1509.8549	1662.4848	2345.5764	2927.5284	2989.6081	2998.245	3099.4078	3101.0096	3133.6624	3486.3981	3560.7914
NC1(COCOC1)C#N	NC1(COCOC1)C#N	
InChI=1S/C5H8N2O2/c6-1-5(7)2-8-4-9-3-5/h2-4,7H2	InChI=1S/C5H8N2O2/c6-1-5(7)2-8-4-9-3-5/h2-4,7H2
