15
gdb 20244	4.07275	3.05851	2.51786	0.7841	69.63	-0.211	-0.0334	0.1776	615.8262	0.1211	-325.403235	-325.398179	-325.397235	-325.43185	22.122	
C	-0.1924724592	 1.2950254581	-0.115183905	-0.264674
C	 1.3846567879	 1.2142182836	-0.0151929808	 0.042829
C	 1.3121037603	 0.287557057	 1.216118507	-0.088427
C	 2.3444890188	-0.6041300392	 0.5438950182	-0.04348
C	 1.5634480325	-1.259640199	-0.5252353851	-0.051121
C	 0.1293102139	-1.0852948609	-0.3275517047	-0.108663
C	-0.0432361899	-0.0738977469	 0.5682544217	 0.000679
N	 2.2314028166	 0.1615594961	-0.7466468962	-0.196242
H	-0.5359931714	 2.1346388291	 0.5005276635	 0.106744
H	-0.678384991	 1.3124982673	-1.0915515831	 0.115781
H	 1.9471995727	 2.149712474	-0.0066849635	 0.104265
H	 1.3577293124	 0.637849024	 2.2436710294	 0.079644
H	 3.2923336745	-0.9599440001	 0.9291360927	 0.097906
H	 2.017184466	-1.99451742	-1.1789206107	 0.105038
H	-0.564476414	-1.262050733	-1.1440471334	 0.09972
339.511	454.0921	518.6847	571.3331	653.7182	688.0224	735.4687	772.5556	786.858	818.4079	864.3976	870.5163	886.5192	921.193	958.6897	989.0573	1002.5786	1035.9353	1038.956	1073.8898	1091.6275	1117.5055	1156.1294	1177.8138	1198.5042	1239.8087	1249.5666	1268.2574	1329.2341	1353.2795	1489.5877	1541.969	3034.6738	3101.1015	3126.5218	3148.2085	3167.9367	3184.9889	3199.6101
C1C2C3C4C(C=C13)N24	C1[C@H]2[C@@H]3[C@H]4[C@@H]([CH][C]13)N24	
InChI=1S/C7H7N/c1-3-2-5-7-6(3)4(1)8(5)7/h2,4-7H,1H2	InChI=1S/C7H7N/c1-3-2-5-7-6(3)4(1)8(5)7/h2,4-7H,1H2/t4-,5+,6+,7+,8?/m0/s1
