14
gdb 44264	3.23928	1.49851	1.21329	2.8118	61.48	-0.2641	-0.0141	0.25	979.9267	0.102851	-473.878796	-473.871776	-473.870832	-473.910761	26.04	
O	-0.1607653248	 0.0484698812	 0.1772983871	-0.338931
C	-0.0696758164	 1.233707823	 0.0357639624	 0.420584
N	-1.0003463385	 2.2401275708	-0.1411350111	-0.31899
C	-0.023290637	 3.3370626617	-0.0425446455	-0.128979
C	 1.0926237338	 2.2692632251	 0.020728906	-0.214139
C	 1.7706556065	 2.4911055349	 1.3772495325	-0.101544
O	 0.9200265346	 3.3820151061	 2.1234678395	-0.219957
C	-0.0146451622	 3.9861626344	 1.3432597076	 0.441671
O	-0.7313318264	 4.8556492406	 1.7439195889	-0.333136
H	-1.9935979236	 2.2486694891	 0.0498021934	 0.267366
H	-0.0620730906	 4.0662100684	-0.851937471	 0.12185
H	 1.7822761146	 2.1845383316	-0.8171219808	 0.122623
H	 1.881131676	 1.568088826	 1.951173104	 0.151303
H	 2.7518479139	 2.9643175472	 1.272054517	 0.130278
82.8914	132.3804	219.7319	264.2469	439.0375	453.1286	497.6779	610.2738	667.515	721.0194	759.5334	788.7934	842.1366	895.843	920.1369	997.5722	1015.5784	1055.5487	1075.993	1159.5099	1177.4559	1185.4065	1229.2048	1264.6153	1285.7153	1318.9831	1360.4408	1402.3397	1519.1993	1881.094	1907.6997	3055.2012	3111.3783	3116.9048	3140.8395	3591.3738
O=C1NC2C1COC2=O	O=C1N[C@@H]2[C@H]1COC2=O	
InChI=1S/C5H5NO3/c7-4-2-1-9-5(8)3(2)6-4/h2-3H,1H2,(H,6,7)	InChI=1S/C5H5NO3/c7-4-2-1-9-5(8)3(2)6-4/h2-3H,1H2,(H,6,7)/t2-,3-/m1/s1
