16
gdb 67349	2.9409	1.95041	1.3718	3.0977	67.6	-0.2459	0.0024	0.2482	913.8103	0.126405	-437.87237	-437.865394	-437.86445	-437.903751	27.566	
N	-0.0788611193	 1.4778567623	 0.0060438165	-0.605657
C	-0.0303450942	 0.0497827808	-0.0258884002	 0.150261
C	 0.0932809073	-0.7953561767	 1.3036496395	-0.106087
C	-1.4039982345	-0.5363528748	 1.5913950648	-0.26555
C	-1.3482387627	-0.8167077139	 0.0715141076	-0.106089
C	-0.3081788246	-1.9343602686	 0.3335613277	 0.123523
O	 0.6279480733	-2.0054095895	-0.7605165144	-0.248511
C	 0.8438568004	-0.6832391535	-1.0356321518	 0.407324
O	 1.5679298355	-0.2659224835	-1.8908335231	-0.353186
H	 0.8574165488	 1.8478991017	 0.1499844012	 0.243219
H	-0.3739742522	 1.8295995233	-0.9013966522	 0.243217
H	 0.9376888438	-0.7839689567	 1.9935847471	 0.089893
H	-1.9231071583	-1.2721430612	 2.2114804492	 0.098612
H	-1.6568817216	 0.4859465972	 1.8695456435	 0.130702
H	-2.1612086912	-0.8298764646	-0.6551744874	 0.089895
H	-0.5818980605	-2.9300028622	 0.6709949319	 0.108434
95.0953	179.9789	279.56	350.1257	351.6151	421.9325	541.8778	614.8078	691.8734	695.6267	734.702	831.2093	845.9587	859.4975	903.697	915.0573	928.0251	971.8455	1031.8535	1041.8919	1059.1897	1086.8238	1111.6598	1142.2873	1171.5337	1186.0915	1217.7427	1228.9665	1274.7605	1290.5636	1330.4047	1373.2886	1507.6636	1661.5208	1900.1833	3065.7111	3112.9904	3115.0731	3151.1696	3171.4579	3486.4102	3553.7536
NC12C3CC1C3OC2=O	N[C@@]12[C@H]3C[C@@H]1[C@H]3OC2=O	
InChI=1S/C6H7NO2/c7-6-2-1-3(6)4(2)9-5(6)8/h2-4H,1,7H2	InChI=1S/C6H7NO2/c7-6-2-1-3(6)4(2)9-5(6)8/h2-4H,1,7H2/t2-,3+,4-,6-
