12
gdb 11218	4.84563	1.49981	1.32605	3.59	50.62	-0.284	-0.0621	0.2219	875.4769	0.083483	-455.66435	-455.657522	-455.656578	-455.696451	23.26	
O	-0.8105300894	 0.8145324211	 0.5219375636	-0.220509
C	 0.2394150149	 0.8085125915	-0.0614884453	 0.12805
C	 1.2771861328	 1.9226373693	 0.0871732473	-0.004981
C	 1.3752361909	 2.492740305	 1.5104936424	-0.118949
O	 2.5579277634	 1.873048478	 2.0225051926	-0.238802
C	 3.2741735635	 1.315619359	 1.0165296446	 0.508396
O	 4.3469800425	 0.8220224225	 1.1277671013	-0.358684
O	 2.5804645008	 1.3993558364	-0.1603728511	-0.250697
H	 0.5370435446	 0.0022718628	-0.7640144069	 0.119217
H	 1.0591080428	 2.6911788634	-0.6628606879	 0.139881
H	 1.5038429703	 3.5783575785	 1.524201291	 0.135692
H	 0.5161055928	 2.2103107424	 2.1208397284	 0.161384
61.8884	104.7535	152.4702	259.729	383.0616	500.1732	592.028	725.616	745.8565	773.9259	848.8976	901.2476	945.5049	1045.7912	1078.3694	1104.3516	1120.0361	1142.6904	1222.5472	1307.8303	1341.9288	1396.6349	1397.9188	1526.9188	1839.1539	1938.5058	2927.9926	3053.8677	3070.2456	3135.0105
O=CC1COC(=O)O1	O=C[C@H]1COC(=O)O1	
InChI=1S/C4H4O4/c5-1-3-2-7-4(6)8-3/h1,3H,2H2	InChI=1S/C4H4O4/c5-1-3-2-7-4(6)8-3/h1,3H,2H2/t3-/m0/s1
