17
gdb 79873	2.99137	1.60865	1.38606	1.5446	67.16	-0.2294	0.0701	0.2994	962.145	0.136206	-458.90823	-458.90071	-458.899766	-458.939769	29.884	
O	-0.0475464587	 1.4472167243	-0.0961447617	-0.433776
C	-0.0037379296	 0.0441609373	-0.0318086219	 0.068182
C	 0.0006846559	-0.6389827906	 1.3651835159	-0.151963
C	-1.4832044213	-0.1867953926	 1.5778908453	-0.125188
C	-2.1843492141	-1.3274275277	 2.2989320802	-0.123198
O	-1.6015848881	-2.4697372826	 1.640499155	-0.28819
C	-0.6973807398	-1.8691907203	 0.7265450523	 0.050434
C	-1.3691766107	-0.633309797	 0.0610097918	 0.36826
O	-2.3365373229	-0.6063926236	-0.9178689252	-0.476396
H	 0.8500794447	 1.7807990069	-0.0048469849	 0.286218
H	 0.6901364138	-0.3748520304	-0.7734408414	 0.067999
H	 0.7930422242	-0.6487582657	 2.109955118	 0.079874
H	-1.7133738395	 0.8453680169	 1.8250462476	 0.094218
H	-1.972572107	-1.3678483388	 3.3744858908	 0.105081
H	-3.273334159	-1.326570949	 2.1581739277	 0.09928
H	-0.1592033889	-2.6257122067	 0.157331142	 0.087016
H	-2.9691448588	-1.3106508706	-0.7351463014	 0.292148
186.9328	212.2473	253.9843	255.3954	270.5016	286.7776	406.5459	529.1085	550.2931	653.2209	727.609	755.5062	772.1589	829.4377	914.0983	943.5913	954.4577	961.1225	991.9999	1012.432	1029.6716	1071.8937	1090.6017	1121.1521	1141.1592	1171.4726	1181.7293	1188.3755	1221.7177	1266.4973	1271.8954	1304.5126	1335.1607	1372.3205	1388.3701	1482.145	1523.4735	3011.2858	3012.5364	3049.534	3137.4572	3148.856	3172.6112	3799.9573	3825.5428
OC1C2C3COC2C13O	O[C@H]1[C@H]2[C@@H]3CO[C@H]2[C@]13O	
InChI=1S/C6H8O3/c7-4-3-2-1-9-5(3)6(2,4)8/h2-5,7-8H,1H2	InChI=1S/C6H8O3/c7-4-3-2-1-9-5(3)6(2,4)8/h2-5,7-8H,1H2/t2-,3+,4-,5+,6+/m0/s1
