18
gdb 16943	3.8182	2.02335	1.8558	0.3016	75.94	-0.2112	0.0045	0.2157	817.5113	0.156088	-310.666194	-310.659693	-310.658748	-310.696383	26.941	
C	-0.0325019464	 1.4990610539	 0.0420812432	-0.510587
C	-0.0474476166	 0.0103135083	-0.0319513986	 0.361268
C	-0.0689233828	-0.8013738626	-1.091280602	-0.192401
C	 0.0209233091	-2.2503268432	-0.571975824	-0.10092
C	-0.8396207138	-2.0803715161	 0.7164589362	-0.192949
C	 0.0499267902	-0.9036526717	 1.2160145505	-0.152931
C	 1.4183886193	-1.6136056739	 1.1627813814	-0.080019
C	 1.4011391301	-2.4165434366	 0.0991407278	-0.068916
H	 0.893654471	 1.8617899288	 0.5085586685	 0.124592
H	-0.1101613683	 1.9534618186	-0.9498598573	 0.122772
H	-0.8580742959	 1.880415103	 0.6568550656	 0.122658
H	-0.0777891287	-0.5238382209	-2.1374187391	 0.089177
H	-0.2655679124	-3.030603482	-1.2767425624	 0.055336
H	-1.8721289901	-1.7856498988	 0.5086117655	 0.09031
H	-0.8117688581	-2.9524167666	 1.3761741272	 0.090389
H	-0.208116352	-0.4325906697	 2.1653432599	 0.053044
H	 2.2319839599	-1.4277423461	 1.851019083	 0.094493
H	 2.1988724255	-3.0376976046	-0.2857217554	 0.094684
167.1757	190.9744	292.3374	447.6481	463.0711	525.3713	574.2097	601.7243	721.706	754.3748	804.2369	813.4261	865.0916	888.1343	895.4471	915.2262	926.5565	944.6108	960.1272	1010.432	1039.7943	1064.9434	1100.2471	1131.0951	1148.9928	1208.4586	1232.2133	1249.4305	1265.2294	1273.3453	1295.5073	1336.4869	1412.3504	1478.0258	1486.1798	1493.1303	1633.7479	1702.4152	3008.9357	3049.9263	3053.0192	3103.5671	3106.1824	3110.3791	3116.0603	3207.1112	3212.1856	3233.9998
CC1=CC2CC1C=C2	CC1=C[C@@H]2C[C@H]1C=C2	
InChI=1S/C8H10/c1-6-4-7-2-3-8(6)5-7/h2-4,7-8H,5H2,1H3	InChI=1S/C8H10/c1-6-4-7-2-3-8(6)5-7/h2-4,7-8H,5H2,1H3/t7-,8-/m1/s1
