20
gdb 59127	3.33885	1.37242	1.25533	1.5195	77.4	-0.2411	0.0819	0.323	1087.9637	0.171519	-403.076239	-403.068158	-403.067214	-403.109027	31.994	
C	 0.034899157	 1.5307909458	-0.2078383904	-0.403268
C	 0.0899013336	 0.0319610488	 0.1054325674	 0.089971
O	 0.8185122844	-0.2004372706	 1.307223319	-0.427043
C	-1.3200618207	-0.5747957707	 0.1523342334	 0.075789
C	-1.6293541719	-2.0848672847	 0.1065249531	-0.124013
C	-0.861346911	-2.6783326756	 1.319381702	-0.240573
C	-1.7750187851	-1.8020256835	 2.1718886131	-0.039988
C	-2.7960711806	-1.7175138265	 1.1088171499	-0.048975
N	-2.0457984007	-0.4797766352	 1.470301995	-0.186594
H	 1.039885589	 1.9585178967	-0.1674450683	 0.121302
H	-0.3840066682	 1.7146882416	-1.2028259849	 0.111214
H	-0.5936471033	 2.0508059606	 0.5242756791	 0.125792
H	 0.663441795	-0.4804102863	-0.6783717344	 0.087509
H	 0.2665375649	 0.1237361001	 2.0291253105	 0.290394
H	-1.9506773229	-0.0555154933	-0.5781693417	 0.078643
H	-1.7032893705	-2.6290742275	-0.8334763884	 0.069957
H	-1.1177158266	-3.7320544354	 1.4606806569	 0.100228
H	 0.2174595591	-2.528347745	 1.3736289888	 0.124276
H	-1.9035652701	-1.7837546832	 3.2461384357	 0.09677
H	-3.8753005411	-1.7909803062	 1.0899609041	 0.09861
47.7075	175.0615	196.9094	253.9639	312.9262	349.3278	403.9138	434.4901	519.5952	630.0134	696.1027	762.96	785.4138	833.7849	840.5328	883.5015	908.3615	927.4892	952.0988	977.6354	988.4159	1018.7786	1038.1105	1060.1249	1064.5772	1096.8421	1127.7335	1140.3445	1162.2983	1169.6425	1207.7624	1243.3266	1256.5709	1293.9369	1301.4171	1329.4228	1347.5098	1398.3292	1404.623	1425.0847	1486.5137	1492.031	1496.3192	3025.1633	3030.2934	3043.0702	3064.7095	3099.8744	3120.6719	3129.4521	3134.7714	3197.1784	3211.5935	3789.644
CC(O)C1C2CC3C2N13	C[C@@H](O)[C@H]1[C@H]2C[C@@H]3[C@H]2N13	
InChI=1S/C7H11NO/c1-3(9)6-4-2-5-7(4)8(5)6/h3-7,9H,2H2,1H3	InChI=1S/C7H11NO/c1-3(9)6-4-2-5-7(4)8(5)6/h3-7,9H,2H2,1H3/t3-,4-,5-,6+,7+,8?/m1/s1
