20
gdb 57256	2.11722	1.58381	1.23331	4.479	78.15	-0.2756	0.0374	0.3129	1127.4095	0.16807	-403.151562	-403.141536	-403.140592	-403.186051	37.251	
C	-0.3099327683	 1.4950726698	-0.2088020027	-0.416287
C	 0.0231488749	-0.0018606408	 0.0034194378	 0.012528
C	 0.83715354	-0.2025955309	 1.3031713791	-0.420859
C	-1.2523135989	-0.7238682319	 0.1552930794	 0.291172
N	-2.251104807	-1.2815758239	 0.3198312504	-0.359114
C	 0.7876996084	-0.5482003558	-1.2264741706	 0.413367
C	 2.1901603042	-0.013909124	-1.4431160139	-0.479397
C	 0.4348789855	-1.8496943057	-1.8164560941	-0.239711
O	-0.0078397201	-0.6215082782	-2.4109737538	-0.274424
H	 0.606542802	 2.0899855178	-0.2347269258	 0.123333
H	-0.8490946402	 1.6340175991	-1.1482382387	 0.154898
H	-0.9315081753	 1.8661581021	 0.6098322846	 0.135108
H	 0.2530011181	 0.1194960198	 2.1686851057	 0.139838
H	 1.1052451278	-1.2532201909	 1.4439515322	 0.135262
H	 1.753337656	 0.3918940275	 1.2713914199	 0.128494
H	 2.87783212	-0.3569241558	-0.6648049227	 0.130064
H	 2.5595943328	-0.367783453	-2.4080165383	 0.137717
H	 2.2106290417	 1.0794879826	-1.4591051491	 0.131223
H	 1.1908930132	-2.3914713446	-2.3831796842	 0.112889
H	-0.3509936049	-2.4599959332	-1.3792291153	 0.143897
50.0406	155.6626	179.2646	191.1943	211.6346	255.71	266.7684	303.1864	315.4921	378.0853	391.4171	417.2749	491.3155	566.0407	591.4655	638.8877	790.2727	846.0341	907.12	925.3598	944.1438	951.0695	1024.5695	1034.395	1100.1324	1137.8467	1166.7498	1169.8992	1179.7806	1224.1975	1290.5651	1383.7695	1396.3427	1413.0097	1424.4242	1476.6587	1485.6281	1493.7594	1496.6472	1504.0336	1509.8679	1529.6081	2354.6017	3048.5641	3049.7015	3055.3451	3093.3083	3116.0056	3126.3198	3127.8259	3129.3122	3133.6983	3141.009	3189.0855
CC(C)(C#N)C1(C)CO1	CC(C)(C#N)[C@@]1(C)CO1	
InChI=1S/C7H11NO/c1-6(2,4-8)7(3)5-9-7/h5H2,1-3H3	InChI=1S/C7H11NO/c1-6(2,4-8)7(3)5-9-7/h5H2,1-3H3/t7-/m1/s1
