17
gdb 34387	2.57333	1.63039	1.30226	3.4618	77.79	-0.242	-0.0032	0.2387	1016.3188	0.138532	-380.872814	-380.865422	-380.864478	-380.904632	28.839	
N	-0.0613783371	-1.1663749461	-0.0662851318	-0.346171
C	-0.0531151578	-0.0109837843	-0.0111440878	 0.213908
C	-0.0441169176	 1.4407543897	 0.0480035427	 0.144902
C	-0.2947912681	 2.179890031	-1.3074954899	-0.209007
N	 0.8440172694	 3.0776426365	-1.0098101361	-0.315358
C	 1.3355662108	 2.200496218	 0.080557211	-0.033381
C	 1.4350224131	 2.9025683025	 1.444367685	-0.260956
C	 0.0303574416	 2.7878090544	 1.9884973962	-0.048901
C	-0.759847028	 2.0051503348	 1.2555877582	-0.144896
H	-0.1496254552	 1.5138439806	-2.1663826853	 0.114055
H	-1.2591372365	 2.6888219703	-1.4038808945	 0.117087
H	 1.4928813545	 3.2017808389	-1.777752011	 0.226642
H	 2.2077857688	 1.5913033197	-0.173259682	 0.086008
H	 2.163825783	 2.4252444095	 2.1123607374	 0.11361
H	 1.7471555196	 3.9443442454	 1.3100834376	 0.121306
H	-0.2857509652	 3.2994797932	 2.8909650967	 0.107565
H	-1.7958974353	 1.7671588058	 1.4641995038	 0.113585
119.8031	155.5493	184.6553	256.182	371.9607	446.5841	520.2789	544.0883	559.8355	637.9172	717.6844	757.4472	770.3035	859.7837	912.6591	940.3963	954.8347	974.3937	1006.322	1018.8537	1031.3131	1062.5153	1113.6979	1139.1039	1160.989	1180.3655	1205.5502	1252.7686	1284.961	1321.5214	1357.2611	1374.8387	1390.8194	1466.6099	1514.4339	1678.2974	2348.1507	3023.6933	3023.9495	3065.0527	3071.4049	3078.1404	3190.5015	3217.2217	3545.6867
N#CC12CNC1CC=C2	N#C[C@]12CN[C@H]1CC=C2	
InChI=1S/C7H8N2/c8-4-7-3-1-2-6(7)9-5-7/h1,3,6,9H,2,5H2	InChI=1S/C7H8N2/c8-4-7-3-1-2-6(7)9-5-7/h1,3,6,9H,2,5H2/t6-,7+/m0/s1
