20
gdb 111122	3.56395	1.31646	1.21525	1.3121	78.44	-0.2192	0.0868	0.3059	1107.9665	0.172797	-403.06979	-403.062238	-403.061294	-403.10174	30.375	
C	 0.1195145587	 1.3263867268	 0.2108413292	-0.246483
O	 0.0049811067	 0.0046414608	-0.2696996557	-0.26531
C	-1.2989319742	-0.5146401767	-0.1568840979	 0.156917
C	-1.3416168611	-2.0075736663	-0.5624909005	-0.089545
C	-0.7011398143	-2.2864680653	 0.8492713303	-0.212902
C	-1.6566867871	-1.1197197551	 1.244893473	-0.042002
N	-2.9778324666	-1.8145967746	 1.1148261275	-0.114986
C	-3.8409672641	-1.3956708281	-0.0085725663	-0.252902
C	-2.7843243486	-2.4149166708	-0.2434806661	-0.028088
H	 1.1492081125	 1.645241642	 0.0331630782	 0.128998
H	-0.5603912445	 2.0102174739	-0.3211583244	 0.105737
H	-0.0933519747	 1.3990083888	 1.2872782327	 0.110391
H	-1.9974361687	 0.1852881225	-0.6267405988	 0.057611
H	-0.8968674931	-2.3534074641	-1.4947682433	 0.072148
H	-0.9095256417	-3.2528261758	 1.3126043871	 0.100051
H	 0.3544977248	-2.0286266096	 0.9003450408	 0.11713
H	-1.5667473529	-0.5596324621	 2.1751071663	 0.07131
H	-4.8613863415	-1.7532188213	 0.1036605361	 0.115389
H	-3.7805455284	-0.3988163671	-0.4270328315	 0.120097
H	-3.0574886013	-3.4602671878	-0.3654590767	 0.096439
95.2851	177.8853	186.7898	321.136	345.1392	396.7796	444.4401	523.1838	562.465	635.7456	750.7401	784.5437	843.5023	853.6121	889.4373	908.901	933.8495	990.8448	1000.8699	1019.1046	1050.6133	1057.1504	1091.382	1099.2774	1115.2684	1116.7439	1141.5968	1174.4666	1184.1706	1217.1697	1225.4385	1233.192	1247.9954	1257.9388	1267.2182	1282.8288	1367.3728	1421.7287	1478.5576	1487.2899	1490.5423	1508.4994	1525.0961	2977.5971	3027.8503	3043.7882	3084.8202	3117.2023	3122.1467	3124.6065	3125.5349	3137.3633	3170.5734	3211.761
COC1C2CC1N1CC21	CO[C@H]1[C@H]2C[C@@H]1N1C[C@@H]21	
InChI=1S/C7H11NO/c1-9-7-4-2-5(7)8-3-6(4)8/h4-7H,2-3H2,1H3	InChI=1S/C7H11NO/c1-9-7-4-2-5(7)8-3-6(4)8/h4-7H,2-3H2,1H3/t4-,5-,6-,7-,8?/m0/s1
