19
gdb 120810	4.6603	0.62103	0.58918	4.912	77.32	-0.2659	0.0368	0.3027	1849.0628	0.158736	-419.188503	-419.178579	-419.177634	-419.22489	34.627	
O	 0.0421634538	 1.3829940716	 0.2965495189	-0.421116
C	-0.0387616844	-0.0298272177	 0.3889320497	-0.069274
C	-1.2983366695	-0.4685114477	-0.3516025909	-0.187337
C	-1.457726953	-1.9710761	-0.3464413465	-0.03203
N	-1.9816158617	-2.5933136259	 0.8835689741	-0.325285
C	-2.7597069563	-2.6928933773	-0.3539632348	-0.022658
C	-4.1092854245	-1.9888382514	-0.3691402861	-0.343191
C	-5.1745203267	-2.8531384986	 0.1404892172	 0.259751
N	-6.0049665199	-3.5539161933	 0.5332459189	-0.304665
H	 0.797620193	 1.6770496047	 0.8135542304	 0.287879
H	 0.8459274853	-0.5110864177	-0.0614832709	 0.080798
H	-0.1010271252	-0.3666480441	 1.4345864765	 0.10446
H	-2.1566286547	 0.0163451654	 0.1217891406	 0.112111
H	-1.245928181	-0.1040539068	-1.3847302376	 0.110488
H	-0.6494882379	-2.5002580986	-0.8526712219	 0.089788
H	-1.5118710347	-3.469280784	 1.0918100016	 0.239527
H	-2.7707637186	-3.6526456535	-0.867010406	 0.104646
H	-4.0693229872	-1.0858598317	 0.2452591927	 0.163281
H	-4.3679457568	-1.6838910233	-1.3901151457	 0.152828
38.6029	73.3691	81.505	113.7053	158.4891	237.3484	256.1247	334.6027	384.1709	386.4365	487.6076	501.06	565.4128	780.5526	828.3496	862.5617	876.2229	943.4615	960.438	996.9949	1019.8836	1043.2094	1064.3596	1085.2535	1150.5608	1191.7686	1222.5218	1237.8803	1261.3061	1267.4202	1276.5959	1312.2423	1317.5989	1332.4677	1419.3671	1452.2761	1461.119	1479.0983	1486.4023	1528.7959	2363.3798	2957.7202	3005.4642	3042.0137	3048.6919	3089.3054	3104.472	3108.345	3129.9798	3518.975	3831.6824
OCCC1NC1CC#N	OCC[C@H]1N[C@H]1CC#N	
InChI=1S/C6H10N2O/c7-3-1-5-6(8-5)2-4-9/h5-6,8-9H,1-2,4H2	InChI=1S/C6H10N2O/c7-3-1-5-6(8-5)2-4-9/h5-6,8-9H,1-2,4H2/t5-,6+/m0/s1
