18
gdb 50658	2.5046	1.36137	0.95894	5.2059	74.25	-0.2367	-0.0284	0.2083	1211.306	0.148776	-439.141685	-439.13342	-439.132476	-439.175327	30.537	
O	-0.0836261932	-0.0289599201	 0.0890041546	-0.334535
C	-0.0105984727	 1.1806016619	 0.0999267848	 0.151244
N	 1.1459343811	 1.9044318545	 0.0412600281	-0.050384
C	 1.1606875126	 3.3562117321	 0.0520581905	-0.177226
C	 1.850455488	 3.895219533	-1.2054438198	-0.208382
C	 3.2690269214	 3.3144168546	-1.3363487486	-0.300797
C	 3.3106796669	 1.7999688575	-1.1771076943	 0.386144
O	 4.0381412757	 1.0937087227	-1.8303584571	-0.290605
C	 2.4260841316	 1.217847009	-0.0698540391	-0.275185
H	-0.899312298	 1.8396992578	 0.1588248151	 0.076137
H	 0.1277534904	 3.71009134	 0.1151659395	 0.122181
H	 1.6850632675	 3.7175386653	 0.950343387	 0.109032
H	 1.2537170536	 3.6209654768	-2.0828326089	 0.120812
H	 1.8932779487	 4.9887292856	-1.1688837868	 0.1115
H	 3.7449229884	 3.5765939514	-2.2838770403	 0.13086
H	 3.8986197392	 3.725250244	-0.5322207672	 0.126664
H	 2.9870685335	 1.2969473752	 0.8763912906	 0.128191
H	 2.2356892953	 0.1622379387	-0.261917438	 0.17435
56.5842	77.6044	178.4539	247.9964	313.3846	351.8591	388.2602	421.7238	477.2722	483.3091	613.8463	671.7544	752.2293	814.2885	883.8084	901.8231	933.7187	987.2976	1026.8707	1038.634	1097.1157	1149.2804	1187.8033	1206.9611	1227.5283	1278.3227	1282.994	1335.7547	1348.0066	1373.4672	1396.4822	1433.7974	1451.0476	1459.1034	1469.154	1489.0915	1496.4051	1795.6603	1828.4868	2935.3428	2973.7925	2987.7187	3005.9575	3041.1278	3085.884	3090.8226	3110.3825	3147.0582
O=CN1CCCC(=O)C1	O=CN1CCCC(=O)C1	
InChI=1S/C6H9NO2/c8-5-7-3-1-2-6(9)4-7/h5H,1-4H2	InChI=1S/C6H9NO2/c8-5-7-3-1-2-6(9)4-7/h5H,1-4H2
