20
gdb 36778	6.50513	0.59035	0.56169	3.929	81.14	-0.2645	0.0332	0.2978	1938.2385	0.170531	-403.148108	-403.138638	-403.137694	-403.183943	33.539	
N	 0.2108966917	-1.2252647155	-0.3632916165	-0.30241
C	 0.1905110781	-0.118605333	-0.0319586839	 0.247187
C	 0.1867267145	 1.2824312054	 0.3759820493	-0.339766
C	 1.462593585	 2.015358356	-0.0578643121	-0.063467
O	 1.3371757214	 3.3433344417	 0.3901532827	-0.255223
C	 2.4498869748	 4.1510872273	 0.088840385	 0.170963
C	 2.6408704686	 4.6686248728	-1.3654654916	-0.247278
C	 3.0141698361	 6.0491021466	-0.7559442014	-0.217832
C	 2.3265175623	 5.609310548	 0.5668403184	-0.250824
H	-0.6839791227	 1.7851045406	-0.0577335215	 0.161946
H	 0.0857190085	 1.3450649923	 1.4644363112	 0.162369
H	 2.3466895824	 1.5286615411	 0.3833015178	 0.110077
H	 1.5696371528	 1.9667161361	-1.1517479824	 0.114374
H	 3.3711794714	 3.6769962848	 0.461685678	 0.069293
H	 3.3711858408	 4.1696796142	-2.0061719019	 0.099946
H	 1.6750369681	 4.7058853489	-1.8783452259	 0.108976
H	 4.0947586852	 6.1636827412	-0.6371748725	 0.108251
H	 2.624067263	 6.9387081912	-1.2528350332	 0.10659
H	 1.2726753607	 5.9003688336	 0.5880415431	 0.114841
H	 2.7920094474	 5.8784596367	 1.5170081774	 0.101987
44.2829	65.7278	84.6677	124.1997	159.9729	225.4958	311.9063	399.6822	403.2948	465.4677	560.4179	639.8054	766.0031	786.2129	797.0589	902.305	925.4425	946.9872	951.1588	981.1	1044.1195	1062.919	1081.5197	1094.1537	1151.4344	1179.9108	1193.7181	1228.586	1246.6636	1247.8137	1259.1642	1274.4234	1300.2404	1301.7462	1307.4616	1379.1029	1439.4983	1471.2374	1471.5789	1486.408	1508.9648	1528.3651	2366.1516	2976.8981	2984.1217	3015.8798	3057.0265	3057.453	3065.9135	3069.5379	3100.1713	3110.9708	3118.6925	3131.4971
N#CCCOC1CCC1	N#CCCOC1CCC1	
InChI=1S/C7H11NO/c8-5-2-6-9-7-3-1-4-7/h7H,1-4,6H2	InChI=1S/C7H11NO/c8-5-2-6-9-7-3-1-4-7/h7H,1-4,6H2
