21
gdb 67605	2.59627	2.13454	1.63696	0.088	84.59	-0.2446	0.1007	0.3453	933.4474	0.18626	-349.95284	-349.946121	-349.945177	-349.983382	29.211	
C	-0.0271910592	 1.467688877	 0.0417256051	-0.509694
C	 0.0481697748	-0.0337360986	 0.0293349918	 0.373681
C	-0.3984339665	-0.9016106274	-1.1357077489	-0.122383
C	 0.5160033929	-2.1085715641	-1.2284166513	-0.250848
C	 0.8108640264	-2.2362894476	 0.2594336503	-0.027284
C	-0.5202186339	-2.0632496972	 1.0744764302	-0.049647
C	 0.30946297	-1.2601005984	 2.1183151783	-0.231447
C	 1.0977755632	-0.8146091799	 0.8524816035	-0.10032
C	-1.1405938838	-0.9669228165	 0.1901622581	-0.106022
H	 0.8511355058	 1.9193780539	-0.4353469012	 0.113944
H	-0.9127005339	 1.8249142028	-0.4946350945	 0.113828
H	-0.0830379398	 1.8582950159	 1.0650045801	 0.115417
H	-0.8623411304	-0.4539451873	-2.0074638634	 0.07335
H	 0.0154147842	-2.9938868404	-1.6379037291	 0.09356
H	 1.4173886333	-1.9149220537	-1.8218623304	 0.093013
H	 1.4711171847	-3.0345920284	 0.5960673687	 0.063702
H	-1.1454412919	-2.9123046023	 1.3529337108	 0.055318
H	-0.2044882522	-0.4917503656	 2.7041312845	 0.086027
H	 0.8984828705	-1.9031523133	 2.7792184592	 0.08837
H	 2.1047751089	-0.3975014505	 0.907693986	 0.051981
H	-2.1556487131	-0.6114562686	 0.3139775822	 0.075453
201.1765	216.9698	275.6404	371.2225	425.8258	519.2695	562.0461	666.5684	707.1383	731.3606	812.0853	834.7454	849.6277	866.7829	879.5342	895.5633	912.5009	943.5954	975.6946	984.6313	998.7099	1017.6881	1038.6703	1050.0296	1053.3339	1079.5166	1094.208	1125.8205	1153.171	1178.9223	1218.2662	1222.1349	1227.354	1245.7238	1258.1753	1275.4118	1287.9609	1317.0939	1339.6409	1415.3884	1431.0001	1487.9962	1489.3244	1499.3219	1500.4595	3016.6457	3030.0049	3043.9108	3071.401	3072.2259	3089.8217	3096.1378	3100.3776	3104.6508	3126.9997	3175.928	3193.3593
CC12C3CC4C(CC14)C23	C[C@@]12[C@H]3C[C@@H]4[C@@H](C[C@H]14)[C@@H]23	
InChI=1S/C9H12/c1-9-6-3-5-4(6)2-7(9)8(5)9/h4-8H,2-3H2,1H3	InChI=1S/C9H12/c1-9-6-3-5-4(6)2-7(9)8(5)9/h4-8H,2-3H2,1H3/t4-,5-,6+,7+,8-,9+/m1/s1
