14
gdb 48384	2.29627	1.39106	0.98734	1.9085	71.64	-0.2623	-0.0636	0.1987	1158.4971	0.09764	-436.637016	-436.62822	-436.627276	-436.670872	31.095	
O	-0.380937555	 0.1316073229	 0.4629755184	-0.255114
C	 0.3494519848	 0.642048581	-0.3486839151	 0.121627
C	 1.22377207	 1.8137628086	-0.0332731104	 0.092097
N	 2.312906628	 2.0934440358	-0.9801176648	-0.341642
C	 1.2037110744	 3.029753648	-0.9735700363	-0.280419
C	 0.3334044982	 3.0858032207	-2.1135346608	 0.364503
C	-0.4122011871	 3.1631316947	-3.0526519035	-0.384389
C	 1.4607674014	 2.1514455531	 1.4051871817	 0.087902
O	 2.357166036	 2.8886874674	 1.7454885044	-0.272662
H	 0.432057076	 0.282327538	-1.3934126476	 0.112643
H	 3.0793700705	 2.4932256176	-0.4343706628	 0.263044
H	 1.3492157628	 3.9703456816	-0.4453910688	 0.146976
H	-1.065356053	 3.2280283587	-3.8881879501	 0.21345
H	 0.7721840329	 1.675412272	 2.1243008456	 0.131983
78.8092	111.6432	150.7409	178.4142	207.475	272.6648	312.0701	339.3389	457.1033	532.894	572.7008	646.5087	675.3682	688.2834	764.9922	783.5844	905.1413	991.4234	1007.9253	1051.3058	1069.5157	1111.2929	1232.6597	1256.0845	1332.4454	1403.8663	1412.1443	1433.9274	1792.768	1818.1893	2243.4283	2944.9118	2998.1217	3132.4848	3448.698	3500.254
O=CC1(NC1C#C)C=O	O=CC1(N[C@H]1C#C)C=O	
InChI=1S/C6H5NO2/c1-2-5-6(3-8,4-9)7-5/h1,3-5,7H	InChI=1S/C6H5NO2/c1-2-5-6(3-8,4-9)7-5/h1,3-5,7H/t5-/m0/s1
