21
gdb 102597	2.9136	0.98678	0.85239	3.5673	74.53	-0.244	0.0609	0.3049	1416.5456	0.182099	-461.32873	-461.318944	-461.318	-461.364225	35.404	
O	 0.141727668	 1.427482029	 0.1689545504	-0.436849
C	 0.0621867407	 0.0254049966	 0.0226164428	-0.059273
C	-1.3849325219	-0.5063571585	-0.02866608	-0.043412
C	-2.0812139108	-0.102072617	-1.3309783891	-0.095045
O	-2.1416533616	 1.3279281977	-1.3908996823	-0.426173
C	-1.4180787864	-2.0205522564	 0.1774581339	 0.14478
C	-2.7656665324	-2.7730020599	 0.2811668958	-0.308614
C	-2.206242924	-3.6362310682	-0.8663939116	-0.05873
O	-1.0554658497	-2.7768927005	-1.0104860749	-0.295336
H	-0.4911587166	 1.8001150138	-0.4596830362	 0.286561
H	 0.6022547112	-0.3248411027	-0.874425133	 0.090656
H	 0.5747286849	-0.4068525294	 0.8903653344	 0.096725
H	-1.9273227595	-0.0512173491	 0.8125958371	 0.093422
H	-1.5153194492	-0.5066000385	-2.1791866165	 0.116171
H	-3.0976837048	-0.5183295989	-1.3781672047	 0.089922
H	-2.3907714465	 1.5837656079	-2.2835946735	 0.293783
H	-0.7417765251	-2.2775660327	 1.0057258945	 0.076775
H	-2.9551880305	-3.2811524459	 1.2276028142	 0.112539
H	-3.6414458051	-2.1784221337	 0.0157029235	 0.113393
H	-1.9180427833	-4.6548550309	-0.5763428322	 0.1042
H	-2.7988111475	-3.6850658026	-1.7869965325	 0.104505
55.2992	80.7695	94.2248	135.6808	221.7424	235.9029	279.7691	306.4056	356.6967	387.5101	462.2878	553.3361	618.7238	753.9621	822.9882	857.455	890.1881	915.0064	959.2039	973.3207	1018.9422	1027.7774	1056.8901	1090.8851	1109.1363	1130.1632	1151.2877	1171.0605	1209.3247	1218.5362	1238.6315	1256.9548	1274.6014	1291.2918	1308.3917	1341.0972	1369.0095	1382.1737	1402.5685	1458.1349	1472.7585	1494.0559	1510.6583	1527.0926	1533.2051	2953.1926	2990.4718	2996.7655	3015.2139	3016.8541	3047.6782	3052.6863	3058.8458	3082.4352	3135.3213	3742.7797	3834.8159
OCC(CO)C1CCO1	OCC(CO)[C@H]1CCO1	
InChI=1S/C6H12O3/c7-3-5(4-8)6-1-2-9-6/h5-8H,1-4H2	InChI=1S/C6H12O3/c7-3-5(4-8)6-1-2-9-6/h5-8H,1-4H2/t6-/m1/s1
