15
gdb 61098	2.4169	1.24322	1.03683	4.3136	75.27	-0.2939	-0.0171	0.2768	1181.2298	0.10984	-379.657196	-379.647622	-379.646678	-379.691603	33.946	
C	-0.0599771831	 1.5675793093	-0.0521575496	-0.40648
C	-0.0003009764	 0.019240088	-0.0294161319	-0.100867
C	 0.7785371368	-0.5058118437	 1.2306837589	-0.37274
C	 2.1497152704	-0.0263959099	 1.2881860565	 0.301462
C	 3.2813086089	 0.3740251162	 1.3271101124	-0.413314
C	-1.3694791863	-0.524721018	 0.0286492881	 0.298855
N	-2.4458053199	-0.9328933145	 0.1190163755	-0.318282
C	 0.6529367455	-0.4712088662	-1.2569220794	 0.314894
N	 1.178235555	-0.8392151798	-2.2168098836	-0.317389
H	 0.9558007909	 1.9654799682	-0.068839785	 0.163511
H	-0.6007056603	 1.9169642201	-0.9330628857	 0.158978
H	-0.5733739107	 1.9241177586	 0.84395827	 0.146891
H	 0.2184771217	-0.1809335873	 2.1146407592	 0.160409
H	 0.7566075049	-1.6002659567	 1.2229006384	 0.16987
H	 4.2871258726	 0.7145186255	 1.363858756	 0.214202
71.2964	115.1737	134.9824	187.9749	191.4438	233.741	268.9296	324.4699	349.7673	446.433	490.2733	523.3219	585.4045	602.9354	640.6825	676.4178	709.6037	886.7392	922.5124	964.8522	990.6725	1086.1757	1155.4806	1186.226	1282.944	1344.7203	1410.9177	1466.0143	1487.939	1493.8876	2245.4994	2364.3781	2369.6726	3046.6603	3061.99	3088.9101	3145.8678	3157.8055	3501.4915
CC(CC#C)(C#N)C#N	CC(CC#C)(C#N)C#N	
InChI=1S/C7H6N2/c1-3-4-7(2,5-8)6-9/h1H,4H2,2H3	InChI=1S/C7H6N2/c1-3-4-7(2,5-8)6-9/h1H,4H2,2H3
