21
gdb 32660	1.79653	1.77455	1.00918	3.7312	85.24	-0.2099	0.0357	0.2455	1257.2972	0.183754	-383.32214	-383.312761	-383.311817	-383.356844	34.401	
C	 0.0239472615	 1.5663039386	 0.3793993219	-0.377275
C	-0.036054382	 0.1132975454	-0.0985312821	-0.163416
N	-1.3779813088	-0.449824125	-0.0530101835	-0.025282
C	-2.0524025599	-0.7874640011	 1.1044233816	-0.135851
C	-3.268920873	-1.2629391692	 0.701329677	-0.103451
N	-3.3660477053	-1.2308026054	-0.6681360616	-0.313006
C	-2.2204886442	-0.7392433916	-1.099865461	 0.332618
C	-1.8972652243	-0.514333025	-2.5446414045	-0.293632
C	-2.0841489048	 0.9405970333	-3.011992561	-0.380161
H	 1.051307974	 1.9390620041	 0.3232041919	 0.122085
H	-0.6118786872	 2.2084225526	-0.2364640604	 0.136901
H	-0.313493464	 1.6527166754	 1.416169498	 0.130608
H	 0.3252942448	 0.0367293846	-1.1264491981	 0.126033
H	 0.6215353368	-0.5118806573	 0.515975156	 0.122548
H	-1.598951656	-0.6682211317	 2.0750704922	 0.117429
H	-4.0753739349	-1.6333353805	 1.3161704399	 0.101782
H	-0.8768288639	-0.8477091041	-2.7711107408	 0.10252
H	-2.5711573044	-1.1646041197	-3.1082789302	 0.133857
H	-1.3974642054	 1.623134584	-2.5008999913	 0.114938
H	-1.9004999074	 1.0274936783	-4.0874829747	 0.114911
H	-3.1045308115	 1.2780123743	-2.8096814094	 0.135846
62.1309	77.9211	123.9375	162.9479	206.5091	226.2449	309.3514	342.3981	405.8669	455.5769	620.3815	651.426	693.9751	720.4525	750.1687	790.3785	797.0529	848.072	929.3276	961.6	981.4689	1054.8979	1081.0185	1086.2844	1098.2491	1116.9217	1182.3174	1207.5121	1274.638	1296.0174	1314.1217	1351.7433	1387.1061	1404.2595	1406.2657	1416.3551	1462.1071	1478.8882	1487.2154	1489.5653	1499.3749	1504.5844	1507.5295	1525.4351	1564.8104	3031.7862	3037.6801	3044.1564	3045.0376	3092.9826	3102.0537	3109.9918	3118.964	3120.7018	3128.0551	3242.4832	3270.3443
CCN1C=CN=C1CC	CCn1ccnc1CC	
InChI=1S/C7H12N2/c1-3-7-8-5-6-9(7)4-2/h5-6H,3-4H2,1-2H3	InChI=1S/C7H12N2/c1-3-7-8-5-6-9(7)4-2/h5-6H,3-4H2,1-2H3
