18
gdb 94095	4.48326	0.97781	0.84637	0.7146	77.21	-0.214	-0.0128	0.2012	1361.352	0.149613	-435.321009	-435.312467	-435.311523	-435.354489	31.531	
C	-0.8795512239	 1.171699939	-0.3121390447	-0.385201
C	-0.0391451016	-0.099596943	-0.351282144	 0.064114
C	 1.4480018458	 0.1349607121	-0.76060219	-0.192428
N	 2.137395192	-0.8228667209	 0.1074466045	-0.34744
C	 1.2482653658	-1.1032999995	 1.118473014	 0.488657
N	 1.6736129785	-1.7924394768	 2.2558930407	-0.387466
C	 2.9631456754	-2.0300259079	 2.6430138077	 0.162604
O	 3.9597031714	-1.6934211075	 2.0388566645	-0.317246
N	 0.0234373958	-0.7626299406	 0.9680360706	-0.366962
H	-0.4563077803	 1.8905407483	 0.3970928161	 0.114458
H	-0.9212653533	 1.6439748604	-1.2997609853	 0.10853
H	-1.9009861605	 0.9444946328	 0.0045287731	 0.125713
H	-0.5007027371	-0.8032883345	-1.0599656259	 0.081811
H	 1.6398950837	-0.0706697772	-1.8167169418	 0.112159
H	 1.7590011145	 1.1689280877	-0.5476253221	 0.099364
H	 3.1153882369	-0.7385638287	 0.3483911135	 0.266899
H	 0.9228070154	-2.0581565182	 2.8763478847	 0.272769
H	 3.0010023816	-2.5817460655	 3.5998463444	 0.099665
68.2153	129.4208	178.5941	189.8236	236.6474	293.9507	321.0537	399.0198	483.3007	586.3771	611.4083	637.2747	695.4441	727.3906	834.7695	873.8052	923.3112	945.4762	998.9525	1029.3264	1064.2837	1104.3873	1127.4042	1147.4449	1155.7554	1219.4296	1297.8992	1307.4718	1332.0996	1377.767	1406.262	1437.9825	1485.0038	1487.4685	1497.2779	1503.0172	1537.2229	1713.7547	1799.4679	2973.1909	2982.7252	2991.4328	3033.7019	3085.7791	3102.7841	3118.7905	3594.2021	3624.7506
CC1CNC(NC=O)=N1	C[C@H]1CN[C](NC=O)[N]1	
InChI=1S/C5H9N3O/c1-4-2-6-5(8-4)7-3-9/h3-4H,2H2,1H3,(H2,6,7,8,9)	InChI=1S/C5H9N3O/c1-4-2-6-5(8-4)7-3-9/h3-4H,2H2,1H3,(H2,6,7,8,9)/t4-/m0/s1
