16
gdb 25954	4.88381	1.05453	0.87195	4.5187	73.	-0.2189	0.0149	0.2338	1284.9867	0.125246	-434.114342	-434.106074	-434.10513	-434.148219	30.082	
C	-0.2235203783	 1.315496851	-0.3989162235	-0.448446
C	 0.1018105982	-0.1119037405	-0.076593137	 0.392907
N	 1.2526828092	-0.6092210132	-0.1227023939	-0.488237
O	-1.0980863712	-0.7587193413	 0.2749845704	-0.294243
C	-1.1400727176	-2.0587245437	 0.6201231648	 0.487977
N	-0.1798897247	-2.9437397126	 0.703648567	-0.350552
C	-0.808261333	-4.111261848	 1.1041599023	-0.080946
C	-2.1479252943	-3.911529441	 1.257044516	-0.115702
N	-2.3554965029	-2.5774224278	 0.9412081712	-0.320676
H	 0.6928394716	 1.8352428365	-0.6744501694	 0.153031
H	-0.9404132075	 1.3688760076	-1.2244288573	 0.138189
H	-0.6824002526	 1.8089048106	 0.4637677844	 0.138187
H	 1.251830911	-1.5984993551	 0.1351561926	 0.259402
H	-0.2451495467	-5.0186700492	 1.2544570189	 0.119737
H	-2.956408994	-4.5590748509	 1.5494548975	 0.136792
H	-3.2252176674	-2.0724468922	 0.942716076	 0.272579
38.6692	84.0374	153.9854	184.2494	314.0683	351.06	393.8084	495.9837	542.5701	567.8618	637.6462	691.6376	735.8898	752.8857	842.6189	876.9387	938.8839	967.2491	997.7319	1043.5141	1081.2578	1089.2526	1094.3053	1141.4332	1193.7977	1284.8336	1322.9635	1385.8422	1407.5343	1475.8907	1477.4864	1495.3509	1541.3793	1595.183	1779.9746	3048.8728	3106.0782	3170.2203	3259.519	3291.6708	3447.2244	3675.157
CC(=N)OC1=NC=CN1	C[C]([NH])Oc1ncc[nH]1	
InChI=1S/C5H7N3O/c1-4(6)9-5-7-2-3-8-5/h2-3,6H,1H3,(H,7,8)	InChI=1S/C5H7N3O/c1-4(6)9-5-7-2-3-8-5/h2-3,6H,1H3,(H,7,8)
