21
gdb 39391	2.32157	2.081	1.4028	1.7237	81.14	-0.2169	0.0773	0.2943	998.3054	0.185215	-387.044904	-387.037586	-387.036642	-387.076093	30.931	
C	-0.0455588526	 1.5429863773	-0.0648156187	-0.440776
C	 1.2704817849	 0.7542285567	-0.0543936086	-0.021056
C	 2.2699595753	 0.4868781079	 1.0462957088	-0.252346
C	 2.5540672619	-1.0590057992	 1.1418261046	-0.200398
C	 1.7052625798	-2.0356142645	 0.2639029515	-0.209951
C	 0.1587990606	-1.8898414199	 0.2500690092	 0.090543
C	-0.3428167658	-0.8431523614	 1.2617250055	-0.310181
C	-0.041219166	 0.0638654139	 0.0778911187	 0.437336
O	-0.2918877186	-1.0106289763	-0.8431888507	-0.320665
H	-0.3549880951	 2.1090525398	 0.8102644693	 0.115344
H	-0.3183985421	 1.9999157852	-1.0101782322	 0.12579
H	 1.6754531095	 0.6492910586	-1.0585212095	 0.095535
H	 3.2064944376	 1.0307711204	 0.8833118619	 0.096548
H	 1.8779998499	 0.845393049	 2.0041060484	 0.099338
H	 3.6019628999	-1.2495426942	 0.8852099947	 0.100507
H	 2.4567468532	-1.3673010989	 2.189062031	 0.101505
H	 2.0290707002	-1.9818997372	-0.7813337238	 0.116267
H	 1.9518149495	-3.0486718835	 0.6038394257	 0.094864
H	-0.345417642	-2.8569334789	 0.1835000442	 0.074414
H	-1.417664263	-0.926548389	 1.4380390412	 0.106058
H	 0.1893638829	-0.709728146	 2.2036116289	 0.101328
156.9597	206.7161	302.4594	337.214	352.0858	400.9753	448.7856	530.4482	542.6594	624.9691	739.059	758.7355	798.4526	842.0869	853.363	871.5441	889.1174	915.4537	961.4923	981.9644	996.3975	1022.8416	1038.3222	1064.6842	1078.9192	1112.9599	1131.3148	1162.8848	1188.1637	1213.9737	1226.6949	1245.5212	1279.3846	1303.4314	1312.6194	1341.024	1362.6505	1371.7591	1377.3865	1426.7695	1470.8109	1483.3508	1487.9841	1503.633	1515.4009	3026.1517	3033.1745	3043.2132	3054.6723	3070.9064	3074.5223	3082.3842	3087.5683	3116.3404	3132.2741	3138.1908	3207.1422
C1C2CCCC3CC12O3	C1[C@H]2CCC[C@H]3C[C@@]12O3	
InChI=1S/C8H12O/c1-2-6-4-8(6)5-7(3-1)9-8/h6-7H,1-5H2	InChI=1S/C8H12O/c1-2-6-4-8(6)5-7(3-1)9-8/h6-7H,1-5H2/t6-,7+,8+/m1/s1
