20
gdb 90036	3.27528	1.1607	1.00414	1.9365	76.58	-0.2111	0.062	0.2731	1257.6171	0.169519	-440.231378	-440.22221	-440.221265	-440.265596	33.812	
C	-0.1628380194	 1.4865472209	 0.0264856484	-0.316289
N	-0.128999012	 0.0439497755	 0.1007868553	-0.071657
C	-1.2590949054	-0.6532692907	 0.7505922853	-0.231818
C	-0.2429376168	-1.637216794	 1.367351458	 0.411842
C	 0.8308160423	-0.5885839522	 1.0254848351	-0.243629
O	-0.3935748561	-2.0503173337	 2.7314060937	-0.311139
C	-0.4905486295	-3.4431573851	 2.3623907208	-0.10993
C	-0.1761102585	-3.1006541445	 0.8876796141	-0.008946
O	-1.1416296912	-3.4245306889	-0.07973552	-0.419992
H	 0.7754244028	 1.8597433569	-0.398213653	 0.117988
H	-0.978270327	 1.8054672665	-0.6315265926	 0.120338
H	-0.3089999731	 1.9700227981	 1.0120997619	 0.089106
H	-1.742889149	-0.0675368923	 1.5496685917	 0.089861
H	-2.0140318824	-1.0540687085	 0.0693942881	 0.12038
H	 1.7691051511	-0.9276122486	 0.5701777716	 0.095419
H	 1.0593505449	 0.018925076	 1.9173804947	 0.09385
H	 0.2328371735	-4.0628814311	 2.9044983424	 0.099694
H	-1.5034053183	-3.8403799232	 2.5023884955	 0.103995
H	 0.8312140333	-3.3990574566	 0.5714480033	 0.079832
H	-0.9539238691	-4.3029672044	-0.4228439143	 0.291096
68.3395	77.5925	171.0138	196.4961	228.83	252.9979	301.8517	352.7295	406.4488	430.5875	474.3871	538.8644	719.857	781.1852	853.2854	895.7315	939.1726	973.108	988.1593	1018.4464	1040.5701	1085.0247	1107.5079	1117.369	1127.7011	1154.6962	1176.1848	1196.2123	1214.8999	1229.0182	1235.9783	1274.9601	1293.7435	1312.9385	1334.7231	1354.2562	1443.2398	1451.399	1484.729	1487.7484	1498.4797	1515.0372	1518.536	2917.8092	2962.4585	2974.7911	3017.1418	3022.7976	3044.6312	3053.9171	3072.7473	3092.0526	3096.0179	3831.9257
CN1CC2(C1)OCC2O	CN1CC2(C1)OC[C@H]2O	
InChI=1S/C6H11NO2/c1-7-3-6(4-7)5(8)2-9-6/h5,8H,2-4H2,1H3	InChI=1S/C6H11NO2/c1-7-3-6(4-7)5(8)2-9-6/h5,8H,2-4H2,1H3/t5-/m1/s1
