12
gdb 42176	2.22447	1.71498	1.03567	2.2225	66.94	-0.2954	-0.0968	0.1985	1065.7395	0.074299	-435.434433	-435.425983	-435.425039	-435.468373	29.489	
O	 0.0629939116	 0.5468521419	 1.4657984811	-0.272372
C	-0.0115259128	 1.4154294982	 0.630362638	 0.218651
C	 1.128898582	 1.9460949191	-0.0735474072	 0.261372
C	 2.0797492592	 2.3912696875	-0.6615511657	-0.406941
C	-1.3787724816	 1.9884652022	 0.2530153739	 0.162088
C	-2.5336264324	 1.0503138791	 0.3065085018	-0.18512
O	-2.3199571246	 2.005080353	 1.3253006955	-0.226857
C	-1.4290003116	 3.1237052118	-0.6448579457	 0.233187
N	-1.4618090184	 4.023183649	-1.3690684859	-0.322887
H	 2.9179373595	 2.7874766208	-1.183149124	 0.231502
H	-3.3796748619	 1.2339130489	-0.3521353965	 0.15048
H	-2.3187330289	 0.0200677686	 0.5804060346	 0.156897
35.5019	112.0898	181.7403	210.0211	243.6932	271.5342	314.3944	446.1637	488.7765	562.1765	587.6378	669.7602	674.4487	728.5912	757.6675	864.5006	897.3242	940.3867	1084.0864	1138.786	1180.6204	1225.8595	1344.1236	1497.4912	1776.4382	2218.0205	2363.0996	3100.6845	3208.6259	3489.2745
O=C(C#C)C1(CO1)C#N	O=C(C#C)[C@]1(CO1)C#N	
InChI=1S/C6H3NO2/c1-2-5(8)6(3-7)4-9-6/h1H,4H2	InChI=1S/C6H3NO2/c1-2-5(8)6(3-7)4-9-6/h1H,4H2/t6-/m1/s1
