15
gdb 131163	3.1504	1.26497	0.90535	4.6683	72.02	-0.1964	0.021	0.2174	1202.2575	0.114416	-450.13311	-450.124698	-450.123754	-450.166532	30.57	
O	-0.0270262095	 1.3620965906	-0.0327529437	-0.43761
C	 0.0268381993	 1.0928*^-6	-0.0354603311	 0.26545
C	 0.0048622849	-0.8886683976	-1.0935598173	 0.206595
N	-0.0202299935	-0.5037509189	-2.434713858	-0.411157
C	-0.0109064472	-1.328920803	-3.5260871659	 0.077951
N	 0.0684984712	-2.6003077994	-3.4461205273	-0.459819
C	 0.0070869554	-2.1662328598	-0.4812503309	-0.064171
N	 0.0192964182	-2.0701257609	 0.8474368192	-0.232801
N	 0.0300015116	-0.7474945414	 1.0994725402	-0.235724
H	 0.8669076052	 1.7229109763	 0.0143469637	 0.309511
H	-0.1406671395	 0.4817711999	-2.6010369281	 0.250798
H	-0.074634853	-0.7530847683	-4.4574536382	 0.085091
H	 0.0677853356	-3.0092000122	-4.3769476277	 0.220569
H	 0.0042167686	-3.1223477103	-0.9744530376	 0.150863
H	-0.0053032574	-0.4124515678	 2.0471092727	 0.274455
56.6029	160.8255	168.0811	211.2167	250.1059	279.6201	368.48	445.2081	458.617	468.6655	616.9853	667.7218	702.6702	703.7567	792.0596	838.4611	900.9034	950.7128	1033.0786	1106.531	1121.919	1184.8613	1223.1959	1249.4135	1262.0796	1301.264	1405.8179	1418.8413	1438.3049	1529.9583	1551.8815	1676.9775	1726.2767	3042.9556	3302.7663	3520.9717	3646.9979	3675.4133	3762.5032
OC1=C(NC=N)C=NN1	Oc1c(NC=N)cn[nH]1	
InChI=1S/C4H6N4O/c5-2-6-3-1-7-8-4(3)9/h1-2H,(H2,5,6)(H2,7,8,9)	InChI=1S/C4H6N4O/c5-2-6-3-1-7-8-4(3)9/h1-2H,(H2,5,6)(H2,7,8,9)
