16
gdb 37615	3.14456	2.54138	2.33387	1.0909	67.42	-0.2229	0.0488	0.2717	704.275	0.129161	-400.670978	-400.666282	-400.665338	-400.699792	21.596	
O	-0.033281212	 1.4791616716	 0.0688043422	-0.239574
C	 1.3488758193	 1.7792414067	-0.0020063995	 0.062347
C	 1.9611344891	 0.943974407	-1.1789841812	-0.088893
C	 1.0346610127	-0.300381125	-1.1478031567	-0.032343
C	 0.0360913356	 0.0700565147	-0.0075509856	 0.064492
C	 1.1658325251	-0.407958617	 0.956671771	-0.032344
C	 2.0968951609	 0.8326343189	 0.9990978649	-0.088893
C	 2.8789637277	 0.1789761406	-0.1791802724	-0.009933
N	 1.9644613447	-1.0405970528	-0.1845218779	-0.181797
H	 1.5169386112	 2.8536140161	 0.0424388543	 0.084427
H	 2.2562874531	 1.4086692533	-2.1171247511	 0.074303
H	 0.7172695889	-0.7928288514	-2.0665339921	 0.076393
H	-0.9558094547	-0.3748021679	 0.031532863	 0.087853
H	 0.9615690482	-0.9931786535	 1.8528313274	 0.076393
H	 2.5089037246	 1.2014929127	 1.935771031	 0.074303
H	 3.9577631357	 0.0503821559	-0.2529962477	 0.073266
533.0359	563.6296	609.9496	667.5822	708.3804	724.0635	812.3591	832.3975	841.4069	848.9183	867.0591	885.2938	890.2637	922.2527	942.5757	963.7726	969.1917	992.9586	1007.0193	1039.5161	1058.593	1092.8006	1134.3036	1171.9709	1183.3976	1184.8931	1204.2259	1220.9595	1228.604	1241.4639	1253.1753	1256.489	1286.5167	1298.8595	1352.0687	3111.164	3111.2376	3116.843	3133.8262	3135.8191	3144.2905	3151.9302
O1C2C3C4C1C1C2C3N41	O1[C@@H]2[C@@H]3[C@@H]4[C@H]1[C@@H]1[C@H]2[C@H]3N41	
InChI=1S/C7H7NO/c9-6-1-3-2(6)5-7(9)4(1)8(3)5/h1-7H	InChI=1S/C7H7NO/c9-6-1-3-2(6)5-7(9)4(1)8(3)5/h1-7H/t1-,2+,3-,4+,5-,6+,7-
