19
gdb 62194	5.21044	0.56764	0.52865	2.2395	83.02	-0.2653	0.0248	0.2901	1999.81	0.157795	-382.048037	-382.037592	-382.036648	-382.084478	36.922	
N	 0.0165733367	 1.5148529927	-0.016550354	-0.49082
C	 0.0073360182	 0.0504647575	-0.0528164473	-0.142819
C	-1.4244280138	-0.4942998194	 0.1207391353	-0.176676
C	-2.0278754003	-0.1389222044	 1.4817407294	-0.179629
C	-3.4753252317	-0.6511333983	 1.6226979411	-0.362026
C	-4.0626395685	-0.3346613995	 2.9187609729	 0.290853
C	-4.5225067732	-0.0627465057	 3.9953586495	-0.431201
C	 0.616929496	-0.4992330989	-1.2848652941	 0.255424
N	 1.0929931762	-0.8871920597	-2.2647907368	-0.321049
H	 0.9704993977	 1.8613586666	-0.0485411405	 0.246598
H	-0.4509273515	 1.8812663578	-0.8416270346	 0.241701
H	 0.6147822598	-0.3009015948	 0.7904645735	 0.133674
H	-2.0486896121	-0.0952884668	-0.68977536	 0.110674
H	-1.401750113	-1.5816126817	-0.0147237348	 0.120647
H	-1.4175877718	-0.5728540228	 2.2827055661	 0.110476
H	-2.0052447842	 0.9444300239	 1.6237974617	 0.136596
H	-4.0952514143	-0.2193042046	 0.8256989905	 0.131198
H	-3.4991780438	-1.7380936388	 1.4674177976	 0.130963
H	-4.9398719565	 0.1725437968	 4.9428008745	 0.195416
46.134	73.3285	87.3687	128.4183	150.0685	230.2075	265.3504	304.4803	316.1477	348.2466	403.9101	518.1962	583.4046	588.6624	619.2428	639.9051	744.3937	821.5487	856.9173	919.4958	959.1402	976.6064	1039.6282	1044.3975	1070.4332	1136.6907	1143.6622	1251.4407	1255.09	1304.8253	1320.7104	1330.9214	1365.2586	1393.5993	1395.1004	1473.9588	1481.7834	1506.2706	1663.7359	2240.4808	2343.942	3013.2483	3022.4298	3037.994	3041.9868	3048.8833	3070.4926	3111.1908	3493.136	3507.5799	3573.8202
NC(CCCC#C)C#N	N[C@@H](CCCC#C)C#N	
InChI=1S/C7H10N2/c1-2-3-4-5-7(9)6-8/h1,7H,3-5,9H2	InChI=1S/C7H10N2/c1-2-3-4-5-7(9)6-8/h1,7H,3-5,9H2/t7-/m0/s1
