14
gdb 21248	3.23459	1.99032	1.32039	3.6121	59.75	-0.2088	0.0257	0.2345	891.5611	0.107611	-415.850186	-415.842396	-415.841452	-415.882887	27.479	
C	 0.2505952638	 1.0224051985	-0.3323228023	-0.255002
O	-0.2775333776	 0.1999316181	 0.717610954	-0.277795
C	-1.3354081405	-0.5668552704	 0.3595251642	 0.278277
C	-1.3784721305	-1.889562797	-0.0332666898	 0.17109
O	-0.3375263917	-2.75051648	-0.2079353562	-0.454286
C	-2.7474869009	-2.1646529105	-0.2242292902	-0.069165
N	-3.5028094032	-1.0957625776	 0.0328667473	-0.231403
N	-2.6296950604	-0.1339825456	 0.3818402581	-0.25062
H	 1.114194352	 1.5417611352	 0.0868090634	 0.138732
H	 0.5620265449	 0.413487451	-1.188547769	 0.132286
H	-0.4902274479	 1.7572700736	-0.6680910911	 0.125189
H	 0.447302499	-2.3469048267	 0.1798400383	 0.299059
H	-3.2021240326	-3.0925228851	-0.5363032664	 0.118152
H	-2.9677252643	 0.7610796565	 0.6919534597	 0.275486
45.2975	146.299	164.8648	251.1774	299.9258	311.1404	415.2788	445.4853	494.428	649.6276	694.3661	713.3089	751.9469	863.0295	937.9703	1019.9671	1118.9218	1162.3665	1173.0038	1209.3231	1250.2701	1280.0569	1293.303	1429.3035	1446.9308	1474.5925	1486.857	1502.7761	1557.6784	1669.2992	3019.2918	3087.4004	3138.6804	3253.6624	3672.7852	3805.3473
COC1=C(O)C=NN1	COc1c(O)cn[nH]1	
InChI=1S/C4H6N2O2/c1-8-4-3(7)2-5-6-4/h2,7H,1H3,(H,5,6)	InChI=1S/C4H6N2O2/c1-8-4-3(7)2-5-6-4/h2,7H,1H3,(H,5,6)
