23
gdb 38896	2.50289	1.67019	1.42198	0.3097	87.12	-0.254	0.0737	0.3277	1061.8971	0.210062	-351.144877	-351.137336	-351.136392	-351.176422	31.761	
C	 0.1074141393	 1.6520260438	 0.2762188124	-0.305177
C	 1.3345675104	 0.815583439	-0.007658068	-0.008894
C	 2.3634912752	 0.4537701082	 1.0519355827	-0.244059
C	 1.809654244	 0.0390913048	 2.423283092	 0.006696
C	 1.2945723646	 1.1541536702	 3.3848602984	-0.229855
C	-0.108147924	 0.4844038877	 3.4250095997	-0.229853
C	 0.3902484537	-0.6382782823	 2.4635171123	 0.006711
C	-0.3431077422	-0.8375802497	 1.128690666	-0.244073
C	-0.0268555557	 0.1660884755	 0.0309683561	-0.008897
H	-0.0509367731	 2.0433147698	 1.2715734686	 0.114677
H	-0.2336622322	 2.3204102104	-0.5076790066	 0.103924
H	 1.7716355261	 0.9581514464	-0.9926551527	 0.075186
H	 2.9602284755	-0.3777714218	 0.6522921189	 0.093072
H	 3.0683683923	 1.2853385898	 1.1913607725	 0.094653
H	 2.5652320652	-0.5821537001	 2.9122299548	 0.065007
H	 1.8102786998	 1.185018556	 4.3480551565	 0.091695
H	 1.3168192322	 2.1639843005	 2.966901825	 0.099783
H	-0.4109180596	 0.1242308667	 4.4115545707	 0.091718
H	-0.9263404644	 1.0930632291	 3.0312939222	 0.099758
H	 0.4210765586	-1.6055149877	 2.9728336822	 0.065
H	-0.0904452254	-1.8332518046	 0.7387239833	 0.093081
H	-1.4253260374	-0.8586928272	 1.3188431153	 0.094655
H	-0.4576202528	-0.1053696744	-0.9294103024	 0.075192
145.4465	161.574	257.3627	308.327	336.6125	357.9191	459.5157	567.2464	637.7033	701.5248	720.3815	758.6657	760.3833	819.4623	826.4031	855.0707	886.3798	949.3874	954.337	965.5075	993.4171	1015.6908	1044.7478	1060.7138	1096.8825	1111.7872	1126.6651	1127.3917	1148.2829	1149.3513	1208.4853	1232.4364	1239.2388	1247.1357	1257.8292	1271.9916	1298.1445	1310.6776	1319.8811	1339.8343	1377.2812	1394.0736	1394.6634	1430.0399	1479.6563	1484.1212	1484.3794	1495.3399	1511.0287	2997.9354	3000.2567	3026.0883	3028.3633	3044.3365	3054.0501	3056.1942	3065.1884	3093.2401	3111.3931	3126.1574	3134.6102	3147.1337	3241.2264
C1C2CC3CCC3CC12	C1[C@H]2C[C@H]3CC[C@H]3C[C@@H]12	
InChI=1S/C9H14/c1-2-7-4-9-5-8(9)3-6(1)7/h6-9H,1-5H2	InChI=1S/C9H14/c1-2-7-4-9-5-8(9)3-6(1)7/h6-9H,1-5H2/t6-,7+,8-,9+
