15
gdb 12333	3.30434	2.30888	1.39999	4.1963	64.39	-0.2211	-0.0016	0.2195	853.1929	0.119823	-399.845225	-399.837731	-399.836787	-399.877667	26.501	
C	-0.0417413562	 1.4590929441	-0.0415831793	-0.350842
N	-0.0012639017	 0.0079823573	 0.083260662	-0.166549
C	-1.1956312211	-0.7159144909	 0.0450340622	 0.039702
C	-1.2225305075	-2.0250912976	 0.2782739348	-0.167796
C	 0.0723485385	-2.686041578	 0.6281559047	-0.128212
O	 1.1979967252	-1.9851197561	 0.0644743496	-0.248153
C	 1.2293197567	-0.6338713456	 0.0093771408	 0.482655
O	 2.2754508771	-0.0552513147	-0.1431656457	-0.382823
H	 0.9829497029	 1.8245651406	-0.0381194069	 0.177966
H	-0.524964345	 1.7578834529	-0.9793361585	 0.130462
H	-0.5920593064	 1.8998679015	 0.7957664799	 0.131176
H	-2.0736279969	-0.1303945187	-0.2024863772	 0.11882
H	-2.1372871408	-2.5990449476	 0.2253614297	 0.109291
H	 0.2183993971	-2.7521513316	 1.7178411772	 0.121484
H	 0.141304418	-3.7007959857	 0.2270554666	 0.13282
64.1417	95.1825	152.4374	197.4512	353.6862	441.4264	466.2036	560.5316	582.2016	700.9812	714.6521	772.5407	876.7159	935.9276	956.0802	999.4623	1044.3669	1107.1292	1157.7303	1161.0261	1191.1244	1256.3979	1264.0054	1356.6548	1418.0934	1433.9833	1460.4736	1501.3534	1507.3133	1512.9345	1738.8219	1827.9689	2978.924	3028.0848	3085.572	3085.8559	3179.847	3196.9819	3232.0531
CN1C=CCOC1=O	CN1C=CCOC1=O	
InChI=1S/C5H7NO2/c1-6-3-2-4-8-5(6)7/h2-3H,4H2,1H3	InChI=1S/C5H7NO2/c1-6-3-2-4-8-5(6)7/h2-3H,4H2,1H3
