19
gdb 99713	1.92216	1.41595	0.9528	3.2832	72.54	-0.2547	-0.0384	0.2162	1285.1995	0.155203	-460.200588	-460.190051	-460.189106	-460.237054	36.721	
C	 0.4972856882	 1.2118536809	 0.5398195638	-0.4856
C	 0.1962892031	-0.1110404039	-0.1259706676	 0.415714
O	 1.0323941421	-0.6919531753	-0.786409167	-0.318334
C	-1.2217476478	-0.6836732219	 0.026335511	-0.238616
C	-1.284996909	-2.1424894095	-0.5049686741	-0.064177
O	-1.0139704267	-2.2194349386	-1.8809789646	-0.423772
C	-1.7167124579	-0.6586576647	 1.4726376909	 0.377749
C	-3.2021876601	-0.4460855748	 1.6837512242	-0.482345
O	-0.9525382059	-0.8416661115	 2.394180797	-0.307461
H	 1.4373509046	 1.6109927133	 0.1578070105	 0.145168
H	-0.3136584055	 1.9295602827	 0.3750373422	 0.130803
H	 0.5767861904	 1.0522695343	 1.6194462456	 0.177661
H	-1.8870871398	-0.074698933	-0.6012342919	 0.109829
H	-0.5910746941	-2.7522905355	 0.0910696774	 0.115668
H	-2.2932128268	-2.5432260191	-0.356829977	 0.10794
H	-0.0923083602	-1.9405319513	-1.9705194245	 0.297922
H	-3.4638562738	 0.5843675852	 1.4136438413	 0.146439
H	-3.791896074	-1.1002237663	 1.0330063075	 0.147152
H	-3.4602773667	-0.6224994908	 2.7284382854	 0.148262
44.3878	58.7273	130.8076	142.4523	148.8953	189.0315	196.984	245.507	328.2761	363.9938	416.1516	496.0644	583.4937	590.3655	596.5376	634.5447	753.9317	888.1404	936.2916	939.6072	966.2085	1013.7335	1063.5876	1074.4444	1105.4377	1167.5345	1187.1269	1228.9996	1265.7004	1342.143	1379.3561	1383.9496	1390.7175	1449.3849	1460.7525	1467.3494	1474.2503	1474.7734	1500.1508	1788.1966	1798.9518	3004.9664	3026.0084	3035.4006	3044.5218	3073.824	3096.6638	3113.7672	3154.7927	3156.5599	3752.6567
CC(=O)C(CO)C(C)=O	CC(=O)C(CO)C(=O)C	
InChI=1S/C6H10O3/c1-4(8)6(3-7)5(2)9/h6-7H,3H2,1-2H3	InChI=1S/C6H10O3/c1-4(8)6(3-7)5(2)9/h6-7H,3H2,1-2H3
