20
gdb 102282	1.95931	1.3313	0.88225	1.9071	77.69	-0.2343	-0.0231	0.2112	1365.196	0.168399	-440.332453	-440.321961	-440.321017	-440.369189	36.41	
C	-0.2588653872	 1.3367962995	 0.0815485892	-0.375602
C	-0.1799717541	-0.15849293	-0.2372180748	-0.171444
N	 0.7592514787	-0.474878065	-1.3110785003	-0.03871
C	 2.1902794193	-0.5019010323	-1.0140781906	-0.265007
C	 2.54613215	-1.8624690475	-0.3847237661	 0.385192
C	 3.083273629	-2.9165851118	-1.3237466376	-0.483316
O	 2.3493776428	-2.0546608432	 0.7939610192	-0.302326
C	 0.3381105013	-0.8287362032	-2.5562346737	 0.148314
O	 1.0635378843	-1.1685794317	-3.4715077361	-0.350044
H	 0.7101495375	 1.7334556686	 0.3988201211	 0.129335
H	-0.5899496738	 1.9062378438	-0.7919927478	 0.126221
H	-0.9691650857	 1.5085415766	 0.896049274	 0.125983
H	 0.1153399113	-0.725816139	 0.6514542708	 0.145899
H	-1.1646390094	-0.5273421667	-0.5419573919	 0.118619
H	 2.7259991847	-0.3360904057	-1.9502836349	 0.142382
H	 2.4268635239	 0.2880921457	-0.2974612201	 0.125305
H	 4.0907712834	-2.624743319	-1.6474199121	 0.144706
H	 3.1297382448	-3.885462593	-0.825263572	 0.137508
H	 2.4721779856	-2.9604158164	-2.2311090494	 0.174565
H	-0.7630544165	-0.7695389696	-2.6517708269	 0.082419
35.5516	65.5101	92.0634	119.627	175.9075	200.6599	226.494	264.2947	330.9591	371.661	407.076	441.8502	511.9731	611.7677	643.5057	793.6153	795.8837	839.4119	926.961	965.44	1025.0339	1036.4551	1063.2403	1096.6386	1125.7139	1160.2642	1234.4148	1277.7707	1310.8274	1362.0571	1388.159	1398.0856	1412.6186	1426.6996	1449.279	1459.6973	1468.8777	1469.1646	1490.9493	1494.9983	1505.1837	1775.0521	1809.0594	2947.6854	3031.8131	3041.6989	3049.6279	3071.2619	3088.9674	3096.9543	3115.3146	3120.8393	3137.769	3156.3283
CCN(CC(C)=O)C=O	CCN(CC(=O)C)C=O	
InChI=1S/C6H11NO2/c1-3-7(5-8)4-6(2)9/h5H,3-4H2,1-2H3	InChI=1S/C6H11NO2/c1-3-7(5-8)4-6(2)9/h5H,3-4H2,1-2H3
