17
gdb 106131	2.91948	1.63315	1.44513	2.1344	72.12	-0.2293	-0.0017	0.2276	966.4629	0.135683	-421.761622	-421.754183	-421.753239	-421.793526	29.128	
C	 0.1262057466	 1.3464525189	 0.2084727035	-0.259288
O	-0.1634107582	-0.0102341611	-0.1108837808	-0.281805
C	 0.560480152	-0.4913807973	-1.1614133258	 0.366049
C	 0.9291053501	-1.8612810072	-1.548601248	 0.00374
O	 0.4863548183	-1.7766913873	-2.8720532333	-0.286131
C	 0.3380173193	-0.2930720355	-2.7174884798	-0.04223
C	 1.6093735257	 0.2942395741	-3.2445276164	-0.107297
C	 2.6025702868	-0.043220443	-2.401603677	-0.054328
C	 2.0511757448	-0.7473171253	-1.2287622624	-0.221965
H	 1.1891448545	 1.4801832149	 0.4458590113	 0.121148
H	-0.1364752052	 2.0173705833	-0.6202492748	 0.119743
H	-0.4779067055	 1.6002075193	 1.0814131984	 0.132162
H	 0.9386633233	-2.8261742869	-1.058277148	 0.123749
H	-0.6246753208	 0.0332231311	-3.1062593812	 0.088555
H	 1.7106304028	 0.7550377894	-4.2178271309	 0.10216
H	 3.6624288373	 0.099264746	-2.574884181	 0.104177
H	 2.6049429482	-0.9221117534	-0.3140945838	 0.091561
97.8769	150.2458	165.9538	347.201	368.9836	400.0947	462.1367	569.3313	606.8677	649.0897	751.196	752.2312	796.3832	812.2153	870.8564	887.3426	926.1846	979.4728	983.3785	1024.7831	1044.8295	1065.3122	1096.5527	1120.9394	1136.263	1177.4862	1198.0388	1210.7669	1240.8654	1266.5997	1308.1671	1368.0821	1439.95	1486.0081	1500.6038	1507.9734	1613.1406	3005.1913	3064.4785	3132.3702	3140.6286	3191.2998	3202.9004	3207.8705	3229.8785
COC12C3OC1C=CC23	CO[C@@]12[C@H]3O[C@@H]1C=C[C@@H]23	
InChI=1S/C7H8O2/c1-8-7-4-2-3-5(7)9-6(4)7/h2-6H,1H3	InChI=1S/C7H8O2/c1-8-7-4-2-3-5(7)9-6(4)7/h2-6H,1H3/t4-,5-,6+,7-/m1/s1
