21
gdb 121862	4.26702	0.54517	0.49817	1.0526	85.84	-0.2493	0.0383	0.2876	2240.9374	0.178565	-424.187195	-424.175412	-424.174468	-424.226681	39.288	
C	 0.0408415887	 1.3833726058	 0.0962227943	-0.227933
O	 0.01087166	-0.0211329252	 0.0327719179	-0.234577
C	 0.6557619423	-0.5299788061	-1.1153199806	-0.05759
C	 0.5886499275	-2.050679363	-1.0658562692	-0.202617
C	 1.2700696987	-2.704449951	-2.2816396252	-0.071303
O	 2.6366928953	-2.3006803059	-2.40329074	-0.419267
C	 1.1368381617	-4.1628691899	-2.2463397896	 0.028336
C	 1.056003317	-5.3627991525	-2.1771778145	 0.107321
C	 0.9512268898	-6.81335529	-2.114710041	-0.500136
H	 1.0721053542	 1.7707678618	 0.1217719162	 0.102457
H	-0.4736447907	 1.8441190488	-0.762643532	 0.101597
H	-0.4711550654	 1.6820837691	 1.0144600173	 0.12428
H	 0.1632337572	-0.1551456578	-2.0307908419	 0.080408
H	 1.7042623332	-0.1979772043	-1.1558389203	 0.100722
H	 1.0676127255	-2.4075655983	-0.1465385689	 0.104467
H	-0.4580586143	-2.3702916476	-1.0247730094	 0.115207
H	 0.7949885856	-2.3226640713	-3.1951441622	 0.11293
H	 3.1372563106	-2.7921957552	-1.74246049	 0.282499
H	 1.857541181	-7.2924131734	-2.501051526	 0.151484
H	 0.8024954631	-7.1611762174	-1.086650199	 0.149389
H	 0.106993299	-7.1734581667	-2.7128537258	 0.152325
21.2369	54.5739	64.1881	74.9017	115.7167	155.2323	176.079	233.6838	272.1068	281.2787	307.421	347.4929	400.9671	448.0339	552.0455	570.3887	781.3216	808.5902	921.9648	990.8872	1051.4711	1054.359	1064.2894	1081.6759	1088.604	1163.6581	1168.3829	1181.9269	1221.7169	1224.1904	1269.9611	1286.7533	1314.8253	1361.2344	1412.1571	1415.6509	1428.6457	1476.9084	1478.6322	1481.218	1483.2548	1485.0252	1505.6788	1533.9868	2367.2059	2942.3422	2966.7714	3004.6759	3008.543	3021.4883	3028.5785	3043.3307	3090.1483	3090.3696	3090.5154	3110.7561	3804.0398
COCCC(O)C#CC	COCC[C@@H](O)C#CC	
InChI=1S/C7H12O2/c1-3-4-7(8)5-6-9-2/h7-8H,5-6H2,1-2H3	InChI=1S/C7H12O2/c1-3-4-7(8)5-6-9-2/h7-8H,5-6H2,1-2H3/t7-/m0/s1
