19
gdb 82348	3.27378	1.33313	1.10773	1.2609	80.63	-0.2559	0.0402	0.2961	1129.1046	0.159754	-385.851428	-385.843196	-385.842251	-385.884004	32.814	
O	-0.0467634799	 1.4515669445	 0.0801947472	-0.43086
C	-0.0145526193	 0.0380590995	 0.0050021844	 0.090195
C	-1.4317413589	-0.5223337283	-0.1015045242	-0.051533
C	-2.4351810928	 0.2845570285	-0.8835955839	-0.271931
C	-1.7097330111	-0.8465424198	-1.5604503823	-0.042961
C	-0.4582267924	-0.5017521947	-2.3682685265	-0.244088
C	 0.6781878303	-0.4696623449	-1.3050083994	-0.168837
C	 1.8549451012	 0.3056086298	-1.665258229	 0.271914
C	 2.8066075664	 0.9967592497	-1.9225773592	-0.435922
H	 0.8434998178	 1.7687019954	-0.1186603732	 0.283595
H	 0.5024115653	-0.3760371541	 0.8822652264	 0.07021
H	-1.7833306584	-1.1656926453	 0.6961708017	 0.083553
H	-3.4820082362	 0.1390972989	-0.6391420998	 0.105539
H	-2.1643518153	 1.3020488183	-1.1398841224	 0.131578
H	-2.268668618	-1.7359405591	-1.8285959293	 0.082405
H	-0.2482496626	-1.2400926702	-3.1456900726	 0.107305
H	-0.5439289648	 0.4722746819	-2.8590961635	 0.117126
H	 0.9788905776	-1.5075331627	-1.112798592	 0.104321
H	 3.6574793011	 1.5811878927	-2.1727437424	 0.198393
81.5506	140.4832	193.7722	249.195	363.594	376.1484	396.9423	454.3187	505.9446	573.5387	622.5439	644.7711	649.0876	703.4557	783.8886	812.5874	818.6273	894.6947	931.562	939.8686	1010.6777	1023.688	1039.8491	1058.4458	1072.1003	1081.8696	1110.5202	1145.295	1194.3494	1214.1563	1248.163	1281.1765	1293.9174	1329.3275	1344.5334	1359.2932	1384.4781	1423.3359	1484.517	1501.1848	2223.699	2994.3427	3026.6183	3059.5279	3105.3573	3136.8819	3166.8492	3178.8782	3228.117	3501.5289	3764.8309
OC1C2CC2CC1C#C	O[C@H]1[C@H]2C[C@H]2C[C@H]1C#C	
InChI=1S/C8H10O/c1-2-5-3-6-4-7(6)8(5)9/h1,5-9H,3-4H2	InChI=1S/C8H10O/c1-2-5-3-6-4-7(6)8(5)9/h1,5-9H,3-4H2/t5-,6-,7+,8-/m1/s1
