20
gdb 56651	2.99144	1.1193	0.9261	3.5217	80.02	-0.2494	0.0164	0.2658	1314.5292	0.170258	-399.315303	-399.305122	-399.304178	-399.350318	37.229	
C	-0.0976434602	 1.468555877	-0.1798737711	-0.406384
C	 0.0921804689	-0.0141351397	 0.0326728075	-0.02168
N	 1.4640562104	-0.557783275	-0.0570704999	-0.369673
C	 0.7439052813	-0.629449033	 1.2220419196	 0.307099
C	 1.308947863	 0.2022355227	 2.3540242017	-0.463122
C	 0.1660784413	-1.9929612285	 1.6749864443	-0.194963
N	-0.1288904379	-2.8804307593	 0.5437528158	-0.512093
C	 1.0445190574	-2.6573410868	 2.6626244816	 0.26619
N	 1.7275007725	-3.2252671111	 3.4030344799	-0.329651
H	 0.7344301726	 2.0486172066	 0.2236963388	 0.128292
H	-0.1634445641	 1.6879399261	-1.2509465352	 0.123832
H	-1.0249172001	 1.8161319828	 0.2890489966	 0.114863
H	-0.677330465	-0.6365581928	-0.4204686465	 0.095261
H	 1.4250651977	-1.4536484794	-0.5380652327	 0.226905
H	 1.6706930187	 1.1616852386	 1.9843234558	 0.132781
H	 0.5488188081	 0.3920727667	 3.1210793782	 0.114812
H	 2.1490435121	-0.3094018785	 2.8329544227	 0.146524
H	-0.7795197246	-1.7815628678	 2.1892097347	 0.137498
H	 0.6836041306	-3.4473997589	 0.3219696129	 0.252028
H	-0.8673961328	-3.5293531599	 0.7929466752	 0.251481
48.3192	133.2643	165.8789	176.3057	190.2132	223.5753	251.7886	267.056	311.6972	371.3227	422.5165	442.8465	471.2827	578.2842	622.2618	723.2063	803.7915	841.6373	860.5918	920.9502	979.3082	986.2919	1028.1841	1079.7564	1088.0852	1099.9193	1129.7252	1156.2375	1201.8998	1244.6783	1270.0909	1301.5112	1349.7464	1392.8145	1410.0226	1426.5921	1455.2873	1480.4966	1490.1144	1500.1908	1512.5149	1667.7083	2344.5372	3035.7596	3037.8825	3040.921	3094.5598	3103.2098	3118.8992	3136.2383	3149.3666	3496.3318	3511.4049	3587.6422
CC1NC1(C)C(N)C#N	C[C@H]1N[C@]1(C)[C@@H](N)C#N	
InChI=1S/C6H11N3/c1-4-6(2,9-4)5(8)3-7/h4-5,9H,8H2,1-2H3	InChI=1S/C6H11N3/c1-4-6(2,9-4)5(8)3-7/h4-5,9H,8H2,1-2H3/t4-,5+,6+/m1/s1
