21
gdb 30767	2.95829	1.1977	0.92087	1.4616	87.7	-0.1835	0.0531	0.2366	1343.7981	0.18291	-383.308845	-383.298727	-383.297783	-383.344433	36.593	
C	 0.1006170465	 1.5530294205	 0.2312152151	-0.358844
C	-0.0107935937	 0.0563213354	-0.1107035071	-0.302594
C	-1.4134274682	-0.4750667887	-0.0521259764	 0.248004
C	-2.2355821258	-0.7390073963	-1.1335726453	 0.14228
N	-2.0510420524	-0.5869952356	-2.5280753431	-0.615811
N	-3.4531163608	-1.1887275176	-0.6581082724	 0.000801
C	-4.5755466634	-1.5928677868	-1.4767771332	-0.340419
C	-3.4059732912	-1.2264048514	 0.7132284433	-0.103724
C	-2.1695108974	-0.7832091101	 1.1165636438	-0.268555
H	 1.1406701723	 1.894561329	 0.1898053837	 0.102738
H	-0.4858845551	 2.1603475189	-0.4663712704	 0.108402
H	-0.2820600145	 1.7520365967	 1.2371709525	 0.119312
H	 0.4015281365	-0.1159126848	-1.113399677	 0.076752
H	 0.6274928273	-0.5120317509	 0.5778337343	 0.100186
H	-1.4783166658	 0.2216931399	-2.7361225996	 0.245524
H	-1.606984333	-1.3945349223	-2.9561555719	 0.24061
H	-4.614624093	-2.6811169957	-1.6106091695	 0.125182
H	-5.5099665354	-1.2669317953	-1.0121126087	 0.131172
H	-4.4746675038	-1.1244306062	-2.4568315734	 0.15684
H	-4.2559316295	-1.5719385147	 1.2803359876	 0.107041
H	-1.8340472594	-0.6923808539	 2.1393454377	 0.085105
44.2986	79.4006	109.3343	157.781	191.3656	201.8571	260.9042	291.2759	310.7798	387.9923	501.2899	574.6906	618.9406	674.2645	715.9001	728.5934	739.552	793.2673	796.7777	805.1703	951.2273	1018.0131	1046.5034	1074.7194	1089.9433	1110.8995	1153.3166	1205.7021	1221.4823	1254.6898	1300.4918	1350.1488	1382.6601	1405.4465	1408.0666	1441.3275	1478.2723	1482.9609	1492.0713	1495.9026	1505.9306	1518.0249	1535.9844	1605.5689	1659.8037	3013.3406	3022.5936	3028.9459	3044.4041	3092.0824	3097.5017	3105.4372	3146.3887	3232.6696	3259.5946	3487.6849	3584.849
CCC1=C(N)N(C)C=C1	CCc1c(N)n(C)cc1	
InChI=1S/C7H12N2/c1-3-6-4-5-9(2)7(6)8/h4-5H,3,8H2,1-2H3	InChI=1S/C7H12N2/c1-3-6-4-5-9(2)7(6)8/h4-5H,3,8H2,1-2H3
