20
gdb 110448	2.59177	1.57905	1.21678	2.1013	76.99	-0.25	0.0488	0.2988	1092.1901	0.171929	-403.088092	-403.079875	-403.07893	-403.120807	32.132	
C	 0.1979398323	 1.5177552143	-0.1815393415	-0.380367
C	-0.1567108035	 0.0461636057	 0.057978953	-0.236601
C	 0.694637178	-0.6102413132	 1.1476670183	 0.034694
C	 0.9000714765	-2.1134816	 1.2398370534	-0.079136
C	 2.1375981712	-2.508264465	 0.4909046438	-0.1219
C	 2.8086378668	-1.266597319	-0.0645934088	 0.158317
O	 2.5992187554	-0.7849580794	-1.3668721094	-0.433689
C	 2.2446289134	-0.5661598897	 1.1919925369	-0.090606
N	 2.2392018175	-1.9658436511	 1.8969360522	-0.160331
H	 1.2170755338	 1.6118722062	-0.5692359081	 0.134614
H	-0.4824586951	 1.9768560238	-0.9048897521	 0.115683
H	 0.1349936145	 2.0946552691	 0.7475661442	 0.11836
H	-1.2108666538	-0.0382146634	 0.3512348799	 0.102606
H	-0.0850600049	-0.5133764534	-0.8841194385	 0.081008
H	 0.3467414641	-0.2636735251	 2.1283165851	 0.091107
H	 0.1946400153	-2.8637099357	 1.581737011	 0.095182
H	 2.3692535101	-3.5457910043	 0.2772159509	 0.096914
H	 3.8919515116	-1.3680753932	 0.0450139294	 0.107368
H	 1.6592132768	-0.8308430439	-1.5625564432	 0.283976
H	 2.77141916	 0.2659837575	 1.6545767633	 0.082801
80.0507	143.4422	217.3829	228.4962	269.7746	300.4444	379.4927	415.1386	540.8881	614.6188	708.3316	750.3444	763.4051	785.4846	822.4917	834.3329	898.2471	937.8075	961.0623	1009.4676	1012.174	1044.0505	1054.9922	1086.3773	1094.0886	1127.6879	1146.4046	1160.2708	1183.923	1190.0954	1249.0233	1267.1779	1275.6397	1296.3208	1347.0658	1363.6191	1375.1228	1401.3424	1413.7955	1442.2857	1497.854	1503.2487	1516.5659	3012.2644	3030.5495	3035.0428	3048.9805	3082.9784	3103.3617	3112.2877	3140.4199	3168.0495	3184.1457	3840.0043
CCC1C2C3C(O)C1N23	CC[C@H]1[C@H]2[C@H]3[C@@H](O)[C@@H]1N23	
InChI=1S/C7H11NO/c1-2-3-4-6-7(9)5(3)8(4)6/h3-7,9H,2H2,1H3	InChI=1S/C7H11NO/c1-2-3-4-6-7(9)5(3)8(4)6/h3-7,9H,2H2,1H3/t3-,4-,5+,6-,7-,8?/m0/s1
