17
gdb 8566	4.05084	1.9589	1.67455	3.8449	67.71	-0.2362	0.031	0.2671	813.015	0.145439	-363.896115	-363.889681	-363.888737	-363.926641	26.004	
O	 0.0071384429	-0.0581162288	 0.0635699547	-0.381914
C	-0.0131396679	 1.1561934032	 0.021742291	 0.392637
C	-1.3146769992	 1.9754985273	-0.0067613098	-0.319503
C	-1.068982063	 3.490606792	-0.0592562426	-0.03012
C	 0.0074623954	 3.8027357638	-1.1416582286	-0.221122
C	 1.0378930703	 3.385396265	-0.0555509725	 0.011707
C	 0.0074051627	 3.8769279788	 0.9989990741	-0.221121
N	 1.1152431976	 1.9293415612	-0.0050617346	-0.292448
H	-1.8922807668	 1.6344858542	-0.8730958199	 0.128867
H	-1.892400577	 1.6952834386	 0.8810244023	 0.128855
H	-2.0052934589	 4.0525487313	-0.0787622989	 0.069687
H	-0.0010133236	 3.2260126675	-2.0700968801	 0.101982
H	 0.0623412411	 4.8711611783	-1.3639698669	 0.103544
H	 2.0451287448	 3.8024929102	-0.0699848484	 0.075859
H	 0.0622784083	 4.9581809554	 1.1468089838	 0.103546
H	-0.0011222591	 3.3658665465	 1.9651371216	 0.101981
H	 2.0025643424	 1.4517666355	 0.0113716248	 0.247562
82.1309	307.8355	374.9265	401.6801	443.1973	476.3385	506.3374	610.8512	614.3626	784.265	808.0856	846.5277	866.2786	911.686	921.8401	928.4048	1012.5284	1036.2141	1088.0563	1095.25	1109.0704	1124.6408	1127.0293	1209.1382	1241.1642	1261.5301	1284.7749	1288.4954	1318.2044	1363.2164	1380.8704	1446.5408	1465.9928	1473.8618	1508.2192	1802.6697	3046.4873	3057.308	3061.312	3083.006	3084.7441	3107.621	3119.6606	3122.7985	3635.3193
O=C1CC2CC(C2)N1	O=C1C[C@@H]2C[C@@H](C2)N1	
InChI=1S/C6H9NO/c8-6-3-4-1-5(2-4)7-6/h4-5H,1-3H2,(H,7,8)	InChI=1S/C6H9NO/c8-6-3-4-1-5(2-4)7-6/h4-5H,1-3H2,(H,7,8)/t4-,5+
