20
gdb 8890	3.69239	1.31347	1.05184	3.5913	73.55	-0.2245	0.0693	0.2938	1190.6834	0.175786	-382.359014	-382.348614	-382.34767	-382.395295	35.142	
C	-0.1192354253	 1.5462791491	-0.0038621719	-0.374336
C	 0.0508358106	 0.0248554061	 0.0282538228	-0.149424
N	 0.7558097271	-0.4562208078	 1.212899707	-0.116784
C	 0.0096098462	-0.6486657648	 2.4410993864	-0.355677
C	 2.1238317904	-0.6090238425	 1.1299815052	 0.497867
O	 2.7630264235	-0.2853031575	 0.1380721007	-0.432904
N	 2.7338849815	-1.1262399718	 2.260909653	-0.369657
C	 4.146496184	-1.46007567	 2.1957320548	-0.314954
H	 0.8609945353	 2.0293991295	-0.0223384074	 0.142362
H	-0.6722496772	 1.8503328976	-0.8987828242	 0.112477
H	-0.6700099955	 1.9113277331	 0.8700783428	 0.107596
H	-0.9258266576	-0.4724439625	-0.0108841945	 0.092608
H	 0.6264229257	-0.2966944345	-0.8409750993	 0.140499
H	-0.2340872343	-1.7051900568	 2.6352532547	 0.116296
H	 0.5578945878	-0.2549719614	 3.3030032121	 0.137345
H	-0.9346775407	-0.1027542919	 2.3782016972	 0.135348
H	 2.1739757996	-1.6982869044	 2.871624048	 0.23831
H	 4.3416787235	-2.4022967276	 1.6657325827	 0.118483
H	 4.6659541483	-0.6644586038	 1.6616662869	 0.160398
H	 4.5460499072	-1.536045778	 3.210643323	 0.114148
53.1126	55.1705	83.0959	117.5703	135.2321	171.6942	223.0861	265.1062	331.5172	381.8273	400.3534	473.2308	542.4142	619.6844	764.0871	787.8	825.6403	924.9508	1022.1394	1087.4179	1106.5148	1121.473	1143.5997	1150.9804	1167.5799	1228.8464	1271.169	1332.8782	1390.1141	1404.0272	1408.5094	1442.11	1462.4835	1477.7323	1487.1851	1490.3014	1499.0329	1502.9898	1508.7133	1524.7494	1552.5814	1756.1833	2977.1806	3011.9474	3032.1323	3034.1493	3066.3033	3090.4706	3094.9374	3116.6553	3120.3825	3131.3198	3154.8526	3635.7865
CCN(C)C(=O)NC	CCN(C)C(=O)NC	
InChI=1S/C5H12N2O/c1-4-7(3)5(8)6-2/h4H2,1-3H3,(H,6,8)	InChI=1S/C5H12N2O/c1-4-7(3)5(8)6-2/h4H2,1-3H3,(H,6,8)
