19
gdb 76827	2.75536	1.52467	1.21407	0.3142	77.65	-0.2306	0.0091	0.2397	1074.6058	0.160184	-423.003574	-422.995322	-422.994377	-423.036379	31.917	
O	 0.1136438622	 1.369700477	 0.0156244847	-0.431384
C	 0.0729977664	-0.0347386987	-0.0452712333	 0.058408
C	 0.1748643572	-0.6719586634	 1.4124162112	 0.026463
O	 0.7887778718	 0.1119585752	 2.4033247984	-0.433428
C	-1.3321511874	-0.738612503	 1.3611394765	 0.23074
C	-2.4165397069	-0.2928804181	 1.9892743789	-0.237266
C	-3.4772607648	 0.0836758584	 0.9581418024	-0.236748
C	-2.6468692859	 0.2980937087	-0.3514338646	-0.242086
C	-1.3957625333	-0.5768657128	-0.1377952838	-0.059797
H	 0.9064396257	 1.5992743209	 0.516626247	 0.28502
H	 0.7813201754	-0.429589651	-0.7859746792	 0.061994
H	 0.6895989176	-1.6371529972	 1.3953045132	 0.099625
H	 0.1854588448	 0.8439101761	 2.5794438786	 0.282793
H	-2.5360742307	-0.1268510925	 3.0541530652	 0.096186
H	-4.228943551	-0.7088959249	 0.8352710643	 0.105841
H	-4.0271170756	 0.9849283032	 1.2506400584	 0.103038
H	-3.208785606	 0.0461761546	-1.2548264876	 0.092331
H	-2.3451735196	 1.3469942642	-0.4221668361	 0.124931
H	-1.4158567001	-1.5134349267	-0.7055628543	 0.073339
94.1371	128.4303	163.5055	236.3264	246.6991	282.39	474.92	505.0472	542.1806	576.4939	605.9675	666.1467	793.8398	805.056	821.8939	837.4254	871.8112	903.5823	940.2442	969.7879	1001.3472	1026.1185	1095.1964	1113.6457	1122.7319	1144.9288	1178.9238	1212.5009	1230.4604	1239.2367	1262.6293	1288.1224	1305.8728	1308.5759	1331.822	1349.7613	1398.0893	1424.0349	1481.0916	1495.9064	1722.1901	3003.8028	3007.4385	3043.6661	3056.8559	3065.638	3071.4907	3110.0753	3192.3893	3773.1089	3789.0366
OC1C(O)C2=CCCC12	O[C@H]1[C@@H](O)[C]2[CH]CC[C@@H]12	
InChI=1S/C7H10O2/c8-6-4-2-1-3-5(4)7(6)9/h2,5-9H,1,3H2	InChI=1S/C7H10O2/c8-6-4-2-1-3-5(4)7(6)9/h2,5-9H,1,3H2/t5-,6+,7-/m1/s1
