19
gdb 71627	2.71522	1.7268	1.6067	1.3607	74.46	-0.2463	0.1011	0.3475	952.5963	0.161156	-422.98511	-422.977897	-422.976953	-423.016374	29.275	
C	-0.0162167852	 1.4914200956	 0.0120551469	-0.526203
C	 0.0175147088	-0.0096637118	-0.0287461738	 0.274695
C	 0.6627176404	-0.9577099075	-1.0744636112	-0.288625
C	 0.0368127916	-1.9280323595	-0.041906458	-0.16244
C	 0.5932285245	-0.9708170687	 1.0612945434	 0.114261
O	-0.0450110311	-0.9478404438	 2.3196410636	-0.276456
C	-1.3516092065	-1.4608545904	 2.2234217117	 0.015467
O	-2.0366712723	-0.9595542561	 1.1013568202	-0.276457
C	-1.2068680769	-0.9813714739	-0.0398075298	 0.114272
H	 0.9944040064	 1.9121597016	 0.0530898544	 0.11864
H	-0.5177245151	 1.9032913917	-0.8705051741	 0.118643
H	-0.5601004305	 1.8318108791	 0.8992360324	 0.134332
H	 0.2144751306	-0.9600545098	-2.0717012788	 0.097575
H	 1.7546539743	-0.9510073526	-1.1295936165	 0.097573
H	 0.0599569863	-3.0172604688	-0.0693036583	 0.080031
H	 1.6730041925	-0.953865182	 1.2298204506	 0.079247
H	-1.3090321644	-2.5617425302	 2.164401704	 0.087312
H	-1.8997567786	-1.1535955295	 3.116584718	 0.118885
H	-1.8487535546	-0.9744989336	-0.9244209348	 0.079247
177.7619	186.6532	207.5898	291.622	378.4542	418.9719	475.7296	550.6754	563.4851	675.7367	733.5788	774.7394	805.3039	870.9084	903.756	941.7588	964.6155	1007.4664	1011.8958	1018.3576	1038.6412	1086.2024	1096.3554	1103.7867	1151.6163	1166.3162	1202.3601	1203.6848	1232.1202	1235.8923	1241.0315	1282.5873	1339.7718	1365.8485	1407.1242	1416.4539	1449.5307	1487.8221	1490.6643	1518.7839	1524.1034	2956.146	3028.7093	3052.67	3081.0647	3084.3371	3093.8862	3102.7538	3107.6067	3115.1293	3117.0733
CC12CC3C1OCOC23	C[C@@]12C[C@H]3[C@@H]1OCO[C@@H]23	
InChI=1S/C7H10O2/c1-7-2-4-5(7)8-3-9-6(4)7/h4-6H,2-3H2,1H3	InChI=1S/C7H10O2/c1-7-2-4-5(7)8-3-9-6(4)7/h4-6H,2-3H2,1H3/t4-,5-,6+,7+
