20
gdb 119536	3.06322	1.05556	0.86891	2.423	80.72	-0.2575	0.0217	0.2792	1393.1274	0.170304	-403.128585	-403.11956	-403.118616	-403.162876	33.681	
C	-0.112457852	 1.6170567874	 0.0547990033	-0.385417
C	-0.1156406041	 0.0874532432	 0.0963521463	-0.162073
C	 0.8389674721	-0.4784202721	 1.160208185	-0.308367
C	 0.856633041	-1.9803550629	 1.180741847	 0.210659
C	-0.1418824368	-2.8600676576	 1.9529077515	-0.333209
C	 1.317614921	-3.0220912622	 2.1776573692	 0.021182
O	 1.8715290706	-3.8512742237	 1.1189596963	-0.278791
C	 1.5365778279	-2.8699767437	 0.1851795086	 0.409362
N	 1.8105293819	-2.782017711	-1.0347559223	-0.5601
H	 0.8862426206	 2.0046938993	-0.1750149419	 0.117149
H	-0.7985479201	 1.9942397509	-0.7096100317	 0.11439
H	-0.418942012	 2.0434971265	 1.0169825888	 0.109707
H	-1.1309478835	-0.2778288317	 0.2958053011	 0.095259
H	 0.1722394947	-0.3162141452	-0.8805675456	 0.133686
H	 1.8545674297	-0.1093039532	 0.9688546646	 0.110399
H	 0.552793046	-0.1065633365	 2.1527089031	 0.094728
H	-0.6870322362	-2.3209722422	 2.7228399841	 0.124813
H	-0.6970270981	-3.6504034706	 1.4572311711	 0.130969
H	 1.8768354636	-2.9555386996	 3.100677571	 0.125545
H	 2.3464253537	-3.5902986051	-1.3554366295	 0.230111
65.5756	90.6701	117.9565	189.648	240.1656	266.7072	318.5253	354.5314	464.4797	469.7778	649.6525	720.8561	747.5878	766.2169	842.0772	862.3496	865.0828	901.9179	908.6665	931.8263	943.2044	1007.4403	1015.8097	1036.9081	1049.1355	1079.398	1118.738	1136.2034	1187.9747	1247.3074	1263.2917	1299.6616	1318.9256	1341.1988	1385.7778	1412.3636	1414.738	1480.0943	1483.8641	1494.6783	1499.9518	1510.8871	1826.0885	3015.7138	3027.6469	3031.027	3051.2842	3073.9728	3098.3939	3104.0366	3119.2841	3209.8234	3218.2374	3477.2972
CCCC12CC1OC2=N	CCC[C@]12C[C@H]1O[C]2[NH]	
InChI=1S/C7H11NO/c1-2-3-7-4-5(7)9-6(7)8/h5,8H,2-4H2,1H3	InChI=1S/C7H11NO/c1-2-3-7-4-5(7)9-6(7)8/h5,8H,2-4H2,1H3/t5-,7+/m1/s1
