14
gdb 5722	5.03839	1.96245	1.44025	0.6859	62.83	-0.2269	0.0094	0.2363	806.86	0.109837	-382.552788	-382.546734	-382.54579	-382.583305	22.796	
C	-0.038771943	 1.5154215743	 0.0916011789	-0.19109
O	 1.2060294592	 1.9456447231	-0.4807626633	-0.279721
C	 2.1350984634	 0.8610047091	-0.6311278523	-0.19109
C	 1.3121833517	-0.3691428388	-0.4157103407	 0.19656
C	 1.3181433153	-1.7224929153	-0.4610796941	-0.163824
O	 0.0925052613	-2.1938108327	-0.0818963947	-0.150518
C	-0.6962811647	-1.1160752721	 0.2086397109	-0.163824
C	 0.0111606196	 0.0225140073	 0.0168301612	 0.19656
H	-0.1242345785	 1.8794499455	 1.1269392179	 0.111274
H	-0.8541328603	 1.9639577385	-0.4885951124	 0.120717
H	 2.581014145	 0.9298491574	-1.6306504872	 0.120717
H	 2.9475373974	 0.9547308591	 0.10569218	 0.111274
H	 2.0436087924	-2.4742945748	-0.7222604237	 0.141483
H	-1.7001829728	-1.3472722395	 0.5224077609	 0.141483
79.809	232.8569	254.3072	441.9423	604.6777	610.9309	635.6336	705.8754	731.4677	759.934	835.9911	901.5911	937.7081	1022.0939	1054.4633	1058.3995	1064.5666	1124.4097	1158.7533	1187.8972	1215.9174	1250.6853	1303.471	1342.9894	1347.8841	1426.9582	1514.7711	1524.8072	1601.0553	1673.4604	2980.4847	2985.6843	3039.2237	3042.6927	3277.4417	3282.2014
C1OCC2=COC=C12	C1OCc2cocc12	
InChI=1S/C6H6O2/c1-5-2-8-4-6(5)3-7-1/h1,3H,2,4H2	InChI=1S/C6H6O2/c1-5-2-8-4-6(5)3-7-1/h1,3H,2,4H2
