12
gdb 24819	3.08964	1.54097	1.02817	5.7571	70.25	-0.2649	-0.0746	0.1903	1037.6238	0.079798	-431.701631	-431.694649	-431.693705	-431.733496	25.456	
N	-0.057531696	 1.3026956391	-0.185519736	-0.498079
C	-0.0098602096	 0.0449321844	-0.0113189164	 0.299733
N	 1.1969462796	-0.6708201541	 0.1906692331	-0.295826
C	 1.1646893571	-1.923975419	 0.3571919406	 0.130292
O	 0.0578332012	-2.7266902166	 0.369048226	-0.181936
C	-1.1319913735	-2.1078077494	 0.1815714012	 0.009755
C	-1.2341887668	-0.7783642715	-0.0069836463	 0.023487
C	-2.5178771129	-0.1902913708	-0.1985188649	 0.25954
N	-3.5739088955	 0.256964713	-0.3511464313	-0.320453
H	 0.8894116157	 1.6855401949	-0.1546433533	 0.233995
H	 2.0588257623	-2.5183314445	 0.5154924743	 0.163716
H	-1.9644649416	-2.7980862956	 0.202167953	 0.175776
85.9982	151.8674	199.8369	391.9539	394.1494	441.3239	460.3871	571.8008	575.2939	584.0053	733.64	793.9308	896.4964	920.3102	929.6565	969.2601	970.7754	1072.414	1183.6868	1208.3134	1333.3564	1400.1684	1417.8822	1632.5691	1710.0242	1728.8014	2353.1276	3203.3816	3239.8572	3473.209
N=C1N=COC=C1C#N	[NH]C1=C(COC=N1)C#N	
InChI=1S/C5H3N3O/c6-1-4-2-9-3-8-5(4)7/h2-3,7H	InChI=1S/C5H4N3O/c6-1-4-2-9-3-8-5(4)7/h3,7H,2H2
