19
gdb 94358	2.74033	1.13265	0.98989	4.3057	77.8	-0.2416	-0.0159	0.2257	1261.5636	0.157988	-423.010961	-423.002094	-423.00115	-423.044792	33.291	
O	 0.4964721734	 0.8318463808	-0.6819747469	-0.424634
C	 0.1578242547	-0.2508577644	 0.1429467418	 0.082976
C	-0.0179400344	-0.0455862243	 1.6753065604	-0.258438
C	-1.242774865	-1.0077072487	 1.6341349484	-0.307301
C	-1.2785994241	-0.8108990553	 0.1139264392	 0.310005
C	-2.3890888013	-0.2144593409	-0.6726978191	-0.365409
C	-1.9614746575	-1.6581132665	-0.9419822689	-0.180886
C	-1.241065457	-1.942769734	-2.2031183914	 0.155617
O	-1.314231815	-2.9809747563	-2.8151708009	-0.27525
H	-0.1073867327	 1.5560237383	-0.4828874145	 0.281429
H	 0.8975419916	-1.0282424228	-0.0721552319	 0.104587
H	 0.8224138842	-0.3116918729	 2.3188870253	 0.110258
H	-0.320997452	 0.9830117376	 1.8959004494	 0.100565
H	-0.9788238671	-2.0304909829	 1.9170284695	 0.117026
H	-2.1316519251	-0.7068397394	 2.1929872006	 0.109346
H	-3.3561818424	-0.0698537544	-0.2030797175	 0.127039
H	-2.1371322122	 0.5165873394	-1.4368125302	 0.123617
H	-2.6166649727	-2.4536251158	-0.6012366525	 0.10415
H	-0.6022670353	-1.1030542276	-2.5609589708	 0.085304
76.7848	94.0317	148.4431	200.0343	259.467	320.9649	339.7823	381.6652	407.9276	459.6634	552.2626	586.376	704.797	791.2612	859.3368	878.2717	895.6949	919.7295	949.1619	968.2896	1041.9862	1053.2056	1058.9991	1078.9163	1110.0435	1141.3333	1174.561	1178.2289	1207.1974	1228.7576	1260.7242	1278.2831	1303.1611	1316.0045	1386.6593	1433.1229	1445.65	1473.3162	1483.5531	1497.0393	1814.8972	2874.4402	3053.4595	3061.3021	3067.7587	3109.4273	3118.7975	3124.8312	3168.4459	3209.9594	3800.8244
OC1CCC11CC1C=O	O[C@H]1CC[C@]21C[C@H]2C=O	
InChI=1S/C7H10O2/c8-4-5-3-7(5)2-1-6(7)9/h4-6,9H,1-3H2	InChI=1S/C7H10O2/c8-4-5-3-7(5)2-1-6(7)9/h4-6,9H,1-3H2/t5-,6-,7-/m0/s1
