20
gdb 98292	3.81409	0.92006	0.79461	4.4636	77.93	-0.2361	0.0212	0.2574	1464.5013	0.170016	-440.287515	-440.277813	-440.276869	-440.322694	35.328	
C	-0.1296786982	 1.5099908185	 0.0112674804	-0.355367
N	-0.1430443276	 0.0582406316	-0.0427532157	-0.097974
C	-0.1048656145	-0.7000032976	 1.1886960335	 0.06599
C	 0.4028853822	-0.1177943577	 2.4786119192	-0.299559
C	-1.06674265	-0.4519335396	 2.3195653317	-0.284583
C	-0.077250513	-0.6337175233	-1.2132389781	 0.389251
O	-0.0427848162	-1.8589780895	-1.2665625337	-0.405556
C	-0.0370044178	 0.1429732563	-2.5398783054	-0.157661
O	 0.0711552715	-0.7589873985	-3.5982613351	-0.42441
H	 0.8746222895	 1.9071855216	 0.204999139	 0.136929
H	-0.4960910044	 1.9318464173	-0.923446588	 0.151105
H	-0.7955019329	 1.8629058409	 0.8038525783	 0.138859
H	 0.1418824836	-1.7299907554	 0.9736192479	 0.142825
H	 1.0240872539	-0.748441002	 3.1046454769	 0.125094
H	 0.6690695601	 0.9323216138	 2.5125818575	 0.117192
H	-1.7585074934	 0.3797902164	 2.2398542861	 0.117832
H	-1.4730462233	-1.3156392993	 2.8334699776	 0.126666
H	-0.9513225789	 0.7517909271	-2.6356836011	 0.109804
H	 0.8130947755	 0.8431317078	-2.5313669051	 0.109266
H	 0.0631960536	-1.6320870882	-3.1665064858	 0.294296
43.9722	92.1842	140.2249	156.8075	191.2425	200.4213	315.826	347.7088	383.5844	420.9064	490.9657	511.1352	589.545	641.0767	755.6456	794.1424	820.4482	850.4294	935.3406	978.767	1031.3311	1057.4181	1075.8067	1086.4552	1120.5648	1146.5581	1151.237	1165.1745	1196.6207	1226.7765	1266.7692	1301.1768	1314.873	1369.5354	1441.8119	1466.7364	1477.2736	1480.7702	1491.7689	1507.3972	1516.0115	1533.8126	1734.9065	2967.1771	2991.4755	3024.1292	3093.1495	3137.8449	3142.5315	3155.7116	3215.9787	3219.2916	3233.4716	3626.2587
CN(C1CC1)C(=O)CO	CN(C1CC1)C(=O)CO	
InChI=1S/C6H11NO2/c1-7(5-2-3-5)6(9)4-8/h5,8H,2-4H2,1H3	InChI=1S/C6H11NO2/c1-7(5-2-3-5)6(9)4-8/h5,8H,2-4H2,1H3
