19
gdb 100325	2.3645	1.30843	1.10144	0.71	66.68	-0.2505	0.0516	0.3021	1172.8638	0.157624	-497.259788	-497.250205	-497.249261	-497.294404	35.684	
O	 0.1252871012	 1.2645259493	 0.2948749402	-0.438303
C	 0.0135453832	-0.1252601319	-0.0009648402	-0.117532
C	-1.4662634156	-0.5557625412	-0.0003176957	 0.266557
O	-2.0792499438	-0.1028343683	 1.1998041427	-0.470909
C	-2.2049308206	 0.0607002343	-1.2088219276	-0.127004
O	-1.5994798758	-0.2307262671	-2.4518643337	-0.426685
C	-1.5467167252	-2.0753596653	 0.0306429167	 0.079389
C	-2.7539724224	-2.8322632681	-0.3124273964	-0.192765
O	-1.6498131328	-2.7652578495	-1.2282287886	-0.249817
H	-0.0085888067	 1.7546338094	-0.5226529726	 0.300735
H	 0.4802515188	-0.3770938199	-0.9585506517	 0.122475
H	 0.5416972707	-0.6469572173	 0.8037661259	 0.111532
H	-1.6575265937	 0.7469477481	 1.3932554698	 0.290709
H	-3.2637046288	-0.2338592136	-1.1755632891	 0.097536
H	-2.1881364994	 1.1498866331	-1.089202453	 0.095429
H	-1.5986589679	-1.1956258941	-2.5226897789	 0.296772
H	-0.8524518727	-2.5456413638	 0.7280576808	 0.102317
H	-2.9114709173	-3.8093422699	 0.1394635163	 0.127467
H	-3.6557824412	-2.315239464	-0.6281993951	 0.132098
54.3197	79.1506	179.0668	191.1579	240.4573	293.9982	309.0517	341.4792	365.9522	392.4757	435.9065	520.959	554.9326	595.8598	622.3143	764.1066	857.9573	869.1628	906.9598	949.0105	1002.627	1052.3637	1082.0915	1091.9378	1101.2897	1129.1483	1156.5553	1173.7673	1194.261	1214.798	1264.455	1309.6107	1357.0442	1364.5572	1395.4127	1417.0098	1444.3001	1463.5048	1483.9617	1511.7375	1535.9951	3005.0051	3044.0249	3062.6351	3098.3365	3103.3849	3108.9726	3196.907	3734.7869	3740.5584	3823.5038
OCC(O)(CO)C1CO1	OCC(O)(CO)[C@H]1CO1	
InChI=1S/C5H10O4/c6-2-5(8,3-7)4-1-9-4/h4,6-8H,1-3H2	InChI=1S/C5H10O4/c6-2-5(8,3-7)4-1-9-4/h4,6-8H,1-3H2/t4-/m1/s1
