20
gdb 126649	6.08904	0.67885	0.61969	2.6272	82.8	-0.1865	0.0308	0.2173	1802.9107	0.172766	-399.341399	-399.332103	-399.331159	-399.376535	33.774	
C	 0.0504983416	 1.5534633572	-0.0415657982	-0.380548
C	-0.0589443641	 0.0298081665	 0.0519337135	-0.193122
C	 0.7545782411	-0.5490995357	 1.2081667252	-0.10982
N	 0.5896875674	-1.9943008246	 1.287555813	-0.41478
C	 1.3132690575	-2.6785001444	 2.2695241665	 0.253917
C	 1.5459369907	-4.0417166457	 2.3529334911	-0.152013
N	 2.244372783	-4.2358990043	 3.5063078319	-0.172837
N	 2.4832238196	-3.106847316	 4.1808125268	-0.230423
C	 1.9238503094	-2.1516380415	 3.4359191698	-0.070756
H	 1.0893412972	 1.8704545309	-0.1839883116	 0.11795
H	-0.5336494208	 1.940594665	-0.8814910137	 0.115927
H	-0.3202773186	 2.0332309862	 0.8706773605	 0.119188
H	-1.106334168	-0.2694898635	 0.1742752071	 0.110282
H	 0.2845026616	-0.4201378427	-0.8902870115	 0.091832
H	 1.8141530113	-0.2528073603	 1.1042602902	 0.087983
H	 0.4018975083	-0.1133092355	 2.151712281	 0.111343
H	 0.6649966761	-2.4309772668	 0.3782528139	 0.224173
H	 1.2725128701	-4.8574048114	 1.7032912844	 0.118706
H	 2.58209305	-5.107283985	 3.8761261054	 0.271376
H	 1.9757756866	-1.1236080084	 3.7593755747	 0.101623
48.4541	70.9638	104.999	130.6466	237.3442	279.032	316.3117	336.6728	456.1011	467.7658	611.8128	650.7135	690.1809	730.6756	757.6959	763.2181	847.9078	901.1616	917.6952	949.3676	1007.5253	1048.4425	1070.7766	1102.4911	1149.5004	1170.474	1175.0213	1261.8207	1273.0573	1306.2525	1321.4861	1342.2774	1384.3639	1397.403	1411.4198	1424.8982	1491.3106	1492.6418	1500.2275	1506.2705	1518.2222	1526.4847	1634.5705	2937.5818	3010.1406	3032.4267	3035.9631	3062.7818	3100.4863	3108.1382	3256.8483	3261.9184	3561.3233	3682.0752
CCCNC1=CNN=C1	CCCNc1c[nH]nc1	
InChI=1S/C6H11N3/c1-2-3-7-6-4-8-9-5-6/h4-5,7H,2-3H2,1H3,(H,8,9)	InChI=1S/C6H11N3/c1-2-3-7-6-4-8-9-5-6/h4-5,7H,2-3H2,1H3,(H,8,9)
