19
gdb 70627	2.42771	1.87513	1.32151	1.6552	74.58	-0.2346	0.0835	0.3181	1009.0111	0.160021	-423.006278	-422.998571	-422.997627	-423.037986	31.473	
O	-0.5935156529	 1.1431871862	 0.0656560478	-0.474613
C	-0.1232420144	-0.1608565598	 0.0709533662	 0.377883
C	-0.3871938633	-1.0112384855	 1.2717074164	-0.347057
C	 1.0465051794	-0.6691130675	 0.902230449	-0.112656
C	 1.8257832393	-1.6821150887	 0.0740002806	-0.222291
C	 0.8916030635	-2.0462063428	-1.1133096533	-0.325563
C	-0.0241667704	-0.8438701179	-1.267625233	 0.362726
C	-0.9959384632	-0.6372638614	-2.3400581854	-0.257895
O	 0.2483113773	 0.0876690124	-2.3377997221	-0.296496
H	-0.1996163093	 1.554439412	-0.7168167122	 0.289285
H	-0.7937320198	-0.4758826082	 2.1227929925	 0.125655
H	-0.7602165324	-2.0253483596	 1.1616513549	 0.108939
H	 1.5817743299	 0.0061655007	 1.5594395829	 0.092152
H	 2.7441380935	-1.2154010871	-0.2987402939	 0.110026
H	 2.1215261951	-2.5694342332	 0.6437988336	 0.100097
H	 1.4355292495	-2.2440000404	-2.039291501	 0.118723
H	 0.2967949119	-2.9369240303	-0.8849798325	 0.112623
H	-1.0951129915	-1.3756601636	-3.1343409837	 0.115603
H	-1.8803961421	-0.0323387656	-2.1486752967	 0.122861
119.4459	213.1278	256.0057	274.6661	355.4834	400.1097	420.093	459.6313	501.4477	566.9095	619.9834	666.9812	761.5019	805.0575	834.7565	875.2974	905.9362	931.7545	951.3348	960.8445	980.9597	1049.3013	1051.7089	1090.9095	1095.9003	1124.0793	1131.844	1176.9538	1197.7382	1219.4124	1254.393	1287.55	1324.9932	1332.1252	1372.8443	1416.0061	1444.5922	1479.3226	1491.166	1504.9764	1525.6337	3039.0088	3051.8636	3076.525	3086.9808	3113.6331	3122.9062	3176.0553	3181.623	3213.7139	3746.0812
OC12CC1CCC21CO1	O[C@]12C[C@H]1CC[C@]12CO1	
InChI=1S/C7H10O2/c8-7-3-5(7)1-2-6(7)4-9-6/h5,8H,1-4H2	InChI=1S/C7H10O2/c8-7-3-5(7)1-2-6(7)4-9-6/h5,8H,1-4H2/t5-,6-,7-/m1/s1
