18
gdb 115255	5.04885	0.84815	0.76748	3.4841	82.7	-0.2555	-0.0509	0.2046	1478.5435	0.14744	-401.975686	-401.966729	-401.965785	-402.010145	32.01	
C	 0.108348431	 1.5202884758	 0.1213207106	-0.382738
C	 0.0366558985	-0.0043963279	 0.0121624323	-0.18008
C	 0.5839945467	-0.5231102499	-1.3243271774	 0.101493
O	 1.9588851284	-0.1498487427	-1.4824624504	-0.27734
C	 2.7718406258	-1.2804765918	-1.7545395024	-0.164474
C	 1.8228667562	-2.4595510368	-1.6821315551	 0.176901
C	 0.5841395417	-2.0191363625	-1.4510718177	-0.210724
C	 2.2423871689	-3.8029968949	-1.8552800638	 0.20803
N	 2.620393603	-4.8881234447	-2.0017301066	-0.327717
H	 1.1399929249	 1.8644451103	 0.0129002337	 0.139565
H	-0.491189046	 2.0010195153	-0.6596779729	 0.115659
H	-0.2682356283	 1.8608901574	 1.0899947794	 0.116051
H	 0.6061970598	-0.472581182	 0.8234787992	 0.10569
H	-1.0021885976	-0.3441952883	 0.111485547	 0.099072
H	-0.003205072	-0.0685166795	-2.1418511048	 0.09374
H	 3.2344799631	-1.1952546896	-2.7492378089	 0.124621
H	 3.5825504392	-1.3539950777	-1.0165115318	 0.127303
H	-0.3052626533	-2.6284819305	-1.3606631304	 0.134947
54.9395	94.6646	111.6039	165.3826	215.5716	240.2792	321.3775	400.9042	473.6289	534.6433	562.9528	579.1563	730.3477	796.9666	854.4324	903.8827	911.6621	939.8701	1000.0437	1041.8729	1048.3362	1081.1387	1117.3631	1139.6996	1196.2467	1202.8973	1274.0803	1287.3879	1313.0635	1347.2825	1383.1072	1386.7435	1409.5368	1476.3862	1495.6626	1508.5729	1525.1572	1689.7355	2341.7442	2945.6548	2992.4137	3023.5863	3026.9407	3038.857	3068.3606	3106.31	3126.4622	3231.7685
CCC1OCC(=C1)C#N	CC[C@H]1OCC(=C1)C#N	
InChI=1S/C7H9NO/c1-2-7-3-6(4-8)5-9-7/h3,7H,2,5H2,1H3	InChI=1S/C7H9NO/c1-2-7-3-6(4-8)5-9-7/h3,7H,2,5H2,1H3/t7-/m1/s1
