20
gdb 103672	3.85863	0.8756	0.83177	5.1885	80.27	-0.2737	0.0315	0.3051	1445.9048	0.169903	-403.161413	-403.151885	-403.150941	-403.195738	35.693	
C	-0.0386041279	 1.6305778192	 0.0356873391	-0.412786
C	-0.0339189909	 0.1024177505	 0.1515555068	-0.223971
C	-1.4165121272	-0.5427516723	-0.0029811744	 0.419356
O	-2.3227331794	-0.0943417998	 0.9817076741	-0.480659
C	-1.952943331	-0.5582771451	-1.4730624487	-0.297644
C	-1.4639064718	-2.035754544	-1.5946202677	-0.139294
C	-1.3693191821	-2.0901966321	-0.0374744351	-0.278322
C	-2.3350473001	-2.9883467292	-2.2593439502	 0.270513
N	-3.0410266393	-3.7411211559	-2.7813288494	-0.328071
H	 0.9776475739	 2.0280003792	 0.1062195396	 0.128116
H	-0.4581844418	 1.9655999651	-0.9191180864	 0.123772
H	-0.6159898687	 2.0965260184	 0.8422535205	 0.116408
H	 0.6410327612	-0.317840485	-0.6046219457	 0.099769
H	 0.3667724681	-0.1929368379	 1.1286454642	 0.110638
H	-2.3693261135	 0.866852178	 0.9437734923	 0.279854
H	-3.042555217	-0.4990986903	-1.4796914911	 0.129877
H	-1.5396469464	 0.153391067	-2.1907516308	 0.10939
H	-0.4733435707	-2.087172933	-2.0539574478	 0.122607
H	-0.493037262	-2.5832091686	 0.3878617296	 0.113344
H	-2.2766628035	-2.5037758742	 0.405071331	 0.137102
67.8005	106.0799	146.5391	213.7873	230.5277	257.9706	286.0005	335.3165	365.8146	426.9979	461.4077	540.5231	571.8499	600.2406	715.9985	782.1301	837.7506	857.9385	919.441	956.2776	1001.1294	1010.6225	1023.371	1048.514	1066.7993	1112.2023	1148.3272	1180.6111	1231.6194	1245.6758	1265.7142	1281.7965	1320.3882	1341.104	1355.4543	1393.6703	1415.0949	1464.8446	1476.7978	1490.7938	1501.2288	1513.2718	2353.5014	3025.8387	3033.67	3062.5998	3073.0569	3076.447	3078.9819	3098.0728	3111.087	3139.4934	3144.797	3811.6772
CCC1(O)CC(C1)C#N	CC[C@@]1(O)C[C@@H](C1)C#N	
InChI=1S/C7H11NO/c1-2-7(9)3-6(4-7)5-8/h6,9H,2-4H2,1H3	InChI=1S/C7H11NO/c1-2-7(9)3-6(4-7)5-8/h6,9H,2-4H2,1H3/t6-,7+
