17
gdb 97304	4.04361	0.90102	0.77387	3.383	77.52	-0.2437	-0.0261	0.2177	1468.3017	0.13428	-455.151746	-455.142284	-455.14134	-455.186763	32.687	
C	 0.0335030466	 1.4733499846	-0.0529630744	-0.310687
N	-0.0355207574	 0.0314142422	 0.0375707202	-0.179579
C	 0.5583053636	-0.6378039001	-0.853181248	 0.087542
N	 0.5701910624	-2.0249720441	-0.8783185842	-0.140168
C	 1.2227055766	-2.941721091	-1.8323867121	-0.192122
C	 0.6517548317	-4.1223704212	-1.0055035183	-0.011678
O	 1.6355259447	-4.9672705522	-0.4696049104	-0.427959
C	 0.0978067533	-3.0416194487	-0.0426972265	 0.398084
O	-0.4618666474	-3.0552451271	 1.0148049018	-0.337234
H	 0.6133167757	 1.8401265066	-0.9161947552	 0.095573
H	-0.9808048826	 1.8839801746	-0.1147378716	 0.133222
H	 0.4817078162	 1.8750997149	 0.8629196836	 0.134498
H	 1.1193664017	-0.2012619914	-1.6936480817	 0.088397
H	 0.856726879	-2.8519613632	-2.8584957679	 0.12296
H	 2.3146568282	-2.8997988884	-1.806352472	 0.135385
H	-0.1407990975	-4.6774612026	-1.5259617928	 0.100625
H	 1.2844260553	-5.3370555528	 0.3488704796	 0.303141
59.7892	101.3535	118.0953	146.8032	178.6733	212.1476	281.7444	323.9566	353.8858	392.9473	469.9456	534.7168	707.5102	768.8319	841.0356	900.7516	975.1955	999.877	1029.2635	1066.4265	1137.098	1138.4263	1148.7883	1170.6247	1184.48	1209.0829	1280.5924	1323.6517	1392.1036	1398.4071	1421.9855	1446.6145	1477.008	1501.9663	1512.3061	1750.8846	1891.7745	2965.2357	2998.3204	3013.4537	3057.7471	3060.9749	3079.8849	3116.0937	3801.5876
CN=CN1CC(O)C1=O	CN=CN1C[C@@H](O)C1=O	
InChI=1S/C5H8N2O2/c1-6-3-7-2-4(8)5(7)9/h3-4,8H,2H2,1H3	InChI=1S/C5H8N2O2/c1-6-3-7-2-4(8)5(7)9/h3-4,8H,2H2,1H3/t4-/m1/s1
