18
gdb 66949	2.54932	1.92444	1.40459	0.9354	75.23	-0.2289	0.0523	0.2812	961.5329	0.148436	-401.855806	-401.848461	-401.847517	-401.887105	30.132	
O	-0.0044075236	 1.3528704197	 0.0925724769	-0.462772
C	 0.0435426172	-0.0218656045	-0.0000920662	 0.301436
C	-0.9467367481	-0.8816365924	 0.7951636871	-0.107303
C	-1.0721426838	-2.2230482272	 0.0731664545	-0.233596
C	 0.4471453531	-2.069835505	-0.230770616	-0.157607
C	 0.5480463174	-1.0563218239	 0.987819064	-0.169241
C	 0.4910210152	-0.8571392938	-1.1761938175	 0.348789
C	 0.2847857269	-0.7067450423	-2.6252358767	-0.327853
N	 1.6393267715	-0.5493110249	-2.0178346052	-0.400699
H	 0.8948613105	 1.6833888547	 0.1942868445	 0.29022
H	-1.6436868101	-0.3972861133	 1.4677644237	 0.093353
H	-1.2706555155	-3.0364684561	 0.7764772357	 0.099968
H	-1.7469398734	-2.3009699337	-0.7869551704	 0.093276
H	 1.0985673848	-2.9211428002	-0.4109057149	 0.084474
H	 1.1857126205	-0.9893134526	 1.856942911	 0.09566
H	 0.1784300646	-1.5789057439	-3.264997812	 0.117391
H	-0.2255848644	 0.1848884832	-2.9807648261	 0.116461
H	 1.8587050573	 0.4440376263	-1.9543241223	 0.218044
166.8996	204.1144	229.9949	286.5039	344.3691	389.8645	473.7025	512.934	616.4346	645.1395	734.1956	791.8202	827.313	835.5292	894.2197	898.6038	929.0744	936.4372	942.2771	968.7748	983.545	1001.4484	1028.313	1068.8511	1095.5072	1111.2478	1141.4284	1153.7314	1181.6306	1217.9653	1235.809	1260.6406	1284.1284	1299.7235	1313.0565	1420.0588	1458.8158	1495.3485	1517.8589	3034.7846	3096.2985	3104.1548	3153.4008	3189.4347	3195.3077	3226.0378	3463.1057	3795.8511
OC12C3CC(C13)C21CN1	O[C@]12[C@H]3C[C@H]([C@@H]13)[C@]12CN1	
InChI=1S/C7H9NO/c9-7-4-1-3(5(4)7)6(7)2-8-6/h3-5,8-9H,1-2H2	InChI=1S/C7H9NO/c9-7-4-1-3(5(4)7)6(7)2-8-6/h3-5,8-9H,1-2H2/t3-,4+,5-,6+,7-/m1/s1
