14
gdb 133136	2.35518	1.87184	1.04979	5.6395	72.07	-0.2233	-0.0538	0.1695	1050.8036	0.100568	-474.124801	-474.11683	-474.115886	-474.157602	29.03	
C	 0.0045825814	 1.5221851103	-0.013456521	-0.503113
C	-0.0590986484	 0.0284531923	 0.0160661538	 0.278373
C	-1.1720658711	-0.7182920782	-0.1195608564	 0.134286
F	-2.3529142905	-0.1398808111	-0.2985795269	-0.046343
C	-1.1078883744	-2.166904763	-0.0740541	 0.300178
N	-2.1420035348	-2.9046075817	-0.1996984058	-0.522105
N	 0.1964863715	-2.7235377221	 0.1219447334	-0.271957
N	 1.230429695	-2.011682004	 0.247645745	-0.0371
N	 1.1214395768	-0.6714788681	 0.197997163	-0.308476
H	 0.6489657499	 1.8723740383	-0.8278275542	 0.149945
H	-0.9938933502	 1.9323149999	-0.1621260238	 0.169967
H	 0.4066558022	 1.9176272452	 0.9262204349	 0.149897
H	-1.8526571486	-3.8833310278	-0.134634071	 0.226287
H	 2.0012038312	-0.1925924599	 0.3081341289	 0.280163
85.1463	122.8719	160.8498	274.7011	309.6357	313.298	425.6671	495.8512	508.744	533.0801	559.1078	618.3188	678.9512	780.7299	896.4963	905.6881	973.1285	990.8233	1063.5826	1114.926	1140.3924	1273.4129	1290.9052	1370.379	1416.3624	1471.5825	1484.8139	1485.526	1581.0831	1696.3482	1734.4854	3035.3247	3088.3097	3160.5152	3457.9853	3645.4307
CC1=C(F)C(=N)N=NN1	Cc1c(F)c([NH])nn[nH]1	
InChI=1S/C4H5FN4/c1-2-3(5)4(6)8-9-7-2/h1H3,(H2,6,7,8)	InChI=1S/C4H10FN4/c1-2-3(5)4(6)8-9-7-2/h2-4,6-9H,1H3
