17
gdb 40538	4.98907	1.09694	1.01459	1.9788	73.75	-0.2365	0.009	0.2455	1192.6057	0.137771	-417.970464	-417.963089	-417.962145	-418.003501	28.145	
C	-0.3916214682	 0.976072241	-0.508361358	-0.22386
N	 0.6473470844	 1.4874865655	 0.3905716795	-0.299356
C	 0.4393498362	 0.0229482995	 0.2690238396	-0.148989
C	-0.1040056993	-0.6610622903	 1.4623946699	 0.454167
N	-1.1981055565	-0.4115578968	 2.0673893721	-0.315251
C	-1.2905772157	-1.3601938494	 3.1504876278	-0.018699
C	-1.3662631104	-2.8200120056	 2.7433099295	-0.318597
C	-0.032729693	-2.2053717147	 3.0534277547	 0.05623
O	 0.6848352885	-1.6665808234	 1.9538959046	-0.254138
H	-1.4060632242	 1.1577879565	-0.1689510332	 0.148424
H	-0.2371435066	 1.0220445718	-1.5831598681	 0.11455
H	 1.4749110261	 1.7432301123	-0.1432631387	 0.237002
H	 1.1951389266	-0.5528510313	-0.2557539568	 0.10537
H	-1.7522911174	-1.0181889165	 4.0685307993	 0.104009
H	-1.7501291926	-3.5148710037	 3.4822993237	 0.121195
H	-1.6131165722	-3.0524486842	 1.7126866263	 0.124967
H	 0.6102903442	-2.5439386007	 3.8550515278	 0.112977
25.8962	138.8668	181.9573	302.4753	368.2749	414.4273	519.4532	645.9284	720.4802	747.1118	772.0512	812.7299	851.4304	883.0577	909.725	928.0349	948.5532	978.2793	987.2223	1022.3024	1051.5752	1081.7782	1105.3379	1121.2803	1129.3032	1137.3169	1180.0508	1198.5067	1219.9846	1253.4363	1290.8513	1320.8106	1363.1537	1460.3633	1461.1715	1505.7789	1705.8137	3114.7894	3130.6896	3164.0485	3184.9274	3200.9542	3213.3517	3225.2115	3495.6566
C1NC1C1=NC2CC2O1	C1N[C@H]1C1=N[C@H]2C[C@H]2O1	
InChI=1S/C6H8N2O/c1-3-5(1)9-6(8-3)4-2-7-4/h3-5,7H,1-2H2	InChI=1S/C6H8N2O/c1-3-5(1)9-6(8-3)4-2-7-4/h3-5,7H,1-2H2/t3-,4+,5+/m0/s1
