15
gdb 128432	4.56802	1.13343	0.93046	3.2127	70.01	-0.2697	-0.039	0.2307	1207.2463	0.113493	-450.118515	-450.110535	-450.109591	-450.151927	28.279	
C	 0.0742372911	 1.2917595762	 0.1682880964	-0.228133
O	 0.2656632561	-0.1227253324	 0.0419643011	-0.207351
C	 0.6443460881	-0.5475763276	-1.1559969796	 0.529399
N	 0.916411446	 0.212937787	-2.1298223314	-0.56288
N	 0.7129512838	-1.9704675047	-1.1640204539	-0.043703
C	 1.4692033916	-2.7608031474	-1.9766361397	-0.093155
C	 1.1418993848	-4.0351283809	-1.6075049825	-0.069507
N	 0.2098719631	-3.9751341933	-0.6073868052	-0.176639
N	-0.0499707213	-2.73872658	-0.3329657055	-0.118241
H	 1.0142808496	 1.821326613	-0.0042930783	 0.146839
H	-0.6672866946	 1.6428090082	-0.5533760682	 0.147884
H	-0.2746554023	 1.4434433007	 1.1891563566	 0.143965
H	 1.129005191	-0.3023723264	-2.9784689732	 0.235404
H	 2.1676911734	-2.3613846428	-2.6912052996	 0.158984
H	 1.5113780397	-4.9749930697	-1.9832811769	 0.137132
55.1294	109.6388	158.9589	168.4047	232.3941	331.9984	419.1239	487.5114	633.4712	711.0435	737.3783	787.5469	796.6725	812.2301	869.4585	950.464	970.6282	1014.6842	1079.4031	1111.1298	1126.1976	1180.9143	1184.0441	1219.5744	1280.1946	1319.3781	1385.4939	1460.9189	1478.2907	1487.0302	1498.3803	1532.8194	1745.8081	3055.0111	3131.8535	3167.5252	3275.503	3299.0199	3552.5381
COC(=N)N1C=CN=N1	CO[C]([NH])n1ccnn1	
InChI=1S/C4H6N4O/c1-9-4(5)8-3-2-6-7-8/h2-3,5H,1H3	InChI=1S/C4H6N4O/c1-9-4(5)8-3-2-6-7-8/h2-3,5H,1H3
