14
gdb 12754	3.36751	1.84411	1.53492	5.5159	61.75	-0.2367	0.0012	0.2378	843.6807	0.107039	-378.673287	-378.665971	-378.665027	-378.704775	27.216	
N	 0.1462677137	 1.4723236368	-0.0595359111	-0.606608
C	 0.0007680855	 0.0697297526	-0.0210762614	 0.254966
C	-0.2527892172	-0.820841587	-1.21471186	-0.33732
C	-1.1359991589	-0.9500830562	-0.0101631507	 0.053407
O	-0.5019560149	-1.7561622611	 0.9898394574	-0.284988
C	 0.5844654163	-0.8032507837	 1.1080018518	-0.036667
C	 1.9073329366	-1.3961466543	 0.908008707	 0.285366
N	 2.9562006821	-1.8474683302	 0.7292198083	-0.325148
H	 0.1433767396	 1.8491292957	-0.9967585528	 0.246267
H	-0.5240108047	 1.9712470838	 0.5122006265	 0.243272
H	-0.7045452024	-0.2996175977	-2.0543776328	 0.119745
H	 0.4319558591	-1.6213165981	-1.4816229593	 0.143018
H	-2.2160177013	-0.8750365822	 0.0097145651	 0.116784
H	 0.5476788464	-0.3011648584	 2.081704572	 0.127904
124.0942	139.5345	181.7544	295.2329	346.1905	382.4728	444.6255	538.5995	567.5816	655.6202	718.1571	746.7505	842.7134	901.9128	943.2326	968.6036	989.0384	1016.786	1032.5164	1086.5158	1097.0385	1174.8137	1212.1198	1261.4273	1316.4712	1347.5489	1416.7808	1488.4294	1654.7611	2355.0459	3048.5614	3114.7037	3197.2013	3206.8952	3537.7674	3633.3844
NC12CC1OC2C#N	N[C@]12C[C@H]1O[C@H]2C#N	
InChI=1S/C5H6N2O/c6-2-4-5(7)1-3(5)8-4/h3-4H,1,7H2	InChI=1S/C5H6N2O/c6-2-4-5(7)1-3(5)8-4/h3-4H,1,7H2/t3-,4+,5-/m1/s1
