15
gdb 30399	3.93267	1.19978	0.92454	5.2158	75.21	-0.2169	-0.0262	0.1906	1205.3538	0.114034	-450.169041	-450.160929	-450.159985	-450.202266	29.492	
C	 0.0089359882	 1.435267427	 0.0965566363	-0.323352
N	-0.0181183991	-0.0099638584	 0.1578511144	-0.293997
C	-1.1216688662	-0.6330644868	 0.0679648105	 0.376885
N	-2.3809425302	 0.0170448728	-0.0950869048	-0.285154
C	-3.4279760246	-0.7013283844	-0.1739137306	 0.086211
N	-3.4214198363	-2.0810916955	-0.1109219253	-0.353841
C	-2.191535764	-2.6766615336	 0.0453799796	 0.497474
O	-2.2685527134	-4.0139305935	 0.0964580264	-0.410499
N	-1.0910205996	-2.0450458416	 0.1337183505	-0.38237
H	 0.6603435327	 1.7431895427	-0.7312308509	 0.11618
H	-0.9712210651	 1.908136641	-0.0286914814	 0.12079
H	 0.4748669148	 1.8206314644	 1.0124069929	 0.116173
H	-4.4109539636	-0.2500693407	-0.2986324969	 0.13782
H	-4.2594922775	-2.6352867825	-0.175762507	 0.279918
H	-1.3578929561	-4.325079951	 0.2065845262	 0.317763
62.889	103.3032	155.0805	245.3169	293.9044	376.296	392.1386	489.6507	511.6665	548.1272	551.7411	640.8792	723.2724	769.9906	791.976	916.941	957.6635	991.8076	1071.7283	1086.575	1132.0225	1153.1191	1197.8916	1280.7275	1381.4725	1412.2191	1430.9145	1489.119	1496.3616	1519.3886	1666.4742	1728.6533	1774.3927	3007.6401	3056.067	3084.4697	3147.024	3654.5073	3761.7137
CN=C1N=CNC(O)=N1	C[N]C1=N[C@H](NC=N1)O	
InChI=1S/C4H6N4O/c1-5-3-6-2-7-4(9)8-3/h2H,1H3,(H2,5,6,7,8,9)	InChI=1S/C4H7N4O/c1-5-3-6-2-7-4(9)8-3/h2,4,9H,1H3,(H,6,7,8)/t4-/m0/s1
