13
gdb 132156	3.24631	1.3909	0.97962	5.3766	63.73	-0.2596	-0.0518	0.2077	1099.9978	0.088028	-497.893781	-497.886115	-497.88517	-497.926489	27.553	
C	-0.017656567	 1.4819931028	 0.0866134463	-0.469604
C	-0.0050295713	-0.0067973787	-0.0475811565	 0.40579
N	-0.1004795002	-0.6107163664	-1.1677977556	-0.341496
C	-0.0835401182	-2.0209203587	-1.2395625426	 0.307647
O	-0.1720007717	-2.6208584539	-2.2841378405	-0.331514
C	 0.0508247336	-2.6832677191	 0.0670504645	 0.098862
F	 0.0762486842	-4.0062806572	 0.1017753786	-0.044407
C	 0.1451968433	-1.96864849	 1.1949773946	-0.068442
O	 0.1199326466	-0.6090392257	 1.1702432398	-0.198824
H	 0.9065556838	 1.8267742862	 0.5607695036	 0.156112
H	-0.1178559432	 1.9317705514	-0.8993965703	 0.167885
H	-0.8487927001	 1.7968677541	 0.725351586	 0.156128
H	 0.2460107501	-2.3781938647	 2.1907484122	 0.161862
91.5368	94.4115	187.3219	296.952	313.4012	373.5208	398.1591	468.0244	531.58	588.6835	628.665	743.2258	779.7426	807.2864	889.989	905.5286	1037.751	1063.717	1123.2844	1216.5993	1253.4827	1322.3006	1397.7261	1408.4394	1468.3829	1475.1638	1667.6421	1722.6893	1805.8727	3052.7342	3111.6765	3178.5035	3235.8782
CC1=NC(=O)C(F)=CO1	Cc1nc(=O)c(F)co1	
InChI=1S/C5H4FNO2/c1-3-7-5(8)4(6)2-9-3/h2H,1H3	InChI=1S/C5H4FNO2/c1-3-7-5(8)4(6)2-9-3/h2H,1H3
