23
gdb 63468	2.61428	1.31614	1.04713	1.2466	86.08	-0.2406	0.0759	0.3165	1265.3561	0.2032	-388.265426	-388.255215	-388.254271	-388.29997	39.313	
C	-0.1235637644	 1.4203756791	-0.1752602514	-0.446087
C	 0.1320731576	-0.0557744252	 0.0416332159	 0.367846
O	-0.8886041998	-0.8626489016	-0.4952969823	-0.456682
C	 1.5370323425	-0.6191930584	 0.0086571278	-0.408823
C	 0.7453123532	-0.6101156585	 1.3100169703	 0.266867
C	 1.1924516645	 0.3495165938	 2.4028199231	-0.453555
C	 0.1962858506	-1.892613458	 1.8822292917	-0.014129
C	 0.3105089436	-3.2417199356	 1.2349939662	-0.263737
C	 1.1277498678	-2.9346298335	 2.4635407374	-0.274864
H	 0.6754845022	 2.0474989644	 0.22508306	 0.11706
H	-0.1963496225	 1.6332832228	-1.2496449237	 0.10428
H	-1.0690615159	 1.7214771651	 0.2877412539	 0.124267
H	-0.8603742337	-0.7689322936	-1.453989699	 0.277142
H	 1.6753784396	-1.5595342908	-0.5132865218	 0.109129
H	 2.372993263	 0.0687288485	-0.0760158973	 0.100674
H	 1.6383195401	 1.26488877	 2.0064782395	 0.108661
H	 0.3502569354	 0.6374830369	 3.0430421124	 0.114407
H	 1.9404162192	-0.133353171	 3.0406284159	 0.119766
H	-0.7219818829	-1.735727776	 2.4444210726	 0.081556
H	-0.5356068065	-3.913672295	 1.3276560081	 0.107171
H	 0.8303436719	-3.3254047211	 0.2882971036	 0.106388
H	 2.193203397	-2.7798548883	 2.3252859219	 0.107478
H	 0.8644305573	-3.4071074841	 3.4035685252	 0.105185
63.0448	138.6454	164.3672	180.6325	199.2089	260.6478	279.2315	294.626	316.9751	376.5848	404.6857	456.3966	492.5821	555.0087	642.9671	712.1849	782.6188	828.0239	853.4781	902.1394	909.7149	927.1125	944.2193	974.1883	1010.4228	1041.868	1059.197	1075.6646	1076.9436	1089.9904	1122.2813	1137.051	1183.2596	1197.3678	1208.371	1247.7454	1277.3548	1308.5099	1395.4621	1408.6823	1412.2124	1423.3629	1466.6568	1478.3512	1483.8944	1490.5875	1498.852	1509.6355	1516.1507	3022.5768	3030.0407	3084.1195	3088.8898	3111.7858	3121.2681	3123.2024	3127.5931	3130.6016	3140.9264	3206.777	3212.1047	3224.7044	3790.7273
CC1(O)CC1(C)C1CC1	C[C@@]1(O)C[C@]1(C)C1CC1	
InChI=1S/C8H14O/c1-7(6-3-4-6)5-8(7,2)9/h6,9H,3-5H2,1-2H3	InChI=1S/C8H14O/c1-7(6-3-4-6)5-8(7,2)9/h6,9H,3-5H2,1-2H3/t7-,8-/m1/s1
