19
gdb 96856	2.40464	1.39974	0.9934	1.3316	80.24	-0.244	0.0184	0.2624	1250.4023	0.158408	-419.180506	-419.171157	-419.170213	-419.214985	33.584	
C	 0.2274594817	 1.4138454233	-0.1744826968	-0.33949
N	 0.3530491733	-0.036555412	-0.1551409495	-0.354703
C	 0.5016023182	-0.6285833147	 0.9367289744	 0.426267
O	 0.5869470997	-0.1608347532	 2.2397599558	-0.305245
C	 0.8575660717	-1.5163251772	 2.7648649988	 0.092364
C	-0.1420931643	-1.9281216872	 3.8198307693	-0.408401
C	 0.7048890484	-2.0493852106	 1.3378526232	 0.155988
C	 0.0654292504	-3.2535714229	 0.7630313682	-0.296216
N	 1.519635511	-3.0475152071	 0.6670644038	-0.364273
H	 0.9599766639	 1.8273646078	-0.8760415389	 0.126579
H	-0.7646305457	 1.685653454	-0.5527768885	 0.127915
H	 0.3694769433	 1.8864727727	 0.804359829	 0.127872
H	 1.8876184431	-1.5607175796	 3.1315569487	 0.105123
H	-1.1618041432	-1.8902906761	 3.4262601823	 0.128204
H	 0.0670349956	-2.9495926575	 4.1545684846	 0.129469
H	-0.0778178206	-1.2664992615	 4.688546974	 0.134758
H	-0.236713621	-4.0677357624	 1.4159157281	 0.126423
H	-0.5486033325	-3.1098383121	-0.1217523997	 0.136443
H	 1.7678944671	-2.7016486537	-0.258434827	 0.250923
75.8172	99.9611	138.9744	161.3543	196.2539	213.6847	256.5416	303.4112	369.4743	484.3388	538.8696	620.3241	714.9281	739.6344	841.2836	861.2439	882.0159	959.576	981.3552	1004.8264	1040.6326	1066.4449	1100.0116	1111.9609	1130.9491	1138.0948	1148.647	1177.3702	1270.1622	1284.287	1294.2575	1379.5413	1410.0926	1435.0272	1441.7798	1485.912	1491.9784	1493.4397	1497.6591	1513.8718	1847.9311	3016.5974	3040.4996	3067.5284	3080.3319	3088.0034	3110.8879	3112.6908	3123.4057	3202.1812	3487.1804
CN=C1OC(C)C11CN1	CN=C1O[C@@H](C)[C@]21CN2	
InChI=1S/C6H10N2O/c1-4-6(3-8-6)5(7-2)9-4/h4,8H,3H2,1-2H3	InChI=1S/C6H10N2O/c1-4-6(3-8-6)5(7-2)9-4/h4,8H,3H2,1-2H3/t4-,6-/m0/s1
