17
gdb 27363	2.00272	1.86377	0.97715	7.4053	80.53	-0.2215	-0.022	0.1994	1191.5901	0.136724	-414.246089	-414.237283	-414.236339	-414.280164	31.856	
C	 0.0546886612	 1.4841223758	 0.0388728839	-0.491011
C	-0.0055672171	-0.0124781298	-0.0478513641	 0.374646
N	 0.1006014098	-0.6248765956	-1.1650174878	-0.280183
C	 0.0346156733	-2.0355453245	-1.1705191434	 0.342043
N	 0.1405501428	-2.6421872773	-2.2873718689	-0.508807
N	-0.1457517935	-2.7393510579	 0.0507595881	-0.324673
C	-0.2453458466	-2.0681965034	 1.1366684814	 0.376229
C	-0.4371782109	-2.7400409628	 2.4646100395	-0.491137
N	-0.182389897	-0.6869979367	 1.1514784384	-0.370651
H	 0.8844351505	 1.8055106474	 0.6790289042	 0.139316
H	 0.1950143684	 1.8897917453	-0.9618592122	 0.170555
H	-0.8700618996	 1.8884109853	 0.4666021136	 0.139339
H	 0.071383912	-3.6450274225	-2.1064647882	 0.214646
H	-0.4694998179	-3.818270741	 2.315504662	 0.166156
H	 0.3835293592	-2.4944409211	 3.1483219295	 0.141232
H	-1.3707754037	-2.4125509406	 2.9362980203	 0.141263
H	-0.2628068208	-0.1797504205	 2.0176685737	 0.261037
51.7254	115.1785	126.7079	174.2509	231.6422	276.3744	335.9297	448.9795	521.4561	543.0533	557.5088	580.0152	622.9728	635.4162	803.322	894.0452	914.1424	949.7877	955.8555	1029.3312	1059.9198	1061.652	1083.8224	1120.6579	1227.1517	1321.337	1345.5356	1402.3669	1410.2895	1452.0421	1473.4256	1481.7408	1482.6702	1492.8407	1675.0714	1700.8534	1748.2122	3034.6735	3035.782	3089.9205	3091.4105	3168.5229	3170.137	3475.1874	3641.8971
CC1=NC(=N)N=C(C)N1	C[C@H]1N=C([NH])N=C(C)N1	
InChI=1S/C5H8N4/c1-3-7-4(2)9-5(6)8-3/h1-2H3,(H2,6,7,8,9)	InChI=1S/C5H9N4/c1-3-7-4(2)9-5(6)8-3/h3,6H,1-2H3,(H,7,8,9)/t3-/m1/s1
