16
gdb 27892	1.99233	1.76003	0.93995	0.0866	76.04	-0.2165	-0.0085	0.208	1192.4037	0.12542	-437.979655	-437.971579	-437.970635	-438.012978	30.615	
C	-0.0976476394	 1.5421824952	 0.0109976864	-0.490205
C	-0.0257644159	 0.03710502	 0.0024639884	 0.357201
C	 0.0143100678	-0.6656256321	-1.2018648308	-0.319852
C	 0.1107964896	-2.0535026663	-1.1469028856	 0.445475
O	 0.1502102435	-2.754177994	-2.2998369125	-0.419215
N	 0.1644880615	-2.7520017357	-0.0138011297	-0.474577
C	 0.1230753119	-2.0659451448	 1.1273518218	 0.445492
O	 0.1749094851	-2.7791281433	 2.2720914499	-0.419205
C	 0.0272635902	-0.6787225627	 1.1985086267	-0.319903
H	 0.9094448505	 1.9759891473	 0.004317476	 0.142633
H	-0.6221940702	 1.921393858	-0.8701026599	 0.131444
H	-0.6066150525	 1.912139984	 0.9050459024	 0.131361
H	-0.0293428818	-0.1659463005	-2.1612578468	 0.099087
H	 0.2138831926	-3.6850294206	-2.0476518768	 0.295576
H	 0.2357569855	-3.7071794183	 2.0091152007	 0.295579
H	-0.0060009084	-0.1895589963	 2.1637163397	 0.099109
33.5281	188.799	209.3438	254.0551	288.43	338.9614	501.6039	516.1712	518.7879	520.1222	570.6077	584.843	621.3077	697.8733	770.7821	843.9099	857.7184	986.9346	1003.067	1005.9918	1058.2161	1073.5044	1165.7522	1201.0659	1217.769	1291.9022	1354.015	1407.1158	1430.2275	1477.6274	1489.4986	1513.525	1527.5789	1619.5918	1681.2212	3035.3523	3095.797	3123.3031	3209.3364	3210.7212	3777.8187	3779.2627
CC1=CC(O)=NC(O)=C1	Cc1cc(O)nc(O)c1	
InChI=1S/C6H7NO2/c1-4-2-5(8)7-6(9)3-4/h2-3H,1H3,(H2,7,8,9)	InChI=1S/C6H7NO2/c1-4-2-5(8)7-6(9)3-4/h2-3H,1H3,(H2,7,8,9)
