18
gdb 85392	1.94442	1.78296	0.96195	1.5415	76.57	-0.2339	-0.0145	0.2193	1199.9733	0.149429	-435.307698	-435.299421	-435.298477	-435.34065	31.316	
C	 0.0007968511	 1.4568243375	 0.001745446	-0.315753
N	 0.0020550689	 0.0034676007	 0.025984843	-0.090784
C	-1.3177623592	-0.5508238814	-0.2330994936	-0.201491
C	-1.2678560197	-2.0566363693	-0.3577542249	 0.381365
N	-2.0718549822	-2.6588500727	-1.1367134691	-0.509853
N	-0.320485783	-2.6684462123	 0.4628820585	-0.365954
C	 0.5945431676	-2.0377865976	 1.2892501421	 0.400636
O	 1.3545476881	-2.669125679	 1.9879355873	-0.346863
C	 0.5480219199	-0.5188502007	 1.2664414409	-0.265231
H	 1.0199747894	 1.8276357427	 0.1462233175	 0.127496
H	-0.3561109624	 1.8081799891	-0.970763151	 0.12904
H	-0.6406916134	 1.9019295801	 0.7859744134	 0.098447
H	-2.0438130376	-0.2924484791	 0.566637773	 0.10176
H	-1.7141393847	-0.1575602936	-1.1702711421	 0.142632
H	-1.9586555956	-3.6740542054	-1.0926427103	 0.209647
H	-0.2605813425	-3.6793200625	 0.4629047165	 0.253144
H	 1.5729585959	-0.1673746507	 1.4074487945	 0.142663
H	-0.0298834306	-0.1969873855	 2.1589224482	 0.109099
104.5282	125.1003	156.2695	252.1411	316.4892	322.4738	397.2096	437.9672	444.1248	550.7603	565.9414	609.3944	620.3764	690.4386	872.2213	885.2569	933.9795	937.4476	999.24	1042.7963	1075.142	1133.9207	1154.5817	1166.8774	1204.0088	1282.5275	1304.3117	1311.7343	1365.2611	1384.5834	1414.6958	1422.2841	1459.309	1471.6761	1484.6809	1497.8062	1505.6045	1744.1089	1816.8573	2882.3104	2888.3237	2932.5188	3067.8813	3100.6424	3112.958	3120.2683	3445.3513	3577.4166
CN1CC(=N)NC(=O)C1	CN1C[C]([NH])NC(=O)C1	
InChI=1S/C5H9N3O/c1-8-2-4(6)7-5(9)3-8/h2-3H2,1H3,(H2,6,7,9)	InChI=1S/C5H9N3O/c1-8-2-4(6)7-5(9)3-8/h2-3H2,1H3,(H2,6,7,9)
