18
gdb 37881	2.96034	2.2365	2.1528	0.9241	71.8	-0.2298	0.0662	0.2959	777.9622	0.153001	-401.909902	-401.904625	-401.903681	-401.939164	24.137	
C	-0.0150181506	 1.5650985667	 0.013193967	-0.21426
C	 1.4983370501	 1.8326706908	-0.0317109625	-0.044508
C	 2.0304287188	 1.3603128463	-1.4353304524	 0.094811
O	 0.9767297147	 0.7622451585	-2.2127668513	-0.300404
C	 0.9266549893	-0.3292652772	-1.24590845	 0.089297
C	 2.3634089869	 0.0517427931	-0.7210486606	-0.0569
N	 2.1543186216	 0.6148721877	 0.6357590801	-0.12005
C	 1.0360249634	-0.2067508532	 1.1495107352	-0.177609
C	 0.0377015753	 0.0235134197	-0.0121877674	-0.07445
H	-0.4793307052	 1.9347014077	 0.9318997209	 0.094985
H	-0.5254469484	 1.9948356228	-0.849408454	 0.119693
H	 1.8402352664	 2.7909830165	 0.3583073719	 0.076081
H	 2.6903411931	 2.0007753028	-2.0189839127	 0.083155
H	 0.720177127	-1.2869583862	-1.7252595481	 0.081936
H	 3.2144633134	-0.6082852	-0.8897116439	 0.075665
H	 1.3659990413	-1.2455052111	 1.2587238783	 0.103595
H	 0.6695148876	 0.1496647832	 2.116675591	 0.103889
H	-0.9236245246	-0.4886212383	 0.0369190185	 0.065075
378.9716	449.0998	461.0492	515.9773	638.2316	663.453	741.339	774.6401	806.8243	812.0274	844.8223	871.5062	889.3666	909.2604	927.3839	947.0498	955.2634	974.0996	996.4041	1014.8056	1055.8847	1065.5522	1091.0764	1111.3229	1166.2177	1186.2981	1195.7414	1207.2564	1229.3915	1251.3511	1264.7933	1277.1469	1291.2868	1301.4309	1328.901	1335.2454	1344.6262	1474.3409	1505.5139	3046.4804	3063.9652	3097.9001	3099.8282	3107.2851	3110.5853	3117.0741	3128.9952	3132.501
C1C2C3OC4C3N2CC14	C1[C@@H]2[C@@H]3O[C@H]4[C@@H]3N2C[C@@H]14	
InChI=1S/C7H9NO/c1-3-2-8-4(1)7-5(8)6(3)9-7/h3-7H,1-2H2	InChI=1S/C7H9NO/c1-3-2-8-4(1)7-5(8)6(3)9-7/h3-7H,1-2H2/t3-,4-,5+,6-,7+/m1/s1
