19
gdb 93405	2.87063	1.35473	0.95353	5.2645	83.95	-0.2056	-0.0043	0.2013	1227.8333	0.16115	-419.239857	-419.231276	-419.230332	-419.272783	33.486	
C	-0.2378121715	 1.5010937053	-0.007529185	-0.427455
C	 0.0216377959	-0.0127602401	 0.0210459075	-0.085427
C	 0.8096760346	-0.4316265244	-1.2215926181	-0.085672
O	 1.1494964833	-1.812353631	-1.2257010866	-0.264815
C	 1.8000233819	-2.2880052701	-0.1093362211	 0.376332
N	 2.4692800553	-3.3706345505	-0.1581320213	-0.544548
C	 1.6410129435	-1.531379705	 1.1207683026	-0.251244
C	 0.7823541312	-0.4962273391	 1.2401655413	 0.339389
N	 0.4740417279	 0.0929970343	 2.4493996013	-0.575051
H	 0.6940125193	 2.0703912483	 0.0814747945	 0.12709
H	-0.7118722292	 1.7848070497	-0.952199212	 0.128749
H	-0.9150751318	 1.8150264916	 0.7923295449	 0.125457
H	-0.948993672	-0.5286607573	 0.0075336406	 0.111682
H	 0.219121489	-0.2689166761	-2.1271797613	 0.112754
H	 1.7242553473	 0.1757611504	-1.294275547	 0.101899
H	 2.4558485036	-3.7359123629	-1.1121231682	 0.210746
H	 2.1910341871	-1.9137038846	 1.9730893516	 0.093262
H	 1.0709367765	-0.1569449368	 3.2243657162	 0.255115
H	 0.2388008979	 1.0728746183	 2.4345884501	 0.251737
78.4792	172.8947	225.8792	228.5314	302.5094	333.2578	350.5589	401.7137	429.0386	489.7249	521.1314	562.7821	648.3755	697.3545	713.1505	756.561	861.4947	872.3065	886.0586	914.763	968.1139	1058.1778	1086.7509	1103.5355	1123.9252	1154.0997	1162.719	1268.2123	1283.2322	1312.4777	1322.9763	1362.3258	1401.1973	1420.7975	1435.8602	1496.6709	1504.7451	1510.7512	1641.5924	1689.5856	1722.6944	2995.0617	3012.5731	3034.3268	3091.1256	3105.2894	3105.8036	3195.1724	3469.9968	3572.6134	3677.7955
CC1COC(=N)C=C1N	C[C@H]1COC(=C[C]1N)[NH]	
InChI=1S/C6H10N2O/c1-4-3-9-6(8)2-5(4)7/h2,4,8H,3,7H2,1H3	InChI=1S/C6H10N2O/c1-4-3-9-6(8)2-5(4)7/h2,4,8H,3,7H2,1H3/t4-/m0/s1
