18
gdb 13240	7.52827	0.86012	0.8156	4.3222	73.43	-0.2411	0.0243	0.2654	1380.3558	0.154808	-343.974262	-343.966042	-343.965097	-344.007761	29.578	
N	-0.1991056604	-1.0943968682	-0.21572262	-0.298526
C	-0.1192050623	 0.0452428562	-0.0460550775	 0.255641
C	-0.0068247766	 1.486123511	 0.1983230645	-0.268239
N	 1.2478590425	 2.0128828911	-0.32756566	-0.304033
C	 1.4106806582	 3.4348092892	-0.1093599105	 0.09505
C	 1.6561694532	 4.0464317917	 1.3120696986	-0.239833
C	 2.6621923336	 5.0257541266	 0.6489029394	-0.212597
C	 2.7469288527	 4.0636243602	-0.5672686598	-0.246641
H	-0.8383630938	 1.9878234212	-0.3127172125	 0.156078
H	-0.1571096905	 1.6567131949	 1.279416066	 0.135622
H	 2.028053895	 1.5049996155	 0.0785997348	 0.226222
H	 0.5661772194	 3.9445750478	-0.5895013788	 0.085304
H	 0.8066107649	 4.4682976506	 1.8546959294	 0.097793
H	 2.167324501	 3.3266666006	 1.9614239175	 0.096321
H	 2.1883130452	 5.9744125865	 0.3826313953	 0.108193
H	 3.5869469251	 5.2403602371	 1.1874162577	 0.104375
H	 3.5692412008	 3.3487118458	-0.4537635757	 0.102118
H	 2.7924568119	 4.4867277624	-1.5727160185	 0.10715
55.4916	96.0399	111.2904	175.5454	249.0706	386.0814	389.1463	425.4275	535.5159	654.0566	750.047	783.5682	797.4347	893.2653	928.1127	934.1859	955.8634	981.4265	1005.0156	1050.4085	1069.7275	1151.3567	1188.3105	1195.6382	1226.6482	1249.1592	1257.9931	1264.8797	1282.7174	1293.2586	1347.9503	1405.9346	1473.0686	1485.8237	1490.7494	1501.2	1510.9114	2368.0499	2946.1229	3030.866	3041.7262	3046.7834	3052.1007	3066.118	3100.9984	3110.413	3124.9012	3512.3346
N#CCNC1CCC1	N#CCNC1CCC1	
InChI=1S/C6H10N2/c7-4-5-8-6-2-1-3-6/h6,8H,1-3,5H2	InChI=1S/C6H10N2/c7-4-5-8-6-2-1-3-6/h6,8H,1-3,5H2
