21
gdb 87712	2.31911	1.3216	1.177	1.7479	78.52	-0.2366	0.0683	0.3049	1189.6543	0.180639	-424.193857	-424.183991	-424.183047	-424.228882	36.782	
C	 0.8251315292	 1.3911471246	-0.0771716317	-0.417733
C	-0.0168903561	 0.1196867006	-0.0384721321	-0.012946
C	 0.50095485	-1.0133349931	-0.981819346	-0.329281
C	 1.1020502036	-1.7067485149	 0.2449767848	 0.268443
C	 1.5707965079	-3.1341121024	 0.4043384548	-0.419859
C	 2.5668246729	-2.0075845922	 0.4089118112	 0.080169
O	 3.4859608553	-1.7956903457	-0.6240616359	-0.422618
C	 0.2809064964	-0.8173470114	 1.184814914	 0.065289
O	 0.8840669191	-0.293787232	 2.3422389455	-0.427833
H	 1.898415957	 1.166252518	-0.0438870703	 0.121313
H	 0.644368891	 1.945762793	-1.0034418665	 0.118659
H	 0.5867960538	 2.0505874863	 0.7636267833	 0.1242
H	-1.0742653671	 0.3713456988	-0.158227988	 0.068292
H	-0.3012844546	-1.5825287609	-1.4602147478	 0.100667
H	 1.2165092529	-0.6965119284	-1.7482736077	 0.095208
H	 1.3702960975	-3.6532379812	 1.3372120295	 0.121019
H	 1.5281201645	-3.7711653784	-0.4765576983	 0.104835
H	 3.0246072426	-1.755274795	 1.3610405935	 0.108129
H	 3.1490512325	-2.210071542	-1.4244887866	 0.286047
H	-0.6279301055	-1.3179219459	 1.5346527777	 0.086355
H	 1.689603477	 0.1622170722	 2.0756052766	 0.281644
55.8071	66.3845	130.0382	197.797	212.2388	238.6396	259.8442	347.3154	359.7408	427.742	463.1007	520.1288	539.066	616.2275	759.5098	803.5894	816.9667	837.2547	883.8744	912.3126	936.9132	992.3764	1031.5725	1042.8457	1080.8272	1100.7172	1110.4678	1124.8188	1156.5699	1180.1666	1198.6394	1236.5234	1266.0086	1278.044	1287.6091	1317.3118	1343.8765	1364.7192	1405.9318	1431.1728	1433.2235	1480.7996	1486.5219	1499.2462	1505.5105	3023.0887	3038.0821	3050.924	3064.3961	3087.9855	3093.8929	3104.4383	3104.8664	3155.6971	3191.3581	3810.7497	3825.6752
CC1CC2(CC2O)C1O	C[C@H]1C[C@]2(C[C@H]2O)[C@H]1O	
InChI=1S/C7H12O2/c1-4-2-7(6(4)9)3-5(7)8/h4-6,8-9H,2-3H2,1H3	InChI=1S/C7H12O2/c1-4-2-7(6(4)9)3-5(7)8/h4-6,8-9H,2-3H2,1H3/t4-,5+,6-,7+/m0/s1
