19
gdb 98668	4.09006	0.87744	0.78185	3.272	74.73	-0.233	0.0616	0.2946	1484.3845	0.158656	-456.357117	-456.347159	-456.346214	-456.393024	34.674	
C	 0.1576977502	 1.4543354679	 0.1592989736	-0.323632
N	 0.1051491208	 0.0115017819	 0.0245127584	-0.351191
C	 0.6775960939	-0.6106690973	-1.0626528172	 0.457496
O	 1.1085676509	-0.0182639303	-2.0383408285	-0.411483
N	 0.7250993003	-1.9884498217	-0.9641497533	-0.138202
C	-0.2322889592	-2.890653086	-0.2998094965	-0.203029
C	 0.101640174	-3.9626815271	-1.3625438582	 0.108145
O	-1.054864965	-4.4871063216	-1.9625199361	-0.424723
C	 0.8856366945	-2.8582778447	-2.1358446834	-0.193507
H	 0.9882110139	 1.7882898895	 0.7954545394	 0.117892
H	 0.3012094611	 1.8709431456	-0.8380218784	 0.16881
H	-0.7792031678	 1.8336936578	 0.5790226204	 0.119029
H	-0.0103708039	-0.5310900027	 0.8649027142	 0.241928
H	 0.0050462153	-3.1365232252	 0.7410664985	 0.106293
H	-1.2761848965	-2.5620947244	-0.3734110531	 0.125401
H	 0.7546208703	-4.7553234593	-0.9770773959	 0.079952
H	-0.788971577	-5.1203190034	-2.6370136221	 0.289164
H	 0.3464250297	-2.495250233	-3.0177643078	 0.121356
H	 1.9245707044	-3.0718430558	-2.4034552341	 0.1103
51.8221	69.3459	101.3107	118.7818	159.5002	207.7736	267.4958	308.9322	379.8476	399.7445	443.0859	483.6597	553.4261	736.8424	774.5405	828.8264	885.177	938.6298	979.4862	1021.408	1071.5892	1129.7729	1142.6422	1149.2206	1159.3727	1185.2314	1191.6314	1206.1017	1241.1191	1283.3833	1314.8427	1324.7744	1353.0794	1436.6662	1442.8459	1492.4897	1499.3136	1502.0569	1521.2518	1560.285	1773.1439	3013.3769	3020.2001	3024.3065	3040.6013	3072.6375	3077.9751	3093.0721	3154.8835	3636.6895	3817.7033
CNC(=O)N1CC(O)C1	CNC(=O)N1CC(O)C1	
InChI=1S/C5H10N2O2/c1-6-5(9)7-2-4(8)3-7/h4,8H,2-3H2,1H3,(H,6,9)	InChI=1S/C5H10N2O2/c1-6-5(9)7-2-4(8)3-7/h4,8H,2-3H2,1H3,(H,6,9)
