19
gdb 109920	2.37196	1.48005	1.13949	3.5881	71.86	-0.2471	-0.0085	0.2386	1120.9943	0.159801	-460.156164	-460.147224	-460.14628	-460.190058	34.036	
O	 0.0254193149	 1.3943568996	-0.1900670199	-0.432833
C	 0.0161553747	 0.0225191728	 0.1759946022	-0.074315
C	-1.3743448834	-0.6055481812	 0.0189157216	-0.058685
C	-2.06531214	-0.2957911202	-1.3293370861	 0.041177
O	-1.0475193168	-0.1819682815	-2.3483876488	-0.449451
C	-2.9456954986	-1.5055514646	-1.5481800971	-0.09612
C	-2.6138430308	-2.50944824	-0.7369987738	-0.091658
C	-1.4257252764	-2.1558606708	 0.132832324	 0.069433
O	-0.2522622525	-2.8271981453	-0.3256546822	-0.428378
H	-0.0848045605	 1.4007259459	-1.1485314082	 0.285933
H	 0.7519999873	-0.5484685084	-0.4003913469	 0.097934
H	 0.324214122	-0.0255230613	 1.2254958358	 0.10482
H	-2.0309880919	-0.1995856174	 0.7964536092	 0.087734
H	-2.6321392409	 0.6424059491	-1.285474851	 0.081654
H	-1.4826584338	-0.0831232164	-3.2016039642	 0.287297
H	-3.7187273095	-1.5347626231	-2.3098811923	 0.097157
H	-3.0567990858	-3.4992767556	-0.7313870427	 0.107168
H	-1.5389700457	-2.4797683688	 1.1716573883	 0.089233
H	-0.1552550724	-2.6078364629	-1.2604949878	 0.2819
43.9346	122.106	185.0526	219.4929	251.6468	307.3516	338.2817	395.2247	427.6134	497.0376	522.1699	562.6979	587.2842	737.812	779.9342	795.5647	834.2103	905.3483	951.2243	980.1251	992.7879	1001.2776	1059.279	1081.6047	1090.1318	1112.012	1139.5075	1196.219	1217.5874	1258.4717	1287.9265	1312.6483	1327.3438	1358.3318	1367.1908	1399.4908	1410.0728	1434.4598	1438.3328	1505.2168	1676.5868	3023.1281	3039.6655	3047.4989	3071.2369	3085.9162	3174.3072	3204.8979	3784.5956	3786.6821	3816.0422
OCC1C(O)C=CC1O	OC[C@H]1[C@@H](O)C=C[C@H]1O	
InChI=1S/C6H10O3/c7-3-4-5(8)1-2-6(4)9/h1-2,4-9H,3H2	InChI=1S/C6H10O3/c7-3-4-5(8)1-2-6(4)9/h1-2,4-9H,3H2/t4-,5-,6+
