25
gdb 58243	2.53519	1.04901	0.8504	1.7262	89.28	-0.2566	0.0832	0.3397	1508.5703	0.226069	-389.487165	-389.475994	-389.475049	-389.523505	41.203	
C	-0.9336886764	 0.2482666432	 3.608644488	-0.40293
C	-0.8165684864	-0.9770797579	 2.6890678032	 0.042425
C	-0.8782045003	-2.2624521748	 3.5298369888	-0.391478
C	-1.8793348955	-0.9688716477	 1.5585492632	 0.006696
C	-1.8386529411	 0.3160634074	 0.7116479647	-0.411904
C	-1.6997931686	-2.1559193597	 0.6295537099	 0.05639
O	-2.2321655881	-3.4301251398	 1.0113306923	-0.268672
C	-2.7762482728	-2.7925392567	-0.1509283096	 0.075083
C	-4.2314559178	-2.3995532511	-0.1087473094	-0.421166
H	-0.2043653351	 0.184567686	 4.422739425	 0.110407
H	-0.75477996	 1.189200169	 3.0819459266	 0.112058
H	-1.9300250381	 0.3014104888	 4.0647217281	 0.11058
H	 0.1705245293	-0.9371368492	 2.2028459339	 0.066823
H	-1.8478101996	-2.3503598239	 4.0342131096	 0.110675
H	-0.7436309877	-3.1617945201	 2.9261460617	 0.137743
H	-0.102848358	-2.2492247335	 4.303189717	 0.101635
H	-2.8661693167	-1.0509206571	 2.0308393365	 0.074063
H	-2.5632873426	 0.2673350195	-0.1069936379	 0.114935
H	-2.0705039027	 1.2026933429	 1.3056271966	 0.121145
H	-0.8468520724	 0.4626503527	 0.2670618751	 0.114275
H	-0.6940873371	-2.2206055007	 0.2020130029	 0.080024
H	-2.475789331	-3.2747738342	-1.0844204218	 0.08314
H	-4.4934352956	-1.897012911	 0.8241373864	 0.12895
H	-4.4714083395	-1.733979745	-0.9452875411	 0.120525
H	-4.8626520063	-3.2897142972	-0.2014681198	 0.128579
50.1202	66.9351	136.6504	174.8272	195.9481	199.5639	213.7431	245.0252	304.7102	335.3071	357.5046	370.7318	410.5777	466.5218	507.1331	551.8089	780.2117	803.588	824.0248	907.3742	932.7788	937.5751	966.2174	978.475	988.7223	1021.4669	1059.7451	1082.0407	1134.0806	1153.0658	1178.5265	1185.0097	1199.1921	1200.2376	1283.7032	1304.3802	1314.6396	1350.3497	1374.5613	1399.5105	1401.6167	1409.408	1419.2675	1427.033	1469.1773	1485.4405	1489.3213	1490.6132	1498.2857	1502.8467	1507.1409	1511.5722	1517.7882	2984.3924	3026.2729	3029.849	3033.501	3034.5068	3038.878	3055.4487	3077.2317	3087.4089	3094.159	3096.3633	3097.929	3109.1649	3123.7453	3132.6283	3135.2503
CC(C)C(C)C1OC1C	CC(C)[C@@H](C)[C@H]1O[C@H]1C	
InChI=1S/C8H16O/c1-5(2)6(3)8-7(4)9-8/h5-8H,1-4H3	InChI=1S/C8H16O/c1-5(2)6(3)8-7(4)9-8/h5-8H,1-4H3/t6-,7+,8-/m1/s1
