19
gdb 30642	3.80798	0.93027	0.91383	1.1735	78.26	-0.2148	0.0214	0.2362	1360.5982	0.159069	-423.054173	-423.04504	-423.044096	-423.088636	33.38	
C	-0.0134609659	 1.5753696548	 0.0036119223	-0.393601
C	-0.003788638	 0.0362623252	-0.0163066871	-0.094989
C	-1.4319069503	-0.5321730112	-0.0054239796	-0.07587
O	-2.0658386335	-0.0984523098	 1.1887154424	-0.422216
C	 0.7712202046	-0.5128305245	-1.1690619568	 0.376142
C	 1.8648297889	-1.3170343222	-1.268771751	-0.292228
C	 2.1278669518	-1.4864233238	-2.6685280531	-0.16978
C	 1.1731530822	-0.7729647821	-3.3162064072	-0.023425
O	 0.3390624346	-0.1742755734	-2.4226755769	-0.188638
H	 1.0023021424	 1.9693666762	 0.0986454078	 0.114147
H	-0.4427549591	 1.9688656382	-0.9231258117	 0.122252
H	-0.613047706	 1.9334841687	 0.8427627597	 0.132936
H	 0.48826619	-0.3256112205	 0.8941087772	 0.095653
H	-1.9699058757	-0.1798623659	-0.8986514729	 0.097437
H	-1.3844710226	-1.630698406	-0.0556773346	 0.090033
H	-2.9839934577	-0.3817238075	 1.1623388775	 0.287909
H	 2.4189804974	-1.7378179905	-0.4441067347	 0.105988
H	 2.9207749696	-2.0597022762	-3.1226949255	 0.109166
H	 0.9524382671	-0.5916368495	-4.355122396	 0.129085
52.8478	105.8601	114.8944	196.0902	229.1899	233.7289	290.0768	369.1262	378.1184	484.9753	615.4214	704.2659	725.3022	745.3849	806.7619	847.4518	870.94	902.7921	931.9203	946.1477	1005.9	1037.2661	1073.7887	1096.1492	1110.6644	1160.1063	1184.7756	1218.6914	1241.4576	1259.9592	1267.8776	1329.9905	1352.1396	1397.961	1415.9535	1452.8714	1494.9995	1503.2417	1523.6252	1542.4494	1636.6491	2977.2951	3010.567	3045.2147	3050.0194	3114.1869	3136.9336	3249.3178	3260.7638	3284.9949	3836.1731
CC(CO)C1=CC=CO1	C[C@@H](CO)c1ccco1	
InChI=1S/C7H10O2/c1-6(5-8)7-3-2-4-9-7/h2-4,6,8H,5H2,1H3	InChI=1S/C7H10O2/c1-6(5-8)7-3-2-4-9-7/h2-4,6,8H,5H2,1H3/t6-/m0/s1
