23
gdb 104012	2.89955	1.34392	1.20838	1.5612	84.2	-0.2408	0.0838	0.3246	1174.0352	0.206444	-388.278165	-388.269423	-388.268479	-388.311001	35.038	
C	 0.0888709111	 1.5189412672	-0.0791090497	-0.397452
C	-0.0599384842	-0.0019433653	 0.0412747045	-0.223487
C	-1.507996887	-0.5337545003	 0.0466585129	 0.351665
C	-2.2907454035	 0.0048416074	 1.2495969961	-0.467204
C	-2.2342251992	-0.3315826961	-1.3359207175	-0.276967
C	-2.3494372037	-1.8157778258	-1.7408556601	 0.083281
C	-2.9006555337	-2.5076260706	-0.4780663556	-0.243453
C	-1.486221367	-2.0918629159	-0.0177835236	 0.039393
O	-1.0263937221	-2.3353201975	-1.3870768068	-0.300103
H	 1.1461784413	 1.7953653553	-0.1399962002	 0.113139
H	-0.4021726031	 1.9048661737	-0.9790305665	 0.114997
H	-0.336284774	 2.0451890391	 0.7811678435	 0.114163
H	 0.4682589096	-0.486517982	-0.7854384165	 0.114586
H	 0.4346056742	-0.3342766498	 0.9649555047	 0.084035
H	-2.3786677862	 1.0947283298	 1.2105052922	 0.121179
H	-3.3061492256	-0.3979780273	 1.2985052644	 0.11085
H	-1.7858533723	-0.2495641132	 2.1893773411	 0.111024
H	-3.2078496114	 0.1592233715	-1.2461587842	 0.093673
H	-1.6293625987	 0.2291569955	-2.0519049177	 0.104761
H	-2.6701018562	-2.0656951009	-2.7525250529	 0.075694
H	-3.7848865835	-2.1031594229	 0.0183719099	 0.094025
H	-2.9770165615	-3.5874181785	-0.6085372806	 0.11021
H	-0.9182881532	-2.6287242832	 0.7440366826	 0.071991
106.3648	180.8499	184.946	194.2269	250.7642	305.7232	360.6453	386.7552	435.1226	477.0081	576.381	604.5922	752.7152	790.6981	820.4974	840.9641	867.8691	875.6544	905.6675	929.6259	952.1275	966.4656	1012.7143	1024.9221	1032.4918	1059.6408	1073.5474	1076.6764	1118.5932	1182.1348	1201.6989	1213.1468	1230.1922	1249.194	1261.3509	1286.4677	1308.4122	1327.1437	1350.04	1367.8994	1409.6649	1415.8855	1478.5038	1486.1921	1490.8852	1497.2203	1502.9214	1507.29	1513.4333	3009.5223	3029.4687	3035.0043	3058.25	3074.1906	3077.5037	3093.9945	3098.8631	3104.1919	3107.5481	3110.0768	3111.4336	3119.0669	3145.4347
CCC1(C)CC2CC1O2	CC[C@@]1(C)C[C@@H]2C[C@H]1O2	
InChI=1S/C8H14O/c1-3-8(2)5-6-4-7(8)9-6/h6-7H,3-5H2,1-2H3	InChI=1S/C8H14O/c1-3-8(2)5-6-4-7(8)9-6/h6-7H,3-5H2,1-2H3/t6-,7+,8-/m0/s1
