18
gdb 63318	2.5433	1.60875	1.3079	5.121	71.79	-0.2494	0.0035	0.2529	1039.938	0.147371	-439.11188	-439.10368	-439.102736	-439.144237	31.884	
C	 0.1377339112	 1.4723587803	-0.0822781617	-0.419297
C	-0.0588570258	-0.0332006567	 0.0518479522	 0.362945
C	-1.5327369883	-0.4355234619	 0.0783287281	-0.421684
O	 0.5478063259	-0.6630859976	-1.1187017311	-0.262997
C	 1.354184128	-1.7117243928	-0.7995011043	 0.472072
O	 1.7895454787	-2.4721873788	-1.6146840454	-0.349824
C	 1.5513678866	-1.7205906548	 0.6904641653	-0.200469
N	 2.141085148	-0.4294256756	 1.1467572997	-0.335141
C	 0.6935264213	-0.6464450621	 1.2329577727	-0.085507
H	 1.203001838	 1.7089371434	-0.0886309515	 0.149018
H	-0.3146708968	 1.83255989	-1.0099838281	 0.129492
H	-0.3358323255	 1.9917197414	 0.7569078126	 0.113747
H	-2.0227334544	-0.1295878358	-0.8493447021	 0.137912
H	-1.6399128955	-1.5195490105	 0.1820070123	 0.124695
H	-2.0463812555	 0.0458059369	 0.9168037152	 0.118986
H	 1.7982271086	-2.6469080741	 1.1919996112	 0.120782
H	 2.5608490797	-0.5815312122	 2.0617688184	 0.243414
H	 0.2024781656	-0.7176333093	 2.1973016767	 0.101856
110.1182	191.9944	216.456	248.0006	263.5723	325.4169	338.7087	399.7978	481.5187	527.1903	595.01	636.4152	758.7994	812.84	837.4307	876.7237	880.9318	934.5006	939.4359	946.5538	977.5501	1019.0523	1042.3462	1113.2837	1132.1125	1167.626	1216.6125	1240.5435	1255.4692	1305.2913	1360.7781	1396.8774	1406.8684	1419.6458	1476.5802	1483.4275	1495.4561	1507.2313	1881.7434	3039.176	3048.0779	3110.9484	3117.9848	3127.0926	3145.3174	3174.9361	3211.3794	3493.428
CC1(C)OC(=O)C2NC12	CC1(C)OC(=O)[C@H]2N[C@@H]12	
InChI=1S/C6H9NO2/c1-6(2)4-3(7-4)5(8)9-6/h3-4,7H,1-2H3	InChI=1S/C6H9NO2/c1-6(2)4-3(7-4)5(8)9-6/h3-4,7H,1-2H3/t3-,4+/m0/s1
