20
gdb 90618	3.95926	1.20948	1.125	2.4553	78.79	-0.21	0.0739	0.2839	1161.2894	0.170678	-403.075533	-403.06733	-403.066386	-403.107733	32.92	
C	-0.0478814	 1.5616088023	 0.0165158101	-0.3995
C	-0.0125600513	 0.0439953841	-0.0424502964	 0.077226
C	 1.0638566875	-0.5976486013	-0.9731100142	-0.290824
C	 1.6598545116	-1.2538751744	 0.2976930132	-0.036645
N	 0.6502879908	-0.5621624671	 1.1738903422	-0.132113
C	 0.1601560586	-1.8716728031	 1.6518367567	-0.072034
C	-0.2900539619	-2.8294316488	 0.5592913095	-0.37014
C	 1.1768196032	-2.6241661047	 0.8071070252	 0.368881
O	 2.0325031095	-3.6420681957	 1.1839674288	-0.461406
H	 0.9521954319	 1.9663393817	 0.2017192218	 0.11858
H	-0.4219071604	 1.9807167158	-0.9245818413	 0.10752
H	-0.7011907982	 1.899321708	 0.827421774	 0.118884
H	-1.0248841365	-0.3419632999	-0.2048911608	 0.07317
H	 0.6952588062	-1.2839672452	-1.7399045979	 0.100133
H	 1.7257238795	 0.13189243	-1.4463909183	 0.102775
H	 2.7114062638	-1.0638158171	 0.5314635556	 0.083108
H	-0.1553627208	-2.0023549782	 2.6809858956	 0.099959
H	-0.6610661376	-3.7692477209	 0.9578206997	 0.11551
H	-0.7900571833	-2.5016341634	-0.3468451858	 0.110316
H	 2.0510902273	-4.3000800621	 0.4806630024	 0.2866
121.5747	190.1499	234.8091	246.3594	269.4952	320.3538	368.224	400.8549	483.1997	515.0919	634.5917	682.7943	747.7088	816.7435	829.3726	856.0151	888.6404	922.2534	941.9593	978.145	1000.0696	1002.3428	1028.3706	1055.6356	1073.4979	1086.4344	1122.0018	1132.0249	1193.0499	1208.975	1219.061	1244.9773	1251.5861	1276.8719	1310.4773	1321.1318	1371.2761	1406.708	1411.2412	1478.4698	1486.4056	1494.2842	1496.1398	3028.6088	3038.1692	3057.1387	3065.9683	3099.2353	3106.4868	3113.0478	3120.326	3169.9378	3203.3424	3797.4177
CC1CC2N1C1CC21O	C[C@H]1C[C@H]2N1[C@H]1C[C@@]21O	
InChI=1S/C7H11NO/c1-4-2-5-7(9)3-6(7)8(4)5/h4-6,9H,2-3H2,1H3	InChI=1S/C7H11NO/c1-4-2-5-7(9)3-6(7)8(4)5/h4-6,9H,2-3H2,1H3/t4-,5+,6-,7+/m0/s1
