17
gdb 55270	3.38657	1.1465	0.90212	6.6279	70.69	-0.2372	0.0116	0.2489	1247.7107	0.137788	-455.213034	-455.204687	-455.203743	-455.246628	31.159	
N	 0.1700377064	 1.419058172	-0.0238826991	-0.563193
C	 0.1288022426	 0.0579607212	-0.0586840637	 0.392098
N	-0.9130835995	-0.6287099315	 0.2419576781	-0.320088
H	-2.0705620267	-1.3287990616	 1.611083347	 0.303738
C	-0.6254205808	-2.0490431823	 0.0159722179	-0.110115
C	 0.9095486978	-2.1757872424	-0.1746986449	-0.22235
C	 1.3207389174	-0.7403709685	-0.5548376018	-0.319084
C	-1.1760190188	-2.8996839189	 1.1650454494	 0.42095
O	-2.052308352	-2.2486908768	 1.9458822076	-0.37125
O	-0.8666580984	-4.047307727	 1.3451042608	-0.345044
H	 1.0666354618	 1.8698490083	 0.0469487671	 0.261702
H	-0.5961453881	 1.8864194846	 0.4358123562	 0.264059
H	-1.1561357512	-2.3892496132	-0.8858937465	 0.111926
H	 1.3757828366	-2.4815698881	 0.7652360363	 0.127685
H	 1.1800358641	-2.9164619828	-0.9275957035	 0.120258
H	 1.4234003687	-0.6057451592	-1.6385813803	 0.132962
H	 2.2618674201	-0.4126810236	-0.1011307705	 0.115747
60.8592	86.7703	153.2606	211.1249	341.0313	363.0495	402.293	473.838	479.1021	544.9108	582.6263	660.2286	695.9778	746.9509	772.7336	830.3431	875.7643	902.6346	975.6775	1005.3478	1037.8685	1075.611	1156.101	1159.903	1223.881	1238.4733	1284.3961	1287.512	1296.6271	1339.7534	1418.4194	1429.2096	1475.1561	1503.079	1630.5916	1720.9848	1867.3221	2994.0426	3037.9576	3073.4423	3084.9301	3133.2827	3543.7372	3592.5571	3712.7477
NC1=[NH+]C(CC1)C([O-])=O	N[C]1[N][C@@H](CC1)C(=O)O	
InChI=1S/C5H8N2O2/c6-4-2-1-3(7-4)5(8)9/h3H,1-2H2,(H2,6,7)(H,8,9)	InChI=1S/C5H8N2O2/c6-4-2-1-3(7-4)5(8)9/h3H,1-2H2,(H2,6,7)(H,8,9)/t3-/m0/s1
