18
gdb 126885	3.34829	1.08196	0.83045	1.0897	78.27	-0.2034	0.0048	0.2082	1388.854	0.146761	-435.27289	-435.263307	-435.262363	-435.310974	32.473	
C	 0.2185109637	 1.4354897451	-0.2929509281	-0.370775
C	-0.4365940386	 0.2224732682	 0.3612472886	-0.114827
N	 0.3390229634	-0.2074377747	 1.5178146757	-0.403561
C	-0.0480806833	-1.2089047375	 2.1756569711	 0.526441
O	-1.1748672592	-2.002565755	 1.9349713877	-0.213064
C	-1.1633328172	-2.9530647859	 2.9090203875	 0.074696
N	-0.1858012728	-2.8683556374	 3.7308309868	-0.224161
N	 0.5289203867	-1.777368386	 3.2894691008	-0.096196
C	 1.730478921	-1.3320709341	 3.948488385	-0.330922
H	 1.2341220748	 1.1938408491	-0.6206184246	 0.117367
H	-0.3572458663	 1.7673241431	-1.1629259227	 0.103096
H	 0.2848138622	 2.2657529431	 0.4166049891	 0.117499
H	-1.4670508443	 0.4738286257	 0.6561334296	 0.096452
H	-0.5234388099	-0.5920193493	-0.3742730423	 0.096366
H	-1.953658275	-3.684954201	 2.9172299296	 0.165823
H	 2.497605112	-2.1124761422	 3.9299282268	 0.140958
H	 2.0845548407	-0.4575713117	 3.4010958403	 0.173631
H	 1.525235722	-1.0571428095	 4.9876849592	 0.141174
4.9358	36.3334	110.51	122.8664	172.0553	226.9108	285.4826	288.8264	351.1573	532.2315	623.7236	658.3788	710.0333	791.2504	793.4613	809.4008	912.5715	954.6427	1005.3764	1024.0744	1100.6991	1117.2325	1145.1615	1158.893	1169.2527	1282.8978	1301.7846	1308.0001	1382.7164	1409.5935	1426.1609	1449.6211	1484.2538	1486.295	1487.3917	1507.7327	1515.3684	1642.5076	1810.6597	2974.1769	2999.6343	3037.4583	3038.4579	3098.7115	3109.9954	3113.0225	3155.703	3293.1803
CCN=C1OC=NN1C	CCN=c1ocnn1C	
InChI=1S/C5H9N3O/c1-3-6-5-8(2)7-4-9-5/h4H,3H2,1-2H3	InChI=1S/C5H9N3O/c1-3-6-5-8(2)7-4-9-5/h4H,3H2,1-2H3
