20
gdb 88386	2.09718	1.39668	1.23573	1.5663	80.97	-0.2225	0.029	0.2514	1166.3878	0.167159	-403.072059	-403.061834	-403.06089	-403.106453	38.47	
C	-0.1754918503	-2.2316263425	 2.6351627037	-0.327662
N	-0.2241073971	-1.5364839162	 1.354987467	-0.089655
C	-1.1718537456	-0.4449892579	 1.1725961022	-0.282613
C	 0.2991026376	-0.189978616	 1.1716754305	-0.015198
C	 1.0021596391	 0.7020444748	 2.2123272214	 0.142999
C	 2.4129346687	 0.1749173831	 2.5093939436	-0.396923
O	 1.2061775414	 1.9811832886	 1.593544314	-0.437664
C	 0.2458756522	 0.8945181056	 3.4596138155	 0.312825
C	-0.3560361726	 1.1285687285	 4.4745868876	-0.481277
H	-0.33995285	-1.5958453514	 3.5140249852	 0.122731
H	-0.9432602599	-3.012029234	 2.6259509034	 0.121511
H	 0.7966151243	-2.725278171	 2.7371810186	 0.122228
H	-1.7375615465	-0.4502755633	 0.2436626883	 0.111653
H	-1.7231749353	-0.0986005982	 2.0457632952	 0.117478
H	 0.8002040436	-0.0543516701	 0.2135490509	 0.101832
H	 2.9599836044	 0.0640632228	 1.5693109017	 0.127804
H	 2.9455186264	 0.8851507248	 3.1455086223	 0.134034
H	 2.368757012	-0.7926523852	 3.0127381794	 0.129401
H	 0.3369220686	 2.3700476732	 1.4426517466	 0.283799
H	-0.888862121	 1.3239958046	 5.3727421229	 0.202697
78.6939	143.9948	178.834	186.3474	198.7389	232.3137	252.9716	320.9031	330.2606	348.3242	377.6459	442.3707	489.4617	579.3188	631.389	636.1203	660.3704	668.8722	762.2304	897.053	925.5132	931.9287	1006.0173	1036.0508	1060.162	1110.0961	1127.0372	1138.9307	1155.4759	1173.1082	1207.7717	1237.4836	1341.9152	1354.629	1392.7828	1405.698	1450.4453	1480.1986	1489.6182	1495.319	1505.0529	1511.2429	2223.7622	3016.3506	3054.7132	3082.4171	3088.1135	3097.0785	3108.2958	3133.2443	3145.8435	3173.1304	3497.1272	3801.4838
CN1CC1C(C)(O)C#C	CN1C[C@H]1[C@@](C)(O)C#C	
InChI=1S/C7H11NO/c1-4-7(2,9)6-5-8(6)3/h1,6,9H,5H2,2-3H3	InChI=1S/C7H11NO/c1-4-7(2,9)6-5-8(6)3/h1,6,9H,5H2,2-3H3/t6-,7-,8?/m0/s1
