21
gdb 102755	2.41852	1.00726	0.75533	2.0324	80.34	-0.2415	-0.0302	0.2113	1533.255	0.179524	-424.207676	-424.19735	-424.196406	-424.24452	36.157	
C	-0.3951356898	 1.1496853171	 0.4993851657	-0.242618
O	-0.0242743466	-0.2045956414	 0.3449538438	-0.23537
C	 0.5133322283	-0.5034865736	-0.9259412713	 0.038556
C	 1.2803264402	-1.8346762771	-0.8390058487	-0.234599
C	 2.5313012985	-1.751283052	 0.0084945702	 0.024923
C	 2.4595083481	-1.8849783079	 1.5070053859	-0.241471
C	 3.0730715135	-2.9883933732	 0.6826235742	-0.282633
C	-0.6038678497	-0.6315938362	-1.9601493065	 0.127958
O	-0.4367266627	-0.5851828024	-3.1505490783	-0.245166
H	 0.4711822313	 1.8191742436	 0.3893189258	 0.113785
H	-1.1615513599	 1.4591064466	-0.2277031362	 0.111105
H	-0.8043220924	 1.25954019	 1.5061186388	 0.133253
H	 1.2016946025	 0.2883305493	-1.2632438001	 0.088493
H	 0.6025476796	-2.5962349328	-0.4331871946	 0.105186
H	 1.5328248874	-2.1380020103	-1.8616487273	 0.121344
H	 3.2758719765	-1.0565528601	-0.3735822181	 0.08129
H	 3.1153089174	-1.2676816743	 2.1110557306	 0.108068
H	 1.4828121312	-2.0545296652	 1.944913128	 0.120583
H	 2.5138180884	-3.9117978096	 0.5711816418	 0.110694
H	 4.1482289797	-3.1250583584	 0.7169421549	 0.111234
H	-1.6059905216	-0.8154895822	-1.5057724986	 0.085383
43.8798	50.2715	87.9472	106.2238	178.0065	195.8549	240.0204	265.2091	327.2486	373.161	429.7429	517.8798	559.6161	767.3841	794.464	836.5176	860.4693	905.918	929.3498	979.1329	1029.914	1059.8464	1069.3355	1073.6944	1079.0061	1136.3692	1146.103	1166.1799	1185.0554	1196.7025	1225.0836	1233.7574	1265.0907	1293.26	1344.5731	1352.2065	1397.0953	1418.3829	1469.6401	1475.3789	1482.553	1489.7135	1507.6885	1509.4047	1834.8293	2861.4717	2975.0571	2983.2243	3027.0255	3029.1058	3075.3139	3121.2429	3129.7601	3131.4719	3141.176	3209.9588	3227.9848
COC(CC1CC1)C=O	CO[C@@H](CC1CC1)C=O	
InChI=1S/C7H12O2/c1-9-7(5-8)4-6-2-3-6/h5-7H,2-4H2,1H3	InChI=1S/C7H12O2/c1-9-7(5-8)4-6-2-3-6/h5-7H,2-4H2,1H3/t7-/m0/s1
