18
gdb 43884	4.65274	1.05955	1.01331	1.6807	75.72	-0.2381	-0.026	0.2121	1193.9163	0.147004	-401.904006	-401.896277	-401.895333	-401.937421	30.07	
O	 0.0148464208	 0.0369415311	-0.4950224373	-0.285408
C	-0.0165635278	 1.1623718265	-0.0926117519	 0.410943
C	-1.1471196643	 2.1154695474	 0.3268847298	-0.428718
C	-0.0608462755	 3.1289933068	 0.7995303151	 0.344299
C	-0.0530306479	 4.6359720377	 0.4419467983	-0.244738
N	 0.1456442498	 5.0467765017	 1.8779222351	-0.121821
C	-1.0378521786	 4.5379265135	 2.5929620433	-0.243996
C	 0.0307405571	 3.578009068	 2.2539589427	-0.095126
C	 1.0639563274	 2.2027835387	 0.2472975017	-0.424691
H	-1.7474861073	 2.4578761503	-0.523273847	 0.132198
H	-1.8252213903	 1.7285787793	 1.0937792944	 0.132646
H	 0.8089630333	 4.9378137181	-0.1578794578	 0.115544
H	-0.9653631898	 5.0453957113	-0.007007528	 0.104448
H	-1.0936874571	 4.8852298132	 3.6200898886	 0.12572
H	-1.9944039284	 4.496648992	 2.0742250466	 0.111879
H	 0.6749924618	 3.1295956415	 3.0053730643	 0.098138
H	 1.8214807713	 1.868271042	 0.9630079764	 0.135407
H	 1.5783642654	 2.5875993108	-0.6401918442	 0.133277
18.9569	133.0968	233.1303	326.6198	386.5565	399.9275	421.557	480.7471	532.3247	651.2971	711.3445	745.8489	779.5315	828.0596	861.4716	896.9545	907.5668	966.5345	988.2742	1031.004	1055.9305	1068.0514	1105.7638	1112.8477	1121.3593	1151.6003	1165.1047	1193.0412	1215.3162	1230.3036	1248.3526	1272.4777	1290.5325	1375.2294	1419.9168	1437.4719	1489.3736	1505.7639	1897.4126	3034.4746	3044.0547	3049.4383	3097.67	3098.9315	3101.0602	3102.5612	3147.1774	3195.3182
O=C1CC2(CN3CC23)C1	O=C1CC2(CN3C[C@@H]23)C1	
InChI=1S/C7H9NO/c9-5-1-7(2-5)4-8-3-6(7)8/h6H,1-4H2	InChI=1S/C7H9NO/c9-5-1-7(2-5)4-8-3-6(7)8/h6H,1-4H2/t6-,8?/m0/s1
