16
gdb 125783	3.3599	1.56381	1.08144	3.0232	77.17	-0.2178	-0.0174	0.2004	1076.773	0.125563	-400.75485	-400.747606	-400.746661	-400.786466	28.001	
C	-0.0184858165	 1.5265830892	-0.0449165482	-0.50243
C	-0.0084048088	 0.0347787738	 0.0484646486	 0.219444
N	-0.037150846	-0.6826738199	-1.0603999662	-0.207429
O	-0.0196093405	-2.0438636461	-0.6684734358	-0.232524
C	 0.0197394188	-2.0644127842	 0.6579517785	 0.381414
C	 0.0295026782	-0.8130132513	 1.1914066421	 0.129794
C	 0.0732245721	-0.9462258385	 2.6489253815	-0.215809
C	 0.088566808	-2.2592226452	 2.9585269819	-0.088606
C	 0.055699781	-3.1296821476	 1.7041838624	-0.4211
H	 0.8763513032	 1.9528262774	 0.4205639744	 0.137619
H	-0.0512340722	 1.8374552496	-1.0906802844	 0.152317
H	-0.8880159013	 1.9442504448	 0.4733071668	 0.137611
H	 0.0902221787	-0.1291114246	 3.357839138	 0.106465
H	 0.1198846377	-2.6812666025	 3.9539392257	 0.106255
H	-0.8228317432	-3.7861245418	 1.6773992617	 0.148488
H	 0.9373183408	-3.7777582232	 1.6254415929	 0.148491
135.8632	160.4644	234.4484	240.9997	335.1509	447.4607	487.98	596.374	621.6638	650.9101	680.5105	737.0995	777.2734	865.7962	886.37	927.1258	931.4774	943.4429	1024.9931	1049.2158	1065.2463	1129.2498	1144.3282	1219.2295	1231.862	1346.0665	1380.2568	1411.8132	1430.7466	1463.0315	1482.1525	1505.8347	1522.1768	1579.6197	1626.3731	3040.612	3041.326	3072.325	3096.7787	3140.2962	3215.0217	3237.0267
CC1=NOC2=C1C=CC2	Cc1noc2c1C=CC2	
InChI=1S/C7H7NO/c1-5-6-3-2-4-7(6)9-8-5/h2-3H,4H2,1H3	InChI=1S/C7H7NO/c1-5-6-3-2-4-7(6)9-8-5/h2-3H,4H2,1H3
