19
gdb 64231	3.13925	0.98282	0.90809	5.0885	76.39	-0.2426	0.0367	0.2794	1341.3943	0.158484	-419.201743	-419.192321	-419.191377	-419.236103	34.904	
C	-0.0888080267	 1.5764813342	-0.1181530525	-0.454289
C	-0.0298479682	 0.0574904834	-0.0359637561	 0.361366
O	-1.3020520724	-0.5281524765	-0.1936070243	-0.471978
C	 1.1475659091	-0.562343324	-0.8520506309	-0.218449
N	 1.9354058323	-0.6088696368	 0.4032271667	-0.32255
C	 0.6990211563	-0.5318551448	 1.2049366699	 0.023827
C	 0.7992639991	 0.2758872206	 2.5046978303	-0.361524
C	 1.5986895898	-0.4233098563	 3.5084977422	 0.259295
N	 2.2342066512	-0.9995305474	 4.2829886425	-0.307971
H	 0.9008393049	 2.0171606038	 0.0291467896	 0.141599
H	-0.4399459635	 1.8844944571	-1.1109208284	 0.112694
H	-0.7776249761	 1.9865936386	 0.6271084355	 0.125056
H	-1.765861178	-0.069651491	-0.9023218274	 0.280247
H	 0.8566758818	-1.5429767932	-1.250262073	 0.101399
H	 1.597144256	 0.0411977207	-1.6481428463	 0.098493
H	 2.4945975094	-1.4426232671	 0.5446880279	 0.232297
H	 0.2482745713	-1.5098805423	 1.4237630622	 0.095103
H	 1.2592890496	 1.2489377373	 2.3086571384	 0.151181
H	-0.2035613558	 0.4500729137	 2.9120840037	 0.154207
59.7908	114.1634	130.1087	221.0251	254.8291	269.74	288.4324	352.98	392.1045	397.1443	421.9223	511.5701	560.5278	627.3693	745.5408	822.9739	901.4029	920.8877	946.4009	959.747	983.1311	1019.0844	1042.3933	1096.1569	1132.2047	1143.472	1179.2395	1214.3375	1231.2831	1263.582	1302.4131	1343.7673	1369.4053	1393.0186	1403.0329	1406.9963	1453.7017	1493.1959	1499.1665	1516.5563	2360.4309	3007.5743	3014.7581	3026.1225	3046.8319	3068.8555	3091.4488	3098.5463	3122.0598	3536.8391	3808.0822
CC1(O)CNC1CC#N	C[C@@]1(O)CN[C@H]1CC#N	
InChI=1S/C6H10N2O/c1-6(9)4-8-5(6)2-3-7/h5,8-9H,2,4H2,1H3	InChI=1S/C6H10N2O/c1-6(9)4-8-5(6)2-3-7/h5,8-9H,2,4H2,1H3/t5-,6+/m0/s1
