22
gdb 118427	2.52445	0.9452	0.73467	5.9549	79.17	-0.2478	0.0267	0.2746	1603.786	0.194143	-441.530928	-441.520607	-441.519663	-441.566791	37.471	
C	-0.1245478086	 1.6134625257	-0.0424718501	-0.382267
C	-0.0955099147	 0.0832773603	-0.0521951576	-0.17428
C	 0.7848162897	-0.4823025233	-1.1737497888	-0.167433
C	 0.8384690425	-2.0174213018	-1.2172375267	-0.144841
C	 1.28280787	-2.5387511918	-2.6013963783	-0.193634
N	 1.0994600817	-4.0009869227	-2.6939669851	-0.52407
H	 1.6114136249	-4.3857243196	-3.4805107007	 0.249542
H	 1.6486088924	-4.2373463087	-1.0395093322	 0.311083
H	 0.1194366412	-4.228915407	-2.8326650246	 0.246045
C	 1.7179929123	-2.5899334814	-0.084209484	 0.419482
O	 2.1388958091	-1.920632515	 0.8253919141	-0.332036
O	 1.9786189642	-3.9001171558	-0.1653865415	-0.380827
H	 0.8786299518	 2.0254123177	 0.1129590685	 0.119205
H	-0.5038386471	 2.014434942	-0.9897983066	 0.105354
H	-0.7659034426	 1.99289039	 0.7590717028	 0.111459
H	 0.275816744	-0.2883930108	 0.9062825679	 0.133933
H	-1.1184178987	-0.3010008354	-0.1703480751	 0.081307
H	 0.4092198273	-0.1165563914	-2.1392758349	 0.078786
H	 1.8042921232	-0.0952987533	-1.0633316582	 0.112298
H	-0.1768226073	-2.4087878316	-1.0429730306	 0.094412
H	 0.7314589799	-1.9966493707	-3.3812574972	 0.106844
H	 2.3468287048	-2.3266629555	-2.7541717109	 0.129639
68.3015	75.9243	96.0677	141.6061	187.6271	248.1928	267.745	296.9222	318.3083	345.8042	383.2484	426.7084	573.3334	597.65	724.2297	747.7535	798.4741	859.4257	899.3007	908.8213	964.0514	982.5596	1017.084	1046.411	1067.5177	1082.578	1111.6529	1142.217	1182.0615	1230.0835	1268.0543	1291.9023	1317.6068	1330.1722	1347.3976	1376.734	1397.3475	1413.1239	1416.4942	1475.2834	1494.2052	1494.5294	1500.8378	1508.8233	1511.7816	1650.2274	1842.5581	2983.0878	3005.4105	3010.4626	3015.0218	3027.088	3066.2246	3074.2054	3082.9117	3101.8895	3109.5455	3226.8465	3502.5018	3585.0101
CCCC(C[NH3+])C([O-])=O	CCC[C@@H](CN)C(=O)O	
InChI=1S/C6H13NO2/c1-2-3-5(4-7)6(8)9/h5H,2-4,7H2,1H3,(H,8,9)	InChI=1S/C6H13NO2/c1-2-3-5(4-7)6(8)9/h5H,2-4,7H2,1H3,(H,8,9)/t5-/m0/s1
