21
gdb 117160	3.1874	0.74577	0.63368	2.4942	76.21	-0.258	-0.0317	0.2262	1793.5018	0.179745	-461.38346	-461.372701	-461.371756	-461.420687	38.002	
C	 0.0077549931	 1.5290585156	-0.0018524989	-0.388536
C	 0.0293959999	 0.0001734773	-0.0614427811	-0.16491
C	-1.3599142512	-0.6141901114	 0.1243816741	-0.288972
C	-1.3712597891	-2.12719957	 0.1085757926	 0.34655
O	-0.3567905213	-2.7948747548	 0.1414400952	-0.327191
C	-2.7168494831	-2.8500203609	 0.072514603	 0.020398
O	-2.5130134629	-4.2379739951	-0.0505495539	-0.447375
C	-3.5465775405	-2.5908671037	 1.3489303087	-0.064572
O	-4.6906515219	-3.4090624323	 1.3532889216	-0.418742
H	 1.0119825264	 1.9410999894	-0.1376752952	 0.120318
H	-0.6332149435	 1.9517358868	-0.7836771005	 0.116098
H	-0.370035523	 1.8854322971	 0.9630501276	 0.116192
H	 0.4411747439	-0.3339443246	-1.020220058	 0.112962
H	 0.699230566	-0.4010167409	 0.7055914004	 0.119811
H	-1.7956953208	-0.2937114089	 1.0829574417	 0.136913
H	-2.0628091187	-0.25345309	-0.6389706827	 0.125388
H	-3.2951233247	-2.4913141948	-0.7924063097	 0.098324
H	-1.5535227417	-4.3611998054	 0.0486235149	 0.296082
H	-2.9081318012	-2.7789528177	 2.2290909706	 0.089368
H	-3.8873360017	-1.5511493239	 1.3890761006	 0.106991
H	-4.3727722139	-4.2937787319	 1.1291252389	 0.294901
35.883	60.8776	89.8666	116.3566	134.1942	202.4797	246.5709	304.7225	322.7095	349.0299	403.6887	456.3961	515.7209	518.9334	580.494	720.3556	752.7761	831.7028	881.2964	904.1975	928.1861	1039.1557	1045.3291	1052.2193	1087.7733	1122.2492	1134.9965	1167.5117	1230.6891	1235.9606	1260.808	1319.974	1327.4059	1333.2165	1386.6821	1398.1835	1416.881	1435.0726	1437.5683	1447.919	1488.3649	1501.037	1501.2242	1507.9676	1785.0502	2958.4214	2999.9832	3006.6519	3030.4551	3041.5087	3049.985	3076.7224	3079.1198	3103.2477	3107.6182	3656.5682	3769.0721
CCCC(=O)C(O)CO	CCCC(=O)[C@@H](O)CO	
InChI=1S/C6H12O3/c1-2-3-5(8)6(9)4-7/h6-7,9H,2-4H2,1H3	InChI=1S/C6H12O3/c1-2-3-5(8)6(9)4-7/h6-7,9H,2-4H2,1H3/t6-/m0/s1
