16
gdb 48302	3.18345	0.79369	0.6653	3.0359	70.93	-0.2734	-0.067	0.2064	1581.382	0.121015	-437.915263	-437.905545	-437.904601	-437.951381	32.458	
O	-0.6642626034	 0.9524503354	-0.494275636	-0.231327
C	 0.2285902805	 1.1324175862	 0.290938663	 0.153188
C	 1.4349536147	 2.0331366245	 0.0139595127	-0.185518
C	 1.3384414369	 2.8184014545	-1.2954630704	-0.213156
C	 1.4794287218	 1.9259535059	-2.5451460968	-0.351918
C	 1.4755427236	 2.7086923878	-3.7786698141	 0.260273
N	 1.4747563166	 3.3452144719	-4.742913407	-0.299613
C	 1.6464246501	 2.9293355004	 1.2379814079	 0.130202
O	 1.7661163644	 2.5001079672	 2.3542526528	-0.237556
H	 0.2416398108	 0.660882441	 1.2934506298	 0.125996
H	 2.3043320396	 1.3560623695	 0.0105594748	 0.140981
H	 0.3761366934	 3.3380744767	-1.3391386901	 0.144385
H	 2.1188301897	 3.5868303619	-1.3124705462	 0.127522
H	 2.4144983186	 1.3541989706	-2.5033435546	 0.148868
H	 0.656839652	 1.2064770321	-2.5781644306	 0.182943
H	 1.6683189007	 4.0207207344	 1.0243126747	 0.104732
58.6794	68.2407	103.5096	111.1236	125.0948	213.0328	234.0121	306.124	377.1822	399.7151	509.7082	565.5728	661.5541	776.6141	826.4551	876.2102	938.473	968.4224	1020.3356	1081.35	1097.2008	1127.481	1199.3403	1213.473	1282.6046	1315.2794	1338.2011	1385.922	1411.3	1418.5042	1473.1849	1486.7834	1808.422	1840.998	2365.0069	2891.7723	2948.7551	2997.9115	3041.5835	3051.2793	3091.7624	3111.4227
O=CC(CCC#N)C=O	O=CC(CCC#N)C=O	
InChI=1S/C6H7NO2/c7-3-1-2-6(4-8)5-9/h4-6H,1-2H2	InChI=1S/C6H7NO2/c7-3-1-2-6(4-8)5-9/h4-6H,1-2H2
