18
gdb 34202	3.8346	1.39743	1.22983	4.3879	79.92	-0.2829	0.0214	0.3043	1035.3322	0.150244	-364.792922	-364.785946	-364.785002	-364.824123	28.342	
N	 0.069626983	-1.1540568083	 0.1170868756	-0.349873
C	 0.0309134213	 0.0017481633	 0.0703186477	 0.169523
C	-0.0216806591	 1.4415665315	-0.0000417364	 0.213942
C	-1.1192966052	 2.1716873154	 0.8309446795	-0.275975
C	-1.3345334554	 3.1836717147	-0.3202413881	-0.035673
C	-0.2220954894	 4.2590576034	-0.4103490966	-0.230598
C	 0.7345382966	 3.223838258	-1.0547513307	-0.035669
C	 1.3281579573	 2.219151349	-0.0379291606	-0.276028
C	-0.4895607754	 2.2642250415	-1.2728751618	-0.083082
H	-1.9916883555	 1.5256860532	 0.9556057186	 0.123722
H	-0.8191286188	 2.5565296121	 1.8102393432	 0.106177
H	-2.3595446443	 3.4938883102	-0.5196415044	 0.077671
H	-0.4928145529	 5.0366632732	-1.1304561935	 0.107445
H	 0.0986151879	 4.7406029757	 0.5194156991	 0.096235
H	 1.3931289963	 3.5667345496	-1.8518205622	 0.077672
H	 1.6994075403	 2.6053056641	 0.9161552745	 0.10618
H	 2.1055888999	 1.6052190781	-0.4990483216	 0.123713
H	-0.8137951564	 1.8211414653	-2.2104829024	 0.084618
144.7891	148.3205	292.7874	310.4997	410.0332	462.6233	557.2308	563.3798	616.6488	697.3409	791.5307	828.1428	852.3232	877.4674	892.934	935.2262	939.611	944.5679	961.4586	1030.8095	1050.1996	1059.3749	1108.6354	1141.3588	1148.7246	1175.6335	1175.9985	1222.1757	1225.151	1244.2308	1250.7365	1289.138	1301.1777	1311.8564	1340.5838	1478.6979	1478.9721	1496.5623	2342.6216	3041.8789	3052.3536	3054.8397	3094.1317	3107.9063	3109.2694	3115.1054	3117.5731	3156.9953
N#CC12CC3CC(C1)C23	N#C[C@@]12C[C@H]3C[C@@H](C1)[C@@H]23	
InChI=1S/C8H9N/c9-4-8-2-5-1-6(3-8)7(5)8/h5-7H,1-3H2	InChI=1S/C8H9N/c9-4-8-2-5-1-6(3-8)7(5)8/h5-7H,1-3H2/t5-,6+,7+,8-
