21
gdb 58597	2.11859	1.23151	1.04734	3.593	81.83	-0.2589	0.0328	0.2917	1287.3596	0.181759	-383.267285	-383.257372	-383.256428	-383.302459	36.712	
C	-0.1160080996	 1.3795769955	-0.0100386331	-0.390184
C	 0.3417052775	-0.0697205502	-0.260902402	-0.059414
C	-0.5124922515	-1.0449540416	 0.5600002935	-0.413664
C	 0.3814124252	-0.3759426701	-1.7640900269	 0.334101
C	 1.5317898516	 0.2940927986	-2.5239046925	-0.394261
C	 2.843109118	-0.2128086853	-2.1202387189	 0.269429
N	 3.8708868919	-0.6217972872	-1.7853542193	-0.316865
C	-0.1365695139	-1.6460858898	-2.3346686275	-0.279733
N	-0.8565557204	-0.3766759332	-2.5609179936	-0.358485
H	 0.5056074456	 2.1114969529	-0.5336944852	 0.118972
H	-1.1509130757	 1.5290869303	-0.3380564786	 0.116561
H	-0.0683512683	 1.6155018296	 1.0570956661	 0.121375
H	 1.3744468031	-0.1623475287	 0.0994756358	 0.105123
H	-1.5544713201	-1.0688262251	 0.2175194257	 0.10984
H	-0.1174600954	-2.0633475934	 0.5251878744	 0.128326
H	-0.5298124943	-0.7316043131	 1.6078120246	 0.12258
H	 1.3942782567	 0.1249547092	-3.5957415829	 0.161109
H	 1.5147174094	 1.3790307331	-2.3742549495	 0.151176
H	 0.3311942698	-2.0694292605	-3.2197359849	 0.121041
H	-0.5770960675	-2.3795109542	-1.6689410013	 0.120565
H	-1.6665546219	-0.3277081468	-1.946676864	 0.232406
42.1165	77.9306	131.7402	204.4349	237.9576	263.5477	287.9353	338.7943	357.6708	389.9707	399.7763	456.9948	476.701	598.4349	678.8688	834.9653	879.6202	897.5831	928.2693	934.7013	952.5382	968.1873	969.2084	1001.9986	1053.9913	1105.453	1129.6986	1157.6641	1182.9728	1200.0997	1260.6408	1280.7669	1318.9157	1347.453	1376.517	1393.3224	1406.4235	1425.5405	1461.9466	1484.436	1495.4489	1504.9965	1507.5808	1521.0606	2360.3044	3022.7661	3029.2175	3036.5706	3058.491	3094.3701	3099.4773	3103.3931	3110.9346	3117.3394	3121.6512	3210.7387	3492.791
CC(C)C1(CC#N)CN1	CC(C)[C@@]1(CC#N)CN1	
InChI=1S/C7H12N2/c1-6(2)7(3-4-8)5-9-7/h6,9H,3,5H2,1-2H3	InChI=1S/C7H12N2/c1-6(2)7(3-4-8)5-9-7/h6,9H,3,5H2,1-2H3/t7-/m1/s1
