18
gdb 65732	3.66843	1.09496	0.99901	3.776	71.85	-0.2425	-0.0199	0.2226	1207.9009	0.146436	-439.04526	-439.036703	-439.035759	-439.079512	32.027	
O	-0.0260263162	 1.3648630561	-0.0801583653	-0.48889
C	 0.0091829343	-0.0367856772	-0.0089517497	 0.427691
C	 0.9528827535	-0.5396325023	-1.1021884173	-0.333415
C	 2.3695179286	-0.0590987382	-0.8620930118	 0.157999
O	 3.2772983225	-0.7821310698	-0.5351740016	-0.246755
C	 0.2762530146	-0.6707372685	 1.4226110426	-0.294463
C	-1.1277826687	-1.2677124811	 1.3672225923	-0.037336
N	-2.0499964499	-0.1156317166	 1.1825408789	-0.36248
C	-1.3748971465	-0.7202961724	 0.0080495116	-0.115101
H	-0.7421258227	 1.6307227075	 0.5147384681	 0.291218
H	 0.9528468932	-1.6322873044	-1.1328131366	 0.117934
H	 0.5984604318	-0.1450807513	-2.0628155545	 0.119456
H	 2.5183077342	 1.0336857681	-0.9872026216	 0.099664
H	 1.0748453203	-1.4151621669	 1.4019495628	 0.125398
H	 0.457388675	 0.0476655855	 2.2254051691	 0.108471
H	-1.482905997	-2.1893699983	 1.80982539	 0.100755
H	-3.0059795269	-0.4667949489	 1.2029722871	 0.236294
H	-1.9446600603	-1.1066015213	-0.8291119343	 0.093559
32.3494	75.9167	157.2415	198.5247	292.4652	355.9251	396.1331	438.3613	502.5713	528.5092	593.9448	655.8514	757.5362	818.7063	843.7033	877.7599	910.2763	913.8995	950.4653	983.8462	1007.3374	1022.2708	1064.096	1080.5442	1104.5698	1130.4504	1144.251	1187.1921	1219.043	1266.4861	1284.8766	1311.6991	1319.6877	1374.0819	1421.7371	1425.4249	1458.3617	1474.5014	1824.1856	2919.5716	3034.5392	3069.7682	3110.6702	3131.9344	3180.4549	3202.8533	3489.2907	3734.2839
OC1(CC=O)CC2NC12	O[C@@]1(CC=O)C[C@H]2N[C@@H]12	
InChI=1S/C6H9NO2/c8-2-1-6(9)3-4-5(6)7-4/h2,4-5,7,9H,1,3H2	InChI=1S/C6H9NO2/c8-2-1-6(9)3-4-5(6)7-4/h2,4-5,7,9H,1,3H2/t4-,5-,6+/m1/s1
