19
gdb 111827	2.77933	1.3688	1.09293	3.5457	74.95	-0.2445	-0.0307	0.2138	1150.4347	0.159604	-423.011915	-423.003552	-423.002608	-423.045396	31.587	
O	 0.0872792609	 1.3547555795	 0.339923432	-0.423298
C	 0.1218059184	-0.0236354668	 0.0211483839	-0.087831
C	-1.2989487411	-0.5828841941	-0.0495991068	-0.117784
C	-1.6718929363	-2.0966431933	-0.1520301458	-0.074149
C	-0.8031654646	-3.0994191933	 0.6626310057	-0.230324
C	-1.7700646197	-2.9830692215	 1.8783524273	-0.226159
C	-2.6344414814	-1.9489906445	 1.0921734511	-0.148177
C	-2.0993335702	-0.5232638195	 1.254411856	 0.393945
O	-2.1647526583	 0.3056999758	 2.1247097482	-0.326728
H	-0.4482566643	 1.4437066917	 1.1398124986	 0.296747
H	 0.6292941772	-0.115970072	-0.9451229611	 0.110152
H	 0.7156133823	-0.5887177666	 0.7567466793	 0.088364
H	-1.8537522224	-0.0224518935	-0.8142967111	 0.116898
H	-2.0192082645	-2.4314422876	-1.1283163776	 0.076922
H	-0.7837873164	-4.0987683255	 0.2229430397	 0.111161
H	 0.2304564557	-2.7968842048	 0.844724723	 0.109973
H	-2.3140157666	-3.9064638435	 2.0864410062	 0.115243
H	-1.3462394029	-2.6182456311	 2.8168891789	 0.119215
H	-3.7162628158	-2.0846279694	 1.0747775725	 0.095832
58.1423	114.6874	155.5449	192.8989	222.2101	342.688	451.1632	475.6811	494.112	608.6548	642.1634	706.5867	784.0159	820.3655	837.0698	861.7466	936.8999	943.877	964.6337	1026.4192	1052.1114	1066.1994	1069.7578	1077.9119	1122.3145	1140.5623	1185.2099	1203.5946	1213.1316	1229.4735	1250.3482	1280.6927	1285.7664	1308.8471	1323.2891	1383.4375	1444.9249	1481.5289	1496.2675	1515.0359	1853.9118	2978.0796	3027.8918	3065.9486	3067.435	3072.6846	3104.3299	3112.1322	3119.5929	3130.1283	3755.8396
OCC1C2CCC2C1=O	OC[C@H]1[C@H]2CC[C@H]2C1=O	
InChI=1S/C7H10O2/c8-3-6-4-1-2-5(4)7(6)9/h4-6,8H,1-3H2	InChI=1S/C7H10O2/c8-3-6-4-1-2-5(4)7(6)9/h4-6,8H,1-3H2/t4-,5+,6-/m0/s1
