18
gdb 67962	2.24276	1.86692	1.32069	5.1256	70.79	-0.2401	0.006	0.2461	1016.7438	0.149233	-439.121816	-439.114066	-439.113122	-439.153882	30.29	
C	-0.1709990992	 1.5876915079	 0.0932276573	-0.466884
C	 0.0001953419	 0.0867059224	 0.0884710791	 0.429173
C	-1.245515773	-0.7658219779	-0.1513568165	-0.262075
C	-0.912405814	-2.1134256519	 0.5371539388	-0.198455
N	-0.036737989	-1.7954081345	 1.6815594494	-0.276243
C	 0.7385664698	-0.644314775	 1.2596540406	-0.255674
C	 1.7889387564	-0.9539211474	 0.1703661687	 0.453056
O	 2.8303018511	-1.5185651207	 0.0814142347	-0.324846
O	 1.0977101105	-0.3116415942	-0.825387804	-0.290648
H	 0.7801716045	 2.0870017344	 0.2991821849	 0.131312
H	-0.5365728024	 1.9427403608	-0.875471639	 0.1368
H	-0.8942720713	 1.8861435748	 0.8587391821	 0.12252
H	-2.1031727297	-0.2889537029	 0.3369829058	 0.101965
H	-1.4721977191	-0.8659491071	-1.2158938492	 0.121863
H	-1.7952111051	-2.6619776131	 0.8709483827	 0.111084
H	-0.3635866638	-2.7634980668	-0.1537093716	 0.135289
H	-0.596385051	-1.5447385023	 2.489970068	 0.226313
H	 1.1159821633	-0.0568811862	 2.0972879583	 0.10545
108.8402	181.2312	219.5886	255.1971	309.6381	334.2852	385.3391	488.2352	597.5375	624.0144	644.548	728.018	773.2126	823.1393	834.5025	890.0602	918.0114	929.7548	968.2937	975.1129	1030.402	1084.0159	1121.7534	1131.1145	1167.7999	1190.2892	1229.4566	1246.7879	1271.7538	1326.453	1353.8662	1375.0864	1414.3988	1460.9642	1471.5461	1483.1381	1496.6098	1504.3489	1937.2714	3037.7427	3044.1383	3048.6801	3106.0873	3109.6728	3115.2871	3117.5426	3118.224	3522.8931
CC12CCNC1C(=O)O2	C[C@]12CCN[C@H]1C(=O)O2	
InChI=1S/C6H9NO2/c1-6-2-3-7-4(6)5(8)9-6/h4,7H,2-3H2,1H3	InChI=1S/C6H9NO2/c1-6-2-3-7-4(6)5(8)9-6/h4,7H,2-3H2,1H3/t4-,6-/m0/s1
