20
gdb 114764	3.95765	1.08956	0.92238	2.3488	81.39	-0.2366	0.0107	0.2472	1301.7316	0.172268	-403.117683	-403.109308	-403.108364	-403.150867	32.101	
C	-0.2082042868	 1.3110171055	 0.0834033846	-0.239312
O	 0.052939733	-0.071374483	 0.0315184473	-0.243048
C	 0.7317599842	-0.4934357811	-1.144104589	 0.083257
C	 1.4309527134	-1.8183441549	-0.8066778402	-0.22697
C	 1.974554054	-2.5078358345	-2.0528664905	-0.055558
N	 1.1766746607	-3.6377868028	-2.577861328	-0.333853
C	 1.2269570455	-2.3542862046	-3.325706048	-0.070555
C	-0.0004532249	-1.517606473	-3.3044121818	-0.053362
C	-0.2215612143	-0.6579455108	-2.3107152327	-0.072772
H	 0.7209962724	 1.9014533468	 0.0390223149	 0.103066
H	-0.8651401086	 1.6510142025	-0.7315787994	 0.104077
H	-0.7078903564	 1.5101261336	 1.0347857906	 0.127719
H	 1.4932290082	 0.2643544531	-1.403536202	 0.069648
H	 2.2279705178	-1.633149618	-0.0803563184	 0.096988
H	 0.6919313125	-2.4678484645	-0.3298210067	 0.129128
H	 3.05601067	-2.5951007563	-2.1197415441	 0.08298
H	 1.7955433946	-4.3098000291	-3.0278098033	 0.226059
H	 1.7923748968	-2.3519398768	-4.2557266624	 0.086725
H	-0.7136488201	-1.6302756271	-4.1169781415	 0.090598
H	-1.120603752	-0.0480904948	-2.2945598194	 0.095185
77.0204	104.9534	182.2749	208.8652	282.4949	340.6021	385.6501	439.7888	485.2649	523.8526	594.3539	722.7536	750.5712	819.0027	822.0145	910.6056	927.1562	958.1593	982.8155	991.0319	1016.3595	1022.8385	1106.983	1113.5445	1144.2128	1166.1678	1179.7117	1185.2798	1217.1093	1220.5206	1248.6316	1270.9014	1317.1938	1339.5194	1367.3443	1393.9958	1422.0664	1453.1744	1477.8641	1482.0904	1490.0051	1509.9317	1709.1041	2928.9567	2971.6007	3016.966	3055.4217	3105.9153	3111.5678	3117.9824	3136.7043	3151.8295	3176.4299	3479.8128
COC1CC2NC2C=C1	CO[C@H]1C[C@H]2N[C@H]2C=C1	
InChI=1S/C7H11NO/c1-9-5-2-3-6-7(4-5)8-6/h2-3,5-8H,4H2,1H3	InChI=1S/C7H11NO/c1-9-5-2-3-6-7(4-5)8-6/h2-3,5-8H,4H2,1H3/t5-,6+,7-/m1/s1
