18
gdb 33464	2.53914	1.32031	1.07918	4.7337	75.87	-0.253	0.0266	0.2796	1171.179	0.147967	-401.9242	-401.915709	-401.914765	-401.958006	31.043	
N	 0.1727318297	-1.1223205773	-0.136740027	-0.353274
C	 0.1125385187	 0.0314916195	-0.0719336267	 0.238291
C	 0.0271755851	 1.470148937	 0.0009340529	 0.16985
C	 0.4381836828	 2.1087746392	 1.3236903918	-0.294228
C	 1.3466595675	 2.2226727608	 0.1392313224	-0.294226
C	-1.093653896	 2.1016081688	-0.798026847	-0.102109
C	-1.2824615348	 1.7239120708	-2.2867976384	-0.095331
O	-2.6867556474	 1.4749165758	-2.0802561328	-0.268376
C	-2.5380856568	 1.5664579528	-0.6497953476	-0.095333
H	-0.1286055619	 2.9805062092	 1.6311030458	 0.132022
H	 0.7266356431	 1.4464210682	 2.1306675301	 0.145674
H	 2.2587107042	 1.6385026028	 0.1331677168	 0.145674
H	 1.4119976781	 3.1736561938	-0.3775182125	 0.132022
H	-1.0460564589	 3.1844049998	-0.6573689933	 0.086561
H	-1.1050853274	 2.5124364304	-3.0261666238	 0.107103
H	-0.7452699804	 0.8150336307	-2.5891415827	 0.119289
H	-2.6029290113	 0.5820856552	-0.1672471518	 0.11929
H	-3.2741462543	 2.2404396325	-0.198283506	 0.107103
66.7905	83.5006	157.8899	175.9584	233.9466	263.3014	365.9511	423.2975	568.5207	595.8071	616.2547	772.6704	814.0916	877.392	886.0526	907.6533	952.4993	957.3946	984.3207	1037.6697	1046.221	1061.2815	1071.6337	1096.8366	1121.7968	1160.2716	1176.316	1195.6736	1258.2449	1260.7093	1311.6124	1318.8318	1363.1953	1404.1587	1468.4747	1497.0398	1509.4377	1536.152	2347.7321	3009.0056	3019.3529	3059.7957	3066.9009	3083.0792	3144.2648	3147.5079	3230.1239	3243.6024
N#CC1(CC1)C1COC1	N#CC1(CC1)C1COC1	
InChI=1S/C7H9NO/c8-5-7(1-2-7)6-3-9-4-6/h6H,1-4H2	InChI=1S/C7H9NO/c8-5-7(1-2-7)6-3-9-4-6/h6H,1-4H2
