20
gdb 6991	2.55714	2.21119	1.68261	1.2207	70.06	-0.2442	0.0793	0.3235	900.8334	0.175761	-386.1553	-386.14657	-386.145625	-386.188102	32.75	
C	 0.4351336004	 1.500019881	-0.444270694	-0.414986
C	-0.0786821956	 0.1907110782	 0.1472501203	 0.110146
O	-0.0352944024	-0.852703917	-0.832325189	-0.27924
C	 1.1195349142	-1.6384224467	-0.5926619281	 0.013511
O	 1.7506380651	-1.1429133537	 0.5612581822	-0.285881
C	 0.75903152	-0.411009093	 1.3045213099	 0.354107
C	 1.4972784622	 0.585920064	 2.1886071086	-0.437718
C	-0.0929828731	-1.3720380751	 2.1466779433	-0.429953
H	 1.494500001	 1.4243387848	-0.70664732	 0.127038
H	-0.1264668241	 1.7294876836	-1.3538263204	 0.123902
H	 0.3075812311	 2.3319622018	 0.2556267233	 0.112977
H	-1.1274572163	 0.3030871905	 0.4444917631	 0.080675
H	 0.8042470921	-2.6872526409	-0.46942009	 0.091588
H	 1.8297396156	-1.5680923523	-1.4282549085	 0.102577
H	 2.1792414912	 1.2055417731	 1.6035524654	 0.126539
H	 0.789538129	 1.2368058632	 2.7110442506	 0.116449
H	 2.084840037	 0.0519514634	 2.9409853113	 0.124815
H	 0.5499571997	-1.9692360703	 2.7993072447	 0.121024
H	-0.7991907095	-0.8163684174	 2.7719507783	 0.113689
H	-0.6678811676	-2.0492978772	 1.5089386991	 0.12874
70.3385	144.8661	211.7931	236.6002	262.169	272.5364	324.2675	339.1404	370.3045	429.3486	513.9426	624.681	738.5196	771.3888	848.8872	887.134	929.9194	960.9651	997.6329	1013.2387	1053.7464	1071.7616	1122.7609	1139.6247	1158.9504	1198.0127	1202.3545	1225.4637	1278.5311	1329.4642	1381.4107	1397.8711	1404.0476	1416.6573	1432.7034	1474.6298	1482.8509	1490.6835	1495.7924	1502.5741	1511.0962	1560.6405	2966.628	3016.7449	3038.7749	3039.8137	3043.668	3048.9255	3109.8312	3112.2903	3116.3521	3120.2113	3122.4631	3135.2906
CC1OCOC1(C)C	C[C@H]1OCOC1(C)C	
InChI=1S/C6H12O2/c1-5-6(2,3)8-4-7-5/h5H,4H2,1-3H3	InChI=1S/C6H12O2/c1-5-6(2,3)8-4-7-5/h5H,4H2,1-3H3/t5-/m1/s1
