25
gdb 58244	2.73132	0.94974	0.87041	1.4561	89.2	-0.2543	0.0715	0.3258	1531.6724	0.226617	-389.486391	-389.475089	-389.474144	-389.523009	41.66	
C	 0.2595746004	 1.4809263101	-0.1194198622	-0.408646
C	-0.0085476089	-0.0254083792	 0.0123064652	 0.045706
C	 0.7490630674	-0.6050474847	 1.2142955526	-0.397508
C	-1.5165644923	-0.3595471606	 0.1245103516	 0.124165
O	-2.1068204195	 0.2599695157	 1.2721076259	-0.446479
C	-2.299657168	-0.0513705413	-1.13418372	-0.03661
C	-2.4209509655	-1.0694507783	-2.2464463194	-0.303113
C	-3.634788198	-0.6988836725	-1.4298228142	-0.002411
C	-4.2912737317	-1.6922474787	-0.4948179436	-0.400034
H	 1.3336230914	 1.6739706282	-0.2019469693	 0.114711
H	-0.2178857688	 1.915127568	-1.0033664769	 0.11161
H	-0.0991335207	 2.0198597933	 0.7648649384	 0.112055
H	 0.3513564341	-0.5196550075	-0.9004689753	 0.072418
H	 0.3582748473	-0.1849178583	 2.1460046524	 0.129152
H	 0.6384441104	-1.6937031023	 1.2669069212	 0.105399
H	 1.8187283104	-0.3791089487	 1.1562248511	 0.102833
H	-1.5910478309	-1.4334802637	 0.3308581154	 0.074048
H	-2.3027335183	 1.1737832512	 1.0420972388	 0.278047
H	-2.2131265219	 0.9835484163	-1.4603805322	 0.074683
H	-2.3453166511	-0.7332245572	-3.2748011477	 0.107476
H	-1.9862437364	-2.0493229798	-2.0701244405	 0.108666
H	-4.3439619321	-0.0448926189	-1.9319152463	 0.080209
H	-3.5703271956	-2.400667838	-0.0777570369	 0.117484
H	-4.7770761452	-1.1863200531	 0.3456626655	 0.125284
H	-5.0507951065	-2.2758119699	-1.0265681535	 0.110856
41.3083	75.4841	108.3345	175.2554	196.341	205.2624	236.1411	246.8776	267.7342	283.4377	347.2061	377.0514	409.1396	443.0127	545.1222	622.2404	774.4014	810.0942	846.0017	860.1557	905.7149	927.3368	944.7524	965.3069	998.9584	1025.1891	1036.4423	1068.1028	1104.7346	1106.4961	1114.6125	1149.8176	1177.4115	1195.3197	1203.8298	1239.363	1276.3174	1305.8372	1344.8752	1365.5404	1396.2024	1399.2689	1410.5769	1418.213	1424.252	1438.1497	1488.3779	1489.4524	1494.2878	1497.3925	1501.7646	1509.9375	1515.0755	3014.1037	3030.2186	3032.5453	3034.1	3041.5186	3095.0887	3095.5173	3097.5918	3101.9699	3107.2623	3113.2724	3117.8053	3122.9835	3134.5184	3206.7429	3818.466
CC(C)C(O)C1CC1C	CC(C)[C@@H](O)[C@H]1C[C@H]1C	
InChI=1S/C8H16O/c1-5(2)8(9)7-4-6(7)3/h5-9H,4H2,1-3H3	InChI=1S/C8H16O/c1-5(2)8(9)7-4-6(7)3/h5-9H,4H2,1-3H3/t6-,7+,8-/m1/s1
