13
gdb 13649	5.82981	0.91972	0.8378	4.6633	73.89	-0.2824	-0.0581	0.2244	1289.4624	0.094169	-361.428584	-361.420699	-361.419755	-361.461447	27.371	
C	-0.1298280988	 1.5006971026	-0.1331128779	-0.429124
C	-0.0184203714	 0.0126371395	 0.0509616146	 0.097991
O	 1.2649924764	-0.5808856699	-0.121114005	-0.227042
C	 0.6903565033	-0.6204620005	 1.1932160744	-0.195014
C	 1.3340870176	 0.1557898289	 2.2141116261	 0.133675
C	 1.8643949587	 0.782531943	 3.1014235962	 0.077131
C	 2.4627122742	 1.4969407486	 4.0983648417	 0.208048
N	 2.9691236801	 2.1074043486	 4.9473141132	-0.330285
H	 0.6937215224	 2.0217695835	 0.3593959826	 0.145425
H	-0.1096197462	 1.7468253971	-1.19930813	 0.141567
H	-1.0761657316	 1.8644159662	 0.2798666297	 0.135015
H	-0.832403149	-0.5792401369	-0.3718159913	 0.109106
H	 0.3665938741	-1.6100013108	 1.5148968956	 0.133507
77.1182	99.3639	177.2107	198.5677	253.8222	345.3792	401.0134	479.5356	546.4905	576.8837	596.0555	734.4721	789.4068	848.8329	960.9611	1011.8417	1070.8586	1137.9877	1160.5313	1201.2655	1284.2636	1377.8293	1413.2049	1442.9286	1482.3987	1496.5401	2264.7685	2395.826	3045.5798	3095.1718	3111.5521	3117.5471	3140.0008
CC1OC1C#CC#N	C[C@H]1O[C@H]1C#CC#N	
InChI=1S/C6H5NO/c1-5-6(8-5)3-2-4-7/h5-6H,1H3	InChI=1S/C6H5NO/c1-5-6(8-5)3-2-4-7/h5-6H,1H3/t5-,6+/m1/s1
