19
gdb 52738	2.61561	0.92683	0.81735	2.7827	81.8	-0.2468	-0.0387	0.208	1517.0064	0.1553	-423.013014	-423.002159	-423.001215	-423.051021	37.293	
C	-0.0107127781	 1.5369306888	-0.0716070603	-0.499195
C	 0.0269717865	 0.0823725153	-0.0456107703	 0.108182
C	 0.0779766596	-1.120893382	-0.0361579192	 0.04281
C	 0.0780311481	-2.5821244166	-0.0279909491	-0.279973
C	-1.3622520446	-3.0118600988	 0.26647357	 0.164643
O	-2.0606641715	-3.6506138641	-0.4818392142	-0.25684
C	 0.6558777718	-3.2119571573	-1.3293777259	 0.140119
C	 0.912503963	-4.7149241051	-1.1711626884	-0.422889
O	-0.1532104252	-2.9208680639	-2.4496944448	-0.4366
H	 0.7118973203	 1.968575733	 0.6294292384	 0.149752
H	 0.2240089069	 1.9179694995	-1.0713080487	 0.157083
H	-1.0034622996	 1.9115297992	 0.2007365243	 0.152075
H	 0.6806838059	-2.9282251157	 0.8268473409	 0.116978
H	-1.7492195977	-2.656043332	 1.2444389703	 0.106953
H	 1.6104818177	-2.7108000492	-1.5229786154	 0.097136
H	-0.0125145658	-5.2550636417	-0.9501364639	 0.130974
H	 1.3233386441	-5.1091302242	-2.1040698758	 0.127775
H	 1.6305539219	-4.9140338366	-0.3679517129	 0.108093
H	-1.0133894135	-3.3243293386	-2.2731648349	 0.292924
13.3902	59.0679	80.5016	121.2726	164.8953	213.7715	241.647	258.5758	291.3899	333.215	382.889	450.8966	469.1057	512.1543	548.0682	721.0859	764.7095	837.2431	912.2441	942.6248	1026.9844	1050.7166	1052.4192	1067.8934	1090.0967	1152.1588	1170.4117	1250.8584	1274.594	1345.2091	1354.5208	1401.9453	1413.8594	1422.9625	1450.4444	1476.5166	1477.3287	1492.896	1504.0421	1810.731	2365.5289	2914.2285	2985.0194	3029.1492	3037.6167	3050.7259	3090.4713	3092.8848	3109.385	3126.8399	3761.5778	13.3588	59.0683	80.5015	121.273	164.8954	213.7714	241.6467	258.5757	291.3899	333.215	382.8892	450.8967	469.1057	512.1543	548.0682	721.0859	764.7095	837.243	912.2441	942.6248	1026.9845	1050.7168	1052.4194	1067.8934	1090.0967	1152.1589	1170.4117	1250.8584	1274.594	1345.2091	1354.5209	1401.9454	1413.8598	1422.9623	1450.4442	1476.5173	1477.3293	1492.8962	1504.0422	1810.7312	2365.529	2914.2285	2985.0194	3029.1492	3037.6167	3050.7259	3090.4712	3092.8848	3109.385	3126.84	3761.5782
CC#CC(C=O)C(C)O	CC#C[C@@H](C=O)[C@@H](C)O	
InChI=1S/C7H10O2/c1-3-4-7(5-8)6(2)9/h5-7,9H,1-2H3	InChI=1S/C7H10O2/c1-3-4-7(5-8)6(2)9/h5-7,9H,1-2H3/t6-,7+/m1/s1
