17
gdb 28094	4.27165	0.86939	0.77439	1.3586	78.18	-0.1845	-0.0349	0.1496	1441.8195	0.135655	-418.036119	-418.027169	-418.026225	-418.071094	32.331	
N	-0.1422357199	 1.4236572591	 0.0659509029	-0.603029
C	-0.0341137069	 0.0219456304	 0.0273585092	 0.244578
C	-1.0651126134	-0.8942480946	-0.0069309755	-0.190071
N	-0.5143847816	-2.1639953812	 0.082338072	 0.027318
C	-1.2601752038	-3.3855103675	-0.0614194464	-0.26475
C	-1.6468023723	-3.676983019	-1.5125601445	 0.147458
O	-2.5491369093	-4.4054262651	-1.8254773343	-0.227626
C	 0.8479033292	-2.0536175597	 0.1427605134	-0.088712
C	 1.1806466406	-0.7181621926	 0.1205953948	-0.236669
H	 0.6310099781	 1.8805808469	-0.4003912368	 0.240846
H	-1.0087689343	 1.759888603	-0.3341203897	 0.238629
H	-2.1335947461	-0.7574281095	-0.0573379258	 0.110108
H	-0.6485349355	-4.2220775956	 0.2972736719	 0.147406
H	-2.1700379791	-3.3678618207	 0.5475260906	 0.146783
H	-1.00596534	-3.1606828056	-2.2624173834	 0.099479
H	 1.4687343958	-2.9337619778	 0.2038639103	 0.117306
H	 2.1772387585	-0.3089451204	 0.1897431712	 0.090944
34.8205	67.3261	99.1245	191.0922	267.0105	285.7158	361.924	416.7457	432.2588	603.9805	615.9046	644.3422	660.3565	714.8479	727.9215	765.3295	787.1979	793.6968	995.0937	1011.0871	1032.1723	1060.5493	1089.4181	1114.9953	1205.7855	1216.9985	1300.0156	1328.1522	1384.315	1405.2813	1432.6819	1447.9024	1449.02	1542.988	1623.7021	1659.35	1840.1344	2888.5483	3041.9274	3091.1195	3240.382	3255.2464	3262.0168	3534.4555	3622.7106
NC1=CN(CC=O)C=C1	Nc1cn(CC=O)cc1	
InChI=1S/C6H8N2O/c7-6-1-2-8(5-6)3-4-9/h1-2,4-5H,3,7H2	InChI=1S/C6H8N2O/c7-6-1-2-8(5-6)3-4-9/h1-2,4-5H,3,7H2
