17
gdb 49253	3.22551	1.25975	0.91744	2.7433	79.53	-0.2307	-0.0538	0.1769	1224.7049	0.137262	-418.022243	-418.014011	-418.013067	-418.055888	30.003	
O	-0.9217426192	 1.0865459321	 0.0218632826	-0.280462
C	 0.224936397	 0.9003274391	 0.3526465238	 0.158654
C	 1.377682461	 1.7564004682	-0.110439345	 0.26003
N	 2.504199195	 1.3876931986	 0.371627189	-0.305887
C	 3.785991526	 1.9701580196	 0.0798816964	-0.213324
C	 3.9806024137	 3.2097081938	-0.7446094099	-0.052867
C	 3.1074510984	 4.0010331817	-1.3603239104	-0.06562
C	 1.6170534244	 3.9287673406	-1.435487393	-0.21011
N	 0.9642449996	 2.7223280184	-0.9765408034	-0.34961
H	 0.5440638814	 0.0851727215	 1.0271123648	 0.110573
H	 4.2860872472	 2.1420904927	 1.0471332031	 0.127726
H	 4.3960010732	 1.1714577804	-0.3754483709	 0.130151
H	 5.0322374658	 3.4850240207	-0.8244519974	 0.089916
H	 3.4981099507	 4.8694450605	-1.8868759046	 0.094728
H	 1.2138845838	 4.7989073361	-0.8877677974	 0.125685
H	 1.3221144226	 4.0883643891	-2.4828345564	 0.125226
H	-0.0431350006	 2.7045065267	-1.0863904914	 0.255191
56.4577	85.6449	133.3482	224.9856	306.659	365.4786	375.9294	405.7432	563.4986	585.2853	635.1859	679.6713	752.4351	789.4864	886.9093	922.9417	945.0914	964.2478	1007.2875	1017.2901	1032.9793	1116.0041	1161.4842	1256.1018	1272.337	1277.1001	1302.1826	1364.5002	1366.107	1408.1119	1431.8551	1444.4716	1491.4719	1584.1236	1752.1474	1767.0144	1807.484	2949.289	2971.6344	2981.8163	2984.6607	3005.4937	3121.2097	3152.2266	3545.5666
O=CC1=NCC=CCN1	O=CC1=NCC=CCN1	
InChI=1S/C6H8N2O/c9-5-6-7-3-1-2-4-8-6/h1-2,5H,3-4H2,(H,7,8)	InChI=1S/C6H8N2O/c9-5-6-7-3-1-2-4-8-6/h1-2,5H,3-4H2,(H,7,8)
