22
gdb 103855	3.03166	0.92464	0.85226	2.6131	83.22	-0.2417	0.071	0.3128	1486.945	0.192684	-404.30646	-404.296499	-404.295555	-404.341894	36.735	
C	 0.1072517255	 1.507022297	 0.1101039406	-0.385256
C	-0.0255184843	 0.0087548231	 0.409428705	-0.222731
C	-1.3966734361	-0.5562143226	 0.0603396142	 0.327255
C	-2.5510971293	-0.0142275331	 0.8844910586	-0.466986
N	-1.6194305841	-0.7732422556	-1.3814065497	-0.374927
C	-1.5464201954	-1.9408982773	-0.4825898709	-0.0963
C	-0.4254560181	-2.9028778535	-0.7060203296	 0.080501
C	-0.2525969304	-4.084249102	 0.1499299105	-0.181493
O	-0.8074187781	-4.2089085822	-1.15868171	-0.237468
H	 1.1267194039	 1.8525832983	 0.3058833576	 0.112153
H	-0.1223912279	 1.7056694927	-0.941302024	 0.131693
H	-0.5667417948	 2.1111749119	 0.7253687886	 0.113555
H	 0.7388951769	-0.5303383005	-0.1563347977	 0.1024
H	 0.1770635798	-0.1824049492	 1.471380908	 0.09316
H	-2.6788878705	 1.0623953393	 0.7295756737	 0.126118
H	-3.4920970041	-0.5046012615	 0.6153823259	 0.113715
H	-2.3826525384	-0.1763194084	 1.9550573259	 0.122462
H	-2.5852257293	-0.5802034488	-1.6350614125	 0.227792
H	-2.4783561516	-2.4502462123	-0.2385643872	 0.084543
H	 0.4466527344	-2.4978334705	-1.2158378087	 0.106107
H	 0.7385502542	-4.515076894	 0.2862583695	 0.114487
H	-0.9482416824	-4.2575526006	 0.9708070523	 0.10922
50.3852	70.134	134.8579	149.3035	220.4712	228.6179	271.1792	326.045	372.5279	382.271	398.9448	493.8554	584.9892	693.5401	780.8524	815.2038	853.6691	870.3861	902.3654	955.8025	980.8907	993.4778	1010.1388	1032.8936	1078.742	1097.1984	1101.5471	1134.8488	1149.742	1157.3574	1170.4896	1236.2655	1273.8108	1288.3048	1315.0963	1335.662	1367.9762	1395.4066	1406.1176	1415.9568	1473.9549	1483.2786	1490.9071	1502.5247	1507.6456	1510.767	1531.2408	3026.0054	3030.1626	3039.5287	3077.8929	3084.9409	3094.3383	3099.9351	3109.009	3111.7407	3114.9586	3131.4254	3163.8262	3497.0959
CCC1(C)NC1C1CO1	CC[C@@]1(C)N[C@H]1[C@H]1CO1	
InChI=1S/C7H13NO/c1-3-7(2)6(8-7)5-4-9-5/h5-6,8H,3-4H2,1-2H3	InChI=1S/C7H13NO/c1-3-7(2)6(8-7)5-4-9-5/h5-6,8H,3-4H2,1-2H3/t5-,6+,7-/m1/s1
