13
gdb 28742	6.69794	0.87085	0.77711	3.722	63.36	-0.2422	-0.0267	0.2156	1354.3474	0.088942	-489.924518	-489.916417	-489.915473	-489.958239	27.973	
N	 0.0565157503	 1.3536121832	-0.1005914293	-0.602707
C	-0.1014646036	-0.0165430963	 0.0085204465	 0.279278
C	-1.1740597299	-0.8236878601	 0.1593531638	-0.11361
N	-0.7719248649	-2.1569484604	 0.2466369237	-0.371767
C	 0.5109441274	-2.0810203178	 0.1289916711	 0.502602
O	 1.4226065554	-3.0711969391	 0.1391300051	-0.221682
C	 0.9740745343	-4.3578434537	-0.1079813359	 0.170256
O	 1.7181187276	-5.2782758071	-0.0242535984	-0.240233
O	 1.0285768356	-0.8597969928	-0.0151992512	-0.201102
H	 0.5398288989	 1.7663472875	 0.6904482113	 0.256664
H	 0.528414902	 1.6344312843	-0.9535797044	 0.255913
H	-2.2113303594	-0.5373691758	 0.2201939047	 0.137325
H	-0.0906167438	-4.379071452	-0.3749674571	 0.149062
48.4375	110.2186	138.0165	164.2924	238.8328	336.2522	390.8708	465.8961	555.9069	626.7058	707.5555	744.5569	750.4183	848.3134	872.117	931.3784	1029.2357	1042.3249	1085.3949	1159.4941	1197.7716	1216.4321	1284.9122	1392.8272	1410.6626	1614.9246	1654.8033	1707.016	1887.0798	3072.7873	3276.3322	3504.9188	3574.3947
NC1=CN=C(OC=O)O1	Nc1cnc(OC=O)o1	
InChI=1S/C4H4N2O3/c5-3-1-6-4(9-3)8-2-7/h1-2H,5H2	InChI=1S/C4H4N2O3/c5-3-1-6-4(9-3)8-2-7/h1-2H,5H2
