16
gdb 49765	3.41594	1.31404	0.99887	3.3376	83.44	-0.2	-0.059	0.1409	1146.4105	0.125941	-400.783721	-400.77614	-400.775195	-400.816105	28.758	
O	-0.0996925124	-0.0853070366	 0.6235647478	-0.326305
C	-0.0920705418	 1.1005096567	 0.3805232151	 0.149137
N	 0.9790014363	 1.7812515478	-0.1563759292	-0.116068
C	 2.210180926	 1.0818577861	-0.2934391728	-0.002869
C	 3.1561365769	 1.3367773812	-1.2023111993	-0.121106
C	 3.150385391	 2.3688591013	-2.231236763	-0.106614
C	 2.4604090738	 3.522740289	-2.193754789	-0.117585
C	 1.5849197402	 3.9609859333	-1.1149267574	-0.106815
C	 0.9472640402	 3.1990296129	-0.2198591159	-0.023892
H	-0.9516722213	 1.7706754986	 0.5679396714	 0.081192
H	 2.3089792239	 0.2700037426	 0.4180632476	 0.143089
H	 4.0305550375	 0.6930365636	-1.1684996863	 0.108496
H	 3.8103472422	 2.1941405007	-3.076812138	 0.103913
H	 2.5938759577	 4.2287721008	-3.0088464259	 0.102709
H	 1.43439921	 5.0325802214	-1.0177898186	 0.106756
H	 0.3360012296	 3.6618206905	 0.5494302135	 0.12596
61.2086	188.2742	212.1062	281.2621	314.9465	368.2285	444.8028	450.4628	581.5272	630.5237	747.1607	763.5975	797.718	846.8895	858.8211	917.8456	940.3229	957.7553	967.3145	991.0556	1008.0291	1020.7618	1183.8072	1242.7425	1259.8907	1285.4136	1344.8098	1386.4533	1438.2725	1446.3406	1462.9339	1672.1963	1680.5321	1732.0431	1796.5306	2959.2978	3150.9917	3159.4002	3167.1357	3175.5264	3182.2843	3204.572
O=CN1C=CC=CC=C1	O=CN1C=CC=CC=C1	
InChI=1S/C7H7NO/c9-7-8-5-3-1-2-4-6-8/h1-7H	InChI=1S/C7H7NO/c9-7-8-5-3-1-2-4-6-8/h1-7H
