21
gdb 103457	2.48841	1.35648	1.13652	1.3592	78.98	-0.2295	0.0721	0.3015	1183.4026	0.180979	-424.188003	-424.178397	-424.177453	-424.221793	36.818	
C	-0.0551569761	 1.5800113205	 0.1164863107	-0.477906
C	 0.0183996603	 0.0635621326	 0.104673074	 0.30385
C	-1.2397369167	-0.5841886559	-0.4442167032	-0.141906
O	-1.3895759668	-0.1743427626	-1.8017655896	-0.428902
C	 1.2744911902	-0.7242854774	-0.2623924184	-0.16341
C	 2.5387891408	-0.0395591311	 0.2637244636	-0.24609
C	 1.9564158683	-0.0836495992	 1.7152678142	-0.301336
C	 0.6927748465	-0.7541727702	 1.1656032285	 0.326497
O	-0.0355808151	-1.7066913484	 1.8621074343	-0.457971
H	 0.8769212971	 2.0477879146	 0.4392494106	 0.112045
H	-0.2924403285	 1.947487878	-0.8853608746	 0.135908
H	-0.8471988955	 1.9200569363	 0.7944279088	 0.110468
H	-1.1690961359	-1.6764272882	-0.3639150329	 0.092305
H	-2.1054816204	-0.2676935487	 0.1584510312	 0.087464
H	-2.2427634681	-0.4907317088	-2.1121928211	 0.284559
H	 1.2381508793	-1.4573148227	-1.0595464201	 0.088332
H	 3.4332486069	-0.6575918804	 0.1572018858	 0.099312
H	 2.7581857949	 0.9530743125	-0.1406082564	 0.102078
H	 2.5246839851	-0.7644198587	 2.3569016317	 0.092098
H	 1.8273557994	 0.8631566626	 2.2490354201	 0.100315
H	 0.5661774343	-2.4112127251	 2.1272495628	 0.28229
87.0001	163.7693	169.7	203.7618	247.4963	263.6203	278.1435	318.0548	332.6363	367.4263	432.1604	495.387	520.0235	673.5685	684.6837	731.8508	800.5446	899.0415	933.4871	944.6877	964.6943	976.336	1002.9221	1048.0875	1061.6354	1088.6889	1102.2796	1131.5241	1199.7312	1207.458	1210.8559	1232.6225	1252.8318	1268.2199	1285.3555	1316.8375	1324.9327	1412.4483	1457.2367	1459.0243	1473.7343	1497.6858	1508.2788	1512.0138	1520.212	2979.0346	3034.6207	3035.8825	3042.8048	3054.2686	3084.9652	3102.5402	3106.4134	3132.0692	3183.3676	3790.4799	3831.5507
CC1(CO)C2CCC12O	C[C@@]1(CO)[C@H]2CC[C@@]12O	
InChI=1S/C7H12O2/c1-6(4-8)5-2-3-7(5,6)9/h5,8-9H,2-4H2,1H3	InChI=1S/C7H12O2/c1-6(4-8)5-2-3-7(5,6)9/h5,8-9H,2-4H2,1H3/t5-,6-,7+/m1/s1
