22
gdb 122650	5.11103	0.65024	0.60826	1.3988	83.61	-0.2464	0.0232	0.2696	1885.9451	0.194813	-404.373858	-404.364182	-404.363238	-404.409842	34.472	
C	-0.0442462724	 1.5596322822	-0.0603890464	-0.379274
C	 0.0453815846	 0.0315440166	-0.026843581	-0.165904
C	 0.7161097766	-0.5020344351	 1.2432942178	-0.159129
C	 0.804617727	-2.0300745181	 1.2827985657	-0.192182
C	 1.4986409009	-2.5723971015	 2.5367501283	 0.008799
C	 1.5652268437	-4.1244887648	 2.593296949	-0.125322
O	 2.9775398187	-4.4200548926	 2.7285044999	-0.221588
C	 3.5953630552	-3.2156147369	 2.6958524893	 0.123321
N	 2.916412802	-2.1518179958	 2.6012573241	-0.268799
H	 0.9509329272	 2.0145726974	-0.0059725886	 0.116027
H	-0.5227716236	 1.9130950906	-0.9792005554	 0.10912
H	-0.6266248241	 1.9407160311	 0.7860386069	 0.112342
H	-0.9622961839	-0.3968385479	-0.1158552585	 0.089634
H	 0.6020066115	-0.3217679053	-0.9051323593	 0.094191
H	 1.7261067657	-0.0867454372	 1.3342687628	 0.121456
H	 0.1602322093	-0.1485379332	 2.1233495909	 0.087494
H	-0.2043371102	-2.4628415694	 1.2299347627	 0.09107
H	 1.3475739015	-2.395681595	 0.4006208549	 0.097305
H	 0.9874361142	-2.171885081	 3.4214702136	 0.08676
H	 1.0434638435	-4.5599203432	 3.4488517419	 0.119417
H	 1.205244187	-4.5993596084	 1.6746483543	 0.115111
H	 4.6768541657	-3.2699753024	 2.7598880874	 0.140149
50.3024	67.1872	83.1121	119.6626	152.7698	241.9713	274.5219	291.8861	385.1669	450.6392	588.1377	722.0585	738.5004	789.0022	849.9278	875.8936	905.6961	922.9162	963.0372	963.884	989.3311	1008.9837	1044.9166	1071.9199	1084.8146	1132.694	1139.5613	1167.3959	1221.3683	1244.206	1271.6628	1302.7299	1315.4553	1326.5388	1333.7898	1347.2786	1377.6409	1386.9162	1400.9715	1413.4306	1478.8378	1487.1063	1499.1657	1499.8881	1513.3043	1518.3493	1708.7707	3003.7404	3006.9791	3013.9193	3016.9323	3029.1578	3038.3356	3045.7664	3047.2556	3076.7406	3096.0732	3100.6219	3102.071	3212.0588
CCCCC1COC=N1	CCCC[C@H]1COC=N1	
InChI=1S/C7H13NO/c1-2-3-4-7-5-9-6-8-7/h6-7H,2-5H2,1H3	InChI=1S/C7H13NO/c1-2-3-4-7-5-9-6-8-7/h6-7H,2-5H2,1H3/t7-/m0/s1
