19
gdb 61493	3.12993	0.76417	0.74868	3.1504	78.67	-0.25	-0.0217	0.2282	1594.8002	0.15466	-422.996982	-422.986248	-422.985304	-423.033897	37.671	
C	-1.443350489	-0.1150716421	 0.1079444378	-0.408775
C	 0.0615704543	 0.134306535	-0.0053545275	-0.071706
C	 0.8512424375	-0.4700167897	 1.1807712313	-0.217385
C	 2.2405843353	 0.1686473481	 1.4010645553	-0.07258
O	 2.1521158537	 1.5830553452	 1.5611747105	-0.411259
C	 2.9259805659	-0.4613635002	 2.5320130441	 0.29415
C	 3.4483743048	-0.9642387901	 3.4907977689	-0.431842
C	 0.6113105009	-0.3704367139	-1.3257930835	 0.156363
O	-0.052275034	-0.8500535497	-2.2098712782	-0.245285
H	-1.84356131	 0.3505454961	 1.0133031276	 0.109012
H	-1.970930353	 0.2912298228	-0.7577149006	 0.133796
H	-1.6613419077	-1.1868648882	 0.1478901476	 0.126523
H	 0.2632886314	 1.2158558899	 0.0108299641	 0.118848
H	 0.2679714099	-0.3270471839	 2.0981316145	 0.108051
H	 0.9712642519	-1.5532254513	 1.0593261756	 0.119978
H	 2.8525962201	 0.0341352039	 0.5014309786	 0.124884
H	 1.8187564282	 1.754485075	 2.4493144877	 0.288098
H	 3.9301221011	-1.4095991631	 4.3263307277	 0.204351
H	 1.7149989386	-0.2703040638	-1.4457363915	 0.074776
38.0502	55.6097	96.2693	124.3869	188.4965	196.5914	235.317	288.5577	308.3213	336.1965	362.4636	437.6709	537.05	569.1614	638.4852	657.4744	679.1161	810.502	831.6964	917.7978	924.2135	965.4069	1008.2239	1070.5145	1111.277	1131.0996	1144.9129	1195.8093	1273.5435	1279.6219	1337.1883	1350.1397	1380.9486	1410.4334	1418.6296	1438.0242	1478.084	1489.4743	1496.927	1826.337	2233.8407	2860.138	3009.2279	3030.7213	3044.6152	3045.9416	3076.1678	3111.9964	3129.9695	3502.0881	3803.1662
CC(CC(O)C#C)C=O	C[C@@H](C[C@@H](O)C#C)C=O	
InChI=1S/C7H10O2/c1-3-7(9)4-6(2)5-8/h1,5-7,9H,4H2,2H3	InChI=1S/C7H10O2/c1-3-7(9)4-6(2)5-8/h1,5-7,9H,4H2,2H3/t6-,7-/m0/s1
