18
gdb 36328	5.38658	0.74876	0.69433	3.8738	82.75	-0.2733	0.0257	0.299	1571.2528	0.146967	-364.786265	-364.777235	-364.776291	-364.82075	33.124	
C	-0.4693541522	-1.0107665805	-0.604954415	-0.437858
C	-0.2982618156	 0.1565684678	-0.3751761327	 0.298064
C	-0.0492823787	 1.5646423944	-0.0905196317	-0.368292
C	 1.3811280094	 1.8232165296	 0.4134123342	 0.011284
C	 2.4847034314	 1.6243647865	-0.6633171162	-0.236012
C	 2.5370446885	 3.1747281023	-0.8607847264	-0.129791
C	 1.7538243121	 3.3318854471	 0.4832262228	-0.254538
C	 3.8405254691	 3.8061131107	-0.9654969959	 0.26255
N	 4.884730302	 4.2992992467	-1.0290191694	-0.325646
H	-0.6360261707	-2.0395352612	-0.8086829959	 0.200433
H	-0.2390691882	 2.1579496765	-0.9957856154	 0.128696
H	-0.7643646631	 1.9237975318	 0.6609166395	 0.135398
H	 1.5371404252	 1.2632043443	 1.3374220007	 0.093817
H	 3.4157886911	 1.2414814306	-0.2422252221	 0.128191
H	 2.2222306078	 1.0311556439	-1.5410913065	 0.12607
H	 1.9279625818	 3.4869356381	-1.7132917664	 0.12491
H	 0.9337612941	 4.0538243858	 0.4806428942	 0.11474
H	 2.4225189761	 3.5592094858	 1.3151984523	 0.127985
53.21	74.0623	130.7822	171.0986	219.1943	325.5589	343.0562	355.9208	501.4705	542.9883	551.6726	626.7983	631.4881	646.6247	806.9861	834.8373	865.777	905.5212	946.8247	958.4646	999.0182	1015.4984	1083.3917	1091.0315	1122.7827	1180.326	1225.0196	1244.8142	1256.3907	1273.2558	1283.9138	1327.3294	1351.8092	1380.5086	1470.0396	1478.1264	1496.8134	2238.9508	2352.5833	3011.6299	3043.8221	3071.1087	3074.2232	3079.9494	3090.4549	3131.3816	3139.0295	3505.7271
C#CCC1CC(C1)C#N	C#CC[C@H]1C[C@@H](C1)C#N	
InChI=1S/C8H9N/c1-2-3-7-4-8(5-7)6-9/h1,7-8H,3-5H2	InChI=1S/C8H9N/c1-2-3-7-4-8(5-7)6-9/h1,7-8H,3-5H2/t7-,8-
