22
gdb 30717	2.8299	1.17525	0.89949	1.5535	91.29	-0.1862	0.0535	0.2398	1392.5811	0.193586	-367.271429	-367.261043	-367.260099	-367.307201	37.705	
C	-0.3067245482	 1.5869329931	-0.0609122068	-0.361627
C	 0.0284104925	 0.0851804073	 0.0152113002	-0.299639
C	 0.7970540134	-0.4268397347	-1.1630796721	 0.228139
C	 2.1407851455	-0.7006224382	-1.3371278774	 0.113765
C	 3.231457647	-0.5707127809	-0.3164228931	-0.510664
C	 2.3222864509	-1.136503532	-2.691901354	 0.216841
C	 3.6165875602	-1.5450447746	-3.3265876776	-0.502932
C	 1.0867307135	-1.110194392	-3.292516368	-0.188909
N	 0.1714824398	-0.6780155518	-2.3646826158	-0.308898
H	 0.607343177	 2.1854169234	-0.1177075177	 0.12375
H	-0.904392613	 1.8148953104	-0.9497225355	 0.109479
H	-0.8747668404	 1.9088695494	 0.8181936822	 0.108615
H	 0.6065941986	-0.1096582501	 0.9239882532	 0.112399
H	-0.9037390716	-0.4861444259	 0.1269248405	 0.096229
H	 3.7833598222	-1.5104441652	-0.1893695392	 0.119353
H	 3.9701264442	 0.1904316414	-0.5991486273	 0.119567
H	 2.8381653209	-0.289095866	 0.6646460167	 0.114467
H	 4.0812134416	-2.3902083151	-2.8030938238	 0.118646
H	 3.4681440466	-1.8460489088	-4.3680057168	 0.114609
H	 4.3520908589	-0.7306134362	-3.3216288331	 0.118439
H	 0.7872792734	-1.368827812	-4.2962072841	 0.10723
H	-0.8157823229	-0.5845670015	-2.5258884607	 0.25114
39.2945	99.8232	110.5922	133.27	202.0717	221.8776	240.4579	276.9055	297.5427	373.9664	443.5298	467.4064	560.1894	647.1671	683.9868	710.7699	713.0009	729.1859	784.2305	933.4275	971.092	1003.7404	1035.3794	1049.4848	1072.2913	1080.0063	1114.6851	1131.291	1209.4838	1245.377	1293.2832	1341.5138	1354.3535	1404.6199	1414.4369	1418.5983	1424.7929	1476.0939	1478.6536	1482.6725	1486.5682	1495.6403	1499.3767	1503.6129	1508.3975	1564.3567	1642.8145	3009.3348	3013.3809	3014.8555	3032.7105	3055.2891	3056.9621	3072.1401	3098.857	3100.744	3102.5802	3112.2226	3252.7382	3681.2948
CCC1=C(C)C(C)=CN1	CCc1c(C)c(C)c[nH]1	
InChI=1S/C8H13N/c1-4-8-7(3)6(2)5-9-8/h5,9H,4H2,1-3H3	InChI=1S/C8H13N/c1-4-8-7(3)6(2)5-9-8/h5,9H,4H2,1-3H3
