21
gdb 41914	2.15992	2.10326	1.83767	1.3248	79.9	-0.2249	0.0746	0.2995	928.5318	0.187763	-387.096355	-387.089507	-387.088563	-387.127263	28.93	
C	-0.0150048756	 1.5070190687	-0.1729731775	-0.212165
C	 1.3662231828	 2.1783259445	 0.0469094821	-0.20402
C	 2.3280324029	 1.3646486242	 0.9346597057	-0.046576
C	 1.8112132492	 1.1484188907	 2.3622803183	-0.060648
O	 0.5405878171	 0.5105443595	 2.4146674731	-0.260626
C	 0.284424305	-0.4736453476	 1.4476007646	 0.097503
C	-0.0389213305	-0.002369133	 0.047407568	-0.076937
C	 1.2458710519	-0.7699056219	 0.3249962594	-0.086376
C	 2.5580452647	-0.0150081177	 0.2993864767	-0.227154
H	-0.7475408678	 1.9537271373	 0.5089039916	 0.111006
H	-0.3619312016	 1.7294879152	-1.1870109373	 0.093948
H	 1.8612760655	 2.318121432	-0.9213429586	 0.094728
H	 1.2237630525	 3.1806355896	 0.4654579282	 0.09278
H	 3.2808668764	 1.9021975614	 1.0104450857	 0.069053
H	 2.5540564991	 0.5580463817	 2.9240395476	 0.084901
H	 1.6797574337	 2.1018305754	 2.885115495	 0.100586
H	-0.2878418556	-1.2895318663	 1.878507296	 0.08864
H	-0.8247484885	-0.5345103572	-0.4808509318	 0.077163
H	 1.2817950987	-1.8010301392	-0.0152536558	 0.07944
H	 2.9250569594	 0.0892388855	-0.7292463576	 0.092085
H	 3.3219170807	-0.5675791528	 0.8606940467	 0.092668
129.6663	208.5996	336.7511	357.7824	408.3925	498.5892	501.1571	605.0616	647.098	747.9827	761.3175	778.6612	821.1966	860.2969	894.3531	898.7145	932.9511	951.6056	1001.3067	1029.7684	1057.2771	1069.2597	1089.1909	1093.9446	1117.3351	1128.7997	1151.1656	1203.7472	1222.354	1237.8853	1252.5354	1282.1775	1329.1819	1335.4068	1346.7106	1353.8394	1371.7072	1384.3401	1393.3749	1418.869	1445.0962	1484.4661	1493.9099	1504.2319	1515.7396	2964.0719	3014.2655	3023.5132	3034.7476	3040.2751	3050.4439	3059.6813	3064.8176	3079.6728	3136.2219	3141.0876	3155.8055
C1CC2COC3C1C3C2	C1C[C@H]2CO[C@H]3[C@@H]1[C@H]3C2	
InChI=1S/C8H12O/c1-2-6-7-3-5(1)4-9-8(6)7/h5-8H,1-4H2	InChI=1S/C8H12O/c1-2-6-7-3-5(1)4-9-8(6)7/h5-8H,1-4H2/t5-,6+,7-,8+/m1/s1
