17
gdb 43154	2.58196	1.76993	1.36267	2.9495	73.07	-0.2241	-0.0187	0.2054	977.9748	0.136492	-421.787389	-421.780127	-421.779183	-421.81901	28.657	
O	-0.0009396179	-0.0267752516	-0.0057295448	-0.314566
C	-0.0056198494	 1.1638119665	 0.0410110742	 0.452843
C	-1.069071225	 2.2994409991	 0.0010886551	-0.29623
C	-0.6808808805	 3.0389199024	 1.2928023043	-0.079463
O	 0.7727422193	 3.0156365289	 1.2028570859	-0.278587
C	 1.0041898911	 2.3374384571	-0.0429772501	-0.124541
C	-0.0529204152	 2.9398060059	-0.9794747809	 0.424217
C	-0.0749858152	 2.9444915047	-2.4726394848	-0.349982
C	-0.0768004825	 4.2494593024	-1.6939673947	-0.358315
H	-2.1193885397	 2.1348151211	-0.225967192	 0.096245
H	-1.0294027161	 4.0776178163	 1.3170367864	 0.109787
H	-1.00674801	 2.5240426032	 2.2032195533	 0.115625
H	 2.0664978334	 2.2572089981	-0.2570572044	 0.10132
H	 0.8308196464	 2.6671948999	-3.0021493622	 0.126187
H	-0.9915004156	 2.6499812518	-2.973619372	 0.124588
H	-0.9956257019	 4.8269388118	-1.6744655853	 0.122247
H	 0.8279513187	 4.8480013423	-1.6932587778	 0.128626
114.9613	196.8851	220.1681	251.9443	306.4975	472.5771	502.279	552.308	661.437	673.5924	756.3081	782.9963	827.9018	897.8745	918.8812	944.8228	950.3796	967.7426	987.64	1026.9653	1049.6761	1058.6779	1081.6203	1085.4362	1110.9021	1149.6745	1180.9345	1204.9605	1212.3543	1223.2048	1259.8605	1355.527	1406.7491	1466.2568	1506.4669	1524.2232	1912.4963	3027.4081	3072.3709	3126.9472	3129.785	3158.9	3169.4768	3205.7096	3219.3698
O=C1C2COC1C21CC1	O=C1[C@H]2CO[C@@H]1C12CC1	
InChI=1S/C7H8O2/c8-5-4-3-9-6(5)7(4)1-2-7/h4,6H,1-3H2	InChI=1S/C7H8O2/c8-5-4-3-9-6(5)7(4)1-2-7/h4,6H,1-3H2/t4-,6+/m1/s1
