18
gdb 57982	3.85782	0.78366	0.69781	1.3756	75.8	-0.2469	0.0072	0.2541	1614.9597	0.144615	-439.075255	-439.064729	-439.063784	-439.112486	36.478	
C	 0.1410193347	 1.6029552537	 0.020325312	-0.377847
C	-0.0284270068	 0.075731384	 0.0627472618	-0.085697
N	 0.3018032501	-0.504240791	-1.2317428121	-0.494558
C	 0.8152342394	-0.4940785587	 1.2081640935	 0.440142
O	 1.8531976133	-1.0936075706	 1.0739357245	-0.362481
O	 0.2594607969	-0.2234296581	 2.4081672744	-0.242184
C	 1.0158154747	-0.6881931495	 3.5472682907	-0.23062
C	 0.3117701289	-0.3144380149	 4.7610293962	 0.28635
C	-0.2452005289	-0.0192905412	 5.7827127524	-0.411537
H	 1.183565786	 1.8672643427	-0.188951912	 0.122314
H	-0.4806534407	 2.0120581284	-0.778854114	 0.134179
H	-0.145318439	 2.0564065895	 0.971970277	 0.132891
H	-1.0768525881	-0.1479235301	 0.2890785875	 0.109238
H	 1.3081848107	-0.4359426548	-1.3678242242	 0.235168
H	 0.1083896753	-1.5020770211	-1.2162768983	 0.23137
H	 1.1401440801	-1.7740931983	 3.4766217306	 0.153278
H	 2.0187351351	-0.2490596102	 3.5168960868	 0.153539
H	-0.7396589516	 0.2427461202	 6.6854755631	 0.206455
21.121	49.0394	102.2782	128.4069	203.5329	218.9706	239.8548	283.5312	325.1429	328.4809	350.3145	449.399	545.4516	619.2325	675.5405	685.5502	756.889	862.057	918.7948	932.9326	979.0749	1013.0209	1015.1962	1023.9329	1091.1522	1166.6875	1195.6663	1247.9463	1280.9364	1328.4594	1391.3678	1396.5911	1415.5829	1487.0625	1491.0483	1498.6781	1672.7854	1812.4382	2251.3932	3041.6554	3046.6205	3055.5141	3081.0082	3116.6088	3141.1139	3482.4672	3505.253	3552.9022
CC(N)C(=O)OCC#C	C[C@@H](N)C(=O)OCC#C	
InChI=1S/C6H9NO2/c1-3-4-9-6(8)5(2)7/h1,5H,4,7H2,2H3	InChI=1S/C6H9NO2/c1-3-4-9-6(8)5(2)7/h1,5H,4,7H2,2H3/t5-/m1/s1
