16
gdb 110758	2.27649	1.44688	1.34115	1.7006	67.05	-0.2465	0.007	0.2534	1059.4567	0.122045	-474.962505	-474.953801	-474.952857	-474.996187	31.585	
C	 0.2216619499	 0.9524829759	-0.311406658	-0.243912
O	-0.4298057755	-0.0013497511	 0.514220736	-0.231391
C	 0.434138412	-0.6647600846	 1.359883922	 0.071975
C	 0.1423506261	-2.0457349283	 1.8277594118	-0.063928
O	-0.4597680247	-2.8148246096	 0.7562073316	-0.259298
C	 0.6853320166	-2.686873584	-0.0213120356	 0.378662
N	 1.0258911113	-3.2503478926	-1.0862629925	-0.560887
C	 1.3841634956	-1.7711282526	 0.9347373369	 0.184044
O	 2.7332835281	-1.6645761184	 1.1288106727	-0.436913
H	 0.9713232355	 0.476814598	-0.9569818445	 0.132054
H	-0.5502342118	 1.4122052133	-0.9313017543	 0.135409
H	 0.7143640271	 1.7322880862	 0.2873524583	 0.111965
H	 0.9078461892	-0.0464043232	 2.129966184	 0.109254
H	-0.0121685105	-2.3989206434	 2.8380108196	 0.132618
H	 0.294119574	-3.8729506809	-1.4324044908	 0.236801
H	 3.1244449769	-2.5408505448	 1.0258378329	 0.303549
67.4059	123.2768	152.3771	178.0309	226.3215	277.8216	347.9948	363.7163	466.4087	479.5644	613.4869	658.4841	735.1959	763.5872	840.7232	867.7481	907.9716	920.6147	997.1846	1015.5279	1022.0494	1044.2025	1122.7057	1179.2674	1189.1264	1222.3206	1254.6152	1290.5804	1355.1801	1363.2068	1465.3342	1487.2857	1497.6778	1512.1986	1831.9081	2994.4438	3055.3436	3061.9903	3131.7262	3218.4319	3483.2304	3785.2313
COC1C2OC(=N)C12O	CO[C@H]1[C@H]2O[C]([NH])[C@@]12O	
InChI=1S/C5H7NO3/c1-8-2-3-5(2,7)4(6)9-3/h2-3,6-7H,1H3	InChI=1S/C5H7NO3/c1-8-2-3-5(2,7)4(6)9-3/h2-3,6-7H,1H3/t2-,3+,5+/m0/s1
