16
gdb 126008	1.98642	1.86293	1.00144	4.8778	77.62	-0.2223	-0.0567	0.1656	1135.5031	0.124976	-434.088544	-434.080092	-434.079148	-434.122013	30.554	
C	-0.1142763591	 1.4920776778	 0.1331881771	-0.402279
C	 0.1446001537	-0.0136969149	 0.0721602243	-0.094186
C	 0.9209327503	-0.458241	-1.2012841407	-0.167063
N	 1.7503681117	-1.566563293	-0.7522447652	-0.336761
C	 2.0126101226	-1.5515675141	 0.6081441103	 0.35405
C	 1.0486917933	-0.5726482894	 1.1494333531	 0.189415
N	 0.9576777249	-0.3257680299	 2.4129906316	 0.12562
N	 0.8966789836	-0.110931821	 3.5280171128	-0.249542
O	 2.8407287002	-2.2164736082	 1.1905990371	-0.386885
H	 0.8252908581	 2.0529882228	 0.1118033706	 0.127662
H	-0.7261628838	 1.8111663014	-0.7169530901	 0.124767
H	-0.6515785121	 1.7636765264	 1.0471276397	 0.128632
H	-0.8212976952	-0.5377566622	 0.0917398909	 0.103516
H	 0.2378204422	-0.7680227273	-1.9975999914	 0.118992
H	 1.5276988745	 0.377561226	-1.5802507422	 0.109437
H	 2.4407023252	-1.9869576244	-1.3549475279	 0.254626
70.6676	128.5559	153.5079	178.3799	238.7545	291.6561	428.0156	441.1504	485.873	513.7477	549.4847	626.6469	688.1722	713.2865	747.5211	896.5994	958.0159	1001.479	1070.7479	1119.5922	1132.7726	1152.5748	1230.1704	1254.8805	1311.8095	1338.5153	1363.9013	1411.5548	1420.834	1444.8757	1494.7159	1499.6546	1528.68	1816.1004	2203.1531	2989.3256	2998.8259	3035.545	3074.2359	3105.7995	3112.4154	3635.9239
CC1CNC2=C1N=NO2	C[C@H]1CNC(=O)[C]1[N][N]	
InChI=1S/C5H7N3O/c1-3-2-6-5-4(3)7-8-9-5/h3,6H,2H2,1H3	InChI=1S/C5H7N3O/c1-3-2-7-5(9)4(3)8-6/h3H,2H2,1H3,(H,7,9)/t3-/m0/s1
