17
gdb 65429	4.35362	0.82053	0.77908	2.8705	75.08	-0.26	-0.0394	0.2206	1446.6162	0.133457	-417.996366	-417.986945	-417.986001	-418.031319	33.175	
C	 0.2702509148	 1.0053739053	-1.8501867022	-0.478004
C	 0.2842643505	-0.2661008782	-1.0310341435	 0.194342
C	 1.2579563222	-1.3745135949	-1.3406398791	-0.277806
N	 1.3745504488	-0.6329111199	-0.1024353029	-0.111563
C	 2.4983459435	 0.2840424712	 0.0529392605	-0.286247
C	 3.6426380066	-0.4201150267	 0.6426839887	 0.282825
N	 4.5559925374	-0.965853072	 1.0911381783	-0.29317
C	-1.0480519358	-0.6936318218	-0.4853694688	 0.143136
O	-2.0971217214	-0.1943761523	-0.8010274611	-0.254428
H	 1.2087980948	 1.1735142769	-2.3814521483	 0.121643
H	-0.5336936085	 0.9403021063	-2.5871674612	 0.155991
H	 0.0581228542	 1.87626958	-1.2218140366	 0.138332
H	 0.9747413546	-2.4191322014	-1.243042261	 0.136537
H	 1.9631460401	-1.164566273	-2.1437545368	 0.129762
H	 2.8383066153	 0.7499037104	-0.8845458363	 0.141692
H	 2.2015858162	 1.0930919285	 0.7295613163	 0.16545
H	-0.9792738731	-1.5272043384	 0.246478134	 0.091508
48.1761	96.8112	110.042	159.9706	219.8636	264.6891	271.4266	365.9808	386.8497	420.9028	435.3973	492.214	617.7423	746.0178	795.5374	883.2579	925.749	946.0394	993.0438	1004.5868	1027.3861	1096.8438	1105.1694	1128.2499	1172.623	1274.4041	1308.6554	1346.9136	1376.0202	1410.216	1424.8425	1473.0577	1487.301	1496.1535	1508.8337	1827.5099	2370.5542	2909.1133	2992.5279	3051.9673	3071.4649	3094.4974	3119.0041	3138.8802	3184.3999
CC1(CN1CC#N)C=O	C[C@]1(CN1CC#N)C=O	
InChI=1S/C6H8N2O/c1-6(5-9)4-8(6)3-2-7/h5H,3-4H2,1H3	InChI=1S/C6H8N2O/c1-6(5-9)4-8(6)3-2-7/h5H,3-4H2,1H3/t6-,8?/m0/s1
