16
gdb 77300	3.8029	0.94104	0.78342	1.7872	68.51	-0.2592	-0.0452	0.2141	1381.4649	0.12147	-475.012052	-475.002764	-475.00182	-475.047426	32.113	
O	-0.1736752408	 1.2598076843	 0.4924553436	-0.434248
C	-0.2271497185	-0.0836965102	 0.1282720939	 0.029354
C	-1.5798161643	-0.7637035449	-0.2913998085	 0.07302
C	-0.8369527256	-1.5373534633	-1.4104405272	-0.378689
C	 0.2740708567	-0.4930588952	-1.2581464465	 0.338351
O	 1.0492719597	 0.0379987161	-2.0022095918	-0.297786
O	-2.2064196275	-1.6062729223	 0.6510654582	-0.192636
C	-2.8726570369	-0.9845320941	 1.654030077	 0.117552
N	-3.4325858244	-1.6737964843	 2.5480063164	-0.436535
H	 0.2547409628	 1.7369898598	-0.2295783454	 0.301931
H	 0.2258267654	-0.7196427857	 0.9042948817	 0.126192
H	-2.2784560976	-0.0220849023	-0.6950825632	 0.107049
H	-0.5302037281	-2.5272214973	-1.0588537771	 0.158128
H	-1.3087404441	-1.6236232983	-2.3892789384	 0.145937
H	-2.852825091	 0.1103993138	 1.5798251849	 0.10808
H	-3.8925937459	-1.0636444362	 3.2205683625	 0.234299
48.4302	70.7183	89.0048	164.0905	172.471	235.4496	320.7265	349.8285	361.2982	479.5831	576.2099	626.2759	716.079	765.7905	826.577	846.2569	928.1683	992.2389	1025.7026	1048.1643	1069.1927	1111.1969	1150.5351	1179.5985	1186.5981	1217.6484	1247.8303	1284.9329	1329.9266	1389.9432	1394.6153	1427.0208	1442.3602	1749.996	1885.8652	3003.0174	3038.2161	3053.0269	3074.3308	3147.3638	3519.4996	3773.5403
OC1C(CC1=O)OC=N	O[C@H]1[C@@H](CC1=O)O[CH][NH]	
InChI=1S/C5H7NO3/c6-2-9-4-1-3(7)5(4)8/h2,4-6,8H,1H2	InChI=1S/C5H7NO3/c6-2-9-4-1-3(7)5(4)8/h2,4-6,8H,1H2/t4-,5-/m1/s1
