18
gdb 74258	2.52358	1.48164	1.17122	3.6903	74.32	-0.2325	0.0076	0.2401	1113.4713	0.147803	-435.338194	-435.32909	-435.328146	-435.371415	34.561	
C	-0.0227747013	 1.5350144219	 0.0012009176	-0.40115
C	 0.0042727836	-0.0001836649	-0.0240587498	 0.130596
C	-1.417847723	-0.5765597957	-0.0805904297	-0.401005
N	 0.8057440175	-0.4911541149	-1.158363712	-0.334876
C	 1.7835508572	-1.1499016749	-0.6616356305	 0.417968
N	 2.8247839048	-1.7065573716	-1.3713179851	-0.585409
N	 1.7982560225	-1.2488373633	 0.7333709575	-0.385824
C	 0.7266720326	-0.5221732028	 1.2385051676	 0.413243
O	 0.4593964449	-0.3538901622	 2.4026161928	-0.379225
H	 0.9918452543	 1.9431838706	 0.0176099712	 0.118164
H	-0.5258115957	 1.9090122741	-0.8945865861	 0.123132
H	-0.5546088499	 1.8884392413	 0.888903506	 0.131044
H	-1.930560666	-0.2085678357	-0.9733686826	 0.123468
H	-1.3949352673	-1.6691729138	-0.1269709765	 0.115241
H	-1.9809271564	-0.2771583319	 0.8078575913	 0.130965
H	 2.638998908	-1.7156650116	-2.3651883695	 0.266976
H	 3.1583070777	-2.5978719767	-1.0312780647	 0.25413
H	 2.5469686364	-1.6096967177	 1.3030640324	 0.262564
101.3498	161.4265	205.6241	211.555	231.0983	289.1774	307.4397	347.3327	368.184	441.8703	476.5175	565.0794	619.8765	628.425	647.7119	740.3859	748.2705	770.1864	901.1877	950.6009	973.7931	1000.5153	1022.651	1138.6582	1158.0226	1185.3365	1227.9109	1284.3953	1298.6867	1387.9619	1408.8256	1476.1294	1481.0659	1482.0083	1495.0522	1506.027	1627.631	1731.5187	1849.9036	3040.6499	3044.0494	3115.7937	3118.269	3123.8993	3128.8764	3555.4613	3642.7304	3658.7629
CC1(C)N=C(N)NC1=O	CC1(C)N=C(N)NC1=O	
InChI=1S/C5H9N3O/c1-5(2)3(9)7-4(6)8-5/h1-2H3,(H3,6,7,8,9)	InChI=1S/C5H9N3O/c1-5(2)3(9)7-4(6)8-5/h1-2H3,(H3,6,7,8,9)
