15
gdb 21164	3.34941	1.83514	1.25366	3.7021	64.42	-0.2082	0.0144	0.2226	944.1733	0.119915	-395.960078	-395.95233	-395.951386	-395.992439	28.228	
C	-0.4626345387	 1.1904685152	-0.0559932211	-0.322401
N	 0.3752729116	 0.0161375883	 0.1928309782	-0.402561
C	 0.8637420879	-0.6431101175	-0.9613063391	 0.015391
C	 0.6869347007	-1.979448251	-1.2269395481	 0.454583
N	 0.1198655034	-2.9691269642	-0.4704721761	-0.590017
O	 1.2378020567	-2.3101189419	-2.3941443437	-0.217771
N	 1.8178834676	-1.1462790241	-2.9743851218	-0.170346
C	 1.5858364582	-0.1963781562	-2.1040647866	-0.006244
H	 0.0408654295	 1.9964442271	-0.6134579205	 0.105842
H	-1.344087167	 0.8890886122	-0.6296729505	 0.129563
H	-0.8011373187	 1.5992277122	 0.9010080063	 0.119147
H	 1.1262372057	 0.2539681735	 0.8318696476	 0.231318
H	-0.4712566813	-2.5976720839	 0.2610757825	 0.265587
H	-0.2976291044	-3.7268551988	-0.99137335	 0.265218
H	 1.9405371487	 0.801172069	-2.3284101569	 0.122689
59.476	165.9117	180.5652	258.0567	272.8254	345.124	387.6323	502.5677	591.4349	623.1106	652.0952	723.0667	745.5553	810.5477	870.2924	916.4286	940.5415	1047.0715	1081.2082	1151.5817	1172.0527	1189.9032	1260.5961	1357.3913	1429.7859	1454.8593	1469.7865	1491.9175	1518.8569	1539.1281	1618.95	1690.9365	2976.0047	3068.7276	3111.778	3228.1987	3511.624	3555.4215	3665.6945
CNC1=C(N)ON=C1	CNc1c(N)onc1	
InChI=1S/C4H7N3O/c1-6-3-2-7-8-4(3)5/h2,6H,5H2,1H3	InChI=1S/C4H7N3O/c1-6-3-2-7-8-4(3)5/h2,6H,5H2,1H3
