23
gdb 59371	3.49691	0.83977	0.78094	0.8463	92.38	-0.2529	0.0533	0.3062	1585.7401	0.203826	-351.122685	-351.112483	-351.111539	-351.157905	38.574	
C	 0.1296640912	 1.4995582585	-0.1360244843	-0.390192
C	 0.0935072367	-0.024657286	 0.0411139792	 0.016401
C	 0.8492911344	-0.4520770487	 1.3068245354	-0.390191
C	-1.3425962378	-0.5443203456	 0.0544772822	 0.087865
C	-2.2086312446	-0.4025351667	-1.2281401983	-0.254987
C	-2.7892274073	-1.8351191629	-0.9698131446	-0.183558
C	-1.590861232	-2.0778318629	 0.0105568522	-0.254985
C	-4.0924225719	-1.8440560582	-0.3319679151	 0.34312
C	-5.1681566474	-1.8422946908	 0.2069032035	-0.491832
H	 1.1597569801	 1.8670922874	-0.1895067459	 0.109405
H	-0.384402552	 1.8113528715	-1.0509591101	 0.114717
H	-0.3583061475	 2.0019851596	 0.7078487472	 0.11222
H	 0.5990021627	-0.4787239062	-0.8251821245	 0.062872
H	 1.8913415944	-0.1169812779	 1.2772590989	 0.109405
H	 0.3869888511	-0.0191187446	 2.2020862114	 0.11222
H	 0.8513918004	-1.5402666951	 1.4269302043	 0.114718
H	-1.8775046068	-0.1102733282	 0.9082867459	 0.075252
H	-2.9286582458	 0.415653263	-1.2771532463	 0.109755
H	-1.5932820453	-0.3926296336	-2.1335471454	 0.098134
H	-2.806766993	-2.4895781645	-1.8461976834	 0.098222
H	-0.7772018237	-2.6056880026	-0.4972251816	 0.098134
H	-1.8200278278	-2.5907830812	 0.9457780248	 0.109755
H	-6.120837868	-1.8471082443	 0.6754468945	 0.19355
54.0722	86.4274	125.1056	203.9227	215.7411	225.8514	247.8795	304.5604	333.9719	424.8073	428.6127	505.1938	534.003	614.3095	620.3917	667.4824	797.3381	820.1918	856.3151	898.6467	927.2326	933.7661	959.6419	984.9865	1001.2835	1006.3149	1083.4996	1099.3911	1145.5723	1155.7909	1190.1513	1195.0652	1235.7094	1254.2006	1271.031	1288.0585	1315.972	1349.4416	1350.9478	1393.4534	1399.21	1420.7765	1471.9157	1487.1163	1491.9822	1493.8556	1504.6055	1510.0141	2230.1659	2982.5241	3022.9554	3025.6088	3031.7075	3049.5464	3049.6656	3062.8602	3087.7141	3093.3377	3098.3565	3100.4742	3121.0504	3122.8331	3504.8036
CC(C)C1CC(C1)C#C	CC(C)[C@H]1C[C@@H](C1)C#C	
InChI=1S/C9H14/c1-4-8-5-9(6-8)7(2)3/h1,7-9H,5-6H2,2-3H3	InChI=1S/C9H14/c1-4-8-5-9(6-8)7(2)3/h1,7-9H,5-6H2,2-3H3/t8-,9-
