18
gdb 55812	4.29987	0.98854	0.89464	5.924	73.48	-0.2453	0.0261	0.2714	1299.4768	0.148299	-439.043336	-439.035591	-439.034647	-439.076774	29.509	
O	-1.5575496528	 1.6114304607	-2.3361145301	-0.360354
C	-1.0653849736	 2.504910728	-1.4712718657	 0.415674
O	-0.3487251015	 3.4160615171	-1.7855991624	-0.338799
C	-1.4848635808	 2.2366428165	-0.0145674396	-0.320707
N	-2.5500084364	 1.227561601	 0.0199990448	-0.132749
H	-2.1136433758	 1.0168317282	-1.7781836642	 0.29354
C	-3.9455665381	 1.6324950756	 0.4845176137	-0.01532
C	-4.2024203953	 0.1202485715	 0.7062060915	-0.214459
C	-2.809086038	 0.4500942394	 1.3003381044	-0.007008
C	-3.4399353226	 1.7116478905	 1.9547426464	-0.23457
H	-0.598553094	 1.8532659838	 0.5044208038	 0.143049
H	-1.7337049018	 3.200568838	 0.4413255712	 0.136017
H	-4.5443130779	 2.3497485086	-0.0777206929	 0.101623
H	-4.9868433338	-0.1445991677	 1.415291087	 0.108143
H	-4.2042013413	-0.5004921707	-0.1900780238	 0.110096
H	-2.0606310394	-0.2332155032	 1.7040449514	 0.09543
H	-2.7672505304	 2.5300767577	 2.210765552	 0.114305
H	-4.1790047164	 1.5475752548	 2.7424256124	 0.106089
38.8696	89.5891	156.7796	289.1732	322.9368	402.0379	560.1893	561.9366	625.5107	641.9991	747.7698	785.3672	847.4363	865.5724	879.7204	895.421	906.7375	913.6447	1001.759	1003.915	1021.5327	1068.615	1078.9673	1119.9914	1122.3012	1178.9161	1190.3443	1195.309	1220.4436	1226.2691	1254.6009	1268.8915	1275.7363	1333.8451	1445.7828	1457.1108	1486.3103	1528.6027	1876.1737	3037.6596	3071.7126	3084.4087	3085.5079	3108.872	3117.4218	3144.7207	3162.9938	3396.492
[O-]C(=O)C[NH+]1C2CC1C2	OC(=O)CN1[C@H]2C[C@@H]1C2	
InChI=1S/C6H9NO2/c8-6(9)3-7-4-1-5(7)2-4/h4-5H,1-3H2,(H,8,9)	InChI=1S/C6H9NO2/c8-6(9)3-7-4-1-5(7)2-4/h4-5H,1-3H2,(H,8,9)/t4-,5+
