17
gdb 68721	2.42231	1.6614	1.32957	5.2032	77.18	-0.2759	0.0126	0.2885	1019.8515	0.136695	-380.832186	-380.824346	-380.823401	-380.864355	30.345	
C	-0.0167663486	 1.5300625972	 0.0289411819	-0.471341
C	-0.0627680007	 0.0322671559	 0.0432367562	 0.256169
N	 1.1490254593	-0.7160676714	-0.2709376565	-0.393794
C	 0.5358822962	-0.9571378636	 1.043761167	 0.138679
C	 1.3060353894	-0.6961868458	 2.2222461603	 0.25208
N	 1.8966217601	-0.4915436208	 3.1958251789	-0.350844
C	-0.7084836332	-1.8191894079	 0.9661632674	-0.135662
C	-1.9313131923	-1.0115453408	 1.3129679994	-0.285757
C	-1.3074251695	-0.8368166822	-0.0470208937	-0.121869
H	 0.9509556052	 1.8867710047	 0.3882800781	 0.150775
H	-0.1582427294	 1.9048429183	-0.9910711138	 0.131434
H	-0.8073299884	 1.9516608619	 0.6566904422	 0.129503
H	 0.981884791	-1.5028024128	-0.8957229763	 0.236338
H	-0.7096683194	-2.9020132537	 0.9321861402	 0.107574
H	-2.8663999651	-1.5633525116	 1.3381082518	 0.124417
H	-1.8641207859	-0.2176086001	 2.0510217893	 0.130067
H	-1.8348453088	-1.0752153274	-0.9633776623	 0.10223
120.7496	140.3959	190.9838	228.7563	297.8166	377.7429	447.9658	535.7678	551.4673	581.4185	604.5296	688.276	763.3116	793.3373	820.0226	867.2799	944.0667	956.9531	1004.5804	1041.902	1067.1717	1078.9261	1095.584	1098.4542	1109.1903	1140.5939	1178.2013	1233.7923	1265.9837	1327.5546	1340.271	1403.4637	1440.5105	1482.5182	1489.2873	1492.5188	2352.846	3039.039	3102.6711	3121.61	3133.825	3180.0469	3190.0165	3207.6501	3473.1673
CC12NC1(C#N)C1CC21	C[C@@]12N[C@]1(C#N)[C@H]1C[C@@H]21	
InChI=1S/C7H8N2/c1-6-4-2-5(4)7(6,3-8)9-6/h4-5,9H,2H2,1H3	InChI=1S/C7H8N2/c1-6-4-2-5(4)7(6,3-8)9-6/h4-5,9H,2H2,1H3/t4-,5+,6+,7-/m1/s1
