20
gdb 93251	2.77471	1.28725	0.91794	3.4809	76.4	-0.236	0.0294	0.2654	1267.2862	0.171869	-440.330556	-440.321398	-440.320453	-440.364512	33.966	
C	-0.0662193904	 1.4582536574	 0.0098984592	-0.343817
N	 0.0262199395	 0.0094226399	 0.0844818516	-0.102029
C	-1.23962037	-0.7090652798	 0.0268614965	-0.169657
C	-1.1287605905	-2.1773898528	 0.4490090078	 0.098662
O	-2.3241705398	-2.8746016395	 0.1415259118	-0.428613
C	 0.0196310852	-2.8273664934	-0.3037219188	-0.215681
C	 1.3204832209	-2.1054330626	 0.0504815767	-0.321627
C	 1.2663062033	-0.579710475	-0.0017538354	 0.410335
O	 2.2951493091	 0.0719387885	-0.069340286	-0.388452
H	 0.9432380923	 1.864799368	 0.0379622347	 0.170429
H	-0.5589491819	 1.7740847059	-0.9193817415	 0.119621
H	-0.6475516513	 1.8476356691	 0.8542885743	 0.117759
H	-1.9561268431	-0.1890369952	 0.6781076524	 0.094845
H	-1.6595204694	-0.6815094193	-0.991038312	 0.113513
H	-0.916768014	-2.2257112326	 1.52979672	 0.073873
H	-3.03545818	-2.5149051058	 0.6813796228	 0.2853
H	 0.0791556791	-3.8908195575	-0.0537202387	 0.11029
H	-0.1842375211	-2.7603083708	-1.3793860554	 0.111244
H	 1.6305798521	-2.3643567087	 1.0712733585	 0.130172
H	 2.1446828602	-2.4061416957	-0.6000393885	 0.133833
84.405	104.4109	141.3451	212.9482	237.8361	282.2263	295.3895	375.6053	393.9271	421.62	482.0435	540.5816	581.2292	669.3568	757.2782	836.4268	905.9376	950.7148	988.5088	1040.5406	1081.3683	1101.0536	1109.4689	1148.1239	1157.2979	1190.3179	1211.3183	1264.781	1271.6216	1299.1349	1319.5991	1347.2463	1350.4237	1391.0198	1425.5217	1437.1125	1461.0374	1470.0876	1496.7187	1500.3487	1509.7668	1540.1247	1759.8071	2964.5451	2981.8919	3011.0871	3020.2903	3033.5283	3040.5304	3060.7175	3089.081	3109.4553	3169.61	3815.2509
CN1CC(O)CCC1=O	CN1C[C@@H](O)CCC1=O	
InChI=1S/C6H11NO2/c1-7-4-5(8)2-3-6(7)9/h5,8H,2-4H2,1H3	InChI=1S/C6H11NO2/c1-7-4-5(8)2-3-6(7)9/h5,8H,2-4H2,1H3/t5-/m0/s1
