23
gdb 122021	2.40746	0.67893	0.55213	0.7562	80.07	-0.255	0.0715	0.3264	2045.6896	0.202412	-462.547558	-462.535836	-462.534892	-462.585869	40.519	
C	-0.1898838618	 0.8025167148	 1.2971174925	-0.385968
C	-0.2326693766	-0.0656607442	 0.051355611	-0.023763
O	-1.4444313046	-0.7939111608	 0.0496522488	-0.243804
C	-1.5938544642	-1.6367080912	-1.0681895655	-0.074324
C	-2.9315199308	-2.3736520327	-0.9641411181	 0.086031
O	-3.173339395	-3.0972943007	-2.1686700144	-0.433493
C	-3.0116518648	-3.261402591	 0.2771612669	-0.183464
C	-4.3795694427	-3.9033634841	 0.4656728866	-0.077504
O	-4.3117623365	-4.7381379684	 1.6137182569	-0.424249
H	 0.7388724935	 1.3800105773	 1.3274529548	 0.11498
H	-1.0328821218	 1.4991929705	 1.3083828394	 0.127223
H	-0.2445021765	 0.1841884118	 2.1975760705	 0.12783
H	-0.1637935622	 0.5555705478	-0.857592193	 0.08699
H	 0.6254834825	-0.7588799293	 0.0318011475	 0.085947
H	-1.5771783904	-1.0611073575	-2.0073086711	 0.094272
H	-0.7677107391	-2.3711692889	-1.1176577439	 0.070551
H	-3.726515948	-1.6190200175	-0.9250974984	 0.097222
H	-2.5423488822	-3.8253778313	-2.2024519881	 0.278817
H	-2.2543808438	-4.056060509	 0.2070523017	 0.087829
H	-2.7593674184	-2.6641425835	 1.1584579471	 0.12661
H	-5.1417526414	-3.1162519388	 0.5890697907	 0.084529
H	-4.6459662922	-4.4762442186	-0.4342965698	 0.093467
H	-5.166308043	-5.1651869848	 1.7224705379	 0.284273
52.3749	68.432	74.9412	89.4824	138.5905	156.7379	189.5697	248.036	263.2548	278.9988	306.8183	345.7175	376.034	471.2034	520.0374	540.8969	799.9645	822.0699	875.1113	905.9313	975.2509	1023.6339	1044.1703	1063.2052	1083.4983	1117.0304	1127.0023	1154.943	1172.9106	1188.0567	1208.4148	1231.4309	1254.6418	1292.31	1297.8109	1317.1517	1323.0925	1376.7743	1392.1952	1405.7878	1416.1993	1448.3393	1459.5676	1483.8758	1489.713	1499.3977	1512.2393	1531.023	1535.7721	2927.396	2956.3379	2965.2664	2979.9707	2993.3843	3006.0155	3015.1009	3045.1524	3048.3595	3096.5074	3119.5555	3121.9977	3793.8613	3829.9055
CCOCC(O)CCO	CCOC[C@@H](O)CCO	
InChI=1S/C6H14O3/c1-2-9-5-6(8)3-4-7/h6-8H,2-5H2,1H3	InChI=1S/C6H14O3/c1-2-9-5-6(8)3-4-7/h6-8H,2-5H2,1H3/t6-/m0/s1
