21
gdb 97503	3.12012	0.72377	0.62914	3.5575	90.65	-0.2489	-0.0434	0.2055	1872.8555	0.179078	-387.096291	-387.085015	-387.08407	-387.134777	38.816	
C	 0.1298092548	 1.5849455573	 0.0610061066	-0.368868
C	 0.1446636861	 0.04712156	-0.0025427509	-0.325473
C	 0.721315428	-0.4800614785	-1.231749586	 0.16742
C	 1.1983009979	-0.9163464154	-2.2524062809	-0.019222
C	 1.7524220867	-1.4456215417	-3.485594972	 0.201215
O	 1.7181616637	-2.6328105381	-3.7366077825	-0.302301
C	 2.3738080184	-0.414408506	-4.4283472526	-0.067253
C	 3.6222588123	 0.2091626381	-3.7721112875	-0.391538
C	 2.6856498079	-1.0302308713	-5.7928318365	-0.391841
H	 1.1442253332	 1.9871361989	-0.0048671417	 0.131554
H	-0.4544403438	 2.0026693511	-0.7630844771	 0.132473
H	-0.3136362092	 1.9202090032	 1.0027983912	 0.121732
H	 0.7064383233	-0.3566271703	 0.8497451838	 0.143487
H	-0.8761850488	-0.3418978926	 0.1035812541	 0.143597
H	 1.6283013593	 0.3851140925	-4.5433143224	 0.093542
H	 3.387234463	 0.6441356007	-2.797057917	 0.125599
H	 4.4024900655	-0.5463680729	-3.6308916375	 0.126834
H	 4.0288530279	 0.9988853864	-4.4107589519	 0.120045
H	 1.7891121968	-1.4546085152	-6.251877186	 0.123913
H	 3.0952920719	-0.2714458169	-6.4665792319	 0.104622
H	 3.4160203852	-1.8380838992	-5.6956955615	 0.13046
22.4513	40.6123	61.1894	119.8704	178.3094	198.4205	218.037	241.8711	270.2716	305.7686	334.0202	400.4839	420.3361	533.1071	574.1601	685.1767	747.9373	779.3858	856.688	913.4859	933.0666	969.7506	1005.297	1081.1143	1097.9912	1104.5119	1126.7109	1176.3497	1212.7716	1283.3013	1312.1707	1346.9156	1362.0626	1397.7254	1410.4222	1419.8112	1463.3617	1484.6159	1486.384	1495.2461	1500.8243	1504.3399	1510.1306	1756.2263	2327.6339	3011.0206	3024.0468	3037.6374	3045.7972	3047.8065	3052.2018	3107.8138	3116.7035	3119.4884	3122.6599	3123.822	3126.6896
CCC#CC(=O)C(C)C	CCC#CC(=O)C(C)C	
InChI=1S/C8H12O/c1-4-5-6-8(9)7(2)3/h7H,4H2,1-3H3	InChI=1S/C8H12O/c1-4-5-6-8(9)7(2)3/h7H,4H2,1-3H3
