14
gdb 8025	3.42365	2.14975	1.60115	4.4305	57.36	-0.2603	-0.0138	0.2466	800.1754	0.106631	-419.674161	-419.667347	-419.666403	-419.705106	25.321	
C	-0.1611896523	 1.5935487811	 0.0199261271	-0.485065
C	 0.0585010838	 0.1119787625	 0.0939011059	 0.389293
C	-1.0920995293	-0.9036264881	 0.2034286367	-0.121979
O	-0.3743000801	-1.6627108621	 1.2116946248	-0.284364
C	 0.7223985302	-0.7281505771	 1.2080062439	-0.129425
C	 1.7465666221	-1.0826806545	 0.1147100996	 0.45026
O	 2.7384330187	-1.7201943067	-0.0128149494	-0.315164
O	 1.0743810328	-0.3624746568	-0.8560646098	-0.286972
H	 0.7833926588	 2.1316645369	 0.136436751	 0.141929
H	-0.5903096687	 1.866604496	-0.9497610351	 0.145441
H	-0.8509895779	 1.9187780423	 0.8037962589	 0.135632
H	-2.0236722187	-0.497126154	 0.6128851272	 0.116806
H	-1.2941760688	-1.4818005373	-0.7031529802	 0.129016
H	 1.0534467493	-0.4183846322	 2.1994934395	 0.114592
130.3009	204.3239	223.3239	285.9044	320.3336	407.7474	485.6261	621.0617	685.3541	765.0283	824.2475	848.9841	912.4998	963.226	974.096	1005.2838	1012.5276	1067.4508	1143.2376	1162.8579	1206.9435	1233.3093	1274.4241	1288.2049	1378.1277	1421.5873	1483.0071	1490.9262	1503.3536	1943.81	3036.4592	3044.0808	3098.9145	3113.2308	3119.7157	3126.2809
CC12COC1C(=O)O2	C[C@]12CO[C@H]1C(=O)O2	
InChI=1S/C5H6O3/c1-5-2-7-3(5)4(6)8-5/h3H,2H2,1H3	InChI=1S/C5H6O3/c1-5-2-7-3(5)4(6)8-5/h3H,2H2,1H3/t3-,5-/m0/s1
