19
gdb 98872	4.06659	0.99126	0.87425	1.5393	78.08	-0.2412	0.007	0.2482	1370.3024	0.159402	-423.074225	-423.065164	-423.06422	-423.109472	32.118	
C	-0.1015331653	 1.384024797	 0.0524004765	-0.239665
O	-0.0749881676	-0.0414069854	-0.0917082388	-0.236854
C	 0.7122194321	-0.5084603371	-1.0843117536	 0.438414
O	 1.3435982808	 0.2061594409	-1.8209547826	-0.356536
C	 0.6894038741	-2.0309836137	-1.1005079678	-0.143817
C	 1.3686183075	-2.6432754305	-2.3501111463	-0.236106
C	 2.2368974269	-3.8205877729	-1.8329127698	-0.256979
C	 2.3193285011	-3.5702106515	-0.3480297605	-0.057902
C	 1.4843262722	-2.6166203214	 0.0556493881	-0.073441
H	 0.8976704746	 1.7694124077	 0.2712000536	 0.140112
H	-0.4658426074	 1.8573978109	-0.8628295233	 0.140587
H	-0.7786167132	 1.5865001248	 0.8824558337	 0.131777
H	-0.3644640007	-2.3248680249	-1.0038014273	 0.101632
H	 0.6398020036	-2.9565515265	-3.1008889373	 0.099804
H	 1.9972398415	-1.8740620481	-2.8042817389	 0.135461
H	 1.7694400077	-4.7948547353	-2.0322744363	 0.106752
H	 3.2220855279	-3.8534996499	-2.3119238619	 0.108471
H	 2.9670235193	-4.1431618211	 0.3068601751	 0.095292
H	 1.3367645948	-2.2824859429	 1.0756248173	 0.102999
35.7637	65.1978	114.1191	131.4093	195.2161	248.7643	326.0721	382.354	426.7137	585.293	690.2984	732.9913	783.642	800.7613	840.6349	886.5956	924.4521	937.1259	976.8603	1008.1066	1030.5415	1049.3492	1083.8961	1129.0845	1177.647	1179.4788	1200.7416	1218.0562	1228.4159	1270.671	1295.1461	1318.2231	1356.1628	1378.259	1472.1764	1481.5562	1485.0805	1498.0453	1504.6855	1686.9837	1819.5403	3012.1517	3014.4648	3051.1544	3053.7039	3075.648	3121.7823	3125.4043	3157.2841	3185.9132	3215.5757
COC(=O)C1CCC=C1	COC(=O)[C@H]1CCC=C1	
InChI=1S/C7H10O2/c1-9-7(8)6-4-2-3-5-6/h2,4,6H,3,5H2,1H3	InChI=1S/C7H10O2/c1-9-7(8)6-4-2-3-5-6/h2,4,6H,3,5H2,1H3/t6-/m1/s1
