15
gdb 27172	3.19313	1.32043	0.99386	0.8774	70.02	-0.2076	-0.0056	0.202	1142.5273	0.113789	-453.945809	-453.938	-453.937055	-453.97878	28.593	
N	 0.1319557509	 1.4183771194	 0.3081251309	-0.600161
C	 0.0007162346	 0.0561401953	 0.0815916187	 0.174782
C	-1.1006553607	-0.6855681298	-0.2430922824	 0.313358
O	-0.664982095	-1.990046063	-0.4106503688	-0.182499
C	 0.6543238386	-1.9384487804	-0.187294844	 0.073504
N	 1.1180416029	-0.7650489206	 0.1060729526	-0.303048
C	-2.5113793172	-0.3682656333	-0.4355136849	-0.068526
C	-3.4879352065	-1.3183508955	-0.9876086033	-0.177176
O	-3.493502112	-1.0203720303	 0.4057738138	-0.237714
H	 1.0143395274	 1.6354134039	 0.7513241313	 0.259321
H	-0.6397651719	 1.8375159227	 0.807445147	 0.255045
H	 1.202096296	-2.8646212272	-0.2658647563	 0.152344
H	-2.7001902835	 0.6956046875	-0.5768559324	 0.099454
H	-4.336997072	-0.9422685002	-1.5580144224	 0.114768
H	-3.1564878918	-2.3210547087	-1.2504374801	 0.126548
60.3642	133.2957	165.1837	234.5375	298.098	315.8622	448.9442	510.687	620.345	660.516	672.6854	736.8689	775.1786	797.8503	843.1614	913.8037	958.1031	991.6539	1036.5046	1093.6837	1157.0054	1163.2597	1164.5117	1191.2656	1258.372	1295.8445	1322.0086	1395.7942	1462.3968	1522.0666	1555.2217	1640.2605	1691.8211	3082.7517	3116.5631	3174.1751	3273.9858	3557.9125	3654.8646
NC1=C(OC=N1)C1CO1	Nc1c(ocn1)[C@H]1CO1	
InChI=1S/C5H6N2O2/c6-5-4(3-1-8-3)9-2-7-5/h2-3H,1,6H2	InChI=1S/C5H6N2O2/c6-5-4(3-1-8-3)9-2-7-5/h2-3H,1,6H2/t3-/m1/s1
