19
gdb 95462	3.05034	1.0702	0.85463	1.2898	82.77	-0.2445	0.0173	0.2618	1363.8148	0.158267	-385.870128	-385.860899	-385.859955	-385.904678	34.39	
O	-0.278964791	 1.1238243088	 0.7672728927	-0.432812
C	 0.0957705907	-0.1593351604	 0.2549725328	 0.04665
C	-1.0492132396	-1.2044045834	 0.2338388133	-0.249474
C	-1.4665272803	-1.3601713857	-1.2518079148	-0.265
C	-0.3458635259	-0.684854381	-2.0020111181	-0.157991
C	 0.5201940804	-0.0677888682	-1.1977051208	 0.284546
C	 1.7399524271	 0.7393275502	-1.5626910447	-0.468715
C	 1.9656062471	 0.9058535501	-2.9930334018	 0.3062
C	 2.146346364	 1.0368435757	-4.1739260367	-0.444761
H	-0.9476708518	 1.4833764359	 0.1727582376	 0.275646
H	 0.9132710901	-0.4689770708	 0.9157666273	 0.08311
H	-0.6809705165	-2.1592953556	 0.6199460286	 0.108239
H	-1.8649712467	-0.8858272927	 0.887767408	 0.106795
H	-1.5783835559	-2.4123263122	-1.5379476301	 0.109743
H	-2.4325780768	-0.8870602325	-1.4748133876	 0.106573
H	-0.2733276326	-0.6943433518	-3.083960907	 0.10661
H	 1.6564232809	 1.722830138	-1.0795560045	 0.149902
H	 2.6272685428	 0.2758117984	-1.1053237251	 0.139678
H	 2.3150571541	 1.1605607573	-5.2148177889	 0.19506
54.923	72.9496	120.9999	206.9345	242.0391	307.6914	335.9446	356.1208	386.0907	475.5416	573.1563	614.0947	636.0179	691.4218	730.8879	772.5764	849.3911	868.8939	925.8616	938.2634	969.3779	972.7551	1010.3231	1045.8827	1072.2296	1135.4254	1162.8317	1218.0273	1228.3268	1255.491	1277.3121	1296.7518	1322.0349	1333.2305	1374.4001	1430.0928	1461.8168	1478.2948	1499.2348	1724.4314	2241.1248	2996.9871	3015.5521	3027.2807	3043.334	3050.0248	3065.8823	3107.7322	3198.1525	3506.2819	3790.6027
OC1CCC=C1CC#C	O[C@H]1CCC=C1CC#C	
InChI=1S/C8H10O/c1-2-4-7-5-3-6-8(7)9/h1,5,8-9H,3-4,6H2	InChI=1S/C8H10O/c1-2-4-7-5-3-6-8(7)9/h1,5,8-9H,3-4,6H2/t8-/m0/s1
