19
gdb 100901	2.48248	1.03535	0.84056	5.5106	72.87	-0.2435	0.019	0.2625	1409.4013	0.157465	-456.326204	-456.315499	-456.314555	-456.36221	37.201	
C	 0.0111045601	 1.3616023347	-0.286508718	-0.249261
O	-0.0147412023	 0.0146826087	 0.1559514513	-0.244439
C	-1.2884831248	-0.592295727	 0.1179070864	-0.036219
C	-1.8007196902	-0.6925836427	-1.2681791629	 0.298461
N	-2.2181301335	-0.7077650724	-2.3452134061	-0.328008
C	-1.170353492	-1.9761497256	 0.7729076524	 0.025351
N	-0.2345710403	-2.7946606669	 0.0139151771	-0.512077
C	-0.824937348	-1.8338549624	 2.2629700584	-0.100159
O	-0.8095554641	-3.1504855163	 2.7944581698	-0.424141
H	 1.0387574958	 1.70993453	-0.1687685499	 0.138242
H	-0.2819046926	 1.446016012	-1.3406206847	 0.142524
H	-0.6557449849	 1.9921239272	 0.3197195999	 0.113608
H	-2.014839952	 0.0146775238	 0.6838959056	 0.110149
H	-2.1587427132	-2.4490518244	 0.7119064373	 0.109696
H	 0.6651716237	-2.3233592652	-0.0206857323	 0.235125
H	-0.096216642	-3.6667965706	 0.5150490438	 0.242987
H	 0.1518030181	-1.3418703472	 2.3652448598	 0.102912
H	-1.5779328957	-1.2088425155	 2.771440461	 0.082418
H	-0.4255972218	-3.1209429901	 3.6749084511	 0.292832
73.9819	97.0995	108.5137	134.1736	175.1726	201.5329	231.9719	251.3267	281.4027	313.731	350.4186	353.7571	439.1465	508.1992	606.2745	708.8572	860.0229	891.0273	927.7389	967.9465	1011.6258	1075.7899	1089.7953	1127.9786	1165.5581	1184.5437	1193.7149	1214.318	1245.4679	1283.7378	1319.4754	1361.0404	1374.034	1418.8672	1447.7423	1480.4632	1488.2202	1508.4283	1518.1228	1656.2475	2357.4229	2960.9465	2973.0621	2995.2321	3025.1167	3045.7956	3061.2658	3133.5152	3497.0157	3579.7073	3842.7387
COC(C#N)C(N)CO	CO[C@@H](C#N)[C@@H](N)CO	
InChI=1S/C5H10N2O2/c1-9-5(2-6)4(7)3-8/h4-5,8H,3,7H2,1H3	InChI=1S/C5H10N2O2/c1-9-5(2-6)4(7)3-8/h4-5,8H,3,7H2,1H3/t4-,5-/m0/s1
