22
gdb 15003	3.9638	1.34839	1.08882	1.082	78.51	-0.2435	0.0844	0.3279	1160.1243	0.20201	-350.223585	-350.215218	-350.214274	-350.256376	31.954	
C	 0.0419687167	 1.378633283	 0.112883866	-0.239568
O	-0.1072885706	-0.0079660444	-0.074480692	-0.247233
C	 0.6108834809	-0.5446281605	-1.1763846555	 0.1541
C	 2.1162756705	-0.6732446293	-0.8960951367	-0.207479
C	 2.8447502538	-1.3656799581	-2.0589367846	-0.195956
C	 2.2248028817	-2.7338507806	-2.3746747229	-0.176669
C	 0.7186700883	-2.6098294112	-2.6451920604	-0.200444
C	-0.004815494	-1.9098114912	-1.4862252235	-0.202227
H	 1.0636400196	 1.6643259408	 0.40357102	 0.104633
H	-0.2259461929	 1.9433614628	-0.7947537122	 0.099484
H	-0.6375391465	 1.669715671	 0.9184015291	 0.123749
H	 0.4708837757	 0.1158056839	-2.0521806069	 0.054526
H	 2.557637365	 0.3119948143	-0.7105497935	 0.088353
H	 2.2400915016	-1.2570361299	 0.0256426655	 0.098914
H	 2.789549336	-0.7289555313	-2.9531578636	 0.092411
H	 3.9094288226	-1.4720169507	-1.8228708605	 0.091961
H	 2.7296732786	-3.1909928431	-3.233217962	 0.088564
H	 2.384839895	-3.4080954665	-1.5220115346	 0.093099
H	 0.5641344586	-2.0370723282	-3.5703614162	 0.092046
H	 0.2779047848	-3.5978950553	-2.8176624377	 0.092354
H	 0.0578392574	-2.5241141839	-0.5784032079	 0.100259
H	-1.0695182729	-1.7809968116	-1.7066576199	 0.095123
75.5048	124.9172	197.1769	219.1836	256.6367	331.2954	369.332	429.794	455.5686	487.8789	538.3406	790.8687	798.4751	848.5157	893.1115	902.0838	931.6919	949.8328	1030.9483	1048.4194	1059.2968	1084.7309	1098.6158	1143.7975	1170.6889	1183.5277	1200.4865	1228.6684	1275.6605	1281.4849	1283.2118	1333.8402	1344.8152	1364.8935	1377.4312	1379.111	1385.1538	1404.7176	1479.5195	1482.1309	1485.6799	1487.7501	1492.3573	1493.8557	1507.4225	1512.5228	2928.9014	2971.5655	3009.2309	3010.2791	3016.0352	3017.3515	3023.9427	3028.5405	3061.4139	3062.1329	3066.4483	3071.0873	3078.7719	3105.6631
COC1CCCCC1	COC1CCCCC1	
InChI=1S/C7H14O/c1-8-7-5-3-2-4-6-7/h7H,2-6H2,1H3	InChI=1S/C7H14O/c1-8-7-5-3-2-4-6-7/h7H,2-6H2,1H3
