18
gdb 47421	2.79979	1.33262	1.0002	2.0319	72.55	-0.2605	0.0195	0.28	1183.5177	0.148813	-439.080619	-439.072453	-439.071509	-439.114439	29.928	
N	 0.1096833146	 1.3453036991	-0.2634356155	-0.537546
C	 0.0403625192	 0.0856526063	-0.2188052768	 0.394231
O	 1.1118272871	-0.7579979241	-0.2818590824	-0.236938
C	 0.6912940911	-2.1271348281	-0.1436165887	-0.087884
C	-0.8047176329	-2.1332207431	-0.4850882197	-0.254418
C	-1.245628382	-0.7147302992	-0.076086204	-0.112655
C	-1.7681445261	-0.6391034904	 1.345464816	 0.096142
C	-2.7773486278	 0.3439870923	 1.7412082044	-0.174836
O	-3.1279226747	-1.0305266971	 1.5318218475	-0.246508
H	 1.0816746552	 1.6499945946	-0.3424721847	 0.222522
H	 1.3013037303	-2.7334960086	-0.8166508157	 0.123773
H	 0.8832353343	-2.45215676	 0.8864552528	 0.115865
H	-0.9449490696	-2.2753178703	-1.5601379427	 0.119584
H	-1.3559363162	-2.9190215091	 0.0353197574	 0.12753
H	-2.0104162578	-0.3065912325	-0.7387978947	 0.110599
H	-1.08901884	-1.0121582893	 2.1152220732	 0.093995
H	-2.8254176817	 0.6858586961	 2.7733833923	 0.119041
H	-3.1562867031	 1.0438194135	 0.9990629412	 0.127502
51.0976	78.6968	155.7887	175.2326	271.8504	320.6887	404.669	498.4949	641.0796	665.5867	675.9771	816.2543	855.1114	872.0048	894.9992	920.6127	929.0101	956.2504	996.133	1020.3336	1054.3016	1098.072	1113.2164	1149.9847	1162.6776	1173.8618	1208.3799	1226.4111	1266.789	1285.3109	1297.1539	1298.5827	1344.7463	1408.977	1447.3072	1494.3832	1527.0946	1531.4832	1773.0305	3030.0669	3066.2351	3083.1313	3094.3505	3103.8876	3105.6214	3123.2591	3182.8847	3470.1837
N=C1OCCC1C1CO1	[NH][C]1OCC[C@H]1[C@H]1CO1	
InChI=1S/C6H9NO2/c7-6-4(1-2-8-6)5-3-9-5/h4-5,7H,1-3H2	InChI=1S/C6H9NO2/c7-6-4(1-2-8-6)5-3-9-5/h4-5,7H,1-3H2/t4-,5+/m0/s1
