23
gdb 88656	3.46902	0.87815	0.80316	1.3481	86.78	-0.2493	0.081	0.3303	1543.6091	0.205385	-388.264212	-388.254644	-388.2537	-388.298914	36.618	
C	-0.2474298149	 1.5275051354	-0.1740022558	-0.389027
C	-0.0377363711	 0.0163538351	-0.1428780168	 0.032112
C	 1.2517354102	-0.467015974	-0.8727481383	-0.252817
C	 1.9666421622	-0.574331658	 0.5066259109	 0.060143
C	 0.5679129285	-0.520380634	 1.1883886261	-0.248565
C	 2.846110015	-1.7655179145	 0.7697995618	-0.034298
C	 4.3169582457	-1.7412753	 0.3863830642	-0.344204
C	 3.9038754328	-1.7290550981	 1.8366901141	 0.096335
O	 4.0171381336	-0.5460347073	 2.5766301097	-0.418191
H	 0.6554367677	 2.0631987148	 0.1413834245	 0.113935
H	-0.5004244817	 1.8709290601	-1.1833838315	 0.109052
H	-1.0602974901	 1.8278751545	 0.4965851276	 0.11043
H	-0.9575535324	-0.4833923326	-0.4618256435	 0.060682
H	 1.1186728644	-1.4495554125	-1.3368095389	 0.089295
H	 1.688205719	 0.2081964401	-1.6150482429	 0.08805
H	 2.5255656803	 0.3381950231	 0.7255296197	 0.076988
H	 0.4691255224	 0.1107785815	 2.075980768	 0.09666
H	 0.1991904869	-1.5217400086	 1.4335701252	 0.088437
H	 2.344186527	-2.7235577478	 0.6492407147	 0.07747
H	 4.7749538005	-2.6343640634	-0.0252459543	 0.107201
H	 4.6986193508	-0.8078495833	-0.0157022294	 0.111209
H	 4.0648312481	-2.6393794136	 2.4146154287	 0.082173
H	 4.9535494452	-0.3791193066	 2.7245307261	 0.28693
66.9132	72.324	124.3898	203.5971	255.8453	283.4493	304.864	315.978	377.747	407.2449	451.8224	562.5337	674.353	780.0835	798.0098	821.666	844.251	877.3237	901.0931	925.4747	951.2885	968.9313	1004.4297	1015.5508	1045.255	1058.8487	1060.7923	1120.6512	1134.8092	1138.846	1175.256	1211.1319	1226.0026	1236.8752	1246.601	1268.951	1274.8164	1283.2315	1301.2737	1321.3498	1367.7566	1411.3094	1413.9995	1434.3082	1473.4745	1487.6422	1495.4945	1499.1228	1501.7708	3022.3117	3038.8372	3040.7926	3053.5216	3076.1397	3089.5057	3089.8951	3092.9956	3094.5706	3102.4944	3124.1172	3127.171	3213.6275	3809.0777
CC1CC(C1)C1CC1O	C[C@H]1C[C@@H](C1)[C@H]1C[C@H]1O	
InChI=1S/C8H14O/c1-5-2-6(3-5)7-4-8(7)9/h5-9H,2-4H2,1H3	InChI=1S/C8H14O/c1-5-2-6(3-5)7-4-8(7)9/h5-9H,2-4H2,1H3/t5-,6-,7-,8-/m1/s1
