16
gdb 34264	4.19762	1.34307	1.21397	5.294	74.13	-0.2286	0.0082	0.2368	1017.8124	0.127557	-396.880645	-396.87382	-396.872876	-396.911802	27.308	
N	 0.0333580454	-1.1116559541	-0.1050710418	-0.346433
C	 0.0069251991	 0.0450170696	-0.0549086586	 0.165957
C	-0.0282132586	 1.4679049452	-0.0042309046	 0.263887
N	-1.132504237	 2.2318436377	 0.6284212482	-0.362788
C	-0.7709046346	 3.3905366645	-0.2866513742	-0.057219
C	 0.1149922263	 4.3312069502	 0.529704997	-0.134764
N	 1.2421431087	 3.4535175564	 0.9267903447	-0.295726
C	 1.2319838392	 2.3471137597	-0.0044513259	-0.054788
C	 0.2196442161	 2.5053481733	-1.0978565838	-0.179088
H	-2.006029179	 1.8290898475	 0.2931964782	 0.231053
H	-1.6140145489	 3.8569633447	-0.7919191691	 0.090303
H	 0.43768348	 5.1873365412	-0.0814365081	 0.092802
H	-0.4168043911	 4.7017856629	 1.41060855	 0.124504
H	 2.1297002369	 3.9386810091	 0.8849285203	 0.230241
H	 2.1693755454	 1.834355292	-0.1805822592	 0.120243
H	 0.3524163523	 2.40769058	-2.1674893431	 0.111814
135.4537	154.9623	251.5735	401.4631	429.5542	493.058	543.8331	577.2559	649.7233	715.0577	738.8569	824.8329	836.8174	873.4309	880.0072	904.1282	931.1673	961.5861	1021.0248	1031.8039	1043.9149	1071.476	1113.7849	1145.2044	1192.1164	1226.0454	1246.786	1262.8876	1271.1852	1323.2693	1376.4366	1421.9074	1449.3737	1497.4713	2339.8242	2994.3335	3087.1009	3142.3261	3192.7165	3205.4943	3476.3858	3555.5439
N#CC12NC3CNC1C23	N#C[C@@]12N[C@H]3CN[C@@H]1[C@@H]23	
InChI=1S/C6H7N3/c7-2-6-4-3(9-6)1-8-5(4)6/h3-5,8-9H,1H2	InChI=1S/C6H7N3/c7-2-6-4-3(9-6)1-8-5(4)6/h3-5,8-9H,1H2/t3-,4-,5+,6-/m0/s1
