18
gdb 84578	2.75746	1.84351	1.30165	1.8075	75.81	-0.2468	0.0083	0.2551	990.875	0.150347	-401.979725	-401.97242	-401.971476	-402.01166	28.529	
C	 0.1291661507	 1.6116568247	-0.0237895342	-0.388242
C	 0.0523147154	 0.0793848707	-0.0071307671	-0.05653
C	 0.7114176297	-0.5910986121	-1.1940805236	-0.069684
C	 1.5372802354	-1.5785387162	-0.8577135217	-0.078144
C	 1.6254042208	-1.7626260341	 0.638472094	-0.052923
N	 2.9858234839	-1.508123064	 1.16246498	-0.271059
C	 2.9061712014	-0.3983527209	 1.7669494669	 0.114358
O	 1.7200033407	 0.2527255552	 1.8539832246	-0.226207
C	 0.7450716324	-0.6036241269	 1.2023582785	 0.060831
H	 1.1662281818	 1.9540277364	-0.0404013303	 0.12819
H	-0.3776250071	 2.0046140569	-0.9109273532	 0.111684
H	-0.3529680302	 2.0416379292	 0.8591612936	 0.120131
H	-1.0113609736	-0.1993460822	 0.0175996941	 0.085631
H	 0.4965802841	-0.2786181061	-2.2109949249	 0.096992
H	 2.1116531899	-2.1922352863	-1.5411185256	 0.106398
H	 1.3033870493	-2.7608931463	 0.9538471688	 0.089977
H	 3.7291793253	 0.1166691506	 2.2508618968	 0.139288
H	 0.0307642001	-0.9048958586	 1.9721563236	 0.089309
67.8937	203.5431	220.6381	259.4462	312.2205	464.0185	489.1813	566.3983	624.3809	737.8189	768.8594	814.8247	852.5636	865.7476	908.4149	933.1904	959.825	970.1558	979.9322	1003.8119	1044.0977	1061.2149	1110.2975	1125.9598	1128.109	1158.5577	1250.4496	1278.7618	1298.845	1322.6297	1328.3481	1336.3608	1367.9638	1381.7211	1414.2019	1494.3928	1497.6822	1681.4981	1703.78	2993.5845	3042.724	3044.9249	3080.1314	3108.1536	3128.9874	3181.4395	3211.4784	3215.6242
CC1C=CC2N=COC12	C[C@H]1C=C[C@H]2N=CO[C@@H]12	
InChI=1S/C7H9NO/c1-5-2-3-6-7(5)9-4-8-6/h2-7H,1H3	InChI=1S/C7H9NO/c1-5-2-3-6-7(5)9-4-8-6/h2-7H,1H3/t5-,6+,7-/m0/s1
