17
gdb 37373	3.04924	1.85696	1.63689	1.5523	65.8	-0.2411	0.0891	0.3302	868.478	0.138657	-458.937681	-458.931388	-458.930444	-458.968053	26.132	
C	-0.0140213128	 1.5347177315	 0.0053399601	-0.086945
O	 1.301430226	 2.0778809155	-0.0635347697	-0.262346
C	 2.1269134115	 1.4765345083	-1.0570835328	-0.086946
C	 2.0509937594	-0.0533725528	-0.9673600584	 0.01401
O	 0.6806723293	-0.4155715024	-1.1778917178	-0.263457
C	 0.0365486799	 0.001374364	 0.0322941026	 0.01401
C	 1.0029597251	-0.4685897322	 1.1189466925	 0.046799
O	 1.6350035873	-1.7135753971	 0.8163074909	-0.251559
C	 2.3118070568	-0.5041581464	 0.4694383916	 0.046798
H	-0.4660728418	 1.951833051	 0.9112851559	 0.110593
H	-0.6135457011	 1.845614426	-0.863635769	 0.104178
H	 1.8108735547	 1.7797291766	-2.0667356523	 0.104178
H	 3.1391124682	 1.8538535181	-0.8777618214	 0.110593
H	 2.6550139894	-0.5464697483	-1.7333334656	 0.09328
H	-0.9593248998	-0.448241777	 0.060261056	 0.09328
H	 0.8485431476	-0.229576186	 2.1663690373	 0.106766
H	 3.2491141502	-0.2948199987	 0.9751038902	 0.106767
237.0001	241.6806	329.6337	342.3946	438.6269	462.9651	546.3667	692.7699	786.5841	804.5982	844.3505	851.9843	877.5048	886.5955	901.1325	933.2589	989.7511	1004.8929	1016.5198	1073.985	1077.7717	1101.7008	1110.6903	1136.2938	1228.9519	1235.7603	1274.1158	1282.9284	1298.8593	1324.793	1329.8183	1356.2705	1372.4591	1406.9296	1434.9875	1479.7791	1490.7792	2991.5522	2996.6007	3076.5924	3077.9726	3086.1373	3089.1532	3163.7259	3176.1631
C1OCC2OC1C1OC21	C1OC[C@@H]2O[C@H]1[C@H]1O[C@@H]21	
InChI=1S/C6H8O3/c1-3-5-6(9-5)4(8-3)2-7-1/h3-6H,1-2H2	InChI=1S/C6H8O3/c1-3-5-6(9-5)4(8-3)2-7-1/h3-6H,1-2H2/t3-,4+,5-,6+
