19
gdb 83333	2.12256	1.6909	1.54474	3.2422	71.07	-0.2297	0.0652	0.2949	1006.2387	0.158423	-460.134975	-460.126292	-460.125348	-460.167498	33.814	
C	 0.0558713564	 1.5070320466	-0.0057011661	-0.51019
C	 0.0194414941	 0.0117880337	 0.1015974807	 0.410799
O	 0.3833034814	-0.6194105283	-1.1376351225	-0.315218
C	 0.308391885	-2.0285610926	-0.8117831408	-0.076846
C	-0.156306334	-1.9483082131	 0.6428433217	-0.203632
C	 0.7924317835	-0.8144057701	 1.1626040796	 0.099671
O	 2.1762161557	-0.9117103354	 0.9615405227	-0.438137
C	-1.233398253	-0.8177491285	 0.508613675	 0.085086
O	-1.8177600473	-0.3583885204	 1.7059957681	-0.445425
H	 1.0848708679	 1.8522929332	-0.1419958198	 0.13492
H	-0.5368513252	 1.8436653866	-0.8615172986	 0.126077
H	-0.3529815103	 1.9571341655	 0.9028499386	 0.130235
H	-0.4068247675	-2.5290702516	-1.4747959715	 0.094196
H	 1.2960150139	-2.4882259564	-0.9211547842	 0.109672
H	-0.3357475572	-2.878512085	 1.1830799182	 0.060943
H	 0.5304714671	-0.5055029153	 2.1765042627	 0.090473
H	 2.573740942	-1.2839081072	 1.7537652866	 0.286123
H	-1.9715686849	-0.9461516907	-0.2931067358	 0.074417
H	-2.4238998376	-1.0346683308	 2.0244526854	 0.286834
186.0607	193.9403	208.353	226.054	246.281	270.3702	291.3579	308.7108	379.4901	452.3683	522.6246	635.5375	651.527	729.7839	804.2328	851.5513	894.6563	900.9906	934.1259	957.9762	997.8317	1023.8734	1088.6694	1121.5106	1134.1172	1147.6013	1169.5297	1200.4607	1203.0374	1230.0127	1238.9683	1280.3713	1302.5502	1340.13	1366.4258	1410.5322	1414.1849	1459.965	1482.5137	1492.1876	1516.1602	3025.5754	3030.1815	3044.5008	3076.3971	3092.841	3113.234	3115.941	3125.487	3814.7182	3834.2806
CC12OCC(C1O)C2O	C[C@@]12OC[C@@H]([C@H]1O)[C@H]2O	
InChI=1S/C6H10O3/c1-6-4(7)3(2-9-6)5(6)8/h3-5,7-8H,2H2,1H3	InChI=1S/C6H10O3/c1-6-4(7)3(2-9-6)5(6)8/h3-5,7-8H,2H2,1H3/t3-,4-,5-,6+/m1/s1
