21
gdb 115477	4.84496	0.83235	0.76603	1.3219	82.7	-0.2459	0.0147	0.2605	1574.7014	0.181394	-424.232471	-424.222674	-424.22173	-424.267964	34.961	
C	-0.4347347142	 1.3837113916	-0.0558871741	-0.375968
C	 0.1652297335	-0.031612905	 0.0279817359	-0.293621
C	 0.9036371784	-0.4453102526	-1.2084957817	 0.320601
C	 2.197192726	-0.7206072534	-1.3544112465	-0.2488
C	 2.4775495928	-1.1749013599	-2.7580991877	 0.191484
O	 2.8413163239	-2.5322725446	-2.7311287208	-0.240166
C	 3.2053450684	-3.0424810671	-4.0003064026	-0.237736
O	 1.2637510822	-0.9494004888	-3.4616786632	-0.270866
C	 0.2215146868	-0.6514222227	-2.539737113	-0.166162
H	 0.3472158878	 2.1294995517	-0.2285021634	 0.124858
H	-1.1614675463	 1.4663714271	-0.8699121569	 0.121729
H	-0.9488612037	 1.6390406653	 0.8754393329	 0.117855
H	 0.8413046448	-0.092884767	 0.8872077999	 0.110068
H	-0.6451599441	-0.7490171639	 0.2181085627	 0.110514
H	 2.9592259184	-0.7049858738	-0.5864812768	 0.104367
H	 3.2643460127	-0.608475161	-3.2848778314	 0.065453
H	 2.3630664118	-3.0141578512	-4.7021190873	 0.123822
H	 4.0434514633	-2.476132324	-4.4357855992	 0.101505
H	 3.517957445	-4.0786205223	-3.8521695758	 0.122986
H	-0.5129126959	-1.4716870626	-2.4909019322	 0.10732
H	-0.3100606317	 0.2414995642	-2.8951536491	 0.110754
46.7343	87.9508	108.8652	132.333	188.7404	212.3439	236.526	316.6919	324.0724	470.808	513.4808	545.2138	608.3158	780.2697	803.7727	855.0143	895.4548	932.7419	971.8178	989.714	1006.2821	1022.1066	1062.542	1085.9037	1100.7418	1129.9705	1178.6366	1202.9602	1209.1545	1217.0901	1263.509	1314.2138	1353.8809	1368.2918	1389.4317	1399.7185	1409.7388	1475.2689	1480.0723	1484.0169	1498.8527	1505.1736	1512.6138	1513.2527	1726.6579	2956.7006	2976.0722	2985.0473	3014.6118	3024.2774	3040.1005	3057.5094	3068.5399	3111.5411	3113.6604	3120.4116	3223.399
CCC1=CC(OC)OC1	CCC1=C[C@@H](OC)OC1	
InChI=1S/C7H12O2/c1-3-6-4-7(8-2)9-5-6/h4,7H,3,5H2,1-2H3	InChI=1S/C7H12O2/c1-3-6-4-7(8-2)9-5-6/h4,7H,3,5H2,1-2H3/t7-/m0/s1
