19
gdb 56695	1.99252	1.35116	1.22454	0.8773	86.96	-0.2445	0.0427	0.2871	1192.1398	0.155692	-348.67634	-348.666456	-348.665512	-348.710771	37.376	
C	 0.1258116605	 1.4131158363	-0.2946449002	-0.398738
C	 0.0077036586	-0.0828858025	 0.0554232777	-0.243483
C	 0.6422747873	-0.381434296	 1.3395616182	 0.352496
C	 1.1675250371	-0.6172886158	 2.3945105433	-0.473349
C	-1.4545047681	-0.5662374357	 0.0255188985	 0.162139
C	-2.0065433064	-1.0287677519	-1.316074063	-0.309756
C	-1.7020189489	-2.0397114847	-0.2485457238	-0.295319
C	-2.3571296039	 0.1071166182	 0.9209045722	 0.29959
C	-3.1115169981	 0.6766749599	 1.6650852908	-0.463354
H	 1.1734190628	 1.7238253614	-0.3021799391	 0.123505
H	-0.3051554641	 1.6040186907	-1.2820041713	 0.116052
H	-0.4098951447	 2.0188472939	 0.4401094254	 0.14248
H	 0.5356864903	-0.6560975558	-0.718881107	 0.101181
H	 1.6272625168	-0.8288697027	 3.3278965415	 0.194674
H	-3.0439347986	-0.8032427911	-1.5312243172	 0.129405
H	-1.3423393004	-0.9651923135	-2.1718029365	 0.117891
H	-0.8251847803	-2.6676476307	-0.3644273525	 0.123448
H	-2.5305416844	-2.5091909687	 0.2672822783	 0.129421
H	-3.7745589957	 1.1731006587	 2.3291967744	 0.191717
59.4088	116.3919	147.777	201.9627	216.0561	237.0787	253.3614	321.0292	387.1376	451.1614	527.7896	560.5917	572.6753	591.7077	625.5261	637.157	652.1191	702.8744	778.0421	844.3236	905.8257	922.9597	950.0423	974.6146	1023.7989	1064.084	1084.6528	1097.6626	1122.3161	1192.1001	1254.7457	1284.7677	1325.7173	1365.6031	1404.8857	1467.2522	1490.9103	1496.2226	1498.6075	2233.2533	2236.4141	3011.0919	3046.5206	3121.0782	3133.3314	3135.5298	3142.7197	3223.0485	3237.8462	3503.7464	3505.1879
CC(C#C)C1(CC1)C#C	C[C@@H](C#C)C1(CC1)C#C	
InChI=1S/C9H10/c1-4-8(3)9(5-2)6-7-9/h1-2,8H,6-7H2,3H3	InChI=1S/C9H10/c1-4-8(3)9(5-2)6-7-9/h1-2,8H,6-7H2,3H3/t8-/m0/s1
