18
gdb 70268	3.74625	1.08352	0.95584	4.4061	75.95	-0.2713	0.0343	0.3056	1229.6887	0.14882	-401.963501	-401.955415	-401.95447	-401.995964	31.587	
O	-0.0978885577	 1.348396194	-0.7864238492	-0.466184
C	-0.0825059511	 0.08050469	-0.208794963	 0.407691
C	-0.1404133326	-1.1427116286	-1.0906835737	-0.359018
C	-1.3335423042	-0.7549164824	-0.2322202841	-0.077145
C	-1.4971457389	-1.4289173565	 1.1182666037	-0.228824
C	-0.0774933898	-1.3444769964	 1.7604417835	-0.166201
C	 0.5579185069	-0.0566906141	 1.1661046255	-0.291758
C	-0.0991086924	-1.3638007698	 3.2186697902	 0.265221
N	-0.1212323396	-1.3732057713	 4.3744664888	-0.323596
H	 0.7682907686	 1.5144551611	-1.174360144	 0.285535
H	-0.2467274132	-0.9464665999	-2.1517808556	 0.119564
H	 0.4428205714	-2.0281153332	-0.8552238281	 0.110932
H	-2.2158753541	-0.3857280672	-0.7412551666	 0.104243
H	-2.2151578825	-0.869512111	 1.7265089014	 0.128388
H	-1.845998308	-2.464281121	 1.0638350498	 0.118078
H	 0.5088253054	-2.2112914542	 1.4381151177	 0.12985
H	 1.6509118713	-0.1167300913	 1.1488484739	 0.110104
H	 0.2784125505	 0.8191015417	 1.7601787698	 0.133121
99.6343	152.4366	219.1939	280.1751	299.2013	354.424	378.9142	428.1312	509.4352	544.5413	564.9818	584.5071	713.4439	833.3889	845.2399	892.3748	902.6585	925.1684	972.4178	1022.853	1037.0904	1041.5837	1068.1623	1095.3283	1105.7691	1158.1351	1216.5201	1247.7357	1267.7118	1293.8818	1308.895	1327.4896	1337.0805	1367.1972	1413.5244	1484.364	1491.0268	1508.6148	2357.2556	3049.0843	3051.5143	3054.3117	3095.3181	3099.4667	3124.2905	3186.7444	3215.6253	3797.6157
OC12CC1CC(C2)C#N	O[C@]12C[C@H]1C[C@@H](C2)C#N	
InChI=1S/C7H9NO/c8-4-5-1-6-3-7(6,9)2-5/h5-6,9H,1-3H2	InChI=1S/C7H9NO/c8-4-5-1-6-3-7(6,9)2-5/h5-6,9H,1-3H2/t5-,6+,7+/m0/s1
