14
gdb 26803	3.80596	1.11516	0.86508	1.6474	81.07	-0.1803	-0.0082	0.1721	1248.1335	0.099366	-436.672833	-436.664076	-436.663132	-436.705979	32.351	
N	 0.1788118484	 1.3406090919	-0.1455995263	-0.610604
C	-0.0065640722	-0.0258849014	-0.0631013188	 0.287268
C	-1.1412039077	-0.7948338406	-0.0409443889	 0.225117
O	-2.411813562	-0.2801613918	 0.0449183152	-0.456474
C	-0.7071178616	-2.1510565872	-0.0285568021	-0.424122
C	 0.661665736	-2.1262676694	-0.0427890315	 0.222954
O	 1.0912921864	-0.805565335	-0.0609118348	-0.204874
C	 1.6370170029	-3.1294680334	-0.0314973576	 0.253224
C	 2.4704251105	-4.0016916031	-0.0229230824	-0.4253
H	 0.9533786409	 1.6785688247	 0.4123558712	 0.260198
H	-0.6739658937	 1.8402279182	 0.0703767846	 0.264674
H	-2.9348877285	-0.6065174999	-0.6948371498	 0.30078
H	-1.3224363401	-3.0364623829	 0.0005625588	 0.118613
H	 3.2025815209	-4.77010831	-0.0130926477	 0.188547
120.7932	137.2758	150.587	217.8926	259.9811	271.2976	324.7344	420.8485	448.4901	482.3731	531.1485	587.6848	646.1161	653.7295	670.5195	693.064	742.8276	818.4644	830.11	965.5904	1085.3051	1154.9916	1165.0406	1231.901	1314.8901	1359.1534	1472.1982	1571.8918	1629.1422	1697.6112	2219.195	3260.5546	3504.8812	3536.5658	3638.7444	3801.2453
NC1=C(O)C=C(O1)C#C	Nc1c(O)cc(o1)C#C	
InChI=1S/C6H5NO2/c1-2-4-3-5(8)6(7)9-4/h1,3,8H,7H2	InChI=1S/C6H5NO2/c1-2-4-3-5(8)6(7)9-4/h1,3,8H,7H2
