21
gdb 52089	4.84183	0.72859	0.72163	2.7189	84.82	-0.2484	-0.0196	0.2289	1621.3891	0.182184	-387.054494	-387.045722	-387.044778	-387.089288	32.66	
O	-0.1484726417	-0.0694488054	-0.2198113211	-0.236789
C	-0.0068192451	 1.1224809322	-0.1284092409	 0.159604
C	 1.3191589952	 1.8457879153	-0.1340920467	-0.273417
C	 1.3840989971	 2.9120628854	-1.2441685545	-0.360657
C	 2.6506444583	 3.7328754826	-1.202644958	 0.380808
C	 4.1243591602	 3.2292338413	-1.3397310522	-0.247247
C	 4.2234192251	 4.7706351567	-1.1693478448	-0.041681
C	 3.0444423563	 4.8892507623	-2.1742407888	-0.266264
C	 3.1612737224	 4.6475625901	-0.0414688647	-0.249715
H	-0.8918588213	 1.7972409389	-0.0366069568	 0.067908
H	 1.4294943429	 2.3410726404	 0.8415520374	 0.121193
H	 2.1208287086	 1.1090419596	-0.2349058957	 0.12492
H	 1.301862392	 2.4234412666	-2.2235663884	 0.113311
H	 0.5187258183	 3.5835206297	-1.1585737603	 0.10358
H	 4.5156292483	 2.6190310424	-0.5204941942	 0.089569
H	 4.4119225513	 2.8217669791	-2.3135081341	 0.089394
H	 5.1328456161	 5.3709762148	-1.1488644775	 0.073536
H	 3.2498141894	 4.6067017293	-3.2110396066	 0.088779
H	 2.4399245397	 5.7997041636	-2.1202927484	 0.087342
H	 2.5665702878	 5.5403513932	 0.1745263616	 0.087472
H	 3.480226439	 4.1480858919	 0.8781708846	 0.088352
53.749	62.5127	92.4379	134.5689	284.0578	306.0425	348.1268	515.7934	541.8434	549.9311	670.4987	749.1399	785.4419	804.6593	856.8939	882.2467	934.5651	950.2937	961.0029	969.0405	998.5101	1007.0713	1052.7362	1071.0991	1102.5654	1105.0387	1144.2019	1145.5067	1161.9006	1166.6714	1217.3238	1229.4505	1237.72	1246.4871	1274.7078	1312.7172	1320.9234	1377.1932	1430.1263	1463.3891	1486.6133	1497.7514	1498.037	1555.0236	1836.3946	2843.5287	3009.8739	3015.7675	3038.2638	3039.6851	3047.6997	3050.6623	3101.1348	3102.9942	3106.8698	3108.5108	3112.4548
O=CCCC12CC(C1)C2	O=CCC[C@@]12C[C@@H](C1)C2	
InChI=1S/C8H12O/c9-3-1-2-8-4-7(5-8)6-8/h3,7H,1-2,4-6H2	InChI=1S/C8H12O/c9-3-1-2-8-4-7(5-8)6-8/h3,7H,1-2,4-6H2/t7-,8+
