19
gdb 12820	3.44594	1.92962	1.54368	0.7754	70.75	-0.2407	0.0739	0.3146	893.4967	0.167615	-365.046332	-365.039029	-365.038085	-365.07743	28.873	
C	-0.0268912003	 1.5221384411	 0.0085440344	-0.448895
C	 0.0060554542	 0.0101449097	 0.0315713326	 0.331179
C	-1.2250708328	-0.6725440604	-0.5465021367	-0.270275
C	-1.2807770633	-2.1657778923	-0.2124846972	-0.104337
O	-1.1031861568	-2.3796452283	 1.172805465	-0.235934
C	 0.2066120286	-2.0584981933	 1.6085504189	-0.10521
C	 0.7262367038	-0.7114933807	 1.1197902395	-0.07136
N	 1.3335446196	-0.5784281799	-0.2226823551	-0.371058
H	 0.9065317521	 1.9315097894	 0.4023052048	 0.126541
H	-0.1506148597	 1.8916072777	-1.0162243847	 0.11632
H	-0.8601771121	 1.9058115948	 0.6077137889	 0.114525
H	-2.1172179738	-0.1907854306	-0.1289425024	 0.110369
H	-1.2627564305	-0.5268162423	-1.6344075428	 0.099326
H	-2.2606503707	-2.5781820555	-0.4687977111	 0.112674
H	-0.5282585915	-2.7319184477	-0.7906203089	 0.082693
H	 0.1628507027	-2.0611190851	 2.7016195625	 0.115225
H	 0.9082375961	-2.8563096846	 1.3051338193	 0.091345
H	 1.2442210818	-0.1269636713	 1.8774885765	 0.090056
H	 1.2486216625	-1.4598116109	-0.7266080134	 0.216816
145.6171	195.8028	232.1765	318.7219	341.2697	385.0489	399.9413	475.9869	550.0945	640.5789	703.9916	792.0435	846.5659	884.3007	913.2178	972.4526	997.1752	1021.3855	1028.6051	1052.6016	1073.5729	1124.3764	1149.873	1158.1531	1207.9641	1250.17	1265.461	1294.1601	1320.3407	1344.4166	1372.6019	1392.3323	1411.9497	1424.1682	1445.9005	1477.4702	1488.8887	1493.9125	1498.9825	1508.2541	2940.4726	2947.7654	3019.3029	3028.9374	3061.5	3079.7201	3086.8858	3089.5456	3121.3463	3124.4487	3474.0391
CC12CCOCC1N2	C[C@]12CCOC[C@H]1N2	
InChI=1S/C6H11NO/c1-6-2-3-8-4-5(6)7-6/h5,7H,2-4H2,1H3	InChI=1S/C6H11NO/c1-6-2-3-8-4-5(6)7-6/h5,7H,2-4H2,1H3/t5-,6+/m1/s1
