23
gdb 41819	2.17649	1.89281	1.39966	1.5267	83.55	-0.236	0.0717	0.3076	1058.2363	0.21052	-388.317442	-388.309729	-388.308785	-388.349633	31.555	
C	 0.2289538035	 1.6900017189	 0.1634020572	-0.071944
O	 1.4968995228	 2.0202398565	-0.3966349553	-0.275173
C	 2.0334192209	 0.8965661715	-1.1091633773	 0.129535
C	 0.8788262523	-0.1207924502	-1.1985398034	-0.252529
C	 0.0752996364	 0.1600130876	 0.0847485383	-0.013015
C	 0.5758097291	-0.606326016	 1.3359649457	-0.206898
C	 2.0548612526	-1.0378218297	 1.3775752438	-0.190062
C	 3.0914569493	 0.0623158099	 1.0967080964	-0.184949
C	 3.2909098253	 0.3945868575	-0.3888617635	-0.201807
H	 0.1868484444	 2.0712345748	 1.190551727	 0.096049
H	-0.5672351673	 2.1860641532	-0.4132804194	 0.085615
H	 2.3196774476	 1.2420420833	-2.1108661959	 0.06802
H	 0.2635505678	 0.0976361683	-2.0773024608	 0.097824
H	 1.2258103356	-1.1525740461	-1.2882101269	 0.100342
H	-0.9819466565	-0.083755583	-0.0568243155	 0.06973
H	 0.3619495478	 0.0059305536	 2.2217000017	 0.095327
H	-0.031288837	-1.5124568477	 1.4501260422	 0.092687
H	 2.2393297234	-1.4561039058	 2.3743324653	 0.091036
H	 2.218556019	-1.8684327138	 0.6781037133	 0.091677
H	 2.8143585766	 0.9789981248	 1.6310375914	 0.106057
H	 4.0592155344	-0.2499907564	 1.5060282119	 0.088379
H	 3.6724569845	-0.4857155866	-0.9245281617	 0.085609
H	 4.0613335774	 1.1699371956	-0.4753985845	 0.098491
64.3946	174.661	277.8594	305.5156	332.9594	365.2267	407.3458	485.0637	547.4814	713.2528	730.3953	767.0946	788.991	835.0938	849.4781	880.1119	894.3693	937.2879	955.2735	994.6627	1008.5883	1028.7181	1053.7808	1063.1333	1095.1035	1126.1515	1149.0741	1179.7518	1199.4781	1220.5291	1228.1585	1247.1344	1290.161	1295.8551	1329.8289	1341.9829	1356.468	1363.6869	1374.4047	1390.216	1395.4801	1405.7347	1409.4886	1476.027	1483.6548	1486.6599	1493.9669	1508.4463	1526.4622	2976.4829	3007.3055	3013.9124	3016.9562	3021.0479	3027.7809	3044.2579	3047.48	3052.0525	3057.7414	3060.3476	3066.6085	3071.4407	3109.4986
C1OC2CC1CCCC2	C1O[C@@H]2C[C@H]1CCCC2	
InChI=1S/C8H14O/c1-2-4-8-5-7(3-1)6-9-8/h7-8H,1-6H2	InChI=1S/C8H14O/c1-2-4-8-5-7(3-1)6-9-8/h7-8H,1-6H2/t7-,8+/m1/s1
