21
gdb 66128	2.77736	1.33363	1.22455	2.7796	81.69	-0.2424	-0.0169	0.2255	1136.4268	0.182802	-387.107485	-387.098836	-387.097892	-387.140629	33.624	
C	 0.0040803183	 1.5748824342	 0.0343934937	-0.436211
C	 0.01345816	 0.0462953005	 0.0454294692	 0.185675
C	 0.7432228295	-0.5802387172	-1.1887671671	-0.278618
C	 1.3198669518	-1.9375766474	-0.7240112972	-0.226315
C	 1.5441636518	-1.7758897103	 0.772294112	-0.024201
C	 2.2625958421	-0.5318825397	 1.2282476287	-0.309496
C	 0.7528338063	-0.574481222	 1.2400820496	-0.049908
C	-1.4078946286	-0.4977423267	 0.0742259127	 0.141925
O	-2.4096760384	 0.1696301897	 0.1173167116	-0.259771
H	 1.0266653929	 1.9625704223	 0.0543983964	 0.107907
H	-0.497138494	 1.959372837	-0.858684922	 0.122423
H	-0.5332933744	 1.9687513802	 0.901027758	 0.125964
H	 0.0790202975	-0.680637723	-2.0526950375	 0.1094
H	 1.5451503676	 0.0975557974	-1.4958135317	 0.111649
H	 0.5983353982	-2.7440618939	-0.8979543225	 0.105153
H	 2.2306319898	-2.2021836057	-1.2723188007	 0.101727
H	 1.6211181732	-2.6676568241	 1.384328747	 0.084551
H	 2.7558460251	-0.5676264102	 2.1933340027	 0.114674
H	 2.7755842758	 0.0861391601	 0.4982586518	 0.111721
H	 0.2532533666	-0.5667331961	 2.2034623022	 0.08933
H	-1.4694748511	-1.6112150051	 0.054586913	 0.07242
69.7451	138.9938	207.7978	216.2831	266.4705	305.65	349.7935	360.3361	421.4163	490.5347	637.2335	669.77	746.9385	801.2127	820.5929	834.3372	894.9561	903.1269	950.1085	956.4533	994.651	1010.9087	1039.2995	1056.7783	1068.2198	1085.1132	1113.6509	1143.4128	1174.1385	1194.7796	1212.0941	1243.7191	1257.2836	1318.6481	1333.9267	1361.0639	1387.5393	1409.0773	1433.0408	1486.4096	1486.7358	1492.1133	1495.2015	1513.4209	1826.5015	2856.3114	3035.549	3043.8458	3055.2672	3069.0898	3094.491	3114.8323	3120.1024	3130.4214	3157.3075	3171.2947	3212.7287
CC1(CCC2CC12)C=O	C[C@]1(CC[C@H]2C[C@@H]12)C=O	
InChI=1S/C8H12O/c1-8(5-9)3-2-6-4-7(6)8/h5-7H,2-4H2,1H3	InChI=1S/C8H12O/c1-8(5-9)3-2-6-4-7(6)8/h5-7H,2-4H2,1H3/t6-,7+,8-/m0/s1
