20
gdb 59243	2.59153	1.47766	1.3102	3.8873	74.14	-0.2392	0.0653	0.3045	1075.927	0.172019	-440.240599	-440.232342	-440.231398	-440.272992	33.082	
C	 0.0820779255	 1.5402226326	-0.0138380662	-0.392024
C	 0.0448074794	 0.0148299087	-0.0015455544	 0.112891
O	 0.8139647567	-0.4206394957	 1.1256373803	-0.45054
C	-1.3911499511	-0.5268837473	 0.0556016369	-0.092877
C	-1.5932298756	-2.0501531471	 0.0323735027	-0.067306
N	-0.8343425736	-2.5890925211	 1.1934617078	-0.359527
C	-2.2073112648	-2.0546663215	 1.3898700502	-0.088287
C	-2.1222563593	-0.5180582706	 1.4683197498	 0.142612
O	-1.5187600032	 0.1059596539	 2.5581254422	-0.43656
H	 1.1193101947	 1.885445091	 0.0068584661	 0.123144
H	-0.3977856844	 1.9341322346	-0.9151826601	 0.106228
H	-0.4343168878	 1.939555948	 0.8635057092	 0.136332
H	 0.5156682056	-0.3602261002	-0.9264787202	 0.069143
H	 0.5880489317	-1.3626502137	 1.256499467	 0.297414
H	-1.9983010022	-0.0305835587	-0.7065704408	 0.079146
H	-1.8052265199	-2.6809003408	-0.8217908637	 0.099424
H	-0.8982896288	-3.6044223507	 1.171368485	 0.239618
H	-2.9724324585	-2.6997817324	 1.8046533372	 0.098605
H	-3.1291621893	-0.1010533502	 1.3686841348	 0.092389
H	-0.5616329052	-0.0314316988	 2.4595474463	 0.290176
118.442	164.4529	210.7278	249.893	272.1985	330.5351	378.5703	409.5544	499.6896	590.5632	632.7676	643.6553	729.234	764.2303	812.3815	837.6408	841.4177	894.2023	900.9671	943.2975	980.3907	1017.7804	1033.1713	1044.3781	1091.6979	1100.8329	1125.3078	1153.8075	1161.3174	1183.3861	1255.5163	1257.9001	1312.1896	1322.6782	1338.9923	1352.1358	1369.3333	1389.4233	1402.8328	1475.454	1482.746	1496.	1506.9494	2949.0094	3042.37	3059.8542	3076.6446	3116.5754	3126.1837	3184.5075	3199.2731	3498.5511	3522.1722	3653.7252
CC(O)C1C2NC2C1O	C[C@@H](O)[C@H]1[C@H]2N[C@H]2[C@H]1O	
InChI=1S/C6H11NO2/c1-2(8)3-4-5(7-4)6(3)9/h2-9H,1H3	InChI=1S/C6H11NO2/c1-2(8)3-4-5(7-4)6(3)9/h2-9H,1H3/t2-,3+,4-,5-,6+/m1/s1
