15
gdb 66049	2.46876	1.34108	1.11954	2.4698	72.74	-0.2534	-0.0032	0.2502	1117.2304	0.110732	-416.743725	-416.734843	-416.733899	-416.777312	32.484	
O	-0.0076810606	 1.4562934429	-0.0489701594	-0.439159
C	 0.0357319508	 0.0570088778	-0.0124086468	 0.271634
C	 0.1789239953	-0.5672154129	 1.4106997737	-0.225142
N	-1.2911831021	-0.687721911	 1.484683161	-0.302957
C	-1.4229275716	-0.5389621348	 0.0124733912	-0.252762
C	-2.5133796253	 0.2868277762	-0.465683539	 0.388698
C	-3.4312021101	 0.9421545479	-0.8787736894	-0.422895
C	 0.9316124022	-0.4813104758	-1.0414511472	 0.226455
N	 1.6612064992	-0.8958988875	-1.8365731722	-0.332636
H	 0.8879352847	 1.7961577552	 0.0615475857	 0.297678
H	 0.7334237835	-1.5139961018	 1.3960462615	 0.117059
H	 0.6149876252	 0.1034803039	 2.1577535925	 0.121835
H	-1.6420335517	-1.5647107861	 1.851903092	 0.232237
H	-1.4219676597	-1.4967752312	-0.5267986998	 0.1159
H	-4.2363009897	 1.5357162073	-1.2361554839	 0.204054
79.5667	130.2702	145.1716	199.6833	227.2315	269.0962	337.7087	383.3136	453.3316	512.3392	554.0011	602.0614	616.0806	636.9075	673.2272	727.3405	872.3355	925.7547	965.9074	993.2476	1021.2783	1081.0677	1136.3676	1158.8471	1177.177	1257.116	1318.9653	1351.7856	1364.6998	1388.5098	1502.142	2243.292	2350.5069	3000.369	3019.9324	3080.3593	3502.1782	3544.6229	3801.7618
OC1(CNC1C#C)C#N	O[C@]1(CN[C@H]1C#C)C#N	
InChI=1S/C6H6N2O/c1-2-5-6(9,3-7)4-8-5/h1,5,8-9H,4H2	InChI=1S/C6H6N2O/c1-2-5-6(9,3-7)4-8-5/h1,5,8-9H,4H2/t5-,6-/m0/s1
