15
gdb 30966	2.37669	1.44141	0.93045	5.2784	65.67	-0.1885	0.0378	0.2263	1200.2594	0.112073	-491.115175	-491.106298	-491.105353	-491.148972	31.84	
C	-0.2282815196	 1.3452782764	-0.1613777965	-0.334619
N	 0.5400675864	 0.128983937	 0.1224634541	-0.392607
C	 0.8436284072	-0.6920629887	-0.944815982	 0.314536
C	 0.6450870315	-1.9933597575	-1.1999608841	 0.191773
O	 0.0343853731	-2.9535354014	-0.4597087008	-0.427664
N	 1.292522635	-2.2735197513	-2.4249400061	-0.42704
C	 1.9066937548	-1.1333672531	-2.8881399699	 0.482152
O	 2.5759322607	-0.9561933407	-3.8682431059	-0.397839
O	 1.5954533886	-0.1400903913	-1.9709870162	-0.234445
H	 0.3080453719	 1.9356312999	-0.9068495839	 0.159227
H	-1.2422883277	 1.1461698753	-0.5401952243	 0.108862
H	-0.3013960131	 1.9363982005	 0.7542745567	 0.129217
H	 0.1534435133	-0.4131922554	 0.8838438484	 0.247084
H	-0.8207836134	-3.1728969883	-0.8523031689	 0.307006
H	 1.5573311014	-3.1876400415	-2.7510684004	 0.274355
73.1502	133.2845	171.0481	182.8596	270.7559	272.3861	282.3747	328.7053	390.4276	462.4085	579.17	627.5292	642.4006	669.4933	697.2496	759.4892	848.5999	954.6286	1036.1431	1060.4515	1147.2048	1164.0765	1225.1089	1269.4399	1295.6529	1337.76	1425.0889	1467.2706	1478.1871	1497.2555	1518.9299	1801.1549	1904.2937	2988.366	3097.5572	3140.9828	3582.6808	3672.9856	3737.8568
CNC1=C(O)NC(=O)O1	CNc1c(O)[nH]c(=O)o1	
InChI=1S/C4H6N2O3/c1-5-3-2(7)6-4(8)9-3/h5,7H,1H3,(H,6,8)	InChI=1S/C4H6N2O3/c1-5-3-2(7)6-4(8)9-3/h5,7H,1H3,(H,6,8)
