16
gdb 50269	2.37352	1.38406	1.02683	3.8457	77.86	-0.2284	-0.0256	0.2027	1164.5509	0.122676	-400.674587	-400.666215	-400.665271	-400.708044	31.176	
O	-0.0992623319	-0.0353280799	-0.2188256294	-0.257287
C	-0.0092104287	 1.1084765765	 0.1527624218	 0.151748
C	 1.2457429794	 1.9353863027	 0.0230365197	-0.15469
C	 1.1781394449	 3.21715926	-0.898069577	-0.244756
C	 1.5229113739	 4.0791013504	 0.3174706549	-0.113421
N	 0.4546539958	 3.846326943	 1.3006464212	-0.367839
C	 1.5873438777	 2.8727487126	 1.2097776324	 0.208189
C	 2.4199197729	 2.5808966786	 2.3212628309	 0.167749
C	 3.1256700847	 2.3062311163	 3.2568894045	-0.396766
H	-0.8657154623	 1.641819662	 0.6144381201	 0.101289
H	 2.0804378244	 1.2882471044	-0.2478496457	 0.105261
H	 1.9563611934	 3.1953895866	-1.6617178317	 0.123457
H	 0.2126055193	 3.4382830055	-1.3589137763	 0.1231
H	 2.1249218744	 4.9784275132	 0.3484624907	 0.115369
H	 0.641208732	 4.4326546012	 2.1138733315	 0.243399
H	 3.7498869	 2.0667604171	 4.0820407324	 0.1952
57.4141	125.338	160.1252	172.7751	278.5429	375.8596	419.6242	458.9817	526.1541	543.5818	587.3337	613.1504	670.7816	712.0802	836.0227	865.638	896.7528	908.2162	993.0474	999.1155	1046.197	1073.5681	1088.6422	1140.6858	1177.9744	1204.7878	1222.0968	1277.2043	1285.2647	1344.8959	1391.3876	1422.0052	1477.4941	1820.4781	2233.0832	2926.8155	3075.4271	3116.0228	3139.8948	3200.7998	3482.2858	3500.8524
O=CC1CC2NC12C#C	O=C[C@H]1C[C@H]2N[C@@]12C#C	
InChI=1S/C7H7NO/c1-2-7-5(4-9)3-6(7)8-7/h1,4-6,8H,3H2	InChI=1S/C7H7NO/c1-2-7-5(4-9)3-6(7)8-7/h1,4-6,8H,3H2/t5-,6-,7+/m1/s1
