17
gdb 19701	4.50764	1.67681	1.56522	2.7494	66.66	-0.2468	0.0756	0.3224	861.5042	0.143851	-363.783204	-363.776506	-363.775562	-363.81414	26.331	
O	 0.0498982142	 1.3769345478	 0.1906717212	-0.424078
C	 0.1237887988	-0.0089630264	-0.1024882701	-0.088064
C	-1.2660799306	-0.6216706429	-0.0603211382	 0.068645
C	-1.5653250053	-2.133498013	-0.1051807587	-0.11881
C	-0.7465989262	-2.7180877962	 1.0788007615	-0.24964
C	-1.6311065236	-1.8488090321	 1.9691359714	-0.033468
C	-2.6966463912	-1.7848257878	 0.9434402051	-0.045052
N	-1.9530118728	-0.5404695169	 1.2795531332	-0.17479
H	-0.4951774057	 1.4572077986	 0.9829682122	 0.294498
H	 0.5493880861	-0.0994643298	-1.1086554778	 0.106082
H	 0.8042132759	-0.5221085763	 0.5924951251	 0.086795
H	-1.9076936706	-0.0778683036	-0.761980494	 0.08976
H	-1.6650135918	-2.6790769546	-1.0414863696	 0.075901
H	-0.9860167536	-3.7735080468	 1.2329903425	 0.109614
H	 0.3389200246	-2.584883406	 1.0875104721	 0.100997
H	-1.7184197129	-1.8402195541	 3.047380948	 0.100694
H	-3.7736177351	-1.8842063399	 0.9710028562	 0.100914
90.5143	187.9275	227.2106	381.7511	411.8008	496.7371	568.7122	693.6965	717.8842	781.19	833.6949	854.4767	884.559	916.9185	966.7551	987.4937	999.8288	1009.7194	1051.4953	1055.6095	1084.3	1118.1107	1130.1032	1149.1323	1167.1201	1204.8378	1220.824	1242.4939	1271.9215	1287.8202	1332.9979	1351.4788	1402.0465	1439.1063	1502.2762	1508.2497	2996.0702	3051.4267	3055.9217	3067.0274	3107.7787	3135.2372	3199.7491	3214.343	3785.0904
OCC1C2CC3C2N13	OC[C@H]1[C@H]2C[C@@H]3[C@H]2N13	
InChI=1S/C6H9NO/c8-2-5-3-1-4-6(3)7(4)5/h3-6,8H,1-2H2	InChI=1S/C6H9NO/c8-2-5-3-1-4-6(3)7(4)5/h3-6,8H,1-2H2/t3-,4-,5+,6+,7?/m1/s1
