14
gdb 132118	3.05195	1.38996	0.95684	4.171	70.24	-0.197	-0.037	0.16	1119.6261	0.101945	-478.031448	-478.023794	-478.02285	-478.06351	29.145	
N	 0.0465044315	 1.4830171989	 0.1504994022	-0.605293
C	 0.0278152625	 0.0729503372	 0.0425040772	 0.056699
C	-1.118881691	-0.6566658285	 0.0059719013	 0.35878
F	-2.3250372076	-0.0901638812	 0.0031029137	-0.06563
N	-1.1282777988	-2.0142387652	-0.0104435118	-0.44344
C	 0.0237681213	-2.8356981196	-0.0339598825	 0.428876
O	-0.0906990527	-4.0490721373	-0.0657390716	-0.399225
C	 1.244717763	-2.0549469347	-0.0082922896	-0.261069
C	 1.2316874002	-0.6936797433	 0.040657936	-0.073297
H	 0.6343773421	 1.9112285859	-0.5559771466	 0.24907
H	-0.884118107	 1.8749600572	 0.0752861201	 0.248696
H	-2.0171091357	-2.4961383047	-0.0192743629	 0.269987
H	 2.1709320313	-2.6146439568	-0.0156721327	 0.119718
H	 2.1692648109	-0.1462975579	 0.0828332472	 0.116128
127.3308	188.5863	213.2019	282.4108	309.4725	350.0933	441.9267	473.7631	516.5433	591.9823	595.1327	656.7965	740.3874	743.4791	775.705	825.8996	848.8256	938.0577	987.8611	1071.3958	1164.5631	1198.1246	1251.1693	1296.1949	1333.0897	1460.7923	1482.3813	1590.9358	1651.9421	1713.6058	1790.56	3172.2575	3224.0734	3518.4	3609.9088	3611.7969
NC1=C(F)NC(=O)C=C1	Nc1c(F)[nH]c(=O)cc1	
InChI=1S/C5H5FN2O/c6-5-3(7)1-2-4(9)8-5/h1-2H,7H2,(H,8,9)	InChI=1S/C5H5FN2O/c6-5-3(7)1-2-4(9)8-5/h1-2H,7H2,(H,8,9)
