19
gdb 81435	3.38144	1.41763	1.3372	0.2407	73.96	-0.2363	0.0736	0.3099	1053.3432	0.158843	-422.97209	-422.964293	-422.963349	-423.003822	31.307	
C	-0.0644261728	 1.5453315873	 0.0071159467	-0.432356
C	-0.0532700647	 0.0245877516	 0.0176349722	 0.033579
C	 1.1235329995	-0.6320963142	-0.75286779	 0.016792
O	 1.9948933412	-0.3215348268	 0.3963800351	-0.306055
C	 0.7715982185	-0.6228898554	 1.160830202	-0.030285
C	 0.6661334284	-2.1580315571	 0.9075338023	 0.4253
C	 1.1001333406	-3.1672266088	 1.9243848467	-0.499003
O	-0.3763731182	-2.5242061879	-0.0191448092	-0.287031
C	 0.9159205113	-2.151539294	-0.5342413952	-0.039837
H	 0.9345224291	 1.9487652378	 0.1880205341	 0.133704
H	-0.4211492081	 1.9215472173	-0.9577954156	 0.11502
H	-0.7393138394	 1.9309272205	 0.7789547821	 0.11481
H	-1.0417778646	-0.3961671147	-0.1613296923	 0.09906
H	 1.5073771612	-0.2751382487	-1.7084561136	 0.077697
H	 0.7908934005	-0.2575411655	 2.1882687822	 0.072875
H	 0.4013887575	-3.2019262394	 2.7676105944	 0.128143
H	 1.147906901	-4.1647740941	 1.4805370939	 0.132986
H	 2.0893514854	-2.9064429325	 2.3140580165	 0.138064
H	 1.4579596635	-2.9108536155	-1.0874954324	 0.106538
178.9002	202.6843	217.3036	235.3	273.467	324.0722	414.6533	453.4725	551.2957	603.1267	647.6771	737.9085	797.6647	830.9719	844.2765	873.7429	886.3342	898.3362	930.9925	988.482	1011.0258	1045.8453	1076.2994	1086.558	1103.8452	1118.9634	1174.0219	1192.1313	1241.6953	1251.1095	1258.4231	1278.7015	1301.5321	1380.8213	1405.2091	1407.8254	1458.1171	1486.6847	1492.7293	1496.0609	1508.1978	3034.7235	3035.8275	3093.2325	3099.6063	3114.3854	3117.9619	3124.5279	3125.1859	3134.2307	3177.9044
CC1C2OC1C1(C)OC21	C[C@H]1[C@H]2O[C@@H]1[C@@]1(C)O[C@@H]21	
InChI=1S/C7H10O2/c1-3-4-6-7(2,9-6)5(3)8-4/h3-6H,1-2H3	InChI=1S/C7H10O2/c1-3-4-6-7(2,9-6)5(3)8-4/h3-6H,1-2H3/t3-,4+,5-,6-,7+/m0/s1
