19
gdb 57978	3.57833	0.77385	0.72582	3.9435	78.12	-0.2643	0.006	0.2703	1615.7731	0.157733	-419.26026	-419.249813	-419.248869	-419.297785	36.175	
C	-0.0383330821	 1.6793183979	 0.1592507233	-0.380731
C	-0.1156513256	 0.1535532785	-0.0210504389	-0.089876
C	 0.6680394744	-0.5832530751	 1.0758282839	-0.380516
C	-1.5811281399	-0.2744948351	 0.0286907977	 0.439956
O	-2.262942842	-0.1633758485	 1.0309362782	-0.380208
N	-2.0833016291	-0.7976192653	-1.1381173026	-0.330249
C	-3.4776691665	-1.1735958509	-1.2476871698	-0.281116
C	-4.1837000482	-0.4124080481	-2.2858859759	 0.253633
N	-4.7217647004	 0.173027485	-3.1238886561	-0.29835
H	 1.004648641	 2.0093444827	 0.15994546	 0.117182
H	-0.5619578283	 2.2067495271	-0.6441654789	 0.121172
H	-0.4965887396	 1.9665244946	 1.109364858	 0.144971
H	 0.3068076877	-0.1095951014	-0.9994260356	 0.069254
H	 0.2183467665	-0.3840431208	 2.0519124712	 0.145837
H	 0.6639311819	-1.6659307482	 0.9150890333	 0.116139
H	 1.7085166916	-0.2457138128	 1.0926888807	 0.115552
H	-1.5049144808	-0.8331012671	-1.961195793	 0.260393
H	-3.5928254886	-2.2434442639	-1.4599644373	 0.158253
H	-3.9245931821	-0.9740314887	-0.2683358281	 0.198705
15.5234	49.0111	69.0838	191.4759	210.0047	225.1197	257.6168	281.72	303.8577	328.4511	375.5352	451.01	461.9237	598.1959	657.8506	769.0717	836.3078	908.686	932.5914	932.8542	975.1382	1037.1418	1080.3618	1117.4907	1118.2049	1198.1199	1209.2079	1266.6241	1333.7531	1364.1422	1389.3839	1394.6977	1417.0678	1469.0036	1484.9013	1491.2266	1500.0617	1512.1714	1523.3643	1777.9819	2363.6589	3018.1383	3036.385	3039.5395	3042.4892	3096.3946	3107.6924	3110.8922	3124.5488	3129.6734	3651.634
CC(C)C(=O)NCC#N	CC(C)C(=O)NCC#N	
InChI=1S/C6H10N2O/c1-5(2)6(9)8-4-3-7/h5H,4H2,1-2H3,(H,8,9)	InChI=1S/C6H10N2O/c1-5(2)6(9)8-4-3-7/h5H,4H2,1-2H3,(H,8,9)
