16
gdb 51298	3.20177	1.09426	0.89241	3.7759	74.75	-0.2422	-0.0409	0.2013	1270.2197	0.124039	-437.920213	-437.911938	-437.910994	-437.954252	29.556	
N	 0.0470002466	 1.243340073	 0.0618304158	-0.555087
C	 0.0201337172	-0.0226919925	 0.0147925898	 0.357398
O	 1.1126600656	-0.8460122076	-0.0109939469	-0.242329
C	 0.6786669233	-2.2102719359	-0.0632299858	-0.135378
C	-0.8186350024	-2.1353726466	-0.0620052321	-0.216719
C	-1.1985863727	-0.8551974549	-0.0206248405	 0.247722
C	-2.5670343355	-0.2515877911	 0.0034357618	-0.387678
C	-2.9177851183	 0.3152845421	 1.3780393583	 0.152038
O	-3.934665512	 0.0542340912	 1.9647533162	-0.233783
H	 1.0056108176	 1.5923734413	 0.0778455294	 0.22819
H	 1.0854555781	-2.6793279662	-0.9688404427	 0.134281
H	 1.0838002248	-2.7480031827	 0.8041532402	 0.135095
H	-1.4555231478	-3.0094049419	-0.0969570677	 0.127497
H	-2.5860573161	 0.5953039865	-0.6961863673	 0.152483
H	-3.3381403172	-0.9708016559	-0.280198261	 0.125096
H	-2.1557608513	 1.0050797111	 1.7942276126	 0.111172
53.1963	71.0096	142.9077	191.4468	251.2828	309.2529	425.7034	441.6512	501.8492	636.2482	749.926	770.0452	801.7361	813.4607	836.9542	873.472	950.9139	996.6523	1030.1202	1041.8391	1053.7548	1093.2617	1182.6492	1196.3646	1199.7591	1259.4457	1295.1385	1360.0156	1400.9514	1412.832	1447.1206	1501.0513	1705.4257	1752.7795	1833.1244	2935.9229	3016.4895	3027.5335	3046.0693	3119.4806	3227.5034	3490.5783
N=C1OCC=C1CC=O	[NH]C1=C([CH]CO1)CC=O	
InChI=1S/C6H7NO2/c7-6-5(1-3-8)2-4-9-6/h2-3,7H,1,4H2	InChI=1S/C6H7NO2/c7-6-5(1-3-8)2-4-9-6/h2-3,7H,1,4H2
