20
gdb 84386	2.17247	1.63259	1.14904	3.9084	83.79	-0.2575	0.0072	0.2648	1138.5225	0.171394	-366.049005	-366.039951	-366.039007	-366.082585	34.092	
C	 0.7359658601	 1.5299889547	-0.2518546804	-0.401486
C	 0.0937059113	 0.1559728613	-0.0020605928	-0.043359
C	 0.3765472838	-0.8277274102	-1.1143071232	-0.072043
C	 1.1932975474	-1.8117530383	-0.7478352483	-0.072044
C	 1.6409427795	-1.7081458053	 0.6921779853	-0.043357
C	 3.1315185905	-1.3561733061	 0.8230185976	-0.401485
C	 0.6342478839	-0.6345098314	 1.2446731466	-0.183162
C	 1.1626190139	 0.2025308149	 2.314602949	 0.284
N	 1.5786002304	 0.8648474448	 3.1665004597	-0.348516
H	 1.820093115	 1.4489671365	-0.3735490626	 0.129024
H	 0.3296516533	 1.973334439	-1.1665560483	 0.116038
H	 0.5369175398	 2.216210535	 0.5759811848	 0.139156
H	-0.9846221688	 0.3116371202	 0.1231004387	 0.090973
H	-0.0262192487	-0.6855296585	-2.1114548204	 0.100139
H	 1.560638409	-2.5973842444	-1.399439836	 0.10014
H	 1.4746227212	-2.6512652813	 1.2265478089	 0.090974
H	 3.3658838369	-0.4134032115	 0.320063659	 0.129023
H	 3.4257992653	-1.2643264218	 1.872207431	 0.13916
H	 3.7436377736	-2.1398154125	 0.3652635898	 0.116037
H	-0.2151456172	-1.1827526551	 1.6656023215	 0.130789
73.6108	146.01	174.7074	197.0785	225.2962	227.6573	338.7326	341.3405	371.4163	508.9145	543.3091	582.1	696.8791	742.5684	761.2902	781.7348	840.6715	903.671	943.895	979.4208	1006.1839	1055.217	1064.0989	1078.4916	1103.8444	1112.7402	1135.6072	1145.1221	1258.6999	1298.7893	1310.9603	1332.6757	1350.2437	1356.3631	1366.8119	1410.5256	1413.4021	1490.1618	1492.4547	1495.4233	1499.5488	1690.8873	2351.2956	3024.8555	3027.472	3038.9594	3040.6458	3056.8338	3108.1913	3110.5562	3119.188	3122.0543	3179.979	3204.7854
CC1C=CC(C)C1C#N	C[C@H]1C=C[C@@H](C)[C@H]1C#N	
InChI=1S/C8H11N/c1-6-3-4-7(2)8(6)5-9/h3-4,6-8H,1-2H3	InChI=1S/C8H11N/c1-6-3-4-7(2)8(6)5-9/h3-4,6-8H,1-2H3/t6-,7+,8-
