14
gdb 26569	2.45185	1.90196	1.07261	4.0095	70.84	-0.1914	-0.027	0.1644	1026.635	0.102137	-470.032549	-470.024506	-470.023562	-470.065108	29.91	
N	 0.0405296254	 1.4201507999	 0.0361826268	-0.598373
C	-0.0037485505	 0.0304592198	 0.0352614875	 0.116827
C	-1.1394433782	-0.6922244333	 0.0855661291	 0.375955
O	-2.3768108065	-0.1576170611	 0.0723800497	-0.424533
O	-1.1444822962	-2.0590003797	 0.1489838616	-0.218615
C	 0.0674444487	-2.6700998026	 0.1614297751	 0.106691
N	 1.2001385319	-2.1037558121	 0.1009066144	-0.315189
C	 1.2638164213	-0.6969270448	 0.011728854	 0.312264
N	 2.3618456968	-0.0456990696	-0.0933170578	-0.550026
H	 0.9452168869	 1.7422520551	-0.2874512369	 0.267536
H	-0.7368195705	 1.8735177251	-0.4220408526	 0.249653
H	-3.0221858477	-0.8707630459	 0.1408238603	 0.310131
H	-0.0504349088	-3.7464464353	 0.2289810993	 0.147016
H	 3.1469721875	-0.6967852156	-0.1019117605	 0.220662
97.5697	131.8999	193.1028	275.082	299.682	351.494	354.6675	515.6372	522.5546	524.3538	552.8547	575.1145	677.2922	711.642	771.0954	876.6695	892.6839	931.9899	967.4279	1040.0984	1135.401	1189.8539	1290.821	1313.8349	1330.9199	1416.4755	1452.3564	1614.847	1670.3796	1690.2807	1775.9491	3201.7632	3488.437	3530.4193	3648.0437	3820.3188
NC1=C(O)OC=NC1=N	NC1=C(N=CO[C@@H]1O)[NH]	
InChI=1S/C4H5N3O2/c5-2-3(6)7-1-9-4(2)8/h1,6,8H,5H2	InChI=1S/C4H6N3O2/c5-2-3(6)7-1-9-4(2)8/h1,4,6,8H,5H2/t4-/m0/s1
