23
gdb 119243	1.61508	1.28174	0.81023	2.5883	86.29	-0.2447	-0.0205	0.2242	1517.1344	0.203322	-388.295885	-388.285329	-388.284385	-388.332842	38.016	
C	 2.2911890939	 1.4704253735	-0.3358682631	-0.380771
C	 2.1730707424	-0.0475446713	-0.4987638177	-0.170723
C	 0.8892474549	-0.4636268517	-1.2311564124	-0.256366
C	 0.774101786	-1.9567526085	-1.5155063509	 0.366677
C	 0.7537372964	-2.8661485094	-0.2900649623	-0.353349
C	-0.430433912	-2.5794956505	 0.609402715	 0.165008
O	-0.3577570162	-2.3097648537	 1.7811401821	-0.244432
C	-0.0588437302	-2.3793574536	-2.7064392374	-0.31714
C	 1.4457395491	-2.4865151836	-2.7607758372	-0.310281
H	 2.3049298081	 1.9745625075	-1.3088640221	 0.111395
H	 1.4466650231	 1.8743306434	 0.2333280867	 0.118334
H	 3.2090295285	 1.7436160396	 0.193665319	 0.113049
H	 3.0423193893	-0.4299337297	-1.0491905653	 0.096639
H	 2.2021519472	-0.518562077	 0.4908500537	 0.111754
H	 0.0198835608	-0.1313079349	-0.6458722458	 0.101883
H	 0.831939976	 0.0762055277	-2.1852163489	 0.090846
H	 0.6669717613	-3.9102507831	-0.6216937935	 0.112204
H	 1.6681374255	-2.7796553069	 0.3039881762	 0.121424
H	-1.4179546211	-2.6294616452	 0.0939182782	 0.074841
H	-0.6316424856	-3.298418481	-2.638451083	 0.109715
H	-0.5393477265	-1.6035988974	-3.2929267287	 0.114179
H	 1.9841571587	-1.778888088	-3.3823599745	 0.114068
H	 1.8912467003	-3.4751355163	-2.7281117081	 0.111046
29.7802	69.9101	86.0752	114.4342	171.7312	207.8233	238.7817	287.2404	338.9029	365.002	388.5935	487.3369	512.6013	725.3071	750.5623	782.4259	823.6215	861.2869	887.8222	911.6588	941.169	965.6134	975.6209	1026.0326	1051.7803	1054.1943	1077.3804	1088.6967	1115.8359	1135.1681	1187.3302	1200.9625	1253.0475	1287.8041	1308.9967	1319.617	1341.9972	1371.5091	1401.8453	1413.1796	1424.5248	1460.4581	1469.3028	1481.1118	1493.0511	1498.6781	1504.5876	1510.6076	1831.1987	2860.6436	3003.1035	3018.5119	3025.1006	3029.5804	3038.2615	3063.9569	3093.2447	3097.5389	3103.3323	3127.157	3131.6071	3204.8391	3218.8588
CCCC1(CC=O)CC1	CCCC1(CC=O)CC1	
InChI=1S/C8H14O/c1-2-3-8(4-5-8)6-7-9/h7H,2-6H2,1H3	InChI=1S/C8H14O/c1-2-3-8(4-5-8)6-7-9/h7H,2-6H2,1H3
