16
gdb 15316	4.97144	0.9454	0.8688	2.3916	67.52	-0.2544	-0.0366	0.2177	1276.8454	0.127961	-383.743701	-383.73527	-383.734326	-383.778039	29.015	
O	-0.5579550569	 0.8849251616	 0.8941493254	-0.230601
C	-0.0772444195	 1.1542718023	-0.1744405976	 0.168514
C	 1.3455925901	 1.6383812628	-0.3850546667	-0.311126
C	 1.3731655455	 2.885863376	-1.2526113936	-0.014606
C	 1.310775419	 4.253378384	-0.6595573485	-0.294153
C	 2.5924521515	 3.8020964796	-1.3537148439	-0.117285
C	 3.8043745533	 3.5719702382	-0.5338423073	 0.165026
O	 4.9302965384	 3.7600382542	-0.923326417	-0.264641
H	-0.6719171153	 1.0568090965	-1.1134046204	 0.075259
H	 1.7979895958	 1.7931769527	 0.5969139317	 0.130045
H	 1.8959175092	 0.8280000887	-0.8857102978	 0.133771
H	 0.8638694395	 2.7604125009	-2.2052776055	 0.108192
H	 0.728147734	 5.0260305627	-1.1470828453	 0.134395
H	 1.3467779056	 4.3329788535	 0.4230238751	 0.134078
H	 2.8079325614	 4.2127106881	-2.3341472042	 0.112937
H	 3.6104850785	 3.2199819782	 0.5054049954	 0.070197
49.1281	65.9594	89.4351	174.2854	259.3166	278.8651	382.2042	415.0078	514.6268	530.9604	744.8872	831.3189	846.7596	866.5221	925.9578	964.255	1030.3827	1047.9199	1069.606	1081.8865	1138.2101	1160.3866	1191.9843	1227.4929	1234.6113	1290.5879	1343.3429	1414.4499	1428.5803	1445.9797	1462.324	1488.6041	1818.2407	1840.7752	2854.955	2865.7944	3011.445	3110.885	3132.1523	3136.7561	3178.1889	3223.3454
O=CCC1CC1C=O	O=CC[C@H]1C[C@H]1C=O	
InChI=1S/C6H8O2/c7-2-1-5-3-6(5)4-8/h2,4-6H,1,3H2	InChI=1S/C6H8O2/c7-2-1-5-3-6(5)4-8/h2,4-6H,1,3H2/t5-,6-/m0/s1
