13
gdb 130108	3.55247	1.79511	1.19467	4.7095	65.19	-0.2048	-0.0095	0.1953	931.0369	0.093228	-445.101766	-445.095026	-445.094082	-445.132723	25.798	
N	 0.0957465927	 1.3774226764	 0.1599725986	-0.597614
C	 0.0326382142	 0.0015885701	 0.031189768	 0.393767
N	-1.0459180556	-0.7480563658	-0.0145923178	-0.290847
N	-0.6775130731	-2.1075547313	-0.0373699332	-0.366764
C	 0.6215985353	-2.0789947248	-0.0188903616	 0.511205
N	 1.7389962911	-2.8918092757	-0.034865831	-0.417231
C	 2.8256788013	-2.046656794	 0.0001136274	 0.067008
N	 2.5167604518	-0.7788090561	 0.0398020315	-0.255326
N	 1.1367303065	-0.8132926081	 0.0303784881	-0.029143
H	 0.7932330019	 1.8096936179	-0.4334543498	 0.261607
H	-0.8169391667	 1.7877252108	 0.008459811	 0.267146
H	 1.7507586475	-3.8951563407	-0.074559515	 0.293214
H	 3.841503783	-2.4099587888	-0.0049669461	 0.162977
183.193	223.7984	226.724	293.7419	376.6767	416.4258	559.007	634.7684	656.5351	666.6956	710.3184	725.2512	766.2219	833.8957	855.9819	959.2923	1011.2034	1100.5012	1126.9728	1150.9033	1259.1705	1297.8432	1364.1498	1424.3125	1464.5705	1573.8143	1596.723	1648.2527	1668.0875	3272.9387	3536.1731	3636.5874	3701.4349
NC1=NN=C2NC=NN12	Nc1nnc2[nH]cnn12	
InChI=1S/C3H4N6/c4-2-7-8-3-5-1-6-9(2)3/h1H,(H2,4,7)(H,5,6,8)	InChI=1S/C3H4N6/c4-2-7-8-3-5-1-6-9(2)3/h1H,(H2,4,7)(H,5,6,8)
