16
gdb 64859	3.56344	0.97497	0.87258	4.2605	76.41	-0.2767	0.009	0.2857	1308.5276	0.122477	-400.714365	-400.705525	-400.704581	-400.74801	33.057	
O	-0.0570579986	 1.3976338343	-0.0584254459	-0.472259
C	-0.0081922373	-0.0212815026	-0.0050501093	 0.212745
C	 0.1885891805	-0.53783756	 1.4600358716	-0.27522
C	-1.3634837461	-0.5321805117	 1.6208830267	-0.153751
C	-1.4797058896	-0.5198446274	 0.0646686693	-0.252376
C	-1.9758835802	-1.631626338	 2.343922965	 0.267908
N	-2.4546842906	-2.5191606821	 2.9097782251	-0.327484
C	 0.8673519717	-0.5754094328	-1.0266357158	 0.263806
C	 1.6158010146	-1.0232273484	-1.8544126073	-0.426185
H	 0.8499554059	 1.7241377304	-0.0543546122	 0.287439
H	 0.5947941523	-1.5500927787	 1.4858353588	 0.136896
H	 0.760491676	 0.1141949059	 2.1221953832	 0.120546
H	-1.7068222676	 0.4151584872	 2.0404742337	 0.138777
H	-2.2142376756	 0.1534623858	-0.3769336798	 0.136232
H	-1.5877357326	-1.5248836867	-0.3432186022	 0.138997
H	 2.2680576173	-1.421359345	-2.5926257308	 0.20393
59.4835	149.0135	174.5575	182.9597	229.1805	321.964	371.5614	393.7664	471.5001	506.9163	559.0456	585.2498	586.8274	641.3909	671.3855	710.2618	829.7366	899.2349	929.393	976.6697	1005.4973	1033.3156	1071.0384	1126.504	1140.8413	1234.8506	1245.882	1251.857	1271.1076	1346.3684	1369.8956	1457.8203	1480.2545	2232.6801	2355.3441	3080.7423	3095.05	3098.7864	3148.7732	3164.2657	3498.354	3802.0289
OC1(CC(C1)C#N)C#C	O[C@]1(C[C@@H](C1)C#N)C#C	
InChI=1S/C7H7NO/c1-2-7(9)3-6(4-7)5-8/h1,6,9H,3-4H2	InChI=1S/C7H7NO/c1-2-7(9)3-6(4-7)5-8/h1,6,9H,3-4H2/t6-,7-
