19
gdb 97853	4.96603	0.67947	0.65112	1.5163	87.5	-0.2392	0.0131	0.2523	1800.2242	0.158347	-385.864185	-385.854734	-385.85379	-385.901343	33.19	
C	-0.2583699448	 1.4666568748	 0.0043684974	-0.364083
C	 0.3820084979	 0.0703309261	 0.1056558094	-0.314402
C	 0.9409011799	-0.400149692	-1.1572400338	 0.045991
C	 1.4033025423	-0.7651185378	-2.2082017614	 0.098531
C	 1.9545153154	-1.2196075775	-3.4895003479	-0.099675
O	 3.3607416016	-0.9504339932	-3.5950537038	-0.260811
C	 4.0917173039	-2.1700049849	-3.6952098562	-0.113239
C	 3.0509384147	-3.2491411497	-3.7878931065	-0.093293
C	 1.8409045066	-2.7185240719	-3.679733648	-0.077431
H	 0.4780955158	 2.2084701773	-0.3157884291	 0.131013
H	-1.0752186489	 1.4677331817	-0.7224681363	 0.126842
H	-0.659628524	 1.7740358206	 0.9747672652	 0.11331
H	 1.17369908	 0.0834520139	 0.8658265103	 0.131778
H	-0.3637706833	-0.6513928111	 0.4635192211	 0.128119
H	 1.4470313224	-0.6737997109	-4.3007609891	 0.108202
H	 4.7411325107	-2.1287196038	-4.5823785324	 0.10845
H	 4.7464343175	-2.3004896716	-2.8183049637	 0.10784
H	 3.292767198	-4.2970279967	-3.9125038747	 0.108631
H	 0.8873118641	-3.228555813	-3.6893851207	 0.114228
9.1406	55.4813	89.8279	123.9801	188.9403	224.4932	331.4708	363.3603	457.0441	505.8214	531.5613	694.6581	761.5954	783.5015	805.5526	816.654	905.8486	933.7462	956.9357	964.9345	1007.053	1046.2898	1078.8391	1095.0061	1103.4665	1117.0457	1169.9961	1197.4378	1283.0083	1286.2191	1341.0796	1347.5193	1350.8443	1380.532	1408.7411	1472.3535	1494.6695	1505.3065	1518.9022	1694.2384	2360.1366	2969.5071	2972.9059	3001.4105	3018.841	3043.7476	3046.0213	3116.7747	3123.9036	3210.7731	3239.0234
CCC#CC1OCC=C1	CCC#C[C@H]1OCC=C1	
InChI=1S/C8H10O/c1-2-3-5-8-6-4-7-9-8/h4,6,8H,2,7H2,1H3	InChI=1S/C8H10O/c1-2-3-5-8-6-4-7-9-8/h4,6,8H,2,7H2,1H3/t8-/m1/s1
