16
gdb 41869	3.4158	1.63762	1.22032	2.278	71.76	-0.2476	-0.0011	0.2465	986.4672	0.127102	-437.900018	-437.893186	-437.892242	-437.93149	26.262	
C	-0.0045286321	 1.5209246598	-0.0765718963	-0.119359
O	 1.3681196155	 1.8829218813	 0.1342331033	-0.25899
C	 2.1486630773	 0.7397532437	 0.2253356549	 0.167007
O	 3.0834882068	 0.678440856	-0.8847093708	-0.238696
C	 3.4498496574	-0.572279277	-1.263275668	 0.13984
N	 3.0077818715	-1.7048171468	-0.9077308842	-0.273507
C	 1.8718746849	-1.7690033009	 0.0207887015	-0.258936
C	 1.2187198299	-0.4340979908	 0.1419607705	 0.246563
C	-0.0153085891	 0.0189696779	-0.0506664349	-0.23721
H	-0.6114401877	 1.9806792673	 0.7149128399	 0.120844
H	-0.3552330418	 1.9207833113	-1.0389093619	 0.123305
H	 2.772573541	 0.7889742858	 1.128409324	 0.095709
H	 4.2605627752	-0.5106578942	-1.9876012218	 0.128489
H	 1.1708110946	-2.5268218335	-0.3428844371	 0.12533
H	 2.2430006038	-2.1309565098	 0.9904665453	 0.12441
H	-0.9071906372	-0.5691123001	-0.2270489944	 0.115201
108.1884	135.3009	259.4675	343.4754	410.6991	457.3376	499.8502	614.7311	652.5921	790.9981	814.2186	871.6307	918.4725	936.1128	945.2333	954.7134	974.771	1011.3444	1023.5746	1039.9251	1096.7836	1167.9308	1191.5309	1209.8894	1225.2266	1294.8372	1327.7834	1365.0982	1382.094	1399.8764	1412.3601	1480.7485	1515.7113	1724.446	1740.4916	3002.7964	3004.4947	3012.418	3032.2572	3071.1195	3154.4147	3216.2923
C1OC2OC=NCC2=C1	C1O[C@@H]2OC=NCC2=C1	
InChI=1S/C6H7NO2/c1-2-8-6-5(1)3-7-4-9-6/h1,4,6H,2-3H2	InChI=1S/C6H7NO2/c1-2-8-6-5(1)3-7-4-9-6/h1,4,6H,2-3H2/t6-/m1/s1
