18
gdb 117412	5.49408	0.60343	0.55108	3.1167	74.86	-0.2921	-0.0058	0.2863	1959.7422	0.145088	-439.135249	-439.124966	-439.124022	-439.173266	34.383	
C	-0.1716389185	 1.5751667494	 0.0128428575	-0.387702
C	-0.0310484825	 0.0514924793	 0.0037030532	-0.160818
C	-1.3866691921	-0.6565249519	 0.0110969691	-0.313161
C	-1.2677966563	-2.1623789494	 0.0019442449	 0.458737
O	-0.2506981924	-2.8052816182	-0.010938172	-0.343159
O	-2.4998977187	-2.7417065216	 0.0102301509	-0.241275
C	-2.4728011776	-4.1715440167	 0.0022372607	-0.202717
C	-3.8536511055	-4.6502642135	 0.0143542074	 0.268004
N	-4.9311785079	-5.0641221024	 0.0236661306	-0.288939
H	 0.8092247809	 2.0591241296	 0.0073763639	 0.120524
H	-0.7232387983	 1.9307750937	-0.8645678683	 0.117574
H	-0.708815761	 1.9215111735	 0.902817279	 0.117578
H	 0.53569801	-0.2710956172	-0.8761437148	 0.116386
H	 0.550010994	-0.2802207951	 0.8707357457	 0.116347
H	-1.9810945906	-0.3743200698	 0.8892270914	 0.139194
H	-1.9953822753	-0.36496551	-0.8541126626	 0.139202
H	-1.9527394126	-4.541348358	-0.8874279252	 0.172083
H	-1.9339218956	-4.5508575217	 0.8765557188	 0.172142
19.2932	35.2258	81.3839	89.7416	170.5064	188.285	247.0723	282.0491	335.5562	376.0451	393.893	561.243	580.9314	714.5856	748.4566	883.7357	894.6692	932.2894	983.9359	1016.371	1041.2081	1053.4194	1124.5832	1128.4921	1183.571	1246.4206	1250.102	1322.6589	1325.6604	1384.0012	1407.6549	1418.5282	1455.2195	1483.62	1488.9625	1501.679	1508.6521	1826.325	2376.6286	3031.3116	3034.6283	3051.0048	3056.6697	3060.8103	3080.6646	3095.3243	3103.7207	3109.5505
CCCC(=O)OCC#N	CCCC(=O)OCC#N	
InChI=1S/C6H9NO2/c1-2-3-6(8)9-5-4-7/h2-3,5H2,1H3	InChI=1S/C6H9NO2/c1-2-3-6(8)9-5-4-7/h2-3,5H2,1H3
