17
gdb 11975	2.63096	2.27851	1.75192	3.5842	68.53	-0.2326	-0.0167	0.2159	840.3028	0.140987	-363.837385	-363.829485	-363.828541	-363.869122	29.851	
C	-0.0350102278	 1.5705511944	-0.0890927074	-0.448367
C	 0.0030451486	 0.0471994096	-0.0458771679	 0.183094
C	-1.3627128256	-0.5640243893	 0.2850470574	-0.442316
C	 0.7133135631	-0.6827871704	-1.212890423	-0.08038
N	 2.086889547	-0.1792229391	-1.2507990853	-0.336292
C	 1.7408239881	-1.3011221034	-0.3047382275	-0.194722
C	 1.0841795592	-0.6217537705	 0.8749412656	 0.431289
O	 1.1989008323	-0.7041311786	 2.0629686651	-0.321717
H	 0.9294808333	 1.974090979	-0.4036104834	 0.142304
H	-0.8056167248	 1.9220393977	-0.7848907096	 0.109926
H	-0.2720730268	 1.9699750992	 0.9023452729	 0.127999
H	-2.113037483	-0.2445983136	-0.446466321	 0.116819
H	-1.3300352689	-1.6588306448	 0.2833645339	 0.117479
H	-1.6908190972	-0.2404818202	 1.2768535911	 0.138331
H	 0.2413675964	-1.1371571873	-2.075465117	 0.10328
H	 2.5665898347	-0.6203852698	-2.0358883815	 0.239861
H	 2.2660619314	-2.2464385229	-0.3580615226	 0.113413
126.0719	201.1433	205.2392	217.9492	254.0585	283.2532	328.0119	477.4578	517.7174	627.5109	684.0548	750.6572	812.8855	836.6613	838.5436	913.7566	957.9817	968.6992	981.6749	1021.1098	1058.0937	1085.3527	1103.1551	1181.4869	1206.9392	1246.6487	1278.5698	1323.4415	1355.8827	1393.5069	1415.8717	1482.3725	1486.2953	1500.4068	1510.0201	1890.3499	3029.4129	3032.7192	3095.0473	3096.6867	3115.0259	3132.7266	3190.6964	3202.8362	3467.9944
CC1(C)C2NC2C1=O	CC1(C)[C@H]2N[C@H]2C1=O	
InChI=1S/C6H9NO/c1-6(2)4-3(7-4)5(6)8/h3-4,7H,1-2H3	InChI=1S/C6H9NO/c1-6(2)4-3(7-4)5(6)8/h3-4,7H,1-2H3/t3-,4+/m1/s1
