17
gdb 33749	2.43741	1.67037	1.27421	1.4196	80.46	-0.2419	0.0181	0.2601	1034.2292	0.136121	-380.725827	-380.718132	-380.717188	-380.757807	30.631	
C	 0.0467421821	-1.1460196348	-0.0458095631	-0.35966
C	 0.0295682349	 0.0563180086	-0.0098579794	 0.057805
C	-0.0306203633	 1.4863607757	 0.014485666	 0.144356
C	-0.6832771892	 2.4309102271	 1.0820434407	-0.273066
C	 0.0020814009	 3.3415861026	 0.0259018919	-0.127852
N	 1.2033578143	 2.3987389996	-0.0226458562	-0.351685
C	-0.6108911157	 2.4427085663	-1.054728686	 0.460063
C	-0.6574342506	 2.3963500254	-2.5120472704	-0.339394
N	-1.9024185477	 2.4963136219	-1.6806717111	-0.40591
H	 0.0726049615	-2.2074835998	-0.0746444923	 0.187555
H	-1.7749311713	 2.4454836225	 1.1464877061	 0.113046
H	-0.2110527267	 2.4062608277	 2.0681656972	 0.0988
H	 0.1216388898	 4.4232966033	 0.029203406	 0.096626
H	 1.6305905294	 2.3790327469	 0.9099596399	 0.209525
H	-0.4399894871	 3.2793953952	-3.1053230146	 0.126937
H	-0.4391136769	 1.4495181514	-2.9988112257	 0.125103
H	-2.3664087644	 1.5910093707	-1.637737869	 0.237751
107.5903	152.1373	211.985	278.7064	308.7873	472.3592	490.0396	504.7536	577.5724	628.0799	633.5838	665.8881	679.618	763.908	814.6241	890.8207	910.6319	922.0769	943.1595	966.0289	977.4494	1035.4375	1045.2809	1079.5481	1106.855	1149.4849	1182.67	1204.5534	1227.6366	1250.3784	1269.4315	1280.4176	1310.3934	1451.292	1498.4704	1541.1597	2233.6635	3047.0102	3113.0244	3120.2287	3142.5658	3200.3078	3375.5396	3485.5406	3499.3928
C#CC12CC(N1)C21CN1	C#C[C@@]12C[C@@H](N1)[C@]12CN1	
InChI=1S/C7H8N2/c1-2-6-3-5(9-6)7(6)4-8-7/h1,5,8-9H,3-4H2	InChI=1S/C7H8N2/c1-2-6-3-5(9-6)7(6)4-8-7/h1,5,8-9H,3-4H2/t5-,6+,7+/m1/s1
