21
gdb 84834	2.61488	1.49779	1.10954	1.1057	83.77	-0.2385	0.0251	0.2636	1163.2262	0.183008	-387.095739	-387.087173	-387.086229	-387.128324	34.427	
C	 0.2650222676	 1.5803765625	 0.0018389619	-0.385873
C	 0.0004111903	 0.0647065919	 0.0178405423	-0.051679
C	 0.4203763328	-0.5850843242	-1.2777598854	-0.052122
C	 0.9586557559	-1.7994489105	-1.3768309165	-0.073139
C	 1.2189543138	-2.7005969831	-0.2004790296	-0.34037
C	 1.241542964	-1.9695518591	 1.1308564099	 0.392828
O	 1.0200054261	-2.7909876607	 2.2494045156	-0.476974
C	 2.1478011469	-0.7769215957	 1.3125003306	-0.350615
C	 0.6387219474	-0.6021745752	 1.2283630383	-0.058825
H	 1.3362338752	 1.788669982	-0.0855022397	 0.119324
H	-0.2433500074	 2.0586874884	-0.8421451673	 0.10839
H	-0.0952054766	 2.0501437142	 0.9226341885	 0.111574
H	-1.0890332727	-0.0711490378	 0.1103827544	 0.088588
H	 0.2438241064	-0.0049355042	-2.1812920201	 0.081319
H	 1.2110305841	-2.1961752936	-2.3571116008	 0.08522
H	 0.4340148435	-3.468368534	-0.1427067933	 0.120676
H	 2.1611517775	-3.2492445041	-0.3479371147	 0.093756
H	 1.799779061	-3.3458376764	 2.3646013648	 0.277187
H	 2.606771391	-0.6513034248	 2.2866856108	 0.107163
H	 2.750933153	-0.4548419289	 0.4695356578	 0.112486
H	 0.1525543402	-0.3915607368	 2.1762211024	 0.091088
98.8421	178.5232	240.2298	258.8184	293.4711	307.1357	362.6112	403.1616	416.5875	473.2049	509.7586	573.6455	676.0542	728.3043	755.1999	824.112	878.2206	921.3962	929.0994	953.9545	975.4951	995.2547	1012.3511	1036.8031	1047.7852	1058.9725	1104.105	1118.5052	1166.1302	1183.0457	1206.7738	1251.0611	1272.9555	1319.8475	1342.0404	1345.3623	1368.0367	1401.2327	1412.4636	1424.6364	1475.0634	1494.2141	1498.9506	1499.3746	1722.5685	2971.3453	2993.1665	3020.357	3030.8695	3099.8129	3105.9145	3128.8004	3137.7841	3155.1228	3163.2671	3220.8403	3788.5804
CC1C=CCC2(O)CC12	C[C@H]1C=CC[C@@]2(O)C[C@@H]12	
InChI=1S/C8H12O/c1-6-3-2-4-8(9)5-7(6)8/h2-3,6-7,9H,4-5H2,1H3	InChI=1S/C8H12O/c1-6-3-2-4-8(9)5-7(6)8/h2-3,6-7,9H,4-5H2,1H3/t6-,7-,8+/m0/s1
