12
gdb 18422	3.46911	1.9927	1.61787	5.1405	58.92	-0.2705	-0.0249	0.2456	778.9122	0.084787	-377.519989	-377.513571	-377.512627	-377.550782	23.734	
O	 0.0128327069	 0.0539987082	 0.104457186	-0.312761
C	 0.0273721679	 1.243728699	 0.0337373541	 0.429969
N	-1.0035931587	 2.2112551635	 0.0501712669	-0.339612
C	-0.0547868539	 3.3145906055	-0.041291324	-0.010766
C	 0.9618060583	 3.2947828973	 1.0793283373	-0.197409
C	 0.6172024415	 2.8532047315	 2.4053851182	 0.303515
N	 0.3152801446	 2.5161793119	 3.4694741329	-0.327393
C	 1.0927615729	 2.3343525538	-0.1183009994	-0.234183
H	-1.7759306159	 2.1846103285	 0.7069807231	 0.263203
H	-0.2558600938	 4.1876228499	-0.6470251852	 0.136872
H	 1.6883835007	 4.1031519276	 1.0564546754	 0.151055
H	 1.9773851794	 2.3316917734	-0.7383308053	 0.13751
105.5658	152.8866	257.9852	386.4069	457.2998	536.2076	571.9676	648.6224	734.6946	752.7318	808.4116	830.0454	907.9823	914.5879	979.6522	1041.9958	1048.9325	1069.0362	1126.3917	1153.0915	1254.5743	1311.2036	1337.8456	1391.3058	1921.6674	2357.8041	3153.5855	3215.4358	3235.2354	3553.8315
O=C1NC2C(C#N)C12	O=C1N[C@H]2[C@@H](C#N)[C@@H]12	
InChI=1S/C5H4N2O/c6-1-2-3-4(2)7-5(3)8/h2-4H,(H,7,8)	InChI=1S/C5H4N2O/c6-1-2-3-4(2)7-5(3)8/h2-4H,(H,7,8)/t2-,3+,4-/m0/s1
