18
gdb 51013	2.242	1.13534	0.84614	3.9614	74.88	-0.2498	-0.0275	0.2223	1369.6026	0.144684	-439.071393	-439.061869	-439.060925	-439.107147	33.545	
N	-1.0596977967	 1.2043878887	-1.3165256267	-0.436483
C	-1.322357493	-0.0223515565	-1.1925748616	 0.107853
O	-1.0629782391	-0.647811789	-0.0192809868	-0.228848
C	-1.2246314992	-2.0545130358	-0.0009188318	 0.397902
C	-0.0326061008	-2.8024790002	-0.5725376591	-0.345324
C	 1.2297235921	-2.5844044281	 0.2463432246	 0.161575
O	 1.9634285522	-3.473694732	 0.5932902963	-0.238801
C	-1.9299224783	-2.5741908315	 1.2139653617	-0.306317
C	-2.6229709891	-2.602720053	-0.1328714447	-0.329346
H	-1.334638172	 1.5269740013	-2.2420823166	 0.23258
H	-1.7732430947	-0.6803602758	-1.9461379368	 0.096918
H	-0.2296272533	-3.8764106355	-0.6221395213	 0.127753
H	 0.1622772579	-2.4493875475	-1.5956755975	 0.124767
H	 1.4365835433	-1.5253476588	 0.5089806562	 0.106267
H	-1.5835475159	-3.5078035283	 1.642518422	 0.131266
H	-2.2671461147	-1.8359173918	 1.9314753263	 0.140173
H	-3.4244084726	-1.8899837622	-0.2906860659	 0.131837
H	-2.757196456	-3.5548387741	-0.633995728	 0.126228
43.6319	65.5731	93.6887	142.5272	182.017	211.3683	309.7601	326.4126	418.2822	464.8987	524.0054	585.2344	732.9614	775.5183	826.6663	840.355	904.3605	927.0739	940.9051	994.7921	1045.7271	1052.4558	1067.9854	1079.4942	1091.0435	1093.512	1189.7706	1195.0799	1269.8423	1283.491	1308.9052	1359.2435	1412.4735	1424.6765	1451.5014	1456.9252	1495.7252	1744.8016	1832.2214	2915.6053	3013.8483	3040.8795	3107.6526	3138.4452	3145.7394	3224.1321	3240.0038	3517.9127
N=COC1(CC=O)CC1	[NH][CH]OC1(CC=O)CC1	
InChI=1S/C6H9NO2/c7-5-9-6(1-2-6)3-4-8/h4-5,7H,1-3H2	InChI=1S/C6H9NO2/c7-5-9-6(1-2-6)3-4-8/h4-5,7H,1-3H2
