15
gdb 25158	3.38594	1.221	0.93516	2.8908	73.81	-0.1945	0.0267	0.2212	1191.2232	0.11205	-416.785685	-416.777405	-416.776461	-416.819695	30.365	
N	 0.0817137115	 1.2539379465	-0.6745577322	-0.620983
C	 0.0781045812	 0.0402976163	-0.302722079	 0.482098
O	 1.1254785954	-0.8542594264	-0.3214811065	-0.222762
C	 0.6571944817	-2.0726844265	 0.1471733554	-0.059443
C	-0.6364572351	-1.9652894426	 0.4615385281	-0.108325
N	-1.0089808233	-0.6463240075	 0.2030656815	-0.103746
C	-2.3298415079	-0.0491675225	 0.2950063137	-0.30122
C	-3.0648414059	-0.4892221422	 1.4756172487	 0.291175
C	-3.6842036324	-0.868672782	 2.4320718266	-0.435223
H	 1.0027223152	 1.5364666229	-0.9957347945	 0.227438
H	 1.3673966287	-2.8778287504	 0.1967735371	 0.150952
H	-1.3286635304	-2.6806102155	 0.8698079484	 0.159955
H	-2.170638965	 1.0342317656	 0.3080252709	 0.186346
H	-2.9167985882	-0.269633229	-0.6084856243	 0.146241
H	-4.2311432755	-1.1861387467	 3.2855142061	 0.207498
29.0881	87.7713	175.7088	225.5553	268.2084	325.0044	417.024	543.4943	571.575	623.2086	673.5411	675.6934	692.2589	709.4773	742.1385	789.2156	806.7956	913.2825	950.6307	986.909	1008.1928	1053.6151	1129.4562	1182.1977	1244.556	1277.9646	1317.1777	1394.3272	1453.1097	1494.5307	1660.5459	1771.6264	2245.9426	2999.5312	3078.2944	3291.6221	3317.9783	3503.4738	3553.523
N=C1OC=CN1CC#C	[NH][C@@H]1OC=CN1CC#C	
InChI=1S/C6H6N2O/c1-2-3-8-4-5-9-6(8)7/h1,4-5,7H,3H2	InChI=1S/C6H7N2O/c1-2-3-8-4-5-9-6(8)7/h1,4-7H,3H2/t6-/m0/s1
