20
gdb 116246	2.01832	1.49886	0.96953	4.0196	79.29	-0.2697	0.0271	0.2967	1269.177	0.171844	-403.177764	-403.168609	-403.167664	-403.212627	33.201	
C	 0.0472706283	 1.6271270534	-0.0347222065	-0.391022
C	-0.0370953172	 0.0982651866	-0.0114537223	-0.206119
C	 0.6983814277	-0.5433918795	-1.1773017943	 0.132572
O	 2.0806813087	-0.2472819727	-1.1005110562	-0.242777
C	 2.724044176	-1.0797513183	-2.0484057683	-0.076429
C	 2.00981459	-2.4497473511	-1.964517656	-0.251984
C	 0.6449155087	-2.1043854387	-1.28734956	-0.180548
C	 0.5000128099	-2.7663051827	 0.0071785001	 0.284384
N	 0.3841279039	-3.2977400784	 1.0275080451	-0.33901
H	 1.0886985691	 1.9564001481	 0.0012231919	 0.138686
H	-0.4042246049	 2.0369903782	-0.9451918258	 0.111401
H	-0.4789391034	 2.0578670691	 0.8217799862	 0.116946
H	 0.3819881836	-0.2916096351	 0.9219733048	 0.131455
H	-1.0845701648	-0.2246565362	-0.04584425	 0.104496
H	 0.2931159408	-0.1527044373	-2.1285984085	 0.068847
H	 2.6267112881	-0.65583254	-3.0603561422	 0.095644
H	 3.7849155101	-1.1265188125	-1.7938537109	 0.12028
H	 1.864590601	-2.899331053	-2.9485548825	 0.118158
H	 2.5728829488	-3.1559381071	-1.3531610792	 0.139412
H	-0.2012824542	-2.4078624626	-1.9099475353	 0.125608
34.8909	103.9733	128.1555	190.2124	206.1052	228.0744	264.9133	378.2527	443.4755	478.9889	584.4295	658.291	741.6394	784.2659	796.1202	858.5228	903.5102	939.7861	958.173	982.3143	1026.9908	1058.0865	1097.8691	1118.4982	1140.7525	1173.9925	1207.9999	1239.1106	1261.2864	1298.3842	1314.2423	1318.2306	1353.4202	1362.218	1400.2067	1410.9338	1420.1961	1475.037	1497.0805	1499.0754	1509.3465	1519.2517	2353.1457	2934.1186	2979.8518	3038.5161	3039.7269	3073.8207	3083.3324	3085.5984	3105.3453	3107.2392	3127.5609	3136.1484
CCC1OCCC1C#N	CC[C@H]1OCC[C@H]1C#N	
InChI=1S/C7H11NO/c1-2-7-6(5-8)3-4-9-7/h6-7H,2-4H2,1H3	InChI=1S/C7H11NO/c1-2-7-6(5-8)3-4-9-7/h6-7H,2-4H2,1H3/t6-,7+/m0/s1
