17
gdb 40473	3.8936	1.32651	1.21747	0.6053	72.15	-0.2428	0.0498	0.2926	1054.1871	0.134874	-421.692467	-421.685299	-421.684355	-421.724416	28.344	
C	-0.1565241288	 1.447469369	-0.0427149006	-0.267014
C	 1.2573909028	 0.9713430355	 0.1645167113	-0.267018
C	 0.1307888074	-0.0310951874	 0.0738728947	-0.174217
C	-0.2910936829	-0.7555881614	 1.2891395801	 0.458356
O	-0.2541558087	-0.0726969032	 2.5821815501	-0.351654
C	-0.7481383214	-1.3927982631	 2.9417997649	 0.03291
C	-1.5865183102	-1.5783366617	 1.6425202532	-0.00915
O	-0.9978809676	-2.8648724034	 1.3055504229	-0.327941
C	 0.1224861089	-2.1490145624	 1.8951824391	-0.009028
H	-0.6501418203	 1.9199601042	 0.7985707316	 0.133172
H	-0.4393677284	 1.8320238994	-1.0159810404	 0.114753
H	 1.9526361653	 1.0265600463	-0.6653720411	 0.11475
H	 1.6967796828	 1.1297576363	 1.1425430825	 0.133055
H	 0.0611881235	-0.6305365605	-0.8286168393	 0.10267
H	-0.9740537021	-1.6074404872	 3.9850874435	 0.106074
H	-2.6394932241	-1.3987046528	 1.4278890837	 0.10514
H	 1.089516564	-2.6438819077	 1.9791005038	 0.105141
74.5818	156.4436	172.0189	299.0098	404.102	542.3233	578.5794	631.3787	765.02	777.7046	788.4302	810.1947	813.3037	849.0627	866.1091	886.1752	893.9432	942.2614	945.8167	998.9104	1040.353	1066.7453	1087.8794	1088.7615	1122.3898	1128.0304	1133.3238	1162.6319	1174.4546	1203.6781	1216.199	1234.5334	1296.1981	1326.8284	1453.7884	1462.2185	1502.4801	3126.3285	3128.1728	3140.0865	3143.0824	3146.6416	3160.0295	3224.2454	3238.5356
C1CC1C12OC3C1OC23	C1CC1[C@@]12O[C@H]3[C@@H]1O[C@@H]23	
InChI=1S/C7H8O2/c1-2-3(1)7-5-4(9-7)6(7)8-5/h3-6H,1-2H2	InChI=1S/C7H8O2/c1-2-3(1)7-5-4(9-7)6(7)8-5/h3-6H,1-2H2/t4-,5-,6+,7+
