21
gdb 111682	2.44377	1.31607	1.15592	2.1738	77.96	-0.2492	0.0694	0.3186	1188.5105	0.183239	-424.214258	-424.205335	-424.20439	-424.24779	34.006	
C	-0.2103075059	 1.4942964345	-0.0954565701	-0.406324
C	-0.029976389	-0.0097628215	 0.0468702122	 0.131298
O	 0.6339002092	-0.510104925	-1.1187271699	-0.264306
C	 1.2683234502	-1.742296532	-0.7906158422	-0.099433
C	 1.6163203936	-1.6658710248	 0.6883730751	-0.098657
C	 2.308600711	-0.4127720275	 1.1858470134	-0.042027
C	 3.1448764679	 0.4955919985	 0.3067328642	-0.105225
O	 4.5000832227	 0.0581633016	 0.2603360474	-0.422339
C	 0.7983936176	-0.5111994909	 1.2218643733	-0.100476
H	 0.7529414495	 2.0079003229	-0.1451305953	 0.128423
H	-0.7713822301	 1.7230623301	-1.006035624	 0.126369
H	-0.7692566132	 1.8883578043	 0.758949622	 0.115329
H	-1.0273708726	-0.4780043779	 0.1269930573	 0.068059
H	 0.5941496402	-2.5956797191	-0.9681743878	 0.096575
H	 2.129049895	-1.8495937697	-1.4613076084	 0.100291
H	 1.7253321145	-2.5954223088	 1.2355143839	 0.089509
H	 2.7627546122	-0.5360536041	 2.1669257644	 0.093791
H	 2.7149244118	 0.5820982606	-0.6970891828	 0.115027
H	 3.1833438208	 1.5010809952	 0.7401161132	 0.10674
H	 4.50074074	-0.8295605801	-0.1118608871	 0.278867
H	 0.3092710944	-0.5633642264	 2.1883063912	 0.08851
85.6887	127.7564	187.5154	201.0576	228.0358	257.3104	294.0032	344.5592	429.0261	482.9829	551.1955	675.4557	741.0123	767.941	801.1343	846.084	877.3769	944.9086	990.8136	993.619	1013.5082	1036.1374	1054.1996	1079.8199	1089.8513	1108.4025	1127.2889	1136.2573	1159.1519	1198.029	1233.7245	1246.2979	1327.8938	1338.1735	1343.6076	1359.4108	1390.5333	1398.6499	1412.6963	1421.0364	1449.5355	1486.6036	1497.2829	1514.2591	1521.5374	2938.203	2975.58	3038.1286	3046.6309	3047.8481	3078.3664	3115.6499	3129.9853	3131.2178	3167.3604	3178.0954	3814.1756
CC1OCC2C(CO)C12	C[C@H]1OC[C@H]2[C@@H](CO)[C@@H]12	
InChI=1S/C7H12O2/c1-4-7-5(2-8)6(7)3-9-4/h4-8H,2-3H2,1H3	InChI=1S/C7H12O2/c1-4-7-5(2-8)6(7)3-9-4/h4-8H,2-3H2,1H3/t4-,5-,6+,7-/m1/s1
