18
gdb 31809	4.61862	0.99147	0.87985	0.7631	83.7	-0.2184	-0.0257	0.1927	1350.7145	0.149981	-398.205919	-398.197448	-398.196504	-398.239511	31.791	
C	-0.0585617145	 1.5608206521	-0.0469110675	-0.364894
C	 0.0100181659	 0.0246789255	 0.0106784922	-0.298613
C	 0.7353325212	-0.4928229747	 1.2267722469	 0.227028
C	 2.1101774566	-0.7317439731	 1.2448084795	-0.054889
N	 2.7770365668	-1.1605693528	 2.3121020456	-0.313461
C	 2.0413313121	-1.3590962574	 3.4185724608	 0.431879
N	 2.7122773731	-1.7421720932	 4.546378338	-0.554215
N	 0.7125502884	-1.1940254304	 3.5289901571	-0.313423
C	 0.0914041749	-0.7644505384	 2.4348050706	-0.054653
H	 0.9451758415	 1.997433547	-0.0647129872	 0.121276
H	-0.5914721402	 1.8964667237	-0.9422685403	 0.113654
H	-0.5779743505	 1.963075425	 0.8288115327	 0.121253
H	-1.0079419443	-0.3827787931	-0.0065043701	 0.105539
H	 0.5050833498	-0.3485054652	-0.8938485623	 0.10545
H	 2.7032567703	-0.5769207559	 0.3432745927	 0.103418
H	 3.6402775629	-2.1078536744	 4.4143681778	 0.260611
H	 2.1564331338	-2.1320272023	 5.2889287991	 0.260611
H	-0.9879837577	-0.6368111525	 2.5191384344	 0.103429
44.8489	96.0967	204.4497	211.8534	313.3972	396.8352	414.9751	419.2646	424.5244	502.4388	514.2322	584.1931	669.6548	757.548	785.4102	835.2104	893.058	970.6003	972.8567	1008.0539	1045.2829	1054.5165	1085.953	1092.7046	1255.8117	1259.6459	1296.0068	1335.7459	1357.5993	1391.4327	1411.0425	1437.5053	1484.1088	1496.9705	1499.0711	1508.2264	1589.1295	1625.334	1655.0905	3026.8644	3033.7353	3060.9933	3106.4931	3108.2555	3125.6205	3128.3792	3607.471	3735.7685
CCC1=CN=C(N)N=C1	CCc1cnc(N)nc1	
InChI=1S/C6H9N3/c1-2-5-3-8-6(7)9-4-5/h3-4H,2H2,1H3,(H2,7,8,9)	InChI=1S/C6H9N3/c1-2-5-3-8-6(7)9-4-5/h3-4H,2H2,1H3,(H2,7,8,9)
