17
gdb 40426	4.22758	1.24887	1.12688	2.0791	72.9	-0.2493	-0.0024	0.247	1100.3395	0.135968	-421.787239	-421.779848	-421.778904	-421.819303	28.7	
C	 0.8017560045	 1.3104165167	 0.2268328228	-0.172708
O	 1.0155344616	 0.0805753667	-0.4704655337	-0.231142
C	-0.2703869124	 0.3129430239	 0.0960329182	-0.05242
C	-0.6672819708	-0.5623220274	 1.2397397194	 0.398177
O	 0.3207353154	-0.7421931773	 2.2792017217	-0.300985
C	-0.0879926467	-1.890543408	 1.5272735355	-0.018584
C	-1.1539522345	-2.7373447213	 2.2105715588	-0.302255
C	-2.327582825	-1.7828863412	 2.3219442862	-0.074284
C	-2.0712129852	-0.5975620746	 1.7632383754	-0.155274
H	 1.3182631377	 1.3914819077	 1.1798782688	 0.134347
H	 0.7869971458	 2.2041480584	-0.3949660549	 0.113854
H	-1.0635939979	 0.4899073843	-0.6320321298	 0.094904
H	 0.6848492207	-2.332684446	 0.9064931041	 0.11312
H	-1.401828169	-3.6239153323	 1.6132162007	 0.116627
H	-0.8189015225	-3.0967847533	 3.1910903426	 0.129124
H	-3.2447203083	-2.047701781	 2.8360832063	 0.105242
H	-2.7480907434	 0.2467106948	 1.7156774579	 0.102258
76.5341	171.9423	180.496	295.0098	333.5132	429.2568	483.0919	538.5259	661.7848	720.6003	739.6493	796.0672	855.4098	877.0761	898.6708	914.2846	930.3919	954.0773	984.355	1003.7783	1031.2223	1071.3589	1101.7322	1135.6685	1157.0026	1168.2523	1183.6185	1188.8936	1274.1211	1289.2212	1309.0691	1359.315	1414.1518	1453.6433	1460.5623	1517.5778	1662.0361	3030.3681	3065.325	3092.3118	3101.6514	3170.3305	3190.7215	3193.5696	3216.7857
C1OC1C12OC1CC=C2	C1O[C@H]1[C@]12O[C@H]1CC=C2	
InChI=1S/C7H8O2/c1-2-5-7(3-1,9-5)6-4-8-6/h1,3,5-6H,2,4H2	InChI=1S/C7H8O2/c1-2-5-7(3-1,9-5)6-4-8-6/h1,3,5-6H,2,4H2/t5-,6+,7+/m0/s1
