18
gdb 77550	2.97966	1.28984	1.07668	3.0693	74.63	-0.2466	-0.0379	0.2087	1154.7735	0.146321	-439.029961	-439.021331	-439.020387	-439.063247	32.557	
C	-0.0586029476	 1.4566024698	 0.1019509077	-0.513702
C	-0.0233071982	-0.0363731975	-0.0318618954	 0.27299
C	 0.677207061	-0.9241648298	-1.0960916423	-0.308422
C	 0.110716786	-1.8843754592	-0.032433211	 0.20316
N	 0.5230075698	-0.9371459038	 1.0888954267	-0.430532
C	 0.2352006402	-3.3622201042	 0.0802574728	 0.026343
O	 0.4894226032	-4.0871353533	-0.8502310604	-0.249324
C	-1.2270439794	-1.0313687881	-0.0695998192	 0.142754
O	-2.0887667617	-1.0760928239	 1.0071530816	-0.442275
H	 0.946994097	 1.8691588934	 0.2359039937	 0.125334
H	-0.4935972794	 1.9096043295	-0.7946483955	 0.132211
H	-0.6682171472	 1.7470141672	 0.9632098985	 0.136452
H	 0.2499541552	-0.9602595924	-2.1024240998	 0.109401
H	 1.7676480688	-0.8562400475	-1.1219970269	 0.103794
H	 1.5447945828	-0.8683615213	 1.1188218726	 0.213133
H	 0.049192369	-3.7621540115	 1.1020204279	 0.085261
H	-1.8015623877	-1.0896521622	-0.9948217889	 0.100813
H	-1.5174094718	-1.009168445	 1.7887153679	 0.292607
76.0902	148.7666	186.9612	193.5618	207.7861	311.0153	334.8518	411.0805	492.3145	522.3204	614.156	638.52	657.1721	719.8244	739.2724	809.9912	876.2299	922.5923	980.7155	1012.0905	1023.739	1075.5248	1095.3206	1135.2041	1146.4753	1161.6149	1180.167	1226.7828	1239.8454	1279.3624	1332.6268	1365.0064	1411.1501	1415.675	1453.0183	1483.8033	1486.6177	1515.3317	1812.4742	2885.5623	3034.9355	3052.6223	3103.9464	3112.3302	3119.0554	3124.5338	3395.9645	3703.5142
CC12CC(N1)(C=O)C2O	C[C@@]12C[C@](N1)(C=O)[C@H]2O	
InChI=1S/C6H9NO2/c1-5-2-6(3-8,7-5)4(5)9/h3-4,7,9H,2H2,1H3	InChI=1S/C6H9NO2/c1-5-2-6(3-8,7-5)4(5)9/h3-4,7,9H,2H2,1H3/t4-,5-,6-/m0/s1
