22
gdb 95203	2.16874	1.7889	1.30956	2.1167	81.17	-0.2113	0.0594	0.2707	1086.3952	0.195993	-404.330219	-404.321596	-404.320652	-404.362794	34.395	
C	-0.0375925413	 1.5751340927	 0.0234263288	-0.397746
C	 0.0905351219	 0.0473161743	 0.0073163187	 0.001016
C	 0.7296969479	-0.4513230457	-1.2846182974	-0.004854
C	 2.1792347778	-0.3014137263	-1.5787227284	-0.247614
N	 1.6095951426	-1.6300206418	-1.3335972128	-0.113075
C	 1.976451121	-2.2927821333	-0.0695243366	-0.135009
C	 1.0157605029	-2.0126089525	 1.0924393459	-0.243201
C	 0.7687901021	-0.5117635574	 1.2684481784	 0.099874
O	 1.9839901985	 0.205616873	 1.4935012489	-0.42823
H	 0.9465353841	 2.046959985	 0.0566544773	 0.136371
H	-0.5604181333	 1.9290545863	-0.8711393604	 0.108829
H	-0.6044031634	 1.9112115586	 0.8987459976	 0.10523
H	-0.9244128466	-0.3743464982	 0.0300899702	 0.075418
H	 0.0459048107	-0.4074302511	-2.132612703	 0.082005
H	 2.5186027783	-0.1198335577	-2.5962234294	 0.100667
H	 2.7982968124	 0.1311786736	-0.7977005932	 0.12757
H	 2.0067237204	-3.3724263865	-0.2569168515	 0.099954
H	 2.9902907095	-1.993432441	 0.219072191	 0.097795
H	 0.0510234172	-2.5034803275	 0.9127872211	 0.104436
H	 1.4205782491	-2.449104351	 2.014857294	 0.084929
H	 0.0871747476	-0.3467229841	 2.1180478178	 0.062307
H	 2.4095899604	-0.1671824493	 2.2719623331	 0.283327
117.593	191.2591	218.5611	229.7181	254.9798	292.0608	369.6683	372.9772	416.2808	435.4564	547.904	614.1888	706.7202	717.5687	761.3629	847.8699	885.7453	912.7919	936.7158	972.3481	996.4953	1029.7149	1058.8537	1067.7329	1088.2759	1112.6129	1129.1748	1134.2424	1176.3731	1198.3509	1220.2542	1237.7393	1257.6511	1327.8404	1334.2288	1354.9708	1369.8493	1378.2745	1401.3571	1406.5713	1410.5045	1445.8335	1481.3964	1493.4543	1496.9154	1502.1102	1516.7472	2965.4997	3001.5552	3018.6455	3029.2455	3035.452	3050.1524	3067.9886	3092.3844	3095.973	3099.5969	3132.7341	3193.2722	3818.9817
CC1C2CN2CCC1O	C[C@H]1[C@H]2CN2CC[C@H]1O	
InChI=1S/C7H13NO/c1-5-6-4-8(6)3-2-7(5)9/h5-7,9H,2-4H2,1H3	InChI=1S/C7H13NO/c1-5-6-4-8(6)3-2-7(5)9/h5-7,9H,2-4H2,1H3/t5-,6+,7+,8?/m0/s1
