19
gdb 77553	2.80248	1.32807	1.08116	2.7902	77.37	-0.2455	-0.0373	0.2082	1177.1595	0.155798	-422.977083	-422.967725	-422.966781	-423.011488	34.306	
C	-0.0668515662	 1.6598219665	 0.1158395233	-0.442035
C	 0.0920001706	 0.1529352338	 0.0397639368	-0.028867
C	 0.889908388	-0.5872450967	-1.0822682975	 0.384622
C	 0.5278549604	-0.8231142252	-2.5142954359	-0.513648
C	 2.230557389	-0.1046043411	-0.4628851273	-0.30753
C	 1.3073393303	-0.6166524173	 0.6677264112	 0.307995
O	 0.9531472317	-1.7740144884	-0.1746296387	-0.372268
C	 1.5879339772	-0.8522603612	 2.1132266606	 0.029587
O	 2.0850837733	-0.024827373	 2.8352826976	-0.252824
H	 0.8514967032	 2.2050846074	-0.1131334864	 0.126155
H	-0.8381113028	 1.9925894826	-0.5875534089	 0.12475
H	-0.3878574477	 1.9580904614	 1.1190190178	 0.136859
H	-0.842937414	-0.3703002949	 0.2601312467	 0.087305
H	 0.5129474012	 0.1245598136	-3.0618969748	 0.130129
H	 1.2564067925	-1.4860916224	-2.9904714218	 0.137593
H	-0.4622466769	-1.282834269	-2.5884956562	 0.135873
H	 3.0856166279	-0.749567154	-0.6686960773	 0.111881
H	 2.4834721225	 0.9549651651	-0.4956933649	 0.109344
H	 1.2758177797	-1.8551507171	 2.4801733557	 0.09508
47.3485	131.2647	157.1809	180.3658	188.299	202.7026	315.4353	335.6478	393.6108	462.9498	552.0659	587.271	634.7127	676.3931	732.7047	781.4181	803.6871	924.2243	952.7122	1005.1097	1007.0123	1063.9542	1089.7534	1106.8588	1127.97	1135.7409	1159.1055	1175.8573	1210.8985	1256.7898	1334.3905	1387.028	1404.3381	1409.4285	1425.2798	1477.364	1487.5742	1492.1592	1494.2415	1509.3491	1819.1576	2891.4927	3039.0877	3040.1175	3074.6478	3086.3521	3099.0214	3114.2639	3116.8939	3125.1823	3161.0883
CC1C2(C)CC1(O2)C=O	C[C@H]1[C@@]2(C)C[C@@]1(O2)C=O	
InChI=1S/C7H10O2/c1-5-6(2)3-7(5,4-8)9-6/h4-5H,3H2,1-2H3	InChI=1S/C7H10O2/c1-5-6(2)3-7(5,4-8)9-6/h4-5H,3H2,1-2H3/t5-,6+,7+/m0/s1
