21
gdb 82311	2.47029	1.7023	1.25246	1.7241	80.69	-0.2564	0.0789	0.3352	1078.401	0.183577	-387.075241	-387.067198	-387.066254	-387.107448	32.551	
C	-0.8348248256	 1.1368951791	-0.0202331425	-0.415818
C	 0.0136768031	-0.1317592574	-0.0901861763	-0.047728
C	 1.0134196919	-0.1951224539	-1.2385628275	-0.037878
C	 2.3144198312	 0.5577936493	-1.0837101436	-0.293297
C	 2.2579856342	-0.9164426554	-0.7617183054	-0.041645
C	 2.0510453942	-1.3019119737	 0.6939066334	-0.306033
C	 0.8788824275	-0.4284307534	 1.1449747648	 0.434339
C	 0.9691210433	 0.4514127109	 2.320290327	-0.250754
O	 0.2179945123	-0.7670148327	 2.3609647053	-0.297182
H	-0.209716856	 2.0347069111	 0.0216760884	 0.114973
H	-1.4771927615	 1.2199815362	-0.9025650634	 0.111974
H	-1.4835498768	 1.1235714067	 0.8618104877	 0.125618
H	-0.6653664107	-0.990958398	-0.1947714192	 0.085488
H	 0.6283708873	-0.3504428544	-2.2404881695	 0.080993
H	 2.8287138475	 0.8474330798	-1.9934713776	 0.108945
H	 2.4232365108	 1.2703016652	-0.2716087201	 0.111121
H	 2.785285302	-1.6069337732	-1.4099226926	 0.083436
H	 1.757407841	-2.3565279224	 0.7665987263	 0.112086
H	 2.9372454124	-1.1648821651	 1.3221038734	 0.10129
H	 1.8838123239	 0.4548075993	 2.9130302705	 0.107833
H	 0.3790896082	 1.3635889418	 2.379377111	 0.112241
90.125	195.4763	244.6449	262.1769	294.9424	360.5846	386.8747	416.8556	497.5973	564.6716	604.7165	729.9927	777.5998	826.7508	860.0489	872.2572	893.5125	908.2239	934.2538	975.187	1003.1499	1043.8042	1060.19	1067.9425	1094.6843	1107.9471	1116.4367	1132.1264	1150.4846	1165.6799	1190.2251	1204.1543	1230.1137	1304.3056	1310.3782	1340.5703	1372.6146	1395.73	1397.2482	1422.0061	1484.3427	1491.5762	1497.4666	1501.3514	1531.797	2997.277	3031.5789	3031.9124	3074.3112	3082.0637	3101.0421	3104.537	3126.3633	3163.8146	3169.6635	3174.3675	3211.0667
CC1C2CC2CC11CO1	C[C@H]1[C@H]2C[C@H]2C[C@]21CO2	
InChI=1S/C8H12O/c1-5-7-2-6(7)3-8(5)4-9-8/h5-7H,2-4H2,1H3	InChI=1S/C8H12O/c1-5-7-2-6(7)3-8(5)4-9-8/h5-7H,2-4H2,1H3/t5-,6-,7+,8+/m0/s1
