18
gdb 88237	4.23147	0.71775	0.66231	2.4215	84.78	-0.2305	0.0164	0.2469	1697.9141	0.145973	-401.856419	-401.847151	-401.846207	-401.892383	32.816	
C	-0.3331544068	 1.3293325852	-0.100080995	-0.310709
N	 0.0618679151	-0.0701513551	-0.0086592619	-0.075191
C	 1.4643414181	-0.3754359309	-0.2091476202	-0.237521
C	 0.8565936066	-0.4953903304	 1.1605117771	-0.182776
C	 1.2379776694	 0.4208361663	 2.1986944853	 0.154929
C	 1.520393757	 1.1676784505	 3.103495667	 0.057605
C	 1.9066225012	 2.037582379	 4.1793986113	-0.120817
C	 1.3709660682	 3.4085408106	 4.303615344	-0.16002
O	 0.9096113683	 2.3749813859	 5.1610944326	-0.212877
H	 0.4249302315	 2.031409346	 0.2774899419	 0.110774
H	-0.5341426885	 1.5612665524	-1.1503256109	 0.125309
H	-1.2551308323	 1.4799667335	 0.4690731777	 0.130737
H	 1.6867067671	-1.2755193799	-0.7762775162	 0.122548
H	 2.1567850917	 0.4513478108	-0.3599363465	 0.11743
H	 0.5926137959	-1.4902638894	 1.5123597717	 0.118949
H	 2.8890158346	 1.8427979375	 4.6087322454	 0.118201
H	 1.9857411315	 4.1764278622	 4.7719436147	 0.11994
H	 0.6549672413	 3.7618397156	 3.563955102	 0.123489
20.3796	70.6471	97.1038	176.3033	202.7398	227.411	335.9558	370.8927	429.9173	504.874	540.4007	607.6949	703.5285	756.4335	825.8809	847.2707	901.2204	963.9644	1012.2439	1026.61	1068.9674	1091.8392	1113.475	1126.27	1152.7944	1159.9781	1166.8773	1205.2232	1209.2114	1283.074	1322.3962	1368.7747	1410.8372	1448.9174	1488.8917	1494.3728	1507.4446	1519.8959	2349.3894	2993.7255	3079.259	3084.4064	3093.4041	3112.4442	3113.1138	3127.3446	3177.3857	3183.436
CN1CC1C#CC1CO1	CN1C[C@H]1C#C[C@H]1CO1	
InChI=1S/C7H9NO/c1-8-4-6(8)2-3-7-5-9-7/h6-7H,4-5H2,1H3	InChI=1S/C7H9NO/c1-8-4-6(8)2-3-7-5-9-7/h6-7H,4-5H2,1H3/t6-,7+,8?/m1/s1
