20
gdb 55865	2.89655	1.04253	0.94503	5.7571	75.52	-0.2421	0.0208	0.2628	1320.5779	0.169881	-440.304049	-440.294342	-440.293398	-440.338819	36.413	
C	-0.4088580359	 1.2295119623	 0.6381786418	-0.434616
C	 0.1361081939	-0.0737457189	 0.0884144574	 0.311128
N	-0.938016828	-1.0004727316	-0.2204921417	-0.560035
H	-0.5730388537	-1.8509898011	-0.6387161505	 0.231375
H	-0.15252867	-1.0791590542	 2.2621579464	 0.322776
H	-1.5720033863	-0.5917761979	-0.903161175	 0.23138
C	 1.4293544803	-0.04211251	-0.6987191621	-0.373202
C	 1.3832286383	-0.7092996887	 0.6666697649	-0.063752
C	 2.0854706424	-0.1762679787	 1.8926795172	-0.366985
C	 1.4339485947	-0.559244908	 3.2275297612	 0.414702
O	 0.1628430153	-1.0211357322	 3.1761807684	-0.371853
O	 1.9976095222	-0.4447962298	 4.2802070731	-0.321752
H	 0.386972657	 1.9406257159	 0.8682805778	 0.124673
H	-1.0603576925	 1.7038199245	-0.1052554229	 0.119791
H	-1.0011757366	 1.0647934594	 1.54365042	 0.135809
H	 1.5289525799	-0.6889569317	-1.5645569017	 0.109896
H	 1.9565734195	 0.9032013233	-0.7864848886	 0.115332
H	 1.3779382523	-1.7980313849	 0.6200672054	 0.098426
H	 3.1229229967	-0.5206186953	 1.9433177421	 0.140569
H	 2.1370413205	 0.9179317777	 1.8762876368	 0.136338
58.6299	95.3655	106.1047	195.6784	246.3937	282.0283	283.9393	356.7882	391.1258	402.9268	476.1059	497.152	570.3074	634.1187	672.8583	710.778	791.9022	849.4589	874.2216	898.493	936.4696	959.1253	979.2171	1040.2363	1048.8354	1085.7598	1121.7637	1149.8497	1183.0061	1192.2479	1236.1987	1289.2463	1310.1625	1318.8358	1384.9247	1426.3199	1428.6088	1457.0898	1484.6909	1493.4445	1509.5739	1656.3924	1866.1531	3035.0941	3055.4574	3090.1117	3096.1803	3110.4552	3120.1719	3130.2067	3207.4135	3476.9695	3561.467	3733.077
CC1([NH3+])CC1CC([O-])=O	C[C@@]1(N)C[C@H]1CC(=O)O	
InChI=1S/C6H11NO2/c1-6(7)3-4(6)2-5(8)9/h4H,2-3,7H2,1H3,(H,8,9)	InChI=1S/C6H11NO2/c1-6(7)3-4(6)2-5(8)9/h4H,2-3,7H2,1H3,(H,8,9)/t4-,6-/m1/s1
