17
gdb 52170	5.96152	0.72824	0.67808	1.2919	72.7	-0.2608	0.0178	0.2786	1590.6167	0.136166	-455.170361	-455.161598	-455.160654	-455.205541	31.055	
N	 0.14210721	 0.7983019053	 1.2228499907	-0.532548
C	 0.0208350997	-0.0718781728	 0.3313842993	 0.44267
C	-1.1468422184	-0.7846861036	-0.3183048757	-0.383631
C	-0.0525946529	-1.5039810575	-1.1326864395	 0.124961
C	 0.0122717646	-1.2363094418	-2.6238816823	-0.177363
N	 1.2899558078	-1.6367122023	-3.179610944	-0.275813
C	 1.4138059696	-2.6141578979	-4.1192989036	 0.15598
O	 0.4916059262	-3.2234945306	-4.6173405735	-0.319179
O	 0.9797132449	-0.734974054	-0.4165145856	-0.277244
H	 1.1228586734	 1.0261514508	 1.3939259677	 0.230227
H	-1.7349654856	-1.4096922874	 0.3543920576	 0.145839
H	-1.8142438272	-0.1375715781	-0.8914008599	 0.141315
H	 0.0733671728	-2.5683624905	-0.9174330942	 0.108805
H	-0.7560498657	-1.8132346835	-3.1454846273	 0.158152
H	-0.1676836563	-0.1698576149	-2.8107939275	 0.115703
H	 2.1228284749	-1.217066121	-2.7968694971	 0.26044
H	 2.473140422	-2.7909353304	-4.3888301552	 0.081685
31.1603	61.6078	95.1581	173.195	246.0578	289.7655	396.3403	431.2561	493.765	512.8521	562.7242	703.6777	766.9541	839.3104	867.738	887.2904	934.8463	985.4598	1008.1713	1030.8872	1043.1248	1066.0165	1097.4641	1163.3546	1210.1657	1220.9811	1242.0269	1273.485	1313.0514	1355.2794	1414.4977	1429.0117	1464.7739	1475.7834	1528.6194	1805.4847	1831.0285	2947.7189	3025.7803	3082.6198	3087.305	3114.8137	3144.6119	3479.7966	3634.8087
N=C1CC(CNC=O)O1	[NH][C]1C[C@@H](CNC=O)O1	
InChI=1S/C5H8N2O2/c6-5-1-4(9-5)2-7-3-8/h3-4,6H,1-2H2,(H,7,8)	InChI=1S/C5H8N2O2/c6-5-1-4(9-5)2-7-3-8/h3-4,6H,1-2H2,(H,7,8)/t4-/m0/s1
