16
gdb 55555	4.6671	0.85389	0.76217	5.8171	69.05	-0.2574	-0.017	0.2403	1450.6679	0.12494	-471.24012	-471.231162	-471.230218	-471.275001	31.913	
N	-0.0584799712	 1.3698876319	 0.3287767919	-0.567909
C	 0.1914099155	 0.0322967088	 0.0634534006	 0.470234
O	 1.2933624501	-0.4360926964	-0.0504806479	-0.325737
N	-1.0080691903	-0.7136912108	 0.017529666	-0.42269
C	-1.1507951853	-2.0356293398	-0.3869664276	 0.461546
O	-0.2712383055	-2.7086183025	-0.872529973	-0.340437
C	-2.5394657757	-2.5774942499	-0.1845479672	-0.143345
C	-3.1161146514	-3.3479682751	-1.3299943786	-0.219208
N	-2.6611501392	-4.0381395004	-0.1297214527	-0.298581
H	 0.7662429273	 1.9449486085	 0.2428662512	 0.270286
H	-0.8990557242	 1.7885089121	-0.0399390804	 0.253772
H	-1.8311463051	-0.2708269273	 0.3966694311	 0.254563
H	-3.2037328457	-2.0320206969	 0.4818318339	 0.090737
H	-4.1912434373	-3.334657632	-1.4837068259	 0.125257
H	-2.5078030246	-3.4119360404	-2.22757858	 0.1376
H	-1.7280130975	-4.4131649198	-0.3071489014	 0.253909
49.019	56.6086	122.1827	147.5173	282.5032	291.2461	333.6976	396.4723	420.5451	543.044	556.5026	597.8659	723.6108	746.8943	781.3243	841.7195	875.2718	942.33	953.4164	992.4015	1023.2826	1107.0513	1121.458	1132.2093	1172.4949	1197.5734	1286.992	1313.63	1325.0545	1404.6745	1496.2565	1514.5611	1628.1951	1794.1505	1869.4423	3114.2204	3131.2989	3208.7314	3461.6663	3574.2487	3621.1367	3689.9473
NC(=O)NC(=O)C1CN1	NC(=O)NC(=O)[C@H]1CN1	
InChI=1S/C4H7N3O2/c5-4(9)7-3(8)2-1-6-2/h2,6H,1H2,(H3,5,7,8,9)	InChI=1S/C4H7N3O2/c5-4(9)7-3(8)2-1-6-2/h2,6H,1H2,(H3,5,7,8,9)/t2-/m1/s1
