19
gdb 22625	2.45788	1.51271	1.19874	1.7257	79.34	-0.2434	0.0179	0.2613	1111.7018	0.159901	-419.138949	-419.130592	-419.129648	-419.171558	32.644	
C	-0.0026014138	 1.5367012117	 0.0558668568	-0.493036
C	-0.0174288667	 0.0327157445	 0.0356167898	 0.239791
C	 0.4998405702	-0.7266243539	-1.2234436696	-0.259779
C	 0.350820179	-2.1981813889	-0.7063635369	-0.232547
C	-0.2072004235	-1.8851226842	 0.707222464	-0.098112
N	 0.6254983078	-0.7230928917	 1.1831406584	-0.353446
C	-1.2341177698	-0.8154067029	 0.3764282449	 0.496756
N	-2.4694695654	-0.581471133	 0.4191975818	-0.31427
O	-3.192650011	-1.7098853394	 0.8689083954	-0.396626
H	 1.0131362095	 1.9177318376	-0.0971275193	 0.115019
H	-0.6358246996	 1.9360956781	-0.7424042844	 0.129418
H	-0.3733723622	 1.911889711	 1.012601343	 0.137548
H	-0.1031468692	-0.5241724659	-2.1129263676	 0.110905
H	 1.5359804697	-0.4528754637	-1.4474718136	 0.097438
H	-0.334473507	-2.798051534	-1.3110692327	 0.114866
H	 1.3056537856	-2.729325538	-0.6481346095	 0.100713
H	-0.3973539375	-2.7005382916	 1.4011493092	 0.093872
H	 1.6237396692	-0.8806389863	 1.0247322934	 0.206023
H	-4.0962311452	-1.3766172492	 0.8750980769	 0.305468
115.6615	155.9187	194.3797	242.8406	271.2658	299.5628	347.9475	405.1703	467.8207	555.2035	609.0286	682.5687	709.1933	779.9364	826.3454	850.7219	875.9815	892.213	911.6749	946.8772	962.8367	1002.3204	1071.1665	1083.2964	1107.0847	1138.0433	1145.8415	1191.7657	1229.3965	1258.7201	1289.4975	1298.3449	1325.2144	1355.4346	1409.3224	1421.3436	1481.8353	1490.8209	1492.2815	1506.1281	1832.6115	3037.8778	3045.988	3057.5086	3091.0114	3103.5029	3108.6785	3126.9056	3152.4602	3411.6059	3819.3545
CC12CCC(N1)C2=NO	C[C@@]12CC[C@@H](N1)C2=NO	
InChI=1S/C6H10N2O/c1-6-3-2-4(7-6)5(6)8-9/h4,7,9H,2-3H2,1H3	InChI=1S/C6H10N2O/c1-6-3-2-4(7-6)5(6)8-9/h4,7,9H,2-3H2,1H3/t4-,6+/m1/s1
