18
gdb 114791	3.55148	1.35222	1.27623	1.8834	69.91	-0.2371	0.0717	0.3088	1035.5371	0.149606	-439.024257	-439.017044	-439.016099	-439.056033	28.746	
O	 0.0679870008	 1.5505451642	-0.0552094164	-0.421325
C	 0.1148886153	 0.1457178939	 0.089739549	-0.072377
C	-1.2763898581	-0.4613829561	-0.093004682	 0.077963
O	-1.8326073962	-0.0524141009	-1.3629371013	-0.294425
C	-1.9997794299	-1.2248189923	-2.150228019	 0.066713
C	-0.649542562	-1.9272612079	-2.4066498873	-0.177823
N	-0.8391618445	-2.8133224027	-1.2018773773	-0.161751
C	-2.290310441	-2.3901267893	-1.1740168149	-0.06503
C	-1.3889886078	-1.9768939037	-0.0889813091	-0.065795
H	-0.3992035868	 1.7139235004	-0.8835936156	 0.289982
H	 0.8316507648	-0.3112395763	-0.6079083653	 0.094692
H	 0.4689733735	-0.0615263124	 1.1059345759	 0.109374
H	-1.9238502331	-0.049949508	 0.6941559469	 0.093593
H	-2.6636946353	-0.9994387109	-2.9836232154	 0.091274
H	-0.6641522806	-2.5682779176	-3.2922795416	 0.115743
H	 0.2495286558	-1.3050104647	-2.4179411772	 0.107512
H	-3.1226454064	-3.0807715109	-1.1266249702	 0.102495
H	-1.3821134184	-2.4991728148	 0.8609984405	 0.109186
89.6654	162.9707	209.4062	341.1956	419.8125	454.173	478.4575	520.1373	658.2399	694.56	774.8777	788.8185	829.4335	852.9059	887.5811	915.6597	967.6793	969.3966	1012.8213	1035.4876	1049.8985	1069.8524	1100.7827	1106.3467	1114.5444	1176.3426	1191.1357	1226.7753	1232.6045	1268.989	1295.923	1314.6533	1330.1936	1359.8875	1384.713	1400.155	1437.8639	1491.3395	1511.3687	2996.2061	3012.7962	3055.4709	3069.731	3111.3896	3129.7756	3181.9973	3197.7255	3787.7697
OCC1OC2CN3C2C13	OC[C@H]1O[C@H]2CN3[C@H]2[C@H]13	
InChI=1S/C6H9NO2/c8-2-4-6-5-3(9-4)1-7(5)6/h3-6,8H,1-2H2	InChI=1S/C6H9NO2/c8-2-4-6-5-3(9-4)1-7(5)6/h3-6,8H,1-2H2/t3-,4+,5+,6-,7?/m0/s1
