18
gdb 90378	2.26148	1.54735	1.31951	1.8668	78.85	-0.2294	0.0344	0.2638	1073.7239	0.145286	-401.864515	-401.855378	-401.854434	-401.897856	34.52	
C	 0.0117388141	 1.5155446653	 0.0393168687	-0.500696
C	-0.0337287762	 0.0197460114	-0.0709608902	 0.334479
C	-0.9063122398	-0.8127252943	 0.8060121994	-0.268374
C	-1.7449783834	-1.9055784645	 0.4004467513	 0.380054
C	-2.4760565006	-2.8243268901	 0.1402217996	-0.453489
N	 0.5742698779	-0.924075044	 0.9636867848	-0.18823
C	 1.0337303512	-1.8141754065	-0.1637203979	-0.215077
C	 0.5638207413	-0.7766562243	-1.2225467877	 0.043688
O	-0.3439310969	-1.1212558178	-2.2392742573	-0.427518
H	 1.0053474482	 1.898072324	-0.217412687	 0.123422
H	-0.7143728896	 1.9705584345	-0.6436824042	 0.135907
H	-0.2245545857	 1.8418749259	 1.0559484974	 0.130892
H	-1.319284241	-0.248910572	 1.640368157	 0.116743
H	-3.1219188418	-3.6255764172	-0.1212815882	 0.196107
H	 2.1153944396	-1.9505990082	-0.1118957117	 0.106039
H	 0.5325171793	-2.7844896259	-0.191175825	 0.122792
H	 1.4278292891	-0.2351454075	-1.6332104674	 0.077551
H	 0.1323771241	-1.6015149987	-2.9240631716	 0.285711
114.4303	137.861	167.0807	180.9666	229.593	245.2842	304.4801	370.0801	415.9378	461.4088	562.503	578.0472	603.0632	637.9018	662.1791	743.6274	776.2685	844.0743	889.5654	955.6564	985.8621	1030.7398	1070.5242	1098.5434	1102.458	1147.5714	1190.0285	1205.587	1251.4216	1283.5083	1320.6802	1337.6301	1407.5085	1420.2417	1455.1905	1482.5392	1491.4943	1493.0442	2234.1396	2998.4062	3031.9364	3068.7071	3096.0092	3113.9193	3127.1027	3129.1629	3503.0899	3816.3018
CC12C(C#C)N1CC2O	C[C@]12[C@@H](C#C)N1C[C@H]2O	
InChI=1S/C7H9NO/c1-3-5-7(2)6(9)4-8(5)7/h1,5-6,9H,4H2,2H3	InChI=1S/C7H9NO/c1-3-5-7(2)6(9)4-8(5)7/h1,5-6,9H,4H2,2H3/t5-,6-,7-,8?/m1/s1
