20
gdb 8437	2.68511	2.09144	1.75687	1.0503	74.78	-0.2378	0.0749	0.3127	892.3058	0.175565	-348.984822	-348.976335	-348.975391	-349.016745	33.37	
C	-0.0547502356	 1.5344172889	 0.005901687	-0.498606
C	 0.0430382172	 0.0356193634	 0.0197024813	 0.352618
C	-0.8125014872	-0.8388351466	 0.8992573349	-0.341076
C	 0.6819603466	-0.9168853029	 1.0358641757	-0.090628
C	 1.2447985872	-1.7906493105	-0.0892427859	-0.286616
C	 0.6334169345	-0.7940872361	-1.1408488059	 0.349912
C	-0.3067341002	-1.3450749061	-2.2059604406	-0.455532
O	 1.6453482241	 0.0055431573	-1.7438258881	-0.477698
H	 0.8717959652	 1.9806279192	-0.3640679484	 0.13698
H	-0.8736025478	 1.877434984	-0.6385007247	 0.11343
H	-0.2469536979	 1.9192143733	 1.0130281486	 0.109503
H	-1.3307693501	-0.304963555	 1.6901845992	 0.108238
H	-1.373594514	-1.6829569754	 0.5036678913	 0.098843
H	 1.1885246958	-0.6795035227	 1.9638568575	 0.080609
H	 2.3347439382	-1.7751942878	-0.152725951	 0.099599
H	 0.8915194391	-2.8280390021	-0.1140701534	 0.083979
H	-1.1251777209	-1.9239437379	-1.7696250028	 0.117236
H	-0.7330096474	-0.5277038824	-2.7960187429	 0.123371
H	 0.235356051	-2.0108962267	-2.8900708179	 0.102888
H	 2.092146182	-0.5356723239	-2.403554634	 0.272948
145.3779	188.994	221.1798	230.82	268.2624	283.6516	334.5452	389.3838	443.0187	455.3142	484.901	620.8855	655.0194	786.8147	834.8632	848.9151	883.5588	936.4856	955.0744	980.7072	986.4937	1025.0486	1045.7888	1090.2896	1091.8146	1112.8245	1152.3035	1198.9248	1226.5958	1244.7403	1261.5764	1273.9593	1364.6271	1397.8919	1405.2662	1421.716	1472.0388	1482.5666	1488.0462	1492.4419	1503.4544	1508.0183	3021.1475	3025.3362	3033.7001	3083.4708	3088.1645	3101.2022	3110.1402	3117.6258	3118.4499	3175.6404	3191.0674	3804.1381
CC12CC1CC2(C)O	C[C@]12C[C@H]1C[C@]2(C)O	
InChI=1S/C7H12O/c1-6-3-5(6)4-7(6,2)8/h5,8H,3-4H2,1-2H3	InChI=1S/C7H12O/c1-6-3-5(6)4-7(6,2)8/h5,8H,3-4H2,1-2H3/t5-,6-,7-/m0/s1
