19
gdb 86233	2.43067	1.34226	0.94388	1.0165	78.16	-0.2573	0.0303	0.2876	1276.5654	0.15695	-423.004073	-422.994655	-422.99371	-423.038662	34.738	
C	 0.0255240572	 1.5708527355	-0.0412968004	-0.407946
C	 0.0825529797	 0.0615265912	-0.0628877196	 0.228133
O	 0.8494551216	-0.3968166312	-1.150135741	-0.261482
C	 1.2269203646	-1.7205005889	-0.8041929795	 0.101196
C	 2.4445682282	-2.1488761249	-1.5972715157	-0.419533
C	 1.4471066108	-1.6096603372	 0.7385955977	-0.075875
O	 0.7355808524	-0.4260498437	 1.1053774247	-0.275291
C	 0.9887372762	-2.7863306926	 1.4696619045	 0.328437
C	 0.6235295683	-3.7718480672	 2.0524692995	-0.462219
H	 1.0390473455	 1.977085192	-0.0056051721	 0.131426
H	-0.4803963905	 1.9384908717	-0.9377350337	 0.128052
H	-0.5275425058	 1.9075602114	 0.8387950333	 0.132307
H	-0.9311201684	-0.3777205503	-0.1144814445	 0.06721
H	 0.3865459137	-2.4074212716	-0.9871302422	 0.084415
H	 3.2767363558	-1.4602046613	-1.4234973327	 0.128775
H	 2.7513627064	-3.1564254473	-1.300865235	 0.130733
H	 2.219919826	-2.1586395391	-2.6669463921	 0.132693
H	 2.5110442644	-1.4408142364	 0.9529094125	 0.107085
H	 0.3005867341	-4.6367354703	 2.5776476462	 0.201885
42.3964	128.6257	138.537	206.598	214.1168	229.9343	268.625	340.4841	432.4777	476.9068	519.0462	542.5881	623.5084	652.4334	670.8377	704.3462	843.5157	878.1087	889.8433	946.7042	990.8183	1059.5163	1095.201	1116.4786	1135.8223	1139.2619	1166.0753	1185.6962	1281.3854	1342.4144	1347.1459	1385.2806	1391.1548	1400.4494	1412.7965	1447.2583	1484.6412	1485.9705	1486.8125	1498.0413	2237.0006	2929.8448	2987.0839	3013.5588	3044.7861	3055.4828	3120.4352	3124.7759	3135.1462	3141.1478	3502.1282
CC1OC(C)C(O1)C#C	C[C@H]1O[C@@H](C)[C@@H](O1)C#C	
InChI=1S/C7H10O2/c1-4-7-5(2)8-6(3)9-7/h1,5-7H,2-3H3	InChI=1S/C7H10O2/c1-4-7-5(2)8-6(3)9-7/h1,5-7H,2-3H3/t5-,6-,7-/m0/s1
