23
gdb 114832	3.03463	1.27658	1.21809	1.4657	84.45	-0.2328	0.0833	0.3162	1189.4532	0.208669	-388.315234	-388.30706	-388.306116	-388.347917	32.926	
C	-0.0963127393	 1.6361488093	 0.2290421855	-0.381707
C	 0.0322744422	 0.1123102899	 0.1327856075	-0.199009
C	-1.3240512511	-0.5730691146	 0.0062997044	 0.169832
O	-1.9843231717	-0.1547981717	-1.2146080337	-0.304355
C	-2.4389554971	-1.352130904	-1.8658983891	 0.120871
C	-1.2169085565	-2.0409800802	-2.5045402887	-0.210253
C	-0.4778941437	-2.6082593091	-1.2477713095	-0.217753
C	-1.3660984187	-2.1138640486	-0.0807187414	-0.059086
C	-2.7761598477	-2.2798439853	-0.6902426429	-0.235829
H	 0.8857920435	 2.1131790678	 0.3010857587	 0.10625
H	-0.6070900362	 2.0308090711	-0.6532795924	 0.136018
H	-0.6763774604	 1.9294917644	 1.1112809595	 0.109816
H	 0.6565410056	-0.1458136934	-0.7290820066	 0.099351
H	 0.5381406479	-0.2795921755	 1.025233805	 0.088975
H	-1.9470924434	-0.2503352321	 0.8573852667	 0.062317
H	-3.2428082662	-1.0834278383	-2.5526870116	 0.068344
H	-1.5148833166	-2.8329058044	-3.1991247883	 0.092115
H	-0.6193555888	-1.3127518803	-3.0576837507	 0.104109
H	-0.4564806209	-3.7021709292	-1.2601804874	 0.094832
H	 0.5574743018	-2.2699782373	-1.172601875	 0.101311
H	-1.1812148884	-2.6058278226	 0.8757263872	 0.060844
H	-3.5804050439	-1.8915476925	-0.0602952819	 0.099923
H	-3.0041547903	-3.3062378335	-0.9908435851	 0.093086
91.2536	115.2144	188.4459	240.4593	310.3427	367.5338	435.982	469.8899	484.2674	571.3334	750.8362	779.1522	794.4691	817.5642	833.6412	864.3939	891.831	928.2809	946.8884	950.3126	964.9242	989.2888	1001.8459	1032.8278	1050.3886	1078.9409	1107.7289	1144.3918	1150.1423	1165.6017	1202.7965	1229.9236	1254.564	1276.0001	1293.1152	1310.1366	1319.8625	1327.3894	1341.2552	1346.6601	1374.36	1406.4339	1417.2176	1472.8193	1480.6961	1490.6552	1497.6937	1509.8474	1512.5696	2952.9319	3021.5521	3035.0893	3048.1448	3058.3498	3061.9873	3070.6522	3097.6437	3101.3655	3101.8574	3110.1849	3113.8509	3117.3407	3121.9603
CCC1OC2CCC1C2	CC[C@H]1O[C@H]2CC[C@@H]1C2	
InChI=1S/C8H14O/c1-2-8-6-3-4-7(5-6)9-8/h6-8H,2-5H2,1H3	InChI=1S/C8H14O/c1-2-8-6-3-4-7(5-6)9-8/h6-8H,2-5H2,1H3/t6-,7+,8-/m1/s1
