14
gdb 131713	2.08138	1.81304	1.00963	3.35	65.57	-0.282	-0.0649	0.2171	1094.7334	0.102069	-470.031886	-470.024019	-470.023075	-470.064904	27.683	
O	 0.1843593275	 1.1672626796	-0.6425686676	-0.400737
C	 0.0048483138	 0.0107896869	 0.1602296294	-0.194806
C	-1.400863265	-0.5188527616	 0.1458230114	 0.347256
N	-2.0902813301	-0.8501213012	 1.2110749455	-0.308618
C	-3.2797105197	-1.2946552169	 0.6877126949	 0.042657
N	-3.3739883225	-1.2529168039	-0.6197385285	-0.205279
N	-2.1563321904	-0.7504123632	-0.983541538	-0.08381
C	-1.8061831636	-0.5280763833	-2.3392847146	 0.168821
O	-2.513867597	-0.8081487733	-3.2597965305	-0.241036
H	-0.326653853	 1.8861941788	-0.2545824876	 0.298796
H	 0.6957815502	-0.7376828694	-0.242572228	 0.144349
H	 0.2707269015	 0.17716935	 1.2102704114	 0.145936
H	-4.0921032154	-1.6499717028	 1.3042663355	 0.143689
H	-0.8161402863	-0.0549545596	-2.4126508233	 0.142783
82.7959	128.6149	158.8987	208.5617	265.7642	309.9405	375.9536	420.104	551.7063	654.7888	684.6758	759.5508	846.0797	927.1749	960.4021	980.86	1036.2241	1069.1883	1115.2616	1181.7125	1200.6361	1294.5953	1320.7244	1349.2103	1392.0136	1411.4805	1451.8491	1484.4666	1495.433	1585.6698	1849.7071	3042.5383	3048.3842	3087.1234	3262.4602	3808.3695
OCC1=NC=NN1C=O	OCc1ncnn1C=O	
InChI=1S/C4H5N3O2/c8-1-4-5-2-6-7(4)3-9/h2-3,8H,1H2	InChI=1S/C4H5N3O2/c8-1-4-5-2-6-7(4)3-9/h2-3,8H,1H2
