19
gdb 104241	2.67242	1.16007	0.99847	3.2418	75.69	-0.2514	0.0122	0.2635	1242.7511	0.15877	-419.19057	-419.181022	-419.180078	-419.225059	34.834	
C	-0.1785003162	 1.5614488138	 0.0288396601	-0.466998
C	-0.0943541788	 0.0378879534	-0.00703604	 0.294779
C	-1.4439285734	-0.6139946207	-0.3025737504	-0.137016
O	-1.9319133114	-0.2938854945	-1.5945961777	-0.418581
C	 1.113484438	-0.4809978169	-0.8400781177	-0.199906
N	 1.8982916809	-0.6033953857	 0.411804238	-0.308835
C	 0.6659588021	-0.5821829126	 1.2235200434	-0.179274
C	 0.7409371528	 0.1838737169	 2.4682196569	 0.305078
N	 0.7735276521	 0.79013676	 3.4518772927	-0.333751
H	 0.7960246276	 2.0026505812	 0.2527631409	 0.149982
H	-0.4997334659	 1.9444713862	-0.945589053	 0.113764
H	-0.8867672057	 1.9052210132	 0.7902791923	 0.130594
H	-1.3399468441	-1.7046550119	-0.288653713	 0.107749
H	-2.1671711783	-0.3440299187	 0.4836251877	 0.100275
H	-2.2535815505	 0.6123893209	-1.5804267327	 0.291142
H	 0.8933776189	-1.4326853137	-1.3414291113	 0.102311
H	 1.5462052434	 0.2109941104	-1.5686165544	 0.113328
H	 2.4653979212	-1.4376748947	 0.5121607032	 0.229829
H	 0.2612080675	-1.5765309867	 1.4659280148	 0.105532
68.2172	98.3963	143.2791	175.5328	240.7912	246.3292	298.0814	324.5022	353.1666	381.0003	419.8806	544.5245	575.5101	655.7946	725.8646	859.3984	900.6012	937.8347	956.3875	983.1558	998.7182	1027.8382	1063.1535	1078.6744	1136.7761	1142.6391	1167.1154	1202.4634	1265.9567	1303.9106	1335.3848	1359.8457	1384.3376	1390.529	1408.6532	1424.2505	1488.9081	1497.0149	1505.0202	1525.2024	2353.8897	2979.4451	2985.4332	3013.5927	3033.5903	3064.406	3078.4579	3100.3302	3120.7189	3536.4885	3831.029
CC1(CO)CNC1C#N	C[C@@]1(CO)CN[C@H]1C#N	
InChI=1S/C6H10N2O/c1-6(4-9)3-8-5(6)2-7/h5,8-9H,3-4H2,1H3	InChI=1S/C6H10N2O/c1-6(4-9)3-8-5(6)2-7/h5,8-9H,3-4H2,1H3/t5-,6-/m0/s1
