20
gdb 70424	2.87204	1.50226	1.29841	2.7782	78.42	-0.2268	0.0759	0.3027	1071.483	0.17071	-403.089978	-403.081601	-403.080657	-403.122938	32.199	
C	 0.149577287	 1.5102329472	-0.0833312579	-0.497336
C	 0.0012775028	 0.0196990335	-0.0580495856	 0.27163
C	-0.9399169231	-0.7303391353	 0.8025075217	-0.289263
N	 0.5038127419	-0.8625228903	 1.0799482919	-0.165326
C	 1.0009621898	-1.8379239302	 0.0468882016	-0.23654
C	 0.5650529732	-0.9280133121	-1.1211624475	 0.397703
C	-0.1930258924	-1.3496155148	-2.3963457213	-0.363414
C	 0.9882011891	-0.7069527507	-3.1451695266	-0.075476
O	 1.6539788162	-0.3932132278	-1.9019717395	-0.3132
H	 1.1419372335	 1.7882997156	-0.4485612122	 0.140887
H	-0.5963328414	 1.9689373216	-0.7435194677	 0.116267
H	 0.0148305173	 1.9239404449	 0.9200640678	 0.129141
H	-1.4738122185	-0.1702139546	 1.5648469263	 0.119858
H	-1.483544739	-1.5908608782	 0.4141723946	 0.105071
H	 2.0892259262	-1.9164435591	 0.0920952524	 0.124723
H	 0.551009026	-2.8349928174	 0.11780825	 0.097631
H	-0.2958430051	-2.4282315077	-2.5301232206	 0.113169
H	-1.1667792033	-0.875658339	-2.5349673354	 0.112699
H	 1.5893710445	-1.3787352518	-3.7681486376	 0.106584
H	 0.7525042955	 0.1963833163	-3.7201790244	 0.105192
81.1169	125.5103	171.8779	197.319	247.3844	325.4633	428.8484	444.8584	477.1047	519.2271	648.0358	741.8171	781.5287	835.6669	857.7621	882.3504	888.1132	918.4859	967.2273	981.381	1024.977	1026.8845	1090.1009	1100.1496	1123.1439	1141.8317	1148.5535	1167.301	1183.4854	1214.2125	1225.3839	1263.6802	1274.8682	1340.4666	1350.9066	1370.7139	1415.7047	1476.1435	1479.5585	1485.7134	1497.9459	1507.7539	1532.4579	3023.3128	3031.4894	3035.4016	3064.8429	3073.9874	3089.1431	3097.7239	3116.9061	3123.7618	3128.6003	3184.7071
CC12CN1CC21CCO1	C[C@]12CN1C[C@]12CCO1	
InChI=1S/C7H11NO/c1-6-4-8(6)5-7(6)2-3-9-7/h2-5H2,1H3	InChI=1S/C7H11NO/c1-6-4-8(6)5-7(6)2-3-9-7/h2-5H2,1H3/t6-,7+,8?/m1/s1
