18
gdb 80027	2.36669	2.0398	1.40191	1.4618	76.12	-0.2194	0.0074	0.2268	968.6053	0.147232	-401.855961	-401.848461	-401.847516	-401.887422	30.249	
C	 0.0669616953	 1.4232730289	-0.4241205099	-0.332301
N	 0.0373367743	 0.0060925015	-0.065444575	-0.082947
C	-1.1239611782	-0.4370387939	 0.815543463	-0.175371
C	-0.7719540144	-1.9202852409	 0.9495089298	-0.061301
C	 0.5452645461	-1.890531958	 1.1759060977	-0.061307
C	 0.8563995674	-0.3923095316	 1.1558394006	-0.175369
C	-0.3242908823	 0.1303328774	 2.022765951	 0.519046
C	-0.4978552927	 1.2973958416	 2.8794391536	-0.300408
O	-0.5552292213	-0.0518672673	 3.3906466092	-0.284488
H	 1.036715758	 1.642370719	-0.8833027042	 0.122595
H	-0.7024597646	 1.6030377173	-1.1823754709	 0.122596
H	-0.0905989026	 2.1370579323	 0.3982588171	 0.101807
H	-2.133041273	-0.1298810108	 0.5440639644	 0.073674
H	-1.4553371143	-2.7529041116	 0.8807632683	 0.110046
H	 1.2482319272	-2.691835921	 1.3454382302	 0.110046
H	 1.8837372048	-0.039159898	 1.2342828835	 0.073674
H	 0.366999949	 1.8778105795	 3.1987443923	 0.120003
H	-1.4442587385	 1.8369026854	 2.8874985193	 0.120002
170.4533	184.2675	249.204	271.872	313.1243	324.0275	461.0022	549.7732	560.2999	623.3891	666.1741	767.3695	778.2686	823.4732	896.6619	906.4147	912.4064	917.9212	919.0755	997.9385	1008.6103	1100.5321	1115.729	1122.7744	1135.6682	1139.2566	1148.0785	1173.5826	1179.7305	1220.2944	1228.2499	1270.8369	1315.8071	1430.3518	1443.8536	1486.0322	1501.9401	1539.6978	1615.7483	2986.7803	3064.3483	3079.8816	3096.7465	3132.1116	3135.099	3164.3104	3236.2557	3262.0265
CN1C2C=CC1C21CO1	CN1[C@H]2C=C[C@@H]1[C@]12CO1	
InChI=1S/C7H9NO/c1-8-5-2-3-6(8)7(5)4-9-7/h2-3,5-6H,4H2,1H3	InChI=1S/C7H9NO/c1-8-5-2-3-6(8)7(5)4-9-7/h2-3,5-6H,4H2,1H3/t5-,6+,7+
