19
gdb 84276	3.18178	1.43854	1.1665	2.5032	77.85	-0.2353	0.0063	0.2416	1098.2909	0.159042	-422.981761	-422.973441	-422.972497	-423.014351	32.133	
C	-0.1081986787	 1.5708147781	-0.0429390149	-0.426292
C	 0.0216909222	 0.0466788456	-0.0076753417	-0.02893
C	 0.8435402708	-0.5266560962	-1.1695742529	-0.210288
C	 1.4770289729	-1.6088782008	-0.7399715289	 0.189881
C	 2.7815440507	-2.3606087552	-0.6645489393	-0.15492
O	 2.6966800105	-2.2879447024	 0.7936215633	-0.300203
C	 1.3031781402	-1.859072404	 0.7194510487	 0.11984
C	 0.8064096755	-0.4958355007	 1.2573945	 0.032287
O	 1.9297350821	 0.2969970391	 1.5760072457	-0.410729
H	 0.8766159271	 2.0463797561	-0.0772025462	 0.128383
H	-0.6667165341	 1.8934481942	-0.9270292315	 0.120972
H	-0.6450283789	 1.946178876	 0.836295651	 0.10939
H	-0.9902091617	-0.3847857662	 0.0128504025	 0.081621
H	 0.9550861069	-0.016741519	-2.1196328102	 0.097401
H	 2.7671179419	-3.4041156044	-1.0056090135	 0.107021
H	 3.6678336102	-1.8548087852	-1.0621770832	 0.123742
H	 0.638707043	-2.6764323427	 1.0325214488	 0.077409
H	 0.1386876357	-0.5978234198	 2.1259851143	 0.056138
H	 1.6111720838	 1.1181362375	 1.962479318	 0.287277
96.9666	170.814	220.3116	240.4533	257.0729	289.0427	338.9583	358.6323	454.7583	527.5768	675.3217	729.4736	767.6126	813.4242	845.0995	869.3115	899.5053	915.1581	969.7661	991.6584	1008.4316	1044.9449	1063.8072	1094.7958	1131.9791	1138.2663	1155.9798	1194.5057	1236.4001	1263.9357	1274.9497	1311.1032	1335.105	1351.9295	1361.8434	1397.538	1431.4674	1496.0927	1506.8387	1507.2519	1749.249	2979.8571	2992.4782	3007.2602	3014.6035	3028.5703	3072.4913	3094.0206	3109.7669	3195.8112	3829.2254
CC1C=C2COC2C1O	C[C@H]1[CH][C]2CO[C@H]2[C@H]1O	
InChI=1S/C7H10O2/c1-4-2-5-3-9-7(5)6(4)8/h2,4,6-8H,3H2,1H3	InChI=1S/C7H10O2/c1-4-2-5-3-9-7(5)6(4)8/h2,4,6-8H,3H2,1H3/t4-,6-,7+/m0/s1
