16
gdb 54809	2.64578	1.65905	1.11353	1.4146	71.8	-0.2486	0.0009	0.2495	1058.262	0.125382	-434.072721	-434.064766	-434.063822	-434.105537	30.241	
N	-0.0237798907	 1.3116522754	 0.0744705697	-0.548632
C	-0.0065459823	-0.0713717281	 0.0895399809	 0.409786
O	 0.9535872091	-0.74019119	 0.4041367676	-0.36604
N	-1.2216216691	-0.6414135732	-0.2970014038	-0.164639
C	-1.5086271596	-2.0769297774	-0.2575657499	 0.007728
C	-2.0770486557	-2.4661024645	 1.064890484	-0.281828
C	-2.9669774878	-1.7559162295	 0.0448215963	-0.158506
C	-2.5860199272	-0.3039225902	 0.0069681648	 0.389103
N	-3.2372313185	 0.7587888963	 0.1806615376	-0.545865
H	 0.8915963183	 1.7185694728	 0.1995918886	 0.266819
H	-0.5853600067	 1.756500121	-0.635870979	 0.258964
H	-1.0816339962	-2.7445169159	-0.9920264831	 0.126021
H	-2.3021998477	-3.5205508498	 1.1929988318	 0.129944
H	-1.7569064183	-1.9534828869	 1.9661477302	 0.137839
H	-3.8732411026	-2.1890352922	-0.3505960303	 0.121961
H	-2.6487822048	 1.5904820623	 0.1365893544	 0.217344
81.9004	94.7102	177.5196	216.2199	371.6372	403.1898	446.4638	476.8972	571.7465	597.4742	650.3921	699.2579	735.3179	790.3568	809.2307	847.9811	858.5883	934.6461	945.9364	1000.7694	1037.9855	1063.8499	1074.981	1092.7177	1146.8384	1171.6413	1207.0708	1226.7297	1298.7229	1344.2569	1390.7625	1482.5706	1619.7586	1798.7126	1810.6965	3128.2668	3216.8537	3224.8573	3240.9358	3489.2704	3572.0015	3686.7659
NC(=O)N1C2CC2C1=N	NC(=O)N1[C@H]2C[C@H]2[C]1[NH]	
InChI=1S/C5H7N3O/c6-4-2-1-3(2)8(4)5(7)9/h2-3,6H,1H2,(H2,7,9)	InChI=1S/C5H7N3O/c6-4-2-1-3(2)8(4)5(7)9/h2-3,6H,1H2,(H2,7,9)/t2-,3+/m1/s1
