16
gdb 67142	2.11499	1.85411	1.51294	3.1179	69.4	-0.2135	0.0001	0.2136	961.0516	0.123534	-437.829081	-437.820999	-437.820054	-437.861482	30.501	
C	-0.1675625692	 1.4885761053	-0.0312035848	-0.52554
C	 0.0326559554	 0.0127660592	 0.0075042922	 0.295914
C	 0.0370803832	-1.1004570216	-0.9799579097	-0.15755
N	 1.2823295177	-1.6771629251	-0.4592411953	-0.307025
C	 0.9701102488	-0.9557192689	 0.8151252855	-0.212839
C	-0.3528339791	-1.5711897383	 1.3586384842	 0.363111
O	-0.703718319	-1.9709928016	 2.4338505589	-0.343139
C	-1.0555750227	-1.1219708862	 0.1137347356	 0.194776
O	-2.3906027347	-0.9566774971	-0.1343018708	-0.448053
H	 0.7047622926	 1.9979017606	-0.4533785903	 0.137761
H	-1.0399402312	 1.7337566816	-0.6446377949	 0.141825
H	-0.3433179573	 1.8884577401	 0.9727546836	 0.140629
H	-0.2371835332	-1.0949698034	-2.0301614554	 0.108532
H	 1.2513792039	-2.6944235496	-0.3507317241	 0.214465
H	 1.7894260517	-0.6889856974	 1.4785271536	 0.097956
H	-2.7000245569	-1.6715402477	-0.7017132883	 0.299178
112.8194	166.5853	180.6521	236.5879	250.1605	305.6317	355.154	441.3978	530.192	616.7999	630.1414	691.2874	706.4455	783.58	799.2295	879.2863	936.4737	966.2957	1005.3694	1011.2441	1071.2004	1086.6383	1144.3506	1156.0038	1170.3501	1203.6283	1256.831	1279.313	1349.4026	1395.9437	1425.9546	1472.4524	1483.962	1494.0282	1871.4574	3034.8192	3099.9681	3110.259	3151.84	3166.7816	3401.2735	3793.2687
CC12C3NC1C(=O)C23O	C[C@@]12[C@H]3N[C@@H]1C(=O)[C@@]23O	
InChI=1S/C6H7NO2/c1-5-2-3(8)6(5,9)4(5)7-2/h2,4,7,9H,1H3	InChI=1S/C6H7NO2/c1-5-2-3(8)6(5,9)4(5)7-2/h2,4,7,9H,1H3/t2-,4-,5+,6+/m1/s1
