16
gdb 124389	3.21753	1.141	1.05295	2.93	76.66	-0.2579	-0.0144	0.2435	1191.5633	0.123358	-400.711198	-400.702749	-400.701805	-400.745043	30.868	
C	-0.0499102861	 1.5683678449	 0.0426170377	-0.38962
C	-0.0136587169	 0.0213186181	 0.0332895486	-0.272704
C	 0.7083125297	-0.5020643529	 1.1959611516	 0.33799
C	 1.3085261469	-0.9147240024	 2.1509415549	-0.468212
C	-1.3983121458	-0.5603031352	-0.0564889469	 0.466023
C	-1.9990134748	-1.3919834219	-0.9498477008	-0.357369
C	-3.3208361592	-1.5173849721	-0.4458070599	 0.037383
N	-3.5024504237	-0.8235350678	 0.6499118246	-0.136398
O	-2.2756719785	-0.2110624416	 0.8997124535	-0.211229
H	 0.9673654775	 1.9645277255	 0.0776857982	 0.131255
H	-0.5454271153	 1.9385991933	-0.8590309944	 0.125586
H	-0.5965476414	 1.9292869245	 0.9159158075	 0.151958
H	 0.5128222302	-0.3068592069	-0.8713643262	 0.125418
H	 1.8323848973	-1.2865668603	 2.9966128291	 0.203259
H	-1.5669839587	-1.8468848244	-1.8252445665	 0.122118
H	-4.1463634411	-2.0899221809	-0.844818561	 0.134541
41.1168	100.5231	175.0933	193.0811	231.5053	310.2756	377.6346	449.4396	539.737	634.6556	648.3562	649.4763	688.3721	746.6619	813.4225	862.8641	916.8677	924.1886	944.7001	991.0653	1019.5859	1053.6569	1078.8389	1109.2217	1208.5781	1262.1415	1298.2598	1313.9322	1393.2584	1405.7078	1490.2647	1495.5991	1513.331	1632.08	2241.1746	3035.6336	3052.8133	3130.5247	3144.961	3244.2028	3281.0433	3503.9359
CC(C#C)C1=CC=NO1	C[C@@H](C#C)c1ccno1	
InChI=1S/C7H7NO/c1-3-6(2)7-4-5-8-9-7/h1,4-6H,2H3	InChI=1S/C7H7NO/c1-3-6(2)7-4-5-8-9-7/h1,4-6H,2H3/t6-/m0/s1
