16
gdb 127484	3.17645	1.44202	0.99922	4.1418	77.25	-0.2054	-0.0515	0.1539	1134.0292	0.125799	-434.110688	-434.102458	-434.101514	-434.143611	30.735	
C	-0.0169281602	 1.3990899929	-0.0546904409	-0.310416
N	 0.0146734654	-0.0573826612	-0.0206789413	-0.060691
N	-0.0157066712	-0.6766717184	-1.2241894936	-0.297709
C	 0.0326738459	-1.9801047329	-1.2401071881	 0.372178
N	 0.1033881863	-2.6140272536	-2.4808398575	-0.566466
C	 0.0834919195	-2.7600151213	-0.0375987509	-0.139769
C	 0.0835759587	-2.1242706758	 1.1541019747	-0.184282
C	 0.0511284089	-0.6710090663	 1.2299687143	 0.415448
O	 0.0561695355	-0.0061406719	 2.2588630654	-0.414246
H	 0.8675912623	 1.805028618	 0.4433435121	 0.149228
H	-0.0435760841	 1.7029553954	-1.0992866259	 0.140025
H	-0.896867581	 1.7692083867	 0.4783846481	 0.148078
H	-0.1110571812	-1.9846247578	-3.2433064611	 0.255372
H	-0.4306376474	-3.4698714396	-2.5432586696	 0.251083
H	 0.1286248478	-3.8428187985	-0.1057515308	 0.111924
H	 0.1176058847	-2.6517881659	 2.0997307651	 0.130242
70.4899	124.964	188.1892	290.332	315.5785	332.3578	357.4973	397.1203	483.521	538.4925	584.3019	602.1217	692.6663	725.5663	770.4489	823.9648	866.941	939.4895	1006.0873	1034.8153	1129.708	1148.6283	1164.0679	1184.1861	1290.7485	1339.5097	1361.2777	1437.0929	1471.5733	1476.9347	1502.6966	1573.6752	1635.7066	1670.7147	1755.0394	3054.5708	3114.216	3173.2733	3178.0899	3215.3542	3547.8024	3649.7695
CN1N=C(N)C=CC1=O	Cn1nc(N)ccc1=O	
InChI=1S/C5H7N3O/c1-8-5(9)3-2-4(6)7-8/h2-3H,1H3,(H2,6,7)	InChI=1S/C5H7N3O/c1-8-5(9)3-2-4(6)7-8/h2-3H,1H3,(H2,6,7)
