19
gdb 118744	2.81657	1.13541	0.98018	3.0573	71.96	-0.2625	0.0096	0.2721	1269.3085	0.157022	-460.18621	-460.176715	-460.175771	-460.221021	34.243	
C	 0.3624225174	 0.8726389509	 0.3642570249	-0.246627
O	-0.455737222	 0.3062010984	-0.6480312232	-0.23547
C	 0.2351502043	-0.4615645373	-1.602050005	-0.111813
C	 0.5232322786	-1.8992753789	-1.168516123	 0.383022
C	-0.6938387842	-2.6197794603	-0.6235925595	-0.436329
C	 1.4206926592	-2.682612241	-2.1520561667	-0.47419
C	 2.4466579327	-2.6307417074	-1.0222050647	 0.446484
O	 3.5577554041	-3.0030838451	-0.8228784291	-0.318904
O	 1.6310742733	-1.9345658798	-0.1710668559	-0.275703
H	 0.8155722978	 0.1120690674	 1.0094493984	 0.137412
H	 1.16720965	 1.4817446784	-0.0736586777	 0.109619
H	-0.2846692817	 1.5187699459	 0.9619147216	 0.127624
H	-0.4084664303	-0.5040525891	-2.4898193729	 0.114114
H	 1.1814768782	 0.0226543936	-1.8918319445	 0.094207
H	-1.4544073813	-2.7154275419	-1.4054093902	 0.126676
H	-0.4270072282	-3.6198929981	-0.272212866	 0.126234
H	-1.1298366998	-2.0547528544	 0.2028416451	 0.149011
H	 1.0841733384	-3.6871986185	-2.4135487644	 0.143673
H	 1.7274873535	-2.1518977829	-3.0562752373	 0.140959
59.2156	83.3996	122.6982	176.9307	219.6758	242.4906	297.3974	330.8941	386.0274	426.9587	479.5168	526.0515	548.0361	678.6948	814.0078	841.1082	887.2154	950.8497	956.0982	966.5644	994.348	1076.385	1093.5337	1145.895	1176.7829	1187.9159	1222.2151	1239.452	1254.608	1289.6738	1343.63	1401.3344	1422.2549	1456.122	1468.5493	1480.4338	1486.6944	1490.8688	1496.1848	1513.6322	1936.8915	2980.1137	2995.7029	3046.4776	3054.9692	3072.5877	3082.7742	3117.2421	3123.6597	3138.9378	3140.9379
COCC1(C)CC(=O)O1	COC[C@@]1(C)CC(=O)O1	
InChI=1S/C6H10O3/c1-6(4-8-2)3-5(7)9-6/h3-4H2,1-2H3	InChI=1S/C6H10O3/c1-6(4-8-2)3-5(7)9-6/h3-4H2,1-2H3/t6-/m1/s1
