16
gdb 126847	2.04737	1.81202	1.03536	4.2969	80.3	-0.2459	-0.0331	0.2128	1133.0383	0.124372	-396.905161	-396.896727	-396.895783	-396.938846	30.669	
C	-0.1197875699	 1.5341775317	 0.0584639589	-0.384893
C	 0.0261136168	 0.0125953843	 0.0285582471	-0.149761
N	 0.6784491322	-0.5083056632	 1.2237384169	-0.047972
N	 2.0010191208	-0.7316002913	 1.2342885207	-0.137667
N	 2.3316054409	-1.1485264963	 2.4280265425	-0.180037
C	 1.2215882108	-1.1935707028	 3.2006116726	-0.204144
C	 0.1344741692	-0.7822988853	 2.4473645189	 0.235771
C	-1.2336281158	-0.6460120076	 2.7456269747	 0.309422
C	-2.4061293498	-0.5260332073	 2.9936328945	-0.478053
H	 0.8594454286	 2.0115785727	 0.1475130945	 0.145553
H	-0.5914269541	 1.8778750152	-0.8667352866	 0.127799
H	-0.7426586947	 1.850783409	 0.8993297406	 0.139216
H	-0.9498020482	-0.4729641538	-0.0538573257	 0.137001
H	 0.6442147017	-0.3073353353	-0.8124170666	 0.148382
H	 1.245718054	-1.5140679576	 4.2291396865	 0.133073
H	-3.4383479623	-0.4258395821	 3.2234796005	 0.206312
47.5452	132.5462	146.4938	173.0108	226.2975	346.561	381.4777	482.258	527.1842	581.6237	600.7832	680.7714	698.1746	710.5197	713.1453	794.4633	856.7451	977.3497	988.8489	1071.6901	1104.7818	1146.6181	1193.427	1240.3107	1280.832	1335.8612	1356.9212	1390.5163	1410.102	1442.3334	1480.5809	1491.1815	1504.6138	1555.407	2234.6596	3048.6548	3075.0467	3119.0657	3125.7778	3142.1695	3277.3537	3499.1186
CCN1N=NC=C1C#C	CCn1nncc1C#C	
InChI=1S/C6H7N3/c1-3-6-5-7-8-9(6)4-2/h1,5H,4H2,2H3	InChI=1S/C6H7N3/c1-3-6-5-7-8-9(6)4-2/h1,5H,4H2,2H3
