18
gdb 82149	3.19656	1.37203	1.14251	3.747	72.08	-0.2459	0.0161	0.2621	1088.8925	0.148803	-439.079255	-439.071132	-439.070188	-439.112	31.074	
O	 0.1285622187	 1.3362436226	 0.07537584	-0.43889
C	 0.049248045	-0.0544153455	-0.0253383071	 0.120997
C	-1.3646556837	-0.6189561816	 0.0557585656	-0.056155
C	-2.1854402913	-0.1113362652	-1.0901821929	-0.285558
C	-1.2198147374	-1.2410736424	-1.3416097024	-0.102422
C	 0.2040915165	-0.7129009448	-1.4593111974	-0.015032
N	 0.4622970277	 0.1642751645	-2.5902279945	-0.260026
C	 1.5027650041	 1.0214310233	-2.6480330907	 0.155412
O	 2.3221552046	 1.1890796501	-1.7583132355	-0.356165
H	 1.0227355411	 1.5739901319	-0.2123791581	 0.301043
H	 0.7308035118	-0.5564977627	 0.6733821377	 0.074432
H	-1.8127811581	-1.0552773453	 0.9390805742	 0.093088
H	-3.2307261222	-0.4011287386	-1.0762473775	 0.115569
H	-1.9959693412	 0.8816738726	-1.4847746638	 0.126349
H	-1.5467208635	-2.2169074076	-1.6788171601	 0.092379
H	 0.9560029682	-1.5071823818	-1.4298418228	 0.094259
H	-0.1863562947	 0.1456762016	-3.3620393682	 0.254199
H	 1.5438497646	 1.5733110588	-3.6068292766	 0.086522
88.3969	133.0508	184.4422	222.2987	255.5648	310.3465	424.6598	508.4364	555.1759	573.7324	610.7349	730.8828	776.9246	797.5858	817.2908	867.1087	925.4845	979.7869	1010.0352	1024.396	1033.8512	1057.8346	1069.2441	1087.058	1099.6042	1150.467	1168.5793	1221.0795	1244.2087	1267.9574	1293.4478	1351.9461	1367.8231	1369.819	1425.0911	1441.0864	1490.2679	1510.3168	1771.1754	2950.8029	3014.4957	3057.9624	3132.1738	3184.2941	3197.122	3218.7548	3624.89	3719.4637
OC1C2CC2C1NC=O	O[C@H]1[C@H]2C[C@H]2[C@H]1NC=O	
InChI=1S/C6H9NO2/c8-2-7-5-3-1-4(3)6(5)9/h2-6,9H,1H2,(H,7,8)	InChI=1S/C6H9NO2/c8-2-7-5-3-1-4(3)6(5)9/h2-6,9H,1H2,(H,7,8)/t3-,4+,5-,6+/m1/s1
