18
gdb 90052	4.00234	1.28877	1.19106	2.0115	78.61	-0.2477	0.0013	0.2489	1080.1473	0.147892	-401.838109	-401.83042	-401.829476	-401.870088	30.221	
C	-0.5197978817	 1.4986369376	-0.0794938548	-0.399024
C	-0.0005665933	 0.069534688	-0.0069937447	 0.001302
C	 1.198957358	-0.3440462392	-0.9591924062	-0.343863
C	 2.0660693484	-0.4011375763	 0.3084524939	 0.128782
N	 2.30898467	 1.0027319136	 0.8897163584	-0.325633
C	 1.9298750188	 0.2089077176	 2.0973263557	-0.170581
C	 0.8294571106	-0.459331196	 1.2510442513	-0.029623
C	 2.8969064021	-0.9427016634	 1.5160765417	 0.342622
O	 3.7604229865	-1.6905714782	 1.8286999441	-0.302415
H	 0.2928394661	 2.2214720877	-0.0128645104	 0.143879
H	-1.0611692612	 1.6575946342	-1.0195030982	 0.108341
H	-1.219314055	 1.6920633253	 0.741092797	 0.114286
H	-0.8409206629	-0.6180796942	-0.1353376922	 0.084807
H	 1.0431924601	-1.3194574143	-1.4253452719	 0.116844
H	 1.5165885931	 0.379190592	-1.7129995232	 0.116581
H	 3.3057090525	 1.2319095539	 0.8787412779	 0.22643
H	 1.9183862766	 0.6340249787	 3.1021070986	 0.09427
H	 0.4899228716	-1.436282047	 1.5968289328	 0.092993
107.8299	172.3215	201.7317	237.5008	328.9842	373.2363	409.4737	517.2956	576.3468	677.164	711.824	768.2928	793.5669	829.1736	842.0238	860.9309	872.8132	908.3965	947.3166	1027.6594	1059.2254	1084.4602	1102.473	1105.6892	1128.1191	1171.4349	1195.0168	1223.0047	1226.9606	1243.876	1277.5412	1282.8917	1339.6655	1370.4865	1405.5606	1470.5905	1487.0303	1509.9753	1902.4801	3030.9529	3059.5539	3071.6068	3088.8543	3103.0412	3110.7061	3131.2929	3153.8548	3416.8468
CC1CC23NC(C12)C3=O	C[C@H]1C[C@@]23N[C@@H]([C@@H]12)C3=O	
InChI=1S/C7H9NO/c1-3-2-7-4(3)5(8-7)6(7)9/h3-5,8H,2H2,1H3	InChI=1S/C7H9NO/c1-3-2-7-4(3)5(8-7)6(7)9/h3-5,8H,2H2,1H3/t3-,4+,5-,7+/m0/s1
