20
gdb 105310	2.3042	1.49177	1.13104	1.4462	84.73	-0.2328	0.052	0.2848	1169.9652	0.169829	-365.934724	-365.925704	-365.92476	-365.968067	35.016	
C	 0.0303536695	 1.5081831384	 0.1882730192	-0.389083
C	-0.0949446758	 0.0017980461	-0.0514335752	-0.239753
C	 0.6908147191	-0.4988926359	-1.2750431388	 0.146032
C	 2.2819737617	-0.4470694889	-1.1875636869	-0.278116
C	 2.3071669057	-1.9669751815	-1.3529857989	-0.025884
N	 1.5411736045	-2.5192555237	-0.2080648565	-0.341726
C	 0.8270473327	-2.0409928735	-1.4131078415	-0.104674
C	 0.2049075314	 0.0881972564	-2.5151371121	 0.283416
C	-0.2086438437	 0.5631787439	-3.5403910183	-0.457252
H	 1.0717938402	 1.7996985312	 0.3627583149	 0.114433
H	-0.3360190165	 2.0783231003	-0.6707266189	 0.126729
H	-0.5484090267	 1.8092818027	 1.0667991482	 0.111326
H	 0.2686464484	-0.5564077515	 0.8159604131	 0.121632
H	-1.1504690582	-0.2641824633	-0.1876110322	 0.096192
H	 2.7187843181	 0.0972303328	-2.0248339599	 0.118564
H	 2.6882433074	-0.0774553146	-0.2429808342	 0.108722
H	 3.0534512504	-2.5648681106	-1.8605674471	 0.093694
H	 1.582984391	-3.5358554948	-0.2750791974	 0.229615
H	 0.1713978257	-2.6905605441	-1.9797033285	 0.09608
H	-0.571058335	 0.9869394107	-4.4439459088	 0.190053
105.853	134.327	163.6113	175.5643	206.9736	274.6911	365.1769	397.6323	482.3492	523.5489	542.0368	615.2402	618.763	629.4246	758.9535	790.6942	818.6424	842.6911	881.7414	935.9309	943.2595	968.2229	984.5173	1023.4155	1035.3603	1089.6741	1109.784	1113.1229	1145.902	1173.6468	1228.9747	1245.631	1289.7797	1309.9179	1327.4932	1354.7126	1381.6186	1411.2511	1469.6788	1490.2487	1498.5123	1508.4751	2227.3735	3032.2669	3036.5118	3071.6871	3087.8634	3102.935	3114.4648	3142.3893	3186.7524	3200.4296	3474.6053	3502.0541
CCC1(CC2NC12)C#C	CC[C@]1(C[C@H]2N[C@@H]12)C#C	
InChI=1S/C8H11N/c1-3-8(4-2)5-6-7(8)9-6/h1,6-7,9H,4-5H2,2H3	InChI=1S/C8H11N/c1-3-8(4-2)5-6-7(8)9-6/h1,6-7,9H,4-5H2,2H3/t6-,7-,8+/m1/s1
