21
gdb 73348	2.46016	1.96448	1.60074	0.2755	85.35	-0.2198	0.0205	0.2404	968.1415	0.185287	-349.967285	-349.960035	-349.959091	-349.998236	31.023	
C	-0.0283387483	 1.5458912364	-0.0052528783	-0.472354
C	-0.0023243424	 0.019496106	 0.0071507207	 0.258534
C	 0.673993618	-0.6107109082	-1.2456268436	-0.212765
C	 0.1978893616	-2.0843678702	-1.2446984983	-0.242239
C	-1.1743597245	-2.0385933647	-0.5666169869	-0.047193
C	-1.2778918511	-1.8329322941	 0.9549511733	-0.092425
C	-0.016491211	-1.6214183815	 1.7218438391	-0.090005
C	 0.6709100754	-0.5859844944	 1.2366446732	-0.11785
C	-1.3975480446	-0.6654297099	 0.0037070957	-0.105242
H	 0.9861955917	 1.9594588869	-0.0195703399	 0.110642
H	-0.5525647726	 1.9217686402	-0.8912966761	 0.110319
H	-0.5353352973	 1.9395784386	 0.8815204248	 0.117247
H	 0.305331279	-0.0970651983	-2.142789963	 0.089695
H	 1.7653201999	-0.512634205	-1.2350031929	 0.087327
H	 0.1196447322	-2.4871296421	-2.2583384226	 0.093376
H	 0.9005716109	-2.7219937963	-0.698539782	 0.102443
H	-1.9975413147	-2.5770246314	-1.0241262088	 0.079687
H	-2.1497589771	-2.2540439562	 1.4447960206	 0.078356
H	 0.2948452206	-2.260587481	 2.5403786902	 0.090724
H	 1.6522354178	-0.2623441644	 1.5681990165	 0.086976
H	-2.3072731535	-0.0912937403	-0.1293701417	 0.074749
203.0847	222.8167	271.8397	279.6589	341.7368	407.5607	516.2694	587.8404	629.4656	675.4769	732.7519	745.5793	790.2844	800.1273	813.4393	850.1163	902.3469	911.4826	934.9026	955.3353	978.7577	987.987	1020.1739	1030.9406	1046.1593	1089.9999	1104.9891	1126.6667	1153.849	1168.788	1180.489	1237.1201	1251.3803	1285.4539	1305.1048	1323.1617	1350.9152	1376.0062	1384.3159	1409.8618	1480.9197	1493.5577	1494.9891	1498.0058	1663.2472	3019.6431	3025.3515	3048.9314	3069.4001	3089.6738	3091.8137	3098.4431	3155.9805	3161.4049	3175.2989	3176.6961	3204.1716
CC12CCC3C(C=C1)C23	C[C@@]12CC[C@H]3[C@@H](C=C1)[C@@H]23	
InChI=1S/C9H12/c1-9-4-2-6-7(3-5-9)8(6)9/h2,4,6-8H,3,5H2,1H3	InChI=1S/C9H12/c1-9-4-2-6-7(3-5-9)8(6)9/h2,4,6-8H,3,5H2,1H3/t6-,7+,8-,9+/m1/s1
