19
gdb 75439	2.93605	1.15685	0.86232	4.5515	82.49	-0.2433	0.0097	0.2529	1330.3236	0.16089	-382.094171	-382.085514	-382.084569	-382.127481	32.642	
C	-0.0101783401	 1.5345004692	 0.0643986123	-0.477605
C	 0.004899808	 0.0335431086	-0.0220415954	 0.296814
C	-0.0140750587	-0.6299738603	-1.1799397485	-0.141431
C	-0.0319514035	-2.1355329125	-1.2814650269	-0.225912
N	-0.2812291011	-2.8325386871	-0.0153232784	-0.293286
C	 0.4358916687	-2.188194247	 1.0869684722	-0.128899
C	 0.0422542191	-0.7077911443	 1.2972526648	-0.295709
C	 0.2517584575	-2.9604226937	 2.3230017002	 0.277784
N	 0.0893758364	-3.5376954323	 3.3103735571	-0.320079
H	 0.8886018045	 1.9123651145	 0.5683897121	 0.126627
H	-0.0666714963	 1.9944249517	-0.9255892372	 0.124413
H	-0.8668302287	 1.8871343755	 0.6534829132	 0.12727
H	-0.0075519288	-0.0796966685	-2.1187296346	 0.08478
H	-0.7990273829	-2.4590279799	-1.994522043	 0.119112
H	 0.9238646119	-2.492490932	-1.6957182127	 0.121156
H	-1.2758556981	-2.8110636892	 0.190548408	 0.228464
H	 1.5043025725	-2.2260021623	 0.834999901	 0.133612
H	 0.7544174303	-0.2287636942	 1.9812159295	 0.120442
H	-0.9348837305	-0.6516842864	 1.7970162264	 0.122448
96.6599	143.2586	149.1188	190.1381	266.0996	314.122	336.8912	419.9583	434.9206	476.1284	552.3116	564.8525	675.5627	793.1846	816.2421	854.0989	872.8493	937.1874	973.3613	1021.8571	1037.727	1054.5963	1071.6233	1099.9683	1151.2359	1177.7394	1203.1795	1266.1784	1301.5754	1339.0025	1355.4424	1371.8869	1384.1015	1416.4138	1472.637	1479.1284	1479.4339	1490.9502	1495.3191	1743.1799	2363.5885	2988.3014	3010.1778	3016.7256	3025.3565	3050.3906	3055.1366	3062.3605	3114.5711	3146.7583	3509.2308
CC1=CCNC(C1)C#N	CC1=CCN[C@@H](C1)C#N	
InChI=1S/C7H10N2/c1-6-2-3-9-7(4-6)5-8/h2,7,9H,3-4H2,1H3	InChI=1S/C7H10N2/c1-6-2-3-9-7(4-6)5-8/h2,7,9H,3-4H2,1H3/t7-/m0/s1
