18
gdb 114591	2.63822	1.21099	0.96412	2.6942	79.62	-0.2329	0.0182	0.2511	1249.9449	0.146288	-401.857547	-401.848618	-401.847674	-401.891337	33.512	
O	-0.0575175903	 1.4397901474	-0.230023197	-0.421412
C	 0.0887202596	 0.053350097	 0.0410405125	-0.104532
C	-1.301623148	-0.5533159172	 0.0181240105	-0.043379
C	-2.0776719557	-0.6860449026	-1.3158551337	-0.173835
N	-2.3291640284	-2.1597741556	-1.1086911518	-0.163144
C	-1.0013376198	-2.7754585966	-1.0815426468	-0.270992
C	-1.4419106312	-2.0766285493	 0.1553434696	 0.131823
C	-1.7262692276	-2.7564705056	 1.3750584326	 0.209519
C	-1.9409130688	-3.2976255472	 2.4283713197	-0.397769
H	 0.8159869005	 1.841764944	-0.2346073943	 0.289727
H	 0.7315928042	-0.4318516724	-0.7098397166	 0.083517
H	 0.5472079977	-0.1218209413	 1.0277890602	 0.096855
H	-1.915068262	-0.0483161279	 0.7675187301	 0.099874
H	-3.0219197024	-0.1418555366	-1.3385156791	 0.119951
H	-1.5154533334	-0.4690942262	-2.2303756718	 0.108386
H	-1.033527348	-3.8599860399	-1.0564008765	 0.132852
H	-0.2055293224	-2.3556296081	-1.6941703014	 0.111014
H	-2.1404221639	-3.783511282	 3.351247974	 0.191546
68.8444	126.7485	158.8339	163.1013	238.3188	276.5008	373.6211	416.0049	454.1349	506.2145	549.5144	592.8758	629.882	658.034	738.9416	769.5785	862.7884	870.2466	917.2308	991.0974	1015.5121	1074.3741	1101.0196	1102.149	1134.2172	1145.1131	1194.2934	1198.6787	1233.8208	1260.366	1275.3223	1305.6794	1344.569	1380.5901	1463.9306	1491.2495	1506.0897	1521.9699	2231.3221	2968.4146	2998.2972	3050.5124	3089.8981	3099.9069	3129.0459	3200.9961	3502.1254	3830.9019
OCC1CN2CC12C#C	OC[C@H]1CN2C[C@@]12C#C	
InChI=1S/C7H9NO/c1-2-7-5-8(7)3-6(7)4-9/h1,6,9H,3-5H2	InChI=1S/C7H9NO/c1-2-7-5-8(7)3-6(7)4-9/h1,6,9H,3-5H2/t6-,7+,8?/m1/s1
