24
gdb 58755	2.44765	1.29989	1.12039	1.9331	88.93	-0.2194	0.0726	0.292	1270.322	0.217022	-368.346433	-368.336751	-368.335806	-368.380786	37.34	
C	 0.3739567262	 1.328141343	 0.2540271377	-0.392008
C	 0.1760679988	-0.1924810131	 0.1668331183	-0.113589
C	 0.8138440256	-0.9084652872	 1.3664072558	-0.393111
C	-1.2930666065	-0.549465444	 0.0338843977	 0.339004
C	-2.4651870802	-0.3146141117	 1.0249245118	-0.209219
N	-3.1815806333	-1.0097021445	-0.14462448	-0.162929
C	-2.3260054372	-0.0795454362	-1.0215887399	-0.238617
C	-1.9539417951	-1.9525703096	-0.1409150192	 0.038691
C	-1.7314576922	-2.8532515942	-1.341931763	-0.444672
H	 1.4374825496	 1.5821609853	 0.3072150267	 0.111362
H	-0.049687214	 1.8393088491	-0.6163770232	 0.115028
H	-0.1097111602	 1.7358889559	 1.1492291446	 0.115441
H	 0.6773698536	-0.5466154526	-0.7462299079	 0.073097
H	 0.3507879653	-0.5866305968	 2.3062945431	 0.115931
H	 0.6997822697	-1.9947715676	 1.2935028373	 0.11432
H	 1.8839498323	-0.6873870725	 1.431136253	 0.111874
H	-2.4852861713	-0.8932096912	 1.9533163063	 0.095309
H	-2.8060505939	 0.7113941913	 1.1880941752	 0.095315
H	-2.6545036234	 0.9629582613	-0.9837380749	 0.096503
H	-2.2188307554	-0.4060781546	-2.0568134037	 0.097166
H	-1.9581316256	-2.566324543	 0.7679925142	 0.066122
H	-1.6123391178	-2.3177772372	-2.2864353654	 0.118347
H	-0.8314924745	-3.4585749506	-1.1881898314	 0.118841
H	-2.5777800105	-3.539998159	-1.4498000531	 0.131795
51.2857	137.0781	163.7904	186.8686	224.0248	238.9427	272.4401	331.0358	356.4475	435.35	458.8727	572.3494	597.1205	628.6775	759.0674	806.2718	820.8407	853.551	908.4967	926.4737	950.6017	959.6078	976.5262	998.8149	1039.2912	1063.9292	1101.8138	1112.2837	1132.5933	1162.2194	1173.5903	1185.3998	1189.2866	1196.383	1206.5094	1268.7015	1313.8044	1345.6507	1367.5696	1397.0555	1404.5084	1418.9271	1431.9026	1487.0602	1490.3716	1492.101	1494.6896	1504.249	1510.8817	1521.5381	1558.3524	2993.4343	3025.8223	3027.3413	3030.7513	3038.5105	3046.069	3061.7126	3092.6539	3097.7263	3098.5969	3101.2988	3103.6565	3110.9682	3116.978	3131.1014
CC(C)C12CN(C1)C2C	CC(C)[C@@]12CN(C1)[C@H]2C	
InChI=1S/C8H15N/c1-6(2)8-4-9(5-8)7(8)3/h6-7H,4-5H2,1-3H3	InChI=1S/C8H15N/c1-6(2)8-4-9(5-8)7(8)3/h6-7H,4-5H2,1-3H3/t7-/m0/s1
