22
gdb 10756	3.35227	1.36185	1.26545	1.3477	77.59	-0.2629	0.0741	0.337	1098.8445	0.198478	-350.191069	-350.181388	-350.180444	-350.224931	36.447	
C	 0.1193891056	 1.5596845155	 0.2786996579	-0.431728
C	 0.0751448736	 0.0323531479	 0.1009268666	 0.243082
C	 0.6530698691	-0.6422229044	 1.3606196152	-0.405787
C	-1.3871627145	-0.410533327	-0.093598967	-0.075959
O	-2.1455321189	-0.0522098283	 1.0545446475	-0.428771
C	 0.8560638556	-0.4639541076	-1.1188598837	 0.021342
C	 0.8500387538	 0.2188399254	-2.4652337342	-0.285726
C	 2.1118856383	 0.1898069191	-1.6371073236	-0.284653
H	 1.1300097473	 1.9067264945	 0.5127262308	 0.10956
H	-0.2252630692	 2.0877940049	-0.6164243026	 0.10651
H	-0.536762291	 1.8496509512	 1.1022364912	 0.134517
H	 0.0775184945	-0.3666049076	 2.2473513432	 0.127203
H	 0.6261370196	-1.7341108678	 1.2686636473	 0.100477
H	 1.6956633289	-0.3453704678	 1.5123437548	 0.107792
H	-1.7911217323	 0.0688257914	-0.9988718437	 0.083916
H	-1.4156326965	-1.5004101445	-0.2558103612	 0.076802
H	-3.0575869737	-0.3166246088	 0.9070869318	 0.286562
H	 0.8678592247	-1.5511757186	-1.1743942835	 0.076003
H	 0.796542851	-0.4016961618	-3.3532540594	 0.107018
H	 0.3405523712	 1.17079098	-2.5647127791	 0.111723
H	 2.4333247893	 1.1225188578	-1.1878770532	 0.112738
H	 2.9279597337	-0.4495695234	-1.9555511748	 0.107379
64.005	121.3659	186.0769	222.2272	227.1958	254.8602	260.8833	300.2162	337.0718	376.013	402.4591	464.0796	535.9281	706.4893	787.6908	829.6042	840.9261	916.6675	932.5768	950.6319	960.5275	981.4637	1030.121	1057.1012	1075.5565	1078.2928	1107.268	1148.839	1179.163	1199.9386	1219.2687	1226.3117	1243.0814	1286.5712	1317.5243	1388.0676	1396.207	1416.447	1456.9934	1467.5001	1484.3143	1493.5027	1501.1125	1508.6729	1517.5617	1518.9503	2962.6999	2997.7019	3030.8563	3040.9172	3094.3767	3103.8314	3114.4514	3124.2407	3129.2875	3133.8716	3139.128	3209.6692	3224.8293	3838.4017
CC(C)(CO)C1CC1	CC(C)(CO)C1CC1	
InChI=1S/C7H14O/c1-7(2,5-8)6-3-4-6/h6,8H,3-5H2,1-2H3	InChI=1S/C7H14O/c1-7(2,5-8)6-3-4-6/h6,8H,3-5H2,1-2H3
