22
gdb 105535	2.15766	1.50532	1.12532	2.7023	81.98	-0.2331	0.079	0.3121	1206.2625	0.194228	-404.297601	-404.288214	-404.28727	-404.332703	35.091	
C	-0.1731323559	 1.1934664212	 0.5566634821	-0.257243
O	 0.1538057865	-0.1299803647	 0.202387395	-0.310753
C	 0.7414889437	-0.371841255	-1.0600548511	 0.406474
C	 0.0854408437	 0.2263216711	-2.3473046832	-0.288068
C	 1.5138533052	 0.5051115985	-2.8902232479	-0.212809
C	 2.0709479185	 0.3488899666	-1.4485407396	-0.278461
C	 0.8876126856	-1.8811553474	-1.1647527014	-0.005608
C	 1.1914039505	-2.7103996991	 0.0236977985	-0.251256
N	-0.1414432011	-2.7715930474	-0.6154404783	-0.339749
H	 0.6974084264	 1.8629105023	 0.5376000263	 0.11231
H	-0.9556859827	 1.6199950324	-0.0850519517	 0.114584
H	-0.5523733289	 1.1531080811	 1.580768314	 0.130434
H	-0.5698499658	-0.4357555465	-2.9177263318	 0.111047
H	-0.4482957902	 1.157126479	-2.1430467033	 0.10101
H	 1.8670146418	-0.281677248	-3.5607963466	 0.111275
H	 1.6740310473	 1.4682759469	-3.378043004	 0.10089
H	 2.1765457503	 1.3161803501	-0.9512233562	 0.102108
H	 2.9935200973	-0.2185732031	-1.3054394294	 0.104231
H	 1.2745854835	-2.2049404808	-2.1290649421	 0.086132
H	 1.7925117604	-3.6093061187	-0.0815098707	 0.108974
H	 1.2723307027	-2.2038959479	 0.9796654989	 0.11928
H	-0.7743710888	-2.1996820206	-0.0591044776	 0.235197
25.8077	89.1001	148.5884	189.4392	206.1969	231.5452	330.128	354.0429	355.6667	504.7883	535.757	630.3748	693.1448	783.5521	798.1568	859.7436	888.3033	918.8695	932.8866	958.7535	974.8011	999.1899	1026.6598	1067.3676	1095.0799	1111.5198	1140.2206	1156.8282	1177.9863	1186.9838	1198.6959	1213.9997	1228.6594	1247.2361	1269.4338	1272.2394	1286.9869	1308.9142	1319.0013	1427.1607	1465.49	1478.2934	1487.3933	1495.644	1502.0379	1505.6409	1509.7536	2998.9515	3050.1498	3064.5889	3068.4442	3074.0577	3107.3006	3112.9321	3115.3112	3118.5781	3124.3178	3132.4896	3209.1585	3492.0433
COC1(CCC1)C1CN1	COC1(CCC1)[C@H]1CN1	
InChI=1S/C7H13NO/c1-9-7(3-2-4-7)6-5-8-6/h6,8H,2-5H2,1H3	InChI=1S/C7H13NO/c1-9-7(3-2-4-7)6-5-8-6/h6,8H,2-5H2,1H3/t6-/m1/s1
