17
gdb 62404	2.36127	1.52818	1.35707	3.1028	79.24	-0.2364	-0.0205	0.2159	1047.8927	0.133703	-384.645631	-384.636984	-384.63604	-384.678575	32.9	
C	-0.0722687684	 1.6045742535	-0.0411098243	-0.449219
C	 0.0118950853	 0.0745822647	-0.0589397463	-0.035274
C	-1.2797227197	-0.5301220294	 0.2290612904	 0.304038
C	-2.3474654724	-1.0297410994	 0.4663012826	-0.450683
C	 0.715681646	-0.6366903507	-1.2494782288	-0.062902
C	 2.1445269588	-0.2408295946	-1.340243102	-0.309785
C	 1.753166106	-1.2982173286	-0.3131452029	-0.159234
C	 1.1084617967	-0.623341282	 0.8553044223	 0.388971
O	 1.2446487423	-0.6767266511	 2.0406395753	-0.309183
H	 0.8889862492	 2.0637622316	-0.2852862843	 0.118095
H	-0.8181848086	 1.9582465538	-0.7587549898	 0.130829
H	-0.3688451708	 1.9441004363	 0.954863459	 0.146332
H	-3.2896257029	-1.4687633199	 0.6841051052	 0.197872
H	 0.1788962787	-1.1166227989	-2.0562064636	 0.114805
H	 2.6952650138	-0.6412800279	-2.1851002242	 0.131382
H	 2.4857499672	 0.7377782194	-1.0191266533	 0.128226
H	 2.1914868789	-2.2878104269	-0.3257583653	 0.115728
114.1379	130.1191	172.6204	192.892	216.4693	278.8947	387.8596	440.7003	479.3296	545.4881	618.9901	638.8783	642.551	669.1501	730.629	773.0368	819.1798	898.083	926.2081	937.1187	967.7271	1015.0091	1054.091	1080.2725	1101.8745	1137.7975	1154.5698	1192.92	1205.8758	1291.004	1319.8633	1406.3753	1485.6605	1486.8887	1503.7485	1891.2381	2229.6472	3045.828	3118.7857	3124.7259	3131.6773	3200.708	3209.5428	3219.1897	3501.2925
CC1(C#C)C2CC2C1=O	C[C@@]1(C#C)[C@H]2C[C@H]2C1=O	
InChI=1S/C8H8O/c1-3-8(2)6-4-5(6)7(8)9/h1,5-6H,4H2,2H3	InChI=1S/C8H8O/c1-3-8(2)6-4-5(6)7(8)9/h1,5-6H,4H2,2H3/t5-,6+,8-/m1/s1
