13
gdb 124274	3.98882	1.30771	0.99079	0.288	65.93	-0.2663	-0.1172	0.1491	1100.0304	0.088043	-448.910634	-448.902838	-448.901894	-448.944071	26.926	
C	 0.3431724649	 1.3892808033	 0.0909506046	-0.47801
C	 0.2035592417	-0.112133054	 0.0986794874	 0.336825
O	 0.0842309809	-0.7754592621	 1.0972947723	-0.258163
C	 0.2173233959	-0.8151172029	-1.2602347746	 0.295155
N	 0.0952346669	-2.1418103281	-1.2823776574	-0.223825
C	 0.1205421787	-2.6419768001	-2.5080009422	 0.114694
N	 0.2528603748	-1.9342855432	-3.6396572	-0.155215
N	 0.3682889116	-0.6254105535	-3.536905736	-0.047241
N	 0.3521499659	-0.0459534961	-2.346951984	-0.211227
H	 1.2794239019	 1.6835518192	-0.3936982079	 0.160134
H	-0.458663762	 1.8450301828	-0.4983850759	 0.160126
H	 0.3153007612	 1.7529880604	 1.1180057262	 0.146557
H	 0.0273032976	-3.7181777156	-2.6272239225	 0.160189
38.4323	119.0107	145.9517	202.3148	288.8133	361.7352	384.3214	467.8461	609.9143	624.9427	696.8408	800.7028	857.5827	948.9142	975.4085	1001.1059	1026.6826	1049.5925	1145.45	1168.4097	1262.4947	1325.7184	1391.9919	1417.0954	1452.612	1463.3647	1529.5895	1559.65	1820.7615	3050.9455	3112.2907	3164.2436	3181.6621
CC(=O)C1=NC=NN=N1	CC(=O)c1ncnnn1	
InChI=1S/C4H4N4O/c1-3(9)4-5-2-6-8-7-4/h2H,1H3	InChI=1S/C4H4N4O/c1-3(9)4-5-2-6-8-7-4/h2H,1H3
