17
gdb 98056	3.0641	1.00736	0.9048	4.0282	71.7	-0.2356	-0.0678	0.1678	1356.5704	0.132933	-455.180494	-455.170146	-455.169202	-455.21703	35.602	
C	-0.1913441378	 1.5279198939	-0.2310783168	-0.385226
C	-0.6103473947	 0.0994186893	-0.5701607718	-0.302557
C	-1.327738284	-0.5981027006	 0.5608593543	 0.342089
O	-1.5696783541	-0.1097304938	 1.6375567787	-0.296311
C	-1.7023892276	-2.0764693688	 0.3452940455	 0.318793
O	-0.9216622898	-2.9662234334	 0.5976293177	-0.319699
C	-3.0979724053	-2.3568529502	-0.1649219588	 0.281382
N	-3.4407459689	-3.6708288123	-0.0879950743	-0.543791
N	-3.7473159667	-1.340746068	-0.5983926803	-0.509724
H	 0.3131270115	 1.9919796554	-1.0827089856	 0.113648
H	-1.0618868766	 2.1346362165	 0.029940393	 0.139006
H	 0.488024934	 1.5437083279	 0.6249551947	 0.133719
H	-1.2873679273	 0.067263217	-1.4342422384	 0.146918
H	 0.2513190996	-0.5245581226	-0.8464823329	 0.133647
H	-2.6978348981	-4.3160832763	 0.1364256707	 0.274636
H	-4.2435324717	-4.0219124789	-0.5814810865	 0.259198
H	-4.6691776824	-1.592056545	-0.9611673893	 0.21427
36.5099	64.6008	72.5885	156.0373	169.4446	195.365	266.5623	298.3349	320.2339	341.0998	436.5926	471.366	539.2165	591.3389	641.8882	722.1116	794.2635	815.6117	881.6031	945.4093	1006.5614	1064.1053	1089.8734	1100.463	1139.6711	1198.0893	1276.0787	1370.5636	1411.9461	1433.2781	1446.6921	1492.341	1498.2307	1607.1957	1718.57	1792.407	1809.5207	3022.3497	3053.173	3055.9417	3125.3034	3130.0555	3453.6154	3580.7281	3713.8751
CCC(=O)C(=O)C(N)=N	CCC(=O)C(=O)C(=N)N	
InChI=1S/C5H8N2O2/c1-2-3(8)4(9)5(6)7/h2H2,1H3,(H3,6,7)	InChI=1S/C5H8N2O2/c1-2-3(8)4(9)5(6)7/h2H2,1H3,(H3,6,7)
