19
gdb 113426	2.88335	1.08331	0.91029	3.95	76.89	-0.2376	-0.0161	0.2215	1313.3632	0.157216	-423.012327	-423.003283	-423.002339	-423.046805	33.786	
O	 0.2055877646	 0.580285231	 0.8209266045	-0.418629
C	-0.1652378887	 0.1544148614	-0.4865251475	-0.100236
C	-1.4981560111	-0.5372270781	-0.3896421256	-0.052189
C	-1.8185737692	-1.6928794495	-1.3139993138	-0.371471
C	-1.563826546	-1.93763156	 0.1440041908	 0.360468
C	-0.3946901083	-2.7273010443	 0.766948034	-0.426385
C	-1.4083594998	-3.2919972519	 1.7808160316	 0.409756
O	-1.3294400047	-4.0763258052	 2.6797517428	-0.289104
C	-2.5700123422	-2.4753142307	 1.1785415708	-0.42844
H	 1.010580591	 1.1024969503	 0.750343532	 0.288001
H	-0.23252456	 1.0095895629	-1.1769356544	 0.092785
H	 0.5813901367	-0.5420237284	-0.9012034967	 0.084337
H	-2.3233221879	 0.1174353955	-0.1202570771	 0.091412
H	-2.8348257212	-1.7852505093	-1.6834201492	 0.115514
H	-1.0573133401	-2.0008393993	-2.0252725025	 0.112643
H	 0.0823594647	-3.4888158476	 0.1414673565	 0.12399
H	 0.3789819621	-2.1068523037	 1.2306471856	 0.1458
H	-2.9882614451	-1.7342810636	 1.868136901	 0.133654
H	-3.3877829749	-3.0917830297	 0.7902789573	 0.128091
39.2581	100.7244	138.0035	176.2636	289.7788	298.551	353.5727	410.7604	422.3425	449.6009	491.5685	570.3824	677.8344	722.7577	782.2337	860.4515	895.5033	897.7873	977.1187	997.4245	1037.6446	1056.7928	1065.7325	1072.2419	1084.0656	1092.8362	1167.1171	1187.9529	1199.2084	1210.7683	1225.9474	1252.5448	1281.1967	1327.7867	1412.9565	1424.5538	1441.9512	1468.2149	1498.1538	1516.1594	1897.9622	2966.2391	2996.9883	3042.5191	3048.7462	3094.1436	3101.7509	3118.8149	3140.3857	3203.538	3823.2229
OCC1CC11CC(=O)C1	OC[C@H]1CC21CC(=O)C2	
InChI=1S/C7H10O2/c8-4-5-1-7(5)2-6(9)3-7/h5,8H,1-4H2	InChI=1S/C7H10O2/c8-4-5-1-7(5)2-6(9)3-7/h5,8H,1-4H2/t5-/m1/s1
