20
gdb 66564	2.2715	2.22908	1.60409	1.8006	81.47	-0.2196	0.0797	0.2993	948.556	0.171211	-365.940663	-365.933002	-365.932057	-365.972101	31.34	
C	-0.0899657044	 1.4660684722	 0.0481308418	-0.518979
C	 0.0554931493	-0.0218380958	 0.054917253	 0.320969
C	 0.2841582703	-1.0007004571	-1.0380331315	-0.121859
C	 0.6336476705	-2.0608155442	 0.0323704384	-0.12704
C	-0.869826499	-2.099341038	 0.435708676	 0.011002
C	-0.5459752483	-1.5926570797	 1.8479010358	-0.291362
C	 0.6751531345	-0.9328738927	 1.151671525	 0.281535
C	 1.9207730365	-0.4867889858	 1.8710902672	-0.513297
N	-1.0853288811	-0.869017079	-0.4376418263	-0.195795
H	 0.8853802681	 1.9626423498	 0.0953210124	 0.117445
H	-0.5983385648	 1.792206598	-0.8637406092	 0.133696
H	-0.6865741799	 1.8061600487	 0.9026884347	 0.121817
H	 0.4790190558	-0.8878205844	-2.0985197962	 0.090136
H	 1.3237716803	-2.8997917908	-0.0159452295	 0.067106
H	-1.571269632	-2.9048907184	 0.2228063202	 0.072429
H	-1.2767031127	-0.9534542854	 2.3533772506	 0.098317
H	-0.2400788347	-2.4116878888	 2.507841141	 0.097368
H	 2.327803313	-1.2881974495	 2.496591634	 0.116991
H	 2.7005224041	-0.1859071769	 1.1617088648	 0.118974
H	 1.7172109045	 0.3716990979	 2.5222689277	 0.120548
191.0477	203.546	207.4519	237.2587	278.0214	345.6256	431.2061	560.9746	578.954	619.6112	745.0913	760.0987	773.5552	813.9855	848.3934	858.7808	879.5808	912.1506	946.8015	961.1317	996.4111	1005.2708	1021.6727	1073.7688	1088.6612	1092.9767	1143.0979	1160.4426	1183.8329	1202.5609	1226.6056	1251.4161	1262.8411	1268.8698	1333.237	1395.5576	1413.2473	1435.6943	1480.3879	1484.0115	1489.328	1492.765	1495.8923	3020.9569	3027.35	3040.2444	3082.857	3088.0374	3092.3728	3098.7433	3111.9151	3122.1507	3142.2291	3174.2562
CC12C3C4C(CC14C)N23	C[C@@]12[C@H]3[C@@H]4[C@@H](C[C@]14C)N23	
InChI=1S/C8H11N/c1-7-3-4-5(7)6-8(7,2)9(4)6/h4-6H,3H2,1-2H3	InChI=1S/C8H11N/c1-7-3-4-5(7)6-8(7,2)9(4)6/h4-6H,3H2,1-2H3/t4-,5+,6-,7+,8-,9?/m1/s1
