23
gdb 107657	2.97537	1.2764	1.06448	1.199	85.17	-0.2211	0.0807	0.3018	1256.8748	0.207026	-388.290641	-388.281777	-388.280833	-388.32391	34.966	
C	 0.2211746817	 1.5049333219	-0.1987941649	-0.376913
C	-0.1398310552	 0.0542806066	 0.1398651443	-0.233558
C	 0.685347051	-0.5145057143	 1.2734931858	 0.452826
C	 2.0601317839	-1.0621048649	 0.9886192834	-0.355945
C	 0.9219144149	-2.0032574757	 1.3727056711	-0.100019
C	 0.9283512142	-2.6758384246	 2.7449327764	-0.231122
C	 0.3462731916	-1.7582936086	 3.8332626367	-0.202167
C	 0.8589915406	-0.3306604063	 3.6690179569	-0.078994
O	 0.4423912885	 0.2381668195	 2.437583142	-0.304374
H	 1.2654607186	 1.5862793292	-0.5187901303	 0.111792
H	-0.4099480775	 1.8872650447	-1.0069363863	 0.104479
H	 0.0877004093	 2.1475154838	 0.6749075511	 0.133174
H	-1.1990777533	-0.0090276256	 0.4187641265	 0.098355
H	-0.0049631085	-0.5828794073	-0.7416806887	 0.090969
H	 2.4125057783	-1.0590406447	-0.0377079972	 0.106125
H	 2.8432611427	-0.9138640296	 1.7251655673	 0.108927
H	 0.5106400534	-2.6012935865	 0.5647806149	 0.082413
H	 0.3510966642	-3.6046578147	 2.7013392686	 0.100751
H	 1.951283673	-2.9654565393	 3.0160696394	 0.100349
H	-0.7475883307	-1.7358539462	 3.760428375	 0.105378
H	 0.6003780761	-2.1320342021	 4.8311652828	 0.09388
H	 0.4525763316	 0.3282720479	 4.4417808073	 0.106162
H	 1.9576481616	-0.3038805831	 3.7607252179	 0.087516
90.8506	123.044	165.5933	208.8065	268.1275	324.8645	353.8183	393.9614	412.8509	498.3707	506.4354	635.1938	700.5746	765.1041	794.3882	849.0569	860.7747	896.4734	899.9987	939.8194	969.1171	973.7283	1008.7135	1040.7878	1056.9547	1096.7715	1106.5452	1121.5284	1143.3849	1153.2322	1223.5865	1231.6163	1255.2883	1269.5747	1306.1345	1323.8967	1363.0874	1370.271	1379.2863	1403.0182	1410.3402	1421.2977	1473.8045	1478.0228	1487.4392	1494.3186	1496.9088	1510.1994	1516.0522	2970.8576	3023.8977	3026.9178	3032.8163	3038.7898	3066.5039	3069.4085	3080.7527	3083.4667	3103.0486	3125.5387	3126.5263	3141.8061	3210.4514
CCC12CC1CCCO2	CC[C@]12C[C@H]1CCCO2	
InChI=1S/C8H14O/c1-2-8-6-7(8)4-3-5-9-8/h7H,2-6H2,1H3	InChI=1S/C8H14O/c1-2-8-6-7(8)4-3-5-9-8/h7H,2-6H2,1H3/t7-,8+/m1/s1
