19
gdb 89103	4.95357	0.60786	0.58103	4.8861	77.66	-0.2246	0.038	0.2626	1866.5826	0.158682	-419.186635	-419.17693	-419.175986	-419.222342	34.767	
O	-0.3022704039	 1.4249456395	 0.6274800963	-0.421492
C	-0.0348961615	 0.1032497717	 0.2472402521	 0.082628
C	-0.746481514	-1.0216756343	 0.9603492859	-0.346861
C	-1.1554363408	-0.6032284414	-0.4537542606	 0.02188
N	-2.3580884384	 0.1303131675	-0.7167619533	-0.305876
C	-3.5890220145	-0.5984350349	-0.4607418342	-0.121112
C	-4.7866349529	 0.2409407106	-0.9413690652	-0.344928
C	-6.0627124718	-0.4358210213	-0.7290078049	 0.255197
N	-7.0638702658	-0.9858212455	-0.5542553789	-0.305946
H	 0.0431950412	 1.5576328257	 1.5160844851	 0.293838
H	 0.9796761369	-0.0674489927	-0.1093473066	 0.095546
H	-0.227794686	-1.9629583315	 1.1074529084	 0.116155
H	-1.4141686027	-0.7326549151	 1.7658242185	 0.113688
H	-0.87427923	-1.2846875755	-1.2534374677	 0.100114
H	-2.3292236661	 1.0048649773	-0.2015888939	 0.230151
H	-3.5617643433	-1.5374517282	-1.0246508757	 0.124648
H	-3.7355326282	-0.8730242899	 0.5979499766	 0.101301
H	-4.8091359234	 1.2006099722	-0.4103463358	 0.148494
H	-4.6667622146	 0.4709557458	-2.0049474061	 0.162574
48.3769	79.3052	90.0081	128.52	184.9385	278.2673	305.9486	326.4576	377.6215	401.9565	500.6813	533.5008	623.2064	746.0693	766.0553	787.8429	843.3427	901.5853	957.9036	991.8984	1002.1491	1043.0364	1047.1636	1068.0954	1129.4424	1136.6298	1167.3824	1187.5293	1232.1359	1259.9441	1290.574	1308.3398	1315.9191	1358.4243	1401.7108	1419.7222	1469.3454	1471.5368	1514.4774	1518.3732	2363.5951	2956.2555	3040.1321	3062.63	3092.1377	3110.195	3127.871	3131.269	3220.0394	3520.9772	3812.7471
OC1CC1NCCC#N	O[C@H]1C[C@H]1NCCC#N	
InChI=1S/C6H10N2O/c7-2-1-3-8-5-4-6(5)9/h5-6,8-9H,1,3-4H2	InChI=1S/C6H10N2O/c7-2-1-3-8-5-4-6(5)9/h5-6,8-9H,1,3-4H2/t5-,6+/m1/s1
