18
gdb 17864	4.18507	1.72749	1.51628	1.492	72.63	-0.2439	0.0697	0.3136	889.0198	0.154369	-347.722365	-347.715346	-347.714401	-347.753281	28.128	
O	 0.0236188057	 1.3950149087	 0.2239763914	-0.422899
C	 0.009869512	-0.0001407949	 0.0726779597	-0.03586
C	-0.4349693091	-0.7853282043	 1.2943633924	-0.412929
C	-1.2857213454	-0.7313300322	 0.0660123846	 0.449003
C	-2.7296759445	-0.2481339259	-0.163790749	-0.121563
C	-2.5230505651	-0.6247034371	-1.66442208	-0.215742
C	-1.9049914395	-1.8044698217	-0.8521224373	-0.128958
C	-3.1648956159	-1.7295234814	 0.0652692527	-0.212289
H	-0.2665481298	 1.7842510191	-0.6073875475	 0.285546
H	 0.8456344809	-0.4062995937	-0.5000512243	 0.080206
H	 0.1035895177	-1.6950791875	 1.5416385037	 0.110039
H	-0.7393364807	-0.1893589842	 2.1492194419	 0.122846
H	-3.1965613094	 0.6511131917	 0.2389581268	 0.076958
H	-3.4269981654	-0.8511900705	-2.236902777	 0.089125
H	-1.8273853419	-0.0076375897	-2.2396867712	 0.081198
H	-1.422318017	-2.6999364076	-1.2461608894	 0.071841
H	-3.0565894312	-2.1195935572	 1.0796430634	 0.09655
H	-4.1132429913	-2.0311015315	-0.3887006109	 0.086927
143.8515	168.9596	234.1329	284.8524	398.5389	444.5435	495.4393	607.3408	647.9752	773.0057	797.0836	842.3992	869.9369	894.2928	901.7574	945.7688	981.3377	1014.1222	1016.2912	1035.4062	1057.046	1074.2527	1096.8093	1113.1193	1123.9986	1148.2681	1167.7356	1183.849	1195.0501	1231.2079	1246.0922	1248.1338	1298.8985	1364.526	1426.4479	1492.2497	1496.9653	1533.7196	3045.8662	3051.9498	3079.098	3103.3452	3111.4861	3112.1073	3121.4366	3122.6734	3209.1863	3807.7982
OC1CC11C2CC1C2	O[C@H]1C[C@]21[C@H]1C[C@@H]2C1	
InChI=1S/C7H10O/c8-6-3-7(6)4-1-5(7)2-4/h4-6,8H,1-3H2	InChI=1S/C7H10O/c8-6-3-7(6)4-1-5(7)2-4/h4-6,8H,1-3H2/t4-,5+,6-,7-/m0/s1
