22
gdb 9553	2.70833	1.57324	1.4454	1.2939	77.8	-0.2503	0.0725	0.3228	1054.777	0.198774	-350.206106	-350.196717	-350.195773	-350.239395	35.71	
C	-0.1119563596	 1.6317202486	 0.0262416613	-0.413256
C	 0.048802277	 0.1074425686	-0.0248831764	-0.212433
C	 0.7407976806	-0.4861208811	 1.2084865793	 0.402966
O	 2.0438039224	 0.0474436196	 1.3761490954	-0.488891
C	-0.1693890472	-0.523054704	 2.4787417551	-0.281735
C	-0.4695487058	-2.0143236717	 2.1757522227	-0.239372
C	 0.7781708223	-2.0437744046	 1.2510936602	 0.023741
C	 0.7637693294	-2.8735801501	-0.0234601813	-0.424429
H	 0.8583155812	 2.141698835	 0.0276127124	 0.111419
H	-0.656868073	 1.9952198142	-0.84980681	 0.119525
H	-0.6648308214	 1.9534034539	 0.9155435889	 0.12069
H	-0.9391524639	-0.3549802012	-0.137316661	 0.096295
H	 0.6276531885	-0.1663568075	-0.9145941465	 0.102978
H	 1.974491585	 1.0052312292	 1.4469001428	 0.273528
H	 0.4390209652	-0.402194211	 3.3785451676	 0.102729
H	-1.0163845154	 0.1669721179	 2.5237573099	 0.087885
H	-0.484042338	-2.7077980017	 3.0192632023	 0.096272
H	-1.3989927507	-2.1405941401	 1.6111343953	 0.096522
H	 1.6574373168	-2.3056059752	 1.849450766	 0.083043
H	-0.1095051936	-2.6539946631	-0.6467810562	 0.109727
H	 1.6612323219	-2.6953614544	-0.6258027062	 0.121023
H	 0.7343585382	-3.9424981113	 0.2153895386	 0.111772
113.4763	124.2862	177.1025	212.2981	223.1257	248.0684	269.8576	309.0326	355.0685	408.3196	474.2445	512.5404	611.5957	701.7904	784.0961	792.3441	873.3136	891.2417	928.1533	942.8296	960.692	1008.5587	1031.1423	1056.0484	1092.1443	1136.2141	1163.308	1186.9408	1201.422	1225.5197	1250.6808	1268.6174	1296.5333	1315.1994	1332.1487	1380.8789	1389.5483	1405.8806	1410.7883	1474.3084	1478.0226	1496.4811	1497.9742	1500.0885	1501.9456	1511.7336	3025.676	3028.6137	3031.7296	3046.1889	3053.1716	3057.2836	3066.1537	3091.3955	3093.8671	3096.6523	3101.9284	3106.326	3118.3023	3808.8453
CCC1(O)CCC1C	CC[C@@]1(O)CC[C@H]1C	
InChI=1S/C7H14O/c1-3-7(8)5-4-6(7)2/h6,8H,3-5H2,1-2H3	InChI=1S/C7H14O/c1-3-7(8)5-4-6(7)2/h6,8H,3-5H2,1-2H3/t6-,7-/m1/s1
