19
gdb 72142	2.60853	1.99923	1.78298	2.2346	72.91	-0.2466	0.0866	0.3332	890.1081	0.16181	-423.030649	-423.023921	-423.022977	-423.061234	28.542	
C	-0.0070910927	 1.5001562008	-0.0199296525	-0.505807
C	 0.0227968855	-0.0104143196	-0.0498802498	 0.277623
C	 0.5199430941	-0.7558794903	-1.283557998	-0.297412
C	 0.2755286696	-2.1152067253	-0.6249885702	 0.180214
O	 1.056177772	-2.0517362972	 0.5618649592	-0.279444
C	 0.6882035412	-0.7918520843	 1.1516055098	 0.062584
C	-0.7030396121	-0.9285289509	 1.8118174696	-0.24942
C	-1.2682466564	-0.8152031351	 0.377310182	 0.062589
O	-1.1069468234	-2.0775571445	-0.2942254575	-0.279445
H	 0.9964672412	 1.9150034923	-0.1640547086	 0.123362
H	-0.6489160355	 1.895353192	-0.8148386084	 0.123362
H	-0.3885354386	 1.8822075556	 0.9329501085	 0.120039
H	-0.0971880291	-0.5992825152	-2.1712458122	 0.106745
H	 1.5739777358	-0.5793314511	-1.5098431561	 0.106745
H	 0.4975344335	-3.037570223	-1.1581215573	 0.091484
H	 1.5402510919	-0.388245412	 1.7017462008	 0.073969
H	-0.9052624721	-1.8552438567	 2.3507374567	 0.109789
H	-0.9572475249	-0.0613125889	 2.4279768925	 0.099054
H	-2.27411172	-0.4337716568	 0.1921508717	 0.073969
217.4225	238.6138	268.9737	385.8882	396.8663	464.071	541.1134	590.4405	596.7749	665.4934	795.3192	836.7962	850.668	859.6599	910.4386	915.2698	940.6175	946.0902	971.0363	986.0041	1005.4899	1069.1185	1088.2995	1098.1023	1129.0134	1163.2243	1175.9433	1211.4372	1236.5512	1259.939	1260.1651	1296.0012	1297.1593	1322.5284	1367.1991	1370.1898	1418.1619	1462.0447	1476.1807	1495.949	1496.4349	3027.8523	3061.0766	3069.7696	3091.3535	3093.595	3093.8428	3096.221	3129.6686	3132.9731	3153.2867
CC12CC3OC1CC2O3	C[C@@]12C[C@H]3O[C@@H]1C[C@@H]2O3	
InChI=1S/C7H10O2/c1-7-3-6-8-4(7)2-5(7)9-6/h4-6H,2-3H2,1H3	InChI=1S/C7H10O2/c1-7-3-6-8-4(7)2-5(7)9-6/h4-6H,2-3H2,1H3/t4-,5+,6+,7-
