25
gdb 96351	2.05236	1.57563	1.15396	1.3155	87.78	-0.2403	0.0749	0.3152	1226.1527	0.229423	-389.511285	-389.501608	-389.500664	-389.5447	38.561	
C	-0.0145629116	 1.5660688075	-0.1254935225	-0.423248
C	 0.0606748086	 0.0394764472	 0.0053356254	 0.015115
C	 0.6687007371	-0.5607087209	-1.2726812048	-0.091226
O	 0.6914805723	-1.974917361	-1.2639523983	-0.245794
C	 1.4580934226	-2.4798782581	-0.184963607	-0.093217
C	 0.8939946419	-2.0222871159	 1.1593493751	-0.217687
C	 0.790701812	-0.4806648196	 1.283829949	 0.267081
C	 2.1943882592	 0.1361839111	 1.4512140531	-0.423437
C	-0.0360176822	-0.1544669572	 2.5403023171	-0.42735
H	 0.9744564739	 2.0114124942	-0.2757836407	 0.11782
H	-0.6314674437	 1.844269134	-0.9868464685	 0.113463
H	-0.4591483317	 2.0319430759	 0.7579830336	 0.11762
H	-0.96717782	-0.3460245601	 0.0626847148	 0.072973
H	 0.067481904	-0.2722182191	-2.1410612354	 0.101906
H	 1.6870366791	-0.16439775	-1.4335073696	 0.081689
H	 1.4238753607	-3.5704707316	-0.2685811476	 0.102708
H	 2.5124681909	-2.1734927164	-0.2935430448	 0.084793
H	-0.108051837	-2.4556276825	 1.269595257	 0.096124
H	 1.5087767263	-2.4235786979	 1.9750058634	 0.086452
H	 2.8381513703	-0.0283739616	 0.5828306618	 0.113048
H	 2.1382685538	 1.215683224	 1.6199156787	 0.11405
H	 2.6975563384	-0.3030280012	 2.3196942454	 0.109547
H	 0.4256304354	-0.5979509878	 3.4299709439	 0.107559
H	-0.1090146116	 0.9235331796	 2.7146513648	 0.110648
H	-1.0533001587	-0.5532497229	 2.4598917262	 0.109363
115.3323	183.6372	205.2669	223.0298	250.1885	285.4254	287.9683	328.3849	355.3562	365.7267	420.5188	453.6436	479.9761	508.1041	614.0979	683.8832	808.6575	868.4492	900.2212	928.4994	941.1676	968.262	984.2056	1001.12	1021.6237	1035.7888	1086.9992	1104.0329	1140.7891	1156.5281	1203.9347	1219.8173	1237.6878	1249.478	1306.109	1322.3852	1335.043	1363.2693	1380.8316	1391.4865	1399.8037	1408.591	1421.5275	1432.2005	1470.9207	1483.596	1487.3721	1494.0362	1499.0002	1505.3104	1509.8013	1511.7575	1514.8582	2948.2711	2961.3554	3004.4675	3017.6833	3025.8196	3034.6571	3038.5334	3060.603	3069.9987	3077.8756	3088.6166	3095.0013	3097.8856	3102.5207	3111.9506	3114.1728
CC1COCCC1(C)C	C[C@H]1COCCC1(C)C	
InChI=1S/C8H16O/c1-7-6-9-5-4-8(7,2)3/h7H,4-6H2,1-3H3	InChI=1S/C8H16O/c1-7-6-9-5-4-8(7,2)3/h7H,4-6H2,1-3H3/t7-/m0/s1
