21
gdb 90096	2.78465	1.43727	1.27083	2.3179	83.92	-0.2218	0.0589	0.2807	1120.4792	0.181129	-386.945045	-386.936569	-386.935625	-386.977449	33.972	
C	-0.0974502379	 1.6539891624	-0.1620804424	-0.408323
C	 0.0124376121	 0.14271903	-0.00441314	-0.01892
C	 1.0099892087	-0.6462678119	-0.9925093333	-0.360888
C	 1.8719494211	-0.8316335249	 0.2598427045	 0.379877
O	 2.5301613431	-1.7888912384	 1.2063136774	-0.383042
C	 2.093314153	-0.5583884958	 1.9977800178	-0.01284
C	 2.7076946413	 0.3266157503	 0.9130780143	 0.009571
C	 4.2128639532	 0.3548872749	 0.7220817397	-0.434824
C	 0.7339231824	-0.6160372015	 1.2128651653	-0.068473
H	 0.8674023349	 2.1562152247	-0.26051073	 0.125381
H	-0.6751953352	 1.8908031562	-1.0627511284	 0.117835
H	-0.6215892116	 2.0941510878	 0.6923756998	 0.124927
H	-0.996290863	-0.2717085094	-0.0710811966	 0.09418
H	 0.5517267543	-1.567292798	-1.3596378517	 0.122114
H	 1.4484969799	-0.0929579875	-1.8283800539	 0.106478
H	 2.3010333253	-0.6209360574	 3.0701353058	 0.086385
H	 2.2679266799	 1.3213635395	 0.839735837	 0.071965
H	 4.6283776402	-0.6508031163	 0.8012626465	 0.140223
H	 4.4736328548	 0.7682175267	-0.2584332516	 0.111004
H	 4.6858168269	 0.9901637612	 1.4793920877	 0.111993
H	 0.1865795266	-1.5304178925	 1.445888502	 0.085374
139.6422	187.0446	200.3786	217.7284	253.6051	303.2327	364.3115	390.1312	431.8273	543.4399	605.9276	668.1031	699.3509	738.667	778.2385	812.7148	854.9021	873.8657	919.3105	949.9329	996.5195	1032.9045	1051.631	1060.5684	1075.9711	1106.5882	1110.4069	1150.3455	1168.7113	1187.6299	1198.8477	1216.6998	1229.4238	1246.1373	1296.5681	1334.1282	1369.9618	1395.9859	1414.4357	1416.1811	1474.1355	1491.5485	1493.1749	1505.1724	1506.9909	3034.2148	3035.0011	3054.4509	3067.0248	3068.6145	3088.5082	3094.4228	3101.0418	3108.8283	3120.9441	3126.743	3143.4629
CC1CC23OC(C2C)C13	C[C@H]1C[C@@]23O[C@@H]([C@H]2C)[C@@H]13	
InChI=1S/C8H12O/c1-4-3-8-5(2)7(9-8)6(4)8/h4-7H,3H2,1-2H3	InChI=1S/C8H12O/c1-4-3-8-5(2)7(9-8)6(4)8/h4-7H,3H2,1-2H3/t4-,5+,6+,7-,8+/m0/s1
