17
gdb 46491	4.11451	1.21799	1.04014	3.7401	78.82	-0.2327	-0.055	0.1777	1142.1273	0.136223	-421.835549	-421.827948	-421.827004	-421.867699	29.713	
O	-0.0256355575	-0.0320368973	 0.1714272052	-0.323524
C	-0.0080953647	 1.1633065135	-0.0408756876	 0.347857
C	-1.3018719537	 1.9774317709	-0.1121598859	-0.209327
O	-1.1805673807	 3.1344251954	-0.9264852595	-0.294299
C	-0.1217069208	 3.9706373296	-0.5636134729	 0.410319
C	-0.1560567387	 5.3223291365	-1.223553798	-0.319664
C	-0.4645848436	 5.2243015228	 0.2457583245	-0.323383
C	 1.1561345227	 3.2863219557	-0.319521715	-0.085712
C	 1.2255012417	 1.95701961	-0.1474510422	-0.205409
H	-2.0924090151	 1.3629784246	-0.5463808379	 0.137595
H	-1.5979085732	 2.2415941213	 0.9178388547	 0.114009
H	 0.7839511306	 5.7632039172	-1.5357607753	 0.123786
H	-0.9864256875	 5.480866833	-1.9016924698	 0.13906
H	-1.5021385877	 5.3096076297	 0.5467326764	 0.135428
H	 0.2583286854	 5.595753575	 0.9630694063	 0.123306
H	 2.0483559261	 3.9066460092	-0.2836595978	 0.116845
H	 2.1651360268	 1.4351441027	-0.0023244952	 0.113114
75.5916	170.7764	222.5856	293.3206	366.3147	406.2784	426.5508	472.2381	544.2777	624.4203	681.8721	756.9281	771.2242	784.5484	856.6004	905.2144	916.1487	941.7035	986.5949	1005.7042	1033.7673	1052.5488	1083.2412	1115.5639	1135.8393	1194.9195	1240.6927	1257.5851	1292.2519	1325.3776	1377.3556	1427.2304	1452.3554	1470.3264	1486.1448	1662.669	1784.4034	2963.4468	3121.4049	3140.2002	3142.2317	3160.1544	3197.8301	3227.1484	3241.3778
O=C1COC2(CC2)C=C1	O=C1COC2(CC2)C=C1	
InChI=1S/C7H8O2/c8-6-1-2-7(3-4-7)9-5-6/h1-2H,3-5H2	InChI=1S/C7H8O2/c8-6-1-2-7(3-4-7)9-5-6/h1-2H,3-5H2
