23
gdb 116185	2.12322	1.33634	1.02977	2.0166	80.38	-0.2523	0.0663	0.3185	1282.2737	0.205346	-425.438832	-425.428726	-425.427782	-425.47365	38.299	
C	 0.4448433926	 1.4400311389	-0.4799510325	-0.438516
C	 0.0073496962	 0.0518917507	 0.0073143905	 0.355263
O	-1.364451172	 0.087824566	 0.4001911323	-0.483678
C	 0.2987530694	-1.0374065539	-1.0491710987	-0.251239
C	 1.7811752033	-1.4229175543	-0.8442097364	-0.219937
C	 2.1245858806	-1.0118109392	 0.6190780631	-0.215082
C	 0.8151496765	-0.4643770031	 1.2212021659	 0.013417
C	 0.9945235458	 0.5273630269	 2.3666920545	-0.098232
O	 1.6401111273	-0.054515372	 3.4934897068	-0.425449
H	 1.5100567494	 1.4694347252	-0.7293642844	 0.122305
H	-0.108324298	 1.7099816944	-1.3879054938	 0.103493
H	 0.2454518534	 2.20393944	 0.2759755	 0.12752
H	-1.8725686925	 0.4675347527	-0.324271719	 0.273363
H	-0.358083521	-1.8858377532	-0.8304265709	 0.102387
H	 0.078580961	-0.706143867	-2.0698109014	 0.08216
H	 1.942310968	-2.4896233456	-1.0206159827	 0.100456
H	 2.4244446316	-0.893108915	-1.553118442	 0.099501
H	 2.5201048651	-1.8417603376	 1.2079968166	 0.103448
H	 2.8970370254	-0.2347982069	 0.6330500043	 0.098979
H	 0.221211337	-1.3056186406	 1.6088127486	 0.068124
H	 1.6453920841	 1.3538883893	 2.0612618707	 0.103399
H	 0.0182686221	 0.9549916072	 2.6400197691	 0.099129
H	 1.0660573646	-0.7512791326	 3.8277553694	 0.27919
70.9293	96.0533	132.8913	182.0812	239.0475	270.1136	285.7163	297.7902	321.5602	346.4521	403.7883	499.1681	510.6344	565.3608	632.1418	739.1326	801.5616	841.7	883.0491	917.148	943.8448	971.9446	1011.4347	1029.1598	1040.6181	1049.0428	1096.5356	1114.0017	1136.576	1176.6442	1199.1052	1219.438	1244.9404	1259.7984	1295.0027	1318.3483	1328.7466	1335.267	1372.6283	1385.7216	1399.7675	1411.1391	1422.0505	1485.82	1487.3988	1499.477	1503.7323	1509.1128	1517.7545	2991.1848	2995.6903	3027.4212	3038.7013	3043.5067	3057.7317	3069.2319	3076.0049	3091.5966	3093.1238	3109.1363	3120.7625	3809.36	3811.5367
CC1(O)CCCC1CO	C[C@@]1(O)CCC[C@H]1CO	
InChI=1S/C7H14O2/c1-7(9)4-2-3-6(7)5-8/h6,8-9H,2-5H2,1H3	InChI=1S/C7H14O2/c1-7(9)4-2-3-6(7)5-8/h6,8-9H,2-5H2,1H3/t6-,7+/m0/s1
