14
gdb 132861	3.04102	1.44841	0.98711	3.7517	70.91	-0.2309	-0.0645	0.1664	1116.5277	0.100285	-477.998545	-477.990893	-477.989948	-478.030911	28.453	
C	 0.0334868632	 1.5173527319	 0.2186265444	-0.467309
C	-0.0313710296	 0.0400230251	-0.0201616251	 0.234596
C	-1.1683977499	-0.6704875478	 0.0270007273	-0.014524
O	-1.2046543479	-2.0171435099	-0.1939695073	-0.223845
C	-0.0489911509	-2.7079324848	-0.4802243166	 0.281911
N	-0.0179066022	-3.9537960026	-0.6948770648	-0.51342
C	 1.1484354951	-1.8509221362	-0.5112146678	 0.2811
F	 2.2674015417	-2.4892174699	-0.7825266716	-0.030759
N	 1.1792640813	-0.6002717189	-0.305157873	-0.336754
H	 0.6953399391	 1.7413966651	 1.0619405995	 0.144032
H	 0.4435127691	 2.0307413334	-0.6575471385	 0.144027
H	-0.9553855042	 1.9299022271	 0.4329768232	 0.125289
H	-2.1516442305	-0.2731566983	 0.237668606	 0.141143
H	-0.9528505742	-4.3584430042	-0.6260419857	 0.234513
83.2211	170.0509	211.4476	286.9562	327.1699	329.8132	427.5407	470.6004	540.745	571.8121	602.8498	666.372	778.1464	820.732	840.0624	875.3876	985.1062	995.3487	1052.4027	1066.9185	1171.7711	1232.2334	1299.517	1357.0051	1387.8188	1420.5135	1470.5821	1490.6404	1664.15	1702.399	1741.4303	3037.3644	3094.8921	3125.6538	3235.401	3485.7907
CC1=COC(=N)C(F)=N1	CC1=COC(=C(F)[N]1)[NH]	
InChI=1S/C5H5FN2O/c1-3-2-9-5(7)4(6)8-3/h2,7H,1H3	InChI=1S/C5H5FN2O/c1-3-2-9-5(7)4(6)8-3/h2,7H,1H3
