15
gdb 44320	3.52514	1.89345	1.45831	4.5213	68.54	-0.2549	0.0042	0.2591	864.0922	0.114762	-420.563024	-420.557236	-420.556292	-420.593034	24.183	
O	-0.0609358646	 0.0736385117	-0.2055762298	-0.348866
C	 0.0237170765	 1.2488541447	-0.0227239587	 0.409249
O	-1.0662024347	 2.1049378327	 0.0571559824	-0.271765
C	-0.4944045045	 3.4367357142	 0.2865065612	 0.07338
C	 0.7457771786	 3.5262134531	-0.6078381739	-0.06198
C	 1.7742295109	 3.979371979	 0.4744474866	-0.111929
C	 2.6207050075	 2.6709607836	 0.3144775992	-0.344132
C	 1.1528099423	 2.2216118647	 0.1778760009	 0.103895
C	 0.6583635656	 3.2393674054	 1.2754761571	-0.061968
H	-1.3099270031	 4.1541920137	 0.3579378976	 0.095913
H	 0.8150702641	 3.6401815406	-1.6895092022	 0.097528
H	 2.1408037214	 4.9911249459	 0.6455594086	 0.088929
H	 3.2421986711	 2.5910094219	-0.5808594585	 0.117106
H	 3.159595259	 2.3200676133	 1.1980767289	 0.117109
H	 0.6278710798	 3.0258722255	 2.3437890707	 0.097529
180.1463	320.6394	369.0265	450.3747	547.9898	648.4417	705.2204	711.9062	790.3812	800.9412	860.8076	878.3848	878.4257	893.3669	906.3175	962.1776	994.7522	1001.38	1021.724	1057.8037	1098.4643	1131.7935	1142.353	1143.2455	1188.8963	1207.4159	1216.0422	1226.5202	1288.1755	1300.0525	1348.063	1507.0477	1906.9827	3060.956	3113.0279	3123.25	3124.5291	3125.3686	3142.3203
O=C1OC2C3C4CC13C24	O=C1O[C@@H]2[C@H]3[C@@H]4C[C@]13[C@H]24	
InChI=1S/C7H6O2/c8-6-7-1-2-3(7)5(9-6)4(2)7/h2-5H,1H2	InChI=1S/C7H6O2/c8-6-7-1-2-3(7)5(9-6)4(2)7/h2-5H,1H2/t2-,3+,4-,5+,7-
