17
gdb 90586	3.47914	1.27494	1.01872	2.4215	75.98	-0.2394	-0.0197	0.2197	1145.8561	0.135696	-421.816614	-421.808766	-421.807822	-421.84917	30.182	
O	 0.1036570438	 1.4086023019	-0.2020006528	-0.431501
C	-0.0485654826	 0.0101064703	-0.0505172614	-0.001364
C	 0.2009067327	-0.4843199208	 1.4324951484	-0.276133
C	-1.3433073578	-0.3587389862	 1.6953319711	-0.160965
C	-1.4920087778	-0.3618733528	 0.2024521567	 0.307894
C	-2.4290018396	-1.1940007702	-0.2512999989	-0.230235
C	-3.2132231022	-1.76719504	 0.912174131	-0.355769
C	-2.2725799552	-1.5043081247	 2.1286401867	 0.365073
O	-2.2784711991	-2.1051626129	 3.1666871673	-0.294237
H	 1.0446038786	 1.6080731758	-0.1533945667	 0.286671
H	 0.4717586203	-0.5376587997	-0.8472872285	 0.075461
H	 0.5518535587	-1.5176338362	 1.4772545103	 0.118191
H	 0.8514226372	 0.1592052234	 2.0298374188	 0.107709
H	-1.5994046896	 0.562680401	 2.22722622	 0.113459
H	-2.5352152128	-1.5522091283	-1.2688892192	 0.105208
H	-4.1748206747	-1.2680124974	 1.0975120283	 0.138153
H	-3.4314382299	-2.835974823	 0.815205909	 0.132383
73.4696	150.9334	177.9994	295.9683	319.9106	344.4582	428.1478	455.5712	545.5359	621.322	696.2724	713.9566	775.7739	817.5884	824.3309	895.9154	910.0297	955.7436	972.5342	1004.6868	1057.6685	1092.9056	1116.474	1142.2807	1158.8956	1176.2906	1190.3456	1226.5497	1260.3257	1268.2497	1302.3743	1320.5202	1412.0532	1449.4896	1461.6704	1717.6955	1857.7064	3013.7478	3016.1569	3063.0212	3065.5372	3078.2391	3130.5966	3195.6583	3808.8449
OC1CC2C1=CCC2=O	O[C@H]1C[C@H]2[C]1[CH]CC2=O	
InChI=1S/C7H8O2/c8-6-2-1-4-5(6)3-7(4)9/h1,5,7,9H,2-3H2	InChI=1S/C7H8O2/c8-6-2-1-4-5(6)3-7(4)9/h1,5,7,9H,2-3H2/t5-,7-/m0/s1
