21
gdb 71061	2.35603	1.71072	1.53262	1.0114	90.25	-0.2023	-0.0265	0.1758	1037.7257	0.181877	-349.867072	-349.858624	-349.857679	-349.89933	33.652	
C	-0.1634606774	 1.3936915383	-0.0802688496	-0.485361
C	-0.0292520343	-0.1092004807	-0.058653477	 0.270521
C	 0.6750309537	-0.897044576	-1.2317084648	-0.312344
C	-0.0731814954	-2.078377445	-0.6072443444	 0.005113
C	 0.595915293	-2.7962561595	 0.3169414533	-0.105582
C	 0.290734186	-2.2389115438	 1.7041117778	-0.267467
C	-0.3517209317	-0.9010174287	 1.289437442	-0.14058
C	-1.121851471	-1.143230204	 0.0386619923	 0.274172
C	-2.5939823514	-1.0789305312	-0.2375742117	-0.517129
H	 0.7825173676	 1.8837670338	 0.1776644207	 0.12109
H	-0.4569980041	 1.7455489737	-1.0764474761	 0.116078
H	-0.9200465161	 1.7415376688	 0.6304686037	 0.11855
H	 0.292958068	-0.5067257377	-2.1838011447	 0.097536
H	 1.7669084768	-0.9666451305	-1.2693357375	 0.094775
H	 1.5691037343	-3.2355664448	 0.1130017696	 0.091671
H	-0.3903422194	-2.8092645356	 2.3534507512	 0.104352
H	 1.2371778415	-2.1419543903	 2.2509017375	 0.105853
H	-0.7605922507	-0.2447136582	 2.0573202146	 0.069638
H	-3.0438230889	-0.2002832229	 0.2368669593	 0.116645
H	-2.8001142269	-1.0216040836	-1.312531436	 0.119179
H	-3.1111241437	-1.9648825222	 0.1485717997	 0.123287
164.8014	179.142	192.6526	203.5633	269.8034	273.9031	305.0999	426.73	497.5654	553.1702	598.3609	631.3774	699.8591	762.8722	794.0975	840.9863	872.0495	904.6536	920.0018	967.334	986.4829	1013.685	1018.1335	1041.0376	1069.0038	1101.5442	1117.0706	1144.7911	1169.3689	1191.6466	1201.8002	1251.5915	1278.5603	1293.9603	1300.9645	1406.0381	1413.5813	1453.0738	1474.5536	1482.5292	1488.236	1494.3977	1498.1507	1507.1891	1595.3125	2989.3376	3011.6028	3020.1073	3023.3328	3042.3977	3077.0753	3079.1556	3081.4289	3092.5676	3094.9548	3117.3209	3154.9831
CC12CC3=CCC1C23C	C[C@@]12C[C]3[CH]C[C@@H]1[C@@]23C	
InChI=1S/C9H12/c1-8-5-6-3-4-7(8)9(6,8)2/h3,7H,4-5H2,1-2H3	InChI=1S/C9H12/c1-8-5-6-3-4-7(8)9(6,8)2/h3,7H,4-5H2,1-2H3/t7-,8+,9-/m0/s1
