15
gdb 67637	2.44624	1.99676	1.62488	1.2973	62.68	-0.2156	0.0634	0.279	869.0689	0.111933	-457.679725	-457.67273	-457.671786	-457.710682	28.459	
O	-0.1025544025	 1.3829786399	-0.0731793266	-0.457446
C	 0.0112297274	 0.0152824061	-0.0668544686	 0.301267
C	 0.9449430145	-0.8522185505	-0.9500783984	-0.211496
C	 1.1076115066	-2.1065838357	-0.1127809928	 0.07605
O	 0.8180458914	-1.8802122193	 1.2431607413	-0.229067
C	-0.1839501205	-0.9048609935	 1.1370944311	-0.113251
C	-1.048416431	-1.0779837708	-0.1106982218	 0.301258
O	-2.4177068697	-1.0056467772	-0.1689745258	-0.457445
C	-0.1167687874	-1.9475915619	-0.9940335595	-0.211496
H	 0.5371330815	 1.7484211751	 0.5490775271	 0.290467
H	 1.6193704887	-0.5051545647	-1.7200264996	 0.099178
H	 1.8787047003	-2.8472033036	-0.2809273881	 0.110359
H	-0.5964187838	-0.5424862379	 2.0700226286	 0.111972
H	-2.7871066298	-1.6811761281	 0.4116741388	 0.29047
H	-0.4109438456	-2.5998123577	-1.8040919357	 0.099181
175.5065	253.438	278.8901	281.2635	364.6347	374.6116	541.9976	592.6664	617.8863	707.9914	748.5572	753.5672	759.9222	769.421	828.0975	893.9788	909.799	963.3272	972.0374	992.2551	1039.3276	1052.541	1063.4923	1098.1466	1180.4893	1183.3373	1225.372	1242.1169	1299.5213	1302.3591	1362.4478	1365.2519	1519.6776	3206.5339	3213.0917	3213.2956	3224.4987	3780.8182	3780.935
OC12C3C4OC1C2(O)C34	O[C@@]12[C@H]3[C@H]4O[C@@H]1[C@]2(O)[C@@H]34	
InChI=1S/C6H6O3/c7-5-1-2-3(1)9-4(5)6(2,5)8/h1-4,7-8H	InChI=1S/C6H6O3/c7-5-1-2-3(1)9-4(5)6(2,5)8/h1-4,7-8H/t1-,2+,3-,4+,5+,6-
