20
gdb 82172	2.6316	1.62494	1.31235	1.2272	77.85	-0.228	0.0735	0.3015	1052.7234	0.171522	-403.11306	-403.104932	-403.103988	-403.145095	32.888	
C	-0.0481986291	 1.572926112	-0.0147972728	-0.405286
C	 0.0295269477	 0.0486655947	-0.0391693992	 0.038749
C	 0.7415640672	-0.5315347552	-1.2636265697	-0.100582
C	 0.5928297066	-2.0294772873	-1.4846324288	-0.369079
C	 1.8092394588	-1.4801148038	-0.7915302689	 0.399626
O	 3.0483348208	-1.5037064023	-1.4350927282	-0.470022
C	 1.7687354289	-1.4425209597	 0.7144949392	-0.104843
C	 2.13129312	-0.1323126801	 1.303470953	-0.25255
N	 0.7163244042	-0.5102920849	 1.1655959098	-0.101572
H	 0.9378044948	 2.0347675397	-0.1251639661	 0.118052
H	-0.6803095178	 1.9329984298	-0.8325083955	 0.116867
H	-0.4821216017	 1.9149989977	 0.929168194	 0.126077
H	-0.9956895902	-0.3401996576	 0.0096332169	 0.081884
H	 0.9214045324	 0.0916951178	-2.1321608881	 0.094574
H	-0.1533726906	-2.5687720692	-0.907657038	 0.115048
H	 0.7392376694	-2.3839060091	-2.4993166152	 0.112245
H	 3.3632182205	-2.4139684079	-1.442771909	 0.28335
H	 1.8782476486	-2.3657868892	 1.2796769184	 0.083592
H	 2.4801470146	-0.0697660414	 2.3298092666	 0.113005
H	 2.5555630848	 0.6080383862	 0.6303498214	 0.120865
128.7933	207.6987	229.8696	265.5601	283.5512	326.7705	375.9026	418.7184	474.1681	525.4364	591.5194	672.0969	733.4203	765.8073	806.3108	871.18	892.3011	939.1342	946.3751	962.4522	1005.7185	1033.4552	1049.1287	1056.414	1087.6111	1096.0328	1106.9504	1137.3049	1152.4136	1166.7852	1233.9618	1258.0088	1270.662	1315.9774	1337.6583	1366.9161	1388.2181	1402.9555	1408.7331	1479.0617	1491.4468	1497.8591	1504.4738	3013.6005	3040.3615	3108.2955	3112.1135	3117.1128	3118.2873	3125.4182	3177.5679	3197.2176	3213.8568	3800.9522
CC1C2CC2(O)C2CN12	C[C@H]1[C@@H]2C[C@]2(O)[C@H]2CN12	
InChI=1S/C7H11NO/c1-4-5-2-7(5,9)6-3-8(4)6/h4-6,9H,2-3H2,1H3	InChI=1S/C7H11NO/c1-4-5-2-7(5,9)6-3-8(4)6/h4-6,9H,2-3H2,1H3/t4-,5-,6+,7+,8?/m0/s1
