19
gdb 103517	2.85202	1.3871	1.3299	2.7722	75.94	-0.2492	-0.008	0.2412	1079.5778	0.157613	-422.993497	-422.984779	-422.983835	-423.02702	32.976	
C	-0.0850086299	 1.3788691631	-0.1028619128	-0.243392
O	 0.0529099017	-0.0221049728	-0.0161618495	-0.277081
C	 0.6838087009	-0.5400033519	 1.1499849396	 0.35205
C	 2.1535289793	-0.1043785496	 1.2473789417	-0.448053
C	-0.0744763262	-0.2550218543	 2.4500803191	-0.143433
C	-0.4245087265	-1.3699257309	 3.0923993611	-0.088422
C	-0.0377765021	-2.5713089547	 2.2879272088	-0.016426
O	-0.709514246	-2.6120912947	 1.0078552553	-0.251557
C	 0.6046679754	-2.0719640924	 1.0664962352	 0.00113
H	 0.880738649	 1.9038551571	-0.1156779868	 0.104512
H	-0.5959635394	 1.5785361388	-1.0479862095	 0.131711
H	-0.6954232621	 1.7926138836	 0.7121337154	 0.106556
H	 2.2481322402	 0.9594202998	 1.4816056122	 0.120145
H	 2.6615658659	-0.6623911767	 2.0393611523	 0.12557
H	 2.6622035084	-0.2984298071	 0.2971268755	 0.124869
H	-0.292009838	 0.7535845355	 2.7814471575	 0.104174
H	-0.9524458879	-1.4251453522	 4.0368760852	 0.106069
H	 0.1754447385	-3.5367972552	 2.7358016127	 0.098555
H	 1.3683467187	-2.6133178754	 0.5134168169	 0.093022
47.9629	135.4772	189.5325	203.719	244.936	305.5482	357.4487	376.0768	426.7899	498.9753	585.8504	628.9659	738.3262	770.3036	824.7077	851.0456	873.8869	902.345	940.496	965.7512	987.5026	1037.168	1087.1196	1108.1598	1111.6367	1132.2215	1178.4005	1180.4826	1219.853	1257.2752	1261.4513	1303.8885	1374.0146	1395.0236	1420.7583	1475.7057	1485.3973	1490.3473	1503.5508	1509.4975	1666.3598	2991.2618	3035.9432	3042.1294	3111.9725	3113.0525	3116.8079	3142.1505	3167.4037	3192.7243	3216.8012
COC1(C)C=CC2OC12	CO[C@@]1(C)C=C[C@H]2O[C@@H]12	
InChI=1S/C7H10O2/c1-7(8-2)4-3-5-6(7)9-5/h3-6H,1-2H3	InChI=1S/C7H10O2/c1-7(8-2)4-3-5-6(7)9-5/h3-6H,1-2H3/t5-,6-,7+/m1/s1
