19
gdb 112193	2.48957	1.29108	0.94769	5.1317	77.33	-0.238	0.0224	0.2604	1277.6617	0.159091	-419.201203	-419.192083	-419.191139	-419.235374	33.506	
C	 0.1198649969	 1.5580384603	 0.1219899099	-0.387824
C	-0.1412255589	 0.0601606715	-0.0667893232	-0.182872
C	 0.6259219432	-0.5376662466	-1.239819442	-0.015875
N	 2.0885910403	-0.6237617908	-1.0717645079	-0.369524
C	 2.1915745008	-1.9870243536	-1.2775867454	 0.421267
O	 3.1236991828	-2.7399571401	-1.3349966727	-0.360865
C	 0.6678110439	-2.0786071492	-1.3848953602	 0.151673
C	-0.2637700962	-3.1024144823	-0.8651365155	-0.297595
N	-0.0492500324	-2.9394331476	-2.3141814071	-0.354353
H	 1.1769750046	 1.7507773483	 0.334055279	 0.118095
H	-0.1514490578	 2.1262077948	-0.774732243	 0.118164
H	-0.4610900227	 1.9572047533	 0.9583097763	 0.122674
H	 0.1266124353	-0.4872606703	 0.8440385741	 0.107314
H	-1.2132902107	-0.1066306393	-0.236096477	 0.098289
H	 0.3424042113	-0.038759595	-2.1779162485	 0.084377
H	 2.7983208353	 0.0925531455	-1.0700929866	 0.251597
H	 0.1356347281	-4.0218544926	-0.4474018551	 0.141022
H	-1.1989367413	-2.7616983933	-0.4276260289	 0.11789
H	-0.8253908626	-2.4300860929	-2.7318295861	 0.236547
72.6036	99.5291	142.2994	205.9727	223.981	232.4497	288.8163	336.0523	380.46	496.9721	567.599	634.8032	728.7744	739.432	801.0587	841.7819	904.1204	928.8923	947.2064	972.1703	984.228	1025.7811	1068.0783	1097.0023	1128.6911	1152.9768	1169.0799	1214.7647	1258.8672	1286.33	1294.0267	1343.5314	1366.9885	1403.7606	1413.3412	1425.5481	1477.6825	1500.0202	1506.0643	1511.4502	1902.4598	2998.7989	3022.1829	3032.9354	3067.9422	3100.9034	3108.965	3109.6661	3199.1559	3489.5812	3627.2532
CCC1NC(=O)C11CN1	CC[C@H]1NC(=O)[C@]21CN2	
InChI=1S/C6H10N2O/c1-2-4-6(3-7-6)5(9)8-4/h4,7H,2-3H2,1H3,(H,8,9)	InChI=1S/C6H10N2O/c1-2-4-6(3-7-6)5(9)8-4/h4,7H,2-3H2,1H3,(H,8,9)/t4-,6-/m1/s1
