13
gdb 20438	5.02972	2.27456	1.60177	4.1923	58.01	-0.2369	0.0197	0.2566	737.3829	0.099903	-394.795657	-394.789885	-394.788941	-394.825906	20.969	
C	 0.0589488428	 1.3802570669	-0.1066867678	-0.106386
C	 1.5539311685	 1.8019393728	 0.0778768434	-0.198758
N	 2.0404386523	 0.5898480931	 0.6911303454	 0.002903
N	 3.2358071952	 0.132612265	 1.1647707113	-0.278105
C	 2.9458265433	-1.1466468981	 1.3577703066	 0.032479
N	 1.6722515494	-1.5538472527	 1.0244036629	-0.387848
C	 1.1687027425	-0.4223417423	 0.6030265839	 0.50482
O	-0.0072556475	-0.0652472265	 0.0660508147	-0.270464
H	-0.5779525316	 1.8373895946	 0.6555762301	 0.141143
H	-0.3325653571	 1.6155009332	-1.0965231473	 0.144069
H	 2.0609118976	 2.0039202763	-0.8720129655	 0.141205
H	 1.656838547	 2.6741843363	 0.7274960539	 0.145456
H	 3.6773301877	-1.8297881786	 1.7631960683	 0.129485
108.9055	148.173	310.1454	470.333	651.6067	659.8706	742.6731	758.605	798.4954	862.4558	897.6331	941.6909	979.6694	1011.7899	1132.585	1147.5201	1196.104	1213.1258	1245.9954	1277.7087	1294.0781	1345.1079	1379.4333	1450.7431	1504.8259	1526.5791	1561.8669	1621.0603	3044.4401	3068.4708	3101.7029	3139.1951	3259.9695
C1CN2N=CN=C2O1	C1Cn2ncnc2O1	
InChI=1S/C4H5N3O/c1-2-8-4-5-3-6-7(1)4/h3H,1-2H2	InChI=1S/C4H5N3O/c1-2-8-4-5-3-6-7(1)4/h3H,1-2H2
