17
gdb 23005	2.56296	1.16893	0.97279	1.1399	80.83	-0.2319	-0.0347	0.1972	1266.3793	0.133488	-417.902385	-417.892902	-417.891958	-417.936883	34.791	
C	 0.225729386	 1.5187154393	-0.4006749152	-0.407819
C	 0.0042096502	 0.0885019216	 0.0259757832	 0.00098
N	 1.1574732406	-0.816954623	 0.0323326108	-0.340005
C	 0.4923205712	-0.5155921156	 1.3085226447	-0.099193
C	 1.2707008106	 0.1908404361	 2.3683182294	 0.181114
N	 0.8198798628	 0.0270651091	 3.5659833865	-0.179883
O	 1.5659984121	 0.7009681876	 4.5199296711	-0.380347
C	 2.4366226734	 0.948901544	 2.060543199	 0.37324
C	 3.435747327	 1.5795750018	 1.8315468828	-0.465297
H	 1.1906234918	 1.8907510868	-0.0550709933	 0.144628
H	 0.201668968	 1.5938937669	-1.4932829978	 0.118786
H	-0.5634012987	 2.1649426095	-0.0015140597	 0.118054
H	-0.9428685154	-0.3328111343	-0.3132565508	 0.086733
H	 0.9065960862	-1.74824376	-0.2866264635	 0.235745
H	-0.159704932	-1.267239633	 1.7464402158	 0.098208
H	 1.1132383729	 0.4665366915	 5.337846514	 0.310525
H	 4.3174856632	 2.1320293318	 1.6180517632	 0.204532
48.5576	133.4294	139.9813	185.131	208.7716	271.4001	274.1553	371.4316	409.9999	440.5678	453.5689	497.9175	633.4426	644.7422	666.1798	726.9767	764.8385	783.6438	859.2445	939.3964	991.2906	1019.0195	1046.3176	1070.1097	1136.656	1172.0709	1242.4331	1252.4262	1312.467	1371.7778	1405.6524	1433.0669	1465.7331	1493.34	1502.6502	1658.6196	2222.9368	3038.5469	3094.6926	3096.3082	3141.411	3152.6471	3500.0079	3512.2607	3808.7958
CC1NC1C(=NO)C#C	C[C@H]1N[C@H]1C(=NO)C#C	
InChI=1S/C6H8N2O/c1-3-5(8-9)6-4(2)7-6/h1,4,6-7,9H,2H3	InChI=1S/C6H8N2O/c1-3-5(8-9)6-4(2)7-6/h1,4,6-7,9H,2H3/t4-,6-/m1/s1
