18
gdb 7518	4.82234	1.17804	1.10422	4.2978	72.63	-0.2575	0.0242	0.2817	1121.9351	0.152678	-343.984797	-343.97588	-343.974936	-344.018284	32.219	
C	-0.0049768749	 1.4263697793	-0.3083497546	-0.401887
C	 0.0583989195	-0.0313438111	 0.0797714716	-0.043515
N	 1.3814627459	-0.6825718238	 0.0806748442	-0.356794
C	 0.6476418424	-0.552902729	 1.3489259195	 0.324771
C	 1.2785245951	 0.3453568216	 2.3922939253	-0.455952
C	-0.011760241	-1.8098013414	 1.9239785601	-0.416273
C	 0.948122417	-2.7186688322	 2.5562447928	 0.271114
N	 1.7133228601	-3.4306246493	 3.0490261331	-0.308391
H	 0.8568391854	 1.9802078032	 0.0682055255	 0.131729
H	-0.0122270936	 1.5256220818	-1.3989116374	 0.126978
H	-0.9172469453	 1.8936806019	 0.0779343837	 0.118303
H	-0.771178981	-0.621319948	-0.3122982995	 0.079098
H	 1.3308389207	-1.6302754975	-0.2849479717	 0.232242
H	 1.8026408549	 1.1785093225	 1.9236678469	 0.136531
H	 0.5216501027	 0.7460360967	 3.0760724629	 0.115975
H	 2.0084806437	-0.2150390366	 2.9858042729	 0.144821
H	-0.7647811637	-1.5326425461	 2.6719924002	 0.155577
H	-0.5375818579	-2.3598422122	 1.1354943145	 0.145673
60.0895	122.3519	168.135	173.8635	230.8374	258.65	345.7085	388.3597	392.8786	426.5859	471.6441	573.5708	726.2875	785.1284	864.7275	908.4606	927.1823	966.8528	985.967	1029.187	1082.0997	1093.3905	1109.9895	1147.4062	1215.0164	1238.5831	1270.6571	1332.4312	1369.9937	1413.9873	1424.5551	1455.6333	1458.452	1480.8905	1489.3864	1499.623	1511.4573	2360.7107	3034.5657	3037.755	3040.1573	3076.4997	3090.0103	3098.4324	3099.5373	3134.7413	3148.5783	3496.9084
CC1NC1(C)CC#N	C[C@H]1N[C@]1(C)CC#N	
InChI=1S/C6H10N2/c1-5-6(2,8-5)3-4-7/h5,8H,3H2,1-2H3	InChI=1S/C6H10N2/c1-5-6(2,8-5)3-4-7/h5,8H,3H2,1-2H3/t5-,6-/m1/s1
