20
gdb 40971	3.31722	1.29147	1.15366	2.6008	74.52	-0.2196	0.0653	0.2849	1126.8479	0.173372	-440.250002	-440.242137	-440.241193	-440.282597	30.56	
C	 0.0366536421	 1.5302000483	-0.0705946276	-0.130516
O	 1.2925137927	 1.5678532222	 0.6341397263	-0.273874
C	 1.4714948622	 0.143428414	 0.472408967	-0.091772
C	 0.0313723901	-0.0102089208	-0.0742401215	 0.250827
C	-0.9438655608	-0.6354362584	 0.9243434805	-0.134835
O	-0.7616321703	-2.0384825481	 1.0067282028	-0.246148
C	-0.953216852	-2.665958436	-0.252189161	-0.070168
C	 0.0124653234	-2.0987939618	-1.2939936495	-0.177472
N	-0.0586594436	-0.6339120465	-1.3945409958	-0.344505
H	-0.766974932	 2.0268933075	 0.4881928501	 0.097779
H	 0.1099987475	 1.9653553787	-1.0759894491	 0.099571
H	 2.2439016059	-0.0917274895	-0.2697862919	 0.101819
H	 1.6980176387	-0.355782086	 1.4204384223	 0.108481
H	-0.7900732031	-0.2398331514	 1.9331727138	 0.114798
H	-1.9796010667	-0.4005373414	 0.6159565733	 0.075834
H	-0.7900900769	-3.7366736335	-0.0943452993	 0.108465
H	-1.995233631	-2.5216264736	-0.5902906526	 0.079149
H	 1.0383364291	-2.3684580124	-1.0131174922	 0.116667
H	-0.1826904278	-2.5335749632	-2.2799785619	 0.103333
H	-0.9486416275	-0.3751073181	-1.8169172038	 0.212566
82.3056	115.1622	197.8399	293.2247	307.9658	391.3606	419.6037	464.0906	481.3668	570.2971	713.6011	802.45	838.2486	862.9746	897.8011	911.9307	947.5773	981.0147	990.3557	1017.3359	1033.607	1074.0717	1103.701	1133.8301	1160.4424	1164.5179	1172.8054	1223.3796	1247.0288	1262.9247	1306.0296	1310.6842	1329.8467	1371.6937	1382.9917	1387.9349	1414.7151	1469.1923	1476.3	1487.5671	1492.8698	1502.8298	1528.1532	2934.4205	2947.8919	3002.6327	3023.4732	3029.901	3051.3738	3075.3551	3079.2246	3081.4245	3082.6814	3469.4137
C1OCC11COCCN1	C1OCC21COCCN2	
InChI=1S/C6H11NO2/c1-2-8-3-6(7-1)4-9-5-6/h7H,1-5H2	InChI=1S/C6H11NO2/c1-2-8-3-6(7-1)4-9-5-6/h7H,1-5H2
