17
gdb 54080	1.84631	1.45355	0.89349	3.2173	72.45	-0.2551	-0.0438	0.2113	1278.2529	0.133708	-455.179417	-455.169791	-455.168847	-455.215253	33.271	
C	-0.0169048306	 1.5009334766	-0.227468346	-0.493972
C	 0.0886479543	 0.0060144188	-0.0280171999	 0.362886
N	 0.2418834496	-0.5867583524	 1.0878767506	-0.490296
N	-0.0229016096	-0.7782603538	-1.2014490231	-0.121836
C	 0.0872336073	-0.2034892486	-2.5365717675	-0.270757
C	 1.5182594925	 0.1793446878	-2.8831260403	 0.157871
O	 1.8215992774	 1.1857720537	-3.4674946902	-0.234608
C	-0.2398256439	-2.1524747743	-1.1127084763	 0.166174
O	-0.3153354615	-2.8741785095	-2.0804854152	-0.322986
H	 0.7450986417	 1.8841109433	-0.9124155731	 0.166589
H	-0.9927309258	 1.7719073172	-0.6450036798	 0.153673
H	 0.1001919032	 2.0042463561	 0.7332752862	 0.136488
H	 0.2605037871	 0.0856140032	 1.8510300375	 0.227543
H	-0.2176838059	-0.9999657779	-3.2260046566	 0.177302
H	-0.5684302964	 0.6574301755	-2.6792313136	 0.136287
H	 2.2779534703	-0.5623981115	-2.5490986176	 0.100875
H	-0.3408460497	-2.4857665142	-0.0736977152	 0.148765
44.2164	65.8144	75.3524	150.6483	217.4974	221.8312	277.6281	345.2818	404.5878	425.0657	461.6275	558.2299	594.7542	632.5135	734.4603	847.4439	899.1767	975.9944	1038.5931	1051.3769	1060.9183	1067.9588	1081.3111	1168.2829	1267.9839	1302.9206	1337.9687	1395.964	1413.4148	1414.8833	1428.9301	1449.8241	1482.8223	1489.6392	1715.5003	1791.6798	1835.0071	2891.9853	3044.6167	3049.5493	3088.874	3109.8289	3121.0888	3143.2282	3514.8991
CC(=N)N(CC=O)C=O	CC(=N)N(CC=O)C=O	
InChI=1S/C5H8N2O2/c1-5(6)7(4-9)2-3-8/h3-4,6H,2H2,1H3	InChI=1S/C5H8N2O2/c1-5(6)7(4-9)2-3-8/h3-4,6H,2H2,1H3
