20
gdb 118798	2.16537	1.10121	0.82518	4.0374	80.65	-0.2916	0.0001	0.2917	1459.7481	0.168395	-403.154308	-403.144127	-403.143183	-403.190135	36.309	
C	-0.0954172902	 1.5804822784	-0.142841293	-0.384646
C	-0.1930810239	 0.0581087679	-0.2699375991	-0.170532
C	 1.0609361635	-0.5547468952	-0.913006812	-0.260281
C	 0.9512180418	-2.0530409453	-1.1268456575	 0.39588
C	 0.9248113021	-2.9318810305	 0.1054490543	-0.464894
O	 0.0365118262	-2.4505539464	-2.1624472271	-0.268456
C	 1.4287665501	-2.667657138	-2.3938126903	-0.167627
C	 2.048620944	-1.8875714001	-3.4435042761	 0.308693
N	 2.5690471815	-1.2836569528	-4.2807220869	-0.334707
H	 0.7557833883	 1.8740031687	 0.4815701484	 0.115755
H	 0.0357644193	 2.0510553338	-1.1231251123	 0.124185
H	-0.999982091	 1.9975812003	 0.3096635368	 0.116443
H	-0.3589148471	-0.3790929075	 0.7219359967	 0.098786
H	-1.0641865707	-0.2102798614	-0.8788492458	 0.118591
H	 1.2433579629	-0.0684948353	-1.876594561	 0.128398
H	 1.9398570256	-0.3532982573	-0.286864288	 0.105669
H	 0.0719377188	-2.675925129	 0.740540881	 0.141694
H	 0.8365793848	-3.9856650113	-0.1688828613	 0.132929
H	 1.8374657012	-2.795696926	 0.6942248672	 0.132516
H	 1.7424003828	-3.710628823	-2.383256294	 0.131605
49.7182	81.733	110.1223	145.2029	190.7716	207.2493	247.647	304.3158	343.9493	357.3358	414.165	464.4483	587.5238	600.0147	732.247	743.6842	812.3512	873.5391	899.733	945.4394	978.8206	1008.3492	1047.8762	1062.537	1088.1088	1130.2614	1141.9977	1239.6633	1288.0711	1300.4832	1330.7167	1343.8052	1394.9392	1412.971	1414.7001	1437.2241	1471.3311	1487.578	1493.4315	1498.6322	1501.3244	1510.0062	2357.8226	3025.9761	3031.0244	3034.4647	3046.1254	3063.1432	3086.7569	3102.44	3107.6836	3115.3246	3123.1209	3128.965
CCCC1(C)OC1C#N	CCC[C@@]1(C)O[C@H]1C#N	
InChI=1S/C7H11NO/c1-3-4-7(2)6(5-8)9-7/h6H,3-4H2,1-2H3	InChI=1S/C7H11NO/c1-3-4-7(2)6(5-8)9-7/h6H,3-4H2,1-2H3/t6-,7+/m0/s1
