14
gdb 47630	2.9387	1.45856	1.00916	7.1735	71.02	-0.2887	-0.0848	0.2039	1100.1436	0.102234	-436.742055	-436.734534	-436.73359	-436.774391	27.491	
O	 0.0019131096	 0.0331266814	 0.3618786121	-0.307148
C	-0.0067905703	 1.1845426658	 0.0272459358	 0.416116
O	-1.1740457851	 1.8153639294	-0.2391951677	-0.231797
C	-1.144482954	 3.0832856375	-0.9132961778	-0.086884
C	-0.1504750139	 4.0460182756	-0.2764128821	-0.279627
C	 1.1715254709	 3.3623553282	-0.1246103165	-0.125424
C	 1.2356694613	 2.0225746426	-0.041255051	-0.015391
C	 2.4812894625	 1.3345685894	 0.0908639132	 0.251507
N	 3.5057239298	 0.8052365827	 0.1821868686	-0.320606
H	-0.884764087	 2.9171280247	-1.9661807579	 0.12901
H	-2.1676598182	 3.4590657957	-0.8645195112	 0.138375
H	-0.0531436474	 4.942706011	-0.897777429	 0.137447
H	-0.5062664814	 4.3855718799	 0.7067664825	 0.150988
H	 2.0781566333	 3.9568298061	-0.0676805391	 0.143434
91.1325	154.4644	171.086	261.503	323.4534	385.9368	442.3071	528.2182	531.5388	603.0995	618.9985	728.8239	802.6719	896.1065	911.3506	937.7497	1001.4328	1081.6062	1088.8667	1144.2146	1200.3832	1233.0648	1300.3038	1363.7909	1367.5936	1427.3831	1459.1618	1508.9133	1675.9069	1838.3255	2354.2407	3017.6055	3036.5355	3077.9736	3122.9136	3186.7157
O=C1OCCC=C1C#N	O=C1OCCC=C1C#N	
InChI=1S/C6H5NO2/c7-4-5-2-1-3-9-6(5)8/h2H,1,3H2	InChI=1S/C6H5NO2/c7-4-5-2-1-3-9-6(5)8/h2H,1,3H2
