13
gdb 42152	3.17699	0.74362	0.6048	3.3177	82.49	-0.2719	-0.0825	0.1894	1706.8788	0.084898	-382.193065	-382.183529	-382.182584	-382.229624	32.626	
O	 0.014684103	-0.1048756689	 0.0015156361	-0.265611
C	-0.002834008	 1.1104377907	 0.0057146159	 0.154902
C	 1.2097707566	 1.9051487439	 0.000404697	 0.290235
C	 2.2208273411	 2.5578320835	-0.0040611757	-0.473065
C	-1.2260779623	 1.8787101768	 0.0164720674	 0.095503
C	-2.2554963269	 2.5066208569	 0.0255127804	 0.028488
C	-3.5147787862	 3.2475070919	 0.0372584022	-0.500164
C	-3.3486496406	 4.7009798749	 0.0434019198	 0.312918
C	-3.2257420205	 5.8945241583	 0.0485386536	-0.42825
H	 3.1173622465	 3.1290526342	-0.0080314932	 0.221011
H	-4.1110605274	 2.9444623481	-0.834832646	 0.177874
H	-4.0999859532	 2.9357907015	 0.9137830413	 0.177891
H	-3.1127549221	 6.9505694681	 0.0530736112	 0.208267
16.8206	51.1955	127.5943	133.6174	215.8161	258.8634	315.4342	329.0923	388.6697	443.9186	561.4979	620.9888	633.6854	651.9908	661.751	706.6071	712.3351	773.4031	922.8228	925.9441	1010.3995	1222.7697	1227.8111	1332.8961	1439.0594	1721.7397	2217.2293	2251.7959	2343.1851	3011.1992	3036.7424	3494.01	3504.8655
O=C(C#C)C#CCC#C	O=C(C#C)C#CCC#C	
InChI=1S/C8H4O/c1-3-5-6-7-8(9)4-2/h1-2H,5H2	InChI=1S/C8H4O/c1-3-5-6-7-8(9)4-2/h1-2H,5H2
