21
gdb 77154	3.23466	1.01252	0.81943	2.8934	83.67	-0.2338	-0.0136	0.2202	1429.5649	0.181169	-387.092083	-387.082766	-387.081822	-387.126715	34.768	
C	-0.5301398384	 1.1910792844	-0.1614121353	-0.413042
C	 0.1457639962	-0.1442219539	 0.1129134191	-0.099014
C	 0.9891583217	-0.8684592014	-0.9954138268	 0.001594
C	 2.1072885716	-1.1686607799	 0.0569276547	-0.370998
C	 1.4127096047	-0.160370132	 0.9830983423	 0.386212
O	 1.7628843234	 0.4756153148	 1.9358994107	-0.30129
C	 0.3610101694	-2.0307131276	-1.7133538915	 0.0174
C	-0.4136375048	-1.8186918818	-2.9917419888	-0.272955
C	 0.920933575	-2.521439545	-3.0258670672	-0.274511
H	 0.1746913063	 1.9058325518	-0.5989301902	 0.11953
H	-1.3704857609	 1.0752002017	-0.8529848412	 0.121158
H	-0.9097161625	 1.6272637792	 0.7674872348	 0.13491
H	-0.5739163644	-0.8572513302	 0.5399864964	 0.09738
H	 1.3490048498	-0.1319318164	-1.7229817358	 0.072202
H	 2.0442498127	-2.1881819076	 0.4548772217	 0.125835
H	 3.1473535288	-0.9608818435	-0.2047994201	 0.126002
H	-0.0261018627	-2.8007830295	-1.0485340664	 0.078144
H	-1.3104739436	-2.4054254189	-3.156315534	 0.11339
H	-0.4643437975	-0.8107802148	-3.3908835337	 0.112563
H	 1.7650612782	-1.9855124137	-3.4477154365	 0.112098
H	 0.936856777	-3.5893247056	-3.2130625923	 0.113392
60.7687	76.9571	143.3466	186.4176	197.9461	228.3721	325.8693	350.7875	385.3327	478.3151	574.4001	651.6724	746.8907	754.8476	791.4491	824.9575	881.0196	897.2536	911.9221	947.1092	997.6807	1020.6703	1048.082	1058.2485	1078.7699	1084.476	1133.1802	1135.9802	1150.6	1193.476	1198.1967	1209.2926	1225.9461	1251.7594	1256.2177	1308.3628	1343.1254	1404.813	1430.9855	1445.4061	1470.4117	1494.2361	1494.7492	1506.5123	1886.3601	3011.9369	3034.9301	3041.0262	3048.8323	3103.7359	3110.7177	3114.0457	3120.9746	3129.5761	3134.6416	3207.7563	3222.7451
CC1C(CC1=O)C1CC1	C[C@H]1[C@@H](CC1=O)C1CC1	
InChI=1S/C8H12O/c1-5-7(4-8(5)9)6-2-3-6/h5-7H,2-4H2,1H3	InChI=1S/C8H12O/c1-5-7(4-8(5)9)6-2-3-6/h5-7H,2-4H2,1H3/t5-,7+/m0/s1
