21
gdb 112019	3.38861	1.26566	1.11565	1.5762	82.85	-0.2325	0.0047	0.2372	1190.3761	0.18422	-387.079153	-387.071127	-387.070183	-387.111708	31.951	
C	-0.0755364895	 1.5636846306	 0.0824645015	-0.39445
C	-0.0492108612	 0.0375858003	-0.038535504	-0.173158
C	 0.7273083416	-0.498794537	-1.2593201424	-0.024306
C	 2.19897754	-0.117638003	-1.2442106848	-0.072884
C	 3.1205648768	-1.0809920379	-1.2211263772	-0.066516
C	 2.5981694091	-2.5026729413	-1.2271840251	 0.046879
C	 1.5783436738	-2.6551442025	-2.3824212367	-0.255243
C	 0.6402423863	-2.0373729909	-1.3234356074	 0.074389
O	 1.4904917662	-2.5927299271	-0.2755217959	-0.295739
H	 0.9248329624	 1.9781874881	 0.240681965	 0.119106
H	-0.4900004006	 2.0284105446	-0.8197726205	 0.110541
H	-0.6949479895	 1.87553661	 0.929054432	 0.114445
H	 0.3861205682	-0.4075373775	 0.8627590546	 0.117663
H	-1.0806537454	-0.3340731323	-0.1032671343	 0.089462
H	 0.2604225451	-0.086099675	-2.167653935	 0.074123
H	 2.4666940005	 0.9344882079	-1.2451257162	 0.094713
H	 4.1873391783	-0.8833027966	-1.2222181297	 0.090301
H	 3.3549896937	-3.2704151735	-1.0560317296	 0.074531
H	 1.7655601975	-2.1150759348	-3.3121389999	 0.099546
H	 1.324576695	-3.6988418896	-2.5764770623	 0.106333
H	-0.3901311184	-2.3991551027	-1.2519459619	 0.070267
80.4488	136.4599	196.9571	246.318	338.7913	372.9717	381.8971	465.6502	555.9599	602.4125	714.7724	733.4274	763.2864	837.8387	858.0686	883.5064	924.5307	927.3354	942.5182	965.1384	970.8339	982.7857	1052.5846	1059.5102	1084.9292	1106.8001	1124.3622	1139.4189	1168.877	1207.712	1249.4414	1270.9322	1285.8006	1310.4448	1325.637	1335.0851	1360.5521	1375.7314	1402.8658	1413.246	1484.4341	1491.3716	1500.5644	1508.8195	1690.8041	2982.0781	3017.3766	3031.0604	3060.0531	3071.0895	3073.7182	3096.2737	3098.6187	3106.2002	3137.0269	3166.5824	3191.4766
CCC1C=CC2CC1O2	CC[C@H]1C=C[C@@H]2C[C@H]1O2	
InChI=1S/C8H12O/c1-2-6-3-4-7-5-8(6)9-7/h3-4,6-8H,2,5H2,1H3	InChI=1S/C8H12O/c1-2-6-3-4-7-5-8(6)9-7/h3-4,6-8H,2,5H2,1H3/t6-,7+,8+/m0/s1
