21
gdb 73933	2.65258	1.2396	0.92083	2.0018	88.14	-0.2125	0.0268	0.2393	1329.1006	0.182304	-387.087581	-387.078301	-387.077357	-387.122622	33.84	
C	 0.0758473379	 1.5272370769	-0.1293213726	-0.502613
C	 0.000737546	 0.0396618142	-0.0020669205	 0.154107
C	-1.0652648804	-0.7591201739	 0.1296285764	 0.229007
C	-0.5918374366	-2.1920035722	 0.2184115352	-0.165055
O	 0.8253755581	-2.1449899888	 0.1270332463	-0.264579
C	 1.2528156221	-0.7964917392	-0.0105063429	-0.139703
C	-2.4877010895	-0.3755550035	 0.1859146452	-0.098122
C	-3.5767359318	-1.2385618506	-0.4303333788	-0.27084
C	-3.4845309809	-1.1155807175	 1.0629676585	-0.270839
H	 0.5648751207	 1.8195320367	-1.0676974044	 0.127986
H	-0.9098471512	 1.997600125	-0.1070858304	 0.127936
H	 0.6732438567	 1.9637643276	 0.6816491528	 0.127983
H	-0.8841420634	-2.6732917669	 1.1659222937	 0.100186
H	-0.9929329397	-2.8183455353	-0.5950316809	 0.100185
H	 1.8266713953	-0.6773148339	-0.9455074536	 0.095964
H	 1.9355283863	-0.5322603166	 0.815215041	 0.095973
H	-2.6616365593	 0.6926817749	 0.1087561324	 0.080919
H	-4.3844660446	-0.7306852205	-0.9453895102	 0.116024
H	-3.2857091746	-2.1793563362	-0.8832052951	 0.119729
H	-3.131175742	-1.9728478208	 1.6243131151	 0.119733
H	-4.2283080292	-0.5222258692	 1.5829599327	 0.116018
36.6722	91.8485	133.1535	157.6751	178.3649	221.3591	279.2066	365.2895	438.5876	556.9882	571.2517	632.6001	782.8816	817.0868	822.1707	889.5367	908.4208	939.2928	959.6782	978.1403	1037.8458	1048.897	1057.5074	1076.5348	1077.7187	1092.9921	1125.1756	1130.4055	1177.1644	1200.4006	1206.0068	1232.2571	1244.6227	1298.1594	1374.5452	1394.4587	1407.6935	1420.0212	1469.2513	1478.4209	1490.1258	1501.3786	1517.6659	1531.4438	1742.6896	2950.1535	2962.5391	2965.0163	2975.7994	3016.1887	3057.9926	3116.7655	3137.2233	3141.5394	3157.8599	3215.8058	3231.7022
CC1=C(COC1)C1CC1	CC1=C(COC1)C1CC1	
InChI=1S/C8H12O/c1-6-4-9-5-8(6)7-2-3-7/h7H,2-5H2,1H3	InChI=1S/C8H12O/c1-6-4-9-5-8(6)7-2-3-7/h7H,2-5H2,1H3
