19
gdb 101467	3.61624	1.00367	0.83723	0.9347	73.63	-0.2327	0.0189	0.2516	1369.0033	0.158497	-460.153089	-460.143902	-460.142958	-460.187568	33.615	
O	-0.1154331832	 1.3906391374	-0.0630646388	-0.437053
C	 0.0165035598	-0.0251025873	 0.0669386573	-0.10891
C	-1.4023334478	-0.5821169047	 0.024106861	 0.13134
O	-2.061145774	-0.1469159702	-1.1527343673	-0.455315
C	-1.4195258259	-2.1158072082	 0.004369909	 0.075231
O	-0.7452470849	-2.6234373027	 1.1585198386	-0.28386
C	-1.6004400761	-3.5042574789	 1.8871018993	-0.115763
C	-2.9054293801	-3.4838934586	 1.1424224639	-0.101143
C	-2.8019749191	-2.7041152716	 0.0732348266	-0.089656
H	 0.7523266276	 1.7654072067	-0.2355520319	 0.293832
H	 0.5957143969	-0.4437282494	-0.7698785474	 0.090707
H	 0.5035397611	-0.3057442319	 1.0086315351	 0.112231
H	-1.9387180525	-0.2379697888	 0.9235303279	 0.071642
H	-1.8077525	 0.7786490923	-1.2606190803	 0.292279
H	-0.8895669761	-2.4413726167	-0.9068512148	 0.083477
H	-1.1546317507	-4.5111778687	 1.9261532394	 0.104418
H	-1.6964392965	-3.1530358993	 2.9259509019	 0.106645
H	-3.7763567421	-4.0420614551	 1.4617361594	 0.106145
H	-3.5617275163	-2.4814952344	-0.662726699	 0.123752
75.3333	78.6192	134.438	143.2297	247.022	276.7969	286.1181	378.8085	413.2423	467.6333	476.0429	583.0319	725.1652	769.7005	818.7605	902.0892	927.6225	941.1039	963.0216	989.3119	1046.7206	1063.7163	1080.1316	1081.7468	1115.1403	1127.9261	1134.8367	1196.3837	1216.6547	1248.509	1269.4407	1299.2053	1340.1419	1353.1935	1374.2917	1384.2031	1431.7714	1455.7807	1512.3731	1522.5094	1690.5586	2955.3727	2973.5695	2974.9813	2993.4561	2994.8804	3058.0529	3213.3973	3246.4758	3774.8177	3844.8081
OCC(O)C1OCC=C1	OC[C@@H](O)[C@H]1OCC=C1	
InChI=1S/C6H10O3/c7-4-5(8)6-2-1-3-9-6/h1-2,5-8H,3-4H2	InChI=1S/C6H10O3/c7-4-5(8)6-2-1-3-9-6/h1-2,5-8H,3-4H2/t5-,6+/m1/s1
