15
gdb 32383	6.31421	0.88967	0.78658	5.7847	79.87	-0.2044	-0.0343	0.1701	1383.4576	0.114568	-413.034668	-413.02636	-413.025415	-413.067811	30.061	
C	 0.1175163733	 1.3831537663	 0.1484764214	-0.329935
N	-0.1602348647	-0.0137995822	-0.1183487075	-0.382732
C	 0.5255571206	-0.6499179508	-1.1310246143	 0.337436
C	 1.2009696612	-0.0963803773	-2.2096269981	-0.177434
N	 1.6507401026	-1.1732280341	-2.9379269889	-0.286293
C	 1.2530174073	-2.3005151738	-2.2857541386	 0.258776
N	 0.570396671	-2.0130767431	-1.186756577	-0.361324
C	 1.5645232722	-3.5955158679	-2.7698640871	 0.23338
N	 1.8404822099	-4.6355891395	-3.1988074111	-0.340397
H	 1.1811692261	 1.5898620697	 0.3490624323	 0.113793
H	-0.1901797314	 1.9965596332	-0.7063042918	 0.131248
H	-0.469204159	 1.7062119013	 1.0106745864	 0.13326
H	-0.2702012291	-0.6015987796	 0.6946170704	 0.249434
H	 1.3877792184	 0.9176205964	-2.5153706551	 0.137852
H	 2.1841934014	-1.1401558386	-3.790893111	 0.282936
78.5567	132.4052	159.9838	181.6244	225.132	340.5564	417.5417	484.2325	508.5106	540.8045	581.9984	644.7348	653.7797	707.4311	730.2375	740.6626	994.6953	1019.1087	1097.5041	1120.6383	1158.1517	1174.1472	1270.6612	1298.2738	1380.7103	1453.7541	1460.2344	1476.1017	1486.0136	1518.9382	1557.4753	1623.9801	2343.1912	2974.6617	3056.6407	3125.6764	3291.993	3612.1607	3666.4204
CNC1=CNC(=N1)C#N	CNc1c[nH]c(n1)C#N	
InChI=1S/C5H6N4/c1-7-5-3-8-4(2-6)9-5/h3,7H,1H3,(H,8,9)	InChI=1S/C5H6N4/c1-7-5-3-8-4(2-6)9-5/h3,7H,1H3,(H,8,9)
