16
gdb 39188	2.43637	1.75545	1.5717	2.0079	70.49	-0.2269	-0.0192	0.2077	927.4272	0.126076	-437.865297	-437.85807	-437.857126	-437.897178	27.762	
C	 0.2181849007	 1.4869209105	-0.0702264423	-0.049604
O	 1.481404731	 2.0842088533	-0.3769953098	-0.238945
C	 2.4166146449	 1.512511044	-1.1754379379	 0.063134
C	 2.6445270791	 0.2208339884	-1.4354504755	-0.105356
O	 1.9175076956	-1.0371244913	 1.6742945587	-0.300839
C	 1.4923103881	-0.6700419874	 0.6227396479	 0.42078
C	 0.1728284824	-0.0236965125	 0.1385975751	-0.167103
N	 0.3655152275	-0.7495391978	-1.1621157577	-0.314366
C	 1.8458635947	-0.9099148614	-0.8684906042	-0.208744
H	-0.1032009453	 1.9955340312	 0.842566604	 0.127676
H	-0.4831244745	 1.7239261781	-0.8798843627	 0.125837
H	 3.0624404764	 2.2837187188	-1.5849886755	 0.119727
H	 3.4864114121	-0.0087427843	-2.0770889742	 0.102421
H	-0.7371267969	-0.2774490521	 0.6911450993	 0.102708
H	-0.0736089915	-1.6653552117	-1.085215789	 0.228713
H	 2.2684275555	-1.8834891157	-1.1249924462	 0.093959
91.5007	127.9458	207.3721	336.2059	389.9141	438.6746	448.0052	553.7118	650.2863	737.4431	752.5652	798.4023	836.0414	844.0211	863.53	928.6927	945.3102	953.9575	1003.3616	1053.5716	1075.3207	1099.3741	1140.945	1155.7589	1228.4178	1247.0726	1312.5109	1313.7447	1351.9295	1370.9339	1409.4486	1429.8195	1481.4752	1696.4216	1897.8341	3032.5097	3073.1506	3097.0886	3103.5352	3176.4622	3206.9386	3479.6591
C1OC2C3OC22C1NC32	C1OC=C[C@H]2C(=O)[C@@H]1N2	
InChI=1S/C6H7NO2/c1-2-6-4(7-2)3(9-6)5(6)8-1/h2-5,7H,1H2	InChI=1S/C6H7NO2/c8-6-4-1-2-9-3-5(6)7-4/h1-2,4-5,7H,3H2/t4-,5+/m0/s1
