16
gdb 127669	3.16086	1.28726	1.02065	2.9876	75.55	-0.2557	0.0051	0.2608	1155.211	0.124868	-396.923116	-396.914563	-396.913619	-396.956966	30.49	
C	 0.2736374808	 1.3571072613	 0.1287928052	-0.339629
N	 0.0951606121	-0.0810268655	 0.0790927423	-0.000121
N	-0.0926343437	-0.7035238631	-1.112675599	-0.25181
C	-0.26427366	-1.9631699692	-0.7505296589	 0.023242
N	-0.2019712186	-2.1933180095	 0.5875203011	-0.315044
C	 0.0233588954	-0.9863981224	 1.0819113621	 0.362582
C	 0.1539016957	-0.6750902936	 2.547654931	-0.455233
C	 1.4368302719	-0.0845218961	 2.9254299511	 0.298909
C	 2.4879701713	 0.4086543963	 3.2344703497	-0.448611
H	 0.8654049561	 1.6197010551	 1.0065842913	 0.160637
H	 0.8016105525	 1.6649519438	-0.7740091611	 0.16385
H	-0.692673544	 1.8704425724	 0.1678422803	 0.14427
H	-0.4354734019	-2.7433286239	-1.4771450764	 0.125719
H	-0.6608083553	-0.0110223222	 2.8669270374	 0.149175
H	 0.0073257228	-1.622933372	 3.0741766835	 0.175398
H	 3.4222124051	 0.8300952585	 3.5132331403	 0.206666
60.0717	95.2169	112.9398	206.5095	256.7031	287.656	330.6979	421.3998	455.4433	630.4436	647.8556	664.7463	693.9813	723.6563	788.9749	905.0846	934.0769	964.1262	993.4308	1036.1011	1152.4417	1170.4144	1216.8401	1237.8872	1310.9944	1315.4254	1326.391	1428.471	1457.3701	1458.7049	1491.0982	1494.173	1526.8231	1558.6502	2240.9434	3020.1729	3048.2232	3090.474	3128.253	3164.6973	3259.5407	3503.6779
CN1N=CN=C1CC#C	Cn1ncnc1CC#C	
InChI=1S/C6H7N3/c1-3-4-6-7-5-8-9(6)2/h1,5H,4H2,2H3	InChI=1S/C6H7N3/c1-3-4-6-7-5-8-9(6)2/h1,5H,4H2,2H3
