17
gdb 37572	3.856	1.63184	1.39665	3.059	71.14	-0.2312	0.0698	0.301	932.0378	0.137028	-421.705024	-421.698618	-421.697674	-421.735716	26.478	
C	-0.0385277289	 1.4372052075	-0.1920462277	-0.088607
C	 1.4054659712	 2.0279247651	-0.0220892841	-0.296624
C	 2.2321307104	 0.7398702262	-0.093732271	-0.085955
C	 3.1317532571	 0.0682330479	 0.9766807703	-0.131012
C	 2.009351725	-0.0032428047	 2.0423323658	-0.002636
O	 2.1477837835	-1.4350402751	 2.2778865907	-0.316042
C	 2.3420826609	-1.3113268179	 0.8523866462	-0.026078
C	 1.2790419927	-0.1732175428	 0.6390455858	 0.447019
O	-0.0337668372	 0.0646029796	 0.3083792223	-0.322989
H	-0.7910067163	 2.0017387552	 0.3656497507	 0.117122
H	-0.3351152103	 1.4071441672	-1.2466773807	 0.113123
H	 1.6253725358	 2.7664878134	-0.7961597928	 0.108432
H	 1.500190829	 2.5190040172	 0.951226211	 0.113512
H	 2.4541267879	 0.4432688026	-1.1240129103	 0.078037
H	 4.1988642421	 0.1560139769	 1.1682651925	 0.092747
H	 1.7998915002	 0.6445974395	 2.8917344469	 0.09819
H	 2.579657607	-2.1971866979	 0.2643716644	 0.101759
123.1895	227.9207	322.8365	347.0878	523.0742	594.7667	632.9148	699.7224	704.5703	774.6211	823.5611	847.7337	864.5642	885.7328	900.8506	906.4052	920.3778	971.6484	1003.3599	1033.4099	1078.9784	1094.0504	1111.5959	1127.2757	1151.2275	1171.3676	1180.7685	1200.5822	1216.1776	1246.3291	1265.7899	1297.2082	1328.2194	1383.5573	1407.5015	1488.756	1516.5088	3038.1544	3053.3365	3059.6936	3091.2885	3116.0798	3128.6289	3134.6404	3152.4351
C1CC2C3C4OC3C24O1	C1C[C@H]2[C@H]3[C@@H]4O[C@H]3[C@]24O1	
InChI=1S/C7H8O2/c1-2-8-7-3(1)4-5(7)9-6(4)7/h3-6H,1-2H2	InChI=1S/C7H8O2/c1-2-8-7-3(1)4-5(7)9-6(4)7/h3-6H,1-2H2/t3-,4-,5-,6+,7-/m0/s1
