22
gdb 109687	2.83199	0.98198	0.93505	2.9504	79.2	-0.2229	0.0637	0.2865	1390.2895	0.19152	-441.440381	-441.429377	-441.428433	-441.476692	39.492	
C	-0.7202369441	 0.6747540984	-1.9004800988	-0.315129
N	-0.2214645362	-0.2629140582	-0.9040621298	-0.136895
C	 1.2232410332	-0.4165009627	-0.6945824357	-0.041003
C	 2.2530734793	 0.3719164332	-1.4642668706	-0.116564
O	 2.3707002861	-0.2279855829	-2.7494136228	-0.418755
C	 0.361530792	 0.188369093	 0.3703890398	 0.263134
C	 0.4315396913	 1.6537389139	 0.7593620016	-0.471958
C	-0.094818841	-0.7111554029	 1.5120712869	-0.102252
O	-1.4735252703	-0.5219698861	 1.7830887637	-0.422702
H	-0.1747123355	 1.6247259669	-1.9806230059	 0.100021
H	-0.6828485676	 0.1878429362	-2.878961724	 0.136998
H	-1.7645678384	 0.9104102926	-1.6717967854	 0.116669
H	 1.5261211011	-1.4572924117	-0.5742214172	 0.088641
H	 1.980083952	 1.4315969482	-1.5464201448	 0.086443
H	 3.2065334576	 0.3241828549	-0.9137001013	 0.093381
H	 3.0713872619	 0.2247924693	-3.2284103892	 0.287757
H	 0.5618525892	 2.3293570116	-0.0868195492	 0.115506
H	-0.4929188186	 1.9283848865	 1.2769813337	 0.139038
H	 1.263377547	 1.8223528763	 1.4519413626	 0.120752
H	 0.1196652552	-1.7596382845	 1.2604208981	 0.088706
H	 0.4385366964	-0.4673525258	 2.437824551	 0.100617
H	-1.9246561108	-0.7255840463	 0.9544184074	 0.287595
58.5157	70.4566	112.5508	139.4638	174.7657	199.4124	253.2965	269.6114	296.5132	310.3086	334.0303	379.2126	462.0507	486.8522	529.9421	641.0548	701.3331	772.7878	836.7322	934.7299	971.4374	1033.2984	1041.8304	1062.9845	1081.6842	1087.4734	1135.7111	1148.6477	1168.7413	1183.9829	1208.4228	1247.7049	1259.2761	1297.7043	1347.175	1386.5143	1410.4308	1418.111	1426.6444	1456.582	1472.7431	1484.4061	1488.2914	1497.75	1504.8704	1512.7861	1525.3895	2974.2031	2998.8743	3002.6815	3032.8149	3042.2326	3068.7784	3071.6109	3097.1286	3100.8744	3110.2282	3137.5627	3781.2261	3825.0833
CN1C(CO)C1(C)CO	CN1[C@@H](CO)[C@]1(C)CO	
InChI=1S/C6H13NO2/c1-6(4-9)5(3-8)7(6)2/h5,8-9H,3-4H2,1-2H3	InChI=1S/C6H13NO2/c1-6(4-9)5(3-8)7(6)2/h5,8-9H,3-4H2,1-2H3/t5-,6-,7?/m0/s1
