18
gdb 14142	4.39452	1.54638	1.33858	1.8951	74.49	-0.2369	0.0139	0.2508	975.7916	0.153758	-347.807124	-347.7994	-347.798456	-347.839791	28.983	
C	-0.0988155511	 1.5524046592	 0.0041994518	-0.420541
C	-0.0877711356	 0.0500009629	 0.1240687708	-0.002608
O	 1.1321343081	-0.6234497854	-0.2025946386	-0.305274
C	 0.6651605158	-0.6791109635	 1.1620900517	 0.417845
C	 1.521041206	-0.0244910404	 2.2562094587	-0.313952
C	 1.5179311943	-1.0297578756	 3.4414008695	-0.270898
C	 0.7138239302	-2.2002049748	 2.9281582471	-0.072543
C	 0.2518782252	-2.0033544598	 1.694343626	-0.13642
H	 0.8060674999	 1.9920623663	 0.4299558738	 0.126554
H	-0.1579009362	 1.8495718915	-1.0482768818	 0.128329
H	-0.969629949	 1.9725550222	 0.5196967059	 0.119647
H	-0.9775298288	-0.4413793563	-0.278990494	 0.079755
H	 2.5285814296	 0.1427422918	 1.8675006829	 0.123257
H	 1.1239207654	 0.9492322756	 2.5548685272	 0.107621
H	 2.52957217	-1.3339976283	 3.7362636247	 0.112055
H	 1.0597126021	-0.5977656326	 4.3397746791	 0.110298
H	 0.5426518263	-3.0893296401	 3.5251162203	 0.097946
H	-0.3446216623	-2.6943047925	 1.1105472148	 0.09893
33.0912	167.4181	182.163	205.227	320.2951	399.1902	457.3871	523.2028	527.0078	718.9369	754.3054	790.1567	817.0377	836.1227	909.688	922.6483	972.3159	977.226	1009.6761	1031.7156	1055.4868	1120.7117	1123.7182	1159.8784	1177.8418	1233.851	1249.646	1269.1652	1320.9563	1335.556	1385.5929	1406.8114	1465.9129	1477.3489	1487.5255	1498.5755	1506.1202	1683.1513	3025.7306	3035.2476	3048.8385	3065.6885	3068.6723	3097.0563	3108.4549	3127.619	3187.4278	3214.6682
CC1OC11CCC=C1	C[C@H]1O[C@]21CCC=C2	
InChI=1S/C7H10O/c1-6-7(8-6)4-2-3-5-7/h2,4,6H,3,5H2,1H3	InChI=1S/C7H10O/c1-6-7(8-6)4-2-3-5-7/h2,4,6H,3,5H2,1H3/t6-,7+/m1/s1
