17
gdb 128721	3.15189	1.273	0.91808	2.5	72.97	-0.2078	0.0295	0.2373	1247.72	0.135114	-455.142051	-455.132608	-455.131663	-455.176626	33.347	
C	-0.0374613114	 1.3797736707	 0.1053594997	-0.241411
O	-0.0178057301	-0.0491841263	 0.0952338713	-0.265219
C	-1.2132495728	-0.6461289592	 0.0322763441	 0.455248
N	-2.3431285103	 0.0239163425	-0.0003990726	-0.28431
O	-3.3322327841	-0.9889104699	-0.0681244255	-0.237334
C	-2.7265692524	-2.1860912506	-0.0784082102	 0.41822
N	-3.5548058853	-3.2789902077	-0.2091581156	-0.594307
C	-1.3679013361	-2.0620256587	-0.0165117319	-0.056746
C	-0.3040090138	-3.1119744276	-0.0223562925	-0.52477
H	 1.006187765	 1.6926047623	 0.1512572588	 0.128956
H	-0.5128312998	 1.7670412603	-0.8010428119	 0.141288
H	-0.5861510145	 1.7532258529	 0.9754532949	 0.140571
H	-4.5194818118	-3.0802897911	 0.0179978875	 0.264891
H	-3.2198738134	-4.1136952475	 0.2492334199	 0.263108
H	-0.6356247229	-4.009360845	-0.5555111297	 0.121358
H	 0.5941766838	-2.743206422	-0.5260097344	 0.143105
H	-0.0027948401	-3.4176583732	 0.9877097981	 0.127352
60.8605	99.8184	154.6818	186.1201	191.5441	232.4265	241.0406	297.5083	364.7674	409.6941	535.1101	604.2112	620.8523	681.3437	742.6518	754.1855	779.847	949.3659	965.7002	1041.897	1064.1193	1073.1454	1180.4362	1188.2834	1227.7707	1277.7971	1367.4193	1421.7524	1448.5886	1478.2961	1485.321	1495.3434	1501.3095	1530.1757	1575.0607	1639.5139	1712.1602	3019.1307	3038.4973	3073.7866	3107.9687	3108.3977	3149.379	3564.8035	3666.2715
COC1=NOC(N)=C1C	COc1noc(N)c1C	
InChI=1S/C5H8N2O2/c1-3-4(6)9-7-5(3)8-2/h6H2,1-2H3	InChI=1S/C5H8N2O2/c1-3-4(6)9-7-5(3)8-2/h6H2,1-2H3
