18
gdb 32117	3.70246	1.11315	0.86309	3.4921	86.43	-0.1911	-0.0008	0.1903	1326.9831	0.150085	-398.181988	-398.173434	-398.172489	-398.214858	32.806	
C	 0.0124773378	 1.4420911694	-0.0703097725	-0.322189
N	-0.1165188628	 0.0081781523	 0.0972046631	-0.37621
C	 0.5824676182	-0.6754205565	 1.0793125632	 0.331412
C	 1.1989087004	-0.0215883218	 2.1608439833	-0.095684
N	 1.8340713784	-0.6746331443	 3.13411336	-0.257249
C	 1.9010980702	-1.9984453566	 3.0872571376	-0.074979
C	 1.3317489728	-2.7591320142	 2.0506586327	 0.292723
N	 1.48801717	-4.1451857799	 2.0148682191	-0.594252
C	 0.6640190984	-2.0733557243	 1.0404044019	-0.255553
H	 1.0533022043	 1.7756688023	-0.2024604687	 0.120158
H	-0.5623601167	 1.7449246774	-0.9483034693	 0.123045
H	-0.4028623048	 1.9708927941	 0.7943001276	 0.138631
H	-0.2337207225	-0.5060286569	-0.7614879311	 0.235041
H	 1.1736933084	 1.0597124499	 2.2432230985	 0.08919
H	 2.4315338619	-2.4971471505	 3.896895729	 0.082615
H	 1.6684763173	-4.5659765752	 2.9151815529	 0.248397
H	 0.7616993134	-4.6417658732	 1.5191014421	 0.244756
H	 0.2046283752	-2.6205360819	 0.2202271505	 0.070149
93.2295	176.6327	216.5935	234.4996	250.9263	296.7129	332.9363	416.9648	471.4332	481.4239	549.8209	598.688	612.9549	661.2919	733.056	747.7939	859.8673	875.9847	897.0201	968.6032	1019.448	1084.4221	1114.1296	1152.9058	1171.1443	1219.5791	1247.9323	1310.2598	1359.8878	1371.5445	1448.9198	1469.2742	1483.909	1504.3762	1522.6858	1553.1957	1605.3719	1643.9062	1659.1918	2985.0782	3064.1126	3120.072	3132.6253	3147.1896	3178.0951	3559.4467	3617.9608	3656.4163
CNC1=CN=CC(N)=C1	CNc1cncc(N)c1	
InChI=1S/C6H9N3/c1-8-6-2-5(7)3-9-4-6/h2-4,8H,7H2,1H3	InChI=1S/C6H9N3/c1-8-6-2-5(7)3-9-4-6/h2-4,8H,7H2,1H3
