19
gdb 119643	4.24946	1.06472	0.99769	1.1866	75.31	-0.2292	0.0743	0.3035	1257.4173	0.158281	-422.942284	-422.934038	-422.933094	-422.975782	31.038	
C	-0.4200274818	 1.4147820791	-0.4190622714	-0.219258
O	-0.6367984183	 0.0414655428	-0.6420659337	-0.239445
C	-0.8617922827	-0.6778466158	 0.5488729643	-0.203871
C	-1.0810885772	-2.1179508226	 0.1946733038	 0.429317
C	-0.1197455218	-2.9537808937	-0.6915737729	-0.261819
C	-1.3049533803	-3.9071385159	-0.8445692268	-0.12292
C	-2.0413344135	-3.8211903094	 0.504357437	 0.097925
O	-1.2849302535	-2.9671110695	 1.3645695892	-0.340748
C	-2.3055258377	-2.7959091186	-0.5393455764	-0.192217
H	-0.2618665966	 1.8824822514	-1.3936655178	 0.128826
H	-1.2851665706	 1.8907667214	 0.068750672	 0.106435
H	 0.4670701415	 1.5907092336	 0.2095634565	 0.107052
H	 0.0037857293	-0.6063956197	 1.2309044681	 0.100751
H	-1.7385369353	-0.2883074765	 1.0913260317	 0.099629
H	 0.1049431292	-2.4354509828	-1.6253747678	 0.11896
H	 0.7959294829	-3.3091555325	-0.2075580823	 0.09413
H	-1.4237195972	-4.7423226374	-1.522646061	 0.090981
H	-2.6478766942	-4.6035693543	 0.9402355299	 0.106335
H	-3.1892269422	-2.4284099193	-1.0410260925	 0.09994
64.8115	83.2877	130.1195	221.9925	287.1376	340.416	373.6941	470.3129	551.5059	687.1034	762.6151	766.5291	790.3247	815.7985	844.6676	924.5919	936.2864	962.8406	996.391	998.9424	1025.1671	1037.5248	1063.5867	1086.598	1119.6057	1144.104	1167.1693	1173.2675	1187.2896	1223.635	1229.4719	1250.8008	1283.9585	1338.5164	1366.6857	1433.2064	1480.6926	1484.6819	1490.3291	1501.5276	1521.2843	2952.6767	2973.5163	2990.7844	3017.4089	3048.9415	3116.5455	3128.8489	3199.6468	3207.256	3223.3513
COCC12CC3C(O1)C23	COC[C@@]12C[C@H]3[C@@H](O1)[C@@H]23	
InChI=1S/C7H10O2/c1-8-3-7-2-4-5(7)6(4)9-7/h4-6H,2-3H2,1H3	InChI=1S/C7H10O2/c1-8-3-7-2-4-5(7)6(4)9-7/h4-6H,2-3H2,1H3/t4-,5+,6-,7-/m1/s1
