14
gdb 131194	3.57518	1.63279	1.12868	3.6372	70.97	-0.2205	-0.033	0.1875	991.1543	0.103634	-432.868734	-432.862191	-432.861247	-432.899574	25.72	
O	 0.0871191524	 1.3696611038	 0.0119141992	-0.427655
C	 0.0715906542	 0.0256170401	-0.0684845188	 0.211898
C	 0.0361847952	-0.7695347069	-1.1899906759	 0.285223
C	-0.0017839526	-0.9009964105	-2.6827369816	-0.427289
C	-0.0212523858	-2.4174897351	-2.8440198475	-0.121965
C	 0.0018292284	-3.01895709	-1.6482824295	-0.002407
N	 0.0365436307	-2.0249950672	-0.6531981536	 0.066034
N	 0.0692156358	-2.0351873449	 0.6779484796	-0.187492
N	 0.0906119355	-0.7649381291	 1.0375338843	-0.283191
H	 0.1123519758	 1.5873122232	 0.952942791	 0.307234
H	-0.8872333784	-0.4330239557	-3.1314457872	 0.149398
H	 0.8699736638	-0.4510102988	-3.1745829624	 0.149393
H	-0.0497492427	-2.9206740082	-3.7992444224	 0.124883
H	-0.0019626023	-4.0605851807	-1.3687440552	 0.155935
157.6259	231.1942	281.9639	364.1887	399.8553	480.2637	536.8477	628.5709	676.313	687.4652	703.2789	743.4636	835.8281	887.1326	916.8516	933.0982	951.85	1088.128	1138.1026	1146.8124	1149.7906	1231.8791	1257.9362	1296.5948	1328.2707	1356.5382	1419.5289	1453.0969	1477.4857	1641.2757	1696.2412	3029.0616	3052.9367	3245.4863	3279.247	3785.9723
OC1=C2CC=CN2N=N1	Oc1c2CC=Cn2nn1	
InChI=1S/C5H5N3O/c9-5-4-2-1-3-8(4)7-6-5/h1,3,9H,2H2	InChI=1S/C5H5N3O/c9-5-4-2-1-3-8(4)7-6-5/h1,3,9H,2H2
