21
gdb 76579	2.83204	1.16396	1.13834	1.7905	78.44	-0.2258	0.0564	0.2822	1216.8167	0.183339	-424.216826	-424.208022	-424.207078	-424.25033	34.356	
O	 0.1465074188	 1.3810795899	 0.061645937	-0.434077
C	 0.0493135654	-0.0095476596	-0.0017285054	 0.035161
C	-0.5025403456	-0.7300883132	 1.2040571616	-0.036988
O	-0.9586128387	 0.0965834026	 2.2495751676	-0.428184
C	-1.3123469661	-0.6786535745	-0.0700868539	 0.285958
C	-2.5918720892	 0.1638915158	-0.1465926095	-0.280061
C	-3.4224937415	-0.5068931556	-1.2593146145	-0.202909
C	-3.0379945653	-1.9918968902	-1.1633171479	-0.197103
C	-1.5188080904	-1.950233211	-0.9055259112	-0.289467
H	-0.2732455879	 1.6382809393	 0.8946092212	 0.283157
H	 0.8722128907	-0.4452794591	-0.5630500449	 0.093588
H	-0.0866251535	-1.6858272129	 1.5215561391	 0.085364
H	-0.2306487585	 0.2141074526	 2.8702678932	 0.295634
H	-3.127629075	 0.1294485099	 0.8081141583	 0.10994
H	-2.3718825643	 1.2138658012	-0.3575345332	 0.105059
H	-4.4961831428	-0.3296221735	-1.1501923753	 0.092189
H	-3.1245408224	-0.1123916127	-2.2384441368	 0.099692
H	-3.5487053553	-2.4523217894	-0.3086487705	 0.098302
H	-3.3033359278	-2.5699612918	-2.0532478239	 0.09225
H	-0.9789840354	-1.8653879391	-1.8575634861	 0.100675
H	-1.1480412953	-2.8521020889	-0.4075318849	 0.091823
54.1984	154.7726	191.2657	248.8516	255.5009	280.5521	286.5174	403.3875	501.9954	505.243	560.761	594.5355	656.6826	722.629	820.4559	845.4053	855.6701	875.1088	911.9186	939.3546	967.4755	1020.5459	1028.5672	1050.6584	1087.2827	1123.9077	1134.2781	1178.5026	1180.7166	1203.743	1247.2485	1250.2273	1256.5644	1286.6412	1314.3762	1322.6041	1341.2119	1343.5358	1360.3411	1405.8609	1467.7119	1488.0049	1491.8034	1495.5459	1513.7427	3020.0686	3030.0611	3035.2004	3046.6382	3068.7681	3085.2579	3089.5423	3098.2589	3100.6217	3139.2426	3738.6533	3798.5107
OC1C(O)C11CCCC1	O[C@H]1[C@@H](O)C21CCCC2	
InChI=1S/C7H12O2/c8-5-6(9)7(5)3-1-2-4-7/h5-6,8-9H,1-4H2	InChI=1S/C7H12O2/c8-5-6(9)7(5)3-1-2-4-7/h5-6,8-9H,1-4H2/t5-,6+
