18
gdb 107315	2.7203	1.60946	1.15481	3.5808	77.34	-0.2322	-0.058	0.1741	1085.5469	0.148099	-401.953211	-401.945027	-401.944083	-401.985887	31.265	
C	 0.059189284	 1.4673100784	 0.3972261401	-0.381603
C	 0.0095630699	 0.04885133	-0.1889813666	-0.293745
C	-1.3789954434	-0.5408863715	-0.1865795389	 0.208078
N	-2.0206088843	-0.9867908294	 1.0890835697	-0.356014
C	-1.7171192086	-1.9685178463	 0.0059423504	-0.169002
C	-2.9304277424	-2.2516150759	-0.823318117	-0.034856
C	-3.3580161683	-1.143314997	-1.443078497	-0.187622
C	-2.4427523954	-0.0049822504	-1.1499719739	 0.384223
O	-2.4912073985	 1.1125388252	-1.6095952917	-0.333647
H	 1.0802458969	 1.8593072211	 0.3731823419	 0.110176
H	-0.5867080591	 2.1360278017	-0.1751160309	 0.156467
H	-0.2808294689	 1.4756258982	 1.4381405809	 0.114558
H	 0.382372766	 0.0652077595	-1.2201317274	 0.114196
H	 0.6778711127	-0.6175027788	 0.3725287722	 0.091302
H	-1.281141536	-1.0409466168	 1.7929906175	 0.230608
H	-0.9616047538	-2.7266642423	 0.1788945826	 0.102498
H	-3.4077078211	-3.2240959946	-0.8569677477	 0.122993
H	-4.2376454296	-1.034026201	-2.0636064443	 0.12139
92.9127	131.4395	203.3544	207.8357	285.7155	320.7905	356.7885	457.2724	483.3929	633.7927	657.4557	723.4275	752.9016	780.8098	828.1155	869.5445	891.9847	912.9572	952.6803	983.9068	1008.6779	1045.0193	1076.3423	1108.0862	1118.0177	1131.9883	1178.181	1264.5751	1279.1931	1351.9149	1362.4258	1375.6457	1408.9871	1427.3761	1477.1271	1495.5818	1513.7532	1634.1043	1812.8384	3016.5682	3042.191	3058.9851	3106.9122	3140.2539	3177.9276	3200.7681	3232.5326	3434.8565
CCC12NC1C=CC2=O	CC[C@]12N[C@H]1C=CC2=O	
InChI=1S/C7H9NO/c1-2-7-5(8-7)3-4-6(7)9/h3-5,8H,2H2,1H3	InChI=1S/C7H9NO/c1-2-7-5(8-7)3-4-6(7)9/h3-5,8H,2H2,1H3/t5-,7-/m0/s1
