16
gdb 25025	4.25832	1.05241	0.90445	5.3862	72.08	-0.2087	0.0251	0.2338	1258.4212	0.125403	-437.927138	-437.919376	-437.918432	-437.959884	29.288	
O	 0.018996254	-0.0192871282	 0.1279655893	-0.402822
C	-0.0148713354	 1.1789363616	 0.0668802166	 0.485522
N	-1.0777492279	 2.0411079233	 0.2429924687	-0.447029
C	-0.669994829	 3.370778643	 0.078546454	 0.333137
C	 0.6416030538	 3.3034144561	-0.19801479	-0.142444
O	 1.0664955788	 1.9880544343	-0.2125504016	-0.207637
C	-1.5619967843	 4.5292728617	 0.2016104518	-0.085871
C	-3.0067722072	 4.4678413937	-0.2559633382	-0.276925
C	-2.6930984857	 4.5534051949	 1.2118305576	-0.276902
H	-1.999091361	 1.7049305952	 0.4587585165	 0.273254
H	 1.3808658476	 4.0575687775	-0.4002323121	 0.149871
H	-1.0473508133	 5.4696764993	 0.0368040716	 0.101747
H	-3.4130067769	 5.3416000979	-0.7522419299	 0.128426
H	-3.371741408	 3.526396562	-0.6524295646	 0.119622
H	-2.8424044999	 3.6707868966	 1.8245284545	 0.119636
H	-2.8825116855	 5.4863051211	 1.730089976	 0.128416
77.4146	129.4189	151.3827	220.2049	382.2604	391.7818	431.4666	513.8352	608.1182	649.5655	705.2737	751.5247	768.5643	787.0552	821.6614	903.9508	907.7252	931.9958	1000.9754	1061.5005	1062.9596	1077.3549	1102.1068	1125.3918	1180.912	1199.2118	1207.3807	1258.3046	1322.5668	1404.4975	1434.3631	1473.8542	1504.4009	1707.2856	1896.5635	3136.5294	3140.8805	3170.2415	3215.8009	3231.2958	3300.509	3697.5381
O=C1NC(=CO1)C1CC1	O=c1[nH]c(co1)C1CC1	
InChI=1S/C6H7NO2/c8-6-7-5(3-9-6)4-1-2-4/h3-4H,1-2H2,(H,7,8)	InChI=1S/C6H7NO2/c8-6-7-5(3-9-6)4-1-2-4/h3-4H,1-2H2,(H,7,8)
