20
gdb 117485	2.28555	0.86959	0.63994	1.5859	90.87	-0.2386	-0.0114	0.2272	1802.9718	0.167243	-403.135032	-403.123649	-403.122705	-403.173759	38.024	
C	-0.2066255397	 1.4920913497	-0.081546498	-0.391197
C	-0.0390039536	-0.0159791865	-0.0589239669	-0.0333
O	-1.3528005101	-0.5904723525	-0.0193169563	-0.24967
C	-1.4192721999	-1.9414702117	 0.0058353772	 0.246699
N	-0.3710648425	-2.6585599586	-0.0052026937	-0.323311
C	-0.4670734504	-4.1014722814	 0.0222181945	-0.328011
C	-2.7848025993	-2.3895747948	 0.0443812217	 0.008864
C	-3.9200955207	-2.7931358989	 0.0769617135	 0.142764
C	-5.293963043	-3.2666386132	 0.1161815425	-0.506364
H	 0.7747798893	 1.9749313752	-0.1120698835	 0.117591
H	-0.7747465056	 1.8085292032	-0.9609532775	 0.12708
H	-0.7348946827	 1.8395377755	 0.8109014195	 0.12708
H	 0.4894843977	-0.3843144918	-0.9449635615	 0.114674
H	 0.5290679672	-0.3535163214	 0.8148037336	 0.114674
H	-1.4942427592	-4.4878584933	 0.052295468	 0.111699
H	 0.0346970224	-4.5134338087	-0.8615689982	 0.123925
H	 0.0746045682	-4.4826719524	 0.8961950308	 0.123925
H	-5.5179099761	-3.8978070053	-0.7507026441	 0.15713
H	-5.4800344828	-3.8611487526	 1.0172647574	 0.157145
H	-5.9999689192	-2.4295678004	 0.1139623008	 0.158603
19.7429	68.9065	75.597	93.9018	111.1841	172.1023	187.6144	247.4136	275.9141	280.9168	361.3698	368.5022	390.979	478.682	613.5805	719.843	759.7453	810.7211	896.3552	1014.6629	1049.2176	1052.2628	1060.6199	1124.7911	1134.6918	1151.4926	1181.4145	1182.5056	1285.0584	1303.1449	1395.1157	1411.8277	1420.3628	1442.3601	1473.548	1474.5422	1485.2125	1489.5935	1496.4582	1497.2341	1520.5288	1712.0742	2358.129	3002.5013	3030.2272	3040.8774	3044.3533	3067.9511	3069.6963	3075.9377	3092.2733	3096.3682	3118.222	3122.7385
CCOC(=NC)C#CC	CCOC(=NC)C#CC	
InChI=1S/C7H11NO/c1-4-6-7(8-3)9-5-2/h5H2,1-3H3	InChI=1S/C7H11NO/c1-4-6-7(8-3)9-5-2/h5H2,1-3H3
