21
gdb 106352	3.26954	1.19927	1.06808	3.2401	82.42	-0.2314	-0.0028	0.2287	1218.6577	0.183281	-387.110812	-387.10246	-387.101516	-387.143745	32.926	
C	 0.048252045	 1.5253217916	 0.1589103423	-0.387234
C	-0.0552063193	 0.0103354707	-0.0559395462	-0.286324
C	 0.6785373978	-0.4944242701	-1.2824793238	 0.356303
C	 2.2356592567	-0.4132890394	-1.4158553393	-0.272412
C	 2.0278540287	-1.552721158	-2.4670932072	-0.129666
C	 0.8526172573	-2.023562769	-1.5492966139	-0.284927
C	 1.2452837139	-0.7979442436	-3.5303954989	 0.436786
O	 1.3715382746	-0.8125270465	-4.7248323679	-0.336662
C	 0.2333470983	 0.001150767	-2.6782631443	-0.380228
H	 1.0926067746	 1.8429731899	 0.2491912553	 0.11972
H	-0.39820723	 2.0820611053	-0.6710680808	 0.121401
H	-0.4699108836	 1.8253411391	 1.0744849304	 0.116565
H	 0.3412839276	-0.5089172309	 0.8263658915	 0.093061
H	-1.1124121397	-0.2787316843	-0.1291812988	 0.09769
H	 2.6868509617	 0.5241499564	-1.7537943802	 0.102727
H	 2.7479272963	-0.778196267	-0.5219480031	 0.104601
H	 2.8253841936	-2.2090156853	-2.8079360337	 0.080416
H	 1.2177238431	-2.5585384875	-0.6688138913	 0.104333
H	 0.023716214	-2.5714785801	-2.0076613745	 0.101698
H	-0.7979115677	-0.2658978272	-2.932856793	 0.119621
H	 0.3551668871	 1.0776261991	-2.8329404426	 0.122532
83.5224	120.0066	188.2351	197.1879	301.6562	358.0679	430.8939	464.9132	494.1447	538.7882	622.7089	654.5808	765.5823	782.2065	811.5555	819.922	895.445	934.1874	949.3711	963.1176	981.1125	1000.8474	1027.1946	1067.1078	1067.5459	1095.4881	1128.1728	1142.4035	1187.2949	1205.0373	1229.6829	1233.6007	1237.7217	1273.7052	1320.2065	1333.507	1377.4255	1411.8708	1461.2608	1483.9586	1487.386	1499.5765	1507.1937	1522.3813	1869.4014	3012.3924	3035.7921	3044.0601	3048.0979	3048.8596	3054.3119	3096.2489	3102.8543	3108.2205	3110.5241	3114.0305	3148.6136
CCC12CC(C1)C(=O)C2	CC[C@@]12C[C@@H](C1)C(=O)C2	
InChI=1S/C8H12O/c1-2-8-3-6(4-8)7(9)5-8/h6H,2-5H2,1H3	InChI=1S/C8H12O/c1-2-8-3-6(4-8)7(9)5-8/h6H,2-5H2,1H3/t6-,8+
