17
gdb 88097	3.31488	1.35233	1.25478	3.1656	68.39	-0.2428	0.0738	0.3166	1044.2251	0.135347	-458.915616	-458.907886	-458.906941	-458.947832	29.959	
O	-0.0554163668	 1.3624704462	-0.0683460637	-0.434185
C	 0.0308274761	-0.0255417699	-0.0549246399	 0.069728
C	-0.274943305	-0.7918043231	 1.2232118014	-0.392392
C	-1.2405418545	-0.8082025888	 0.0578004059	 0.407163
O	-2.3998463598	 0.0013260482	 0.1357994003	-0.318213
C	-3.5646465907	-0.8016648439	-0.0738243907	-0.117685
C	-3.0781148605	-2.0477573963	-0.7821024123	 0.027111
O	-2.281688811	-1.7619125143	-1.9336431856	-0.24983
C	-1.614786884	-2.0414783022	-0.6918804655	-0.088375
H	-0.9851890443	 1.5815619415	-0.212015812	 0.301136
H	 0.8175784079	-0.4103860555	-0.6995943815	 0.10306
H	 0.2965415527	-1.6867222078	 1.4499942804	 0.111756
H	-0.5750820353	-0.194387288	 2.0769519849	 0.127795
H	-4.0333456496	-1.0753962244	 0.8832818163	 0.106624
H	-4.2748924855	-0.2131275695	-0.6625688065	 0.12532
H	-3.6864954129	-2.9472578884	-0.8155635021	 0.108734
H	-0.9973764966	-2.9334916138	-0.6584107695	 0.112255
95.7321	154.2398	202.2582	265.2779	327.5895	369.2725	405.9533	470.7517	514.2704	627.8655	728.8808	796.6466	826.6024	843.3233	881.6424	883.5137	940.4492	958.9089	987.1717	1005.7387	1037.4077	1049.1798	1088.7483	1104.6244	1116.9722	1156.0056	1218.2425	1239.6445	1249.6667	1280.5014	1326.2242	1367.5144	1382.4598	1416.5164	1436.0705	1486.1	1505.2148	2998.8013	3082.7748	3124.9392	3133.6915	3156.8296	3173.4035	3225.8868	3767.0462
OC1CC11OCC2OC12	O[C@H]1C[C@]21OC[C@H]1O[C@@H]21	
InChI=1S/C6H8O3/c7-4-1-6(4)5-3(9-5)2-8-6/h3-5,7H,1-2H2	InChI=1S/C6H8O3/c7-4-1-6(4)5-3(9-5)2-8-6/h3-5,7H,1-2H2/t3-,4+,5-,6-/m1/s1
