17
gdb 90393	2.16761	1.57285	1.31364	5.0655	73.29	-0.2438	0.0258	0.2696	1057.6261	0.135519	-417.973301	-417.964688	-417.963744	-418.006204	32.448	
C	-0.1941026651	 1.5371310076	-0.0851474889	-0.432871
C	 0.060762812	 0.0506890295	 0.0228816102	 0.092925
O	 1.1396806676	-0.4571635449	-0.8289987717	-0.292792
C	 1.6746534133	-1.2030354298	 0.2483775809	 0.06018
C	 2.2054851735	-0.2944294626	 1.3370795219	-0.237541
C	 2.8166290295	 0.9800341365	 1.0809858103	 0.313153
N	 3.3312866618	 1.9996429495	 0.8958690782	-0.353504
C	 0.7093742343	-0.6174332896	 1.251468677	 0.188965
N	 0.0824733188	-1.2116060306	 2.3749882287	-0.594831
H	 0.6921826864	 2.1249332146	 0.1557222416	 0.164856
H	-0.5108355237	 1.7877664959	-1.1023852425	 0.135164
H	-1.0045057841	 1.8194168447	 0.5962458618	 0.117715
H	-0.8522709919	-0.5111379357	-0.2246383493	 0.084705
H	 2.0522929803	-2.2016131551	 0.0636819607	 0.125207
H	 2.655829993	-0.8446299014	 2.1588272342	 0.145321
H	-0.189646725	-0.5160036737	 3.0629257711	 0.243673
H	-0.7486607106	-1.7287694451	 2.1057226759	 0.239676
121.6409	142.6138	190.5174	202.54	236.9997	280.7672	336.0291	394.3181	415.6033	484.5616	585.9931	629.0271	661.4455	746.4542	777.668	829.428	851.9407	906.2859	926.7958	1004.2629	1034.8939	1061.4627	1090.4207	1101.3454	1150.8125	1203.4257	1249.1108	1264.76	1289.0075	1333.6483	1386.0589	1412.9261	1469.879	1488.262	1500.7478	1656.9517	2350.4022	2994.1104	3043.0039	3105.058	3154.7521	3160.4128	3192.5514	3493.6622	3573.3348
CC1OC2C(C#N)C12N	C[C@H]1O[C@H]2[C@@H](C#N)[C@@]12N	
InChI=1S/C6H8N2O/c1-3-6(8)4(2-7)5(6)9-3/h3-5H,8H2,1H3	InChI=1S/C6H8N2O/c1-3-6(8)4(2-7)5(6)9-3/h3-5H,8H2,1H3/t3-,4-,5+,6+/m1/s1
