19
gdb 41810	2.39727	2.02076	1.54493	1.5786	74.67	-0.2405	0.0041	0.2445	942.5802	0.162483	-423.034642	-423.027552	-423.026608	-423.06596	28.671	
C	 0.0066979823	 1.621418229	-0.0967680524	-0.094382
O	 1.3900353755	 1.9219141776	-0.2388259764	-0.278847
C	 2.0749203898	 0.7132812691	-0.5895021168	 0.142336
O	 1.0761016038	-0.2640102179	-0.8103088804	-0.254623
C	-0.015275347	 0.0953375884	 0.0382778876	 0.073885
C	 0.1577150863	-0.4350032877	 1.4695692879	-0.215179
C	 1.2812041451	 0.1957805272	 2.3167557741	-0.265846
C	 2.6843082937	 0.0845724133	 1.7639217632	-0.064027
C	 3.0463706446	 0.3176739115	 0.5037166238	-0.036019
H	-0.3832076944	 2.1471547859	 0.7811494175	 0.105963
H	-0.5528494964	 1.945805751	-0.9847122097	 0.100172
H	 2.5981033627	 0.859295548	-1.541903048	 0.08332
H	-0.9142700126	-0.344101534	-0.4031665882	 0.08481
H	-0.7945802486	-0.2951774395	 1.9976438438	 0.095331
H	 0.3234535028	-1.515607395	 1.397357187	 0.112745
H	 1.0604304966	 1.2588959951	 2.4886207538	 0.126998
H	 1.2518386149	-0.2723792583	 3.3063043258	 0.10176
H	 3.4580990898	-0.1820751729	 2.4803455465	 0.093877
H	 4.0891664511	 0.2273866091	 0.2127403508	 0.087725
117.2233	199.5178	264.4632	298.3954	365.0485	421.8938	507.4216	573.7333	677.426	714.032	764.0193	793.5854	821.9971	864.2486	900.8675	922.7512	945.7541	951.924	985.3014	1009.3905	1024.1712	1057.0478	1079.3294	1118.8656	1144.0548	1206.5157	1222.7129	1239.6757	1274.9685	1304.92	1331.0717	1361.0579	1376.2276	1388.0336	1393.1138	1405.9917	1420.4518	1470.9839	1478.8885	1520.7955	1722.8935	3006.815	3011.6784	3022.6065	3037.1144	3063.3241	3070.1231	3073.8606	3077.169	3144.8011	3173.4327
C1OC2OC1CCC=C2	C1O[C@@H]2O[C@H]1CCC=C2	
InChI=1S/C7H10O2/c1-2-4-7-8-5-6(3-1)9-7/h2,4,6-7H,1,3,5H2	InChI=1S/C7H10O2/c1-2-4-7-8-5-6(3-1)9-7/h2,4,6-7H,1,3,5H2/t6-,7+/m0/s1
