17
gdb 51194	3.69804	1.37603	1.20127	4.5369	72.33	-0.2404	0.0143	0.2547	1039.3511	0.137171	-417.960409	-417.952976	-417.952032	-417.992819	28.649	
O	 0.3526764991	 1.8675258641	-1.5558284223	-0.315073
C	 0.1087700757	 1.7580753918	-0.3744040329	 0.137566
N	 0.9844779954	 1.2955588883	 0.5645394025	-0.433021
C	 2.333199582	 0.9405019073	 0.2707674941	 0.39322
C	 3.2862713177	 0.5981268503	 1.440123826	-0.320241
C	 4.4101638519	 1.0116818826	 0.4917246912	-0.028039
C	 3.5044949609	 1.8278234558	-0.3484978253	-0.09651
N	 4.0715445526	 0.5788197642	-0.9116736802	-0.140484
C	 2.7348527819	-0.09218039	-0.7997604355	-0.185299
H	-0.8692017125	 2.0268302818	 0.0722507393	 0.0801
H	 0.696031096	 1.3291430357	 1.5301936527	 0.248855
H	 3.1962767552	 1.3151336884	 2.2621035664	 0.105839
H	 3.2568310185	-0.4261812519	 1.8281196162	 0.102668
H	 5.4601708962	 1.1463249041	 0.7125196074	 0.103853
H	 3.5630396243	 2.803583519	-0.8102882586	 0.109138
H	 2.7570375518	-1.1501461959	-0.5113876998	 0.092354
H	 2.1984382833	 0.0462175145	-1.7376938515	 0.145074
48.0704	149.4313	208.9188	320.136	345.4041	444.8746	453.8718	528.7176	582.5072	719.6324	746.538	790.9401	836.4627	854.1157	936.9293	942.416	966.7359	977.6186	994.0813	1017.7214	1031.6234	1082.8408	1115.1272	1137.7778	1158.2404	1166.8121	1188.643	1215.7431	1245.0469	1272.2712	1329.2551	1351.5225	1433.5672	1489.1153	1505.4915	1515.9398	1806.564	2937.1177	3031.5514	3038.8722	3094.3503	3149.9857	3207.3282	3221.8578	3619.2457
O=CNC12CC3C1N3C2	O=CN[C@]12C[C@@H]3[C@H]1N3C2	
InChI=1S/C6H8N2O/c9-3-7-6-1-4-5(6)8(4)2-6/h3-5H,1-2H2,(H,7,9)	InChI=1S/C6H8N2O/c9-3-7-6-1-4-5(6)8(4)2-6/h3-5H,1-2H2,(H,7,9)/t4-,5-,6+,8?/m1/s1
