16
gdb 67417	2.78508	1.53626	1.29758	5.5242	74.63	-0.2611	0.024	0.2851	1007.4067	0.125092	-400.707803	-400.700327	-400.699383	-400.739563	29.205	
O	-0.2457550334	 1.3806340429	 0.002465613	-0.439501
C	-0.0141258103	 0.039883596	 0.0008760786	 0.343657
C	 0.0322352087	-1.0176061375	-1.0632467513	-0.187291
C	 1.3012402979	-1.6338353996	-0.4850819567	-0.229708
C	 0.925578208	-0.9393766072	 0.8545892039	-0.148684
C	-0.3522205348	-1.6875902754	 1.3158941453	-0.283792
C	-1.0379516586	-1.0745618081	 0.0923467874	 0.177989
C	-2.4262302626	-1.013904445	-0.2079261477	 0.171674
N	-3.5601838099	-0.9706274626	-0.4385815191	-0.35562
H	 0.4046445047	 1.8159967208	-0.560784305	 0.300713
H	-0.3127567571	-0.9644435024	-2.0876281013	 0.115148
H	 1.3928469503	-2.7242579508	-0.4672754377	 0.105898
H	 2.1927127921	-1.1952652777	-0.9416674812	 0.107799
H	 1.6872465957	-0.6430487827	 1.5708726694	 0.088281
H	-0.2955929006	-2.7783919683	 1.382856373	 0.1082
H	-0.7669362401	-1.2754688125	 2.2381084192	 0.125236
122.3081	159.8331	223.802	297.1846	324.6854	426.3582	445.9232	525.016	547.3593	573.1244	675.5176	699.8446	765.2302	831.818	913.4713	922.4481	950.8476	990.6288	994.7644	1003.1365	1065.2186	1114.9406	1116.7447	1135.4879	1169.6493	1211.7149	1233.4397	1252.1901	1277.5489	1296.2124	1330.8201	1477.4523	1488.7372	1513.558	2344.5239	3048.5653	3056.0313	3105.7929	3121.6662	3156.0955	3210.491	3788.6851
OC12C3CC1CC23C#N	O[C@@]12[C@H]3C[C@@H]1C[C@@]23C#N	
InChI=1S/C7H7NO/c8-3-6-2-4-1-5(6)7(4,6)9/h4-5,9H,1-2H2	InChI=1S/C7H7NO/c8-3-6-2-4-1-5(6)7(4,6)9/h4-5,9H,1-2H2/t4-,5+,6+,7-/m1/s1
