21
gdb 33402	1.93197	1.42816	0.8781	0.6561	88.28	-0.2553	0.0541	0.3094	1364.1383	0.181082	-349.890944	-349.881436	-349.880492	-349.925807	35.918	
C	-0.2524323756	-1.1610842633	-0.0885329917	-0.459496
C	-0.1108504519	 0.0316209478	-0.0348329797	 0.347947
C	 0.0794272368	 1.4853559622	-0.0003581757	-0.241534
C	 1.5651145866	 1.8326114122	 0.0512311536	 0.046848
C	 2.0358371771	 3.0895346231	 0.7352949873	-0.276807
C	 2.3275557437	 1.739050813	 1.3447959642	-0.270013
C	-0.6188022317	 2.1477902329	-1.1853483645	 0.046844
C	-2.1052870641	 2.3787350642	-1.165172421	-0.270011
C	-1.156988365	 3.5502899159	-1.0725131478	-0.276809
H	-0.3838302557	-2.2139887886	-0.1245568513	 0.190433
H	-0.3868558506	 1.8666558948	 0.9203298865	 0.091063
H	 2.1056244635	 1.538422416	-0.8443189568	 0.088492
H	 2.8524731067	 3.6444602027	 0.2869777694	 0.111362
H	 1.2945721285	 3.714070363	 1.2225817607	 0.109673
H	 1.7765818047	 1.4553449829	 2.2356946045	 0.113866
H	 3.3449302062	 1.3654335503	 1.3176034351	 0.112375
H	-0.1914172689	 1.8699516371	-2.144960023	 0.088492
H	-2.662184959	 2.2323111707	-2.0837600397	 0.112375
H	-2.6479262156	 2.0937892651	-0.2695665703	 0.113866
H	-1.0700782659	 4.0552984855	-0.1162808579	 0.109672
H	-1.0600522599	 4.2090872923	-1.9283254119	 0.111363
61.3752	74.7274	130.5006	140.3008	170.6264	310.884	320.5494	357.1536	426.9447	505.5884	523.3589	627.4331	627.9784	754.8586	774.9577	819.7061	829.0617	853.5998	867.9388	919.8831	937.4533	955.1613	985.491	1047.3282	1052.8404	1061.9627	1075.3317	1077.6015	1128.3875	1133.1106	1138.9334	1191.6806	1192.9158	1200.3867	1222.3895	1233.7846	1275.3785	1297.2194	1405.8834	1407.8897	1469.8313	1472.3003	1502.7013	1509.4858	2232.7087	2994.2046	3129.8915	3131.2783	3134.0346	3135.483	3142.1656	3146.8477	3207.0981	3208.4424	3222.2023	3223.3834	3505.1278
C#CC(C1CC1)C1CC1	C#CC(C1CC1)C1CC1	
InChI=1S/C9H12/c1-2-9(7-3-4-7)8-5-6-8/h1,7-9H,3-6H2	InChI=1S/C9H12/c1-2-9(7-3-4-7)8-5-6-8/h1,7-9H,3-6H2
