16
gdb 107089	4.72513	0.92723	0.90745	4.3265	69.7	-0.2816	0.018	0.2996	1285.1208	0.123591	-437.852543	-437.844138	-437.843194	-437.886178	30.59	
O	 0.0775678509	 1.3879254598	-0.2914402183	-0.408355
C	 0.0860279486	 0.014093792	 0.0550157834	-0.182299
C	-1.3004042061	-0.5130238479	 0.2470935152	 0.398904
C	-2.31700108	-0.1977767526	 1.3556510957	-0.304701
C	-2.9464508671	-1.6257673709	 1.1103845798	-0.17885
C	-4.3514756194	-1.7074739234	 0.7433522094	 0.285397
N	-5.4686094699	-1.7738300167	 0.454460078	-0.321487
C	-1.9134813907	-1.8258277358	-0.0247205282	-0.059436
O	-2.0784096973	-0.7544358625	-0.9442361615	-0.274292
H	-0.4002818046	 1.4700045172	-1.1244830108	 0.297704
H	 0.5991020599	-0.6005427765	-0.6992371814	 0.106504
H	 0.6480372593	-0.0599007263	 0.9917870805	 0.11986
H	-1.8808723276	-0.1119472753	 2.3522426999	 0.125809
H	-2.9676514056	 0.6536196546	 1.1559642014	 0.140632
H	-2.748915553	-2.291321872	 1.9545552953	 0.132908
H	-1.5094761975	-2.7602285936	-0.3966776986	 0.121701
67.9946	85.8613	134.2417	205.373	291.6178	313.4733	398.8144	417.429	455.8734	530.8755	636.2489	709.526	726.5673	804.6668	888.7696	907.7937	930.6248	976.8672	1000.3506	1033.3523	1069.6221	1082.4219	1136.074	1168.9624	1195.7637	1231.3097	1243.3423	1289.9245	1332.2294	1371.5462	1417.8213	1458.3456	1483.6952	1486.5658	2359.5325	3000.7583	3080.5202	3084.6427	3090.8578	3153.7638	3191.2796	3804.9233
OCC12CC(C#N)C1O2	OC[C@]12C[C@@H](C#N)[C@H]1O2	
InChI=1S/C6H7NO2/c7-2-4-1-6(3-8)5(4)9-6/h4-5,8H,1,3H2	InChI=1S/C6H7NO2/c7-2-4-1-6(3-8)5(4)9-6/h4-5,8H,1,3H2/t4-,5+,6+/m0/s1
