23
gdb 123048	6.28143	0.5466	0.52613	1.4368	83.58	-0.2443	0.0773	0.3216	2175.8098	0.204291	-425.401609	-425.391069	-425.390125	-425.439149	36.409	
C	-0.3024439403	 1.4776893861	-0.3810632768	-0.382485
C	-0.3420133122	-0.0369035289	-0.5983400061	-0.183043
C	 1.0056839593	-0.5964980611	-1.0320260738	-0.025082
O	 0.8870859622	-1.9935689422	-1.2047281821	-0.253605
C	 2.0852757702	-2.6141164733	-1.6086240371	-0.072865
C	 1.8164463835	-4.1018952841	-1.7415244993	 0.134772
C	 1.0300222303	-4.5792543991	-2.980592575	-0.279379
C	 2.3192811533	-5.3546527778	-3.318929167	-0.061084
O	 3.0026187388	-4.8095886202	-2.1678700981	-0.295945
H	 0.4208861098	 1.7510740461	 0.3950960081	 0.117004
H	-0.018965836	 2.0059311896	-1.2981688544	 0.116291
H	-1.2805048139	 1.8557947705	-0.0701856812	 0.117601
H	-0.6494418296	-0.5458203386	 0.3224016017	 0.106978
H	-1.0870406353	-0.2930674643	-1.3603787917	 0.105507
H	 1.3337435518	-0.1217668133	-1.9734565183	 0.082723
H	 1.7770125636	-0.3704393194	-0.275109899	 0.084416
H	 2.4384030601	-2.2116935035	-2.5735085708	 0.083559
H	 2.8902224523	-2.4523231087	-0.8717216826	 0.093637
H	 1.4367893188	-4.4882752989	-0.7865575566	 0.081729
H	 0.1465386148	-5.1856284992	-2.7791856605	 0.112345
H	 0.7667750111	-3.7821512371	-3.678259815	 0.112235
H	 2.2390840843	-6.4474419607	-3.2629494473	 0.101722
H	 2.820726123	-5.0857929017	-4.2562245871	 0.102969
41.0408	56.36	67.8953	94.9094	130.2095	151.1102	227.6227	236.4667	304.2413	364.6801	464.193	508.102	765.0212	768.0915	804.3557	882.7064	900.3383	912.336	941.9636	948.8173	1006.4849	1025.9195	1047.1738	1059.5259	1121.2935	1146.9502	1160.814	1163.9155	1175.5675	1196.8541	1213.226	1252.7484	1255.7783	1269.2208	1276.8779	1315.4297	1329.7059	1349.1279	1377.7307	1405.5709	1411.5258	1452.6276	1490.754	1491.7762	1500.4062	1505.8981	1514.1023	1530.4221	1534.4113	2941.7847	2957.141	2970.2316	2984.2502	3014.8229	3024.3417	3031.7638	3038.7627	3055.4334	3071.5825	3083.404	3100.1382	3108.5486	3138.9737
CCCOCC1CCO1	CCCOC[C@H]1CCO1	
InChI=1S/C7H14O2/c1-2-4-8-6-7-3-5-9-7/h7H,2-6H2,1H3	InChI=1S/C7H14O2/c1-2-4-8-6-7-3-5-9-7/h7H,2-6H2,1H3/t7-/m1/s1
