17
gdb 107096	2.54936	1.35693	1.05783	4.8878	72.79	-0.2628	0.0081	0.2709	1150.88	0.136205	-417.967174	-417.958834	-417.95789	-418.00054	31.115	
O	 0.2620476138	 0.4609336003	-1.0362047156	-0.411394
C	-0.2170794994	 0.2945223948	 0.2851653684	-0.162126
C	-1.564604867	-0.3671409306	 0.3109747201	 0.314966
C	-1.9872731395	-1.3652830145	 1.3092845364	-0.288016
N	-1.6995838482	-1.8482770112	-0.059457497	-0.173003
C	-2.9288703951	-1.4846446386	-0.8646197653	-0.100905
C	-2.7294463551	 0.0376849579	-0.5925432206	-0.32101
C	-2.7911421089	-1.8850795387	-2.2587900355	 0.288482
N	-2.6858225008	-2.182874002	-3.3703387962	-0.317333
H	 0.329409041	-0.4189353521	-1.4259449287	 0.297188
H	 0.4828274735	-0.2862749576	 0.90529578	 0.10043
H	-0.283155926	 1.3007583393	 0.7152425402	 0.120705
H	-1.2500950321	-1.7068088695	 2.0291227021	 0.133913
H	-3.0136639334	-1.3810303192	 1.671272622	 0.119863
H	-3.8452589828	-1.9249536185	-0.4579248152	 0.12695
H	-3.5617768479	 0.5734848845	-0.1308388136	 0.117405
H	-2.3899551421	 0.5712005056	-1.4797050915	 0.153885
65.4416	101.7354	176.2167	209.0636	289.1644	321.7422	432.9645	444.6341	496.7421	515.4616	558.3317	642.6183	723.1527	789.9535	851.4339	885.4999	935.9878	961.9334	978.2495	1042.8578	1074.0555	1077.3875	1116.8692	1131.4414	1155.9677	1195.8696	1227.2671	1248.2598	1316.0883	1349.8176	1358.3554	1403.4982	1430.838	1481.6799	1487.4357	1507.5938	2361.6755	2990.8884	3056.3205	3065.746	3077.0895	3103.5052	3152.3145	3199.8284	3793.9033
OCC12CN1C(C2)C#N	OC[C@]12CN1[C@@H](C2)C#N	
InChI=1S/C6H8N2O/c7-2-5-1-6(4-9)3-8(5)6/h5,9H,1,3-4H2	InChI=1S/C6H8N2O/c7-2-5-1-6(4-9)3-8(5)6/h5,9H,1,3-4H2/t5-,6-,8?/m0/s1
