21
gdb 52420	4.6986	0.55986	0.53602	2.7189	81.7	-0.2363	0.033	0.2693	2062.8254	0.182356	-420.399395	-420.389393	-420.388449	-420.43667	35.023	
O	 0.4131100283	 0.2441172209	 1.0917898758	-0.323141
C	 0.2285625549	 1.2749261894	 0.4795939237	 0.153788
N	 1.0908443577	 1.82510508	-0.4166186382	-0.274406
C	 2.3935829734	 1.2541291737	-0.7208739865	-0.162723
C	 3.5546524554	 2.0998875155	-0.1873078287	-0.18555
C	 4.9156551332	 1.4848563228	-0.5143453336	-0.138223
N	 5.997108897	 2.3436618099	-0.0459028078	-0.062939
C	 6.4565873553	 2.113029242	 1.3209240808	-0.22055
C	 7.2899623248	 1.7008753637	 0.1580829984	-0.221026
H	-0.6911480036	 1.8842686124	 0.587360535	 0.07224
H	 0.838149754	 2.7069196805	-0.8339866399	 0.245916
H	 2.3982120892	 0.2603551722	-0.2664005609	 0.149897
H	 2.4877233633	 1.1244658887	-1.8068453353	 0.107293
H	 3.5149586017	 3.1105380149	-0.6117641638	 0.102024
H	 3.4486312293	 2.2076462971	 0.8983761323	 0.114626
H	 4.977111369	 0.4678487671	-0.0826944986	 0.084347
H	 5.0243430458	 1.3750445667	-1.6011480553	 0.101703
H	 6.7064232605	 3.0009015655	 1.8944016743	 0.117469
H	 5.977408407	 1.3197989038	 1.8933093784	 0.112626
H	 7.3673701708	 0.6332312369	-0.0426220935	 0.10956
H	 8.1591081932	 2.2829443462	-0.1347853966	 0.11707
21.361	53.1754	91.4224	109.464	146.1866	218.7315	257.9263	341.3029	347.9568	413.1523	502.5745	538.7161	734.7253	767.7419	786.5037	835.1941	895.3447	902.0767	980.2039	1019.4776	1031.2166	1035.3126	1056.485	1085.1601	1113.4583	1118.3359	1144.744	1175.1658	1186.1769	1215.0649	1247.4509	1291.8805	1316.8563	1326.401	1329.0142	1397.3952	1413.1201	1431.7118	1483.7973	1487.2178	1494.0855	1506.9592	1524.046	1536.0095	1806.4711	2924.4782	2932.5415	3021.5376	3032.9665	3035.7809	3077.0562	3092.4052	3097.0226	3115.5778	3176.3621	3190.6795	3631.9027
O=CNCCCN1CC1	O=CNCCCN1CC1	
InChI=1S/C6H12N2O/c9-6-7-2-1-3-8-4-5-8/h6H,1-5H2,(H,7,9)	InChI=1S/C6H12N2O/c9-6-7-2-1-3-8-4-5-8/h6H,1-5H2,(H,7,9)
