18
gdb 35486	3.1076	1.50639	1.43622	4.3002	77.78	-0.2709	0.0396	0.3106	980.2409	0.151012	-364.810892	-364.803988	-364.803043	-364.842219	27.937	
N	-0.0994580761	-1.1942990794	-0.200701029	-0.34287
C	-0.0626897426	-0.0435840047	-0.0919039247	 0.28444
C	-0.0158992432	 1.4136923495	 0.0397774058	-0.17636
C	-0.672983797	 1.9433966344	 1.3610311718	-0.230558
C	 0.5227049923	 2.3772037023	 2.2163250289	-0.036976
C	 1.4956393601	 1.1801525949	 2.4786094816	-0.245747
C	 2.3135406842	 1.6349904975	 1.2697067653	-0.052345
C	 1.5640039406	 2.9584437675	 1.2165873017	-0.093446
C	 1.4154110852	 1.9745881023	 0.0936560332	-0.038445
H	-0.5370167366	 1.8265028501	-0.8302768854	 0.12274
H	-1.3102418749	 2.8011401275	 1.1236342662	 0.10851
H	-1.2934852301	 1.1864444654	 1.8476406097	 0.122607
H	 0.2539178837	 2.9753700584	 3.0863328564	 0.07473
H	 2.0566560438	 1.3195491736	 3.4058518411	 0.106469
H	 1.0706860946	 0.1710946613	 2.4672225011	 0.115316
H	 3.3678548441	 1.4453632155	 1.1067888301	 0.090761
H	 1.9154811052	 3.9771581841	 1.1235414351	 0.091682
H	 1.9242564868	 2.1599407897	-0.8448897189	 0.09949
100.8671	155.6829	276.9729	365.3593	397.6008	494.7263	568.9004	635.6556	683.7866	752.12	794.0871	809.3465	824.0032	861.854	883.0996	937.9556	969.1594	981.706	1001.8491	1012.9389	1036.7135	1045.081	1071.7205	1088.4797	1117.8886	1148.1662	1185.4653	1226.7076	1233.2297	1243.7523	1283.423	1290.9593	1317.5067	1337.4735	1352.1524	1400.4329	1490.2937	1502.2246	2351.0735	3047.4919	3048.7648	3059.3711	3102.5805	3107.78	3119.1616	3178.0436	3186.7416	3206.0669
N#CC1CC2CC3C2C13	N#C[C@H]1C[C@H]2C[C@@H]3[C@H]2[C@H]13	
InChI=1S/C8H9N/c9-3-5-1-4-2-6-7(4)8(5)6/h4-8H,1-2H2	InChI=1S/C8H9N/c9-3-5-1-4-2-6-7(4)8(5)6/h4-8H,1-2H2/t4-,5+,6+,7-,8+/m0/s1
