24
gdb 86612	2.98462	1.07912	0.91045	1.0389	89.8	-0.2209	0.0853	0.3062	1412.4568	0.217087	-368.375698	-368.365981	-368.365036	-368.410208	37.13	
C	-0.2676837713	 1.5862145906	-0.0075160567	-0.39357
C	 0.0429615146	 0.0962165219	-0.1347540938	-0.00441
C	 1.3020967654	-0.2168932986	-0.9990725387	-0.276303
C	 2.1095472954	-0.3822329371	 0.3297859946	 0.064516
C	 0.7712709425	-0.5637709428	 1.0850900732	 0.032434
C	 0.6287337865	-0.0088801869	 2.4939768991	-0.421917
N	 3.1351059512	-1.3829947391	 0.5602437361	-0.083611
C	 3.0735970145	-2.666407824	-0.1238830226	-0.228372
C	 4.0986167764	-1.6508597011	-0.4983114186	-0.22144
H	 0.61548144	 2.1688708843	 0.2763577961	 0.115429
H	-0.6281095149	 1.9841708055	-0.9624584197	 0.111474
H	-1.0423478038	 1.7725145651	 0.7439245107	 0.114326
H	-0.8638623079	-0.4296479349	-0.4483430314	 0.063222
H	 1.1877495751	-1.1522635563	-1.5533376241	 0.097916
H	 1.6341520963	 0.560404937	-1.6928939631	 0.09112
H	 2.5599262053	 0.5814083276	 0.595277502	 0.076559
H	 0.5301166572	-1.6339081665	 1.0882421893	 0.069853
H	 0.848528101	 1.0631320853	 2.5316793139	 0.111365
H	-0.3848362368	-0.154925334	 2.8842779701	 0.10928
H	 1.3235739246	-0.513488414	 3.1734816634	 0.124943
H	 3.3465468299	-3.5278799562	 0.4797122699	 0.113511
H	 2.276023197	-2.8541613766	-0.8394936853	 0.109491
H	 3.9613569681	-1.1481631023	-1.4544861274	 0.111001
H	 5.1339472537	-1.7625464869	-0.1870687069	 0.113181
69.5743	95.8362	153.9623	198.3421	226.1202	241.4213	259.0328	274.0387	365.9179	427.5801	480.7903	543.0328	595.544	767.9216	786.7065	813.6095	850.3931	891.7437	901.4349	909.8236	946.1693	990.4369	1022.3546	1025.1356	1056.266	1074.0028	1107.1551	1115.9108	1118.9746	1140.4531	1161.8121	1181.1165	1182.8807	1200.925	1234.2219	1264.8899	1269.9291	1292.0261	1335.1965	1363.6635	1374.1165	1403.0415	1407.8862	1414.8503	1482.0899	1491.2816	1492.6964	1496.0839	1503.5261	1504.0059	1521.3097	3022.6227	3026.404	3030.1692	3039.4039	3046.2212	3056.4004	3091.7122	3092.8655	3093.0235	3096.8142	3100.1517	3101.5684	3106.6811	3172.0609	3186.8465
CC1CC(C1C)N1CC1	C[C@H]1C[C@@H]([C@H]1C)N1CC1	
InChI=1S/C8H15N/c1-6-5-8(7(6)2)9-3-4-9/h6-8H,3-5H2,1-2H3	InChI=1S/C8H15N/c1-6-5-8(7(6)2)9-3-4-9/h6-8H,3-5H2,1-2H3/t6-,7-,8-/m0/s1
