17
gdb 76537	2.66195	1.23564	1.17026	2.9136	71.24	-0.2298	-0.0178	0.212	1133.0907	0.134124	-458.943027	-458.934259	-458.933315	-458.976719	32.506	
O	 0.1607836926	 1.3123320825	 0.0154087984	-0.419612
C	 0.0670077382	-0.0688583088	 0.0442564821	 0.044218
C	-0.4967106555	-0.7179030918	 1.2672135177	-0.046058
O	-0.9426616532	 0.154089447	 2.2736163817	-0.427276
C	-1.3355367786	-0.7046544774	 0.01352132	 0.161298
C	-2.6456189684	 0.0291039334	-0.2967662375	-0.325478
C	-3.0400162555	-1.1422970887	-1.2593430274	-0.3418
C	-1.744970216	-1.8667406839	-0.8354184945	 0.334589
O	-1.2553928185	-2.9367729224	-1.0741347993	-0.321198
H	-0.2645888546	 1.6279730542	 0.8261505493	 0.290638
H	 0.8483010864	-0.5591226383	-0.5275614543	 0.127282
H	-0.1225191045	-1.6845362934	 1.6001200621	 0.115988
H	-0.2302418873	 0.2516254203	 2.9161173099	 0.301903
H	-3.3111511852	 0.1437428034	 0.560903243	 0.121057
H	-2.5082121152	 1.0002410112	-0.7767500483	 0.119392
H	-3.957001531	-1.6832937084	-1.0109374693	 0.131125
H	-3.0667643834	-0.882899899	-2.3214889135	 0.133933
77.6682	107.7893	146.6189	184.0616	232.0832	282.275	319.1428	469.7522	505.2832	509.8425	569.5094	608.4928	659.9418	742.8152	749.1992	804.6722	858.9084	925.7706	977.0886	1030.2937	1053.9434	1070.6488	1095.7523	1127.0435	1155.6152	1169.406	1207.6825	1215.6932	1237.3587	1270.0001	1304.179	1322.9362	1408.963	1439.6261	1467.7878	1496.5792	1868.9567	3063.6732	3075.631	3112.5919	3121.4296	3130.4707	3170.1191	3730.1998	3796.3365
OC1C(O)C11CCC1=O	O[C@H]1[C@@H](O)[C@]21CCC2=O	
InChI=1S/C6H8O3/c7-3-1-2-6(3)4(8)5(6)9/h4-5,8-9H,1-2H2	InChI=1S/C6H8O3/c7-3-1-2-6(3)4(8)5(6)9/h4-5,8-9H,1-2H2/t4-,5+,6+
