16
gdb 53765	6.46383	0.47183	0.45325	3.8302	78.11	-0.2555	-0.0365	0.219	2270.0783	0.121048	-437.897494	-437.886886	-437.885941	-437.936696	34.368	
N	 0.0055744785	 1.3213350864	-0.1996789117	-0.520138
C	 0.0495301442	 0.0214747762	 0.2133764995	 0.264134
O	 1.0647617374	-0.5261006931	 0.5972113903	-0.332969
C	-1.238909799	-0.6570423982	 0.1605794474	 0.106548
C	-2.2752518245	-1.2724816106	 0.1434085958	 0.003307
C	-3.5038492885	-2.0524403125	 0.1235075136	-0.373429
C	-3.2606639592	-3.5310049319	-0.2627723947	-0.262781
C	-4.5268454937	-4.350871426	-0.1391247782	 0.155116
O	-4.9813875034	-5.0494441741	-1.0058037084	-0.226971
H	 0.8653311061	 1.84478006	-0.2209306924	 0.267223
H	-0.8391155597	 1.735519915	-0.5521681596	 0.266216
H	-3.973953749	-2.0052345212	 1.1151876305	 0.145606
H	-4.2193722641	-1.6022868255	-0.5758251313	 0.148604
H	-2.873266539	-3.6182052972	-1.2801229255	 0.13998
H	-2.5167704268	-3.9545863114	 0.4247311434	 0.144803
H	-5.0321096292	-4.2646373159	 0.8526826113	 0.074751
13.4208	52.3399	58.0997	77.3791	90.5548	145.9001	185.3413	272.4338	362.2922	412.4265	485.3904	532.6888	568.7153	609.1407	716.4967	757.6646	773.0623	847.2985	982.39	1070.6862	1087.9088	1090.5356	1092.2193	1198.2724	1264.1213	1304.8198	1348.8981	1362.7351	1430.293	1461.077	1476.1339	1607.7959	1774.8545	1841.3594	2351.1019	2848.175	3018.076	3036.1814	3054.3472	3122.0397	3603.3946	3746.0444
NC(=O)C#CCCC=O	NC(=O)C#CCCC=O	
InChI=1S/C6H7NO2/c7-6(9)4-2-1-3-5-8/h5H,1,3H2,(H2,7,9)	InChI=1S/C6H7NO2/c7-6(9)4-2-1-3-5-8/h5H,1,3H2,(H2,7,9)
