19
gdb 89695	3.55953	1.23132	1.10975	4.5812	80.34	-0.2426	0.0239	0.2665	1150.2351	0.161599	-382.065858	-382.058033	-382.057089	-382.097909	31.192	
C	-0.1380370029	 1.5119956499	-0.006703579	-0.391635
C	 0.075091121	 0.0039518966	 0.0470044753	 0.049886
N	 1.0055458927	-0.4817959368	-1.0326333074	-0.34628
C	 1.9720294463	-1.2666254014	-0.2271129052	 0.233982
C	 1.1034138035	-2.0090248354	 0.8412353922	-0.267878
C	 0.8283404487	-0.5405327854	 1.2815536943	-0.064709
C	 2.3140014973	-0.2548017751	 0.9031569292	-0.243818
C	 2.988510712	-1.9445857448	-1.0058296337	 0.176582
N	 3.7976241301	-2.5109459779	-1.6061803824	-0.342274
H	 0.8042205242	 2.0564713662	 0.0975412561	 0.122803
H	-0.5802512272	 1.7988287952	-0.9653839719	 0.123871
H	-0.8168150405	 1.8336356533	 0.7909109218	 0.111152
H	-0.9003647778	-0.4926104156	-0.0350452438	 0.074592
H	 0.5169075361	-1.0975842206	-1.6759524642	 0.226159
H	 0.2679923116	-2.6078670682	 0.4683925919	 0.101014
H	 1.6959965557	-2.5742997927	 1.5622540452	 0.117572
H	 0.424473765	-0.2973281604	 2.2628740219	 0.080175
H	 3.0206216549	-0.6597064477	 1.6274650302	 0.119013
H	 2.6042210791	 0.7462456906	 0.5837296496	 0.119794
132.2421	148.7546	215.0979	232.7737	300.5466	445.9364	472.7255	496.2001	536.9635	551.6436	578.7722	645.5473	800.3732	821.2758	857.5908	871.3487	908.494	913.7092	969.7957	999.7632	1011.9246	1038.4337	1042.9365	1096.9058	1121.9869	1139.2776	1155.6811	1175.4058	1218.5736	1230.2593	1267.3752	1290.0105	1328.1823	1384.6387	1401.3018	1421.7364	1476.9735	1490.5278	1496.2455	1515.5368	2359.8303	3013.5963	3037.7397	3062.4579	3091.4199	3106.4976	3120.3498	3132.5206	3135.9395	3159.3685	3510.4302
CC1NC2(CC1C2)C#N	C[C@H]1N[C@@]2(C[C@H]1C2)C#N	
InChI=1S/C7H10N2/c1-5-6-2-7(3-6,4-8)9-5/h5-6,9H,2-3H2,1H3	InChI=1S/C7H10N2/c1-5-6-2-7(3-6,4-8)9-5/h5-6,9H,2-3H2,1H3/t5-,6-,7+/m1/s1
