20
gdb 10524	3.81036	1.138	0.99884	1.8784	70.99	-0.2608	0.0864	0.3473	1247.7704	0.175679	-386.123493	-386.11431	-386.113365	-386.1577	33.405	
C	 0.2093946261	 1.5740506186	 0.0481130875	-0.382256
C	 0.271665851	 0.0446683475	 0.063387024	-0.164666
C	 0.3808370263	-0.5520420971	-1.3486711944	-0.266615
C	 0.525524364	-2.0615613467	-1.3717965191	 0.37801
C	-0.7024467554	-2.8836061005	-0.9909540703	-0.13174
O	-0.3968085552	-4.2515846191	-0.8412505099	-0.419504
C	 1.5559499431	-2.7010148411	-2.1995478977	-0.228051
O	 1.7360580736	-2.5735222538	-0.7767777784	-0.291192
H	 1.102422579	 2.002307053	-0.4205569856	 0.116093
H	-0.6612898708	 1.931358885	-0.5133237863	 0.113677
H	 0.1396546463	 1.9784183776	 1.0624702985	 0.114887
H	 1.1363378777	-0.2894381117	 0.6479857526	 0.116925
H	-0.6166767334	-0.3483757705	 0.5714280597	 0.100589
H	-0.5011053478	-0.2735132695	-1.9421620766	 0.100025
H	 1.2466241668	-0.1086911036	-1.8540206426	 0.102259
H	-1.1439248577	-2.4711974249	-0.0695578658	 0.094645
H	-1.4588443282	-2.7987363603	-1.7799716926	 0.113914
H	 0.4317736439	-4.2746794647	-0.3429287685	 0.291504
H	 1.4045648935	-3.7190913523	-2.5493566997	 0.128005
H	 2.2192353972	-2.0827925961	-2.8018642848	 0.113489
64.5144	87.4131	108.702	192.5189	246.4001	253.7363	320.0875	349.7434	359.4643	464.1277	506.8735	602.7799	717.5914	742.0902	832.0157	870.4269	886.942	922.6682	959.7984	1042.1051	1053.9248	1072.8949	1102.5586	1126.4203	1136.6681	1176.8481	1222.4549	1243.993	1276.5108	1307.2326	1332.1494	1370.9914	1383.6047	1413.817	1427.4346	1442.1495	1474.8382	1493.7136	1500.1589	1505.5206	1510.4062	1518.8303	2977.0641	3015.6448	3029.1383	3036.2912	3055.1504	3059.5754	3074.6106	3095.9813	3099.4959	3104.507	3191.0674	3752.5833
CCCC1(CO)CO1	CCC[C@@]1(CO)CO1	
InChI=1S/C6H12O2/c1-2-3-6(4-7)5-8-6/h7H,2-5H2,1H3	InChI=1S/C6H12O2/c1-2-3-6(4-7)5-8-6/h7H,2-5H2,1H3/t6-/m1/s1
