15
gdb 19329	4.77923	1.69062	1.49663	4.4489	69.76	-0.2345	0.015	0.2495	849.7115	0.119886	-325.470754	-325.464302	-325.463358	-325.501143	25.646	
N	 0.0938992331	-1.1300309742	-0.0327624038	-0.353425
C	 0.0432821274	 0.0276131486	-0.021495699	 0.19725
C	-0.0287933666	 1.4463415618	 0.0130416765	 0.192867
C	 0.2632722617	 2.3054581635	-1.2027514295	-0.343322
C	 1.1338670942	 2.4580892904	 0.0013486702	-0.094667
C	 0.4845711226	 3.2150794109	 1.188895884	-0.0507
C	-0.925382777	 3.6760923706	 0.9310158547	-0.305747
C	-0.6645790365	 2.2237691326	 1.2092363393	-0.098562
H	 0.7202567429	 1.7545610443	-2.0183536342	 0.14248
H	-0.4348531955	 3.0666860594	-1.5291876378	 0.130175
H	 2.1863206615	 2.2097473255	-0.0221616775	 0.120505
H	 1.0688223295	 3.5770635393	 2.0236685225	 0.104652
H	-1.3708228601	 4.2021437611	 1.7701447068	 0.126327
H	-1.263241392	 4.04658262	-0.0297548914	 0.120956
H	-1.0890106753	 1.6972104162	 2.0528425691	 0.111211
147.8078	161.9833	324.4338	421.1552	464.0856	521.3218	544.3213	594.9693	704.2735	764.9689	786.8006	826.3371	886.638	909.6203	928.5895	964.3226	992.5707	1026.856	1032.8185	1063.751	1072.7103	1097.3228	1102.8849	1180.3039	1190.4349	1261.2286	1290.6591	1316.7293	1380.9658	1472.8996	1510.1965	2337.0778	3131.9682	3145.6136	3201.8549	3207.1456	3212.1316	3217.3593	3226.6222
N#CC12CC1C1CC21	N#C[C@]12C[C@H]1[C@H]1C[C@@H]21	
InChI=1S/C7H7N/c8-3-7-2-6(7)4-1-5(4)7/h4-6H,1-2H2	InChI=1S/C7H7N/c8-3-7-2-6(7)4-1-5(4)7/h4-6H,1-2H2/t4-,5+,6-,7-/m0/s1
