18
gdb 80150	2.24795	1.72763	1.4645	1.3304	71.89	-0.2262	0.0159	0.2421	994.7333	0.147986	-439.076439	-439.068038	-439.067094	-439.109159	31.832	
C	 0.0446267546	 1.5672136958	-0.0481586938	-0.427067
C	 0.0952510465	 0.0601159567	 0.0659739991	-0.052507
C	 1.3674934616	-0.7761538211	-0.142079346	-0.099026
N	 2.6333332208	-0.1401048951	-0.3405005134	-0.246749
C	 3.0948591575	 0.5753667396	 0.5946438764	 0.110217
O	 2.5637147081	 0.8361465202	 1.8165201346	-0.227892
C	 1.5167908164	-0.0212340931	 2.2962100417	-0.137635
C	 0.6987839945	-0.698085614	 1.2083134076	 0.306882
O	-0.0678746792	-1.7653100669	 1.692269398	-0.459887
H	 0.9229273088	 2.0539152923	 0.3778168802	 0.138901
H	-0.0310635588	 1.8700293773	-1.0973385545	 0.127775
H	-0.8362636835	 1.955731847	 0.4743112208	 0.121842
H	-0.7859108898	-0.4440365624	-0.3223688396	 0.104171
H	 1.240502881	-1.6837954844	-0.7238256491	 0.097068
H	 4.0308192316	 1.1165639224	 0.4762482509	 0.126718
H	 1.9782105812	-0.8087454181	 2.9082063878	 0.105996
H	 0.8968928821	 0.5947790841	 2.9548320084	 0.127399
H	 0.5257765365	-2.5004048505	 1.886914191	 0.283793
117.6968	136.5342	169.6885	217.5424	244.6757	333.5638	354.0449	442.7723	453.1477	513.6998	519.5783	618.6425	715.5958	784.9319	839.1377	914.7545	931.7705	962.2022	969.1442	1026.3549	1035.3787	1070.34	1110.5477	1133.6436	1146.459	1171.324	1238.6338	1246.9183	1305.5798	1334.0103	1354.7905	1392.5125	1412.5711	1420.3223	1464.679	1495.5709	1500.6544	1517.0865	1723.8295	3007.6834	3041.7396	3076.5328	3097.077	3136.7277	3150.5609	3159.0399	3169.4229	3779.2354
CC1C2N=COCC12O	C[C@H]1[C@H]2N=COC[C@@]12O	
InChI=1S/C6H9NO2/c1-4-5-6(4,8)2-9-3-7-5/h3-5,8H,2H2,1H3	InChI=1S/C6H9NO2/c1-4-5-6(4,8)2-9-3-7-5/h3-5,8H,2H2,1H3/t4-,5+,6+/m0/s1
