20
gdb 22299	2.46244	1.27055	0.87144	1.5602	89.72	-0.2149	-0.0228	0.1921	1344.9943	0.171477	-403.14539	-403.136525	-403.135581	-403.178764	34.104	
C	 0.007973028	 1.5232709705	 0.0479807116	-0.47345
C	-0.0176399523	 0.0233816904	-0.0209295277	 0.291811
C	-0.0644473158	-0.6348108351	-1.1929448094	-0.205021
C	-0.0359180957	-2.0901933511	-1.2777043566	 0.352903
C	 0.2466572659	-2.8558706271	-0.0072962158	-0.279026
C	-0.4328748498	-2.1720517932	 1.18575584	-0.219732
C	 0.0166526455	-0.7096270597	 1.3006096173	-0.2851
N	-0.2063254887	-2.7888136443	-2.343616233	-0.218875
O	-0.4427037088	-1.9897320395	-3.4763399812	-0.397426
H	 0.8901675832	 1.8741673849	 0.5997682198	 0.127183
H	 0.0234397729	 1.9767620152	-0.9460337989	 0.12689
H	-0.8659081067	 1.9073969784	 0.5902082986	 0.127772
H	-0.1157500358	-0.0872203409	-2.1263399884	 0.104306
H	-0.0782336281	-3.8921617819	-0.1259880395	 0.11479
H	 1.3329519217	-2.8743274958	 0.1618903028	 0.10876
H	-1.5204729158	-2.2050444813	 1.0483557678	 0.108322
H	-0.2111257681	-2.7109308094	 2.1125263595	 0.096428
H	 1.0404900558	-0.6595969707	 1.7035772104	 0.111933
H	-0.6055760002	-0.1747450593	 2.0296887506	 0.103322
H	-0.5260660072	-2.6514188002	-4.170003458	 0.304212
85.7184	153.2944	198.0211	202.5765	241.3983	322.3064	356.9279	390.4502	413.0246	447.7181	481.4548	554.6602	600.8668	666.537	773.3671	839.6094	875.6035	900.8862	920.9265	972.4304	984.2489	1036.7044	1039.5063	1060.8995	1091.0458	1164.8446	1169.3628	1216.3127	1274.0787	1290.6337	1340.4529	1351.1125	1370.2206	1390.9306	1409.3409	1415.9839	1466.4479	1477.1976	1478.9546	1486.4879	1494.4686	1686.3558	1702.4791	2988.6468	3006.7922	3014.132	3029.1306	3042.7934	3058.8935	3079.533	3101.901	3118.1608	3205.1861	3828.7177
CC1=CC(CCC1)=NO	CC1=CC(=NO)CCC1	
InChI=1S/C7H11NO/c1-6-3-2-4-7(5-6)8-9/h5,9H,2-4H2,1H3	InChI=1S/C7H11NO/c1-6-3-2-4-7(5-6)8-9/h5,9H,2-4H2,1H3
