18
gdb 11797	4.00004	1.72831	1.59482	2.1034	66.6	-0.2493	0.072	0.3213	874.3996	0.155356	-384.919564	-384.912477	-384.911533	-384.950763	28.	
O	 0.0222173872	 1.3737663869	-0.2587938939	-0.41795
C	 0.0299413483	-0.0011426104	 0.0866746019	-0.169773
C	-1.371332543	-0.5511788949	 0.1391032452	 0.399573
C	-1.7397292188	-2.0539491332	 0.1366165311	-0.284955
C	-2.9601822596	-1.4397015775	-0.5829094538	 0.08221
C	-3.6779551109	-0.6350734353	 0.5201512628	-0.217104
C	-2.4124472998	 0.0741503639	 1.0976693701	-0.246861
O	-2.065586638	-0.4339365915	-1.1578436581	-0.347097
H	-0.487897358	 1.4452629953	-1.0743355853	 0.296586
H	 0.6277462596	-0.5915816353	-0.6244428976	 0.092517
H	 0.5040607114	-0.0795320809	 1.0713365078	 0.110662
H	-1.1089905239	-2.6292455765	-0.5424507291	 0.108675
H	-1.883560254	-2.5693927635	 1.0898056471	 0.094119
H	-3.5533713049	-1.9784206598	-1.3215275004	 0.079184
H	-4.3996241543	 0.0656333624	 0.0954266704	 0.108138
H	-4.1938152386	-1.272004877	 1.2438632437	 0.098479
H	-2.2156588602	-0.1680604055	 2.1456406544	 0.09709
H	-2.4349955724	 1.1587850127	 0.9875818538	 0.116508
95.3119	165.3327	277.5397	305.4586	402.4983	422.9541	461.0681	558.3842	641.0681	726.1855	816.3277	824.9695	835.553	885.0568	885.8947	943.3557	958.3289	985.6604	1014.7148	1039.5885	1064.5131	1098.3333	1146.2811	1164.2243	1180.8817	1221.3566	1234.8046	1250.0601	1281.0603	1292.3362	1312.4703	1343.7978	1386.5211	1437.5893	1480.4769	1483.3046	1494.9618	1507.1392	2988.5169	3062.9024	3063.799	3070.4794	3074.2917	3112.9013	3125.3198	3134.0079	3140.3192	3795.4181
OCC12CC(CC1)O2	OC[C@@]12C[C@@H](CC1)O2	
InChI=1S/C6H10O2/c7-4-6-2-1-5(3-6)8-6/h5,7H,1-4H2	InChI=1S/C6H10O2/c7-4-6-2-1-5(3-6)8-6/h5,7H,1-4H2/t5-,6+/m1/s1
