19
gdb 36206	3.78805	1.09982	1.01748	0.5292	86.18	-0.2209	0.0137	0.2346	1235.3335	0.159759	-348.688397	-348.680465	-348.679521	-348.721299	31.433	
C	-0.0219931393	-1.1380188893	 0.452922579	-0.460793
C	 0.0068311799	 0.0197006789	 0.1317749238	 0.311405
C	 0.0642355191	 1.4324654969	-0.2466718426	-0.495846
C	 1.4465117174	 2.0081313768	-0.1555096352	 0.375988
C	 2.2076184525	 2.6149464155	-1.0707897052	-0.21006
C	 3.4879622725	 2.9631429358	-0.2960229124	-0.05951
C	 3.7104319624	 1.6239443013	 0.4890563636	-0.203938
C	 2.3293802398	 2.0343548424	 1.106247983	-0.108026
C	 2.8691891326	 3.5049867819	 1.0387428502	-0.208526
H	-0.0537847689	-2.1622002791	 0.7307296072	 0.195938
H	-0.3173909217	 1.5576995617	-1.2673764826	 0.136119
H	-0.6200701871	 1.9956409347	 0.4058130148	 0.137035
H	 2.0036120496	 2.8238359902	-2.1118726021	 0.096547
H	 4.2931684291	 3.4769012458	-0.8203952769	 0.059239
H	 3.7450918258	 0.6987688432	-0.0904525719	 0.097408
H	 4.5369111356	 1.6706015815	 1.2055634535	 0.090492
H	 1.9385064135	 1.5879432905	 2.0201817649	 0.066129
H	 3.6160204895	 3.7285761871	 1.8075014389	 0.091443
H	 2.1345484377	 4.3106458442	 0.9629491899	 0.088957
56.1984	87.9626	211.8293	290.243	340.5567	432.8436	492.0995	519.4076	581.4762	618.3796	639.1495	688.2735	787.7986	792.7974	832.5496	840.7921	864.4012	882.848	932.7494	941.4971	955.3519	1003.6695	1012.7368	1065.0693	1076.4518	1106.4954	1109.2675	1173.9352	1199.6736	1225.2767	1233.4084	1240.8808	1249.606	1272.8236	1319.1388	1335.105	1457.1026	1478.12	1514.87	1687.5187	2237.9562	2992.601	3040.9157	3048.7862	3050.968	3110.9319	3119.4387	3119.8828	3122.3006	3224.9522	3506.7922
C#CCC1=CC2CC1C2	C#CCC1=C[C@@H]2C[C@H]1C2	
InChI=1S/C9H10/c1-2-3-8-4-7-5-9(8)6-7/h1,4,7,9H,3,5-6H2	InChI=1S/C9H10/c1-2-3-8-4-7-5-9(8)6-7/h1,4,7,9H,3,5-6H2/t7-,9+
