23
gdb 118194	1.88821	1.09185	0.82121	2.2717	83.31	-0.237	-0.0054	0.2316	1548.8922	0.201445	-425.452756	-425.441174	-425.44023	-425.49135	40.166	
C	-0.4433240965	 1.5843775286	-0.2675264891	-0.38545
C	-0.2114056713	 0.1210652544	 0.0713776699	-0.039932
O	-1.4261881421	-0.579598965	-0.1274093082	-0.268133
C	-1.3447226735	-1.99443216	 0.025541912	 0.155231
C	-1.3161905007	-2.4136418626	 1.4962610411	-0.408489
C	-2.5580083068	-2.5646958522	-0.7186935651	-0.302298
C	-2.4804681266	-2.1927636051	-2.200950024	 0.401244
C	-3.5021934276	-1.1997298244	-2.7091731795	-0.48029
O	-1.6170731578	-2.6618202215	-2.9067580085	-0.317718
H	 0.4753376525	 2.159565646	-0.1184095454	 0.115989
H	-0.7556748314	 1.6928782444	-1.3100922551	 0.126746
H	-1.2243280898	 2.0071790154	 0.3710587062	 0.124925
H	 0.5765244718	-0.3049003394	-0.5705272141	 0.095192
H	 0.1309605015	 0.0252828865	 1.1133353281	 0.088988
H	-0.4394313231	-2.3606814985	-0.4828772386	 0.088969
H	-0.4417893789	-2.0053454065	 2.0109572848	 0.119718
H	-2.2139887429	-2.0588959913	 2.0124507191	 0.121908
H	-1.2723226092	-3.5038072151	 1.5833391791	 0.118307
H	-2.5467591647	-3.6563439152	-0.6391367797	 0.121397
H	-3.4764307144	-2.1888579914	-0.2566675764	 0.102
H	-4.5177305351	-1.5798756218	-2.5476904167	 0.132679
H	-3.4094262585	-0.2764200119	-2.1264823075	 0.154613
H	-3.344779575	-0.9973652233	-3.7693432725	 0.134404
33.736	40.0443	60.3707	96.4122	151.5003	177.4996	204.8191	220.693	254.746	294.927	371.8811	399.1236	447.809	475.0695	526.9125	609.7349	797.0061	819.6101	828.7508	878.2845	913.5495	955.0302	976.9281	1009.533	1082.9436	1114.0151	1116.0286	1139.0129	1161.9405	1185.6684	1200.2726	1251.4902	1295.9796	1311.0612	1364.5836	1373.5693	1377.2402	1402.8443	1404.828	1435.7352	1460.0073	1469.5906	1475.1827	1483.8716	1488.3513	1496.5406	1500.721	1529.4386	1813.0305	2970.531	2991.4648	3000.7027	3033.4939	3038.3369	3044.1634	3050.4083	3097.7515	3102.2767	3111.9424	3114.3293	3119.053	3120.4389	3151.2875
CCOC(C)CC(C)=O	CCO[C@@H](C)CC(=O)C	
InChI=1S/C7H14O2/c1-4-9-7(3)5-6(2)8/h7H,4-5H2,1-3H3	InChI=1S/C7H14O2/c1-4-9-7(3)5-6(2)8/h7H,4-5H2,1-3H3/t7-/m0/s1
