16
gdb 10844	4.6293	1.47849	1.1743	3.827	60.92	-0.2623	0.0085	0.2707	974.7775	0.13133	-420.91601	-420.908518	-420.907574	-420.947987	27.732	
O	 0.0442004069	 1.4166537099	 0.1218772441	-0.425752
C	 0.0156575962	 0.0037794934	 0.0245566847	 0.091137
C	-1.4336287316	-0.4545893575	 0.0321247992	-0.218866
C	-1.4766440476	-1.9773531845	-0.1203192096	-0.345242
C	-0.5479469203	-2.5694029851	-1.1751193101	 0.411903
O	-0.6978735508	-3.6715654396	-1.624858927	-0.319762
O	 0.5446631218	-1.8517257274	-1.5485037955	-0.227028
C	 0.6554231341	-0.4460061335	-1.2900500086	-0.087636
H	 0.9582069548	 1.6995593049	 0.2288082999	 0.289531
H	 0.549242164	-0.4628851592	 0.8686025403	 0.078257
H	-1.9300737956	-0.1413635902	 0.9548712764	 0.115234
H	-1.955618518	 0.0368805026	-0.7976492134	 0.117756
H	-1.1784261624	-2.455454347	 0.8223047317	 0.14264
H	-2.4815280566	-2.3437854325	-0.3396325421	 0.142861
H	 0.1878324422	 0.1109413444	-2.1120573675	 0.122809
H	 1.7290313229	-0.2330173786	-1.3041627624	 0.112158
77.1618	143.9199	221.0576	279.8509	319.1217	397.9183	427.3034	462.7858	528.2286	574.6119	709.5957	762.8586	828.6875	924.4422	957.9378	997.4314	1088.5567	1093.044	1110.9768	1116.144	1179.292	1187.3653	1244.3873	1273.5396	1299.5054	1346.9782	1350.6504	1370.6638	1409.9845	1449.935	1464.0349	1499.352	1518.1221	1846.4246	2971.9708	3028.1428	3033.5769	3043.9777	3083.411	3094.3446	3114.2578	3815.4695
OC1CCC(=O)OC1	O[C@H]1CCC(=O)OC1	
InChI=1S/C5H8O3/c6-4-1-2-5(7)8-3-4/h4,6H,1-3H2	InChI=1S/C5H8O3/c6-4-1-2-5(7)8-3-4/h4,6H,1-3H2/t4-/m0/s1
