24
gdb 100396	2.36497	1.08971	0.90633	0.7121	88.9	-0.2328	0.0318	0.2646	1458.87	0.21325	-405.563878	-405.552253	-405.551309	-405.600422	42.412	
C	-0.5855043459	 2.1961564044	-0.5195845579	-0.219644
O	-0.8061619457	 0.8377428018	-0.1536647824	-0.24015
C	-0.2732118632	-0.1087189301	-0.9732683861	 0.392238
C	-0.6698683019	-1.465819048	-0.4346010625	-0.479784
N	 0.3972109251	 0.2474712349	-1.982793016	-0.327675
C	 1.0286339481	-0.6322354145	-2.9749598381	 0.269036
C	 0.0324558936	-1.6191805488	-3.6173299054	-0.404688
C	 1.5510269228	 0.3114839544	-4.076569094	-0.373235
C	 2.2313597007	-1.3777415106	-2.3619436205	-0.400611
H	 0.4830449733	 2.4293607775	-0.5390166294	 0.127353
H	-0.9964770367	 2.4078379832	-1.5111147454	 0.12629
H	-1.0933258735	 2.7918255901	 0.2411313744	 0.118521
H	-1.6695173044	-1.7302504061	-0.7952158119	 0.145986
H	 0.0216956798	-2.2491039393	-0.7371543908	 0.137715
H	-0.7137981734	-1.4232654358	 0.6556230484	 0.14083
H	-0.8444255096	-1.0810037869	-3.9909075227	 0.115676
H	 0.500631511	-2.1304333332	-4.4649979617	 0.11083
H	-0.3105313519	-2.386205857	-2.9195221085	 0.106639
H	 2.2479291767	 1.0391856247	-3.651368104	 0.110527
H	 2.0643890973	-0.2463525201	-4.8669044886	 0.097597
H	 0.7214484169	 0.8665130252	-4.5245089905	 0.10863
H	 1.9291619796	-2.1046908436	-1.6032959134	 0.108388
H	 2.7809425833	-1.9187188595	-3.1395040195	 0.110603
H	 2.9165805678	-0.6656189926	-1.8925356337	 0.118927
41.5655	108.2976	149.8459	163.5251	172.2778	203.158	210.3005	249.7779	252.4866	281.1944	315.3826	364.0104	381.0316	406.6309	487.936	527.8903	575.98	602.3817	741.5884	817.0293	915.8806	918.3323	936.6285	957.068	1028.7123	1044.281	1056.1442	1058.9496	1089.8176	1179.9824	1206.7704	1230.609	1241.016	1244.6966	1290.6989	1390.893	1393.4195	1400.6504	1426.1658	1465.6236	1471.7179	1473.2344	1478.3927	1483.1069	1484.1179	1486.4602	1500.5146	1501.8864	1506.3663	1517.2731	1751.718	3032.1588	3036.2796	3039.7761	3042.7404	3055.6582	3101.0776	3103.5679	3108.5591	3111.2562	3113.6192	3117.4456	3121.9928	3123.9461	3139.9559	3174.5284
COC(C)=NC(C)(C)C	COC(=NC(C)(C)C)C	
InChI=1S/C7H15NO/c1-6(9-5)8-7(2,3)4/h1-5H3	InChI=1S/C7H15NO/c1-6(9-5)8-7(2,3)4/h1-5H3
