19
gdb 74926	2.58238	1.88213	1.33672	1.313	80.	-0.2128	0.0232	0.236	1006.4529	0.159537	-385.862413	-385.854625	-385.853681	-385.894068	31.729	
C	 0.0465433571	 1.488160073	 0.0114275431	-0.512823
C	-0.0500332758	-0.0006457774	-0.0584535348	 0.265498
C	-0.1366522283	-0.8023920945	-1.1272092965	-0.198897
C	-0.0479846675	-2.2466736042	-0.6855962549	-0.108386
C	 1.4250232006	-2.4940993902	-0.1543767004	-0.233023
C	 0.9464524165	-2.0723695131	 1.2267309892	-0.131983
C	-0.5037029465	-2.2341212747	 0.8111217867	-0.104397
C	-0.0319402223	-0.8626607943	 1.1708160121	 0.319148
O	-0.4308095978	-0.3416331874	 2.4013692398	-0.47933
H	 1.0122415472	 1.8089964294	 0.4255313245	 0.117716
H	-0.0602689394	 1.9428939931	-0.9767344661	 0.124445
H	-0.7274033571	 1.899163753	 0.6696944785	 0.135773
H	-0.0930007923	-0.4894963664	-2.164009319	 0.0888
H	-0.4498762461	-2.9958026689	-1.3657540698	 0.069304
H	 1.6658463144	-3.5607217876	-0.1633336913	 0.102162
H	 2.2287517224	-1.9303474571	-0.6405148584	 0.087452
H	 1.404046362	-2.3146363308	 2.1795269549	 0.081689
H	-1.330024213	-2.7489991598	 1.2851876472	 0.0922
H	 0.3266729658	 0.0953086577	 2.8042738351	 0.284654
154.3929	173.8864	246.0753	267.282	323.0115	363.1375	413.8026	438.6323	566.6533	587.1693	640.9492	704.6882	756.0114	803.1511	845.718	849.0874	879.1834	907.3982	938.8641	960.3007	989.1323	1006.1967	1021.3881	1055.8559	1065.5964	1103.9154	1136.5094	1152.9903	1195.2624	1229.2449	1242.5543	1266.7864	1286.8359	1317.2542	1355.6525	1403.5164	1412.3135	1477.7826	1487.458	1492.5448	1693.7088	3014.334	3035.6875	3067.1666	3095.471	3115.2767	3122.6809	3171.4731	3192.2453	3197.3978	3805.1278
CC1=CC2CC3C2C13O	CC1=C[C@H]2C[C@@H]3[C@H]2[C@]13O	
InChI=1S/C8H10O/c1-4-2-5-3-6-7(5)8(4,6)9/h2,5-7,9H,3H2,1H3	InChI=1S/C8H10O/c1-4-2-5-3-6-7(5)8(4,6)9/h2,5-7,9H,3H2,1H3/t5-,6+,7-,8-/m0/s1
