14
gdb 15499	3.03812	2.05818	1.38624	3.1151	64.48	-0.2492	-0.0588	0.1905	863.5156	0.107015	-382.586161	-382.579153	-382.578209	-382.618018	25.253	
O	-0.6232635999	 0.822775115	-0.6023972445	-0.237685
C	 0.2068805199	 0.9893197617	 0.253047047	 0.151365
C	 1.402775761	 1.9190711505	 0.1290511367	-0.211116
C	 1.4547032211	 2.7428387824	-1.1621166347	-0.289939
C	 1.3873256299	 4.1725878002	-0.6877868189	-0.042699
C	 1.3297376153	 4.2929721153	 0.6441615496	-0.168992
C	 1.3511896954	 2.9622680475	 1.284438628	 0.364447
O	 1.3220364035	 2.6917804334	 2.4606425179	-0.329943
H	 0.1481099037	 0.4748026965	 1.2340285369	 0.110472
H	 2.2960353267	 1.3058225478	 0.2988284875	 0.129021
H	 2.3678005359	 2.5631726113	-1.7409602744	 0.125264
H	 0.6116369646	 2.4965298145	-1.8170679523	 0.152769
H	 1.3852749241	 5.0021418819	-1.3868856793	 0.123716
H	 1.274211539	 5.207566572	 1.2197253404	 0.12332
67.6352	114.3527	219.2469	259.7619	343.0806	466.021	598.0018	607.034	697.0232	750.8782	790.477	808.6012	892.004	946.9877	964.4679	1000.3704	1044.5648	1081.6068	1113.0333	1163.8154	1182.0703	1187.8156	1296.5287	1320.8735	1363.2252	1412.4968	1469.9214	1647.9805	1803.3299	1832.1772	2930.1889	3041.5601	3051.002	3079.4214	3194.164	3232.5743
O=CC1CC=CC1=O	O=C[C@H]1CC=CC1=O	
InChI=1S/C6H6O2/c7-4-5-2-1-3-6(5)8/h1,3-5H,2H2	InChI=1S/C6H6O2/c7-4-5-2-1-3-6(5)8/h1,3-5H,2H2/t5-/m1/s1
