17
gdb 126733	4.51141	1.03478	0.90812	5.8784	80.99	-0.222	-0.0367	0.1853	1287.5236	0.137436	-418.038879	-418.030777	-418.029832	-418.072285	29.993	
C	-0.0032818765	 1.5803592974	 0.1001755341	-0.375506
C	 0.0027104297	 0.0610316446	-0.0611255505	-0.145878
N	-1.3466064844	-0.5085297826	-0.0717915302	 0.009575
C	-1.9919336884	-0.8529276944	-1.219270245	 0.054614
C	-3.2661325091	-1.3220122273	-1.2161795977	-0.276712
C	-3.9796160078	-1.4604975967	 0.0402574273	 0.340482
O	-5.1271788006	-1.8700805296	 0.1739447974	-0.391522
C	-3.150919064	-1.0447165279	 1.1872755717	-0.0865
N	-1.9321648125	-0.5996280351	 1.1371503495	-0.18833
H	 1.0230738344	 1.9572028997	 0.137459798	 0.127672
H	-0.5178657189	 2.0645636636	-0.7353162148	 0.12802
H	-0.5089781924	 1.8589990179	 1.0280449692	 0.150138
H	 0.48994415	-0.2342870478	-0.9943112673	 0.122714
H	 0.5415381508	-0.4108385834	 0.7640574102	 0.140461
H	-1.4112413575	-0.72984579	-2.1269441233	 0.13501
H	-3.7542567976	-1.5980069475	-2.1424433842	 0.119909
H	-3.5888351651	-1.1134887607	 2.1792308854	 0.135853
50.9676	84.1574	181.5428	222.2685	352.7182	377.1306	434.2932	456.4079	476.8319	516.3975	649.1764	746.1336	749.6993	795.8255	826.9087	852.6714	950.6183	970.3288	976.8412	998.64	1074.6835	1102.9982	1163.0092	1239.3648	1264.2924	1284.5221	1342.8336	1383.6097	1400.8792	1412.0845	1475.782	1483.5142	1490.7042	1506.1648	1580.4271	1644.1557	1741.9703	3045.4314	3067.258	3108.3272	3122.3824	3136.1592	3178.648	3189.658	3219.0459
CCN1C=CC(=O)C=N1	CCn1ccc(=O)cn1	
InChI=1S/C6H8N2O/c1-2-8-4-3-6(9)5-7-8/h3-5H,2H2,1H3	InChI=1S/C6H8N2O/c1-2-8-4-3-6(9)5-7-8/h3-5H,2H2,1H3
