19
gdb 79254	2.45166	2.07819	1.57686	1.6566	72.58	-0.2348	0.0825	0.3173	923.5859	0.160962	-423.031846	-423.024548	-423.023604	-423.062966	30.464	
C	-0.0001379993	 1.484828724	 0.0396039656	-0.487262
C	-0.0052772254	-0.0181300188	-0.0377844893	 0.317311
C	 0.7271219882	-0.7318881861	-1.1939565074	-0.263159
C	 0.5217187404	-2.1467794082	-0.666755753	-0.116733
C	 0.4648148856	-1.9777074861	 0.8304960016	 0.074927
O	 0.6137130011	-0.6006206897	 1.1390141906	-0.305615
C	-0.823157423	-2.1611573113	 0.0621232731	-0.158581
C	-1.385456746	-0.7455976869	-0.0207958015	 0.142761
O	-2.195578783	-0.3773765914	 1.071325506	-0.451308
H	 1.0146247171	 1.8613229604	 0.1954480083	 0.126075
H	-0.3903810219	 1.9120439713	-0.8889177877	 0.120282
H	-0.6335134675	 1.8248417213	 0.8630995875	 0.131425
H	 0.2490656535	-0.5468059783	-2.1603189913	 0.10301
H	 1.7817377028	-0.4462822635	-1.2524548829	 0.105322
H	 0.9354226509	-3.0272688364	-1.1396029394	 0.092009
H	 0.8742723787	-2.6558044183	 1.5652867116	 0.104442
H	-1.4507211032	-3.0378514083	 0.1442156452	 0.093563
H	-1.966076519	-0.552480227	-0.9266585328	 0.086265
H	-1.6325420501	-0.4494282167	 1.8531599057	 0.285267
186.8183	204.3229	242.4392	315.2281	357.156	421.1442	454.8315	525.2115	609.0818	630.833	708.3221	741.1329	804.9596	814.7049	820.1242	849.9392	895.1481	953.9027	966.3587	999.4371	1007.5155	1022.5943	1042.2827	1061.0645	1081.954	1113.8454	1123.6242	1148.4997	1203.7785	1217.8079	1251.3834	1278.2507	1291.4099	1308.674	1348.7424	1381.653	1419.9052	1436.5157	1483.4468	1489.7001	1495.1309	3046.267	3053.2594	3084.5127	3102.7191	3118.5096	3124.9012	3203.756	3211.9017	3227.5611	3772.0248
CC12CC3C(O1)C3C2O	C[C@@]12C[C@H]3[C@@H](O1)[C@H]3[C@H]2O	
InChI=1S/C7H10O2/c1-7-2-3-4(6(7)8)5(3)9-7/h3-6,8H,2H2,1H3	InChI=1S/C7H10O2/c1-7-2-3-4(6(7)8)5(3)9-7/h3-6,8H,2H2,1H3/t3-,4+,5-,6-,7+/m1/s1
