14
gdb 130464	3.96568	1.65145	1.16592	3.077	77.92	-0.2228	-0.0617	0.1611	963.8708	0.104843	-399.58661	-399.580732	-399.579788	-399.616727	24.043	
O	-0.0258127904	 1.2743607724	 0.0092378574	-0.146733
C	 1.2201910573	 1.7481978215	-0.0002708773	-0.038268
C	 2.1147638968	 0.7076307466	-0.0143997742	 0.136333
C	 3.528543894	 0.5566767453	-0.0287779414	-0.236634
C	 4.0335032515	-0.7120454293	-0.0403923643	-0.112599
C	 3.176552321	-1.8631444323	-0.0383030804	-0.099692
C	 1.8152372348	-1.7590922514	-0.024678081	-0.202532
C	 1.2556444894	-0.4489985444	-0.0123167403	 0.35021
N	-0.0280896384	-0.1142505378	 0.0017650012	-0.248806
H	 1.3177871408	 2.82245158	 0.0045227042	 0.159402
H	 4.1793978108	 1.4238086551	-0.0304069019	 0.108579
H	 5.1069901234	-0.8662729622	-0.0515291756	 0.104073
H	 3.6370204637	-2.8457353428	-0.047973599	 0.107085
H	 1.1680906253	-2.6277689706	-0.0231055474	 0.119583
215.3787	257.8929	406.632	446.6489	543.1044	564.1209	614.1809	615.0102	753.171	767.2622	784.0755	812.9237	874.2572	908.1567	924.207	939.7194	950.8069	988.9845	1006.6183	1156.4913	1161.2899	1182.3631	1260.429	1290.4924	1382.0306	1410.7212	1427.9311	1495.9933	1556.0129	1595.9161	1682.5058	3177.179	3187.5938	3201.7988	3212.2191	3266.6895
O1C=C2C=CC=CC2=N1	o1cc2ccccc2n1	
InChI=1S/C7H5NO/c1-2-4-7-6(3-1)5-9-8-7/h1-5H	InChI=1S/C7H5NO/c1-2-4-7-6(3-1)5-9-8-7/h1-5H
