17
gdb 46931	2.62786	2.0988	1.56296	2.1569	72.31	-0.2484	0.001	0.2494	886.1244	0.138827	-417.960656	-417.954012	-417.953068	-417.991559	26.988	
N	 0.1098131194	 0.6924324457	 1.0343464184	-0.480279
C	 0.093444612	-0.1148538186	 0.0554030018	 0.283041
C	 1.2519801375	-0.5193822129	-0.8401795102	-0.135757
O	 1.4595592154	-1.9325928952	-0.8365996876	-0.269308
C	 0.281528733	-2.6861137957	-0.6261379958	 0.106669
C	-0.2955421899	-2.7605891692	 0.8410461295	-0.277625
C	-1.5270975537	-1.9894674575	 0.351854687	-0.036974
C	-1.018831218	-1.997628383	-1.0656434934	-0.110262
N	-1.1128551094	-0.7578851339	-0.3083702456	-0.071353
H	 1.0489536185	 1.0712859233	 1.162560271	 0.21909
H	 1.04079716	-0.1756132589	-1.8650753258	 0.115569
H	 2.1850665404	-0.0573781371	-0.5081507414	 0.117012
H	 0.4619402076	-3.6708717607	-1.0597769183	 0.096532
H	-0.5232631341	-3.7906758053	 1.1243660705	 0.109554
H	 0.2941344051	-2.2863911635	 1.6290738971	 0.121138
H	-2.5433359286	-2.05855512	 0.717990745	 0.110764
H	-1.5418711552	-2.0761667975	-2.0115085921	 0.102189
129.3485	173.9216	345.8493	364.4899	420.8023	509.2747	541.7258	612.4683	695.8034	736.3438	817.0735	846.915	858.4412	892.7003	906.4982	927.8076	970.5151	989.177	1019.1703	1029.7637	1037.0008	1078.6434	1094.5082	1123.7476	1167.5304	1201.9125	1235.2337	1247.061	1249.9175	1280.2619	1350.2235	1356.8414	1390.7325	1399.7371	1479.9906	1495.4127	1731.812	2982.1892	3068.8771	3094.7313	3101.3095	3126.6378	3181.1894	3203.5716	3470.6737
N=C1COC2CC3C2N13	[NH][C]1CO[C@H]2C[C@@H]3[C@H]2N13	
InChI=1S/C6H8N2O/c7-5-2-9-4-1-3-6(4)8(3)5/h3-4,6-7H,1-2H2	InChI=1S/C6H8N2O/c7-5-2-9-4-1-3-6(4)8(3)5/h3-4,6-7H,1-2H2/t3-,4+,6-,8?/m1/s1
