20
gdb 114367	3.23413	1.1071	1.03219	3.1	74.36	-0.2193	0.0512	0.2706	1233.3724	0.171368	-440.221932	-440.213191	-440.212247	-440.255756	33.346	
O	 0.8149410533	-0.4397669401	-0.9400109983	-0.425982
C	 0.0070169008	 0.1117509123	 0.086640511	-0.076197
C	-1.4007626096	-0.4451095111	 0.0380488546	 0.049648
C	-2.5243088191	 0.104272961	 0.9532308986	-0.307323
C	-3.4186306803	 0.1046476046	-0.3084192055	-0.005604
C	-3.6330527997	 1.4791200705	-0.9879359256	 0.113379
O	-3.705522456	 2.6342045288	-0.1858913153	-0.422037
C	-2.2513432707	 1.2744943972	-1.6386104003	-0.213191
N	-2.21648444	-0.1703997788	-1.2088845748	-0.177245
H	 0.2833730082	-0.4497486764	-1.7439805662	 0.294575
H	 0.4715908352	-0.1635989247	 1.0408606674	 0.109633
H	 0.0008967417	 1.2124719706	 0.044004432	 0.089712
H	-1.3271128572	-1.5359211543	 0.117815138	 0.08996
H	-2.8343280036	-0.5362725592	 1.7810066972	 0.10158
H	-2.3467884739	 1.1155049611	 1.3298313042	 0.11918
H	-4.2376161241	-0.6198853039	-0.3325258885	 0.069445
H	-4.4528023216	 1.4482094332	-1.7171798096	 0.077016
H	-4.602309523	 2.7167492257	 0.1542564916	 0.286907
H	-2.2002996045	 1.3878920239	-2.724511649	 0.108488
H	-1.4952948857	 1.9194525596	-1.1812320715	 0.118055
52.6847	89.4056	176.1613	248.5723	295.2363	318.8469	324.0005	385.9903	417.5353	515.5498	538.4807	630.1704	711.8436	756.4212	833.9468	867.6785	929.917	935.5567	954.5202	989.8022	1017.2969	1056.5196	1060.0022	1101.3723	1120.2089	1149.3485	1164.3492	1189.5878	1208.4399	1224.3633	1247.6503	1250.7485	1288.4222	1308.1381	1314.023	1334.8768	1345.1164	1391.061	1428.0597	1435.7143	1486.7033	1496.7208	1518.5027	2982.0808	3014.4798	3035.0336	3053.5282	3058.8711	3061.2199	3066.0531	3103.8877	3120.965	3801.3265	3814.7762
OCC1CC2C(O)CN12	OC[C@H]1C[C@H]2[C@@H](O)CN12	
InChI=1S/C6H11NO2/c8-3-4-1-5-6(9)2-7(4)5/h4-6,8-9H,1-3H2	InChI=1S/C6H11NO2/c8-3-4-1-5-6(9)2-7(4)5/h4-6,8-9H,1-3H2/t4-,5+,6+/m1/s1
