16
gdb 55210	2.84339	1.60455	1.03505	3.816	73.11	-0.2247	-0.0508	0.174	1089.4235	0.12643	-434.128615	-434.12077	-434.119826	-434.161099	30.131	
N	-0.0274521852	 1.3077125375	 0.2020299665	-0.544123
C	 0.0593267387	-0.0429250092	 0.0328350825	 0.44888
N	 1.1903363087	-0.6296923723	-0.0844508167	-0.574164
N	-1.1968340344	-0.7055738131	 0.0473963976	-0.178512
C	-1.2854655936	-2.1556185618	 0.05210842	-0.23146
C	-2.7641994749	-2.4100135702	 0.0584013611	-0.090192
C	-3.4310413488	-1.2565477572	 0.0409910587	-0.177689
C	-2.4695227061	-0.1267769146	 0.0242715644	 0.441791
O	-2.7287860564	 1.0624799078	-0.0111304356	-0.40516
H	 0.8226452564	 1.8083633726	 0.0057714099	 0.258907
H	-0.9225075727	 1.7515587031	 0.0477098167	 0.281707
H	 1.1053772065	-1.6369739292	-0.1632805952	 0.208676
H	-0.8077526883	-2.5912654645	-0.8362953121	 0.144855
H	-0.7886183664	-2.5836693253	 0.9329503776	 0.148054
H	-3.1750496271	-3.4106881471	 0.0704867155	 0.132743
H	-4.4982837562	-1.0896095264	 0.0346311393	 0.135688
80.9602	121.4235	219.3841	269.9371	375.1583	409.486	421.8449	455.3984	528.7758	583.2724	648.3714	670.5032	717.7603	726.1985	752.1373	825.6441	828.4553	973.0837	975.4709	1021.3793	1039.0937	1106.3218	1130.9773	1159.773	1196.4739	1232.2884	1247.4573	1359.4312	1384.2739	1413.4689	1492.3911	1604.9984	1663.1305	1725.1037	1793.6385	3013.3895	3042.6669	3225.5974	3255.3166	3538.7989	3560.1306	3706.8004
NC(=N)N1CC=CC1=O	NC(=N)N1CC=CC1=O	
InChI=1S/C5H7N3O/c6-5(7)8-3-1-2-4(8)9/h1-2H,3H2,(H3,6,7)	InChI=1S/C5H7N3O/c6-5(7)8-3-1-2-4(8)9/h1-2H,3H2,(H3,6,7)
