16
gdb 54582	3.70921	1.38459	1.17141	14.2083	70.14	-0.1723	-0.0155	0.1568	1030.8997	0.125731	-437.79076	-437.783556	-437.782611	-437.822858	27.756	
O	 0.177790416	 0.1849285743	-0.5661503764	-0.467002
C	 0.0438650924	 1.2536103438	 0.0343334938	 0.28197
O	 0.8075303123	 1.9959661874	 0.6853275577	-0.495439
C	-1.3859048009	 1.8560050701	-0.0171328596	 0.230974
C	-2.6941204891	 1.423869547	-0.6915892926	-0.305346
C	-3.189944308	 2.8536135338	-0.4120194988	-0.073736
N	-3.2839727768	 2.8626413258	 1.1352202649	-0.278215
H	-3.6283139368	 3.7531849847	 1.4937666561	 0.302525
H	-3.7932278369	 2.0885956885	 1.5702556868	 0.298141
C	-1.7690819243	 2.7954764391	 1.1187946238	-0.079265
C	-1.7010693025	 3.3307915586	-0.2735782711	-0.106289
H	-2.5297674257	 1.2718703335	-1.7589297304	 0.158107
H	-3.2778014818	 0.5870663119	-0.2894114361	 0.106341
H	-4.032946383	 3.3427700873	-0.8969821325	 0.117457
H	-1.1717358642	 2.9567886996	 2.0015572887	 0.170107
H	-1.1322348907	 4.1361803345	-0.7094133642	 0.139671
75.2734	135.2237	165.8745	335.7138	430.9809	435.7309	476.1561	701.3749	726.366	730.8625	771.9532	779.0637	802.562	858.8714	879.1488	901.4826	927.5977	971.2799	990.2972	1011.0787	1053.5115	1082.3445	1115.4723	1139.1806	1145.2596	1174.8033	1196.9256	1236.2353	1278.6464	1302.8453	1323.2757	1352.5912	1492.3772	1631.2514	1797.694	3037.3377	3135.2014	3138.7542	3256.8236	3274.2727	3409.4829	3508.4546
[O-]C(=O)C12CC3[NH2+]C1C23	O=C([O])[C@@]12C[C@H]3[NH2][C@@H]1[C@@H]23	
InChI=1S/C6H7NO2/c8-5(9)6-1-2-3(6)4(6)7-2/h2-4,7H,1H2,(H,8,9)	InChI=1S/C6H7NO2/c8-5(9)6-1-2-3(6)4(6)7-2/h2-4H,1,7H2/t2-,3+,4-,6-/m1/s1
