17
gdb 52057	2.9459	0.89377	0.75269	4.2981	74.53	-0.2549	-0.0369	0.218	1481.1835	0.133965	-417.995013	-417.985616	-417.984672	-418.030552	33.028	
O	-0.338799503	 0.044714835	-0.1482984441	-0.230594
C	 0.0504429254	 1.1748707774	-0.0188359735	 0.145
C	 1.412679755	 1.6664495112	-0.4803033139	-0.237922
N	 1.3174659313	 3.0327831473	-0.9788541652	-0.368817
C	 2.5685696055	 3.7288957348	-1.1281430491	 0.198999
C	 3.5691862014	 3.3784848533	-2.2330892778	-0.292909
C	 2.7629585852	 4.6442634504	-2.315403952	-0.312268
C	 3.1337496751	 4.1547739631	 0.1358951541	 0.282948
N	 3.5976363092	 4.4674795874	 1.1481313703	-0.343752
H	-0.5646124496	 1.9639578943	 0.4677092435	 0.094249
H	 2.0546558686	 1.6793695578	 0.4126543363	 0.157014
H	 1.8421736591	 0.9358023913	-1.181800317	 0.115987
H	 0.7847220327	 3.0787315531	-1.8386746934	 0.233797
H	 4.6273637235	 3.4519988466	-2.011831402	 0.14508
H	 3.2909758152	 2.5514666738	-2.8768592045	 0.131095
H	 1.9430050449	 4.6920176333	-3.0246653034	 0.131949
H	 3.2605564107	 5.5908504699	-2.1440884782	 0.150143
50.7194	65.2241	93.0287	134.0307	202.6293	224.7536	302.4043	371.3395	403.3658	511.285	574.2835	604.8869	658.4956	704.5489	777.1022	794.6873	881.4415	938.2916	949.3834	987.3999	1058.378	1066.9566	1085.8346	1094.5266	1129.7918	1191.3355	1234.0851	1278.275	1329.178	1342.3737	1407.5732	1460.1037	1471.4367	1490.757	1501.5487	1840.9138	2353.183	2897.2836	2992.9669	3040.8433	3139.7342	3143.5066	3226.9142	3240.6806	3556.2147
O=CCNC1(CC1)C#N	O=CCNC1(CC1)C#N	
InChI=1S/C6H8N2O/c7-5-6(1-2-6)8-3-4-9/h4,8H,1-3H2	InChI=1S/C6H8N2O/c7-5-6(1-2-6)8-3-4-9/h4,8H,1-3H2
