15
gdb 131058	3.8523	1.18467	0.96668	4.069	66.48	-0.2584	-0.0025	0.2559	1159.2068	0.115991	-450.179558	-450.171858	-450.170914	-450.212464	27.475	
O	 1.0657576974	 1.084880581	 1.4841821267	-0.340968
C	 0.484676614	 1.4201783721	 0.4658549635	 0.163415
N	 1.0603190934	 1.4806318372	-0.7558695731	-0.259648
C	 2.4605545073	 1.1125734636	-0.9666725757	-0.299232
C	 3.4398276883	 2.1049114628	-0.4167731789	 0.367724
N	 4.3129531323	 2.81777965	-1.1103141555	-0.315043
C	 4.951965701	 3.5305830754	-0.1406076841	 0.019372
N	 4.5300489265	 3.3077169403	 1.0942261034	-0.209427
N	 3.5647937681	 2.383458644	 0.896546317	-0.217954
H	-0.5840498613	 1.7014594005	 0.4508964127	 0.1
H	 0.5296641686	 1.8482409839	-1.5289734766	 0.265076
H	 2.6238430172	 0.1324751709	-0.5064418407	 0.152194
H	 2.6375396628	 1.0253597866	-2.0386097118	 0.150496
H	 5.7471242837	 4.2300653089	-0.3503765765	 0.12487
H	 2.9932116906	 2.0168869726	 1.6469763597	 0.299125
77.8848	119.7044	141.7892	230.2222	269.3552	329.9255	428.1386	504.1253	656.549	696.7453	735.99	755.6685	828.7292	905.8755	954.5738	985.3312	1003.9426	1034.719	1058.2247	1124.83	1204.0543	1212.8181	1274.9153	1299.7714	1321.9942	1381.9201	1422.4895	1433.4604	1462.0249	1491.6953	1522.2306	1585.1002	1777.7558	2973.725	3059.6057	3144.5724	3262.6773	3596.0282	3644.9244
O=CNCC1=NC=NN1	O=CNCc1ncn[nH]1	
InChI=1S/C4H6N4O/c9-3-5-1-4-6-2-7-8-4/h2-3H,1H2,(H,5,9)(H,6,7,8)	InChI=1S/C4H6N4O/c9-3-5-1-4-6-2-7-8-4/h2-3H,1H2,(H,5,9)(H,6,7,8)
