22
gdb 10521	2.87911	1.34193	1.06742	0.9995	78.54	-0.2448	0.083	0.3277	1229.7404	0.198292	-350.188404	-350.178704	-350.17776	-350.223009	35.397	
C	 2.1644615699	 1.5613346344	-0.9254355294	-0.383912
C	 2.1092021997	 0.0327246663	-0.9751088079	-0.154483
C	 0.7706496018	-0.5023957667	-1.5005451624	-0.25199
C	 0.7000172439	-2.0186486836	-1.5110244433	 0.453334
C	-0.2044600468	-2.7341769729	-2.4854774086	-0.334762
C	 1.3030777088	-2.7831379939	-2.6506226127	-0.311407
O	 0.8911367433	-2.6372611322	-0.263182064	-0.283857
C	-0.19200294	-2.4970005202	 0.6347417627	-0.247441
H	 2.0206275519	 1.9984623666	-1.9202351514	 0.110596
H	 1.3821321415	 1.966464907	-0.2733744686	 0.110816
H	 3.1282569296	 1.913642713	-0.5446057405	 0.111148
H	 2.9189836568	-0.3482531939	-1.6098475948	 0.096741
H	 2.2885321138	-0.3824967134	 0.0228435923	 0.109145
H	-0.050707485	-0.0949486639	-0.8952257018	 0.091924
H	 0.5972198582	-0.1386687606	-2.5209056275	 0.092685
H	-0.6891596235	-3.6399258417	-2.1384778551	 0.115119
H	-0.7879912565	-2.1472353867	-3.1868312483	 0.109107
H	 1.7560834329	-2.2263765514	-3.4639217393	 0.10884
H	 1.7979697576	-3.7144814883	-2.401670613	 0.121355
H	-0.3329503438	-1.4579174306	 0.9641332294	 0.107246
H	-1.134271654	-2.8504954403	 0.1924572178	 0.105648
H	 0.0417169197	-3.108538237	 1.5097797567	 0.124149
69.9737	81.5997	125.4636	157.592	207.5972	240.0854	267.1577	307.6864	350.0104	367.3855	449.1241	562.6309	726.9019	747.074	780.9088	860.0709	876.5142	913.6219	926.4534	968.4583	972.5811	1044.9014	1052.5615	1077.7787	1095.2741	1112.1169	1128.3857	1181.3448	1189.4528	1220.2784	1241.6787	1285.9152	1302.2761	1330.2324	1357.1204	1395.9262	1411.5464	1452.5005	1470.4494	1478.3889	1492.0848	1497.1214	1498.8478	1499.5649	1508.5959	1512.4741	2991.3002	3012.9503	3025.8635	3032.4039	3042.3202	3047.9742	3069.537	3094.8784	3099.5199	3113.2149	3131.1323	3137.0035	3215.3984	3230.9963
CCCC1(CC1)OC	CCCC1(CC1)OC	
InChI=1S/C7H14O/c1-3-4-7(8-2)5-6-7/h3-6H2,1-2H3	InChI=1S/C7H14O/c1-3-4-7(8-2)5-6-7/h3-6H2,1-2H3
