21
gdb 114596	3.04578	1.06108	0.91371	3.0506	84.5	-0.2428	-0.023	0.2198	1364.3226	0.18144	-387.083117	-387.073867	-387.072923	-387.117328	34.455	
C	 0.1575421751	 1.6658339387	 0.0825088571	-0.381767
C	-0.1031271368	 0.1585956203	-0.0055804138	-0.194997
C	 0.6336141905	-0.5053668336	-1.1660459233	-0.054842
C	 2.1972411266	-0.6334778666	-1.1146433391	-0.252148
C	 2.0821844006	-2.1442407989	-1.3382409631	-0.074078
C	 1.2775831109	-2.7915469963	-0.2738621073	-0.326782
C	 0.5201095001	-2.0294277643	-1.3391559926	 0.24308
C	-0.365800898	-2.7281870421	-2.2800188452	 0.053769
O	-0.3934245766	-3.9268227957	-2.4508148571	-0.278095
H	 1.2236456272	 1.8780333391	 0.2184213891	 0.118841
H	-0.1667606562	 2.1774953505	-0.8305292126	 0.115299
H	-0.3796837299	 2.1136233057	 0.9239082657	 0.115627
H	 0.1864091261	-0.3193024545	 0.9385129701	 0.096553
H	-1.1798281976	-0.0238389929	-0.1203700358	 0.099277
H	 0.3431549553	-0.0145614795	-2.1030233309	 0.075049
H	 2.6978177467	-0.1031368514	-1.9263299047	 0.110571
H	 2.6690071706	-0.3469738721	-0.1682864486	 0.102533
H	 2.6584204045	-2.7245987169	-2.0482032631	 0.110608
H	 1.1583094302	-3.8661128758	-0.3599283008	 0.145177
H	 1.2979982111	-2.4066544609	 0.742286033	 0.114537
H	-1.0239364203	-2.0521702127	-2.8748352471	 0.06179
82.7139	98.851	144.5375	173.3847	209.8296	228.2924	284.6168	343.8293	403.7052	443.4944	572.9926	681.7302	738.7667	769.3826	776.7957	827.7706	887.8363	914.3526	946.7088	963.0013	993.9004	1021.5222	1048.8345	1058.8879	1083.4897	1088.2047	1126.9169	1155.5525	1173.6781	1221.87	1239.0588	1268.5234	1283.7749	1305.6137	1338.8375	1373.8441	1402.3602	1411.62	1432.9784	1473.1597	1481.199	1495.0875	1499.8861	1505.708	1792.0088	2854.1562	3018.2207	3026.0462	3031.1316	3044.8612	3053.6782	3096.984	3105.1905	3114.9748	3116.5788	3193.1683	3218.6457
CCC1CC2CC12C=O	CC[C@H]1C[C@H]2C[C@@]12C=O	
InChI=1S/C8H12O/c1-2-6-3-7-4-8(6,7)5-9/h5-7H,2-4H2,1H3	InChI=1S/C8H12O/c1-2-6-3-7-4-8(6,7)5-9/h5-7H,2-4H2,1H3/t6-,7-,8+/m0/s1
