17
gdb 66579	3.34808	1.85078	1.5438	1.6326	78.46	-0.1959	-0.0348	0.1611	885.1449	0.136216	-384.559851	-384.553284	-384.55234	-384.59017	28.219	
O	 0.0003625562	 1.3300995203	 0.1648585033	-0.451841
C	 0.0496613679	-0.0335621167	 0.180167158	 0.355317
C	-0.0977748305	-0.8901816828	-1.1870065257	-0.151433
C	-1.0802931536	-0.9703326674	-0.0259426196	-0.145615
C	-0.1370141204	-2.1028692321	 0.4718488828	-0.084276
C	 0.4971490724	-2.3151748044	-0.918749385	-0.024002
C	 2.0132730117	-2.5193374929	-0.566493639	-0.26074
C	 2.181458509	-1.4187428339	 0.4867601924	-0.136618
C	 0.9435403112	-1.0549199183	 0.8755354933	-0.012156
H	 0.8365124369	 1.6678137657	-0.1778172367	 0.292157
H	-0.2150328439	-0.3501248805	-2.1201868633	 0.085357
H	-2.152476264	-0.8431877169	 0.0162436367	 0.096845
H	-0.407735865	-2.9004659404	 1.1610034027	 0.076438
H	 0.0700422391	-3.0749373403	-1.5825010045	 0.063005
H	 2.1666063969	-3.5598846757	-0.2453536004	 0.107811
H	 2.7175505455	-2.340121793	-1.3885576934	 0.103434
H	 3.0271102205	-0.7388780207	 0.4430805384	 0.086316
218.118	283.3564	320.6352	377.1173	395.1197	518.4437	573.7487	590.3131	644.7282	706.7725	774.5695	778.3256	823.4539	851.5323	877.6615	881.0535	904.0132	918.4506	938.1509	960.7474	981.1737	1017.1338	1038.6258	1092.1007	1126.0209	1143.3813	1155.9639	1189.3867	1224.0853	1249.884	1266.814	1273.062	1299.6143	1315.6137	1456.4141	1467.0068	1585.4258	2998.4546	3050.0448	3054.5045	3132.6874	3163.3636	3176.3329	3219.1339	3779.1911
OC12C3C1C1C3CC=C21	O[C@]12[C@@H]3[C@H]1[C@H]1[C@@H]3C[CH][C]21	
InChI=1S/C8H8O/c9-8-4-2-1-3-5(4)7(8)6(3)8/h2-3,5-7,9H,1H2	InChI=1S/C8H8O/c9-8-4-2-1-3-5(4)7(8)6(3)8/h2-3,5-7,9H,1H2/t3-,5-,6-,7+,8+/m0/s1
