21
gdb 104037	2.69741	1.50598	1.30406	0.5582	77.57	-0.2375	0.0898	0.3273	1094.9663	0.181872	-424.219394	-424.210598	-424.209654	-424.25239	34.374	
C	 0.5418045719	 1.1592579243	-0.1289101107	-0.254806
O	 0.5102472603	-0.2383644273	 0.1085830367	-0.270155
C	 0.6176941638	-0.6447237434	 1.4671273725	 0.444238
C	-0.5400848262	-0.1233973689	 2.3138195995	-0.442828
C	 0.7498016314	-2.1890176736	 1.423985959	-0.277337
C	 2.2422797303	-2.4463325598	 1.5394196449	-0.077606
C	 3.1541471964	-1.7024978281	 0.5770260909	-0.317823
C	 2.8380479318	-1.1276569391	 1.9323820358	 0.104853
O	 1.8254279888	-0.1553934054	 2.0442236425	-0.282997
H	 1.3763050915	 1.6355024425	 0.396826682	 0.128079
H	 0.6748799564	 1.2870278434	-1.2058637196	 0.122097
H	-0.3957345141	 1.6503153664	 0.1650501669	 0.107293
H	-1.4942911458	-0.4128019138	 1.8649541543	 0.123496
H	-0.4790888149	-0.538477239	 3.3224379099	 0.122829
H	-0.5051890479	 0.9651853127	 2.3971783895	 0.127247
H	 0.2274867326	-2.6370164099	 2.2745784012	 0.101495
H	 0.2978165383	-2.5659128631	 0.5041946956	 0.119371
H	 2.577534146	-3.3802129936	 1.9745110379	 0.08737
H	 4.151378549	-2.1069412336	 0.4360979978	 0.104941
H	 2.7117017855	-1.2370146367	-0.294889911	 0.134141
H	 3.6055285847	-0.9971851842	 2.6859618146	 0.0961
101.3266	140.4637	183.3243	218.042	237.6695	308.8049	354.1662	377.4571	413.1265	446.2042	565.3654	646.6012	688.4442	765.8512	786.9312	808.9655	851.5223	908.3878	921.3336	930.4682	1002.8142	1026.3582	1047.291	1077.3688	1091.1504	1099.0436	1130.9815	1159.8373	1163.5215	1177.8937	1196.5005	1210.1515	1244.7823	1250.0185	1328.4965	1347.2001	1389.6956	1404.8555	1463.3347	1469.1237	1483.0854	1484.5459	1487.3059	1505.5092	1514.542	3007.2895	3051.8108	3060.622	3077.3615	3113.8485	3118.8751	3130.0663	3132.146	3134.6401	3175.3571	3185.8234	3234.8576
COC1(C)CC2CC2O1	CO[C@@]1(C)C[C@H]2C[C@H]2O1	
InChI=1S/C7H12O2/c1-7(8-2)4-5-3-6(5)9-7/h5-6H,3-4H2,1-2H3	InChI=1S/C7H12O2/c1-7(8-2)4-5-3-6(5)9-7/h5-6H,3-4H2,1-2H3/t5-,6-,7-/m1/s1
