16
gdb 18438	3.12426	2.01405	1.55534	1.7731	70.62	-0.2313	0.0461	0.2774	863.2565	0.128972	-346.52476	-346.517217	-346.516272	-346.556256	28.892	
C	-0.2789076705	 1.5063551788	-0.0371952858	-0.417721
C	 0.0347706175	 0.0304704149	 0.0678979414	 0.143516
O	 1.111592971	-0.4295736945	-0.8131540201	-0.297096
C	 1.6997689223	-1.1451367308	 0.2622911579	 0.085117
C	 2.2261281311	-0.2228932342	 1.3364666673	-0.236344
C	 2.8150217731	 1.0623122898	 1.0908177979	 0.323401
C	 3.3670977885	 2.1171997596	 0.9181310136	-0.427702
C	 0.7390147064	-0.5870776485	 1.279842932	-0.179796
H	 0.5884015727	 2.1188399856	 0.2088476427	 0.148546
H	-0.6023101874	 1.7449838858	-1.0556265697	 0.126091
H	-1.0989536533	 1.757344818	 0.644505267	 0.116255
H	-0.8592265043	-0.5649983837	-0.1616875354	 0.08797
H	 2.0870508848	-2.1393786203	 0.0693864612	 0.110835
H	 2.7126275307	-0.7810539216	 2.1354167961	 0.118935
H	 3.8417896025	 3.0521613159	 0.7514847109	 0.194334
H	 0.2474037349	-1.0527598148	 2.123476113	 0.103659
132.5264	144.571	206.6258	230.3699	312.1814	380.5242	461.8517	581.947	596.6138	636.9187	650.7123	733.4363	751.3445	793.4625	857.1514	906.4268	933.6289	993.7748	1022.4119	1045.8801	1057.9907	1091.1725	1104.7066	1163.111	1178.9131	1259.0805	1296.3105	1339.3642	1387.3413	1407.8096	1423.4682	1483.05	1499.6146	2233.1522	3010.7838	3042.365	3103.5509	3120.2594	3157.7406	3174.5059	3201.6159	3503.8233
CC1OC2C(C#C)C12	C[C@H]1O[C@H]2[C@@H](C#C)[C@@H]12	
InChI=1S/C7H8O/c1-3-5-6-4(2)8-7(5)6/h1,4-7H,2H3	InChI=1S/C7H8O/c1-3-5-6-4(2)8-7(5)6/h1,4-7H,2H3/t4-,5+,6-,7+/m1/s1
