19
gdb 75417	3.14509	1.22052	0.92646	3.6401	87.92	-0.2347	-0.0664	0.1684	1272.3618	0.160065	-385.933213	-385.92475	-385.923806	-385.966421	32.202	
C	 0.0037366299	 1.5252963591	-0.0207432005	-0.484777
C	-0.0148009825	 0.0142542275	-0.0803745338	 0.291689
C	-1.1762249665	-0.6619869019	-0.0452919709	-0.150903
C	-1.3332736917	-2.1559376728	-0.0866158283	-0.275954
C	-0.571846736	-2.833132838	-1.2377033739	-0.303145
C	 0.9219960636	-2.9864441372	-0.9918901793	 0.356236
O	 1.4901728589	-4.0277719805	-1.2678000096	-0.326652
C	 1.7038342677	-1.8589078655	-0.4427224812	-0.167988
C	 1.3063352166	-0.6161387033	-0.1018548261	-0.098491
H	 0.5039553785	 1.9513946224	-0.8986760789	 0.131541
H	-1.0073315616	 1.9365839877	 0.024673082	 0.124193
H	 0.5555034921	 1.8792128237	 0.8588813787	 0.129032
H	-2.093242074	-0.0826079786	 0.0350048017	 0.091312
H	-1.0029420896	-2.5923135618	 0.8690041335	 0.12305
H	-2.396095151	-2.399190787	-0.1756471096	 0.111608
H	-0.9590734623	-3.8369428414	-1.4295645004	 0.121855
H	-0.7077299795	-2.2494047651	-2.1586777453	 0.121507
H	 2.7594453351	-2.1018277513	-0.3563031768	 0.10593
H	 2.1057696723	 0.0542518041	 0.2142534488	 0.099956
60.641	152.036	183.6551	242.9214	272.7996	318.8582	360.0667	378.0055	486.9467	497.6677	557.1896	681.7555	721.4567	728.9886	804.9232	865.581	880.4704	908.1464	935.2479	1019.4888	1039.1583	1043.1883	1072.6957	1112.3709	1164.0253	1171.5516	1222.8572	1258.508	1290.5535	1342.0682	1373.4628	1377.168	1415.3602	1444.3853	1462.1559	1475.4415	1480.5321	1495.484	1644.3989	1707.6896	1753.4601	2991.7834	3022.9861	3023.8708	3073.0264	3076.3607	3102.1944	3119.0324	3123.8883	3150.8406	3173.2542
CC1=CCCC(=O)C=C1	CC1=CCCC(=O)C=C1	
InChI=1S/C8H10O/c1-7-3-2-4-8(9)6-5-7/h3,5-6H,2,4H2,1H3	InChI=1S/C8H10O/c1-7-3-2-4-8(9)6-5-7/h3,5-6H,2,4H2,1H3
