18
gdb 51661	4.09757	0.97885	0.90695	3.9296	74.38	-0.2473	0.0179	0.2652	1310.3903	0.14769	-439.038932	-439.030666	-439.029722	-439.073501	29.93	
N	 0.3042389045	 1.2726793852	-0.0645710076	-0.439085
C	 0.1827927807	 0.0219089787	 0.0447366394	 0.125171
O	-0.9888030833	-0.5718633138	-0.258109027	-0.187427
C	-1.1142899991	-1.9570086128	 0.0199346285	 0.11898
C	-1.7765726116	-2.3654997761	 1.3735953986	-0.276055
C	-2.8591328661	-3.143729559	 0.5817775194	 0.115914
O	-4.0548190077	-2.3749758062	 0.3812683335	-0.286887
C	-3.5554346214	-1.8439106386	-0.873114712	-0.083983
C	-2.2471861524	-2.6505354777	-0.7639740282	-0.123223
H	 1.2528509459	 1.5516934422	 0.1768575028	 0.230105
H	 0.9619749769	-0.6860202669	 0.3616967743	 0.084159
H	-0.1486402822	-2.4528142919	-0.1342624362	 0.086396
H	-1.1349134276	-2.9672675321	 2.0219811926	 0.104525
H	-2.1948370442	-1.5308502366	 1.9393443659	 0.130384
H	-3.0603011202	-4.1832557631	 0.8491506688	 0.08085
H	-4.1977465361	-2.1413776644	-1.7096424266	 0.106451
H	-3.4507799612	-0.7548962445	-0.85984747	 0.131913
H	-1.9715755849	-3.2815597124	-1.6073093762	 0.081812
32.1564	69.0742	100.7713	169.8907	307.7748	371.8583	381.8209	462.0691	605.7332	691.1579	758.8266	801.4521	821.6199	875.2869	905.2645	923.4344	978.6361	999.8665	1005.5296	1042.1086	1046.8996	1081.219	1086.7134	1129.9505	1149.8911	1175.298	1188.2267	1204.631	1254.7209	1280.3094	1290.1309	1309.1175	1330.1632	1356.8619	1389.0004	1426.1842	1456.4676	1522.2075	1745.8196	3012.8614	3031.783	3032.6693	3066.772	3087.2767	3090.8018	3124.5919	3134.6802	3518.9241
N=COC1CC2OCC12	[NH][CH]O[C@H]1C[C@H]2OC[C@@H]12	
InChI=1S/C6H9NO2/c7-3-9-6-1-5-4(6)2-8-5/h3-7H,1-2H2	InChI=1S/C6H9NO2/c7-3-9-6-1-5-4(6)2-8-5/h3-7H,1-2H2/t4-,5-,6+/m1/s1
