15
gdb 76367	2.14883	1.45499	1.18275	1.4803	75.42	-0.2313	0.0185	0.2498	1099.4996	0.108193	-420.527212	-420.517823	-420.516879	-420.560897	35.138	
O	 0.0589448779	 1.299474332	 0.3474168574	-0.425891
C	 0.0422318175	-0.0776027789	 0.1483336368	-0.002575
C	-0.386077749	-0.8592200806	 1.3410676174	 0.088054
O	-0.6893661648	-0.17912851	 2.492313618	-0.41171
C	-1.3459217539	-0.780746965	 0.094567844	-0.130521
C	-2.4751087419	 0.0986198731	 0.169302288	 0.234673
C	-3.3738893666	 0.8981306348	 0.2175694502	-0.43528
C	-1.4519277178	-1.9563197135	-0.7203967915	 0.238582
C	-1.4959442784	-2.9574036511	-1.385548905	-0.412783
H	-0.700134875	 1.6884816227	-0.1093125055	 0.303059
H	 0.8006596199	-0.4586695461	-0.5302078767	 0.124033
H	 0.027214318	-1.8465912782	 1.5151994598	 0.131913
H	-0.5600154441	 0.7607858495	 2.2926601119	 0.29772
H	-4.2013724743	 1.561463611	 0.2791011386	 0.203732
H	-1.5549087977	-3.8371078296	-1.9773986835	 0.196994
114.9021	120.6537	147.0267	154.0867	245.3412	267.5807	334.2115	380.0951	438.5656	473.6423	513.6823	568.6463	574.3634	588.9544	629.0115	650.8628	671.0333	678.2587	681.7105	801.4153	875.1998	989.8144	1069.5809	1107.3719	1163.9837	1215.8572	1282.3528	1327.3654	1346.2965	1383.0478	1453.9218	2227.0549	2235.2134	3145.9396	3181.522	3497.7984	3502.0116	3714.1745	3738.5345
OC1C(O)C1(C#C)C#C	O[C@H]1[C@@H](O)C1(C#C)C#C	
InChI=1S/C7H6O2/c1-3-7(4-2)5(8)6(7)9/h1-2,5-6,8-9H	InChI=1S/C7H6O2/c1-3-7(4-2)5(8)6(7)9/h1-2,5-6,8-9H/t5-,6+
