22
gdb 78688	3.95885	1.20695	1.10351	1.5694	86.86	-0.2235	0.0804	0.3039	1222.8185	0.193057	-367.126315	-367.117517	-367.116573	-367.159008	34.911	
C	-0.252865866	 1.6222935113	-0.0084641615	-0.428166
C	-0.0556310853	 0.1159259328	 0.0125117484	-0.002623
C	 1.1740934898	-0.5060382646	-0.6574549166	-0.021128
C	 2.148182212	-0.1661622079	 0.5145918497	-0.117665
C	 0.7625688636	-0.5349845112	 1.1326917192	-0.021135
N	 1.0740785434	-1.772891252	 0.2416574534	-0.201968
C	 2.5726182703	-1.6415585255	 0.5881976426	 0.35182
C	 3.4995751229	-2.1873342998	-0.4916108064	-0.453652
C	 2.9393535335	-2.2267022071	 1.9469411882	-0.453652
H	 0.6761390596	 2.1578965885	 0.2137806484	 0.115803
H	-0.6045039602	 1.9576115121	-0.9901671641	 0.118568
H	-1.0002010913	 1.9297685099	 0.7309795474	 0.118568
H	-0.9832756985	-0.4244537384	-0.2094867852	 0.078656
H	 1.4029156292	-0.5924788813	-1.7203489736	 0.078501
H	 2.7403943615	 0.7440299278	 0.6654793656	 0.057238
H	 0.5049579415	-0.6556148629	 2.1856211451	 0.078491
H	 3.283134176	-1.7780954417	-1.4810400576	 0.114109
H	 4.5429495351	-1.9523584132	-0.2539910952	 0.113411
H	 3.4090095831	-3.2773962099	-0.5512036591	 0.123656
H	 2.8437495445	-3.3177662362	 1.9265521746	 0.123585
H	 3.9788856423	-1.9881525752	 2.1975324025	 0.113434
H	 2.3072962228	-1.8495946554	 2.7541431343	 0.114148
156.1733	172.107	178.0685	207.6619	222.9893	256.4691	346.3828	357.7606	387.1577	538.5454	543.3091	634.2861	732.622	774.9616	816.6262	822.1766	847.4086	879.7669	888.7902	944.175	962.2418	999.8226	1019.0577	1024.2797	1045.6287	1102.0141	1102.1327	1134.6769	1144.6718	1159.9135	1167.0337	1201.4779	1219.0337	1250.3213	1253.783	1307.1946	1329.8091	1395.7338	1404.4994	1415.4768	1418.9263	1480.4611	1481.3375	1495.6116	1500.9782	1502.8909	1507.6581	3027.4197	3031.4181	3032.3009	3038.6239	3043.6635	3092.4592	3094.0277	3098.8614	3098.9251	3100.3706	3105.928	3121.0785	3122.9522
CC1C2C3C1N2C3(C)C	C[C@H]1[C@H]2[C@H]3[C@@H]1N2C3(C)C	
InChI=1S/C8H13N/c1-4-6-5-7(4)9(6)8(5,2)3/h4-7H,1-3H3	InChI=1S/C8H13N/c1-4-6-5-7(4)9(6)8(5,2)3/h4-7H,1-3H3/t4-,5-,6-,7+
