18
gdb 85077	3.0375	1.36621	0.99352	3.4977	75.12	-0.2588	-0.004	0.2548	1184.9488	0.147465	-439.104263	-439.095841	-439.094897	-439.137425	32.392	
C	-0.5415967069	 1.3487970587	-0.019294986	-0.399828
C	-0.0279094028	-0.0650616296	 0.2120121879	 0.08233
O	 0.3071903704	-0.5907487162	-1.1039031728	-0.255972
C	 1.2123996637	-1.5773317029	-1.2297121596	 0.381602
N	 1.6526510547	-1.9899788164	-2.3442708602	-0.552822
C	 1.7407311128	-2.2280221378	 0.0418731728	 0.019666
O	 2.8817022629	-2.9940390005	-0.2232537025	-0.441179
C	 1.9952858239	-1.1519368093	 1.066789359	-0.102771
C	 1.1449096305	-0.1357032318	 1.1535565508	-0.084294
H	 0.2572252194	 1.9876431832	-0.406412339	 0.135184
H	-1.3654015273	 1.3439386729	-0.7366874383	 0.132909
H	-0.902417118	 1.7717061714	 0.9229700562	 0.124704
H	-0.8497396485	-0.6892873459	 0.595285148	 0.106659
H	 1.2523117416	-1.4776140915	-3.1290369289	 0.227219
H	 0.9282818841	-2.8789624016	 0.4232537287	 0.103273
H	 2.9271006656	-3.0445619181	-1.1935836565	 0.296913
H	 2.8681867009	-1.2656203402	 1.6997940001	 0.120022
H	 1.252456123	 0.6598042453	 1.8836642703	 0.106385
58.3549	115.7195	236.5827	278.0173	295.2852	327.805	396.2086	417.4258	459.4526	488.7718	554.6511	576.5625	667.7745	694.2609	776.093	865.2108	869.6562	894.5649	931.0894	979.0361	1029.1882	1048.5083	1105.2039	1127.0397	1153.1244	1162.9182	1196.8893	1243.96	1294.7405	1329.9016	1346.2609	1378.695	1407.871	1411.1623	1454.5692	1486.1014	1497.429	1712.503	1744.6049	2895.7078	2983.3057	3047.7273	3122.8411	3132.6091	3178.6176	3206.5922	3501.0726	3648.0398
CC1OC(=N)C(O)C=C1	C[C@H]1O[C]([NH])[C@@H](O)C=C1	
InChI=1S/C6H9NO2/c1-4-2-3-5(8)6(7)9-4/h2-5,7-8H,1H3	InChI=1S/C6H9NO2/c1-4-2-3-5(8)6(7)9-4/h2-5,7-8H,1H3/t4-,5+/m1/s1
