20
gdb 104067	2.90876	1.26361	1.17952	1.2327	73.71	-0.2153	0.0606	0.2759	1144.7543	0.170937	-440.226919	-440.218242	-440.217298	-440.260412	33.518	
O	 0.0821241034	 1.3392237797	-0.4928932786	-0.426869
C	 0.0394842411	-0.0562867946	-0.273846483	-0.085342
C	-1.3849575694	-0.509497813	 0.0188863894	 0.359169
O	-1.7536755034	 0.2213989844	 1.180398217	-0.493041
C	-2.3935984405	-0.4460424636	-1.1653238519	-0.249925
N	-2.6532739519	-1.9150817936	-1.0908753219	-0.123399
C	-1.7198310793	-2.7345340485	-1.932340067	-0.166183
C	-0.8132077337	-3.0377638608	-0.7091353682	-0.258948
C	-1.6912672884	-2.0371782468	 0.0755678473	-0.04237
H	-0.4041220715	 1.7291742164	 0.2440928393	 0.289701
H	 0.4180849659	-0.5315309405	-1.18266218	 0.103595
H	 0.6887235452	-0.358666068	 0.5643038984	 0.093105
H	-2.7045566649	 0.1423186772	 1.307712605	 0.28737
H	-3.2949229318	 0.1393746563	-0.9448508148	 0.095891
H	-1.9864973107	-0.0947627598	-2.1196315303	 0.114678
H	-2.2133233472	-3.6015813663	-2.380682948	 0.108487
H	-1.2397627442	-2.1617738383	-2.734872465	 0.100585
H	-0.9108460792	-4.0601929549	-0.3386580779	 0.112099
H	 0.2500590496	-2.8086056379	-0.8036311368	 0.110941
H	-2.0936896089	-2.3677323575	 1.0388577772	 0.070454
54.0023	115.1635	182.661	255.8247	277.552	328.4251	366.5522	382.1621	450.7898	475.4526	497.4122	667.3937	733.2349	757.8463	802.5685	892.1641	903.6997	930.8949	943.0388	974.523	977.965	1001.5698	1066.6018	1087.1544	1099.297	1121.7683	1154.7941	1170.0928	1186.9623	1202.5175	1223.782	1251.8988	1266.8565	1277.6606	1313.1732	1340.4883	1364.1195	1393.7702	1446.6013	1485.3753	1486.3412	1501.8183	1513.1347	2972.9947	3016.5194	3028.0105	3046.7193	3070.7332	3073.2101	3079.5428	3093.5678	3124.0231	3784.8141	3817.6466
OCC1(O)CN2CCC12	OC[C@@]1(O)CN2CC[C@@H]12	
InChI=1S/C6H11NO2/c8-4-6(9)3-7-2-1-5(6)7/h5,8-9H,1-4H2	InChI=1S/C6H11NO2/c8-4-6(9)3-7-2-1-5(6)7/h5,8-9H,1-4H2/t5-,6-/m0/s1
