19
gdb 18403	3.28563	2.13313	1.45834	1.5355	71.35	-0.2261	0.0858	0.3119	889.237	0.168376	-365.031576	-365.024761	-365.023817	-365.062182	27.557	
C	 0.0286386647	 1.4944745465	 0.0537056549	-0.263319
C	 1.3058926965	 0.7230800863	 0.0415711064	 0.006328
C	 2.2076060446	 0.6751945103	 1.257094218	-0.106188
O	 2.7235313887	-0.6259909814	 1.4848395754	-0.239545
C	 1.8578094998	-1.469950748	 2.2247912325	-0.069542
C	 0.5437390705	-1.8546273092	 1.5310233334	-0.19561
C	-0.3942419094	-0.6751161555	 1.2479392674	-0.157628
N	 0.0136746536	 0.0375709966	 0.0360785683	-0.072395
H	-0.2392784822	 1.9959589502	 0.9840347962	 0.105688
H	-0.3291737745	 1.991064024	-0.8444831911	 0.115565
H	 1.8418059721	 0.6225673605	-0.9012343058	 0.09371
H	 3.0735372084	 1.3250877509	 1.0887021087	 0.108049
H	 1.6891473912	 1.0437744999	 2.1550715396	 0.086509
H	 2.4414245309	-2.3731309336	 2.4302277592	 0.106814
H	 1.6257339948	-0.9980543681	 3.1962163003	 0.082892
H	 0.7568756932	-2.3722883843	 0.5892047734	 0.117891
H	 0.0313611547	-2.5707270736	 2.1860605375	 0.096038
H	-1.4137183616	-1.0395049045	 1.076757196	 0.104378
H	-0.443695916	-0.0207252369	 2.1353808198	 0.080365
181.1139	213.3637	309.3658	348.6095	372.0321	385.2518	451.6649	536.2288	584.9587	730.5505	802.378	815.3296	909.7123	918.305	933.8658	988.998	1004.2578	1035.2903	1063.4955	1091.0554	1116.6144	1128.5772	1145.3969	1168.5086	1186.4122	1237.4085	1270.3839	1285.6967	1333.9129	1338.0358	1365.3008	1381.5584	1392.7024	1413.6781	1434.67	1466.2055	1486.2566	1493.4069	1503.8027	1524.5778	2946.476	2951.8364	2992.777	3028.0948	3049.4927	3063.8037	3074.2466	3082.5358	3083.5707	3114.7089	3172.0129
C1C2COCCCN12	C1[C@H]2COCCCN12	
InChI=1S/C6H11NO/c1-2-7-4-6(7)5-8-3-1/h6H,1-5H2	InChI=1S/C6H11NO/c1-2-7-4-6(7)5-8-3-1/h6H,1-5H2/t6-,7?/m0/s1
