17
gdb 54660	3.36336	1.26405	0.98326	2.7191	75.25	-0.2455	-0.057	0.1886	1186.5687	0.13499	-421.836538	-421.828425	-421.82748	-421.869707	30.283	
C	-0.0597330091	 1.5078971197	 0.0023229724	-0.496546
C	-0.0565004982	-0.0093735025	 0.0339986991	 0.295107
O	-0.0929277206	-0.6257953283	 1.0799231908	-0.308536
C	-0.0097204664	-0.7148704321	-1.2746496072	 0.23789
C	-0.0694540697	-2.0511236682	-1.4073167239	-0.137253
C	 0.0065751938	-2.4983812513	-2.8463910129	-0.297397
C	 0.0437982254	-1.1818473106	-3.6154457712	 0.044339
O	-1.1171202254	-0.3694812205	-3.4380906697	-0.252088
C	 0.049882353	-0.0825586734	-2.6339138442	-0.110024
H	 0.8570477209	 1.8845721003	-0.4667268035	 0.136965
H	-0.8996622004	 1.879153841	-0.5957360341	 0.147804
H	-0.1302777688	 1.892703569	 1.0198834534	 0.142465
H	-0.1879337735	-2.7309743577	-0.5718386782	 0.134213
H	 0.9055439031	-3.1007212515	-3.0322554485	 0.12472
H	-0.8523702676	-3.1174473404	-3.1326262803	 0.137921
H	 0.5169291438	-1.1169514059	-4.5913482389	 0.101981
H	 0.5045554795	 0.8866564924	-2.8131031929	 0.098438
57.1122	139.7096	162.6488	188.6293	302.7744	364.0636	388.983	443.1794	523.5788	613.5082	661.9611	741.4508	818.8201	831.8876	864.2948	874.4411	925.451	950.65	973.9529	1013.2571	1040.142	1048.4815	1073.9261	1106.028	1183.2675	1254.9572	1258.1469	1263.6228	1317.9523	1356.1674	1380.5429	1410.1057	1448.5536	1463.6119	1474.8887	1647.8751	1777.712	3028.2166	3032.2688	3064.4318	3092.284	3151.2761	3155.1611	3168.623	3215.2281
CC(=O)C1=CCC2OC12	CC(=O)C1=CC[C@H]2O[C@@H]12	
InChI=1S/C7H8O2/c1-4(8)5-2-3-6-7(5)9-6/h2,6-7H,3H2,1H3	InChI=1S/C7H8O2/c1-4(8)5-2-3-6-7(5)9-6/h2,6-7H,3H2,1H3/t6-,7+/m1/s1
