25
gdb 60049	2.41312	0.97375	0.9056	1.403	89.92	-0.2486	0.0723	0.321	1516.8639	0.226298	-389.488195	-389.477	-389.476056	-389.524737	41.865	
C	-0.7461664491	 1.7246877232	-0.9967190414	-0.40204
C	-0.4352834022	 0.3039987542	-0.5212934787	 0.133808
O	-0.0857283542	 0.2942673121	 0.8618588875	-0.428864
C	-1.6434044381	-0.6256643486	-0.6846810505	-0.260283
C	-1.3832892975	-2.0954985687	-0.3840040368	 0.371306
C	-0.4157221582	-2.7741948694	-1.3393590269	-0.463922
C	-1.370990978	-2.5586888547	 1.0553815566	-0.312114
C	-2.5119562833	-2.9632987969	 0.1528319765	-0.048464
C	-3.9245280355	-2.4758239872	 0.3967334765	-0.413404
H	 0.1190238164	 2.3822868152	-0.8505380811	 0.100246
H	-0.9966432429	 1.7398895946	-2.0626123523	 0.113729
H	-1.5879050436	 2.1415473348	-0.4340785134	 0.12198
H	 0.4040971948	-0.0862108695	-1.1194040948	 0.063624
H	 0.6683598137	 0.8800673453	 0.9806413057	 0.278303
H	-2.4350045596	-0.2364850397	-0.0364362537	 0.09821
H	-2.0056337457	-0.5278521229	-1.7172743357	 0.087229
H	 0.5862111467	-2.3332257797	-1.2876502971	 0.115437
H	-0.3123519922	-3.8380092062	-1.1034873019	 0.110089
H	-0.7600439148	-2.6964673305	-2.3784397831	 0.10626
H	-0.6411645024	-3.3058817384	 1.35062531	 0.09725
H	-1.5687589094	-1.8114364262	 1.815577454	 0.116354
H	-2.4755425787	-3.9906818533	-0.2042199088	 0.072882
H	-3.9482967217	-1.4796101587	 0.8469346731	 0.117647
H	-4.5069520502	-2.4370486186	-0.5313537815	 0.110829
H	-4.4460868447	-3.1504564001	 1.0851857676	 0.113908
25.2166	103.5096	131.0582	181.9506	196.2815	236.7953	243.1738	255.4327	281.5583	311.6054	361.8479	395.1711	427.8694	440.0943	479.2347	519.7154	722.9567	772.0445	847.2661	872.5481	890.8331	911.9197	944.1879	956.1547	999.2824	1023.774	1042.2243	1059.4871	1087.1156	1108.0982	1131.0967	1137.7971	1152.7274	1185.4963	1210.471	1281.3054	1312.	1330.3487	1355.6373	1388.2258	1403.575	1408.4417	1416.0225	1425.9691	1432.916	1465.9297	1490.8163	1493.1441	1495.8685	1496.3594	1498.5775	1504.0962	1510.8445	2968.1156	3015.5247	3018.9409	3024.8645	3027.0271	3076.6655	3079.5501	3081.1844	3090.167	3094.4718	3102.8181	3109.4908	3123.6609	3130.4947	3216.3025	3818.1855
CC(O)CC1(C)CC1C	C[C@@H](O)C[C@@]1(C)C[C@H]1C	
InChI=1S/C8H16O/c1-6-4-8(6,3)5-7(2)9/h6-7,9H,4-5H2,1-3H3	InChI=1S/C8H16O/c1-6-4-8(6,3)5-7(2)9/h6-7,9H,4-5H2,1-3H3/t6-,7-,8-/m1/s1
