17
gdb 24556	2.09068	1.91663	1.07411	3.8711	93.4	-0.1928	-0.0223	0.1705	1107.8168	0.139319	-380.862203	-380.85459	-380.853645	-380.894531	29.363	
N	 0.1287268331	 1.2882975614	 0.4519942599	-0.301792
C	 0.9072178328	 2.3672846266	 0.0736551094	-0.021251
C	 1.2865330319	 2.8599385193	-1.1274690405	-0.095318
C	 1.070629386	 2.4774204349	-2.4896865337	-0.139928
C	 1.2123510427	 1.3116029259	-3.181539289	-0.006966
N	 1.7346518348	 0.1079625866	-2.861002474	-0.226106
C	 1.5121432504	-0.7195197595	-1.8994978206	-0.033504
C	 0.5040014253	-0.8125537577	-0.8800073085	-0.104332
C	-0.1039669827	 0.0178393933	 0.0063733847	-0.012028
H	-0.3270253351	 1.4570716439	 1.3349574475	 0.258799
H	 1.1351462309	 2.9847795728	 0.9377917903	 0.102534
H	 1.760150004	 3.8358366599	-1.024052228	 0.095368
H	 0.9127659398	 3.3365558175	-3.1408544784	 0.088855
H	 1.0710879078	 1.4068148991	-4.2595137949	 0.09767
H	 2.121601068	-1.6282973668	-1.9592962159	 0.095912
H	 0.1753681432	-1.8426092429	-0.7472895486	 0.095073
H	-0.8745240029	-0.4464518745	 0.6163270504	 0.107014
85.7047	121.1885	225.0006	252.2258	344.8887	389.6315	532.8051	570.1684	587.9843	607.4909	690.6546	727.775	731.5565	807.7004	838.1845	862.8111	896.3011	938.7408	950.4263	958.675	971.27	973.9548	998.7193	1140.4656	1221.5234	1341.9048	1356.1309	1428.378	1434.7154	1478.9077	1481.2975	1514.086	1578.2296	1582.7411	1653.454	1694.7419	1719.5054	3047.982	3099.0725	3115.4109	3125.0892	3131.9613	3160.6774	3164.883	3618.8339
N1C=CC=CN=CC=C1	[nH]1ccccnccc1	
InChI=1S/C7H8N2/c1-2-5-9-7-3-6-8-4-1/h1-8H/b4-1-,5-2-,6-3-,9-7-	InChI=1S/C7H8N2/c1-2-5-9-7-3-6-8-4-1/h1-8H/b4-1-,5-2-,6-3-,9-7-
