15
gdb 128247	2.8084	1.5016	0.98516	3.7925	77.78	-0.2102	-0.0681	0.1421	1133.9677	0.112099	-450.072946	-450.064623	-450.063679	-450.10623	30.257	
C	 0.0388794537	 1.4053581819	 0.1433706283	-0.33271
N	 0.0031936319	-0.0225548107	-0.0519885571	-0.366705
C	 0.5936808478	-0.6448419799	-1.104540966	 0.230112
C	 1.1535067679	-0.050338995	-2.1881025515	-0.00902
O	 1.693117006	-0.759185328	-3.21282536	-0.22604
N	 1.6960596257	-2.170297918	-3.1717586166	 0.041688
N	 1.2089498688	-2.7458205838	-2.1881280775	-0.197389
C	 0.6298552502	-2.0975706883	-1.0719548853	 0.353338
N	 0.1620677324	-2.7466036324	-0.0742681058	-0.537385
H	 1.0660278987	 1.7946901298	 0.2114456161	 0.126994
H	-0.4662426068	 1.927994845	-0.6794502102	 0.134279
H	-0.4848743286	 1.6525426354	 1.067906687	 0.141465
H	-0.2225006648	-0.6409393932	 0.7128721686	 0.270332
H	 1.2255607686	 1.0149521708	-2.3604835039	 0.137759
H	 0.2787303785	-3.7500320136	-0.2218486461	 0.233284
79.3354	102.0783	159.8954	187.4793	298.6135	348.3089	391.5733	431.53	505.56	539.8189	557.3688	612.59	668.8413	780.4745	800.9271	804.4405	891.3288	928.5064	1036.4408	1095.6587	1156.6863	1158.5314	1202.5827	1269.4042	1346.318	1403.9053	1464.6451	1480.5931	1517.7942	1547.2633	1576.1396	1677.6459	1697.1107	2988.5663	3040.5849	3135.1647	3226.5396	3480.6293	3615.0183
CNC1=CON=NC1=N	CNC1=CO[N]N=C1[NH]	
InChI=1S/C4H6N4O/c1-6-3-2-9-8-7-4(3)5/h2,5-6H,1H3	InChI=1S/C4H6N4O/c1-6-3-2-9-8-7-4(3)5/h2,5-6H,1H3
