16
gdb 67536	2.48619	1.84736	1.53183	5.3743	68.52	-0.2234	0.022	0.2454	918.5427	0.125776	-434.011917	-434.004525	-434.00358	-434.043369	29.509	
N	-0.0173295971	 1.4826719979	 0.1108358081	-0.605765
C	 0.0320464383	 0.0685516102	-0.0390664856	 0.185404
C	 1.2123987454	-0.6350408906	 0.6894745772	-0.071424
N	 0.9657519753	-2.0930329245	 0.6760988123	-0.328323
C	 1.5592190931	-1.4413504398	-0.5110732978	-0.081907
C	 0.3864385768	-0.8047742958	-1.3182398034	-0.062368
N	-0.9384495296	-1.4012435181	-1.204399831	-0.316264
C	-1.3004805074	-0.7425856724	-0.0317849733	 0.389806
O	-2.2801265688	-0.8007511379	 0.6552071506	-0.349237
H	 0.8758046954	 1.9181616921	-0.0963981247	 0.232955
H	-0.7221645204	 1.9021929529	-0.4856934574	 0.242979
H	 1.8344286237	-0.173719585	 1.4472972424	 0.099738
H	 1.7230370067	-2.534158035	 1.1963605688	 0.23703
H	 2.5253082266	-1.743574695	-0.8958939799	 0.096405
H	 0.6391150986	-0.3652092472	-2.2833524233	 0.083236
H	-1.2313960067	-2.3329102518	-1.4654180629	 0.247733
138.9241	199.1716	254.9234	272.3818	322.676	377.3056	479.669	514.7135	599.519	686.3809	702.6761	730.7403	772.9294	796.972	832.8797	841.1465	895.6248	937.4572	950.5583	967.6125	1005.2581	1043.1156	1063.1507	1095.3434	1126.0982	1185.2559	1227.8435	1275.9557	1318.4272	1334.3541	1336.4579	1338.493	1383.5462	1653.8172	1896.7841	3111.1346	3181.8683	3194.8729	3482.0789	3500.7231	3587.6821	3592.5659
NC12C3NC3C1NC2=O	N[C@]12[C@H]3N[C@H]3[C@H]1NC2=O	
InChI=1S/C5H7N3O/c6-5-2-1(7-2)3(5)8-4(5)9/h1-3,7H,6H2,(H,8,9)	InChI=1S/C5H7N3O/c6-5-2-1(7-2)3(5)8-4(5)9/h1-3,7H,6H2,(H,8,9)/t1-,2+,3-,5-/m1/s1
