16
gdb 105573	2.01786	1.59236	1.34566	4.7527	71.66	-0.2555	-0.0078	0.2477	1054.5223	0.123489	-434.049192	-434.040151	-434.039206	-434.08299	32.237	
C	-0.0767657788	 1.5042862282	 0.0201446133	-0.275404
O	-0.0225721386	 0.0777065054	-0.0833301811	-0.278406
C	-1.2559596894	-0.5649330038	 0.0009368515	 0.201402
C	-1.082829473	-2.1121118113	 0.1504203477	-0.212446
N	-1.8522603012	-2.0138714639	 1.3975949302	-0.326938
C	-1.8975983913	-0.6314141451	 1.4184673985	 0.347475
N	-2.2422413757	 0.2886335291	 2.2096373605	-0.540843
C	-2.1867525136	-0.1603941802	-1.0654122632	 0.249039
N	-2.9075191126	 0.1594467386	-1.9100611672	-0.340411
H	 0.9595090478	 1.8431423709	-0.019207645	 0.134218
H	-0.6330021153	 1.9369973942	-0.8206421165	 0.136565
H	-0.5402053173	 1.8116107536	 0.9620194162	 0.160267
H	-1.5451190855	-2.7310632478	-0.6212394847	 0.13693
H	-0.025886339	-2.3641402469	 0.2732409601	 0.136741
H	-1.8294805235	-2.6435405812	 2.1858052884	 0.251968
H	-2.5585591631	-0.0704766798	 3.1120139914	 0.219843
106.5634	119.4284	130.2629	165.4408	187.9727	255.8381	279.9354	374.4928	410.9248	440.1225	544.9755	586.3191	642.5872	717.8096	780.5241	827.8482	906.3527	1000.5938	1019.8556	1042.3483	1065.9486	1137.9428	1186.0005	1190.4577	1213.6253	1237.7034	1241.5233	1328.255	1382.0651	1478.3883	1487.0853	1513.3134	1514.7097	1801.4595	2353.4984	3024.7561	3059.5989	3103.682	3122.3486	3145.6973	3463.323	3613.6194
COC1(CNC1=N)C#N	CO[C@]1(CN[C]1[NH])C#N	
InChI=1S/C5H7N3O/c1-9-5(2-6)3-8-4(5)7/h3H2,1H3,(H2,7,8)	InChI=1S/C5H7N3O/c1-9-5(2-6)3-8-4(5)7/h3H2,1H3,(H2,7,8)/t5-/m0/s1
