13
gdb 23941	9.43737	0.68113	0.63528	4.6503	95.58	-0.2142	-0.0285	0.1858	1633.101	0.090088	-378.45806	-378.450317	-378.449372	-378.490756	28.649	
C	 0.0736845685	-3.7540401234	-0.0192469716	-0.610906
C	 0.0524325361	-2.5455429862	-0.0122234815	 0.258043
C	 0.0288024618	-1.1882712691	-0.00434022	-0.012069
C	-0.006654033	 0.0244243654	 0.0028955692	 0.303356
C	-0.0409493223	 1.4332711125	 0.0112371562	 0.045826
C	-1.1619725705	 2.2392042662	 0.0308770765	-0.194799
N	-0.6869446169	 3.5233093632	 0.0316446256	-0.224807
C	 0.6788363181	 3.4537087637	 0.012813975	-0.011985
N	 1.1053632728	 2.2180961352	 0.0001532887	-0.297325
H	 0.0935249677	-4.8152789706	-0.0254274193	 0.187259
H	-2.2133016483	 2.0080091603	 0.0437783909	 0.145239
H	-1.24510896	 4.3608222417	 0.0438536902	 0.275309
H	 1.2991796259	 4.3375357412	 0.00937977	 0.136859
75.6533	85.9664	229.0602	229.1539	436.33	445.0639	491.1761	505.2563	535.4945	539.6713	590.6865	602.7204	656.7676	712.8503	768.181	829.6114	918.8515	947.0632	1037.2838	1107.4341	1124.5891	1236.7586	1302.1634	1362.4685	1441.9516	1534.6763	1566.2994	2179.2747	2342.6236	3253.6554	3286.1337	3506.107	3663.1936
C#CC#CC1=CNC=N1	C#CC#Cc1c[nH]cn1	
InChI=1S/C7H4N2/c1-2-3-4-7-5-8-6-9-7/h1,5-6H,(H,8,9)	InChI=1S/C7H4N2/c1-2-3-4-7-5-8-6-9-7/h1,5-6H,(H,8,9)
