16
gdb 115046	2.0477	1.69685	0.99651	2.338	64.92	-0.2524	-0.0403	0.2122	1132.6031	0.123683	-475.031179	-475.022659	-475.021715	-475.06553	30.014	
O	 0.1438912115	 1.4218914287	-0.2134978631	-0.419706
C	 0.1810085575	 0.0253944155	-0.0078840793	-0.078396
C	-1.2303623886	-0.5541488043	-0.0004335355	 0.059333
O	-1.832685041	-0.2363548948	-1.2985567705	-0.241166
C	-2.141858617	-1.4208308352	-1.8682161354	 0.123166
N	-1.9555976182	-2.5003818729	-1.231856625	-0.277503
C	-1.3997441608	-2.1038945123	 0.0731811991	-0.103419
C	-0.163008362	-2.9344110236	 0.4020163717	 0.143032
O	 0.6602869701	-2.6309790637	 1.2257924274	-0.242455
H	-0.3254081577	 1.5722173786	-1.0419018271	 0.29102
H	 0.78412828	-0.4860708664	-0.7748819957	 0.093339
H	 0.6566000484	-0.1532940429	 0.9577874281	 0.146158
H	-1.8270103649	-0.0348868792	 0.7526576802	 0.113787
H	-2.5477754228	-1.3469122216	-2.8710858607	 0.151768
H	-2.1263082798	-2.3690421369	 0.8560719755	 0.131083
H	-0.1082357748	-3.8851124091	-0.1690002796	 0.109958
46.9981	75.8579	135.4027	168.5098	238.3974	288.0888	377.0909	430.124	473.9031	555.68	604.8577	704.424	810.2378	870.1207	910.1986	962.758	971.8734	1007.4892	1042.19	1083.6988	1100.0961	1120.4844	1144.2445	1221.7028	1255.9419	1286.805	1311.0611	1338.073	1360.662	1395.5379	1403.8272	1426.7283	1493.4592	1705.7679	1828.5784	2919.2988	2983.1124	2995.1079	3091.3205	3128.7384	3218.1546	3803.8289
OCC1OC=NC1C=O	OC[C@H]1OC=N[C@H]1C=O	
InChI=1S/C5H7NO3/c7-1-4-5(2-8)9-3-6-4/h1,3-5,8H,2H2	InChI=1S/C5H7NO3/c7-1-4-5(2-8)9-3-6-4/h1,3-5,8H,2H2/t4-,5+/m0/s1
