19
gdb 6438	3.48149	1.44112	1.23413	4.0472	75.91	-0.3004	0.0397	0.3401	1064.012	0.164901	-327.945925	-327.937335	-327.936391	-327.978761	32.084	
C	 0.0253758038	 1.6610960766	 0.0326134249	-0.412079
C	 0.032755636	 0.1415586404	 0.0150890418	 0.055078
C	 1.0436650945	-0.5913740027	-0.9083361571	-0.26291
C	 1.2980670258	-1.6416670956	 0.2297886441	 0.143773
C	 2.7455146626	-2.0631368549	 0.49552771	-0.451391
C	 0.6445612641	-0.6178693567	 1.2237343718	-0.262901
C	 0.4505367774	-2.8205409269	 0.0564583091	 0.255027
N	-0.2180690911	-3.7545755132	-0.0801198132	-0.349496
H	 1.0288536924	 2.0578649746	 0.2253529864	 0.111161
H	-0.315711855	 2.0673608232	-0.925860006	 0.121022
H	-0.6410162334	 2.0457195848	 0.8123897131	 0.121023
H	-0.9768590615	-0.235274472	-0.1786031536	 0.093855
H	 0.6883044184	-0.9706185531	-1.8678727206	 0.11911
H	 1.949185234	 0.0017622166	-1.0713650288	 0.103752
H	 3.3708284093	-1.1747796467	 0.6236665585	 0.119378
H	 2.8188460469	-2.6707014817	 1.4025511601	 0.136366
H	 3.1446975535	-2.6490372941	-0.3378851979	 0.136362
H	 1.4271728377	-0.0329121807	 1.7173883541	 0.103755
H	-0.0320570454	-1.0184290979	 1.9804123034	 0.119113
70.6537	173.3229	181.5285	217.0034	232.0768	295.7377	339.7097	345.9064	410.7815	498.9927	583.7634	612.8783	710.0352	826.1007	842.2949	898.8175	909.7293	924.6568	947.8881	1014.0705	1065.8763	1088.6267	1124.6396	1167.1574	1187.0424	1216.4954	1241.7329	1278.8046	1296.7615	1299.9166	1378.2773	1412.2215	1412.8027	1470.0604	1487.705	1490.7728	1494.9716	1496.0371	1500.0422	2346.2726	3024.7167	3038.4923	3049.4891	3051.9513	3059.9047	3093.4077	3096.1303	3114.2584	3115.2522	3122.3254	3124.9823
CC1CC(C)(C1)C#N	C[C@H]1C[C@@](C)(C1)C#N	
InChI=1S/C7H11N/c1-6-3-7(2,4-6)5-8/h6H,3-4H2,1-2H3	InChI=1S/C7H11N/c1-6-3-7(2,4-6)5-8/h6H,3-4H2,1-2H3/t6-,7-
