14
gdb 17602	4.46055	1.41432	1.15805	3.1055	61.22	-0.2542	-0.0666	0.1876	995.6432	0.106488	-415.851572	-415.843634	-415.842689	-415.884505	28.28	
N	-0.0388049045	 1.3784243425	 0.0583526325	-0.536923
C	 0.1525881959	 0.0387296705	-0.0937492477	 0.264633
N	 1.1861675024	-0.6030070409	-0.498659769	-0.507363
C	-1.0693466091	-0.764737002	 0.3225879802	 0.365586
O	-2.0900386501	-0.1977532161	 0.6483822437	-0.327202
C	-0.9393427385	-2.2585349064	 0.321675231	-0.025377
C	-1.5838825243	-3.0070558075	 1.424063444	-0.160247
O	-2.1670835742	-2.9675005665	 0.1373503423	-0.212058
H	 0.5947441359	 2.0335346676	-0.366081416	 0.256293
H	-0.9836637142	 1.6760610705	 0.2502355797	 0.274599
H	 1.9497207871	 0.0274005907	-0.7533346566	 0.210467
H	-0.0670628995	-2.6694069447	-0.1723927204	 0.139758
H	-1.152577629	-3.959852817	 1.7273722304	 0.125185
H	-2.1133699477	-2.4452746607	 2.1913456559	 0.132649
56.6878	79.1026	200.8799	253.8609	309.9754	319.1475	377.255	475.8292	514.4218	549.5828	620.0651	780.9212	812.2109	869.6944	884.7561	909.8119	1014.2015	1066.9542	1103.0114	1116.386	1147.8493	1161.9802	1176.0201	1265.7095	1396.8882	1444.1773	1509.1	1600.94	1713.3782	1791.6264	3087.5083	3183.0367	3201.7112	3445.9586	3583.4834	3718.7992
NC(=N)C(=O)C1CO1	NC(=N)C(=O)[C@H]1CO1	
InChI=1S/C4H6N2O2/c5-4(6)3(7)2-1-8-2/h2H,1H2,(H3,5,6)	InChI=1S/C4H6N2O2/c5-4(6)3(7)2-1-8-2/h2H,1H2,(H3,5,6)/t2-/m1/s1
