16
gdb 99806	2.09634	1.34915	1.17861	3.2012	65.73	-0.2709	-0.0444	0.2265	1140.3829	0.120608	-475.040673	-475.030682	-475.029738	-475.076611	35.022	
C	-0.0044030638	 1.4779361732	-0.238733926	-0.480751
C	 0.0191887615	 0.0531149772	 0.2467442846	 0.361206
O	 0.9873141445	-0.4963874403	 0.709155289	-0.293286
C	-1.2969309772	-0.7622006688	 0.106454563	 0.101969
O	-2.2932293996	 0.009199348	-0.5187091675	-0.444819
C	-1.0138906645	-2.0334994255	-0.7401922333	-0.101788
O	-2.2321121708	-2.6952730942	-1.0191412064	-0.426482
C	-1.7483322247	-1.1931758709	 1.4510055073	 0.259141
N	-2.14657415	-1.567498852	 2.4695784907	-0.332225
H	 0.9761748892	 1.9278811549	-0.0832619776	 0.147058
H	-0.2820587634	 1.512017247	-1.2966322792	 0.158424
H	-0.7772778391	 2.0409687722	 0.2945458847	 0.164889
H	-2.9256222417	-0.6270169977	-0.8860925923	 0.30026
H	-0.6061792912	-1.7152950136	-1.7039680958	 0.133206
H	-0.2807919945	-2.6662336124	-0.2315409182	 0.144715
H	-2.5109883248	-3.1650841671	-0.223617713	 0.308482
20.6411	103.727	142.4452	151.9961	166.5506	203.8413	284.2912	333.9785	374.7701	405.8405	444.5438	472.151	553.8074	576.0259	614.2383	615.7487	730.574	897.222	930.5517	980.8627	1023.4291	1081.8939	1095.6032	1145.9723	1203.5007	1249.8317	1362.9767	1381.4197	1393.4279	1411.6865	1451.7159	1460.4271	1490.4453	1821.7835	2346.5323	3050.2917	3057.6954	3112.8671	3117.2049	3164.1227	3722.5694	3791.6501
CC(=O)C(O)(CO)C#N	CC(=O)[C@@](O)(CO)C#N	
InChI=1S/C5H7NO3/c1-4(8)5(9,2-6)3-7/h7,9H,3H2,1H3	InChI=1S/C5H7NO3/c1-4(8)5(9,2-6)3-7/h7,9H,3H2,1H3/t5-/m0/s1
