19
gdb 41612	3.92086	1.26916	1.16167	1.5427	74.61	-0.2404	0.0806	0.321	1109.7231	0.160674	-422.985114	-422.977511	-422.976567	-423.017837	29.294	
C	-0.1198298439	 1.3645947495	-0.1109969397	-0.243314
C	 1.4335519903	 1.5396616037	-0.0058901504	-0.240436
C	 1.5929271575	 0.0166073879	 0.0664278767	-0.141563
C	 0.0571996077	-0.1552966089	-0.0456387926	-0.129964
C	 0.9898341128	-0.6392693144	-1.1251028301	 0.414122
C	 1.0060677645	-0.1952712952	-2.5927675769	-0.168337
O	 0.9921191801	-1.4194060471	-3.3255357765	-0.250999
C	 0.6416651481	-2.4258978144	-2.4043777507	 0.009891
O	 1.1800632726	-2.038846779	-1.1641666781	-0.281544
H	-0.6363938296	 1.766832521	 0.7628153343	 0.110935
H	-0.6066485227	 1.7635706315	-1.0072654609	 0.098445
H	 1.9367906814	 2.0431224849	-0.8378709526	 0.100215
H	 1.727388343	 2.035545056	 0.9211333785	 0.111449
H	 2.2995809307	-0.5272099052	 0.6819139173	 0.09681
H	-0.5848878208	-0.8608701546	 0.4676731925	 0.093261
H	 0.1319946138	 0.4193291518	-2.845351261	 0.10538
H	 1.9132206624	 0.3545729206	-2.864417351	 0.11622
H	-0.4575018732	-2.5264060953	-2.3357426315	 0.080422
H	 1.0930229951	-3.3726849827	-2.7123985173	 0.119008
43.3874	169.6411	189.655	214.6018	319.2092	438.3827	442.6108	528.5504	704.1429	743.426	777.8009	783.0583	852.3396	880.2471	919.6418	960.256	967.2244	982.1998	988.0948	1020.9071	1031.9009	1084.9417	1088.7159	1116.9645	1118.8578	1168.3813	1185.81	1214.5622	1225.9158	1234.9628	1247.2887	1254.0379	1270.548	1288.6882	1359.4954	1422.6113	1451.1563	1483.4812	1505.6296	1522.2576	1539.9645	2929.487	3012.3836	3043.0335	3051.7192	3064.8206	3095.7237	3098.463	3116.833	3181.88	3191.6313
C1CC2C1C21COCO1	C1C[C@H]2[C@@H]1[C@]12COCO1	
InChI=1S/C7H10O2/c1-2-6-5(1)7(6)3-8-4-9-7/h5-6H,1-4H2	InChI=1S/C7H10O2/c1-2-6-5(1)7(6)3-8-4-9-7/h5-6H,1-4H2/t5-,6+,7+
