17
gdb 66708	2.82991	1.67205	1.27604	0.9894	84.46	-0.2117	0.0334	0.2451	1018.8172	0.133899	-347.418703	-347.41086	-347.409916	-347.450658	31.273	
C	 0.0199928059	 1.4824176628	 0.0800310005	-0.521355
C	 0.0048295554	-0.0055722804	-0.0136781685	 0.279105
C	 0.266991187	-0.9921383407	-1.1980402687	-0.155545
C	-0.6410307615	-2.0200044984	-0.5412263451	-0.089001
C	 0.8470114518	-2.0159990371	-0.2371383511	-0.177231
C	 0.6097948789	-1.0404489774	 0.9606218927	 0.31067
C	 1.2716826973	-0.8385217089	 2.1890192505	 0.021509
C	 1.8472948639	-0.6631062068	 3.2338130363	-0.389342
C	-0.898459641	-1.0351508248	 0.6344749905	-0.21288
H	 0.9863197809	 1.8917548547	-0.2357976655	 0.1274
H	-0.7590024167	 1.9303946943	-0.5478828449	 0.123224
H	-0.1541117225	 1.8003838364	 1.1132602163	 0.133233
H	 0.4876484729	-0.8261306343	-2.2438479036	 0.091577
H	-1.2513339196	-2.7923707441	-0.9881239752	 0.09325
H	 1.5957952232	-2.7784735631	-0.4013434729	 0.095275
H	 2.3499984553	-0.5111950903	 4.1560898048	 0.173851
H	-1.7206535911	-0.9037913221	 1.3256052238	 0.09626
112.2871	151.6261	207.8446	251.6777	279.6356	464.7971	482.5294	531.0418	533.9618	614.1776	661.3035	693.4716	747.3181	766.7855	780.7675	787.3813	848.1876	885.6933	909.9732	926.8034	972.842	982.4973	1004.1917	1031.1892	1053.6751	1092.1277	1154.2174	1171.6381	1203.097	1248.4537	1321.5504	1329.4048	1404.8426	1438.2076	1478.9434	1495.3485	2220.2141	3022.5032	3082.7556	3099.6515	3197.2461	3201.3355	3207.929	3219.3317	3504.5436
CC12C3C4C3C1(C#C)C24	C[C@@]12[C@@H]3[C@H]4[C@@H]3[C@]1(C#C)[C@@H]24	
InChI=1S/C9H8/c1-3-9-6-4-5(6)8(9,2)7(4)9/h1,4-7H,2H3	InChI=1S/C9H8/c1-3-9-6-4-5(6)8(9,2)7(4)9/h1,4-7H,2H3/t4-,5+,6-,7+,8-,9+/m0/s1
