17
gdb 49662	2.66711	1.72008	1.43442	3.2067	73.	-0.2382	-0.0275	0.2107	959.083	0.136432	-421.787052	-421.779757	-421.778813	-421.819021	28.329	
O	-1.0917640209	 0.9391477087	 0.0575754362	-0.255756
C	 0.0687217888	 0.9575165317	-0.2761552396	 0.147354
C	 1.161879273	 1.8766197647	 0.1233500419	-0.159771
C	 1.1824726258	 3.3928811617	-0.1823127923	 0.078992
O	-0.0138646476	 4.0969716691	-0.2817702713	-0.247303
C	-0.4961306574	 4.4342216197	 1.0122714848	 0.093625
C	-1.2021683887	 3.3771058573	 1.8030128485	-0.34209
C	 0.2783683395	 3.6280326459	 2.0266372334	-0.082122
C	 1.3578629177	 2.9305528203	 1.2292084462	-0.117368
H	 0.4335679962	 0.2122924678	-1.0192995597	 0.081631
H	 2.1199951886	 1.4398033257	-0.15372989	 0.101886
H	 1.9646598973	 3.7625203539	-0.838281278	 0.111132
H	-0.7430032181	 5.4863923393	 1.1064928506	 0.099881
H	-1.8592450171	 3.7362387921	 2.5896189239	 0.108454
H	-1.5130388856	 2.4706761929	 1.3032213952	 0.182273
H	 0.6012308088	 4.0569518697	 2.9675512054	 0.094982
H	 2.3394793897	 2.8985388095	 1.6877556246	 0.104199
83.0062	145.265	207.3135	240.1026	379.3852	450.6891	514.9342	651.4924	694.8732	729.0208	745.7902	782.3193	812.6919	839.688	890.513	931.9862	945.2306	980.4255	1001.8446	1050.9419	1061.9715	1088.4043	1095.5821	1098.9016	1111.3901	1117.6923	1161.7713	1211.14	1235.9878	1307.1973	1344.3643	1371.8936	1384.348	1423.5031	1450.1717	1480.6937	1813.3889	2867.7645	3121.0771	3133.6669	3153.8961	3164.5101	3172.0612	3186.5168	3251.219
O=CC1C2OC3CC3C12	O=C[C@H]1[C@H]2O[C@H]3C[C@H]3[C@@H]12	
InChI=1S/C7H8O2/c8-2-4-6-3-1-5(3)9-7(4)6/h2-7H,1H2	InChI=1S/C7H8O2/c8-2-4-6-3-1-5(3)9-7(4)6/h2-7H,1H2/t3-,4-,5+,6+,7-/m1/s1
