17
gdb 74060	2.775	1.25358	0.92665	4.275	83.11	-0.2338	-0.0452	0.1887	1260.7509	0.134309	-384.701861	-384.693018	-384.692074	-384.735885	32.631	
C	 0.1036930982	 1.5155275809	 0.0373841494	-0.485986
C	 0.0172341715	 0.027913838	-0.0479348949	 0.323883
C	 0.0082546434	-0.7221086337	-1.1610382663	-0.285525
C	-0.0905041962	-2.1565777682	-0.8495196487	 0.391465
O	-0.1588121752	-3.0832418065	-1.6168404533	-0.325626
C	-0.0560840077	-2.2782506578	 0.7118638061	-0.289795
C	-0.0900026126	-0.8101169937	 1.2070570278	-0.32275
C	-1.1080722205	-3.1270687006	 1.2408353314	 0.334049
C	-1.9950277936	-3.8105017231	 1.6771815004	-0.462722
H	 0.9851675937	 1.8180997166	 0.6164240684	 0.140578
H	 0.1603225392	 1.9803089273	-0.9493494181	 0.137426
H	-0.7671609503	 1.9231523024	 0.5656546077	 0.142542
H	 0.0548641947	-0.3591969341	-2.1803112312	 0.1137
H	 0.9179104949	-2.7267338735	 0.9472037644	 0.133866
H	 0.7230828223	-0.5858884022	 1.9071522168	 0.121219
H	-1.0237065547	-0.5891419353	 1.7365958935	 0.13588
H	-2.772370167	-4.4272117065	 2.0548348164	 0.197797
45.3253	132.3689	138.6603	175.8276	230.2831	289.5489	396.0857	441.8269	462.7175	522.4312	567.2139	617.4529	621.8355	639.2531	691.9916	812.0361	866.4754	880.6291	933.1543	992.4864	1021.786	1067.4583	1073.4665	1145.7944	1178.5911	1181.6244	1214.2043	1282.0968	1322.5175	1343.5754	1410.619	1472.9447	1476.8692	1478.8909	1682.577	1823.5651	2239.7054	3023.7688	3025.3789	3039.5067	3071.2417	3074.7182	3125.7592	3214.871	3505.7821
CC1=CC(=O)C(C1)C#C	CC1=CC(=O)[C@@H](C1)C#C	
InChI=1S/C8H8O/c1-3-7-4-6(2)5-8(7)9/h1,5,7H,4H2,2H3	InChI=1S/C8H8O/c1-3-7-4-6(2)5-8(7)9/h1,5,7H,4H2,2H3/t7-/m1/s1
