21
gdb 36650	4.13957	0.78198	0.75625	1.0637	88.43	-0.2488	0.0587	0.3075	1581.0087	0.182251	-349.891581	-349.882565	-349.881621	-349.926015	34.419	
C	-0.0547954135	-1.1824003722	-0.0133487508	-0.43881
C	 0.0127183031	 0.0102509382	 0.1225445887	 0.29225
C	 0.130251822	 1.4552881426	 0.2708891339	-0.347539
C	 1.4599032655	 2.0140999577	-0.2833048386	-0.218764
C	 1.5425422059	 3.5186770353	-0.131575025	 0.010848
C	 1.9092180289	 4.2498530471	 1.1360167872	-0.06475
C	 3.0264323482	 3.5324535852	 1.9075712537	-0.229949
C	 3.9408539366	 3.6236338058	 0.6430889258	-0.227326
C	 2.8071093362	 4.3345830625	-0.1089267007	-0.092394
H	-0.1273873368	-2.2352567839	-0.1279694924	 0.191225
H	-0.7110825973	 1.9444195255	-0.2378421605	 0.125877
H	 0.0398566878	 1.7268896956	 1.3304304102	 0.133666
H	 2.2880584481	 1.5163672006	 0.2284140993	 0.113299
H	 1.5464450501	 1.7423845788	-1.341887325	 0.10812
H	 0.7487749585	 4.0377386194	-0.6689977846	 0.081694
H	 1.2599855484	 5.0093769408	 1.5561557968	 0.08031
H	 3.4136832455	 4.1304301568	 2.7351494301	 0.103479
H	 2.7959298644	 2.5321533991	 2.2889658346	 0.096999
H	 4.8010985491	 4.2752640574	 0.8102749595	 0.102985
H	 4.3024565224	 2.6839073439	 0.2135490241	 0.097729
H	 2.9461973165	 5.1668268836	-0.7894477163	 0.08105
58.3339	75.1616	104.4723	209.5162	251.3611	280.2555	350.8603	433.9668	471.8082	570.2709	614.7317	633.3609	711.5478	752.8159	776.8928	792.58	799.4659	907.9414	937.1239	943.9584	971.1434	990.5621	1016.89	1023.8486	1034.5736	1051.5789	1081.4385	1122.423	1139.8393	1174.6784	1223.7454	1234.261	1246.4809	1263.6256	1281.6741	1305.3024	1313.9526	1346.9109	1373.6109	1453.5723	1472.0715	1482.0169	1497.2695	1509.0683	2237.5978	3017.3045	3039.9553	3044.3112	3050.183	3053.2909	3093.0518	3095.5575	3111.907	3114.1963	3167.1892	3179.1403	3508.0923
C#CCCC1C2CCC12	C#CCC[C@H]1[C@H]2CC[C@@H]12	
InChI=1S/C9H12/c1-2-3-4-7-8-5-6-9(7)8/h1,7-9H,3-6H2	InChI=1S/C9H12/c1-2-3-4-7-8-5-6-9(7)8/h1,7-9H,3-6H2/t7-,8+,9-
