17
gdb 18585	3.78348	2.03706	1.62494	1.7917	68.43	-0.2187	0.0068	0.2255	822.1344	0.144275	-363.838558	-363.831899	-363.830955	-363.869353	26.374	
O	 0.6082174124	 0.856253332	-0.8978126304	-0.427115
C	 0.1480439125	-0.2279888802	-0.1384876954	 0.131165
C	 0.1715148176	-0.1287522135	 1.4087373016	-0.217697
N	-1.2193743552	-0.6533642515	 1.4797521036	-0.095422
C	-2.1832089529	 0.223829344	 2.1657943749	-0.220186
C	-2.7127123328	 1.1343167385	 1.0774438481	-0.072491
C	-2.2716770579	 0.7526638829	-0.1220016079	-0.106755
C	-1.3883202759	-0.4606722272	 0.0015455748	-0.066311
H	 0.1212752907	 1.6383756986	-0.6128289385	 0.279442
H	 0.6708295463	-1.1072928314	-0.5204616963	 0.098339
H	 0.9080133586	-0.7377069191	 1.9424016108	 0.10576
H	 0.2681734925	 0.9142763728	 1.7456049149	 0.086223
H	-2.9974675979	-0.3550840035	 2.6264946575	 0.110118
H	-1.6876925586	 0.7670999473	 2.9815413452	 0.107565
H	-3.3969471967	 1.9532656791	 1.2703190004	 0.101283
H	-2.5408019411	 1.2002901895	-1.071661946	 0.106999
H	-1.7901340914	-1.3257768782	-0.5416607272	 0.079086
90.158	193.6265	318.657	377.5548	423.5179	430.8373	540.9499	660.6353	702.868	750.5666	809.7996	820.8705	862.7573	928.321	960.4605	966.9212	980.6857	1036.2676	1045.768	1072.9393	1091.0005	1121.3272	1151.928	1183.1907	1216.0677	1236.0406	1251.3516	1285.1785	1310.1902	1321.5181	1340.1338	1358.1759	1440.7999	1493.2402	1506.8038	1664.6992	2989.6094	2994.8343	3015.7065	3031.3444	3067.1367	3096.54	3188.3086	3213.4828	3786.8016
OC1CN2CC=CC12	O[C@H]1CN2CC=C[C@@H]12	
InChI=1S/C6H9NO/c8-6-4-7-3-1-2-5(6)7/h1-2,5-6,8H,3-4H2	InChI=1S/C6H9NO/c8-6-4-7-3-1-2-5(6)7/h1-2,5-6,8H,3-4H2/t5-,6-/m0/s1
