18
gdb 88323	3.08339	1.01859	0.9513	4.8743	75.55	-0.248	-0.021	0.227	1308.1581	0.148337	-435.278942	-435.269928	-435.268984	-435.313189	32.706	
C	 0.0776972048	 1.5470069779	-0.1578905937	-0.403714
C	-0.0339390978	 0.0615609471	 0.0803432234	 0.025846
N	 1.191553753	-0.7483711608	 0.0294993598	-0.366238
C	 0.4641152097	-0.6393896776	 1.3055866926	-0.085813
C	 1.1668739266	 0.0552744108	 2.4357632431	 0.373892
N	 0.6055280712	 0.1269802401	 3.5715327971	-0.51984
N	 2.433957526	 0.5473565607	 2.0713683429	-0.335955
C	 3.3142251682	 1.2208939474	 2.8749332435	 0.159838
O	 3.1220458438	 1.5372973227	 4.0286972498	-0.302554
H	 0.9749535785	 1.9642088514	 0.3034710204	 0.126872
H	 0.115191403	 1.7605866505	-1.2312018586	 0.124747
H	-0.7921216668	 2.0629324081	 0.2608013521	 0.134962
H	-0.9232997151	-0.3926824115	-0.3547069686	 0.098232
H	 1.0389031247	-1.6501504262	-0.4105522434	 0.243814
H	-0.1297906439	-1.4796929924	 1.6514128146	 0.114142
H	 1.2004598034	 0.6264793112	 4.2334674925	 0.251624
H	 2.7133087778	 0.3046465903	 1.126593943	 0.267763
H	 4.2538607331	 1.4559049103	 2.3387679594	 0.092381
70.4095	83.872	170.7948	175.4488	209.8266	262.495	273.757	366.8024	426.4257	471.8652	547.3968	677.0235	752.512	770.7127	789.7028	861.8136	915.932	951.6709	967.8055	989.0371	1027.4168	1028.9458	1046.8556	1091.6122	1151.0118	1174.2376	1195.2291	1250.6932	1259.7983	1341.6848	1394.7493	1418.5526	1437.2689	1456.649	1490.8753	1499.7817	1515.6132	1728.5844	1806.8414	2948.4936	3043.1602	3106.0323	3112.3899	3137.7101	3166.1323	3487.2667	3526.1957	3533.4797
CC1NC1C(=N)NC=O	C[C@H]1N[C@H]1C(=N)NC=O	
InChI=1S/C5H9N3O/c1-3-4(8-3)5(6)7-2-9/h2-4,8H,1H3,(H2,6,7,9)	InChI=1S/C5H9N3O/c1-3-4(8-3)5(6)7-2-9/h2-4,8H,1H3,(H2,6,7,9)/t3-,4-/m1/s1
