14
gdb 8643	2.49131	1.85605	1.45828	4.6391	62.48	-0.3093	-0.0307	0.2786	915.9205	0.104525	-378.720472	-378.711655	-378.710711	-378.753755	30.297	
C	-0.0805084205	 1.40143186	-0.0499996505	-0.264269
O	 0.0486940551	-0.0170037505	-0.0029516984	-0.254555
C	 0.7142290709	-0.5481311348	 1.1224354746	 0.082167
C	 2.2027583905	-0.1421706402	 1.2118628422	-0.421401
C	 0.0206905054	-0.1618410304	 2.3832869907	 0.28268
N	-0.5062025668	 0.1928578382	 3.3476830222	-0.321893
C	 0.6235796943	-2.018815647	 0.9748704912	 0.311198
N	 0.5981371726	-3.1670587863	 0.8657589722	-0.3128
H	 0.8872171817	 1.8982933271	-0.185379528	 0.126588
H	-0.709094746	 1.6065654122	-0.9172769278	 0.154676
H	-0.5696195106	 1.7913651159	 0.8507553652	 0.14633
H	 2.2918951096	 0.9292080959	 1.3983682091	 0.149655
H	 2.6905331662	-0.678676904	 2.0281573169	 0.163403
H	 2.6903534975	-0.3959351161	 0.2684178203	 0.158221
88.9117	132.8918	156.5013	178.4242	206.5066	229.8865	276.4301	341.8139	411.2661	492.4371	532.2084	573.1877	607.9157	681.6163	894.9227	929.7247	1052.5907	1109.7023	1162.7938	1179.2661	1195.0806	1245.2999	1401.9495	1471.9556	1481.3975	1484.2505	1499.9242	1507.4384	2358.6931	2377.2074	3019.3666	3063.1734	3085.4902	3145.9735	3149.9397	3155.1134
COC(C)(C#N)C#N	COC(C)(C#N)C#N	
InChI=1S/C5H6N2O/c1-5(3-6,4-7)8-2/h1-2H3	InChI=1S/C5H6N2O/c1-5(3-6,4-7)8-2/h1-2H3
