18
gdb 13960	4.83885	1.2407	1.12495	2.7075	72.76	-0.2398	-0.0203	0.2195	1083.9426	0.153192	-347.78595	-347.778129	-347.777185	-347.818992	28.832	
O	-0.6458932048	 0.5956938276	 0.5494090892	-0.238634
C	 0.1861552166	 0.9022991005	-0.2645463625	 0.165944
C	 1.2747071244	 1.9368502297	-0.0478905151	-0.391914
C	 1.2591283428	 2.9937563231	-1.1233296555	 0.366739
C	 1.9005464617	 2.8031792644	-2.4748100502	-0.318278
C	 2.3665661093	 3.9389530037	-1.6056231485	-0.108898
C	 1.3707980381	 5.1010285426	-1.6860754952	-0.216936
C	 0.2350159675	 4.13951033	-1.2042742239	-0.284643
H	 0.2036671003	 0.4316376194	-1.2749867052	 0.074981
H	 1.1488400637	 2.3660035901	 0.9515679603	 0.117744
H	 2.2383614953	 1.4075962348	-0.073794125	 0.1171
H	 2.5876150034	 1.9655957707	-2.5503913264	 0.109228
H	 1.3425676417	 3.0018224616	-3.3877681148	 0.106798
H	 3.3940155244	 4.0074582534	-1.2672084036	 0.086737
H	 1.5729740741	 5.8945166215	-0.9636791672	 0.106469
H	 1.247819089	 5.5541694194	-2.6751784863	 0.098788
H	-0.6097527729	 3.9846669003	-1.883420644	 0.098675
H	-0.1572265248	 4.4230111573	-0.2245003461	 0.1101
49.4483	73.6155	160.5794	252.5124	310.4136	373.7277	426.312	480.2905	649.2119	717.8581	784.2555	812.218	840.5896	888.004	932.3008	953.307	970.3579	977.5728	1023.7396	1037.0807	1065.0075	1088.489	1116.7305	1151.6127	1179.6754	1221.4246	1243.6894	1259.7928	1264.259	1305.0742	1318.6236	1391.0622	1423.5899	1454.3323	1482.1748	1486.5684	1512.0748	1833.568	2863.8748	3010.6181	3043.8954	3051.9215	3083.2774	3095.4078	3101.4346	3114.4266	3174.7688	3192.7462
O=CCC12CC1CC2	O=CC[C@]12C[C@H]1CC2	
InChI=1S/C7H10O/c8-4-3-7-2-1-6(7)5-7/h4,6H,1-3,5H2	InChI=1S/C7H10O/c8-4-3-7-2-1-6(7)5-7/h4,6H,1-3,5H2/t6-,7-/m1/s1
