17
gdb 89623	3.96883	1.12582	0.96012	1.9908	69.16	-0.2413	0.0164	0.2577	1199.7006	0.136409	-455.136213	-455.127619	-455.126675	-455.169561	32.343	
N	 0.5141653352	 0.2549493756	-1.000759551	-0.540167
C	-0.0491633376	 0.1872993848	 0.2341430931	 0.311691
O	 0.4604141084	 0.6242614519	 1.2508237593	-0.372734
C	-1.370035656	-0.5169738968	 0.2639985015	 0.258327
C	-2.3278468919	-0.5302866502	 1.4562948891	-0.347733
C	-2.6666203509	-2.025271684	 1.1169963055	 0.096843
O	-3.9777944489	-2.3264458025	 0.6896715629	-0.433499
C	-1.6850392121	-1.966319369	-0.0555532515	-0.083374
N	-2.0358638007	-0.900564356	-0.977780262	-0.377248
H	 1.3865255664	 0.7436261786	-1.1089276977	 0.259161
H	-0.0257698022	-0.0199885656	-1.804925192	 0.271938
H	-1.8071575573	-0.413463196	 2.4072560835	 0.136343
H	-3.1612120924	 0.1772646689	 1.3992557898	 0.096821
H	-2.327952538	-2.7087844697	 1.9054419822	 0.085469
H	-4.5721749928	-2.2208125003	 1.4395949486	 0.289876
H	-1.031244861	-2.7583346932	-0.4010518427	 0.104632
H	-3.0354352182	-0.7047610865	-0.9696093486	 0.243655
76.6114	104.2945	164.3342	234.6345	295.5462	302.293	349.6114	408.338	442.0616	508.8641	593.7811	630.5668	665.966	741.2979	752.9392	830.1882	870.0073	917.3164	972.7574	984.6581	1041.9861	1083.2423	1091.0928	1116.2977	1154.5642	1163.9172	1195.2989	1230.5068	1245.6947	1285.6756	1311.5363	1346.2898	1410.7053	1457.7137	1480.725	1594.4591	1789.7833	3027.4286	3053.4694	3138.5902	3187.783	3477.0679	3593.6303	3736.5888	3816.5272
NC(=O)C12CC(O)C1N2	NC(=O)[C@]12C[C@@H](O)[C@H]1N2	
InChI=1S/C5H8N2O2/c6-4(9)5-1-2(8)3(5)7-5/h2-3,7-8H,1H2,(H2,6,9)	InChI=1S/C5H8N2O2/c6-4(9)5-1-2(8)3(5)7-5/h2-3,7-8H,1H2,(H2,6,9)/t2-,3-,5+/m1/s1
