21
gdb 114917	3.18379	1.07683	0.87461	0.895	80.78	-0.2395	0.0198	0.2593	1368.4127	0.181903	-424.236877	-424.227099	-424.226155	-424.271458	36.352	
C	-0.0125486813	 1.5030003238	 0.0817254357	-0.496387
C	-0.0254981133	 0.0088868967	 0.0007069029	 0.292657
C	-0.0092601151	-0.7621313128	-1.0906853224	-0.170721
C	-0.0006893713	-2.2376556019	-0.7791167132	-0.265406
C	-0.2812634695	-2.2713409285	 0.7452264217	-0.006182
C	 0.4273939051	-3.3821297209	 1.5031054616	-0.087234
O	-0.0381797966	-4.620681262	 0.9798130235	-0.425378
C	 0.0505856555	-0.8415101748	 1.254565281	 0.012657
O	 1.3336759151	-0.7110530767	 1.8850633251	-0.433122
H	 0.8283049375	 1.8489854964	 0.6939136088	 0.133287
H	 0.0638519752	 1.9640596273	-0.9067450964	 0.119874
H	-0.9237766728	 1.8803608455	 0.5634948033	 0.126154
H	 0.0078726729	-0.3815136503	-2.1079190203	 0.087281
H	-0.7518915814	-2.7968214618	-1.3458550927	 0.114836
H	 0.9657167807	-2.6973106485	-1.0319551562	 0.101047
H	-1.3589850407	-2.4193835692	 0.8802746184	 0.086278
H	 1.5165416124	-3.2841098905	 1.3816537667	 0.077545
H	 0.2152689994	-3.2957624068	 2.5798574412	 0.09101
H	 0.4370348083	-5.3292558644	 1.4230918207	 0.285114
H	-0.6515623477	-0.52364882	 2.033193108	 0.081051
H	 1.9987316375	-0.7762298806	 1.1902433825	 0.275637
66.8204	105.2182	169.2831	173.4569	222.7336	259.7383	271.8435	297.2391	316.0314	374.3334	433.9313	474.7758	594.8866	643.5217	736.3179	814.9803	834.5619	890.5452	909.5246	950.7214	988.2394	1032.4272	1051.8017	1069.3442	1073.3197	1093.5496	1127.2621	1160.3458	1193.6083	1219.4366	1258.6959	1264.7429	1286.6852	1306.2202	1322.6285	1336.7764	1378.3705	1408.1517	1428.2683	1457.6485	1476.719	1488.6602	1492.1499	1516.0628	1719.0129	2977.9437	3005.4978	3006.5246	3020.5479	3037.5208	3053.7115	3071.7702	3072.0293	3111.6841	3172.7428	3795.1113	3830.602
CC1=CCC(CO)C1O	CC1=CC[C@@H](CO)[C@H]1O	
InChI=1S/C7H12O2/c1-5-2-3-6(4-8)7(5)9/h2,6-9H,3-4H2,1H3	InChI=1S/C7H12O2/c1-5-2-3-6(4-8)7(5)9/h2,6-9H,3-4H2,1H3/t6-,7-/m0/s1
