12
gdb 23804	3.40013	2.31745	1.37814	2.4367	61.96	-0.2186	-0.0539	0.1647	797.8028	0.085679	-418.810377	-418.804231	-418.803287	-418.840717	23.409	
F	 0.0180062889	 0.0231865025	 0.0036531326	-0.036211
C	-0.0339383498	 1.3402668192	 0.0108163816	 0.306485
C	-1.2054396978	 2.0079455879	 0.0296543376	-0.260193
C	-1.1740025616	 3.4410175847	 0.0362811087	 0.010391
N	-0.0749083799	 4.1310299526	 0.0250780872	-0.186015
N	 1.071935247	 3.4234012168	 0.0063747671	-0.300935
C	 1.2503898343	 2.0340248584	-0.0028271798	 0.282508
N	 2.3644132423	 1.4036325491	-0.0207177983	-0.551453
H	-2.1450041311	 1.4691373616	 0.0394823057	 0.129411
H	-2.0929898132	 4.0149219305	 0.0513026579	 0.132929
H	 1.9012407809	 3.9991760004	-0.0018096677	 0.267779
H	 3.16088879	 2.0425486162	-0.0281525825	 0.205303
131.0232	253.6162	318.132	420.9042	468.5618	541.2038	566.5191	590.4601	656.0315	756.6358	765.2897	799.605	870.7152	909.9137	935.8888	1040.0233	1083.7353	1170.0987	1266.3051	1307.8803	1393.2099	1403.0767	1466.4223	1606.0899	1676.8318	1716.6779	3201.7059	3215.5643	3464.7042	3611.8442
FC1=CC=NNC1=N	FC1=C(NN=CC1)[NH]	
InChI=1S/C4H4FN3/c5-3-1-2-7-8-4(3)6/h1-2H,(H2,6,8)	InChI=1S/C4H5FN3/c5-3-1-2-7-8-4(3)6/h2,6,8H,1H2
