15
gdb 20784	4.86672	1.89645	1.4718	3.8606	66.52	-0.2526	0.0211	0.2737	840.4113	0.121481	-358.835713	-358.829131	-358.828187	-358.866779	24.299	
C	-0.3402230346	 1.6341778144	-0.1968957335	-0.400393
C	 0.0526206886	 0.1855582242	 0.0132814849	 0.051685
C	 0.8068562228	-0.5694508267	-1.1698948231	-0.39241
C	 1.9514534827	-0.7008393951	-0.1767123292	 0.376611
N	 3.1239319923	-1.1419745264	 0.2425010734	-0.376415
C	 3.1018562065	-0.676183214	 1.5378644106	 0.023105
N	 2.0114503844	-0.0061538218	 1.9324572289	-0.294141
N	 1.3085719115	-0.040889535	 0.7774848957	 0.080039
H	 0.4912800329	 2.2085854801	-0.6154929742	 0.135048
H	-1.189034494	 1.6941790125	-0.885240204	 0.131964
H	-0.6367538554	 2.0954480302	 0.749481453	 0.145476
H	-0.7746171922	-0.3992968977	 0.4258958536	 0.116391
H	 0.3404493376	-1.5058991555	-1.4823210212	 0.140366
H	 1.0024004591	 0.0540922164	-2.0450686121	 0.137182
H	 3.9260784777	-0.8346190957	 2.2179198773	 0.12549
68.9965	198.2234	228.0357	288.4936	421.736	483.0882	666.8639	695.2704	705.8144	736.8286	847.9303	886.0412	916.1341	981.8854	1030.8931	1064.8828	1098.5277	1127.0732	1160.5421	1178.361	1211.1432	1239.2729	1253.011	1300.7316	1364.212	1399.1764	1413.4277	1472.0887	1486.0351	1496.4123	1507.5878	1572.3148	3042.8187	3071.4946	3077.5316	3117.5193	3123.3415	3132.871	3257.2152
CC1CC2=NC=NN12	C[C@H]1Cc2ncnn12	
InChI=1S/C5H7N3/c1-4-2-5-6-3-7-8(4)5/h3-4H,2H2,1H3	InChI=1S/C5H7N3/c1-4-2-5-6-3-7-8(4)5/h3-4H,2H2,1H3/t4-/m0/s1
