16
gdb 51499	3.45913	1.16036	0.9151	4.2081	73.88	-0.244	-0.0422	0.2018	1238.9838	0.123512	-437.902245	-437.893933	-437.892989	-437.936255	29.834	
N	-0.0288732577	 1.2927218343	-0.0776177654	-0.442813
C	-0.0940169268	 0.0402434139	-0.2007230924	 0.142514
O	-0.6897987805	-0.692646509	 0.7708402404	-0.194574
C	-0.8216412445	-2.08753746	 0.528797645	-0.029004
C	-1.2091461207	-2.8217199968	 1.7770471597	-0.092132
C	-2.2984819326	-3.5733126816	 1.6065068351	-0.071019
C	-2.8785113978	-3.4747684328	 0.220219686	-0.371401
C	-2.0013372881	-2.4021336586	-0.4339354807	 0.385695
O	-2.1842456549	-1.8518859402	-1.4849225514	-0.292808
H	 0.464838981	 1.6938427007	-0.8721846993	 0.230688
H	 0.2980828389	-0.5628900252	-1.0279116567	 0.097346
H	 0.1117680742	-2.4763100231	 0.0904346855	 0.108253
H	-0.6358270426	-2.7321984438	 2.6911337844	 0.120686
H	-2.7381531235	-4.2004990131	 2.3732939141	 0.115295
H	-2.8000661486	-4.4102946725	-0.3499829383	 0.144637
H	-3.9360086659	-3.1868454023	 0.193156324	 0.148636
55.1215	74.8962	116.8706	181.1184	259.116	341.5502	429.0956	448.2914	538.3899	637.3131	671.9921	732.8256	761.4268	791.4105	816.7283	951.4827	972.4578	992.2721	1020.7403	1032.1156	1044.8263	1103.8955	1130.5385	1160.2782	1165.3462	1266.2096	1283.4536	1289.3664	1336.6981	1388.2655	1426.5002	1444.9674	1680.7805	1746.2686	1862.6706	2973.1794	3027.5995	3053.3139	3065.5018	3197.9267	3223.3239	3519.503
N=COC1C=CCC1=O	[NH][CH]O[C@H]1C=CCC1=O	
InChI=1S/C6H7NO2/c7-4-9-6-3-1-2-5(6)8/h1,3-4,6-7H,2H2	InChI=1S/C6H7NO2/c7-4-9-6-3-1-2-5(6)8/h1,3-4,6-7H,2H2/t6-/m0/s1
