13
gdb 129078	2.54164	1.87727	1.21827	3.3218	74.04	-0.257	-0.0873	0.1697	960.1103	0.090356	-445.015847	-445.008537	-445.007593	-445.048145	26.9	
N	-0.0887344259	 1.3300839261	-0.4827889225	-0.453366
C	 0.0045240613	 0.1264439057	-0.0691324605	 0.253671
C	 1.2502966948	-0.5394628306	 0.3240409589	-0.022655
N	 1.4362863763	-1.6411896988	 0.9585325697	-0.162037
N	 0.4493899894	-2.3888514647	 1.5011708801	-0.1451
N	-0.8459387197	-2.0915609259	 1.8958854789	-0.053051
N	-1.5724188423	-1.302657404	 1.2677255238	-0.184975
C	-1.2319258645	-0.7153795184	 0.0044278851	 0.302684
N	-2.0012326464	-0.8523972037	-0.9900410448	-0.431001
H	 0.826861204	 1.789457401	-0.4600810027	 0.229695
H	 2.1713170549	-0.056073667	 0.0009991299	 0.134177
H	 0.8268599939	-3.0783373637	 2.1348497156	 0.290858
H	-2.8153893357	-1.415918356	-0.7255052917	 0.241099
73.8105	94.2919	258.6625	319.2432	359.2758	401.3238	476.0131	516.3998	578.1853	671.0548	694.1365	762.1887	822.0766	851.4838	881.9102	916.2428	949.5581	984.26	1005.6855	1078.5875	1125.5273	1288.9593	1369.	1386.6786	1466.8303	1622.3858	1674.6782	1682.1838	1733.6552	3143.0923	3422.2274	3433.3646	3618.5946
N=C1C=NNN=NC1=N	[NH][C]1C=NNN=N[C]1[NH]	
InChI=1S/C3H4N6/c4-2-1-6-8-9-7-3(2)5/h1H,(H3,4,5,7,8)	InChI=1S/C3H4N6/c4-2-1-6-8-9-7-3(2)5/h1H,(H3,4,5,7,8)
