19
gdb 69831	3.17933	1.53879	1.23765	3.279	73.94	-0.2623	0.0632	0.3255	1051.3511	0.159861	-423.007013	-422.999314	-422.99837	-423.038784	30.74	
C	-0.0136972267	 1.5283185483	 0.0483382018	-0.469963
C	-0.0300763979	 0.0186983585	 0.0730418506	 0.395718
C	-1.2444116426	-0.6568672056	-0.5445312635	-0.283067
C	-1.1011635748	-2.1885509357	-0.6363436096	-0.242907
C	-0.6945973217	-2.8137129919	 0.6903535872	 0.027426
O	 0.6735445096	-3.2189267043	 0.8298727799	-0.240251
C	 0.2355342695	-2.0755604761	 1.5591074506	 0.042656
C	 0.7207690632	-0.7223715514	 1.1095398236	-0.041863
O	 1.2230048847	-0.6162794639	-0.2235932921	-0.276056
H	 0.8889130149	 1.9137153781	 0.5291407948	 0.128805
H	-0.035193303	 1.8965737814	-0.9832481862	 0.127494
H	-0.8881433649	 1.9356160435	 0.5672107591	 0.121232
H	-2.1258412481	-0.3888398161	 0.0537528343	 0.10352
H	-1.4160471617	-0.2454904619	-1.5465397751	 0.107089
H	-2.0457859254	-2.620003972	-0.9804617986	 0.098056
H	-0.3352865749	-2.4370830164	-1.3752384881	 0.137858
H	-1.4019232884	-3.5006450054	 1.1536194533	 0.09217
H	 0.1932006376	-2.2096887052	 2.6403233234	 0.085931
H	 1.2884680606	-0.1562752838	 1.8485713747	 0.08615
157.4236	177.1613	195.5498	271.815	338.232	370.4451	404.6088	473.9775	499.9462	584.0937	689.3943	722.4396	791.3315	810.3614	831.9418	894.0647	911.433	961.2706	976.4328	1017.449	1037.5959	1058.4998	1073.4239	1106.7909	1116.5416	1142.568	1217.6343	1230.4345	1263.2573	1285.7307	1331.0882	1356.72	1373.0608	1394.6609	1413.2556	1453.7695	1462.1557	1476.1536	1481.862	1488.7337	1504.1974	3018.4969	3034.5123	3054.1744	3062.6401	3095.2946	3097.0777	3106.0536	3111.7185	3121.2736	3121.9642
CC12CCC3OC3C1O2	C[C@]12CC[C@H]3O[C@H]3[C@H]1O2	
InChI=1S/C7H10O2/c1-7-3-2-4-5(8-4)6(7)9-7/h4-6H,2-3H2,1H3	InChI=1S/C7H10O2/c1-7-3-2-4-5(8-4)6(7)9-7/h4-6H,2-3H2,1H3/t4-,5-,6-,7+/m1/s1
