17
gdb 65733	3.66683	1.10452	1.00614	2.0678	67.93	-0.2484	-0.0259	0.2225	1182.5545	0.133518	-458.926686	-458.918175	-458.917231	-458.960951	31.397	
O	-0.0131501372	 1.3760193699	-0.0763398435	-0.485357
C	 0.0178480993	-0.0260140629	-0.0066664045	 0.396525
C	 0.9470416512	-0.5331912428	-1.1100742637	-0.332107
C	 2.3701759973	-0.0662992928	-0.8747717682	 0.15911
O	 3.2570503971	-0.7900125142	-0.4970600635	-0.2441
C	 0.2905332265	-0.6633272532	 1.422223974	-0.328085
C	-1.1195148391	-1.2476036468	 1.3680139928	 0.038128
O	-2.0231994291	-0.1408095581	 1.1785410412	-0.264312
C	-1.3747682276	-0.6997268692	 0.0278671519	-0.043778
H	-0.7031859292	 1.6563020348	 0.5396882874	 0.29094
H	 0.9377162478	-1.625983267	-1.1406480835	 0.121299
H	 0.5872015605	-0.1351543592	-2.0666994302	 0.122418
H	 2.5434302052	 1.0155314949	-1.0518043356	 0.101076
H	 1.0853906607	-1.4120946844	 1.398565286	 0.132208
H	 0.4763549784	 0.0486004864	 2.2295776336	 0.114089
H	-1.5237220665	-2.1316632399	 1.8450945526	 0.114713
H	-2.0041348653	-1.0351352253	-0.789408497	 0.107231
33.3742	74.2492	153.1598	196.3299	290.7199	354.2226	394.7259	436.6855	501.7345	509.6899	599.5277	664.1826	775.0846	840.1019	864.0406	881.9321	910.4369	920.2336	966.6355	990.7139	1018.695	1050.524	1073.02	1104.1739	1126.9044	1185.4919	1220.0329	1226.8192	1266.0461	1286.9992	1302.1965	1379.6986	1411.2836	1422.0652	1458.9859	1473.2601	1824.35	2920.1757	3038.5102	3071.4353	3110.8061	3132.7173	3177.2507	3203.9718	3764.5157
OC1(CC=O)CC2OC12	O[C@@]1(CC=O)C[C@H]2O[C@@H]12	
InChI=1S/C6H8O3/c7-2-1-6(8)3-4-5(6)9-4/h2,4-5,8H,1,3H2	InChI=1S/C6H8O3/c7-2-1-6(8)3-4-5(6)9-4/h2,4-5,8H,1,3H2/t4-,5-,6+/m1/s1
