17
gdb 81410	2.69378	1.68512	1.35482	2.6649	68.1	-0.2559	-0.0545	0.2014	967.5313	0.136919	-458.947233	-458.939829	-458.938885	-458.979584	28.626	
O	 0.1702735073	 1.3311191462	-0.4090851374	-0.444232
C	-0.0937536276	 0.0010619738	-0.1530770118	 0.152006
C	 0.110473198	-0.6599638921	 1.2428792071	 0.028545
C	-0.7402026604	 0.2065198464	 2.192256175	-0.259291
C	-2.0768461993	 0.1741934166	 1.3639179647	-0.078135
C	-2.7058659645	 1.513649904	 1.1065056162	 0.125818
O	-2.1665045666	 2.4367448908	 0.531232084	-0.264656
C	-1.5032046793	-0.6029537578	 0.1245016055	-0.018453
O	-0.8278665297	-1.6900871323	 0.8030478392	-0.282235
H	-0.5555103441	 1.8853118339	-0.0710603252	 0.30977
H	 0.4011221794	-0.6151924212	-0.907271713	 0.105762
H	 1.0646217871	-1.044381211	 1.6011510438	 0.088287
H	-0.862070444	-0.2367573261	 3.1812558504	 0.11819
H	-0.3297550023	 1.2146936215	 2.2940084379	 0.125771
H	-2.8126438037	-0.4704237531	 1.8497740351	 0.096836
H	-3.742453308	 1.6433992173	 1.4797321501	 0.105506
H	-2.2061576823	-0.9134661168	-0.6483279715	 0.090511
47.4362	197.3872	230.8301	263.0541	312.6322	395.4891	507.3445	604.6004	633.0924	662.4046	733.7751	801.1665	813.0423	851.1827	865.4343	884.643	949.2082	975.0431	986.2091	1038.0563	1060.265	1089.5233	1135.6645	1153.4495	1198.1725	1208.0393	1241.3777	1268.64	1284.6216	1300.8109	1331.3146	1351.6112	1376.9788	1431.2446	1477.4611	1484.9942	1787.3738	2923.409	3075.3543	3086.5702	3094.9395	3126.9158	3132.67	3138.0681	3589.0329
OC1C2CC(C=O)C1O2	O[C@H]1[C@H]2C[C@@H](C=O)[C@@H]1O2	
InChI=1S/C6H8O3/c7-2-3-1-4-5(8)6(3)9-4/h2-6,8H,1H2	InChI=1S/C6H8O3/c7-2-3-1-4-5(8)6(3)9-4/h2-6,8H,1H2/t3-,4+,5-,6-/m0/s1
