17
gdb 81276	2.69961	1.49829	1.29433	1.7082	68.25	-0.2377	-0.021	0.2167	1019.1231	0.136526	-458.954844	-458.947068	-458.946124	-458.986884	30.541	
O	-0.0096818819	 1.3792392571	 0.08679941	-0.439198
C	 0.0369557645	-0.0224344219	 0.0278379739	 0.141186
C	-1.3793080984	-0.6225149061	-0.1512713539	-0.066379
C	-1.246162304	-0.2668368198	-1.6622082084	-0.255144
C	 0.2638736691	-0.6159583473	-1.4354973625	-0.187265
C	 0.1727178109	-2.0761528678	-1.0814184514	 0.390342
O	 0.9293664411	-2.9927551574	-1.2796003517	-0.353098
C	-1.0944143119	-2.1303835715	-0.1859337008	 0.044768
O	-0.7953976196	-2.6875399904	 1.0751303815	-0.448322
H	 0.8935918953	 1.7109849939	 0.0997389219	 0.291012
H	 0.6546450342	-0.4418314451	 0.8292815217	 0.091021
H	-2.2129577055	-0.2781484517	 0.4582458887	 0.08721
H	-1.8046098532	-0.8637898682	-2.3882104635	 0.103325
H	-1.385347538	 0.7962256238	-1.8452007083	 0.134633
H	 1.0747170669	-0.2889783046	-2.0836720249	 0.082301
H	-1.9125385264	-2.675674759	-0.682245101	 0.089973
H	-0.2088835732	-3.4375663638	 0.9118009786	 0.293635
106.5884	188.0145	237.898	304.0899	311.2005	351.8522	379.1842	465.4356	481.4354	550.2307	615.7096	714.847	760.6931	822.3786	878.2248	891.9806	934.7786	943.9351	991.6482	1008.2145	1066.084	1088.2014	1106.4454	1142.2001	1160.8589	1182.9403	1203.6373	1220.354	1247.0179	1266.4697	1304.2265	1320.7425	1347.5523	1401.857	1438.0916	1500.9181	1855.3254	2980.6451	3048.561	3071.8204	3135.8397	3141.8072	3166.5355	3770.0938	3821.3278
OC1C2CC1C(=O)C2O	O[C@H]1[C@H]2C[C@@H]1C(=O)[C@H]2O	
InChI=1S/C6H8O3/c7-4-2-1-3(4)6(9)5(2)8/h2-5,7-8H,1H2	InChI=1S/C6H8O3/c7-4-2-1-3(4)6(9)5(2)8/h2-5,7-8H,1H2/t2-,3+,4+,5+/m1/s1
