16
gdb 44580	3.04891	1.6716	1.48746	4.4385	67.22	-0.2462	0.0252	0.2714	915.4403	0.12661	-437.896201	-437.889496	-437.888552	-437.927349	26.679	
O	-0.2755829181	 0.1588707438	 0.5160685273	-0.353279
C	-0.126387388	 1.2993463328	 0.178858343	 0.414973
N	-1.0090121376	 2.280046813	-0.2453089746	-0.311048
C	-0.0188211611	 3.3657750955	-0.1903952095	-0.027694
C	 0.0108319744	 4.1925125206	 1.0904880426	 0.013838
O	-0.2269250927	 3.3977007168	 2.2558433198	-0.240415
C	 1.12570723	 3.7450408105	 1.9470813513	 0.053905
C	 1.9004859685	 2.6227777075	 1.2774164805	-0.268441
C	 1.0778377287	 2.2679865763	 0.0271895654	-0.178366
H	-2.0013798696	 2.3279948857	-0.057065057	 0.249998
H	 0.0251141171	 3.982833742	-1.0910465118	 0.085364
H	-0.3931656224	 5.2015275939	 1.1173586869	 0.100841
H	 1.611880105	 4.3969827376	 2.6697361928	 0.101228
H	 2.9003528862	 2.9773069132	 1.0043358194	 0.110154
H	 2.0249161438	 1.7629325852	 1.9433659368	 0.140126
H	 1.6878513657	 2.0315432457	-0.8454862329	 0.108815
103.3503	197.4064	267.9529	372.2668	430.3276	492.6677	558.0268	661.3964	670.0262	709.5872	775.49	829.5639	846.8923	862.0676	896.4178	939.8763	970.28	999.7228	1033.8915	1061.8835	1071.8119	1115.668	1146.5406	1170.9344	1203.9315	1257.1015	1260.5123	1272.008	1324.6735	1341.9808	1351.0078	1360.0649	1431.6098	1478.6311	1900.3504	3048.3512	3082.0809	3092.0281	3112.1019	3136.0196	3149.8839	3588.7639
O=C1NC2C3OC3CC12	O=C1N[C@H]2[C@H]3O[C@H]3C[C@@H]12	
InChI=1S/C6H7NO2/c8-6-2-1-3-5(9-3)4(2)7-6/h2-5H,1H2,(H,7,8)	InChI=1S/C6H7NO2/c8-6-2-1-3-5(9-3)4(2)7-6/h2-5H,1H2,(H,7,8)/t2-,3+,4-,5+/m1/s1
