16
gdb 133535	2.45449	1.42409	1.28199	1.7726	56.9	-0.26	0.067	0.3269	1024.9635	0.119823	-569.378912	-569.370301	-569.369357	-569.412946	31.055	
C	-0.1318419096	 1.5807319045	 0.062989011	-0.48281
C	 0.0221452939	 0.0643339551	 0.0160319385	 0.120214
C	 1.1774744687	-0.4865200736	-0.8590203121	-0.115708
O	 1.8479789977	-1.0362287832	 0.2898101125	-0.26823
C	 0.8112243364	-0.5865768718	 1.181170339	-0.115723
C	-1.3116477291	-0.6050246106	-0.256583063	 0.254967
F	-1.8269006899	-0.208043671	-1.432689129	-0.084703
F	-1.2032651664	-1.9427444085	-0.3019550213	-0.080459
F	-2.2108557957	-0.311380904	 0.6980831794	-0.084666
H	 0.8361199119	 2.0493298968	 0.2584191609	 0.130564
H	-0.5147198993	 1.963672413	-0.8871872738	 0.137807
H	-0.8250192943	 1.8780991514	 0.8549162958	 0.137799
H	 0.8987743248	-1.2579550656	-1.5849624879	 0.119969
H	 1.7751869237	 0.2838991798	-1.3605492789	 0.105515
H	 1.1845768604	 0.1226334445	 1.9294824421	 0.105506
H	 0.3111651469	-1.4184840768	 1.6887499667	 0.11996
59.2609	64.2016	205.5657	223.91	232.4376	316.9541	329.9245	370.4333	438.3933	497.6021	576.7461	580.6535	722.204	837.1306	881.3774	921.8589	966.8483	992.4605	1008.3176	1048.8604	1149.8382	1164.9044	1165.0207	1176.2414	1188.2791	1208.3411	1257.0293	1317.842	1363.9272	1385.7297	1415.7944	1490.9179	1503.3336	1510.4854	1534.9581	3019.2748	3028.9389	3046.8021	3073.2665	3074.8985	3121.7918	3123.6373
CC1(COC1)C(F)(F)F	CC1(COC1)C(F)(F)F	
InChI=1S/C5H7F3O/c1-4(2-9-3-4)5(6,7)8/h2-3H2,1H3	InChI=1S/C5H7F3O/c1-4(2-9-3-4)5(6,7)8/h2-3H2,1H3
