20
gdb 71488	2.11836	2.0244	1.72492	1.8704	82.75	-0.2095	-0.003	0.2066	964.3538	0.170941	-365.943884	-365.935945	-365.935001	-365.97557	32.414	
C	 0.0283100939	 1.5460253217	-0.0389911092	-0.527815
C	 0.02506804	 0.0391285009	-0.0295567327	 0.27804
C	 0.5654867154	-0.9615104947	-1.0601498127	-0.236851
N	 0.0152067486	-1.9165784449	 0.0005478022	-0.177963
C	 0.6083203215	-0.9346901708	 1.0515220396	-0.073659
C	-0.3361681224	-0.9840919296	 2.2285564659	-0.099813
C	-1.5319870603	-0.9852556237	 1.6410958358	-0.149516
C	-1.2067342052	-0.9387062951	 0.1562332504	 0.298369
C	-2.3491625095	-1.0561993693	-0.8239987288	-0.519475
H	 1.0485952091	 1.9390599173	-0.107628019	 0.120464
H	-0.5378508313	 1.9372338359	-0.8916017358	 0.120064
H	-0.4258537182	 1.9358012885	 0.8788100125	 0.123654
H	 0.0771846213	-1.0389059131	-2.0342136251	 0.094241
H	 1.6516318037	-1.0296110145	-1.1765305785	 0.092109
H	 1.6863526294	-1.0146437227	 1.200464577	 0.067037
H	-0.0684334094	-1.0302361664	 3.2742815609	 0.110236
H	-2.5232996989	-1.0342007535	 2.0703518001	 0.104801
H	-3.0821060861	-0.261603047	-0.6467997291	 0.121029
H	-2.0266234537	-0.9849637309	-1.8655137455	 0.121719
H	-2.858478288	-2.0170913981	-0.6962061881	 0.133329
167.9601	187.8978	210.6802	221.1042	316.1317	338.6461	452.3231	477.9024	518.5309	608.2009	626.9247	708.6474	735.4378	747.0572	779.4918	796.4026	885.4201	906.7218	911.6623	923.63	939.4098	985.307	1020.0471	1067.9284	1087.9122	1115.4946	1133.6305	1170.3629	1171.7025	1205.057	1235.1265	1249.271	1311.115	1322.4878	1344.8983	1400.7929	1414.6321	1484.831	1487.0299	1489.9666	1492.4281	1539.069	1640.5812	3025.1056	3037.5393	3051.342	3093.5661	3096.3084	3099.3021	3106.6976	3108.3553	3119.7917	3218.4823	3247.8807
CC12CN3C1C=CC23C	C[C@@]12CN3[C@@H]1C=C[C@@]23C	
InChI=1S/C8H11N/c1-7-5-9-6(7)3-4-8(7,9)2/h3-4,6H,5H2,1-2H3	InChI=1S/C8H11N/c1-7-5-9-6(7)3-4-8(7,9)2/h3-4,6H,5H2,1-2H3/t6-,7-,8+/m1/s1
