17
gdb 12793	3.66247	2.09519	1.63611	2.1869	68.41	-0.2305	0.0185	0.249	827.5706	0.14375	-363.864793	-363.857741	-363.856797	-363.895699	27.298	
C	-0.2015339748	 1.5264144724	 0.0567378907	-0.470407
C	 0.0433660361	 0.0347036841	-0.0033631991	 0.281527
C	-0.7110427616	-0.8753835495	 0.9302590144	-0.334072
C	 0.7831341917	-0.6586842476	 1.1180855972	-0.015643
N	 1.674547199	-1.7408424223	 0.8264959691	-0.255697
C	 1.6423882302	-2.2261605233	-0.3410385218	 0.11129
O	 0.887520857	-1.8321311383	-1.3983678589	-0.232258
C	 0.4025632241	-0.4796014704	-1.3827937541	-0.132833
H	 0.6649051372	 2.0887779252	-0.3104639562	 0.121474
H	-1.069533097	 1.8145845543	-0.5489024848	 0.119796
H	-0.3964001649	 1.8471550935	 1.0843394935	 0.123205
H	-1.3863135965	-0.420528323	 1.6472963271	 0.113672
H	-1.0184913708	-1.8534746159	 0.5755575482	 0.126796
H	 1.0933405549	-0.0679641724	 1.9741039004	 0.091518
H	 2.2482059015	-3.0893509946	-0.6078725325	 0.12384
H	-0.4571819034	-0.4712036564	-2.0608461257	 0.117962
H	 1.1812148972	 0.1648548842	-1.8145747675	 0.10983
145.246	190.233	217.2724	303.6161	345.2741	391.4526	495.9169	522.3213	583.5079	708.9681	804.8345	866.0175	871.3331	929.8072	936.7108	942.4545	988.7351	1018.3091	1048.5963	1066.9264	1092.7664	1135.4468	1148.5294	1167.0886	1259.1041	1288.3394	1339.6683	1375.3608	1410.1856	1417.7013	1426.8175	1483.9896	1490.2067	1499.4965	1515.6321	1722.6014	3005.6329	3021.5942	3068.1352	3079.89	3103.6503	3129.7712	3155.0104	3165.695	3219.1764
CC12CC1N=COC2	C[C@]12C[C@H]1N=COC2	
InChI=1S/C6H9NO/c1-6-2-5(6)7-4-8-3-6/h4-5H,2-3H2,1H3	InChI=1S/C6H9NO/c1-6-2-5(6)7-4-8-3-6/h4-5H,2-3H2,1H3/t5-,6-/m1/s1
