16
gdb 29199	3.11983	1.44146	0.99228	6.1009	78.39	-0.2114	-0.0337	0.1777	1146.7154	0.125252	-434.114883	-434.106575	-434.105631	-434.147631	31.504	
C	-0.0506281696	 1.5353023598	-0.0213421138	-0.520166
C	-0.0136342668	 0.0342268148	-0.0091844417	 0.139613
C	-0.0143286727	-0.7046479592	-1.1329786594	 0.023787
O	 0.0083891077	-2.0393130641	-1.1551130419	-0.234798
C	 0.0327602738	-2.7682287814	 0.0797508027	 0.41731
N	 0.0478437878	-4.0333073403	 0.0205171885	-0.541244
N	 0.0439859195	-2.0542400692	 1.2408408946	-0.36032
C	 0.0161876559	-0.7515705929	 1.2174876891	 0.346732
N	-0.016714622	-0.0994357637	 2.409647739	-0.557197
H	 0.8396361094	 1.9741065326	 0.4481791852	 0.130418
H	-0.0920056226	 1.9122718835	-1.0469303038	 0.135129
H	-0.9277315728	 1.9254062269	 0.5091968595	 0.138591
H	-0.0349783929	-0.2789206851	-2.1320971929	 0.130951
H	 0.0385725325	-4.3378354531	-0.9513229586	 0.21749
H	 0.1281885017	-0.6610631025	 3.2336762139	 0.270808
H	 0.1908574911	 0.881441544	 2.4635486997	 0.262894
73.1662	196.8896	204.3103	261.0253	285.8255	292.6487	363.5611	397.8047	472.5396	535.24	567.158	587.2479	708.8464	726.2353	762.3671	769.019	815.0126	823.2064	933.0202	1009.9999	1026.4031	1070.0561	1175.7078	1184.9508	1254.6157	1315.3872	1360.5455	1418.0865	1466.8577	1481.3125	1506.8259	1589.0079	1635.0599	1725.5219	1758.2188	3013.1904	3062.3981	3108.5421	3179.7749	3514.7464	3605.9222	3741.1225
CC1=COC(=N)N=C1N	CC1=C(N=C(OC1)[NH])N	
InChI=1S/C5H7N3O/c1-3-2-9-5(7)8-4(3)6/h2H,1H3,(H3,6,7,8)	InChI=1S/C5H8N3O/c1-3-2-9-5(7)8-4(3)6/h7H,2H2,1H3,(H2,6,8)
