14
gdb 129105	5.03849	1.2961	1.03773	1.5987	70.98	-0.2159	-0.0076	0.2084	1059.167	0.103138	-432.863142	-432.856142	-432.855197	-432.895024	26.432	
N	-0.0547975671	 1.2701812153	-0.021286366	-0.524338
C	-0.0061862469	 0.0062260713	 0.0085932247	 0.399235
C	-1.2570488722	-0.9090395531	 0.0094954912	-0.441816
C	-0.6447975919	-2.2812949793	-0.0098535542	 0.106751
C	 0.7054725494	-2.1379806327	 0.0049730701	 0.523093
N	 1.1339296868	-0.833598687	 0.0487948512	-0.465346
O	 1.3707877511	-3.2730839993	-0.0023937489	-0.24527
N	 0.3729055744	-4.3163217223	-0.0267940497	-0.167019
C	-0.7863208737	-3.6846598383	-0.0270617702	-0.113034
H	 0.8716132144	 1.6986429705	-0.0138558844	 0.214643
H	-1.8572714598	-0.6942288213	 0.8996568404	 0.1526
H	-1.8776827909	-0.6696943704	-0.8594122898	 0.152747
H	 2.0816230403	-0.5128900789	-0.0550061459	 0.271234
H	-1.6807692041	-4.2926779345	-0.0434140486	 0.13652
55.1355	187.881	250.954	326.1388	342.1839	523.7526	536.4968	546.7645	610.5509	730.9344	731.6005	789.0199	830.2404	838.7891	854.2091	911.9254	968.7543	970.1222	1051.4301	1162.6361	1177.2724	1194.0633	1247.1628	1282.6316	1302.6661	1416.4237	1454.7868	1466.5037	1572.1518	1655.9686	1763.6078	3054.802	3087.8935	3236.2426	3470.442	3670.1044
N=C1CC2=C(N1)ON=C2	[NH][C]1Cc2c(N1)onc2	
InChI=1S/C5H5N3O/c6-4-1-3-2-7-9-5(3)8-4/h2H,1H2,(H2,6,8)	InChI=1S/C5H5N3O/c6-4-1-3-2-7-9-5(3)8-4/h2H,1H2,(H2,6,8)
