16
gdb 6114	2.92481	1.89205	1.51861	2.987	60.7	-0.2654	-0.0007	0.2647	890.6775	0.127829	-420.909173	-420.900534	-420.899589	-420.942172	30.863	
C	 0.2139491198	 1.4073410307	-0.1174042701	-0.419134
C	-0.0747790182	-0.0693615722	 0.0632824044	 0.384872
C	-1.5270772061	-0.4485485404	-0.149389232	-0.4363
O	 0.7947384323	-0.8719173651	-0.8557928882	-0.278243
C	 1.509110827	-1.3885114983	 0.1795506766	 0.413137
O	 2.4920548942	-2.0618105407	 0.1467255809	-0.33965
C	 0.6398201091	-0.748128817	 1.2661691467	-0.101435
O	 1.2901008204	 0.1014572689	 2.1725113691	-0.424567
H	 1.2710184379	 1.6223417401	 0.0459313312	 0.136788
H	-0.063761168	 1.721956364	-1.1275092959	 0.128813
H	-0.3655378085	 1.9932050711	 0.6020548259	 0.13255
H	-1.8571699152	-0.1580404024	-1.15097399	 0.136237
H	-1.6714911158	-1.5272257074	-0.040727475	 0.128352
H	-2.1607735625	 0.0622823174	 0.5824081163	 0.131997
H	-0.001514156	-1.4806801678	 1.7764418436	 0.101319
H	 2.1118571196	-0.3271714508	 2.4382340166	 0.305266
80.9594	124.2331	174.2522	220.1548	228.6355	259.0666	319.9136	334.1761	395.808	481.9583	574.5856	620.5758	725.3284	814.8377	823.4328	928.7974	952.3049	982.1347	1011.1913	1095.6288	1135.5207	1182.3672	1234.7311	1268.8713	1291.0253	1346.2737	1392.6873	1410.5957	1423.1147	1473.3496	1477.7238	1495.9271	1501.0366	1925.2874	3006.9824	3041.5691	3051.4528	3115.2859	3118.9012	3122.3085	3144.2843	3803.1145
CC1(C)OC(=O)C1O	CC1(C)OC(=O)[C@H]1O	
InChI=1S/C5H8O3/c1-5(2)3(6)4(7)8-5/h3,6H,1-2H3	InChI=1S/C5H8O3/c1-5(2)3(6)4(7)8-5/h3,6H,1-2H3/t3-/m1/s1
