19
gdb 94528	3.1825	1.09089	0.86643	3.8064	80.07	-0.2298	-0.0687	0.1611	1342.953	0.158608	-419.206827	-419.197536	-419.196592	-419.241429	33.284	
C	-0.3597283606	 1.4524414598	 0.1444676667	-0.40541
C	 0.0965249165	 0.0105360035	 0.0034313415	 0.083254
C	 0.9399106234	-0.3903106659	-1.2413836631	-0.263192
C	 1.9817067606	-1.0023215592	-0.267999156	-0.185463
N	 1.2406856569	-0.3839589205	 0.849353185	-0.087134
C	 1.1336898152	-0.8028429168	 2.1468905375	 0.236826
N	 0.0686246642	-0.6241566707	 2.8351688154	-0.511775
C	 2.3837635695	-1.4289384546	 2.7310992057	 0.109137
O	 2.4214780203	-1.8567097272	 3.8560132358	-0.239588
H	 0.4778987418	 2.1423031741	-0.0001173489	 0.112207
H	-1.1285353714	 1.678099834	-0.6024514239	 0.116109
H	-0.7830270991	 1.6181057601	 1.1381290185	 0.152405
H	-0.752650776	-0.6645978082	 0.1737044602	 0.093635
H	 0.4722333534	-1.087240345	-1.9366484258	 0.116105
H	 1.3201904742	 0.4704919568	-1.7950062819	 0.115129
H	 1.9762583165	-2.0993647259	-0.2492920579	 0.114589
H	 3.0143733154	-0.6559268907	-0.3767506873	 0.117984
H	 0.2414350354	-0.9647930837	 3.7835281418	 0.234816
H	 3.2746305938	-1.4645116599	 2.0694875468	 0.090364
76.0943	88.2396	129.6985	151.0676	179.4846	239.6739	268.8343	340.9564	420.0462	479.3579	520.7427	575.252	728.7187	811.5819	828.2405	867.2469	892.8772	933.5855	944.0691	965.9446	1031.7403	1065.5708	1110.9418	1149.8819	1154.0506	1185.6727	1228.1702	1242.6526	1264.6188	1289.2873	1333.1573	1384.4161	1389.7274	1404.492	1465.5511	1484.1986	1490.2998	1503.4493	1522.0142	1677.8486	1824.3254	2912.6256	3016.1331	3020.5148	3036.3356	3067.8244	3085.1511	3105.8718	3129.1221	3143.4923	3460.1082
CC1CCN1C(=N)C=O	C[C@H]1CCN1[C]([NH])C=O	
InChI=1S/C6H10N2O/c1-5-2-3-8(5)6(7)4-9/h4-5,7H,2-3H2,1H3	InChI=1S/C6H10N2O/c1-5-2-3-8(5)6(7)4-9/h4-5,7H,2-3H2,1H3/t5-/m0/s1
