15
gdb 132980	3.33395	1.31994	0.95115	4.0026	71.91	-0.2203	-0.0349	0.1855	1140.1047	0.113034	-461.983534	-461.97582	-461.974876	-462.016067	28.757	
C	-0.0112524973	 1.450666572	 0.0025614504	-0.333834
N	 0.0053756206	-0.0088221525	-0.0302866851	-0.137022
C	-0.0890429922	-0.69155153	-1.199770106	 0.065445
C	-0.0755039933	-2.0522749151	-1.2520393318	-0.337823
C	 0.0426705935	-2.7393224733	-0.0202131339	 0.359177
F	 0.0569252997	-4.0705791642	-0.0605774201	-0.068221
C	 0.1395233936	-2.0931680591	 1.1712978507	-0.424432
C	 0.1260070127	-0.651641932	 1.2361771297	 0.454023
O	 0.2061127492	 0.0324921522	 2.2449665406	-0.412107
H	 0.9083859111	 1.8240277073	 0.4585790927	 0.159339
H	-0.1059766626	 1.8313208787	-1.0150130832	 0.125982
H	-0.8466092821	 1.8005628849	 0.613155383	 0.159314
H	-0.1762535018	-0.0862192025	-2.0938319756	 0.138911
H	-0.1511679548	-2.5868256452	-2.1873556633	 0.122469
H	 0.2292438037	-2.6337328313	 2.1035177719	 0.128781
86.3857	126.832	193.0616	294.4705	329.9	364.1465	439.3937	439.8776	524.3053	619.0242	677.0097	729.3639	750.1878	770.9457	773.1483	869.1169	927.4187	976.0564	1056.5543	1150.5125	1154.5864	1183.8818	1224.9864	1235.4876	1333.7404	1381.5311	1451.2605	1464.7702	1501.9347	1531.9929	1584.6046	1675.4978	1765.1467	3059.7125	3128.4768	3153.5101	3207.2748	3233.6212	3246.4298
CN1C=CC(F)=CC1=O	Cn1ccc(F)cc1=O	
InChI=1S/C6H6FNO/c1-8-3-2-5(7)4-6(8)9/h2-4H,1H3	InChI=1S/C6H6FNO/c1-8-3-2-5(7)4-6(8)9/h2-4H,1H3
