13
gdb 11718	6.31097	1.3753	1.26325	2.6975	59.55	-0.2783	-0.0121	0.2661	912.1625	0.095055	-398.563479	-398.556587	-398.555643	-398.594634	25.631	
O	-0.0048167498	 1.434806768	-0.0884598552	-0.424029
C	 0.0392781639	 0.0434510944	-0.0293808196	 0.139153
C	 0.3996093896	-0.6514344065	 1.3453175697	-0.349586
C	-0.9795854934	-1.3185787334	 1.3005456733	 0.310241
O	-1.9538284533	-0.2635971871	 1.2150001836	-0.277313
C	-1.3183193327	-0.6866182943	 0.0035675962	-0.080355
C	-1.3844008232	-2.5762166176	 1.8464416301	 0.207665
N	-1.6668819337	-3.6031667444	 2.2963824315	-0.330793
H	-0.6676256704	 1.7228814727	 0.5523215504	 0.294674
H	 0.6872563308	-0.2992717235	-0.8386623684	 0.113542
H	 1.2299762816	-1.3543520498	 1.2599943271	 0.136291
H	 0.5546970308	 0.0150626978	 2.1956857934	 0.128038
H	-1.9602391902	-1.0312726863	-0.798769362	 0.132472
102.9804	150.643	223.8604	345.0956	424.557	463.3043	491.1128	553.1172	580.5911	661.7572	723.2514	817.6012	873.3633	924.1149	959.7344	973.8449	1031.4949	1114.8909	1133.9716	1169.3526	1197.8423	1254.7658	1262.6118	1316.6577	1401.4776	1437.5983	1471.8197	2360.5893	3081.673	3102.0493	3146.6836	3196.6969	3775.3901
OC1CC2(OC12)C#N	O[C@H]1C[C@]2(O[C@@H]12)C#N	
InChI=1S/C5H5NO2/c6-2-5-1-3(7)4(5)8-5/h3-4,7H,1H2	InChI=1S/C5H5NO2/c6-2-5-1-3(7)4(5)8-5/h3-4,7H,1H2/t3-,4-,5-/m0/s1
