19
gdb 84767	2.32465	1.53037	1.21684	1.1134	82.38	-0.2414	0.0229	0.2644	1114.2431	0.157185	-385.865674	-385.856445	-385.855501	-385.899092	35.578	
C	-0.0297052336	 1.5916039112	 0.013744578	-0.398784
C	 0.0944815619	 0.0674735569	-0.0436095935	-0.034048
C	 0.9263528227	-0.4796251481	-1.1825879497	-0.068785
C	 1.6783845578	-1.5128500321	-0.8139834835	-0.080953
C	 1.4901069223	-1.8492276309	 0.643500828	-0.291208
C	 0.7801616481	-0.5780587095	 1.2103935788	 0.163443
O	 1.7596565508	 0.3555975258	 1.6712995549	-0.450639
C	-0.1657194421	-0.8822581421	 2.2866729454	 0.296435
C	-0.9141321481	-1.1286128373	 3.1954655122	-0.473485
H	 0.9512436605	 2.0663648255	 0.0687947799	 0.136598
H	-0.5457436872	 1.9573881733	-0.880045147	 0.104631
H	-0.6082629534	 1.9030092159	 0.8885061607	 0.121093
H	-0.9185031396	-0.3537820577	-0.1133434841	 0.092338
H	 0.8643308356	-0.0687965513	-2.1844596347	 0.091582
H	 2.3301779524	-2.0841986401	-1.4649659166	 0.093278
H	 0.867264379	-2.7438240931	 0.7725923494	 0.11573
H	 2.4268472893	-2.0278110551	 1.1832711669	 0.103386
H	 2.0756308346	 0.0428591197	 2.5253922469	 0.282762
H	-1.583266051	-1.3441994411	 3.991596918	 0.196625
84.5959	137.417	181.8836	220.6309	237.3381	276.8961	288.5842	384.3093	400.896	479.1204	519.0427	564.0981	591.4494	629.1063	661.6424	701.6483	768.2455	775.3621	887.3037	921.4392	966.1154	970.6061	992.8499	1020.7756	1073.2791	1098.2676	1110.5646	1138.4094	1150.8515	1219.6482	1293.1427	1300.0419	1336.8946	1359.5698	1381.9992	1409.8393	1467.8057	1491.7467	1499.6789	1689.5184	2228.4183	3001.5801	3024.0051	3042.6232	3064.9075	3105.7062	3139.6477	3182.4799	3208.1281	3500.1593	3815.7781
CC1C=CCC1(O)C#C	C[C@H]1C=CC[C@]1(O)C#C	
InChI=1S/C8H10O/c1-3-8(9)6-4-5-7(8)2/h1,4-5,7,9H,6H2,2H3	InChI=1S/C8H10O/c1-3-8(9)6-4-5-7(8)2/h1,4-5,7,9H,6H2,2H3/t7-,8+/m0/s1
