17
gdb 34355	2.90016	1.61378	1.31179	3.4486	76.3	-0.2422	0.0046	0.2468	995.0787	0.137826	-380.814844	-380.807638	-380.806694	-380.846305	28.866	
N	 0.0036180241	-1.1094057581	-0.138264927	-0.341023
C	 0.014022813	 0.0447174068	-0.054476359	 0.190838
C	 0.0176957152	 1.4871092919	 0.0296060342	 0.22047
N	-0.4341124722	 2.2307294137	-1.1828312261	-0.365926
C	 0.8993719239	 2.8895971768	-1.3293538182	-0.194585
C	 1.3423760449	 2.3079737465	 0.0395433908	-0.087027
C	 0.9009738094	 2.9715152688	 1.3612423282	-0.063996
C	-0.4643006602	 3.5974815832	 1.2840479046	-0.297825
C	-0.3695868873	 2.1083857301	 1.4061420203	-0.084493
H	-0.7078069403	 1.6371122357	-1.9566955547	 0.23524
H	 1.5006045506	 2.5048399983	-2.1606607368	 0.112098
H	 0.8378741408	 3.9796499968	-1.4095757796	 0.112504
H	 2.3015198123	 1.7965455222	 0.0861092666	 0.102784
H	 1.5845233364	 3.2055848337	 2.1673301422	 0.097034
H	-0.7744161539	 4.1034903875	 2.192516615	 0.118805
H	-0.8422952753	 4.0381259558	 0.3684986996	 0.140781
H	-0.8013849814	 1.5460658303	 2.2241500999	 0.104322
137.4511	151.7276	218.9873	312.0358	408.0957	457.432	527.5097	542.8562	598.3674	624.6804	720.2291	757.6439	793.1945	878.0381	909.1236	936.2598	955.8519	985.1632	996.3558	1015.077	1033.3056	1056.9926	1068.2454	1087.4383	1120.7478	1133.2946	1173.7431	1185.9958	1201.6242	1276.1742	1300.8812	1313.8231	1351.6989	1386.2125	1482.5337	1510.8504	2343.0206	3031.1242	3079.071	3135.8219	3137.7895	3188.7208	3197.8199	3221.4974	3554.3023
N#CC12NCC1C1CC21	N#C[C@]12NC[C@H]1[C@H]1C[C@@H]21	
InChI=1S/C7H8N2/c8-3-7-5-1-4(5)6(7)2-9-7/h4-6,9H,1-2H2	InChI=1S/C7H8N2/c8-3-7-5-1-4(5)6(7)2-9-7/h4-6,9H,1-2H2/t4-,5+,6-,7+/m0/s1
