20
gdb 118598	1.63739	1.20529	0.75546	3.2377	83.34	-0.2535	0.0197	0.2733	1545.1524	0.168418	-403.145798	-403.135149	-403.134204	-403.182609	37.504	
C	-0.139034247	 1.3530520549	-0.113805609	-0.388334
C	 0.0283413486	-0.1655266714	-0.0115239785	-0.170441
C	 0.7719484078	-0.5869625249	 1.2589272061	-0.165733
C	 0.9188148662	-2.1182799606	 1.4127529961	-0.178816
N	 1.6803376067	-2.7218841904	 0.3169454076	-0.271621
C	 1.1037450915	-3.5202244185	-0.6223046374	 0.160438
O	-0.0845849705	-3.743189432	-0.7155564803	-0.324098
C	 1.528878299	-2.4632345364	 2.697755904	 0.303495
C	 2.0565965818	-2.7129352102	 3.7482530362	-0.422076
H	 0.8321227588	 1.8607647659	-0.1214799199	 0.112792
H	-0.6669003691	 1.6313699605	-1.0309199235	 0.116579
H	-0.7108458149	 1.7486987841	 0.7328776754	 0.115566
H	-0.9545204458	-0.6515276389	-0.0353104631	 0.113413
H	 0.5695129081	-0.5358516785	-0.8894339514	 0.105348
H	 1.7707086754	-0.1321483764	 1.2847857094	 0.097372
H	 0.2426419253	-0.2167106468	 2.1448974905	 0.112387
H	-0.0757519376	-2.5737331655	 1.344905326	 0.149761
H	 2.6862271367	-2.6630197536	 0.3515570479	 0.252869
H	 1.8558180439	-3.9447327737	-1.3159647012	 0.080829
H	 2.5044855551	-2.9495884374	 4.6817695151	 0.200272
39.5905	74.1498	101.0312	110.7066	152.7061	207.7318	244.4788	255.9439	293.8092	341.5269	448.4787	525.6077	527.4452	559.4014	630.4665	661.089	740.271	756.9791	858.8068	906.2251	958.9899	1003.1407	1028.8957	1043.7453	1073.3117	1123.8987	1150.6607	1200.3601	1257.7062	1286.1782	1327.1934	1342.9411	1358.576	1396.462	1414.5685	1426.5508	1476.9043	1490.8861	1500.3983	1508.619	1517.2397	1800.8322	2237.648	2941.6912	3022.8482	3029.6448	3037.7321	3054.4275	3062.388	3078.0337	3099.4423	3104.9664	3503.1482	3630.5623
CCCC(NC=O)C#C	CCC[C@@H](NC=O)C#C	
InChI=1S/C7H11NO/c1-3-5-7(4-2)8-6-9/h2,6-7H,3,5H2,1H3,(H,8,9)	InChI=1S/C7H11NO/c1-3-5-7(4-2)8-6-9/h2,6-7H,3,5H2,1H3,(H,8,9)/t7-/m0/s1
