17
gdb 81185	3.01576	1.24904	1.03984	5.2345	69.93	-0.2699	0.0082	0.2781	1157.6422	0.135064	-458.930862	-458.922606	-458.921662	-458.9643	30.665	
O	-0.0234029976	 1.4700050844	-0.0349716892	-0.436687
C	 0.0043363219	 0.0673171671	 0.0050414114	 0.085999
C	-0.0646799004	-0.6796992992	 1.3777704522	-0.109737
C	-1.516005323	-0.13652845	 1.5418222385	-0.286938
C	-1.3833885223	-0.6179900039	 0.0631915199	 0.401269
C	-0.6675511055	-1.8777501417	 0.5851978871	-0.282376
O	-2.3701632487	-0.6620029719	-0.9300803661	-0.247038
C	-2.8348461446	 0.5240432966	-1.398691973	 0.131457
O	-3.6877867703	 0.5788820675	-2.2321456473	-0.273868
H	 0.8777290154	 1.8012183776	 0.0254148872	 0.293905
H	 0.7077243091	-0.3504928002	-0.7261278282	 0.079042
H	 0.7088163389	-0.7242971635	 2.139736416	 0.089475
H	-2.1821275039	-0.7244251287	 2.1762344587	 0.103932
H	-1.6189725859	 0.9349057011	 1.7052897185	 0.119215
H	-0.0104099534	-2.3981666352	-0.1160939246	 0.103759
H	-1.2834897582	-2.5695739455	 1.1607796016	 0.113048
H	-2.3395221914	 1.3953698455	-0.9401450727	 0.115546
55.2254	118.6451	148.3638	234.5175	286.6885	315.1639	401.1642	417.8258	500.8544	535.1852	634.4782	755.5309	783.9812	844.5995	896.6436	935.6696	966.8909	978.9992	1019.5288	1048.3038	1050.7809	1074.3793	1124.6399	1132.6109	1156.0224	1176.847	1183.9995	1206.9846	1227.1446	1238.617	1265.9875	1312.4262	1434.2938	1441.8095	1492.0256	1538.4169	1863.4017	3018.8405	3030.3086	3068.4022	3081.9623	3142.0283	3155.6443	3163.3751	3827.2369
OC1C2CC1(C2)OC=O	O[C@H]1[C@H]2C[C@@]1(C2)OC=O	
InChI=1S/C6H8O3/c7-3-9-6-1-4(2-6)5(6)8/h3-5,8H,1-2H2	InChI=1S/C6H8O3/c7-3-9-6-1-4(2-6)5(6)8/h3-5,8H,1-2H2/t4-,5-,6-/m0/s1
