21
gdb 83770	2.70209	1.76673	1.58396	1.6735	79.92	-0.2296	0.0787	0.3083	973.1	0.185682	-387.067419	-387.060215	-387.059271	-387.098576	30.149	
C	-0.1259664748	 1.6602274461	 0.0269974877	-0.433692
C	 0.0776017539	 0.1493100461	 0.043854078	 0.042849
C	 1.0386344025	-0.5871923068	-0.9460249182	-0.103295
C	 2.370457782	 0.1629068747	-1.1101787247	-0.202122
C	 2.9455824399	 0.5174279655	 0.2880787488	-0.22238
C	 2.355974445	-0.4820646637	 1.2741386373	 0.096263
O	 2.5433220863	-1.8097646849	 0.6835589642	-0.307345
C	 1.2120485738	-1.7040132057	 0.1668771043	 0.133072
C	 0.7905154291	-0.6229463765	 1.1770295647	-0.106651
H	 0.807293726	 2.2255037535	 0.0673503435	 0.118393
H	-0.6560000549	 1.9674523066	-0.8817081239	 0.115717
H	-0.7372763903	 1.9725247352	 0.8814064679	 0.115251
H	-0.9113311006	-0.3196961947	-0.0467928005	 0.073964
H	 0.6222047541	-0.893693201	-1.9082970065	 0.05861
H	 3.075275598	-0.4826105431	-1.6411500466	 0.111186
H	 2.233099937	 1.0599025353	-1.7225921898	 0.093928
H	 4.0367778003	 0.4290860289	 0.2913825774	 0.10454
H	 2.7081127225	 1.5413216694	 0.5917528736	 0.099729
H	 2.7831615458	-0.4279571777	 2.2787859148	 0.072411
H	 0.7210046526	-2.6657435445	 0.0069780429	 0.073741
H	 0.2845061917	-0.8324834527	 2.120630925	 0.065832
168.2857	211.671	224.257	269.5387	388.1684	445.2233	509.8	572.0966	619.0112	697.0895	760.1409	777.9004	812.8257	816.0848	860.7191	884.6746	921.3252	946.3996	973.9305	999.1832	1031.7263	1045.5759	1069.9435	1081.3023	1102.8735	1125.6661	1144.4863	1153.5429	1196.7941	1212.6909	1240.3103	1259.9228	1277.8954	1314.7187	1319.497	1325.8055	1342.1281	1362.6775	1374.6771	1404.5227	1410.8391	1474.2888	1490.4798	1500.6734	1505.4357	3010.1473	3032.7593	3045.2952	3053.7404	3073.2053	3077.0891	3080.8936	3086.9895	3090.4492	3099.554	3102.7244	3125.2675
CC1C2CCC3OC2C13	C[C@H]1[C@H]2CC[C@@H]3O[C@H]2[C@H]13	
InChI=1S/C8H12O/c1-4-5-2-3-6-7(4)8(5)9-6/h4-8H,2-3H2,1H3	InChI=1S/C8H12O/c1-4-5-2-3-6-7(4)8(5)9-6/h4-8H,2-3H2,1H3/t4-,5+,6-,7+,8+/m0/s1
