19
gdb 119240	1.94355	1.19473	0.87099	3.6369	73.15	-0.2535	-0.024	0.2294	1367.6261	0.156426	-460.147294	-460.137215	-460.136271	-460.182644	36.102	
O	 0.0006480493	 1.5021893973	 0.2602418968	-0.417927
C	-0.0387455046	 0.0876077282	 0.3650871771	-0.064417
C	-1.2871576808	-0.5043372169	-0.2999651866	-0.299313
C	-1.3773319394	-2.0121933824	-0.1697641575	 0.211426
C	-1.7107654144	-2.6428979069	 1.1912001179	-0.371978
C	-2.7267502053	-2.6774293568	 0.1022414817	 0.058009
O	-3.832993228	-1.8325490029	 0.1316254772	-0.411172
C	-0.4709366116	-2.8085622906	-1.0364084032	 0.121074
O	 0.3200655922	-2.3425887734	-1.8200020578	-0.269903
H	 0.1150312788	 1.7205209533	-0.6701674362	 0.283357
H	 0.8645613674	-0.3726708291	-0.0579402756	 0.108239
H	-0.0471905363	-0.1290016992	 1.4391447344	 0.10234
H	-2.1797027811	-0.0421069214	 0.1276059496	 0.122245
H	-1.2694628093	-0.2548662052	-1.367954206	 0.105955
H	-1.2106831142	-3.5632350079	 1.4753518112	 0.124465
H	-1.8695302916	-1.9369260523	 1.9991288106	 0.134753
H	-2.8986499734	-3.6334947255	-0.3930971197	 0.099995
H	-4.4129903051	-2.1228489958	 0.8434048159	 0.296263
H	-0.5745350426	-3.9137248126	-0.9194097098	 0.06659
78.8409	94.643	108.0721	142.8918	211.2625	232.6798	257.3322	288.7454	303.4305	361.6457	427.0131	449.2474	513.7671	595.3662	755.3019	782.436	846.0493	874.2743	928.8912	995.2937	1017.4396	1039.6637	1064.662	1073.3758	1076.7912	1111.5036	1154.8147	1202.9683	1269.0712	1281.5261	1314.5542	1327.1989	1353.9859	1404.1525	1417.2974	1425.3164	1443.2228	1474.4309	1481.7173	1513.223	1811.9406	2846.1027	3014.01	3038.7173	3069.3045	3095.7293	3114.7959	3129.5415	3221.7716	3810.0571	3816.8536
OCCC1(CC1O)C=O	OCC[C@]1(C[C@H]1O)C=O	
InChI=1S/C6H10O3/c7-2-1-6(4-8)3-5(6)9/h4-5,7,9H,1-3H2	InChI=1S/C6H10O3/c7-2-1-6(4-8)3-5(6)9/h4-5,7,9H,1-3H2/t5-,6+/m1/s1
