19
gdb 32644	3.40224	0.97319	0.80383	2.3993	78.85	-0.21	0.0388	0.2488	1455.0181	0.159738	-419.242091	-419.232632	-419.231688	-419.277936	33.35	
C	-0.1343328585	 1.5491629661	 0.0693876344	-0.371196
C	 0.104936351	 0.0408476584	-0.0283164025	-0.15847
N	 0.7288949167	-0.5166160577	 1.1612764475	 0.021202
C	 2.032333404	-0.8893968771	 1.3008669901	-0.009636
N	 2.3053775448	-1.313937366	 2.5143250047	-0.336505
C	 1.1196343893	-1.2103108274	 3.2044454371	 0.270203
C	 1.0168320436	-1.6106166306	 4.6401859686	-0.184144
O	-0.3153331747	-1.3784659469	 5.0750096866	-0.421388
C	 0.1327954441	-0.7190794729	 2.3907621639	-0.195975
H	 0.8085637091	 2.0822969283	 0.2207168359	 0.132981
H	-0.597811789	 1.9177017102	-0.850894139	 0.121773
H	-0.79769683	 1.7879565007	 0.9053375352	 0.134136
H	-0.8397720173	-0.4846421932	-0.2052971691	 0.12478
H	 0.7602958528	-0.1866599487	-0.8743715853	 0.122614
H	 2.7295579383	-0.8322028547	 0.4770580961	 0.120428
H	 1.2970542145	-2.6711517305	 4.7468977458	 0.102303
H	 1.74250711	-1.0317771397	 5.2343960639	 0.1023
H	-0.3785273124	-1.6510245464	 5.9941441115	 0.289069
H	-0.9075969863	-0.5091208719	 2.5684076646	 0.135527
33.801	50.0463	105.7072	156.9845	211.3955	224.8598	262.2735	350.4321	400.5007	473.4915	614.2471	651.3156	680.944	737.9835	738.274	793.6305	818.1616	962.8349	1001.4092	1049.4163	1056.251	1085.4802	1098.1408	1118.1072	1164.3594	1219.5622	1232.7009	1257.0826	1277.6354	1311.943	1387.8945	1398.7376	1411.2093	1427.7127	1469.2068	1485.6403	1489.5838	1505.7859	1515.6154	1535.1704	1608.309	2964.8879	2983.8	3043.8623	3046.1825	3088.4317	3118.4605	3126.2876	3238.731	3288.3016	3844.1707
CCN1C=NC(CO)=C1	CCn1cnc(CO)c1	
InChI=1S/C6H10N2O/c1-2-8-3-6(4-9)7-5-8/h3,5,9H,2,4H2,1H3	InChI=1S/C6H10N2O/c1-2-8-3-6(4-9)7-5-8/h3,5,9H,2,4H2,1H3
