17
gdb 74456	4.09637	1.19379	1.07279	2.0568	80.9	-0.2315	0.0012	0.2326	1158.5832	0.134328	-384.6117	-384.603637	-384.602692	-384.643994	31.625	
C	-0.0320159634	 1.4738608489	 0.0853526795	-0.517117
C	-0.0097104174	-0.0108013823	-0.002388807	 0.368028
C	-0.0723476385	-0.8610591706	-1.0296238469	-0.272045
C	 0.0151735992	-2.2323103896	-0.3172426211	 0.328108
C	-1.0096881921	-2.0287679565	 0.8535579662	-0.257931
C	 0.1041218698	-0.9985732554	 1.184411861	-0.059975
O	 1.0785799824	-1.9682365488	 0.6779423251	-0.314449
C	 0.1331492401	-3.4445193604	-1.0822136006	 0.049093
C	 0.2048617899	-4.455267579	-1.7281389359	-0.327599
H	 0.8837688958	 1.8559671512	 0.5537718691	 0.136889
H	-0.1254932343	 1.9320023992	-0.9028498165	 0.132032
H	-0.8685234425	 1.8253675028	 0.7028187286	 0.130716
H	-0.1547035097	-0.6989909725	-2.093763618	 0.116092
H	-2.0104486039	-1.6721908698	 0.6035570151	 0.101684
H	-1.0252426278	-2.8762200064	 1.5418967362	 0.116464
H	 0.3144111772	-0.6272386249	 2.1864875355	 0.083432
H	 0.2768131252	-5.3498141059	-2.2961445201	 0.186578
127.1768	135.9086	173.4395	213.7399	294.9296	442.1288	481.3634	507.18	539.69	564.6804	598.001	625.2766	671.8685	682.5671	779.6957	791.2439	849.6216	887.7499	909.701	968.2544	987.0413	1016.1179	1052.9959	1068.1643	1101.0279	1124.8195	1207.6677	1223.5958	1241.1746	1295.3157	1311.4972	1413.5857	1478.2443	1483.62	1485.2576	1690.7928	2244.8841	3017.6763	3063.8671	3068.8398	3112.0912	3135.7576	3145.0077	3248.4541	3501.3801
CC1=CC2(CC1O2)C#C	CC1=C[C@@]2(C[C@H]1O2)C#C	
InChI=1S/C8H8O/c1-3-8-4-6(2)7(5-8)9-8/h1,4,7H,5H2,2H3	InChI=1S/C8H8O/c1-3-8-4-6(2)7(5-8)9-8/h1,4,7H,5H2,2H3/t7-,8-/m1/s1
