17
gdb 50004	4.04428	1.08959	1.0504	4.9111	74.72	-0.2423	0.0046	0.2469	1174.1738	0.136091	-417.945107	-417.937317	-417.936373	-417.977832	29.414	
O	 0.1413377037	 0.1950142306	-0.5400165359	-0.288278
C	 0.1016583268	 1.2975140535	-0.05111874	 0.131593
N	 1.160991075	 1.9205203308	 0.5859302802	-0.110707
C	 2.5408401896	 1.852237299	 0.1468527824	-0.320038
C	 1.7990615003	 3.1507985646	 0.1923954208	 0.382045
C	 1.4948589028	 4.0781462119	-1.0184900274	-0.314067
C	 1.7721325813	 5.2607794116	-0.0780773215	-0.035245
N	 0.777236435	 5.1496631672	 1.011242192	-0.333685
C	 2.0331323392	 4.3538229082	 1.0777380972	-0.149954
H	-0.8166493905	 1.9116329901	 0.0000520638	 0.094935
H	 3.2715611079	 1.6145875784	 0.9160733803	 0.126454
H	 2.7296189644	 1.4041193806	-0.8261318421	 0.136089
H	 2.2278662707	 3.9650045422	-1.8202736263	 0.118271
H	 0.4821566624	 4.0435904678	-1.4258237168	 0.122095
H	 2.2356461009	 6.2056526313	-0.3284120438	 0.104071
H	 0.9080160483	 5.9530395472	 1.6263703341	 0.233787
H	 2.7146582819	 4.4454521348	 1.9138705728	 0.102634
84.9538	94.9224	198.212	219.9688	341.2869	362.3485	434.6802	486.6495	511.6643	721.4913	763.1856	823.5126	834.5814	860.0501	881.6296	924.3649	940.0856	972.6871	996.6476	1039.2856	1053.3875	1096.2551	1107.0302	1116.2657	1128.9266	1149.8323	1180.5911	1224.8329	1235.421	1293.6673	1322.1668	1363.1483	1409.962	1445.1441	1473.6439	1515.4686	1797.9625	2965.6437	3069.6039	3102.1319	3128.7302	3190.0966	3195.3086	3210.2851	3469.2544
O=CN1CC11CC2NC12	O=CN1C[C@]21C[C@H]1N[C@@H]21	
InChI=1S/C6H8N2O/c9-3-8-2-6(8)1-4-5(6)7-4/h3-5,7H,1-2H2	InChI=1S/C6H8N2O/c9-3-8-2-6(8)1-4-5(6)7-4/h3-5,7H,1-2H2/t4-,5-,6-,8?/m1/s1
