16
gdb 11851	6.70261	1.16718	1.088	3.3553	68.05	-0.2441	0.0208	0.2649	1072.7722	0.131036	-379.895621	-379.888038	-379.887093	-379.92878	27.035	
O	 0.0699483482	 0.0083789433	 0.5199802734	-0.331513
C	 0.0825790566	 1.2140683274	 0.3758996677	 0.136198
N	 1.1741366464	 1.9278919695	 0.025515028	-0.051735
C	 2.498191294	 1.4545037039	-0.3838457145	-0.246738
C	 2.8179000676	 2.9132620936	-0.7609017782	 0.320373
C	 4.0933386228	 3.6387552199	-0.6178620906	-0.298495
N	 3.4939043247	 3.3965526043	-1.9495350991	-0.349524
C	 1.3897328477	 3.3284335936	-0.3647676309	-0.237465
H	-0.805425362	 1.8614104254	 0.5284313297	 0.070852
H	 3.088781806	 1.0182360072	 0.428753805	 0.127939
H	 2.46652604	 0.747458865	-1.2219553415	 0.125473
H	 4.1006363127	 4.6795509114	-0.3052604762	 0.12705
H	 4.9724906045	 3.069755841	-0.324996662	 0.121122
H	 3.9739019996	 2.6351241194	-2.4240181623	 0.237405
H	 0.7746793758	 3.6653582379	-1.2066673196	 0.128325
H	 1.3102837753	 4.0450844072	 0.4601690611	 0.120734
23.4673	119.2512	166.4973	276.6598	326.9553	356.4029	388.8081	462.9492	633.0105	805.3019	830.7787	877.2399	920.0414	930.0044	964.5366	989.686	1032.5093	1045.0133	1112.788	1127.0801	1135.556	1167.0481	1180.1693	1259.1269	1267.833	1281.9377	1299.2657	1394.0873	1427.4242	1462.3902	1500.5661	1518.5334	1523.9864	1790.7536	2924.3367	3023.9692	3030.8215	3073.3565	3077.3452	3104.836	3190.5011	3495.2364
O=CN1CC2(CN2)C1	O=CN1CC2(CN2)C1	
InChI=1S/C5H8N2O/c8-4-7-2-5(3-7)1-6-5/h4,6H,1-3H2	InChI=1S/C5H8N2O/c8-4-7-2-5(3-7)1-6-5/h4,6H,1-3H2
