15
gdb 24073	7.03818	0.74597	0.70459	1.9893	72.37	-0.2318	0.0076	0.2395	1504.5017	0.115098	-413.019121	-413.011015	-413.010071	-413.053425	28.624	
N	 0.0875590573	-1.1787373409	 0.0214630167	-0.291243
C	 0.1562964721	-0.0404689444	-0.1610811999	 0.250504
C	 0.2268328237	 1.408410719	-0.3723184883	-0.276999
N	 1.2047285935	 2.0211198841	 0.538427956	-0.413504
C	 1.4291406505	 3.3946602006	 0.3238466629	 0.274998
C	 0.7839457595	 4.5516468697	 0.6872018896	-0.136009
N	 1.4578611682	 5.6532776952	 0.2162129864	-0.246912
C	 2.4953721716	 5.1759480693	-0.4341257376	 0.01858
N	 2.5290739312	 3.8157050708	-0.4017667185	-0.261225
H	 0.5470029856	 1.5959427814	-1.4024907785	 0.16411
H	-0.7880760252	 1.8247459444	-0.275829572	 0.150997
H	 0.9538440814	 1.8321700966	 1.501409145	 0.252209
H	-0.1208436768	 4.6492341411	 1.2689827839	 0.108254
H	 3.2454605328	 5.7610079714	-0.9451281517	 0.134809
H	 3.2407669446	 3.2058135515	-0.7700970638	 0.271433
44.5664	51.2932	100.801	200.538	350.8877	378.7629	400.5756	497.4379	558.6198	662.3286	689.3691	711.247	777.3341	815.5064	855.4069	928.3569	955.6658	998.056	1029.3397	1084.8225	1105.4973	1149.5845	1230.5656	1268.3684	1291.872	1365.6758	1378.8102	1419.1246	1470.6478	1487.0245	1513.7273	1611.6533	2368.6327	2988.9963	3077.2476	3241.9889	3251.3451	3552.4287	3657.9795
N#CCNC1=CN=CN1	N#CCNc1cnc[nH]1	
InChI=1S/C5H6N4/c6-1-2-8-5-3-7-4-9-5/h3-4,8H,2H2,(H,7,9)	InChI=1S/C5H6N4/c6-1-2-8-5-3-7-4-9-5/h3-4,8H,2H2,(H,7,9)
