20
gdb 66188	2.65546	1.46451	1.28908	2.1659	79.69	-0.2367	0.0114	0.2481	1092.6767	0.171163	-403.125859	-403.117279	-403.116335	-403.159066	32.871	
C	 0.1614758668	 1.486512428	 0.0463767283	-0.41132
C	-0.0785091161	-0.0306769879	 0.0099854046	 0.288934
O	 0.5625004885	-0.5950168272	-1.1508892522	-0.310201
C	 1.6519651014	-1.4355367844	-0.7712875383	-0.135588
C	 1.5616122492	-1.5339862474	 0.7252124509	-0.104475
C	 0.5886751785	-0.746832574	 1.1644526797	-0.09814
C	-1.5784273877	-0.3181982296	-0.0589522566	 0.002763
C	-2.2746288711	-0.3835005488	-1.3642774011	-0.244625
N	-2.0676767524	-1.6049264625	-0.5578520975	-0.331304
H	 1.2311444681	 1.7036600157	 0.1105207657	 0.117631
H	-0.2398231118	 1.9504946242	-0.858699422	 0.127857
H	-0.3335690131	 1.937310866	 0.9130272353	 0.113885
H	 1.5545933597	-2.4086185995	-1.273881067	 0.109873
H	 2.6061393648	-0.9948594356	-1.1025086972	 0.10826
H	 2.2196699358	-2.1549829717	 1.3196392757	 0.109774
H	 0.284825914	-0.5957193611	 2.1924789132	 0.106923
H	-2.1252130316	 0.0578127837	 0.8043713319	 0.083635
H	-3.3072841856	-0.0571767676	-1.4489954935	 0.111104
H	-1.6701987522	-0.2587157662	-2.2571345315	 0.124078
H	-1.2728359654	-2.1042265541	-0.9539826184	 0.230936
82.7545	101.5198	194.495	218.7385	241.8745	264.633	362.7047	420.1012	444.8679	570.3107	608.1905	740.1394	772.1988	820.2816	836.7683	871.8321	904.3135	933.6096	959.8922	963.3013	976.8452	1017.7738	1041.4224	1046.7089	1096.9452	1110.9687	1131.5087	1151.1916	1173.5179	1192.5838	1208.9094	1239.5908	1274.7502	1308.2651	1351.3588	1377.0486	1396.2478	1413.2502	1485.659	1488.5811	1500.3775	1522.4309	1693.3329	2974.1988	3008.0553	3038.2019	3109.6482	3114.907	3120.3225	3123.8792	3207.0172	3207.5377	3231.4652	3484.9718
CC1(OCC=C1)C1CN1	C[C@]1(OCC=C1)[C@H]1CN1	
InChI=1S/C7H11NO/c1-7(6-5-8-6)3-2-4-9-7/h2-3,6,8H,4-5H2,1H3	InChI=1S/C7H11NO/c1-7(6-5-8-6)3-2-4-9-7/h2-3,6,8H,4-5H2,1H3/t6-,7-/m1/s1
