17
gdb 125583	3.00752	1.44754	0.98915	3.9862	81.9	-0.2179	-0.064	0.1538	1174.6417	0.136557	-414.207049	-414.198576	-414.197631	-414.240216	31.763	
C	-0.0361815861	 1.5299699896	-0.0358782973	-0.485257
C	-0.0098750408	 0.0289983276	-0.0151267166	 0.28516
N	-0.0331322811	-0.5916991639	-1.1561504521	-0.211821
N	-0.0091676968	-1.9269948321	-1.1196113478	-0.28869
C	 0.0389042171	-2.7377986098	 0.0298617778	 0.425695
N	 0.0609093513	-4.0148955327	 0.0208591581	-0.530325
N	 0.0627001837	-2.0378655969	 1.2347591553	-0.308185
C	 0.0401770771	-0.7445632171	 1.2236693111	 0.281027
C	 0.0669738079	-0.0288015576	 2.5458752372	-0.484977
H	 0.852536771	 1.9560853262	 0.4436306968	 0.135354
H	-0.073821808	 1.8770522836	-1.0697176093	 0.145958
H	-0.9078018953	 1.9260154298	 0.4977091409	 0.135325
H	-0.0286049573	-2.364929846	-2.028777904	 0.267161
H	 0.0390401217	-4.3801314993	-0.9321760761	 0.198953
H	 0.1043960032	-0.7603369439	 3.3527499254	 0.155972
H	 0.9371736961	 0.6339845034	 2.615146033	 0.139299
H	-0.8209944637	 0.602061759	 2.6679223375	 0.139352
58.8354	153.7551	198.3796	221.3307	293.5335	304.9526	341.255	393.7304	495.9859	524.5644	573.8874	579.1306	668.0606	702.408	774.0881	783.2675	805.05	921.5977	1011.955	1029.9342	1036.4296	1072.9944	1107.4473	1177.525	1237.2745	1315.2712	1377.413	1405.2419	1418.9821	1447.2897	1464.9706	1474.8236	1486.6492	1489.5847	1583.9334	1680.0038	1713.9625	3031.2576	3036.367	3081.4034	3089.1996	3140.8593	3158.3972	3469.5264	3609.1436
CC1=NNC(=N)N=C1C	Cc1n[nH]c([NH])nc1C	
InChI=1S/C5H8N4/c1-3-4(2)8-9-5(6)7-3/h1-2H3,(H2,6,7,9)	InChI=1S/C5H13N4/c1-3-4(2)8-9-5(6)7-3/h3-9H,1-2H3
