23
gdb 113549	3.01609	1.00264	0.89243	1.6656	86.64	-0.2506	0.0779	0.3285	1462.0701	0.204245	-388.276892	-388.267012	-388.266067	-388.311794	36.992	
C	 0.3339438352	 1.5224375911	 0.2781227613	-0.374164
C	-0.3177094568	 0.2032172263	-0.1546468145	-0.208878
C	 0.3435345459	-0.3829717982	-1.3778839725	-0.032107
O	 1.6449157904	-0.97449614	-1.1858204965	-0.303335
C	 0.5737285179	-1.8191697101	-1.5703060579	 0.42983
C	 0.0367984614	-3.0022066232	-0.7600311612	-0.31748
C	-0.3941987218	-3.6430567303	-2.1123240941	-0.236036
C	 0.5288898843	-2.6375151503	-2.8697582857	-0.037983
C	 0.0416080726	-1.9962535696	-4.1595200361	-0.418169
H	 1.3931525554	 1.3686459412	 0.5041712307	 0.134742
H	 0.2658370754	 2.2769636593	-0.5132452218	 0.114052
H	-0.1511631831	 1.9288772168	 1.1704601504	 0.111951
H	-0.2662395145	-0.5230442122	 0.6633040516	 0.104129
H	-1.3815870364	 0.3638759067	-0.3749638954	 0.096755
H	 0.2852435222	 0.2418319584	-2.2728007467	 0.083537
H	 0.8490823518	-3.5531613794	-0.2768397365	 0.113607
H	-0.7425564247	-2.804751139	-0.0202833283	 0.103699
H	-0.18455136	-4.7055595875	-2.2474755276	 0.101042
H	-1.4505438444	-3.4626593225	-2.3316133904	 0.101126
H	 1.5163319517	-3.089499668	-3.0243771181	 0.083727
H	-0.9469554518	-1.5425807655	-4.0276175386	 0.111426
H	 0.729768266	-1.2142853308	-4.498887797	 0.12286
H	-0.0359516965	-2.7377576833	-4.9620726452	 0.11567
70.0589	96.6854	135.5489	140.1591	212.2169	226.4433	255.0047	288.1096	377.9671	452.9683	469.43	517.016	562.4303	706.5884	761.1522	786.5419	841.7615	878.648	886.2127	930.8063	937.2721	959.0939	1003.6459	1039.3959	1055.6415	1104.6846	1121.8009	1147.0789	1154.034	1173.2314	1180.2909	1215.1782	1247.3101	1269.6481	1278.774	1293.9875	1336.4961	1368.2307	1372.409	1407.1492	1408.1123	1472.6914	1477.3978	1487.2367	1495.439	1498.0201	1498.38	1506.3348	1519.1989	3022.9409	3025.837	3033.4813	3036.0112	3057.957	3062.1661	3067.4827	3081.928	3094.1368	3095.2457	3105.0553	3106.8974	3116.7897	3123.2628
CCC1OC11CCC1C	CC[C@H]1O[C@]21CC[C@H]2C	
InChI=1S/C8H14O/c1-3-7-8(9-7)5-4-6(8)2/h6-7H,3-5H2,1-2H3	InChI=1S/C8H14O/c1-3-7-8(9-7)5-4-6(8)2/h6-7H,3-5H2,1-2H3/t6-,7-,8-/m1/s1
