16
gdb 67357	2.99497	1.93709	1.37116	3.2737	68.42	-0.2508	0.0063	0.2571	910.8497	0.125963	-437.872053	-437.865205	-437.86426	-437.902884	28.081	
O	 0.0710132447	 1.3977616631	 0.0128805377	-0.493055
C	 0.0233081442	 0.0264229861	 0.0336745357	 0.330323
C	 0.0726665717	-0.8198023931	 1.3604297786	-0.106392
C	-1.4309962584	-0.5249902781	 1.5901250874	-0.264246
C	-1.3294648497	-0.8032104696	 0.0714685705	-0.125797
C	-0.3141147157	-1.9557964124	 0.3695118625	 0.01098
N	 0.724797562	-2.0004359538	-0.6652862929	-0.354021
C	 0.9067319668	-0.676255971	-0.9874295128	 0.359679
O	 1.5596202947	-0.146838568	-1.8598567196	-0.394631
H	 0.6433798563	 1.6266816743	-0.736176388	 0.297827
H	 0.8879390208	-0.8414678134	 2.0851061057	 0.085915
H	-1.9893431342	-1.2523389979	 2.1871712775	 0.092089
H	-1.6789796511	 0.4974324541	 1.8756930269	 0.125374
H	-2.1225677922	-0.7962893188	-0.6784558941	 0.082326
H	-0.6488636326	-2.9217269561	 0.7383707513	 0.097187
H	 0.7989259926	-2.7335977154	-1.3530215665	 0.256443
156.4726	264.5384	334.9235	339.11	389.1842	426.3525	434.0576	555.4126	615.4158	680.7192	723.7844	731.1451	822.0836	860.0864	902.9281	909.9413	919.8599	969.6558	1007.0075	1027.9808	1068.2647	1094.2657	1105.2775	1134.376	1173.7674	1183.852	1200.9207	1231.2578	1267.2953	1318.7229	1347.4328	1396.7773	1424.6805	1518.5775	1847.9856	3056.0756	3101.1099	3109.0927	3137.8376	3161.991	3637.9549	3703.1667
OC12C3CC1C3NC2=O	O[C@@]12[C@H]3C[C@@H]1[C@H]3NC2=O	
InChI=1S/C6H7NO2/c8-5-6(9)2-1-3(6)4(2)7-5/h2-4,9H,1H2,(H,7,8)	InChI=1S/C6H7NO2/c8-5-6(9)2-1-3(6)4(2)7-5/h2-4,9H,1H2,(H,7,8)/t2-,3+,4-,6-
