19
gdb 101926	2.01951	1.37632	0.94992	4.0546	71.84	-0.2511	0.0114	0.2625	1278.0199	0.159645	-456.338176	-456.328784	-456.32784	-456.373218	33.658	
C	 0.0260559227	 1.4273442224	-0.5005702374	-0.331305
N	-0.0591310457	 0.0408785575	-0.036953697	-0.321834
H	 0.4968749941	-0.5641734924	-0.6309773411	 0.242265
H	-0.2529874316	 0.1375572839	 1.8831772567	 0.305342
C	-1.4259478853	-0.4794216984	 0.0633786593	-0.139824
C	-1.4187935184	-1.9916577505	-0.0459518658	-0.000781
C	-2.6395296475	-2.7138871278	-0.4609366594	-0.232012
N	-1.4762855029	-2.6440480421	-1.3672873153	-0.334258
C	-2.0361103308	-0.0827550464	 1.4271083915	 0.435923
O	-1.111636393	 0.1971482566	 2.3571417311	-0.367161
O	-3.217559134	-0.065300812	 1.6388842982	-0.338328
H	 1.0758872734	 1.7228602677	-0.5705000943	 0.133214
H	-0.4513845049	 1.5898734226	-1.4794170164	 0.11588
H	-0.4607162284	 2.0864283464	 0.2252099239	 0.145839
H	-2.09661809	-0.0721721146	-0.7093173406	 0.086311
H	-0.7355604043	-2.4782564711	 0.647937375	 0.107412
H	-2.8463911776	-3.6992413398	-0.0556753607	 0.129633
H	-3.520103893	-2.1196788464	-0.6857870408	 0.133505
H	-1.6537360626	-1.9481303657	-2.0892162269	 0.23018
63.5719	70.3504	125.9668	155.5037	190.193	207.5998	307.0566	346.3503	386.9727	440.6048	533.0777	662.0201	712.319	774.7098	825.8111	862.7198	876.3752	906.4632	941.1051	965.4141	1005.9438	1053.2242	1115.4496	1133.5132	1144.0013	1163.0476	1166.5788	1222.6593	1239.7968	1259.3271	1278.8879	1314.4108	1318.385	1408.5978	1424.1125	1464.5641	1474.4798	1497.514	1515.9498	1516.9706	1874.3713	2983.7608	2986.5303	3078.2695	3121.051	3123.0355	3126.863	3211.2323	3480.9237	3483.206	3535.1578
C[NH2+]C(C1CN1)C([O-])=O	CN[C@@H]([C@H]1CN1)C(=O)O	
InChI=1S/C5H10N2O2/c1-6-4(5(8)9)3-2-7-3/h3-4,6-7H,2H2,1H3,(H,8,9)	InChI=1S/C5H10N2O2/c1-6-4(5(8)9)3-2-7-3/h3-4,6-7H,2H2,1H3,(H,8,9)/t3-,4+/m1/s1
