16
gdb 126325	2.92712	1.42496	1.03055	1.448	74.61	-0.2577	-0.0764	0.1813	1134.5168	0.125639	-434.083825	-434.075869	-434.074924	-434.11671	29.251	
C	 0.0298906132	 1.5619225005	 0.1181189922	-0.383586
C	-0.004707477	 0.0363222842	-0.0934428813	-0.285026
C	-1.3952578272	-0.5244868537	-0.044289279	 0.132899
C	-2.0673939479	-1.0117301226	-1.1210096495	-0.037164
N	-3.3492031378	-1.5220062295	-1.1058388205	-0.21705
N	-3.987227932	-1.5639433423	-0.0039706014	-0.032777
N	-3.3752149298	-1.1064454357	 1.0995217583	-0.271283
C	-2.0902117595	-0.5594332664	 1.2345153264	 0.42043
O	-1.6790537683	-0.1890902581	 2.318314244	-0.378718
H	 1.0618157324	 1.9228264431	 0.088484679	 0.121913
H	-0.5349883571	 2.0801596475	-0.6628367773	 0.119533
H	-0.3981242374	 1.8208866943	 1.0887923782	 0.153647
H	 0.4552338704	-0.2231310826	-1.052566938	 0.108459
H	 0.5856602568	-0.4411484383	 0.697076928	 0.134127
H	-1.6082303383	-1.0272627691	-2.1049806728	 0.13175
H	-3.9371114306	-1.1729801915	 1.9398922438	 0.282846
77.5669	121.9087	184.9419	210.207	289.6689	313.1961	433.2368	474.7419	557.2415	602.0099	630.5142	737.168	772.4813	785.8227	813.832	914.5519	966.6123	986.928	1055.1977	1079.6444	1097.1437	1142.8963	1197.5893	1248.3575	1282.8947	1347.6112	1374.8184	1400.4247	1435.493	1473.3846	1496.0084	1511.6561	1531.3177	1628.1623	1788.253	3038.5601	3046.028	3082.7514	3115.3226	3139.5296	3180.1339	3583.4879
CCC1=CN=NNC1=O	CCc1cnn[nH]c1=O	
InChI=1S/C5H7N3O/c1-2-4-3-6-8-7-5(4)9/h3H,2H2,1H3,(H,6,7,9)	InChI=1S/C5H7N3O/c1-2-4-3-6-8-7-5(4)9/h3H,2H2,1H3,(H,6,7,9)
