17
gdb 106482	2.62675	1.74966	1.3149	3.7079	67.78	-0.246	0.0089	0.255	992.8653	0.13637	-458.966639	-458.958976	-458.958032	-458.998816	29.369	
C	 0.049624552	 1.3793905756	-0.0451214521	-0.277248
O	 0.0110377495	-0.0400372307	 0.0847902125	-0.289442
C	-1.2413776287	-0.5895736138	 0.0314441332	 0.273024
C	-2.1992588186	-0.598711721	-1.2311976176	-0.306591
C	-2.8343103408	-1.7318620619	-0.3997448809	 0.089183
C	-1.4169107859	-2.1395494142	 0.0568633806	-0.291075
O	-3.3514956273	-1.0147276434	 0.7700663413	-0.236775
C	-2.2858245905	-0.2207012492	 1.100970761	 0.402489
O	-2.2605144841	 0.5477465317	 2.0148982372	-0.359391
H	 1.1014822697	 1.6640437017	 0.011447034	 0.134311
H	-0.3536873212	 1.6974083152	-1.0166678982	 0.111371
H	-0.508286699	 1.8668920966	 0.7596953969	 0.153556
H	-2.8187366278	 0.276484925	-1.4351108731	 0.121361
H	-1.6870423961	-0.9494350905	-2.1288001614	 0.119883
H	-3.5907592089	-2.4199844267	-0.7639231801	 0.107085
H	-0.8316367825	-2.6288605903	-0.7232876028	 0.121509
H	-1.32131903	-2.6553623842	 1.0139051495	 0.126751
98.8589	170.2451	180.965	221.6896	310.4861	425.7754	471.1553	476.6224	534.7492	605.2525	693.8095	748.0354	783.3642	864.9409	910.0637	926.5188	954.827	978.2803	1006.4031	1045.4061	1052.0742	1077.0391	1119.4857	1171.3397	1180.8816	1207.2698	1225.5222	1237.0939	1247.5499	1318.3008	1362.1505	1475.258	1483.7141	1489.032	1511.9767	1517.5376	1904.8863	3007.0188	3075.6224	3081.5376	3093.6241	3140.8369	3146.3927	3151.0054	3174.7744
COC12CC(C1)OC2=O	CO[C@@]12C[C@@H](C1)OC2=O	
InChI=1S/C6H8O3/c1-8-6-2-4(3-6)9-5(6)7/h4H,2-3H2,1H3	InChI=1S/C6H8O3/c1-8-6-2-4(3-6)9-5(6)7/h4H,2-3H2,1H3/t4-,6-
