14
gdb 127528	4.01976	1.17586	0.91502	1.4061	79.48	-0.2136	-0.0439	0.1697	1205.3732	0.099877	-432.841354	-432.832867	-432.831923	-432.875334	30.096	
C	 0.1601128842	 1.4035683884	-0.0264833631	-0.327624
N	 0.1081777211	-0.0384974927	-0.0020152113	-0.04354
N	 0.1588451186	-0.7820663778	-1.1456298206	-0.282763
C	 0.0891266793	-2.0063571649	-0.7399179061	 0.250386
O	-0.006453822	-2.1239517202	 0.6276912763	-0.227322
C	 0.0054600827	-0.8284515673	 1.1235144574	 0.435665
N	-0.0616970759	-0.4464754053	 2.3263446832	-0.61877
C	 0.1014272474	-3.1694463504	-1.5280130905	 0.268464
C	 0.1100997253	-4.1788287081	-2.1820627315	-0.373446
H	 1.0964130616	 1.7474675891	-0.4755207197	 0.146362
H	-0.681676733	 1.8094500042	-0.5949910813	 0.146371
H	 0.1022805844	 1.7401751354	 1.0090209213	 0.180424
H	-0.1318389311	-1.2312418141	 2.9666061292	 0.234788
H	 0.1183623273	-5.0660641062	-2.7665876433	 0.211006
41.6482	102.6237	142.326	168.5769	245.3152	291.2341	422.8348	446.4996	557.3228	599.7164	604.0234	676.8315	690.3616	705.8089	708.3473	732.1799	837.2753	964.8652	1014.9574	1056.342	1157.8745	1158.4922	1280.2795	1337.8016	1421.6418	1453.3409	1484.4035	1511.9529	1618.3164	1790.5043	2243.1227	3044.9217	3108.3004	3162.2004	3499.5012	3558.9862
CN1N=C(OC1=N)C#C	CN1N=C(O[C@@H]1[NH])C#C	
InChI=1S/C5H5N3O/c1-3-4-7-8(2)5(6)9-4/h1,6H,2H3	InChI=1S/C5H6N3O/c1-3-4-7-8(2)5(6)9-4/h1,5-6H,2H3/t5-/m1/s1
