15
gdb 64562	3.14217	1.59804	1.30736	2.7943	66.18	-0.2535	-0.0546	0.1989	952.4614	0.11163	-457.709878	-457.702769	-457.701825	-457.741278	28.285	
O	 0.0445589021	 1.3651829896	-0.0187796424	-0.469735
C	 0.0341969955	-0.0103923046	-0.0202907289	 0.373657
C	 1.0303227848	-0.521405938	-1.0471600715	 0.072543
O	 1.675865522	 0.2616207166	-1.7072282861	-0.272511
C	-0.0365916996	-0.6625302582	 1.4388332192	-0.040903
O	-1.4312297183	-0.2460804621	 1.4771647898	-0.273079
C	-1.4288165651	-0.6520190994	 0.0789870767	-0.040948
C	-1.1080885316	-2.1410444836	 0.1729919735	-0.097872
C	-0.1496322052	-2.148333042	 1.109199121	-0.097822
H	 0.6982324209	 1.6211717255	-0.6927982485	 0.295309
H	 1.1407927067	-1.6100657103	-1.16731477	 0.113132
H	 0.5781287223	-0.2967413218	 2.2589812796	 0.098526
H	-2.2601068633	-0.2752007157	-0.5137090682	 0.098533
H	-1.5302269209	-2.94228439	-0.4152675705	 0.120585
H	 0.4420891996	-2.9572460361	 1.5113721962	 0.120584
106.2516	231.6636	233.9227	360.4249	377.5838	438.7224	489.7359	555.7713	564.1515	625.9348	727.0848	729.5433	829.1631	833.7523	855.6963	892.355	919.6474	925.4362	960.8903	979.4565	1062.933	1063.8159	1141.0505	1142.6961	1164.3655	1227.5358	1281.5604	1301.0777	1310.2242	1379.9986	1447.2152	1597.5893	1789.932	3018.2126	3148.7125	3152.0943	3233.7978	3259.3041	3640.7993
OC1(C=O)C2OC1C=C2	O[C@@]1(C=O)[C@H]2O[C@@H]1C=C2	
InChI=1S/C6H6O3/c7-3-6(8)4-1-2-5(6)9-4/h1-5,8H	InChI=1S/C6H6O3/c7-3-6(8)4-1-2-5(6)9-4/h1-5,8H/t4-,5+,6-
