17
gdb 77952	3.40147	1.3593	1.11319	3.8868	68.55	-0.2479	0.0573	0.3052	1079.756	0.135716	-458.871463	-458.863924	-458.86298	-458.903023	30.508	
O	-0.0498264372	 1.4688950656	-0.1308271972	-0.453627
C	 0.000457097	 0.055204826	-0.0359216544	 0.146148
C	-0.0056112337	-0.6295714167	 1.3748484097	-0.287106
C	-1.5133759827	-0.169450542	 1.5163651962	 0.187167
O	-1.8524094232	 1.1376542747	 1.8316021154	-0.453875
C	-1.3800349233	-0.6562739792	 0.0167688008	-0.259629
C	-0.5886638038	-1.8246691287	 0.6163005061	 0.556676
C	-0.0856382428	-3.0984731878	 0.1281171886	-0.31785
O	-1.1032611907	-3.010774248	 1.1588106557	-0.297917
H	 0.8306166332	 1.8138718003	 0.0511234401	 0.294073
H	 0.7197347682	-0.3495275647	-0.7584759671	 0.079578
H	 0.7824317233	-0.6286314812	 2.1279889402	 0.079715
H	-2.1201231213	-0.8227142719	 2.145752094	 0.107589
H	-1.3450621262	 1.709759434	 1.2385570169	 0.287687
H	-2.1411803061	-0.6836991928	-0.7618499598	 0.08733
H	-0.4321522716	-3.4978231448	-0.8236368502	 0.122877
H	 0.877323671	-3.4763748727	 0.4678749248	 0.121165
163.809	233.8773	259.1683	285.425	321.8056	351.8351	437.7608	479.8384	482.4797	579.2503	630.6555	709.5853	727.1524	817.8724	849.8928	891.2561	904.5379	931.0148	987.6603	1031.9603	1093.1634	1095.2578	1110.734	1113.5948	1119.0952	1126.3352	1175.5363	1179.3187	1207.7449	1213.5898	1260.8641	1308.6522	1346.1232	1435.9119	1467.2335	1495.8739	1561.8423	3027.0281	3086.567	3105.0414	3119.4524	3131.8002	3173.0849	3727.0874	3814.7434
OC1C2C(O)C1C21CO1	O[C@H]1[C@H]2[C@@H](O)[C@@H]1[C@]12CO1	
InChI=1S/C6H8O3/c7-4-2-5(8)3(4)6(2)1-9-6/h2-5,7-8H,1H2	InChI=1S/C6H8O3/c7-4-2-5(8)3(4)6(2)1-9-6/h2-5,7-8H,1H2/t2-,3+,4-,5+,6-
