17
gdb 108540	2.81652	1.76257	1.30323	1.9978	67.	-0.232	0.0609	0.2929	981.1455	0.13538	-458.870148	-458.862654	-458.86171	-458.902435	28.692	
C	 0.0873100828	 1.3458894557	-0.1034181352	-0.262606
O	-0.1429019543	-0.0275807942	 0.1640166583	-0.292862
C	 0.5884434374	-0.5479631004	 1.2050571595	 0.403851
C	 0.2800401805	-0.1356017827	 2.6497252251	-0.160465
O	 1.1928649945	-0.9727591099	 3.3826079645	-0.27076
C	 1.8378276865	-1.6974460062	 2.3653060718	 0.0973
C	 0.8596458792	-2.0828947623	 1.2187325305	-0.041414
O	 1.9364669301	-1.9558438621	 0.2346138623	-0.315887
C	 2.1441896432	-0.8123268682	 1.1245340245	-0.058929
H	 1.1478309079	 1.541646589	-0.3108987272	 0.118424
H	-0.4993452521	 1.5949611857	-0.9895278439	 0.138343
H	-0.2356568737	 1.9890039596	 0.7267510315	 0.114516
H	 0.4893354666	 0.9186013966	 2.8643151013	 0.109566
H	-0.7554503307	-0.3566957343	 2.9343592184	 0.116492
H	 2.5682889331	-2.4061515094	 2.7453115306	 0.110735
H	 0.1549916025	-2.9074663832	 1.1187368729	 0.099062
H	 2.9744452867	-0.1373592138	 0.9195473051	 0.094633
64.6573	159.608	194.9277	285.9397	315.7645	398.4461	450.9884	517.9025	660.2401	685.7262	706.8326	776.3188	835.3436	887.2415	890.0588	935.2514	973.5764	1026.9241	1052.0955	1071.6217	1099.8197	1110.9311	1148.2981	1169.8505	1179.1465	1181.392	1195.1971	1214.4514	1241.2265	1254.6366	1302.9315	1322.0821	1398.754	1485.8867	1492.1585	1503.942	1520.2938	2997.8053	3027.6924	3053.8394	3069.6489	3126.0115	3130.2831	3132.9752	3176.2401
COC12COC3C1OC23	CO[C@@]12CO[C@H]3[C@@H]1O[C@@H]23	
InChI=1S/C6H8O3/c1-7-6-2-8-3-4(6)9-5(3)6/h3-5H,2H2,1H3	InChI=1S/C6H8O3/c1-7-6-2-8-3-4(6)9-5(3)6/h3-5H,2H2,1H3/t3-,4-,5+,6-
