23
gdb 118085	2.95959	0.85096	0.74321	0.6405	81.69	-0.2582	0.0703	0.3285	1604.4794	0.203407	-425.403977	-425.393191	-425.392247	-425.440441	39.992	
C	 0.2653684983	 1.5140066458	 0.3307062917	-0.419964
C	 0.0760189999	 0.0213427398	 0.0253013265	-0.036532
C	-1.4181465978	-0.3551411108	-0.0608366293	-0.203224
C	-2.2061506246	-0.1625993382	 1.2374248001	-0.069814
O	-3.5519313414	-0.6002477865	 1.1255710003	-0.419293
C	 0.8103133023	-0.4608940671	-1.2295097741	 0.4234
O	 0.7763485448	-1.8644013321	-1.377049553	-0.472459
C	 0.8394464975	 0.3321156368	-2.5129948467	-0.323929
C	 2.1055783578	 0.1291041085	-1.700857477	-0.313992
H	 1.3222087145	 1.7805828061	 0.4110612659	 0.120357
H	-0.1893000214	 2.1462037858	-0.4400659286	 0.118909
H	-0.2015141731	 1.776583053	 1.2836005887	 0.12328
H	 0.5141133272	-0.5517517185	 0.855305711	 0.081969
H	-1.9057167291	 0.2170145924	-0.8605387526	 0.102657
H	-1.4967094295	-1.4164111316	-0.3339701157	 0.069446
H	-1.6869588834	-0.6716449078	 2.0666536412	 0.08692
H	-2.2721961555	 0.8968671123	 1.5018657385	 0.113217
H	-3.5376288174	-1.5433902824	 0.9336273313	 0.278683
H	-0.0648070443	-2.1004200438	-1.7810364739	 0.281806
H	 0.7443767099	-0.2255433524	-3.4384255832	 0.110244
H	 0.4005051157	 1.3233283359	-2.5356630239	 0.11299
H	 2.5279687633	 0.9845435282	-1.1884826406	 0.113142
H	 2.8316862762	-0.5798792236	-2.0804091864	 0.122188
32.7431	76.7074	102.8624	143.5326	232.8115	263.1916	271.7325	294.0409	304.7467	333.8692	358.9676	418.431	454.9323	471.6187	549.6152	703.9649	773.1963	787.5845	877.2023	896.4526	928.3224	932.8241	963.029	978.1765	1023.6724	1045.1347	1077.0219	1079.1584	1087.9254	1113.4561	1134.7664	1187.2962	1204.1215	1232.5039	1282.3712	1311.0465	1324.5412	1352.7885	1363.2526	1368.6566	1394.584	1415.9335	1428.4665	1450.4073	1482.9642	1496.8855	1503.291	1513.5421	1515.7651	2966.2837	3002.0186	3007.5834	3041.4639	3054.1814	3087.0215	3108.5448	3117.514	3132.7129	3149.0058	3216.7756	3238.874	3809.8373	3813.3136
CC(CCO)C1(O)CC1	C[C@@H](CCO)C1(O)CC1	
InChI=1S/C7H14O2/c1-6(2-5-8)7(9)3-4-7/h6,8-9H,2-5H2,1H3	InChI=1S/C7H14O2/c1-6(2-5-8)7(9)3-4-7/h6,8-9H,2-5H2,1H3/t6-/m0/s1
