18
gdb 88738	2.67243	1.28061	1.1012	4.8564	73.67	-0.2473	0.0134	0.2607	1169.135	0.146016	-439.052546	-439.043653	-439.042709	-439.086636	32.111	
C	 0.2079572349	 1.5062566668	-0.0949238471	-0.43121
C	 0.2422794386	 0.0111406883	 0.0876311426	 0.081885
O	 1.5225080508	-0.6431172619	 0.1233621464	-0.242385
C	 0.7217710774	-0.6683344452	 1.3025384059	 0.025336
C	 1.235734707	 0.0538946069	 2.5202424136	-0.069372
C	 2.3881341057	-0.5263611308	 3.2960761517	-0.242855
N	 2.5337394844	 0.7005156261	 2.5548011106	-0.064388
C	 3.4645377507	 0.8777022959	 1.5362679229	 0.157658
O	 4.5791530789	 0.4202697968	 1.5615641865	-0.293925
H	 0.847755353	 2.0258645768	 0.6213044516	 0.137756
H	 0.5314835639	 1.7742219048	-1.1057318176	 0.139035
H	-0.8170274792	 1.8701345814	 0.0342018448	 0.127832
H	-0.4894268145	-0.5343751142	-0.5107468416	 0.098563
H	 0.2934724824	-1.6465287561	 1.5319879209	 0.107783
H	 0.4604385076	 0.5728095359	 3.0838129819	 0.110941
H	 2.4086720946	-0.4446207076	 4.3792319138	 0.126766
H	 2.8809610628	-1.4032206042	 2.8826411091	 0.144199
H	 3.1070515109	 1.5693065304	 0.756581324	 0.086381
62.873	97.1716	148.2875	197.036	211.9292	256.743	278.0318	383.2436	398.1175	516.1622	568.5578	699.7933	759.285	798.4387	833.5746	901.7501	965.7136	977.6001	1003.5708	1026.0486	1067.2671	1098.8607	1106.8744	1126.9362	1134.4923	1164.7936	1173.2794	1182.5852	1295.7248	1361.9823	1376.8377	1411.7233	1422.8728	1425.9319	1468.0213	1491.1968	1506.0993	1511.8844	1800.5213	3002.8612	3042.6763	3082.1565	3097.6885	3104.6951	3107.4407	3109.7044	3135.8487	3198.9085
CC1OC1C1CN1C=O	C[C@H]1O[C@H]1[C@H]1CN1C=O	
InChI=1S/C6H9NO2/c1-4-6(9-4)5-2-7(5)3-8/h3-6H,2H2,1H3	InChI=1S/C6H9NO2/c1-4-6(9-4)5-2-7(5)3-8/h3-6H,2H2,1H3/t4-,5-,6-,7?/m1/s1
