18
gdb 124501	2.57394	1.28162	1.05134	4.0673	74.19	-0.2269	0.012	0.2389	1210.0801	0.147392	-435.271489	-435.262346	-435.261402	-435.305797	33.466	
C	-0.0535398473	 1.5319774315	-0.0063573351	-0.374142
C	 0.040550984	-0.0043311426	-0.0365256533	-0.101157
C	 0.7736620666	-0.4913991083	-1.2995846472	-0.374143
C	 0.6943273481	-0.5325168943	 1.2080530291	 0.212803
C	 0.1941531465	-1.3629806004	 2.1876161391	 0.30098
O	-0.9847151735	-1.9811714817	 2.400981295	-0.42426
N	 1.204199359	-1.5140876084	 3.0700293236	-0.22283
N	 2.2991308104	-0.8134234694	 2.6739887209	-0.13345
N	 1.982294718	-0.2305165039	 1.5592252064	-0.252121
H	 0.947751738	 1.9672277836	 0.0589321682	 0.143268
H	-0.5371031816	 1.9094644742	-0.9131201341	 0.107379
H	-0.6258727678	 1.8782274072	 0.8595305291	 0.110839
H	-0.9860219985	-0.4038323659	-0.0681051361	 0.045728
H	 1.8100487868	-0.1419950489	-1.2891591186	 0.14327
H	 0.7896153382	-1.5841312216	-1.3534139254	 0.110839
H	 0.2878310503	-0.1083594302	-2.2027996381	 0.107378
H	-1.5818127715	-1.7626504747	 1.6769889499	 0.315521
H	 1.2182285443	-2.052276726	 3.9211213268	 0.284099
36.9138	140.2728	165.267	225.237	252.6838	267.6475	284.3441	295.3014	393.4057	446.0953	530.4971	535.1679	623.3309	704.3937	743.0341	761.1247	891.8504	927.7233	964.0102	1004.4323	1035.8772	1079.7	1126.9723	1149.1148	1175.4402	1218.8772	1305.7309	1321.2214	1324.2868	1380.2179	1395.6023	1406.2216	1420.3549	1483.9735	1491.8334	1499.4197	1510.2388	1557.8939	1648.8121	2964.7578	3034.5788	3038.5535	3104.5226	3108.0939	3117.6955	3121.5139	3663.4461	3819.721
CC(C)C1=C(O)NN=N1	CC(C)c1c(O)[nH]nn1	
InChI=1S/C5H9N3O/c1-3(2)4-5(9)7-8-6-4/h3H,1-2H3,(H2,6,7,8,9)	InChI=1S/C5H9N3O/c1-3(2)4-5(9)7-8-6-4/h3H,1-2H3,(H2,6,7,8,9)
