19
gdb 72647	2.07757	1.93539	1.59913	2.4261	75.61	-0.2383	0.0124	0.2507	975.313	0.158315	-423.022204	-423.013735	-423.012791	-423.054782	32.962	
C	-0.2437818752	 1.5527477572	 0.2153234017	-0.45215
C	 0.0356957963	 0.0749688714	 0.0536273453	 0.373462
O	 1.1653452425	-0.1571860231	-0.8473750793	-0.327866
C	 1.8236595372	-0.9989648421	 0.1182722434	-0.123428
C	 0.7412085259	-0.7255512347	 1.1915469243	 0.289427
O	 1.1485308116	 0.0794000831	 2.2722080076	-0.480988
C	-0.1824844972	-1.9004561267	 1.5709686205	-0.351884
C	-1.253522682	-1.8508545156	 0.5049587965	-0.070598
C	-1.1457142827	-0.7921552955	-0.2980935692	-0.113103
H	 0.640386964	 2.0669261783	 0.5974451109	 0.1336
H	-0.5104877399	 1.9853251987	-0.7547130901	 0.120909
H	-1.0734602242	 1.7187106911	 0.9089641341	 0.121248
H	 1.9034264376	-2.0397139239	-0.2226646164	 0.091313
H	 2.8182469465	-0.6190520738	 0.3808234711	 0.096686
H	 1.6573276448	-0.4648858229	 2.8824551057	 0.281692
H	 0.3414208076	-2.8650261418	 1.5923560876	 0.102346
H	-0.6011094829	-1.7409183512	 2.5735600198	 0.112037
H	-2.0237555245	-2.6115146792	 0.429394684	 0.099031
H	-1.8059907957	-0.5583582494	-1.1260608076	 0.098266
92.3025	182.4581	217.5248	231.8568	234.7587	297.9902	352.3451	398.5776	460.8613	512.2232	564.3313	667.8818	678.3623	755.9951	779.367	871.6278	904.0387	921.2872	958.9214	959.6744	979.4908	1013.589	1019.8161	1104.67	1121.3199	1131.9067	1153.11	1197.4559	1217.2431	1234.6113	1252.8007	1300.4048	1329.4651	1366.4808	1399.8064	1402.4416	1477.8227	1480.2075	1485.9839	1506.8966	1678.4431	3004.7441	3013.1951	3041.473	3044.294	3058.7148	3110.6886	3134.5166	3177.8728	3203.6784	3806.7781
CC12OCC1(O)CC=C2	C[C@@]12OC[C@]1(O)CC=C2	
InChI=1S/C7H10O2/c1-6-3-2-4-7(6,8)5-9-6/h2-3,8H,4-5H2,1H3	InChI=1S/C7H10O2/c1-6-3-2-4-7(6,8)5-9-6/h2-3,8H,4-5H2,1H3/t6-,7+/m0/s1
