19
gdb 72167	2.38203	2.2054	1.69111	2.5428	73.23	-0.2421	0.0908	0.3329	899.3988	0.161704	-423.018843	-423.01196	-423.011016	-423.049661	28.655	
C	-0.0143624533	 1.5344003972	 0.0230895738	-0.512496
C	-0.0219481409	 0.0268035361	-0.0445964046	 0.278266
C	 0.2585054014	-0.8066253941	-1.3230050811	-0.289256
C	-0.3412192548	-1.9300981489	-0.4552989345	 0.075467
O	 0.6663626519	-2.0939397733	 0.5658595755	-0.285499
C	 0.7022821986	-0.7566356334	 1.0862717765	 0.176452
O	-0.1394622444	-0.6729853431	 2.2082083827	-0.256854
C	-1.453769323	-0.9908047657	 1.7029792159	-0.112976
C	-1.2935420282	-0.8687346735	 0.1881010948	-0.108442
H	 0.9808499415	 1.9330228378	-0.2052086215	 0.12119
H	-0.7182680846	 1.9685126341	-0.69433893	 0.116664
H	-0.2910291269	 1.879151685	 1.0244228354	 0.133108
H	-0.3811878041	-0.5035536369	-2.1561389388	 0.098874
H	 1.2921308562	-0.9394246826	-1.6517134371	 0.100893
H	-0.6617024796	-2.9015495733	-0.8284071751	 0.08076
H	 1.7133121678	-0.4772086968	 1.3818717827	 0.086962
H	-1.7406767877	-2.0012906109	 2.0177800358	 0.109867
H	-2.1725213241	-0.2761536548	 2.1175933937	 0.106696
H	-2.1815378459	-0.6147383031	-0.3894940042	 0.080324
203.6143	221.2354	255.442	274.4016	419.7422	446.8272	528.8945	597.4735	636.3735	705.9162	755.0353	819.3204	877.4182	887.4578	912.321	924.5214	933.1545	949.0879	980.2977	997.7243	1015.2259	1041.686	1080.7859	1114.6611	1117.7172	1145.4467	1209.1065	1216.1439	1227.3611	1239.5174	1252.5266	1295.3925	1305.9434	1336.2936	1356.8479	1389.0132	1411.926	1490.2449	1493.3117	1496.704	1516.5955	3028.1481	3029.3331	3058.9477	3071.1761	3092.0154	3105.6902	3120.9223	3126.783	3130.2449	3137.7272
CC12CC3OC1OCC23	C[C@@]12C[C@H]3O[C@@H]1OC[C@@H]23	
InChI=1S/C7H10O2/c1-7-2-5-4(7)3-8-6(7)9-5/h4-6H,2-3H2,1H3	InChI=1S/C7H10O2/c1-7-2-5-4(7)3-8-6(7)9-5/h4-6H,2-3H2,1H3/t4-,5-,6+,7+/m1/s1
