19
gdb 39608	2.5418	1.57749	1.04908	0.5625	88.22	-0.2316	0.012	0.2435	1157.1674	0.160944	-348.719826	-348.711635	-348.710691	-348.752357	31.952	
C	 0.1560326273	 1.3697580803	-0.2717014832	-0.304259
C	 1.5775776397	 1.8574754635	-0.0467377079	-0.02925
C	 2.0812450706	 2.5413300156	 0.9835484902	-0.041639
C	 1.3868041442	 2.951256084	 2.2786920537	-0.39295
C	 0.371033617	 1.9728265526	 2.6496668226	 0.06536
C	-0.3917064246	 1.0425799849	 2.6502008869	 0.065563
C	-1.1520836295	-0.1457578722	 2.2808680654	-0.392986
C	-0.6159101981	-0.7467724111	 0.985154193	-0.041539
C	-0.0446177642	-0.1195534397	-0.0458890562	-0.029339
H	-0.5490591287	 1.948546034	 0.320449726	 0.12217
H	-0.0848727451	 1.5669345504	-1.3255687273	 0.09982
H	 2.2650183582	 1.6304551762	-0.8604997411	 0.08583
H	 3.1250178735	 2.8437229262	 0.9255692987	 0.087093
H	 2.1436085549	 3.047205072	 3.0673276929	 0.130978
H	 0.9491886486	 3.955562573	 2.1771012018	 0.135628
H	-1.0961197902	-0.9064223448	 3.0696752627	 0.130999
H	-2.222997311	 0.0858176151	 2.1810224646	 0.135615
H	-0.7089792216	-1.8294940581	 0.9273676095	 0.087079
H	 0.3111108289	-0.7497326319	-0.8599342523	 0.085826
83.391	185.8104	197.888	229.7284	310.6458	350.4558	395.3572	407.0983	487.2002	490.6497	650.9794	666.3749	706.2173	756.9517	805.0568	866.2352	883.2142	953.3029	957.7461	958.609	1001.0577	1006.8542	1015.394	1070.7855	1156.1237	1208.5529	1213.7602	1217.5631	1281.862	1291.6215	1323.8011	1339.1536	1340.0188	1411.6077	1420.6831	1466.1653	1467.8023	1490.5115	1714.4016	1716.2936	2368.4474	2998.501	2998.5896	3011.8505	3036.5571	3036.974	3122.6324	3123.3514	3145.5882	3150.8982	3156.0836
C1C=CCC#CCC=C1	C1C=CCC#CCC=C1	
InChI=1S/C9H10/c1-2-4-6-8-9-7-5-3-1/h1-2,5,7H,3-4,9H2/b2-1-,7-5-	InChI=1S/C9H10/c1-2-4-6-8-9-7-5-3-1/h1-2,5,7H,3-4,9H2/b2-1-,7-5-
