15
gdb 48928	4.01736	1.55693	1.38589	4.3029	68.23	-0.2478	-0.0338	0.214	915.3249	0.112435	-420.541179	-420.534741	-420.533797	-420.572202	25.603	
O	-0.0014477451	-0.0074311943	 0.1982459332	-0.243992
C	 0.0768274235	 1.1817773881	 0.0325385029	 0.031746
C	 1.3380342854	 1.9705033323	 0.0428914318	 0.37759
O	 2.5610418124	 1.2943950533	 0.3559200846	-0.308874
C	 3.0760415993	 2.6020539246	 0.6868662852	 0.073886
C	 2.9941393384	 3.4862617857	-0.5912346964	-0.092864
C	 1.7311214341	 4.185513252	-0.1440628376	-0.109877
C	 1.6325461824	 3.0135047151	-1.0909795682	-0.150334
C	 1.6589805568	 3.1655138674	 1.0276806055	-0.161321
H	-0.8247595583	 1.8140543765	-0.1409088518	 0.080964
H	 3.9558071269	 2.5912532741	 1.3269090545	 0.092432
H	 3.7763814509	 3.8244521183	-1.2557706632	 0.104085
H	 1.4070592819	 5.2100519163	-0.244429247	 0.102989
H	 1.3585976083	 2.9783088577	-2.1358917081	 0.106859
H	 1.2368448733	 3.2752397828	 2.0228710046	 0.096712
92.8966	172.3668	272.1791	399.9133	550.2527	567.1359	703.1231	757.86	775.658	803.2227	818.2145	839.163	853.2506	860.4652	870.9024	902.0907	958.5769	989.841	999.8742	1035.1103	1035.1481	1057.2881	1074.6946	1115.5004	1169.9935	1185.2446	1229.3463	1247.1005	1278.8398	1286.3009	1352.4188	1425.7607	1829.2161	2864.4712	3145.6602	3161.002	3214.843	3220.094	3238.4029
O=CC12OC3C4C(C14)C23	O=C[C@@]12O[C@H]3[C@@H]4[C@@H]([C@H]14)[C@@H]23	
InChI=1S/C7H6O2/c8-1-7-4-2-3(4)6(9-7)5(2)7/h1-6H	InChI=1S/C7H6O2/c8-1-7-4-2-3(4)6(9-7)5(2)7/h1-6H/t2-,3+,4-,5+,6-,7+/m0/s1
