16
gdb 23616	4.08138	1.44522	1.25682	1.34	75.37	-0.2296	0.0118	0.2414	987.4183	0.125741	-400.656736	-400.650201	-400.649257	-400.687478	27.219	
O	-0.1370601662	 1.3348051643	-0.1106350288	-0.398467
N	 0.0104869739	-0.0695747542	-0.0775966703	-0.286948
C	-1.1151925315	-0.6474420186	 0.0464421688	 0.49289
C	-2.4984714317	-0.1250474221	 0.1577921886	-0.183057
C	-3.4518490147	-1.1365419996	-0.4756950905	-0.087052
C	-3.3124443801	-1.0866405363	 1.0215859897	-0.08706
C	-2.5093396209	-2.4187671012	 0.9926051018	-0.088817
C	-2.6489516595	-2.4687296158	-0.5074835923	-0.088826
C	-1.3004697116	-2.1161408322	 0.1126425613	-0.172161
H	 0.7751352098	 1.6277150164	-0.2052950196	 0.303975
H	-2.7224814379	 0.9308287779	 0.1434503327	 0.112737
H	-4.2821903135	-0.8585300069	-1.1092959701	 0.095375
H	-4.0133940781	-0.7623114914	 1.7776863949	 0.095374
H	-2.5393812331	-3.2148205992	 1.7231234946	 0.094879
H	-2.8082467676	-3.3110394924	-1.165814925	 0.094878
H	-0.4686067273	-2.8041718785	 0.0581455843	 0.102279
137.296	214.7553	301.222	399.2369	468.6551	566.585	650.35	702.4411	711.6646	751.0929	765.9527	772.9152	820.6514	833.3686	885.8636	914.8401	917.181	931.4469	944.5498	981.6354	997.3669	1016.8585	1039.0255	1050.4273	1063.715	1095.5601	1195.4579	1205.6794	1269.6969	1273.4832	1299.0707	1311.2345	1366.4952	1418.3027	1777.2693	3203.426	3212.493	3212.6709	3219.4993	3228.0894	3242.8393	3823.5959
ON=C1C2C3C2C2C3C12	ON=C1[C@H]2[C@@H]3[C@H]2[C@H]2[C@@H]3[C@@H]12	
InChI=1S/C7H7NO/c9-8-7-5-1-2(5)4-3(1)6(4)7/h1-6,9H	InChI=1S/C7H7NO/c9-8-7-5-1-2(5)4-3(1)6(4)7/h1-6,9H/t1-,2+,3-,4+,5+,6-
