21
gdb 113791	2.99426	1.00085	0.96284	2.3658	78.31	-0.2633	0.0765	0.3397	1370.8106	0.179625	-424.190657	-424.180743	-424.179799	-424.226432	36.096	
C	-0.1630903126	 1.587401082	-0.195039323	-0.376606
C	-0.042344192	 0.2060049002	 0.4598676936	-0.218828
C	-1.352581773	-0.5434799577	 0.4452132982	 0.086182
O	-1.801191927	-1.0631218824	-0.8142985048	-0.258563
C	-1.474398919	-1.9942464207	 0.2193120827	-0.035224
C	-0.3019469786	-2.9245505663	-0.0182406349	 0.360089
C	 0.2009914861	-3.03521811	-1.4390988875	-0.451965
C	 0.5682678958	-3.2688344732	 1.120047681	-0.212097
O	-0.445735746	-4.1719173066	 0.678424187	-0.276619
H	 0.7927434484	 2.1187882746	-0.1742174446	 0.114961
H	-0.4790025802	 1.4909680096	-1.2379305485	 0.135127
H	-0.9027460026	 2.2076149929	 0.3227595396	 0.117454
H	 0.7267289428	-0.3843817718	-0.047710274	 0.106836
H	 0.2803963443	 0.3126917055	 1.5039280451	 0.101855
H	-2.1515342462	-0.066834902	 1.0191661375	 0.088317
H	-2.3317750778	-2.5115119887	 0.6527088024	 0.105805
H	 0.5544767356	-2.0697067814	-1.8092043139	 0.132191
H	 1.0149105413	-3.7622750346	-1.4927401357	 0.121672
H	-0.6054913622	-3.3627455425	-2.102203989	 0.136743
H	 1.594242873	-3.5882780882	 0.9379824368	 0.111882
H	 0.3934220099	-2.8095538386	 2.0926158517	 0.110786
27.049	81.3437	122.569	173.4949	190.7776	236.188	263.2207	330.2062	372.9717	390.7642	438.603	487.9454	589.1545	717.0301	761.875	819.6081	832.9289	866.6344	924.0347	945.5905	958.6938	1029.0418	1032.6847	1061.4457	1093.978	1121.4907	1137.8327	1148.5646	1166.9635	1182.1083	1263.3913	1291.7285	1300.4094	1342.5366	1364.2425	1400.9083	1410.5232	1420.9241	1472.1271	1475.5869	1480.0444	1497.0926	1498.7493	1509.5393	1528.6025	3027.6756	3037.7571	3049.3055	3069.5764	3074.6796	3084.7276	3102.2743	3108.6124	3117.6903	3118.5535	3134.0725	3160.2711
CCC1OC1C1(C)CO1	CC[C@H]1O[C@H]1[C@@]1(C)CO1	
InChI=1S/C7H12O2/c1-3-5-6(9-5)7(2)4-8-7/h5-6H,3-4H2,1-2H3	InChI=1S/C7H12O2/c1-3-5-6(9-5)7(2)4-8-7/h5-6H,3-4H2,1-2H3/t5-,6-,7-/m1/s1
