19
gdb 119588	3.12194	1.02967	0.89236	0.5711	71.39	-0.2491	0.0727	0.3217	1339.0802	0.157787	-460.11734	-460.108139	-460.107195	-460.151869	33.921	
O	-0.033943134	 1.4117332259	-0.1668521136	-0.420837
C	 0.0081689964	-0.0063444175	-0.1465684493	-0.078878
C	-1.4153699932	-0.4991154259	 0.1156909416	-0.323389
C	-1.4776588303	-1.9855865094	 0.251109078	 0.391648
O	-1.3330780077	-2.7925255279	-0.9409078042	-0.311162
C	-2.483046583	-3.0049267567	-0.0990863074	-0.050067
C	-2.0357970943	-3.9478846489	 1.0175489989	-0.290584
C	-0.9187159869	-2.8909044665	 1.3742681631	 0.083468
O	 0.425785056	-3.2646481696	 1.2451903309	-0.435203
H	 0.8532877265	 1.7358175152	-0.346333672	 0.287316
H	 0.3616837275	-0.4144832414	-1.1056074241	 0.100748
H	 0.681303206	-0.3815926199	 0.6392272802	 0.10561
H	-1.7812945234	-0.032126214	 1.0378321984	 0.114302
H	-2.0679262493	-0.1706086473	-0.6999090998	 0.118011
H	-3.4555610862	-2.8909661347	-0.5639239478	 0.10811
H	-2.7708348808	-4.0705159492	 1.8168701502	 0.109353
H	-1.6767487668	-4.9268917576	 0.6907730693	 0.109252
H	-1.0437786323	-2.4722907823	 2.3759229514	 0.094801
H	 0.5347803759	-3.5273869923	 0.3215450463	 0.287501
68.0439	89.0218	103.2741	172.1515	259.8252	281.3383	304.8386	344.7408	409.4507	476.3982	510.749	612.0591	713.9308	741.5639	788.5553	825.8355	885.3513	918.1818	941.1353	981.067	1017.6763	1043.2131	1058.1396	1085.2542	1115.9486	1146.4049	1180.0647	1192.7174	1229.3279	1237.5819	1259.8124	1280.7223	1309.1695	1318.7365	1331.6359	1430.0209	1455.3813	1461.9491	1473.7672	1487.8582	1530.5056	2981.3093	3011.7028	3039.8501	3064.5181	3087.9191	3090.1288	3124.5358	3188.6088	3765.555	3832.9976
OCCC12OC1CC2O	OCC[C@]12O[C@H]1C[C@H]2O	
InChI=1S/C6H10O3/c7-2-1-6-4(8)3-5(6)9-6/h4-5,7-8H,1-3H2	InChI=1S/C6H10O3/c7-2-1-6-4(8)3-5(6)9-6/h4-5,7-8H,1-3H2/t4-,5+,6-/m1/s1
