20
gdb 98866	4.15101	0.93646	0.85986	3.2651	82.79	-0.2322	0.0161	0.2484	1422.6449	0.171784	-403.19647	-403.187108	-403.186164	-403.231873	33.54	
C	 0.0719970292	 1.5001844579	 0.0971591859	-0.33393
N	-0.0380839983	 0.055210997	 0.1324905109	-0.312277
C	-1.183981717	-0.6078799711	-0.2012894625	 0.408276
O	-2.2064913796	-0.035479892	-0.5344483014	-0.372476
C	-1.057723751	-2.1389639242	-0.1623173569	-0.142037
C	-2.4157801289	-2.8456760092	 0.0771633304	-0.233465
C	-2.4561267014	-4.0479817518	-0.9007353085	-0.256746
C	-1.3740736673	-3.718864799	-1.8978294649	-0.058306
C	-0.6144209448	-2.7004321844	-1.5029317816	-0.061611
H	 0.3071261091	 1.9081875888	 1.0867068153	 0.123831
H	 0.8447480884	 1.8265353381	-0.6081779537	 0.123608
H	-0.8938578964	 1.8888572284	-0.2273470521	 0.172036
H	 0.7615470877	-0.4846024508	 0.4184986598	 0.242985
H	-0.3198151263	-2.4024206421	 0.6107231098	 0.07034
H	-2.5499128776	-3.1430317197	 1.1198435988	 0.093518
H	-3.2015001339	-2.1292431408	-0.1732576254	 0.140265
H	-2.2374003163	-4.9997810319	-0.3962477892	 0.103051
H	-3.4396639655	-4.1708353485	-1.3682578752	 0.108239
H	-1.2270340995	-4.2838068948	-2.8121156452	 0.093165
H	 0.2394718993	-2.30261152	-2.0404265343	 0.091534
39.8408	77.7705	86.15	121.1901	208.192	233.6868	322.3644	378.6197	409.0262	475.0437	597.0532	707.3132	728.6064	783.1539	793.6588	846.9632	887.2842	927.5034	941.0103	971.4962	1008.7744	1031.4424	1059.0632	1091.1716	1133.5253	1153.609	1168.6907	1182.5748	1217.919	1228.7715	1272.2751	1301.2144	1317.7006	1358.2774	1380.8933	1438.1917	1483.604	1492.1336	1500.3672	1501.0211	1557.2293	1686.5694	1779.8897	2979.025	3008.5182	3025.6598	3054.2227	3071.876	3076.4783	3121.5773	3154.0644	3179.1862	3204.9429	3647.9679
CNC(=O)C1CCC=C1	CNC(=O)[C@H]1CCC=C1	
InChI=1S/C7H11NO/c1-8-7(9)6-4-2-3-5-6/h2,4,6H,3,5H2,1H3,(H,8,9)	InChI=1S/C7H11NO/c1-8-7(9)6-4-2-3-5-6/h2,4,6H,3,5H2,1H3,(H,8,9)/t6-/m1/s1
