16
gdb 47185	2.34451	1.73052	1.03116	3.2061	75.17	-0.2356	-0.0531	0.1825	1102.4827	0.127657	-434.111663	-434.103936	-434.102992	-434.144317	29.276	
N	-0.0893606495	 1.2708999119	-0.5353839165	-0.555248
C	-0.0521611905	 0.1056748262	-0.0086304555	 0.410173
N	-1.2263502467	-0.5945698274	 0.1588147226	-0.298777
C	-1.4779502981	-1.4607512648	 1.3033110738	-0.24166
C	-0.7555382776	-2.7772779515	 1.2059228041	-0.058227
C	 0.5119471488	-2.9288858612	 0.8237896684	-0.109202
C	 1.508580361	-1.8702786328	 0.5539224249	 0.377578
O	 2.6963055663	-2.1381713593	 0.5324431993	-0.35538
N	 1.1289439519	-0.5334927868	 0.4036580256	-0.392196
H	 0.8416613004	 1.6314209187	-0.7308744445	 0.209499
H	-2.0047090593	-0.0135160062	-0.1172429537	 0.257031
H	-1.2248940468	-0.9723209461	 2.2593873941	 0.13293
H	-2.5543924827	-1.6454252339	 1.3279026931	 0.127802
H	-1.3232100268	-3.6624003628	 1.480617306	 0.1173
H	 0.9617237563	-3.9149668158	 0.7874069271	 0.124416
H	 1.9546414432	 0.0404725919	 0.2937129412	 0.253962
69.4357	119.3688	193.2213	298.9561	340.2269	376.4949	443.4749	531.5556	566.8397	634.3958	671.5854	693.2234	736.4272	772.579	804.3912	842.8722	867.9334	906.0393	973.5818	1020.8843	1054.0724	1125.2972	1175.6948	1223.066	1276.8543	1322.5172	1383.3591	1410.0647	1431.2539	1452.8704	1468.089	1497.3041	1711.2967	1728.169	1767.5049	2965.2366	3096.7497	3163.8668	3202.1297	3511.8497	3592.8601	3611.3557
N=C1NCC=CC(=O)N1	[NH][C]1NCC=CC(=O)N1	
InChI=1S/C5H7N3O/c6-5-7-3-1-2-4(9)8-5/h1-2H,3H2,(H3,6,7,8,9)	InChI=1S/C5H7N3O/c6-5-7-3-1-2-4(9)8-5/h1-2H,3H2,(H3,6,7,8,9)
