21
gdb 88612	3.47808	1.21399	1.11256	2.4467	83.89	-0.2223	0.0704	0.2927	1194.6797	0.184584	-383.157345	-383.149336	-383.148392	-383.190141	31.681	
C	 0.1960102646	 1.5298647413	-0.2257599758	-0.40724
C	-0.0653027641	 0.0712274638	 0.0639984121	 0.004597
N	 1.0596243189	-0.8637852999	-0.1185749418	-0.332598
C	 0.5104503517	-0.6577589764	 1.2319539264	-0.077361
C	 1.3055200376	-0.0046049536	 2.3367266671	 0.064139
C	 2.4624076151	-0.7000374148	 3.1056149873	-0.086784
C	 3.3175673016	-0.3933990642	 1.8567973409	-0.173348
N	 2.5120142557	 0.9157966825	 2.0289266663	-0.151558
C	 2.8334489715	 0.7368424402	 3.5249438014	-0.16645
H	 1.1735825695	 1.830372761	 0.1560282211	 0.164501
H	 0.1634600916	 1.7156629354	-1.3049154141	 0.11195
H	-0.5699888895	 2.1564308144	 0.244983082	 0.10793
H	-1.0409357568	-0.2876519254	-0.2641633716	 0.07753
H	 0.737619711	-1.7498354662	-0.4975172263	 0.229017
H	-0.1182354391	-1.4562891232	 1.6309134213	 0.080802
H	 0.5858881337	 0.5098943441	 2.9876582328	 0.072443
H	 2.4296241171	-1.609050042	 3.7181373976	 0.057442
H	 4.3911417729	-0.2490727522	 2.0096753719	 0.091871
H	 3.1029209515	-0.9082620887	 0.9245568341	 0.138087
H	 2.1545187113	 1.2804460521	 4.188839399	 0.096013
H	 3.8796912843	 0.944726552	 3.7634560683	 0.099016
57.6065	146.1387	205.8886	242.735	268.6553	367.8543	415.0336	484.0086	597.72	649.5509	761.8114	779.2434	787.8306	849.6765	857.5355	863.7726	903.6287	917.372	952.4394	988.3193	1019.54	1031.9658	1055.3556	1080.0661	1097.615	1107.0525	1137.6221	1155.7274	1161.8058	1180.3806	1202.1944	1207.0816	1230.5816	1247.4553	1260.7509	1276.6457	1289.7431	1396.9079	1421.37	1431.1947	1467.3743	1500.456	1502.9769	1513.0107	1551.4948	3013.3433	3026.0262	3031.7351	3048.4728	3063.7623	3081.8087	3090.7052	3100.7026	3115.2776	3140.5682	3182.3307	3505.1748
CC1NC1C1C2CN1C2	C[C@H]1N[C@H]1[C@H]1[C@H]2CN1C2	
InChI=1S/C7H12N2/c1-4-6(8-4)7-5-2-9(7)3-5/h4-8H,2-3H2,1H3	InChI=1S/C7H12N2/c1-4-6(8-4)7-5-2-9(7)3-5/h4-8H,2-3H2,1H3/t4-,6-,7-/m1/s1
