14
gdb 124294	2.78053	1.5483	1.00167	2.0425	66.24	-0.2503	-0.0793	0.1709	1099.774	0.100043	-469.991717	-469.983471	-469.982527	-470.024948	29.767	
C	 0.0044428005	 1.462385881	 0.0148865022	-0.480809
C	-0.0133019047	-0.0452366491	 0.0209794991	 0.330846
O	-0.0621620173	-0.7059478301	 1.0445474845	-0.324765
C	 0.0251301939	-0.7465637087	-1.2774015082	 0.197947
N	-0.0024410283	-0.1534614091	-2.4452494064	-0.14402
O	 0.0100014294	-1.1280321532	-3.367473465	-0.148078
N	 0.0474550205	-2.3940901498	-2.7873652022	-0.182995
C	 0.0627749296	-2.1691516757	-1.4934160066	 0.324064
N	 0.1512836107	-3.1231452483	-0.5334628699	-0.595037
H	 0.9243901623	 1.8243466237	-0.4558309746	 0.16002
H	-0.8255617895	 1.849509667	-0.5842802512	 0.161228
H	-0.0625690063	 1.8293426428	 1.0391448797	 0.14611
H	-0.0717788407	-4.0705621275	-0.789966436	 0.271028
H	-0.06936424	-2.8146134831	 0.4015859545	 0.284462
69.7408	111.5744	183.0552	185.5774	308.9645	329.7028	406.3142	418.1936	500.412	527.1403	596.7982	623.9242	636.32	751.0611	781.1198	891.4684	956.6808	964.5413	1048.1297	1061.5131	1122.8908	1150.1346	1348.4908	1395.1789	1457.2187	1458.3837	1466.925	1525.7723	1602.0104	1661.35	1762.7735	3049.1545	3112.3267	3162.2896	3577.7099	3709.0563
CC(=O)C1=NON=C1N	CC(=O)c1nonc1N	
InChI=1S/C4H5N3O2/c1-2(8)3-4(5)7-9-6-3/h1H3,(H2,5,7)	InChI=1S/C4H5N3O2/c1-2(8)3-4(5)7-9-6-3/h1H3,(H2,5,7)
