19
gdb 108684	2.11896	1.53986	0.9156	2.0687	88.99	-0.2118	-0.0064	0.2054	1272.0992	0.158031	-385.871171	-385.861686	-385.860742	-385.905855	34.678	
O	 0.2476202005	 1.3005032655	 0.1187887255	-0.405817
C	 0.0662503414	-0.0962919672	 0.0599500835	-0.199325
C	-1.3753114762	-0.4667070716	-0.0589310971	 0.217633
C	-2.4751962225	 0.3097586228	-0.0538244259	 0.114524
C	-3.7361812283	-0.5266528324	-0.2540679017	-0.303408
C	-3.2521021588	-1.9715652981	-0.0098920956	-0.21561
C	-1.7290551378	-1.9245696295	-0.2623195545	-0.291459
C	-2.5919804932	 1.715471258	 0.064071764	 0.209837
C	-2.8389126659	 2.8915727532	 0.1588309297	-0.429365
H	 1.1828979703	 1.4755098836	 0.2554612898	 0.289315
H	 0.6054514248	-0.5394231694	-0.7987066364	 0.096092
H	 0.4756174803	-0.5967889926	 0.9575071467	 0.097782
H	-4.5406872619	-0.2244062433	 0.4233018758	 0.11146
H	-4.1182357863	-0.3849815674	-1.2740367518	 0.111246
H	-3.4387519123	-2.247170229	 1.0328603208	 0.107374
H	-3.7643198097	-2.7055037663	-0.6370036464	 0.098238
H	-1.4742191611	-2.2344465209	-1.2871826955	 0.108448
H	-1.168033261	-2.5919573692	 0.4036530507	 0.101041
H	-3.0021389523	 3.9369591737	 0.2418849483	 0.181995
46.9826	129.4803	144.1278	151.676	205.0195	214.7591	238.4389	386.9732	405.2224	515.8514	550.5225	586.5057	609.3066	626.2146	647.7893	699.7906	853.7236	890.7914	929.4916	989.7962	1017.1098	1025.6335	1073.4806	1087.068	1147.349	1152.8103	1189.6752	1230.7459	1244.7551	1262.0274	1264.139	1321.6584	1332.1883	1347.8815	1467.7628	1484.2395	1487.7012	1502.6072	1507.394	1702.3195	2217.727	2922.4536	2930.7705	2994.3555	3018.6111	3037.0384	3055.2444	3076.1261	3102.7711	3505.3179	3836.1691
OCC1=C(CCC1)C#C	OCC1=C(CCC1)C#C	
InChI=1S/C8H10O/c1-2-7-4-3-5-8(7)6-9/h1,9H,3-6H2	InChI=1S/C8H10O/c1-2-7-4-3-5-8(7)6-9/h1,9H,3-6H2
