21
gdb 71229	2.68838	1.78026	1.62947	1.5657	80.33	-0.2284	0.0869	0.3154	966.589	0.185081	-387.074515	-387.067319	-387.066375	-387.105449	30.618	
C	-0.0305344287	 1.5365705065	 0.049428883	-0.484766
C	-0.0011401194	 0.0213056157	-0.0232924068	 0.285778
C	 0.2853267852	-0.6529216157	-1.4051490196	-0.28589
C	-0.7817028293	-1.6997719379	-1.0450269072	-0.082597
C	-0.4814608103	-2.5168469934	 0.2632820892	 0.098585
C	 0.8792085932	-2.1706197479	 0.8574225269	-0.23416
C	 0.9070285421	-0.6311084052	 1.0356051556	-0.230555
O	-1.4908785683	-1.759820623	 1.0065648766	-0.306492
C	-1.3955757909	-0.7496187738	-0.0055601782	 0.099024
H	 0.9616702435	 1.9640633016	-0.137877489	 0.113489
H	-0.7177230933	 1.9585800959	-0.6926346255	 0.108706
H	-0.3574243988	 1.8776503929	 1.0388488517	 0.117405
H	-0.0540393457	-0.0321555231	-2.2404615883	 0.096048
H	 1.3103981367	-0.9795192776	-1.6070964433	 0.092429
H	-1.3538086096	-2.2228150103	-1.8114589547	 0.069492
H	-0.7106484401	-3.5853282141	 0.250968537	 0.073135
H	 1.0171568897	-2.679136355	 1.8165159227	 0.103528
H	 1.6767213341	-2.5178546254	 0.1905664683	 0.099633
H	 1.9269325337	-0.2399926132	 0.9497050527	 0.08972
H	 0.5396898312	-0.3697426501	 2.0324739579	 0.108784
H	-2.302222965	-0.1505570172	-0.1192458491	 0.068704
211.8689	236.6502	273.1666	291.9195	378.2004	404.2133	432.7368	509.6795	621.515	642.6466	748.544	773.0124	798.8056	835.9264	864.8599	889.1366	911.4503	933.9198	965.7561	985.5662	1000.2936	1017.0919	1043.2033	1061.725	1076.2886	1113.9082	1166.18	1181.7019	1211.3495	1219.3698	1225.5277	1245.7795	1272.1847	1286.2371	1303.5592	1328.4271	1344.9181	1359.7011	1373.2199	1410.9234	1475.2378	1482.8084	1493.6406	1494.8383	1505.2846	3017.4125	3036.2486	3040.2348	3046.5167	3073.3731	3078.7666	3081.4955	3083.5539	3085.7784	3090.211	3095.0282	3109.4495
CC12CC3C(CC1)OC23	C[C@@]12C[C@H]3[C@@H](CC1)O[C@@H]23	
InChI=1S/C8H12O/c1-8-3-2-6-5(4-8)7(8)9-6/h5-7H,2-4H2,1H3	InChI=1S/C8H12O/c1-8-3-2-6-5(4-8)7(8)9-6/h5-7H,2-4H2,1H3/t5-,6+,7+,8-/m0/s1
