16
gdb 20603	3.28264	2.01468	1.26466	3.0329	68.07	-0.1892	0.0482	0.2374	932.2218	0.131994	-376.124265	-376.115641	-376.114696	-376.157053	31.191	
C	-0.0291231432	 1.5602397395	 0.0108045703	-0.525831
C	-0.035687623	 0.0649559164	-0.004816246	 0.112489
C	-0.0782304635	-0.7887657489	-1.0936021403	 0.289822
N	-0.2044302677	-0.5526051311	-2.4692090878	-0.612022
N	-0.039101778	-2.0538532212	-0.6112143337	-0.254745
N	 0.0153616774	-2.0973069736	 0.7558313969	-0.320816
C	 0.0103197585	-0.8203901652	 1.1097333288	 0.296276
N	-0.000346472	-0.4451243202	 2.4560086645	-0.588365
H	 0.795220341	 1.9619039667	 0.6146745253	 0.11684
H	 0.0973742455	 1.971088921	-0.9972936986	 0.105417
H	-0.9566265255	 1.9801130257	 0.4193618749	 0.134392
H	-0.299214922	 0.4350632694	-2.6671887419	 0.24902
H	 0.5750479497	-0.9179787862	-3.0058154265	 0.248545
H	-0.2135143575	-2.8998116363	-1.1238147038	 0.263298
H	 0.2430522561	-1.2267576132	 3.0522221446	 0.246365
H	 0.603721604	 0.3427448072	 2.6533565732	 0.239315
85.3959	144.4765	167.5776	225.1571	245.0913	285.9751	295.4466	316.1402	425.9981	516.5346	586.4555	649.6031	698.7503	713.0561	771.7369	790.0405	816.5799	955.4161	1061.8402	1073.5359	1107.6332	1174.9317	1201.3106	1268.0733	1341.3441	1422.7043	1455.5034	1480.2756	1499.4185	1536.3655	1566.4213	1628.1331	1644.3239	1674.2672	3008.5868	3053.8606	3078.1113	3515.6507	3529.3921	3614.2498	3624.284	3688.9204
CC1=C(N)NN=C1N	Cc1c(N)[nH]nc1N	
InChI=1S/C4H8N4/c1-2-3(5)7-8-4(2)6/h1H3,(H5,5,6,7,8)	InChI=1S/C4H8N4/c1-2-3(5)7-8-4(2)6/h1H3,(H5,5,6,7,8)
