18
gdb 62192	4.75997	0.62108	0.56778	3.6514	79.99	-0.2706	0.0215	0.2921	1873.0997	0.144272	-401.919077	-401.90873	-401.907786	-401.955888	35.827	
C	-0.1078767127	 1.516041597	 0.0098415125	-0.398199
C	 0.0096857275	-0.0157212136	 0.0150344613	-0.04167
O	 0.6163553008	-0.5123280569	-1.1796205165	-0.257815
C	-0.2323716222	-0.5422045065	-2.3030073719	-0.054496
C	 0.5347508712	-1.2944365345	-3.3985351287	-0.338745
C	-0.2312017774	-1.3868828423	-4.6371692448	 0.246802
N	-0.853672397	-1.4497760175	-5.6084352776	-0.300873
C	 0.8135342764	-0.48232934	 1.1436529478	 0.317701
C	 1.4598000499	-0.8376380578	 2.0912689793	-0.434018
H	 0.8821199728	 1.9643179221	-0.103461825	 0.139418
H	-0.7490349654	 1.8548915451	-0.8084749444	 0.122643
H	-0.5441917064	 1.8614320597	 0.9506915095	 0.135219
H	-0.9999931629	-0.4503610638	 0.1046677734	 0.102107
H	-1.1743044443	-1.064875898	-2.0751965933	 0.112545
H	-0.4885262637	 0.4664967944	-2.6571724469	 0.115444
H	 1.4817141109	-0.780508977	-3.5932649792	 0.165507
H	 0.7807899824	-2.3002752251	-3.0435570487	 0.16529
H	 2.0323882901	-1.1623021653	 2.9249259334	 0.20314
36.7185	54.847	86.0362	128.1549	158.1136	207.1529	245.0873	307.7424	335.3062	399.7373	416.0606	522.5966	542.4291	596.0603	628.9216	677.2554	796.702	829.8211	912.2082	963.8746	1035.4268	1076.3236	1089.3556	1103.1756	1116.93	1151.5718	1226.674	1299.8743	1304.4212	1344.0536	1358.2627	1401.5568	1433.5434	1470.9514	1490.7336	1491.5136	1527.5691	2245.8512	2366.6291	2962.8432	2984.302	3023.0714	3050.6579	3059.4259	3102.8895	3125.1663	3136.5556	3503.7329
CC(OCCC#N)C#C	C[C@@H](OCCC#N)C#C	
InChI=1S/C7H9NO/c1-3-7(2)9-6-4-5-8/h1,7H,4,6H2,2H3	InChI=1S/C7H9NO/c1-3-7(2)9-6-4-5-8/h1,7H,4,6H2,2H3/t7-/m1/s1
