19
gdb 39651	4.52249	0.95377	0.92545	1.8893	75.13	-0.2404	0.0728	0.3132	1304.2097	0.159886	-422.920235	-422.912525	-422.911581	-422.95379	29.026	
C	-0.0105352128	 1.4406673588	-0.2522198601	-0.080667
O	 1.2774253781	 1.7950552271	 0.28693428	-0.269095
C	 1.5538614176	 0.4292526867	 0.6520085037	-0.080695
C	 0.2303176366	-0.066293827	 0.0165265855	-0.088851
C	-0.7495500552	-0.7590482796	 0.936813979	 0.03222
C	-2.0780561644	-1.4152441957	 0.4515221759	 0.026207
C	-1.2979594051	-2.5964015654	-0.1735734052	-0.233306
C	-0.7271153702	-2.2899220351	 1.231652441	 0.026169
O	-2.1178762816	-2.1670835431	 1.7276379557	-0.306458
H	-0.8340800315	 1.8855679537	 0.323172496	 0.100168
H	-0.1130410691	 1.7359557854	-1.3033309924	 0.101862
H	 2.479806397	 0.0596327413	 0.1953422145	 0.10186
H	 1.619097533	 0.2995332032	 1.7411166601	 0.100169
H	 0.3984627227	-0.6285461144	-0.9032114782	 0.080498
H	-0.9080609902	-0.1847975045	 1.8551349574	 0.087556
H	-3.0031475554	-0.9419031752	 0.1203148985	 0.09513
H	-1.8626782443	-3.5266994901	-0.2386944904	 0.112217
H	-0.6764201784	-2.4213844794	-1.0536849406	 0.099885
H	-0.0286148667	-2.8678133666	 1.8380202793	 0.095131
50.333	61.2866	149.0453	230.6664	321.9318	417.1145	515.6448	590.332	731.0778	814.1034	817.3112	866.8613	878.8395	885.9557	900.0621	917.3329	941.62	1003.6643	1007.5886	1032.1115	1042.3111	1047.3918	1099.0641	1102.8415	1141.2114	1160.2737	1165.5538	1170.6497	1199.8587	1202.5043	1222.8423	1256.4765	1260.8585	1279.9748	1307.9835	1312.1292	1381.5785	1425.6117	1495.4225	1512.4125	1538.2998	2998.448	3009.381	3048.9999	3049.8573	3065.1144	3073.1416	3101.2851	3109.2374	3116.1752	3151.9231
C1OCC1C1C2CC1O2	C1OCC1[C@H]1[C@H]2C[C@@H]1O2	
InChI=1S/C7H10O2/c1-5-7(6(1)9-5)4-2-8-3-4/h4-7H,1-3H2	InChI=1S/C7H10O2/c1-5-7(6(1)9-5)4-2-8-3-4/h4-7H,1-3H2/t5-,6+,7+
