12
gdb 52506	3.02622	0.6784	0.55609	5.379	89.18	-0.2875	-0.1149	0.1726	1846.5507	0.075014	-398.316271	-398.306854	-398.30591	-398.353274	30.451	
C	 0.079725915	 1.4427091319	 0.0092808383	-0.502538
C	 0.0373872671	-0.0069598426	 0.0015658958	 0.004471
C	-0.0075623378	-1.2136871134	-0.0047459647	 0.095523
C	-0.0607312749	-2.6487666835	-0.0120841742	 0.13376
O	-1.0853028284	-3.3010720733	-0.005962819	-0.248408
C	 1.24304613	-3.2988620283	-0.0278161634	 0.15859
C	 2.3115055358	-3.8663536558	-0.0408581928	-0.063831
C	 3.520097825	-4.4990154088	-0.0554530305	 0.225146
N	 4.5513342644	-5.0336176853	-0.0678804434	-0.319696
H	 1.1100602549	 1.8116202272	 0.0018302272	 0.169301
H	-0.4370080405	 1.8464371006	-0.8680217118	 0.173841
H	-0.4207103307	 1.8365669615	 0.9004041586	 0.173842
17.8106	47.4185	103.0798	131.4474	153.4738	240.8677	317.6423	326.832	404.6849	468.6921	498.8561	572.4062	591.9042	658.8209	775.0575	885.1141	1041.2283	1051.3228	1102.9962	1256.9383	1407.9096	1465.2698	1468.487	1719.1218	2251.9246	2339.5381	2384.6385	3035.5695	3100.9884	3107.4631
CC#CC(=O)C#CC#N	CC#CC(=O)C#CC#N	
InChI=1S/C7H3NO/c1-2-4-7(9)5-3-6-8/h1H3	InChI=1S/C7H3NO/c1-2-4-7(9)5-3-6-8/h1H3
