21
gdb 101569	3.30445	0.82356	0.73072	1.3147	76.03	-0.2712	0.0135	0.2847	1635.1819	0.179529	-461.407897	-461.396948	-461.396003	-461.445661	38.11	
C	 0.1588871486	 1.3552292416	 0.07968878	-0.370198
C	-0.0975520564	-0.1496886201	 0.0779675982	-0.303577
C	-1.5735236388	-0.4947933148	 0.0692610538	 0.453126
O	-2.4778532241	 0.3017796785	 0.0798430173	-0.354906
O	-1.7501710004	-1.8348861157	 0.0521578866	-0.281303
C	-3.1183193342	-2.3313024356	 0.0388920979	 0.111029
C	-3.6400925094	-2.3705523939	-1.3917354788	-0.39909
C	-3.034259953	-3.7051704427	 0.6996774069	-0.07119
O	-2.189915046	-4.5951290688	-0.0050980021	-0.418544
H	 1.2329031951	 1.5599179106	 0.0916086496	 0.112794
H	-0.2735122938	 1.8267037654	-0.8063428196	 0.133092
H	-0.2939903502	 1.8280760888	 0.9545784086	 0.133802
H	 0.3624505177	-0.635235404	-0.7909484575	 0.130951
H	 0.3515003621	-0.6346239277	 0.9531003645	 0.130714
H	-3.7271581063	-1.6577520148	 0.6488507098	 0.107562
H	-3.612706685	-1.3732316881	-1.8352903193	 0.136676
H	-3.044003552	-3.0595879157	-1.9945139731	 0.132159
H	-4.6777956884	-2.7189781912	-1.3975237004	 0.120585
H	-2.7055593205	-3.5808787584	 1.7429514285	 0.093156
H	-4.0301102899	-4.1599940584	 0.7144059138	 0.113267
H	-1.3300378951	-4.1637465051	-0.0643871046	 0.289895
23.0597	56.8713	90.4201	94.4319	165.1544	207.7889	226.9441	247.7299	288.8581	319.2021	400.5943	422.4753	471.2575	582.2304	622.9947	682.5447	810.0811	825.4392	882.202	927.1081	932.4441	1008.4374	1021.8165	1072.9467	1099.8121	1106.7731	1143.1098	1154.2665	1207.8827	1240.4492	1278.0868	1338.8606	1364.842	1385.8323	1390.63	1416.8851	1417.5681	1429.9284	1458.8352	1490.0564	1493.6015	1494.215	1500.4568	1501.3757	1816.9639	2989.0108	3040.5675	3050.5655	3053.1785	3070.2238	3078.1954	3082.0748	3122.3285	3124.8207	3130.408	3143.6653	3805.7365
CCC(=O)OC(C)CO	CCC(=O)O[C@@H](C)CO	
InChI=1S/C6H12O3/c1-3-6(8)9-5(2)4-7/h5,7H,3-4H2,1-2H3	InChI=1S/C6H12O3/c1-3-6(8)9-5(2)4-7/h5,7H,3-4H2,1-2H3/t5-/m0/s1
