13
gdb 16608	3.34822	2.34365	1.54145	5.9242	59.12	-0.2379	-0.0656	0.1723	780.0014	0.096968	-398.633151	-398.626835	-398.625891	-398.663645	24.126	
O	-0.0207537697	-0.0288965388	 0.15681576	-0.338492
C	-0.0204555317	 1.1704238673	 0.0330745122	 0.284747
N	-1.1097073095	 2.0047320713	-0.0549220119	-0.310683
C	-0.7911822369	 3.4083807209	-0.0190947671	-0.008239
C	-0.1333130717	 3.90682903	 1.2306488035	-0.29975
C	 0.7143314316	 3.5083289407	 0.0139598537	-0.159799
C	 1.2249991065	 2.1054372849	-0.0403983646	 0.330146
O	 2.3562872488	 1.7235612595	-0.1610508602	-0.29101
H	-2.0259900879	 1.6597618878	 0.1900205605	 0.262012
H	-1.3895556713	 4.0587109413	-0.6460621952	 0.122707
H	-0.1577485321	 4.9695467615	 1.4451442213	 0.138396
H	-0.1349031975	 3.260383172	 2.1016407504	 0.140937
H	 1.2610384314	 4.2835399115	-0.5056509226	 0.129028
115.3856	199.9006	318.5443	409.9004	457.7033	522.2414	553.4986	627.9422	685.9064	722.9512	801.8921	823.8169	845.1356	948.9051	991.6382	997.4774	1058.4578	1089.6063	1120.5991	1142.9318	1190.5781	1277.551	1316.6693	1370.6262	1412.0761	1479.5179	1845.3504	1858.9802	3136.4537	3182.0679	3210.9076	3230.7957	3617.9285
O=C1NC2CC2C1=O	O=C1N[C@H]2C[C@H]2C1=O	
InChI=1S/C5H5NO2/c7-4-2-1-3(2)6-5(4)8/h2-3H,1H2,(H,6,8)	InChI=1S/C5H5NO2/c7-4-2-1-3(2)6-5(4)8/h2-3H,1H2,(H,6,8)/t2-,3+/m1/s1
