20
gdb 119347	3.99042	0.98133	0.93932	1.8542	78.64	-0.2328	0.0779	0.3106	1324.5159	0.171644	-403.075945	-403.067545	-403.0666	-403.109548	31.852	
O	-0.1271852686	 1.4711636755	 0.2195990102	-0.418574
C	-0.0230756598	 0.0565950963	 0.2605269782	-0.075229
C	-1.3728156938	-0.5157309038	-0.1656618728	-0.348889
C	-1.3934316741	-2.0062352988	-0.2065430058	 0.374522
C	-2.4610764811	-3.0240299347	-0.0565547103	-0.09727
C	-1.9569472861	-3.8333327522	-1.2481906149	-0.240856
C	-0.5956147308	-3.1310730919	-1.0016552379	-0.127831
C	-0.2114411416	-3.6521423818	 0.390148962	-0.148569
N	-1.3703577194	-2.9092814843	 0.9852062325	-0.188595
H	 0.6977048912	 1.8435987159	 0.5438888658	 0.286191
H	 0.7666869776	-0.3048763251	-0.4187362829	 0.083842
H	 0.219594026	-0.302883157	 1.2718641407	 0.103538
H	-2.1394713668	-0.1696917607	 0.5369728038	 0.120638
H	-1.6330285915	-0.1069498753	-1.1501055697	 0.111562
H	-3.4729197253	-2.9040623556	 0.3088483374	 0.096745
H	-1.977690354	-4.9278917904	-1.2013990333	 0.093459
H	-2.4325482358	-3.4935452144	-2.1719551775	 0.106081
H	 0.1253782749	-3.0036239022	-1.8074526064	 0.071762
H	-0.213458322	-4.7366491714	 0.5549063319	 0.093446
H	 0.7126394312	-3.221354448	 0.784706919	 0.104026
70.2732	92.4752	112.2504	254.6672	272.1684	321.2782	342.12	446.0525	494.6758	678.2861	701.8711	750.7179	788.7054	835.0573	847.4548	924.4028	943.3257	966.1505	977.3928	991.3732	1016.1331	1037.9475	1066.7317	1084.8542	1092.0474	1123.2622	1146.3886	1165.6365	1191.904	1221.9766	1231.1494	1246.96	1254.7495	1282.1615	1303.9101	1318.9998	1331.9211	1443.8288	1461.996	1473.6957	1491.2876	1513.7978	1529.5755	2963.7052	3003.1726	3026.751	3031.2531	3039.4176	3077.8995	3096.0283	3102.2178	3128.3282	3199.6849	3832.8775
OCCC12C3CC1CN23	OCC[C@@]12[C@H]3C[C@@H]1CN23	
InChI=1S/C7H11NO/c9-2-1-7-5-3-6(7)8(7)4-5/h5-6,9H,1-4H2	InChI=1S/C7H11NO/c9-2-1-7-5-3-6(7)8(7)4-5/h5-6,9H,1-4H2/t5-,6-,7+,8?/m1/s1
