17
gdb 71037	3.93291	1.62731	1.36422	2.2963	71.57	-0.24	0.075	0.315	932.8145	0.137167	-421.727606	-421.721029	-421.720084	-421.758081	27.652	
O	 0.0126682459	 1.3585536228	 0.0084407958	-0.46682
C	 0.0334733633	-0.0216244784	 0.0461751586	 0.353668
C	 0.6540133	-0.9548304032	 1.1519265492	-0.415541
C	-0.041329804	-1.8878478655	 0.1437028474	 0.269079
C	-0.4857430294	-3.2287521188	-0.3890012355	-0.185275
O	-1.1921359344	-2.7670660458	-1.5713097705	-0.297451
C	-1.0562199091	-1.3250760603	-1.5452781376	 0.092356
C	-1.2375984911	-0.8881614335	-0.0851799533	-0.122593
C	 0.3811871565	-1.0220160497	-1.1003515841	-0.161961
H	 0.9185501831	 1.6780393639	-0.0650132131	 0.284364
H	 1.7462230338	-1.0105611458	 1.2049437489	 0.095752
H	 0.2152502545	-0.8887982989	 2.1517704169	 0.106072
H	 0.3335545669	-3.8944443989	-0.6827816853	 0.106147
H	-1.1759755053	-3.7704765898	 0.2672979566	 0.107422
H	-1.5679182217	-0.9138339491	-2.413461913	 0.084266
H	-2.1333840796	-0.8523540306	 0.5349148035	 0.078539
H	 1.3238333306	-1.1400928984	-1.6367266245	 0.071976
235.0328	266.6922	298.6262	333.1145	388.7436	481.5145	496.7685	590.1317	720.8062	731.7525	736.4559	828.8808	872.1988	877.1067	913.3361	926.314	948.6375	999.0241	1010.4677	1017.081	1025.7338	1078.5494	1101.7131	1122.5064	1136.3176	1173.7818	1176.7394	1189.0445	1209.3735	1228.7618	1252.1178	1308.2633	1318.55	1360.7436	1402.0374	1509.8039	1524.7597	3028.7465	3041.304	3070.6834	3104.9202	3105.8252	3117.2716	3142.9458	3805.9903
OC12CC34COC(C13)C24	O[C@@]12C[C@@]34CO[C@@H]([C@H]13)[C@@H]24	
InChI=1S/C7H8O2/c8-7-1-6-2-9-3(4(6)7)5(6)7/h3-5,8H,1-2H2	InChI=1S/C7H8O2/c8-7-1-6-2-9-3(4(6)7)5(6)7/h3-5,8H,1-2H2/t3-,4-,5+,6+,7-
