23
gdb 89505	2.45169	1.52042	1.14944	0.3917	92.2	-0.2193	0.0249	0.2443	1199.5557	0.206267	-351.153	-351.144104	-351.14316	-351.185931	35.437	
C	 0.0556849791	 1.6024794343	 0.1655044354	-0.40711
C	-0.0026337863	 0.0869524618	 0.0472686974	-0.066295
C	 1.0007454844	-0.6615286351	-0.9176438967	-0.304187
C	 1.1711313867	-1.7876376261	 0.1698687741	 0.313235
C	 0.2862706809	-3.0061004045	-0.1107051763	-0.457034
C	 2.5270509362	-2.1564521907	 0.819493754	-0.293598
C	 2.3156845697	-1.8181344123	 2.331810373	-0.240139
C	 1.2628889073	-0.7111823449	 2.2935295919	-0.24078
C	 0.6143934972	-0.7661812873	 1.13476182	 0.27099
H	 1.0730101306	 1.9338861969	 0.3982705768	 0.11537
H	-0.2550958363	 2.0829358338	-0.7686365475	 0.113585
H	-0.6050394213	 1.9635555659	 0.9611149348	 0.117516
H	-1.0257887893	-0.2313595274	-0.1871156902	 0.081813
H	 0.6087042509	-0.9662537859	-1.8926502974	 0.091089
H	 1.9170991533	-0.0806375524	-1.0569297625	 0.098493
H	 0.6987163941	-3.6002724952	-0.9346348389	 0.111491
H	 0.2163366868	-3.6552356384	 0.7688690614	 0.115464
H	-0.7318699021	-2.7144584881	-0.3896080902	 0.110545
H	 2.8235896961	-3.1974863469	 0.6546365046	 0.087329
H	 3.3238961563	-1.5193596056	 0.4198898292	 0.095312
H	 1.9796191301	-2.696290294	 2.9014551687	 0.101885
H	 3.242702021	-1.4824438199	 2.8094995536	 0.098406
H	 1.1620109743	 0.037184562	 3.0715931148	 0.086619
116.2939	141.6479	217.6242	235.3238	249.7087	254.3943	322.9068	335.8283	400.8037	505.0882	582.2047	629.0988	666.9294	735.0986	804.5589	836.1351	858.5729	872.3064	900.1839	910.3663	931.4412	964.6411	971.9693	1001.5122	1028.4594	1076.3802	1105.3787	1121.6579	1154.9428	1179.1205	1205.6525	1212.7445	1234.9404	1256.0063	1259.0433	1305.028	1308.9732	1332.6644	1361.4794	1406.5997	1409.1627	1472.5415	1480.6008	1492.3296	1493.2439	1495.5553	1497.1518	1498.5601	1727.873	3003.8883	3021.6052	3026.5155	3028.5267	3034.783	3044.1247	3059.9374	3083.2829	3087.4806	3094.5881	3095.503	3101.2106	3107.4122	3191.3179
CC1CC2(C)CCC=C12	C[C@H]1C[C@@]2(C)CC[CH][C]12	
InChI=1S/C9H14/c1-7-6-9(2)5-3-4-8(7)9/h4,7H,3,5-6H2,1-2H3	InChI=1S/C9H14/c1-7-6-9(2)5-3-4-8(7)9/h4,7H,3,5-6H2,1-2H3/t7-,9+/m0/s1
