16
gdb 94345	2.96979	1.30806	1.07253	4.6177	70.27	-0.2741	-0.0098	0.2643	1124.3164	0.123116	-437.857385	-437.849022	-437.848078	-437.890585	30.933	
O	 0.5297280511	 0.7254594878	-0.6626608568	-0.426072
C	 0.2291950832	-0.3252035509	 0.1983577572	 0.089908
C	-0.0067909738	-0.0745739333	 1.7274583577	-0.261888
C	-1.231580165	-1.0412737914	 1.6736270238	-0.317
C	-1.2017260191	-0.8801470303	 0.1566670765	 0.385027
O	-2.1827167088	-0.0871390659	-0.5092538291	-0.270595
C	-1.9992089688	-1.448140068	-0.942208328	-0.223754
C	-1.4300390825	-1.6399380608	-2.2580330505	 0.313841
N	-0.987063809	-1.8290583793	-3.3084851744	-0.323935
H	-0.2990154565	 1.181808071	-0.858312655	 0.294806
H	 0.9731299437	-1.1134223502	 0.042047796	 0.109229
H	 0.8099107055	-0.331822739	 2.4029028571	 0.113885
H	-0.3141394329	 0.958929044	 1.9040366481	 0.119332
H	-0.98892938	-2.0594032717	 1.9883435872	 0.123929
H	-2.1522959245	-0.7202839703	 2.1631810103	 0.129584
H	-2.8302981126	-2.1113331817	-0.7101522001	 0.143703
87.834	99.5358	166.2037	203.6377	276.5692	349.1195	376.5139	406.0115	460.2987	557.1196	595.0537	645.9469	718.0515	755.2954	828.5192	908.8254	928.315	953.4864	1007.9253	1036.6161	1065.3698	1090.262	1139.1631	1163.7828	1204.9482	1216.5006	1257.914	1268.3998	1326.3523	1339.4646	1434.8873	1453.1029	1468.2558	1497.704	2362.5029	3061.0555	3073.8992	3076.8164	3129.4478	3136.9259	3143.566	3770.6039
OC1CCC11OC1C#N	O[C@H]1CC[C@]21O[C@H]2C#N	
InChI=1S/C6H7NO2/c7-3-5-6(9-5)2-1-4(6)8/h4-5,8H,1-2H2	InChI=1S/C6H7NO2/c7-3-5-6(9-5)2-1-4(6)8/h4-5,8H,1-2H2/t4-,5-,6+/m0/s1
