22
gdb 120610	4.01596	0.72692	0.70229	3.1644	85.34	-0.2366	-0.0204	0.2162	1720.3955	0.191083	-404.339356	-404.328721	-404.327776	-404.375673	37.888	
C	 0.1288541647	 1.5529173848	-0.0061717086	-0.383225
C	-0.0170846768	 0.0377184021	 0.1528687326	-0.166787
C	-1.4157515315	-0.4585515371	-0.2191354045	-0.120936
N	-1.4823218256	-1.9127118707	-0.0965072669	-0.113706
C	-1.9438454927	-2.4851477488	 1.1462855614	-0.286552
C	-2.7950463024	-2.5883291078	-0.0943525026	 0.202579
C	-4.1153425864	-1.8562224588	-0.192139523	-0.473802
C	-2.729699188	-3.8941573558	-0.8242870006	 0.142815
O	-3.6760490492	-4.4407133657	-1.332939937	-0.264536
H	 1.1345077428	 1.8831454358	 0.2698961764	 0.117673
H	-0.049894437	 1.8634197497	-1.041600011	 0.117445
H	-0.5833329868	 2.0927174726	 0.6280046511	 0.114806
H	 0.7157433987	-0.484731803	-0.4717694774	 0.111021
H	 0.1983028727	-0.2512356671	 1.1893336692	 0.099585
H	-2.1636855892	 0.0575620726	 0.4052767188	 0.085722
H	-1.6349814086	-0.2005777638	-1.2623402824	 0.107301
H	-1.3913902659	-3.3432847363	 1.5227891096	 0.119994
H	-2.3297661529	-1.8175450695	 1.9171307601	 0.116038
H	-4.1685517409	-1.003707225	 0.4868329906	 0.118441
H	-4.2912501962	-1.5018570387	-1.2128766682	 0.13287
H	-4.9270555329	-2.546033277	 0.0521150175	 0.144748
H	-1.705130276	-4.3261739122	-0.859516055	 0.078504
55.4904	84.7284	101.5324	109.4898	147.4347	237.2808	241.7653	259.9367	299.7824	321.2982	399.8996	439.1395	461.2244	602.253	747.3263	759.4695	782.8101	879.7323	896.0555	907.4355	939.6082	994.3211	1024.0272	1048.1435	1080.1827	1098.3911	1121.0781	1127.533	1166.4015	1199.6779	1277.5898	1309.118	1324.3523	1333.8726	1347.9565	1397.4122	1412.8566	1417.4338	1424.2614	1482.155	1486.2723	1493.343	1496.2418	1501.348	1506.3064	1515.5939	1822.1029	2895.1987	2962.4753	3028.8049	3031.6398	3048.6015	3050.5502	3071.6912	3079.1686	3099.2767	3107.2837	3114.9985	3138.8819	3165.4748
CCCN1CC1(C)C=O	CCCN1C[C@]1(C)C=O	
InChI=1S/C7H13NO/c1-3-4-8-5-7(8,2)6-9/h6H,3-5H2,1-2H3	InChI=1S/C7H13NO/c1-3-4-8-5-7(8,2)6-9/h6H,3-5H2,1-2H3/t7-,8?/m1/s1
