17
gdb 124743	2.52773	1.49313	0.9752	3.2626	71.3	-0.2584	-0.0343	0.2241	1181.3238	0.134002	-455.131613	-455.122513	-455.121569	-455.166231	32.774	
C	 0.951699247	 1.146313457	-0.7270320521	-0.403725
C	-0.0908631147	 0.4969720365	 0.1865340012	 0.011187
O	-0.890864033	-0.4507779034	-0.5063776645	-0.408234
C	 0.5253205667	-0.1146437598	 1.4212183995	 0.313189
C	 0.222577811	-1.2001639041	 2.1943575129	 0.147618
C	-0.8626784898	-2.22166378	 2.1189131656	-0.50476
N	 1.1670058111	-1.2202965494	 3.2036463281	-0.160594
N	 1.9739551496	-0.2651795196	 3.098751688	-0.019188
O	 1.5975666353	 0.4907720271	 1.9441808924	-0.226568
H	 1.6801830785	 0.4044985134	-1.0731766084	 0.121163
H	 0.4482358864	 1.5768473674	-1.5956985651	 0.131776
H	 1.4995849332	 1.9321914656	-0.2023881636	 0.146755
H	-0.8021526497	 1.2673830438	 0.510882585	 0.12831
H	-0.2994362834	-1.103538902	-0.8990949092	 0.286206
H	-1.5088154188	-2.0230902731	 1.264351752	 0.152566
H	-0.4458477484	-3.2298111457	 2.0239997057	 0.139716
H	-1.4680994711	-2.2072725437	 3.0308516725	 0.144584
27.0768	130.0417	167.147	190.835	241.1065	278.0867	301.8363	330.4971	377.671	452.9972	484.433	632.3221	656.6273	697.3408	706.0564	753.7173	906.495	990.3102	1023.4667	1035.7186	1067.8737	1075.9558	1129.608	1201.1933	1217.4209	1291.5067	1333.6829	1373.1623	1406.5273	1414.6773	1418.4469	1469.0829	1489.8754	1490.8803	1493.8375	1495.4194	1640.0285	3031.6094	3042.7126	3044.5556	3096.4872	3116.8308	3140.9407	3160.3034	3793.8582
CC(O)C1=C(C)N=NO1	C[C@@H](O)c1c(C)nno1	
InChI=1S/C5H8N2O2/c1-3-5(4(2)8)9-7-6-3/h4,8H,1-2H3	InChI=1S/C5H8N2O2/c1-3-5(4(2)8)9-7-6-3/h4,8H,1-2H3/t4-/m1/s1
