23
gdb 80860	2.15123	1.65961	1.36114	1.1667	85.07	-0.2563	0.0809	0.3372	1113.2711	0.206342	-388.289907	-388.280863	-388.279919	-388.322693	36.231	
C	-0.1757988617	 1.5249332622	-0.029262381	-0.440184
C	-0.0041216844	 0.0111184623	-0.0117381143	 0.018443
C	 1.1345390709	-0.5953977454	-0.8912606389	-0.026174
C	 2.1065701062	-0.2900184124	 0.2833086559	-0.288801
C	 0.8520440111	-0.6095986941	 1.1537823728	 0.35127
C	 0.7169477905	-0.1807945445	 2.5961530582	-0.513499
C	 0.6859665527	-2.1136165605	 0.8570364115	 0.096676
O	-0.6051156114	-2.5366096678	 1.2701912482	-0.444909
C	 0.9035179737	-2.1046017057	-0.695445209	-0.26797
H	 0.7653266952	 2.0699833714	 0.0877258003	 0.113083
H	-0.6241763031	 1.8466979279	-0.9758695818	 0.112312
H	-0.8458815674	 1.8483491835	 0.7748803972	 0.117163
H	-0.9826142218	-0.4626355733	-0.1386962667	 0.071852
H	 1.3250449587	-0.241377944	-1.9058110979	 0.052255
H	 2.9849835692	-0.9345600667	 0.3989596154	 0.081802
H	 2.4150244338	 0.7537568969	 0.3473684861	 0.097633
H	 0.7916785811	 0.9063397015	 2.7022348144	 0.109562
H	-0.2470925043	-0.5000308908	 3.0041933061	 0.132001
H	 1.5043765606	-0.6296947626	 3.213636741	 0.108879
H	 1.4573662703	-2.7015087222	 1.3767803211	 0.05647
H	-0.7084004288	-3.4624125827	 1.0309400336	 0.281275
H	 0.0106843922	-2.4693383446	-1.2131180483	 0.091706
H	 1.7601157266	-2.7099646984	-1.0080444339	 0.089154
154.7113	196.7468	203.9163	215.1522	235.3431	252.3959	278.2244	348.1388	410.4289	454.9354	489.1821	555.4504	609.9533	676.475	775.2209	824.3301	841.7321	864.1311	903.0314	932.1674	960.5174	975.3821	1016.6641	1042.3009	1053.5696	1073.2801	1095.1542	1100.8735	1142.1051	1178.9502	1183.7709	1196.8739	1245.4245	1247.1804	1262.1091	1274.7242	1290.2858	1309.5231	1353.0729	1398.6844	1411.5798	1414.5417	1424.3121	1484.4935	1490.1597	1494.8515	1500.3826	1501.0038	1519.0466	2980.3474	3026.0488	3030.9239	3042.0679	3045.2931	3055.4793	3086.3898	3089.2523	3091.5552	3097.4327	3105.3212	3106.5817	3129.1397	3825.3978
CC1C2CC1(C)C(O)C2	C[C@H]1[C@H]2C[C@]1(C)[C@@H](O)C2	
InChI=1S/C8H14O/c1-5-6-3-7(9)8(5,2)4-6/h5-7,9H,3-4H2,1-2H3	InChI=1S/C8H14O/c1-5-6-3-7(9)8(5,2)4-6/h5-7,9H,3-4H2,1-2H3/t5-,6+,7-,8-/m0/s1
