16
gdb 45781	3.14673	1.45302	1.12616	2.3689	71.2	-0.2586	-0.028	0.2307	1063.4025	0.125196	-437.920473	-437.913128	-437.912184	-437.952522	28.377	
O	-0.031874518	-0.0686532861	-0.1745691074	-0.297957
C	-0.0696406846	 1.1001247292	 0.0622327324	 0.429921
C	-1.2951611668	 1.9851834016	 0.0677401787	-0.427229
C	-1.2030247548	 3.0437574723	 1.1533501143	 0.347406
C	-2.4078783384	 3.891171501	 1.4699355104	-0.311018
C	-1.9360666539	 2.8692656617	 2.4698270244	-0.300336
N	 0.0709839226	 3.6954442351	 1.2350353293	-0.276828
C	 1.0722284446	 3.0602081715	 0.8093730831	 0.112755
O	 1.1127803327	 1.7719234237	 0.3147531262	-0.214879
H	-1.3380543729	 2.473635218	-0.9164885884	 0.144833
H	-2.1779757725	 1.3508736431	 0.1600467867	 0.140204
H	-2.2131932441	 4.9350594121	 1.6845840755	 0.132968
H	-3.3232773952	 3.6945822504	 0.9222245939	 0.118548
H	-2.5171554315	 1.9626622543	 2.6004110967	 0.124684
H	-1.4326100178	 3.2229731968	 3.3611238344	 0.132777
H	 2.0742474707	 3.4773191852	 0.8258996698	 0.144151
87.4579	122.3945	277.725	311.4194	343.244	430.4456	460.9673	530.391	595.6165	616.6033	725.1701	776.5369	807.1656	845.7161	907.399	932.5204	946.4847	955.1025	997.6391	1021.1705	1059.1751	1084.054	1094.8536	1137.0272	1193.4271	1213.7261	1291.1078	1302.5269	1368.7692	1409.903	1454.117	1463.2495	1493.6074	1730.6121	1886.2915	3016.0739	3124.1231	3138.0742	3141.7014	3194.7528	3226.4885	3239.9488
O=C1CC2(CC2)N=CO1	O=C1CC2(CC2)N=CO1	
InChI=1S/C6H7NO2/c8-5-3-6(1-2-6)7-4-9-5/h4H,1-3H2	InChI=1S/C6H7NO2/c8-5-3-6(1-2-6)7-4-9-5/h4H,1-3H2
