17
gdb 26626	3.2215	1.25498	0.91338	6.4589	83.61	-0.2203	-0.0024	0.2178	1241.2329	0.13646	-380.945594	-380.936386	-380.935442	-380.980582	32.618	
C	-0.0597262712	 1.512649293	 0.1025245682	-0.506434
C	 0.0024946882	 0.0264793466	-0.0281677429	 0.246297
C	 0.0004740797	-0.796906924	-1.1316235551	 0.091111
C	-0.0679472105	-0.4098761548	-2.5763512626	-0.515273
C	 0.0786735179	-2.1474163079	-0.638307984	 0.104621
C	 0.1250814279	-2.0930957867	 0.7416844039	-0.179197
N	 0.0784948717	-0.7804988802	 1.0932573415	-0.301954
C	 0.1036721313	-3.3233203236	-1.4248739018	 0.196108
N	 0.1228136103	-4.2729888959	-2.0896145241	-0.363576
H	 0.8260364272	 1.9174773281	 0.607419566	 0.133157
H	-0.1162184711	 1.9792538547	-0.8824104259	 0.145693
H	-0.939740175	 1.8378952556	 0.6710022346	 0.133135
H	 0.8100093429	-0.7648802983	-3.1273394473	 0.141686
H	-0.9462217778	-0.8453055949	-3.0656793586	 0.141704
H	-0.1219612416	 0.6744500752	-2.7009369133	 0.120395
H	 0.1864808116	-2.8826451631	 1.4719337693	 0.145612
H	 0.0966353085	-0.4404208537	 2.0396399821	 0.266915
31.724	89.6327	118.6956	133.5215	245.0496	276.1074	278.9472	381.6015	493.2009	506.6173	544.2609	579.5075	642.6205	689.3277	695.4064	730.6696	763.135	945.4711	979.6527	1056.4076	1068.7887	1111.642	1125.5516	1211.2057	1244.6115	1340.1458	1396.4891	1421.8888	1428.8996	1471.9819	1478.9489	1483.1049	1492.0255	1501.0759	1555.2191	1640.5899	2337.8968	3021.3786	3034.1409	3066.4876	3083.8852	3117.1566	3134.1103	3277.7592	3672.4472
CC1=C(C)C(=CN1)C#N	Cc1c(C)c(c[nH]1)C#N	
InChI=1S/C7H8N2/c1-5-6(2)9-4-7(5)3-8/h4,9H,1-2H3	InChI=1S/C7H8N2/c1-5-6(2)9-4-7(5)3-8/h4,9H,1-2H3
