16
gdb 22642	3.59542	0.99454	0.78657	0.9932	92.22	-0.2165	-0.0542	0.1623	1379.4487	0.123383	-400.701141	-400.692532	-400.691588	-400.734968	31.944	
O	-0.0664954786	 1.3390214311	 0.008506827	-0.393694
N	 0.0448588012	-0.0616472992	 0.0042338348	-0.248524
C	-1.1057420598	-0.6243474806	 0.0113207795	 0.399056
C	-1.2504466258	-2.1386235342	 0.008617962	-0.306184
C	-2.7811305931	-2.3821304025	 0.0189372967	-0.333197
C	-3.3843279157	-0.9855294822	 0.0269711148	 0.178915
C	-2.4315740498	-0.0275416755	 0.0224862959	-0.260198
C	-4.7809221358	-0.7822753944	 0.0375731584	 0.211016
C	-5.9802086364	-0.6576348373	 0.0467260887	-0.394443
H	 0.8558585956	 1.614907661	 0.0024086748	 0.306981
H	-0.7732277324	-2.5722531467	-0.8741568747	 0.130678
H	-0.7607684488	-2.5765042404	 0.8824300168	 0.130679
H	-3.1239212431	-2.9438437582	-0.8567005007	 0.126347
H	-3.1113751082	-2.9485664347	 0.8963443708	 0.126342
H	-2.6066184473	 1.0379057051	 0.026451461	 0.12779
H	-7.0344077619	-0.5304540913	 0.0541738143	 0.198436
49.7972	121.0834	127.8578	244.4208	254.291	306.5779	401.2607	486.0741	518.8725	539.7653	546.7422	600.3301	615.8143	637.5267	699.9087	822.9394	871.0914	902.8451	925.3659	967.0551	1005.2948	1026.4367	1153.3339	1165.2517	1225.1004	1236.6452	1271.3285	1309.7923	1331.7961	1402.8694	1471.9684	1492.8735	1630.1202	1711.7428	2215.8814	3043.7287	3067.1017	3071.8512	3105.5277	3253.9825	3503.0989	3823.6573
ON=C1CCC(=C1)C#C	ON=C1CCC(=C1)C#C	
InChI=1S/C7H7NO/c1-2-6-3-4-7(5-6)8-9/h1,5,9H,3-4H2	InChI=1S/C7H7NO/c1-2-6-3-4-7(5-6)8-9/h1,5,9H,3-4H2
