15
gdb 76006	2.67375	1.20293	1.08394	2.4576	71.9	-0.2973	-0.0181	0.2791	1143.75	0.110884	-416.817796	-416.808549	-416.807604	-416.851797	32.676	
C	-0.0341826713	 1.5473693147	-0.0622795521	-0.457178
C	 0.0305838183	 0.029692081	-0.0239527491	 0.087857
C	-1.143584146	-0.6510982965	-0.5150190159	 0.256778
N	-2.0829766049	-1.1973994094	-0.9104188087	-0.329125
C	 1.3495275988	-0.6794020532	-0.2445434731	 0.084137
O	 2.4305822211	 0.1360224867	-0.5109166624	-0.402542
C	 0.7356645851	-0.6914615351	 1.1516613963	-0.288967
C	 1.3488598379	 0.0867438405	 2.186688256	 0.309859
N	 1.8678757591	 0.6994351154	 3.0193640163	-0.328647
H	 0.9082782545	 1.976183323	 0.2760844863	 0.165053
H	-0.2208753502	 1.8836706274	-1.0852569541	 0.149304
H	-0.8432426965	 1.9098776719	 0.5764546198	 0.149183
H	 1.3180399679	-1.6272859584	-0.7792954069	 0.132791
H	 3.2014640423	-0.1905933098	-0.0323232024	 0.31137
H	 0.2881850739	-1.6215404981	 1.4843511401	 0.160127
101.9578	123.9821	151.6068	156.7411	181.502	241.5201	255.8429	334.2195	387.7163	466.9059	499.2325	563.0298	591.3041	648.3602	694.9582	825.8075	855.1677	959.6301	989.3801	1053.0695	1098.8916	1119.4539	1167.5703	1243.4896	1265.1194	1315.3091	1365.773	1412.7575	1443.8906	1484.9728	1498.0288	2354.3248	2357.3817	3061.8952	3124.4484	3130.9217	3166.4619	3180.6663	3799.2011
CC1(C#N)C(O)C1C#N	C[C@@]1(C#N)[C@@H](O)[C@H]1C#N	
InChI=1S/C6H6N2O/c1-6(3-8)4(2-7)5(6)9/h4-5,9H,1H3	InChI=1S/C6H6N2O/c1-6(3-8)4(2-7)5(6)9/h4-5,9H,1H3/t4-,5+,6+/m1/s1
