17
gdb 64998	3.68249	1.04345	0.87356	4.4845	73.69	-0.2364	-0.0142	0.2222	1315.299	0.135303	-455.155973	-455.146928	-455.145984	-455.190238	33.103	
O	 0.1313467055	 1.3582540212	-0.0588096052	-0.469785
C	-0.0003293508	-0.0407310817	 0.0345584247	 0.267465
C	-0.6692524257	-0.637592086	 1.2493094831	-0.306792
C	-1.4051564446	-0.5888291737	-0.0602347692	-0.271565
C	 1.0818949669	-0.8657521978	-0.6294732276	 0.36782
O	 1.1182667183	-2.0702639368	-0.531502576	-0.340418
N	 1.967542048	-0.0809504408	-1.352462314	-0.342698
C	 3.0663990659	-0.4649728692	-2.1133843546	 0.08446
N	 3.4986729548	-1.6525652597	-2.204808283	-0.398433
H	 0.6216078931	 1.6623347464	 0.7133617453	 0.291906
H	-0.2887361789	-1.594795156	 1.5843678794	 0.1501
H	-0.9705673342	 0.0600265522	 2.0232405163	 0.11551
H	-2.1871360429	 0.1520757527	-0.1764303825	 0.128005
H	-1.5315979802	-1.514965672	-0.6073879307	 0.145261
H	 1.726160429	 0.8998234259	-1.3575813821	 0.258882
H	 3.5027032477	 0.4096107478	-2.613984364	 0.092461
H	 4.3116508181	-1.6714714823	-2.8189526298	 0.227822
58.306	82.7066	159.7421	174.7247	271.8829	274.2118	311.0851	371.2924	412.5006	452.9843	513.0063	623.2301	709.8005	753.368	781.4114	830.5236	854.0195	910.8844	929.7274	946.5647	993.4564	1049.5197	1066.15	1069.8626	1090.5454	1166.9905	1203.7552	1260.7238	1270.9462	1319.4878	1346.6126	1431.5969	1437.4416	1474.6644	1544.0961	1732.0251	1816.815	3024.5754	3139.3011	3148.3755	3236.2891	3250.8657	3495.6319	3604.6106	3794.9996
OC1(CC1)C(=O)NC=N	OC1(CC1)C(=O)NC=N	
InChI=1S/C5H8N2O2/c6-3-7-4(8)5(9)1-2-5/h3,9H,1-2H2,(H2,6,7,8)	InChI=1S/C5H8N2O2/c6-3-7-4(8)5(9)1-2-5/h3,9H,1-2H2,(H2,6,7,8)
