19
gdb 70855	3.35147	1.71062	1.37989	0.9554	77.54	-0.2268	0.0863	0.3131	992.7058	0.159092	-385.848377	-385.840868	-385.839924	-385.879703	30.89	
C	-0.1275777906	 1.4171636495	 0.0634098143	-0.49427
C	-0.0160848187	-0.0753530101	 0.017437256	 0.433829
O	-1.151966741	-0.7407978697	-0.468561479	-0.302026
C	-0.7656255241	-2.0880080161	-0.3978211215	 0.433829
C	-1.7979948764	-3.0682369466	-0.8620571457	-0.49427
C	 0.1686697635	-2.325834553	 0.7782322218	-0.170786
C	 0.6962277361	-0.9103530469	 1.0700416126	-0.170767
C	 1.2543530857	-0.8249702071	-0.3522869179	-0.1708
C	 0.7272874373	-2.2406577529	-0.6439156467	-0.17078
H	 0.7964154386	 1.8545797236	 0.4513942211	 0.123025
H	-0.3065792436	 1.8249506541	-0.9363825992	 0.12976
H	-0.9524059244	 1.7260223867	 0.7131712293	 0.129746
H	-2.0620518223	-2.8887209781	-1.9089416849	 0.129769
H	-1.4172367718	-4.0895538889	-0.7750906149	 0.123025
H	-2.7083974296	-2.9892410536	-0.2596874325	 0.129737
H	 0.1048559545	-3.1612715981	 1.4621073109	 0.085244
H	 1.0856685285	-0.529904019	 2.0045494958	 0.085245
H	 2.1582218361	-0.3657564494	-0.7289239989	 0.085243
H	 1.178425282	-2.9975951045	-1.2709961405	 0.085244
198.8364	199.9036	225.6877	241.1085	278.5262	346.0418	582.8467	586.8682	587.2065	620.1825	733.3411	763.7288	784.9367	792.0445	819.071	856.475	873.4771	905.6834	914.0767	936.9506	966.6637	988.6937	1016.0031	1030.1933	1091.3768	1105.4052	1114.6523	1149.1075	1157.9399	1193.9121	1252.9598	1254.6318	1301.8064	1392.9871	1399.609	1421.4211	1442.5824	1479.1463	1479.422	1501.5327	1502.9646	3039.4785	3039.9066	3105.2607	3105.4432	3118.6303	3118.8372	3193.7476	3203.7591	3204.0575	3214.1925
CC12OC3(C)C4C1C2C34	C[C@]12O[C@]3(C)[C@@H]4[C@H]1[C@H]2[C@H]34	
InChI=1S/C8H10O/c1-7-3-4(7)6-5(3)8(6,2)9-7/h3-6H,1-2H3	InChI=1S/C8H10O/c1-7-3-4(7)6-5(3)8(6,2)9-7/h3-6H,1-2H3/t3-,4+,5-,6+,7+,8-
