17
gdb 35197	3.40042	1.20094	1.10152	5.7676	77.89	-0.2411	0.033	0.274	1135.1217	0.136958	-380.820533	-380.812868	-380.811923	-380.852901	29.645	
N	-0.0297721814	-1.094526616	-0.1246038085	-0.345505
C	-0.0191221899	 0.0616513822	-0.0705843491	 0.294454
C	 0.0131437514	 1.4940730973	-0.0010788879	-0.232087
C	 0.5317214687	 2.1665165761	 1.269544951	-0.363597
C	 1.3536814364	 2.2026936828	 0.0294689384	 0.400966
C	 2.7648999287	 1.6013309053	-0.1766028369	-0.313067
C	 3.1095220485	 2.8682262809	-0.9773877317	-0.035064
N	 2.1571327265	 2.9229980789	-2.1105855235	-0.327965
C	 1.7415762748	 3.4257157688	-0.7751173195	-0.160575
H	-0.7920364935	 1.9886631275	-0.5341148129	 0.132849
H	 0.0163624869	 3.0685681442	 1.5827684555	 0.127926
H	 0.8477987377	 1.5181565789	 2.0794052006	 0.139721
H	 3.3205626884	 1.5167001035	 0.7603215004	 0.1136
H	 2.8187461097	 0.662835285	-0.7324637929	 0.134275
H	 4.0626062168	 3.3789689252	-1.0216504187	 0.102844
H	 2.404510747	 3.7398307087	-2.6699113487	 0.231982
H	 1.4062432334	 4.4458490708	-0.6322310855	 0.099243
90.6061	121.1368	178.9691	287.0397	321.908	400.6889	476.5243	519.4721	553.9513	623.7423	762.4961	808.6058	815.8177	834.6734	874.7393	889.4638	923.6836	955.605	963.9105	994.2853	1040.5004	1060.6771	1080.9329	1106.4579	1113.3025	1123.6632	1158.1324	1197.4194	1233.4479	1292.5839	1306.6284	1323.8342	1370.4787	1423.5582	1472.8867	1487.606	2349.8623	3068.5541	3128.0551	3132.6476	3168.7172	3186.2125	3203.6674	3223.2298	3467.1134
N#CC1CC11CC2NC12	N#C[C@H]1C[C@]21C[C@H]1N[C@@H]21	
InChI=1S/C7H8N2/c8-3-4-1-7(4)2-5-6(7)9-5/h4-6,9H,1-2H2	InChI=1S/C7H8N2/c8-3-4-1-7(4)2-5-6(7)9-5/h4-6,9H,1-2H2/t4-,5-,6-,7-/m1/s1
