15
gdb 25943	2.90303	1.64738	1.05098	4.2574	69.49	-0.1948	0.0154	0.2102	1055.5494	0.114407	-450.200263	-450.19225	-450.191306	-450.232819	30.437	
N	 0.8924139792	-0.0190772991	-0.4907412928	-0.568563
C	-0.1758902708	 0.3119668061	 0.2590955907	 0.486683
O	-0.3023187276	 1.3065636372	 0.9446655444	-0.402331
N	-1.2352662018	-0.6429603374	 0.2006183027	-0.168048
C	-2.4255624627	-0.4574894752	 0.9203294455	-0.066363
C	-3.2236838345	-1.5052962366	 0.6719125477	-0.118269
N	-2.5397703072	-2.3553086118	-0.2052212297	-0.373408
C	-1.2952564759	-1.8440930455	-0.5178908097	 0.50706
N	-0.3575596326	-2.2965230404	-1.2757685406	-0.643686
H	 1.6686718507	 0.618392392	-0.4845721574	 0.262003
H	 0.8822925933	-0.8878353033	-1.0262183904	 0.293771
H	-2.5449444862	 0.4199571149	 1.5280197152	 0.170955
H	-4.2117298913	-1.735169988	 1.0301309572	 0.146139
H	-2.8830825053	-3.2240825488	-0.5721351807	 0.2635
H	-0.6051065373	-3.1830884941	-1.7024993219	 0.210557
88.3037	129.617	186.5671	270.28	321.6235	367.8623	410.7127	444.7805	585.5694	591.7945	646.9027	652.5941	679.4339	702.4013	749.6205	774.4354	777.5073	821.2533	909.566	1042.0689	1076.9512	1114.9721	1153.0376	1203.4305	1249.8587	1300.1776	1366.7211	1387.1718	1447.5996	1609.3764	1656.3371	1726.5978	1823.1474	3290.7371	3328.6819	3374.1447	3545.6933	3700.4636	3710.8611
NC(=O)N1C=CNC1=N	NC(=O)N1C=CN[C@H]1[NH]	
InChI=1S/C4H6N4O/c5-3-7-1-2-8(3)4(6)9/h1-2H,(H2,5,7)(H2,6,9)	InChI=1S/C4H7N4O/c5-3-7-1-2-8(3)4(6)9/h1-3,5,7H,(H2,6,9)/t3-/m1/s1
