22
gdb 99844	2.05055	1.37707	1.0306	4.6703	82.12	-0.2493	0.0361	0.2854	1283.9637	0.193391	-400.534421	-400.52338	-400.522436	-400.569933	40.699	
C	 0.1114139301	 1.57298789	 0.0709538097	-0.425793
C	-0.0101976052	 0.0409961202	 0.0482880686	 0.018389
C	 0.8183848022	-0.5769858437	 1.1837275424	-0.403685
C	-1.4933017961	-0.4503779417	 0.0788163626	 0.094105
N	-2.1450131794	-0.0904688044	 1.3431774734	-0.527524
C	-2.2922632406	 0.0413447276	-1.1669533457	-0.195996
N	-3.6542658367	-0.4866948853	-1.1196775078	-0.520564
C	-1.4858904242	-1.9307858001	-0.0094367545	 0.325065
N	-1.5057206097	-3.0785762338	-0.1455884865	-0.367606
H	 1.1659240754	 1.8525408331	-0.0126457715	 0.125487
H	-0.4185601806	 2.0573468323	-0.7533250497	 0.119446
H	-0.252809684	 1.9986988535	 1.0124947978	 0.121915
H	 0.3998252747	-0.3106258613	-0.9070390008	 0.090085
H	 0.4227344136	-0.2798527563	 2.1585205846	 0.134371
H	 0.8101482144	-1.6690471187	 1.138231244	 0.140663
H	 1.8583220443	-0.2434160777	 1.1147405871	 0.108804
H	-2.0732049367	 0.9155578541	 1.4675102227	 0.227721
H	-3.1378403285	-0.2907894132	 1.2357598018	 0.247999
H	-2.354354004	 1.1319820552	-1.1130749763	 0.104954
H	-1.7339984992	-0.215857446	-2.081943917	 0.096659
H	-4.249617012	 0.0038831321	-1.7770674475	 0.236436
H	-3.6616068377	-1.4671471659	-1.3848752174	 0.249069
57.573	127.8026	156.3883	165.231	212.2718	224.6427	240.4299	254.226	287.511	298.4667	333.0202	356.0631	414.1943	448.0947	502.5674	578.1558	624.2448	703.3624	839.4329	868.1065	906.8157	932.5906	939.8735	965.8105	978.2445	1020.0332	1076.1354	1100.0041	1138.3098	1186.6287	1192.8106	1239.0638	1304.2113	1333.3386	1351.6974	1386.2115	1399.8619	1413.2721	1425.5204	1487.3326	1491.3034	1494.0468	1508.081	1513.3722	1657.3598	1658.2139	2349.3356	2966.594	3026.1637	3037.2698	3046.1083	3083.0764	3100.163	3115.511	3117.7638	3127.8601	3475.8794	3505.9591	3556.5448	3588.5115
CC(C)C(N)(CN)C#N	CC(C)[C@@](N)(CN)C#N	
InChI=1S/C6H13N3/c1-5(2)6(9,3-7)4-8/h5H,3,7,9H2,1-2H3	InChI=1S/C6H13N3/c1-5(2)6(9,3-7)4-8/h5H,3,7,9H2,1-2H3/t6-/m1/s1
