21
gdb 94686	2.45834	1.6577	1.18802	2.371	78.55	-0.2471	0.0819	0.329	1129.1254	0.180464	-424.234565	-424.225129	-424.224185	-424.268099	35.746	
C	 0.1895316583	 1.5508680991	-0.0448130242	-0.407328
C	 0.0242094286	 0.0400366241	 0.0224393161	 0.092024
O	 0.6717726693	-0.5327238766	-1.1149503983	-0.2738
C	 1.2173254384	-1.7981449095	-0.7794281054	-0.138254
C	 1.4276434269	-1.783046043	 0.7240155934	 0.322525
C	 1.7507380233	-3.0539451612	 1.4567033125	-0.492075
O	 2.1070605575	-0.5833443624	 1.1413683375	-0.331855
C	 0.6703915814	-0.6283584928	 1.2323517902	 0.309335
C	 0.055575558	-0.4817902726	 2.5952540228	-0.496955
H	 1.2471780202	 1.8098752348	 0.0480985599	 0.137777
H	-0.1812160518	 1.9265622585	-1.0019935271	 0.126238
H	-0.3726451748	 2.0410645014	 0.7564481507	 0.109998
H	-1.048496702	-0.2239713608	 0.0196632249	 0.062442
H	 0.5338086735	-2.6214716788	-1.048232026	 0.087375
H	 2.1492329692	-1.9256910571	-1.3417669509	 0.112212
H	 2.7182564797	-3.4493895878	 1.1284141243	 0.133149
H	 1.8087263436	-2.8834109205	 2.5338966681	 0.132613
H	 0.9923036747	-3.8196766167	 1.2625288398	 0.124502
H	 0.0846828424	 0.5638791719	 2.9201378079	 0.134394
H	-0.992130277	-0.8004572663	 2.5846006606	 0.124379
H	 0.5947885807	-1.0759477437	 3.3361622533	 0.131305
114.6461	162.0359	168.7627	195.4955	226.0708	238.9394	246.6314	305.0039	350.9775	430.2317	461.5761	536.7108	588.0423	642.0989	687.5805	774.8872	842.6614	890.1845	898.4935	954.7878	998.6843	1021.6958	1055.0436	1098.3925	1111.1136	1125.6364	1151.2934	1154.8714	1231.2392	1239.55	1255.11	1345.1111	1374.7101	1377.5341	1403.9522	1411.189	1417.1862	1465.4309	1476.0919	1484.264	1488.9849	1498.2603	1499.1997	1506.7791	1518.4801	2942.1478	2963.7927	3036.9777	3039.0348	3044.9741	3060.2453	3097.8487	3098.8445	3116.54	3125.6166	3129.9636	3132.7495
CC1OCC2(C)OC12C	C[C@H]1OC[C@@]2(C)O[C@@]12C	
InChI=1S/C7H12O2/c1-5-7(3)6(2,9-7)4-8-5/h5H,4H2,1-3H3	InChI=1S/C7H12O2/c1-5-7(3)6(2,9-7)4-8-5/h5H,4H2,1-3H3/t5-,6-,7+/m1/s1
