17
gdb 124619	2.69321	1.36225	1.12872	2.3697	71.72	-0.2419	-0.039	0.2029	1138.1935	0.134806	-451.291565	-451.282763	-451.281819	-451.326083	31.831	
C	-0.061824232	 1.5039910292	-0.0390003516	-0.3907
C	-0.0229914223	-0.0264168391	-0.0538183343	 0.034186
C	-1.4146443286	-0.6597463116	 0.0236286717	-0.390701
N	 0.6976421086	-0.5112555677	-1.2346573803	-0.072405
N	 0.2803583301	-0.2873319701	-2.4898650954	-0.040466
N	 1.061695134	-0.7996094113	-3.3147653681	-0.001829
O	 2.1191609121	-1.4387658413	-2.5808354127	-0.245577
C	 1.8739485278	-1.246555101	-1.2520179794	 0.516385
N	 2.5296508578	-1.6261755307	-0.2395950653	-0.598178
H	 0.9477791162	 1.921713724	-0.0756225455	 0.133957
H	-0.6280666292	 1.8863143027	-0.8934531823	 0.139976
H	-0.545719748	 1.8533048226	 0.8772548151	 0.128364
H	 0.5935353296	-0.3878439781	 0.7742382435	 0.144625
H	-2.0279395221	-0.3546133197	-0.8293633786	 0.140018
H	-1.3484150394	-1.7509393913	 0.0319335971	 0.133941
H	-1.9173143308	-0.3385768662	 0.940071389	 0.128355
H	 3.3575827263	-2.1510280603	-0.5068297229	 0.24005
25.5065	99.6604	182.8626	223.0047	224.3497	258.9277	295.8145	412.1945	426.5547	532.7235	632.1329	656.2613	718.9637	741.7388	751.4955	780.3064	888.2942	939.5715	953.2367	998.3137	1040.041	1109.1872	1152.0839	1163.8531	1224.0686	1239.9327	1355.8438	1387.3291	1402.0034	1417.7244	1423.174	1484.7172	1488.1556	1499.5425	1510.7304	1528.6127	1779.6074	3044.6209	3047.9323	3083.8705	3119.9942	3124.4271	3126.7474	3128.6163	3548.2624
CC(C)N1N=NOC1=N	CC(C)N1N=NO[C@H]1[NH]	
InChI=1S/C4H8N4O/c1-3(2)8-4(5)9-7-6-8/h3,5H,1-2H3	InChI=1S/C4H9N4O/c1-3(2)8-4(5)9-7-6-8/h3-5H,1-2H3/t4-/m0/s1
