20
gdb 67468	2.68655	1.64423	1.55116	1.7933	77.88	-0.2271	0.0824	0.3095	991.6105	0.173084	-403.110145	-403.102551	-403.101607	-403.141729	30.532	
C	-0.1265100976	 1.5035363398	-0.0538697423	-0.507739
C	 0.0574782441	 0.0193660991	 0.0326311413	 0.333417
C	 0.8535984897	-0.8123865022	-0.8871967137	-0.067966
C	 1.8755588061	-1.8157469981	-0.384707353	-0.112777
O	 1.6031488556	-2.3936932949	 0.8810565124	-0.247736
C	 1.0376721349	-1.5026019873	 1.8294312967	-0.092388
C	-0.2261179082	-0.8564738178	 1.269052872	-0.116198
C	-1.0325679643	-1.7687846233	 0.308799594	-0.157923
N	-0.6262533011	-0.9696724809	-0.9015917668	-0.201008
H	 0.6518170315	 2.0308342515	 0.5108193137	 0.120234
H	-0.0764405855	 1.8378463821	-1.0943934816	 0.130321
H	-1.0979550059	 1.8060247775	 0.3532938625	 0.12209
H	 1.1810748821	-0.3267745454	-1.8047817474	 0.0948
H	 1.9711782266	-2.6569261981	-1.0802283324	 0.117054
H	 2.8488282535	-1.2933562788	-0.3633706183	 0.094457
H	 0.8202097845	-2.1176007484	 2.7083241851	 0.108503
H	 1.7632664868	-0.7257362706	 2.126854432	 0.086528
H	-0.8107791312	-0.3694005522	 2.0521743603	 0.073971
H	-0.7593983792	-2.825512467	 0.2755203528	 0.116394
H	-2.1132599023	-1.6729187248	 0.4333833928	 0.105964
167.5158	185.0598	216.9761	276.5168	296.2783	361.9856	399.2737	475.0661	573.7692	637.6377	709.7316	747.7129	806.3823	826.1707	847.0205	892.915	922.0211	953.9151	1005.9057	1040.6064	1066.6506	1076.4425	1085.0175	1095.9556	1141.081	1165.2811	1189.8638	1204.5323	1245.6874	1280.1399	1298.4757	1312.0185	1324.5551	1331.2073	1383.887	1406.2566	1420.9639	1469.4034	1483.6946	1490.2457	1493.4135	1497.7418	1504.4399	2946.4353	2959.0893	3023.7663	3060.4682	3066.8604	3073.5208	3083.7033	3090.722	3108.0224	3123.1175	3129.7979
CC12C3COCC1CN23	C[C@@]12[C@H]3COC[C@@H]1CN23	
InChI=1S/C7H11NO/c1-7-5-2-8(7)6(7)4-9-3-5/h5-6H,2-4H2,1H3	InChI=1S/C7H11NO/c1-7-5-2-8(7)6(7)4-9-3-5/h5-6H,2-4H2,1H3/t5-,6+,7-,8?/m0/s1
