20
gdb 109961	1.84781	1.53291	0.92797	2.691	78.49	-0.2527	0.0229	0.2756	1313.7789	0.169924	-440.283463	-440.273608	-440.272664	-440.318654	35.175	
C	 0.1345500227	 1.229439801	 0.2292563637	-0.343286
N	-0.0144634378	-0.2185143033	 0.3042698661	-0.350892
C	-1.1096892108	-0.7461840523	-0.0074409402	 0.482789
O	-2.2892886927	-0.2011210259	-0.4667279056	-0.281345
C	-2.8623900001	-1.5453507116	-0.6849666034	 0.111832
C	-3.2516764202	-1.7580660869	-2.1314906827	-0.403212
C	-1.5610225932	-2.180336639	-0.1153026987	-0.205979
C	-0.614621404	-3.0440747232	-0.9540969523	-0.075662
O	 0.6296541525	-3.1540208292	-0.2973561781	-0.422705
H	 0.998686037	 1.4687632963	-0.3994230878	 0.128974
H	-0.7466126233	 1.7440932107	-0.1703003162	 0.128668
H	 0.3467547329	 1.6225206911	 1.2295550191	 0.131401
H	-3.7265338607	-1.6706336699	-0.0258853157	 0.097748
H	-2.4093128191	-1.5848807121	-2.8054326743	 0.133775
H	-3.612032524	-2.7817086834	-2.2779800909	 0.128977
H	-4.0574745744	-1.0718012838	-2.4080348338	 0.134978
H	-1.7049848466	-2.6546207221	 0.8589572388	 0.112958
H	-1.0100597351	-4.0591055231	-1.0691774509	 0.10741
H	-0.5026216487	-2.6159331984	-1.962428298	 0.087328
H	 0.9049091857	-2.252046645	-0.0699670994	 0.296242
80.5589	84.7061	115.0052	158.123	170.2219	194.2188	244.1047	282.996	384.7164	404.9209	463.3707	549.1749	558.9862	674.7017	738.9144	833.4007	849.0692	889.3235	1003.406	1029.0735	1041.9745	1076.3273	1080.3244	1128.9167	1134.819	1148.9266	1157.2157	1196.6766	1207.7502	1253.8378	1313.7856	1346.4594	1384.3451	1395.1415	1414.2919	1439.5393	1464.0507	1484.4311	1493.9589	1497.8542	1498.5343	1516.096	1831.394	2980.0716	3020.587	3044.0576	3061.6	3064.863	3086.2674	3086.6664	3092.6516	3112.6833	3130.603	3692.3423
CN=C1OC(C)C1CO	CN=C1O[C@@H](C)[C@H]1CO	
InChI=1S/C6H11NO2/c1-4-5(3-8)6(7-2)9-4/h4-5,8H,3H2,1-2H3	InChI=1S/C6H11NO2/c1-4-5(3-8)6(7-2)9-4/h4-5,8H,3H2,1-2H3/t4-,5+/m0/s1
