23
gdb 95066	2.71238	1.5066	1.19625	1.2072	85.04	-0.2359	0.0802	0.3161	1150.7976	0.208222	-388.291034	-388.282951	-388.282007	-388.323007	33.484	
C	 0.2597327584	 1.6085849169	 0.03261983	-0.392929
C	-0.0232201027	 0.1101135465	-0.0258206035	 0.141863
C	 0.6158313469	-0.540799803	-1.2626559413	-0.20287
C	 0.1886397037	-1.9909940419	-1.5616195091	-0.2258
C	 0.2418355661	-2.9576651049	-0.3694312141	 0.003531
C	-0.745560367	-2.5836589254	 0.7743527016	-0.256343
C	 0.4069243497	-1.7983667207	 1.4590290004	 0.14051
C	 1.4019171693	-2.6617467674	 0.6267733411	-0.244775
O	 0.4618374966	-0.4066614591	 1.2128761663	-0.281793
H	 1.3385421404	 1.7945125404	 0.0337541971	 0.118839
H	-0.1819836548	 2.1201458663	-0.8276240489	 0.108363
H	-0.159940788	 2.0351467959	 0.9472327896	 0.121367
H	-1.1148325057	-0.0328027224	-0.0783544562	 0.065134
H	 0.3657927723	 0.075961943	-2.1342849924	 0.092699
H	 1.7049092101	-0.479072265	-1.1491041833	 0.103463
H	-0.8344007923	-1.9928133519	-1.9621383743	 0.094073
H	 0.8294740318	-2.3745381593	-2.3651960078	 0.094807
H	 0.1690520013	-3.986684169	-0.7331344397	 0.0606
H	-1.6645263144	-2.050036398	 0.5197888956	 0.097653
H	-1.0112877342	-3.4574041571	 1.3758870617	 0.096722
H	 0.4843387197	-1.8890857455	 2.5456045628	 0.074098
H	 1.6970027079	-3.556984981	 1.1820002606	 0.093599
H	 2.3012713548	-2.1649163575	 0.2562413037	 0.097189
139.6568	207.2334	234.2271	297.813	319.79	333.9038	351.9071	415.1188	471.2522	501.6436	575.5944	754.6924	774.3021	793.2793	824.6326	847.0045	896.3719	909.4363	929.413	945.9213	992.9076	994.9675	1023.9385	1060.9323	1071.4502	1106.632	1137.9246	1147.8425	1161.0161	1172.6813	1211.1111	1237.8987	1257.1462	1260.7571	1278.3023	1298.6398	1342.0817	1355.8142	1381.1488	1384.7434	1397.4328	1403.7622	1407.652	1462.1908	1479.5294	1485.5158	1486.9509	1499.1552	1502.3536	2965.783	3010.6257	3028.2743	3041.176	3046.6803	3052.7948	3056.5958	3063.629	3070.0706	3076.2635	3110.2347	3113.3489	3114.6771	3122.8489
CC1CCC2CC(C2)O1	C[C@H]1CC[C@@H]2C[C@@H](C2)O1	
InChI=1S/C8H14O/c1-6-2-3-7-4-8(5-7)9-6/h6-8H,2-5H2,1H3	InChI=1S/C8H14O/c1-6-2-3-7-4-8(5-7)9-6/h6-8H,2-5H2,1H3/t6-,7-,8+/m0/s1
