17
gdb 14971	4.38174	1.5103	1.17666	4.0515	65.92	-0.2536	0.0215	0.2751	1009.2899	0.14384	-401.016873	-401.009333	-401.008389	-401.048889	27.902	
O	 0.1464757444	 1.3578096078	-0.1917102853	-0.423856
C	 0.0348762073	-0.03091998	-0.0655902996	-0.113386
C	-1.4110601267	-0.4659203755	 0.0204726114	 0.381412
N	-2.3264049306	 0.4113671102	 0.0205041483	-0.337861
C	-3.7224671897	-0.0087291684	 0.0452117342	-0.155538
C	-3.9010540481	-1.470749456	-0.3777241141	-0.235213
C	-2.8543015251	-2.3140926922	 0.3375818423	-0.071948
O	-1.5305695085	-1.8105127334	 0.0881170647	-0.25319
H	-0.7688903976	 1.6824198642	-0.1531530783	 0.288599
H	 0.4974730487	-0.5473781024	-0.9210612682	 0.112802
H	 0.5552350713	-0.3950258597	 0.8348407769	 0.110289
H	-4.1188669577	 0.1499026665	 1.0573952111	 0.114397
H	-4.2914107079	 0.6570137573	-0.612427874	 0.11609
H	-4.9045732443	-1.8368085766	-0.1389516973	 0.109115
H	-3.7620194316	-1.5666762982	-1.4603797403	 0.119657
H	-3.0244519815	-2.31013708	 1.4221216002	 0.115925
H	-2.8434407926	-3.3508222136	-0.0054783121	 0.122709
90.111	137.4445	202.8641	226.2453	305.7327	420.4546	420.9173	507.7391	526.4707	608.6155	688.3727	838.5534	879.1593	889.763	944.544	971.1929	1038.8274	1071.9811	1120.4241	1133.4849	1158.0213	1210.9561	1237.3706	1243.6971	1263.6651	1302.4411	1326.8098	1369.4604	1374.874	1415.0642	1479.1695	1483.1927	1492.3144	1507.4243	1512.7858	1753.1329	2980.9163	3000.0184	3015.8175	3025.5726	3043.5883	3064.4496	3093.3992	3108.1304	3653.4665
OCC1=NCCCO1	OCC1=NCCCO1	
InChI=1S/C5H9NO2/c7-4-5-6-2-1-3-8-5/h7H,1-4H2	InChI=1S/C5H9NO2/c7-4-5-6-2-1-3-8-5/h7H,1-4H2
