13
gdb 130358	3.70219	1.0668	0.82839	11.2244	79.53	-0.188	-0.063	0.125	1271.7442	0.089307	-486.031	-486.022901	-486.021956	-486.064097	28.959	
N	-0.0337071336	 1.409958817	 0.1154417707	-0.516474
C	 0.0430598018	 0.0612267095	 0.0287649447	 0.152174
N	-0.9929692449	-0.7306811076	 0.0246597992	-0.302831
H	-1.9392225206	-0.3472032621	 0.0402791859	 0.286294
C	-1.0370501439	-2.1132953441	 0.007461839	 0.175642
C	-2.2629039887	-2.8242876609	-0.0122964685	 0.384001
O	-3.4201616636	-2.4397679084	-0.0149836725	-0.44656
O	-1.8410535231	-4.1347455086	-0.028515277	-0.239819
N	-0.3981585403	-4.1492134576	-0.0182864027	-0.04861
N	 0.0167482803	-2.9465449102	 0.0028939309	-0.218324
H	 0.7870795844	 1.9449954533	-0.1120751252	 0.293806
H	-0.9147513506	 1.8821992966	-0.0162634464	 0.284101
H	 1.0224833529	-0.3999495769	 0.0107945319	 0.196601
101.3221	116.0532	135.3784	265.2185	301.5631	329.1748	362.9839	403.2805	422.4779	558.6032	652.7557	694.9719	723.9124	757.8404	817.5752	854.1232	964.6341	988.6648	1057.4626	1142.5812	1249.9231	1321.787	1380.7857	1389.2434	1483.9153	1490.3436	1653.2179	1756.8506	1804.4674	3233.3285	3469.5608	3598.475	3718.5647
NC=[NH+]C1=C([O-])ON=N1	[NH2]=CNc1c(=O)onn1	
InChI=1S/C3H4N4O2/c4-1-5-2-3(8)9-7-6-2/h1,8H,(H2,4,5)	InChI=1S/C3H5N4O2/c4-1-5-2-3(8)9-7-6-2/h1,7H,4H2,(H,5,6)
