18
gdb 81925	2.49796	1.63487	1.30162	4.6003	71.55	-0.2289	-0.0292	0.1998	1030.385	0.148622	-439.083725	-439.075656	-439.074712	-439.116088	31.358	
C	 0.0291672502	 1.5921570817	-0.0083162231	-0.396387
C	 0.0618298053	 0.065431029	 0.0153825183	-0.022714
C	 0.8048144712	-0.570857873	-1.1596367413	-0.04122
N	 2.2631823139	-0.5419211878	-0.9808614705	-0.350704
C	 1.5098617671	-1.80587983	-0.7042997986	-0.164034
C	 1.2103654201	-1.9530936907	 0.7629542292	 0.436376
O	 1.2403641476	-2.9744979652	 1.3978903367	-0.321571
C	 0.7576972099	-0.5557467346	 1.262733778	-0.015961
O	 1.8785713376	 0.177601532	 1.7251828549	-0.43111
H	 1.0396616034	 2.0059483421	 0.0129129905	 0.129699
H	-0.4738005294	 1.9551196568	-0.9108995023	 0.108376
H	-0.5088320052	 1.9851962266	 0.8593709833	 0.124591
H	-0.9660920655	-0.3216866602	-0.009073193	 0.087034
H	 0.4002165921	-0.5020473534	-2.1647577254	 0.100702
H	 2.734949783	-0.638229092	-1.8764570417	 0.24815
H	 1.6744969141	-2.6774558128	-1.3260019586	 0.110857
H	 0.0785443087	-0.6599344562	 2.1109496671	 0.100874
H	 2.4855292257	 0.2284248976	 0.9705131366	 0.297042
106.9841	170.6917	207.2382	249.0343	259.2027	297.2494	408.4346	475.8919	511.5556	555.197	610.3576	712.1348	746.4984	802.7335	841.9089	858.1648	873.8911	919.5633	931.3322	1001.8793	1021.5736	1065.7342	1113.1314	1122.4502	1135.633	1151.9635	1193.4094	1239.5832	1257.2919	1268.7517	1336.2889	1342.0818	1364.4584	1400.7761	1416.1087	1462.2724	1494.9566	1496.1691	1852.6696	3017.8964	3041.7544	3102.2321	3105.8274	3130.5704	3161.2939	3197.1558	3508.3221	3697.0229
CC1C2NC2C(=O)C1O	C[C@H]1[C@H]2N[C@H]2C(=O)[C@H]1O	
InChI=1S/C6H9NO2/c1-2-3-4(7-3)6(9)5(2)8/h2-5,7-8H,1H3	InChI=1S/C6H9NO2/c1-2-3-4(7-3)6(9)5(2)8/h2-5,7-8H,1H3/t2-,3+,4+,5-/m0/s1
