17
gdb 78401	3.31604	1.34711	1.21526	4.2322	71.18	-0.2555	0.0058	0.2613	1072.3186	0.136425	-421.810407	-421.803062	-421.802117	-421.842155	28.785	
C	-0.0899776229	 1.4070123937	-0.0080741794	-0.431376
C	 0.0329137992	-0.1005614656	 0.0704139416	-0.027629
C	 1.3883898255	-0.6897946924	-0.2188983925	-0.073255
C	 0.8229882444	-0.6668265458	 1.2142418675	-0.070097
C	 0.814679476	-2.2220107922	 1.2421339386	-0.243696
C	 1.3655631395	-2.2290751882	-0.1872993989	 0.091084
O	 0.139515854	-2.8796880594	-0.6714335244	-0.264979
C	-0.3932558199	-2.9265665556	 0.6074261719	 0.442514
O	-1.4340830901	-3.396567931	 0.9332353539	-0.323083
H	 0.8187189826	 1.901439417	 0.3512130366	 0.117651
H	-0.2625097881	 1.7316338692	-1.0391305423	 0.128042
H	-0.9273887125	 1.7612589445	 0.6014217768	 0.129028
H	-0.8462305739	-0.6361733136	-0.2786549456	 0.11673
H	 2.1856740437	-0.1007135679	-0.6549896976	 0.093297
H	 1.1267658273	-0.060553779	 2.0579047503	 0.100774
H	 1.3058946816	-2.7069360846	 2.082381948	 0.110493
H	 2.2555091537	-2.7701964692	-0.5010642846	 0.104501
118.3284	192.7892	222.249	253.5691	294.8369	386.7878	469.2805	548.125	690.4673	743.5441	768.0068	783.0902	823.355	843.9679	886.4703	900.2196	945.5252	978.8036	1005.2163	1014.5532	1033.8539	1070.3943	1086.7258	1104.0749	1145.3299	1178.478	1198.3571	1214.8851	1238.3182	1277.0356	1305.264	1327.2289	1417.5564	1426.881	1494.9983	1502.7732	1933.5397	3033.8133	3100.3431	3103.5433	3141.2506	3142.1144	3152.5958	3186.7643	3198.3918
CC1C2C1C1C2OC1=O	C[C@H]1[C@H]2[C@@H]1[C@@H]1[C@H]2OC1=O	
InChI=1S/C7H8O2/c1-2-3-4(2)6-5(3)7(8)9-6/h2-6H,1H3	InChI=1S/C7H8O2/c1-2-3-4(2)6-5(3)7(8)9-6/h2-6H,1H3/t2-,3-,4+,5-,6+/m1/s1
