15
gdb 127663	2.59115	1.86052	1.09027	1.4386	73.3	-0.2135	-0.0512	0.1623	1037.2349	0.114805	-450.146004	-450.138319	-450.137375	-450.178249	28.843	
C	-0.3797947342	 1.3407816768	-0.0170921263	-0.310233
N	 0.0530552318	-0.0473935765	 0.0000981476	-0.040227
N	 0.2477380738	-0.6372444158	-1.1992498326	-0.21481
C	 0.6335442779	-1.8736094715	-1.186185061	 0.060063
N	 0.8643550805	-2.643633035	-0.0702998545	-0.360389
C	 0.6731128063	-2.0625043689	 1.0636306553	 0.385253
O	 0.8696206204	-2.7225068737	 2.2093707884	-0.395568
C	 0.2360779647	-0.6676119124	 1.2289792009	 0.315051
N	 0.0273417216	-0.0291221373	 2.3213827046	-0.567391
H	 0.3454065672	 1.9655203443	 0.5122137806	 0.151562
H	-0.4655445117	 1.6417847881	-1.0592672391	 0.146452
H	-1.3389327574	 1.4402010301	 0.4991367599	 0.151631
H	 0.7887725497	-2.343978339	-2.1488374786	 0.134602
H	 1.1514611996	-3.6182726482	 1.9713825154	 0.310393
H	 0.2105803597	-0.6377825712	 3.1157853592	 0.233611
93.7783	148.7076	209.1331	268.1737	327.4952	343.0442	474.0387	515.2761	553.169	561.6948	602.0472	627.3349	728.0721	771.9523	827.2898	899.2331	902.8448	966.5325	1056.8451	1135.0021	1151.9736	1224.1866	1284.2133	1312.2645	1384.9572	1405.7821	1441.2562	1456.7057	1469.2862	1504.5728	1577.0956	1644.575	1687.0165	3051.3394	3109.711	3180.016	3218.5703	3524.5351	3753.9415
CN1N=CN=C(O)C1=N	Cn1ncnc(O)c1[NH]	
InChI=1S/C4H6N4O/c1-8-3(5)4(9)6-2-7-8/h2,5H,1H3,(H,6,7,9)	InChI=1S/C4H11N4O/c1-8-3(5)4(9)6-2-7-8/h3-7,9H,2H2,1H3
