15
gdb 61720	4.01293	0.8849	0.77432	3.6084	71.16	-0.2515	-0.0269	0.2246	1400.6782	0.113136	-450.17609	-450.167138	-450.166194	-450.210526	31.592	
N	-0.5653958056	-0.1242274446	-1.2034078208	-0.568276
C	-0.6814721558	-0.7091951675	 0.0184519971	 0.491694
N	 0.4563747333	-1.4072479888	 0.4705904183	-0.345794
C	 1.6072284289	-1.6994459033	-0.2041902008	 0.180669
O	 1.8764717873	-1.3654137043	-1.3412304456	-0.321772
N	-1.6597729022	-0.686489908	 0.8509640939	-0.342713
C	-2.8304982997	 0.0987572722	 0.5136817045	-0.288938
C	-3.5359535698	-0.3423980494	-0.7058182443	 0.248351
N	-4.0344857861	-0.6896570622	-1.6900145361	-0.316872
H	 0.2511153629	-0.3838790252	-1.7467787557	 0.290906
H	-1.4153883169	 0.0749316479	-1.7070786038	 0.279701
H	 0.343405501	-1.7585516011	 1.4106294476	 0.273273
H	 2.2991651571	-2.293319804	 0.4183420104	 0.109418
H	-3.5380472295	 0.0418483618	 1.3465629315	 0.160108
H	-2.5892987848	 1.1654843165	 0.3762303538	 0.150246
65.0494	73.3364	121.0121	196.4319	248.168	295.6185	326.1905	372.8288	389.914	478.1945	509.6048	644.2371	662.7073	685.5911	737.8479	807.6938	899.9509	928.9952	1009.0821	1025.0494	1030.048	1173.5371	1194.4448	1272.0918	1351.9744	1407.1392	1447.7437	1467.5488	1498.0166	1643.8831	1734.3908	1793.178	2344.0503	2980.5468	2985.9257	3076.4126	3497.3152	3622.18	3663.1936
NC(NC=O)=NCC#N	NC(=NCC#N)NC=O	
InChI=1S/C4H6N4O/c5-1-2-7-4(6)8-3-9/h3H,2H2,(H3,6,7,8,9)	InChI=1S/C4H6N4O/c5-1-2-7-4(6)8-3-9/h3H,2H2,(H3,6,7,8,9)
