23
gdb 62629	2.5937	1.79078	1.57574	0.0667	87.03	-0.2575	0.0869	0.3444	1008.9914	0.208615	-351.175686	-351.167889	-351.166945	-351.20717	33.142	
C	-0.0785315833	 1.5445809641	-0.0131413399	-0.445126
C	-0.0166316077	 0.0085992276	-0.0076944312	 0.327042
C	-1.4553991664	-0.5266053506	-0.089359427	-0.445171
C	 0.8943144085	-0.5565535222	-1.1052481886	-0.06668
C	 2.3075649265	-0.6031142354	-0.5560467001	-0.065731
C	 2.2510266276	-0.1038149822	 0.8860368601	-0.236045
C	 0.8085689733	-0.5838118887	 1.1864316706	-0.069649
C	 0.9363618094	-2.0824269421	 0.8133412836	-0.236044
C	 1.4668709758	-1.8682559354	-0.6025467967	-0.065743
H	 0.9085805433	 2.0093332478	-0.0462650731	 0.115853
H	-0.6324807077	 1.8984938122	-0.8898073553	 0.107646
H	-0.6011573667	 1.9183908284	 0.8751290722	 0.106627
H	-1.9666927585	-0.1074573202	-0.9631724649	 0.107646
H	-1.4997700552	-1.6134356159	-0.1804546929	 0.115847
H	-2.0322033565	-0.2353714544	 0.7962898021	 0.10663
H	 0.6967152136	-0.3865865746	-2.1568432815	 0.071017
H	 3.1742385373	-0.4716530407	-1.1906989928	 0.076142
H	 2.986001384	-0.5994837328	 1.529913901	 0.08975
H	 2.391603422	 0.9745244854	 0.9871659924	 0.093193
H	 0.4222117119	-0.3636894673	 2.1824289664	 0.053694
H	 1.6563433739	-2.6007353494	 1.4563309236	 0.089771
H	-0.0056676304	-2.6334783313	 0.8546872537	 0.093183
H	 1.7034981254	-2.6849324521	-1.2720514016	 0.076148
155.2657	203.9556	215.1044	290.3412	334.2208	393.4618	449.4161	470.6021	528.8691	573.7551	697.067	701.9308	809.0397	812.5947	837.8718	880.7693	912.4118	922.3976	941.6008	942.5971	958.3589	963.141	984.1965	993.0114	1020.2447	1034.6914	1071.6349	1073.663	1078.5985	1143.6454	1147.2653	1172.9349	1213.7047	1231.5283	1247.7396	1249.8177	1279.3126	1287.6685	1323.6181	1346.6863	1387.2559	1400.8436	1423.7947	1481.75	1482.079	1500.5628	1504.6306	1508.3461	1529.7071	3026.6126	3032.3508	3044.1091	3050.059	3082.4832	3088.7528	3096.5786	3098.3263	3109.5672	3125.608	3126.7946	3180.8106	3191.8937	3203.954
CC1(C)C2C3CC1CC23	CC1(C)[C@H]2[C@H]3C[C@@H]1C[C@@H]23	
InChI=1S/C9H14/c1-9(2)5-3-6-7(4-5)8(6)9/h5-8H,3-4H2,1-2H3	InChI=1S/C9H14/c1-9(2)5-3-6-7(4-5)8(6)9/h5-8H,3-4H2,1-2H3/t5-,6+,7-,8+
