20
gdb 103187	2.92908	1.52842	1.27952	1.5752	77.32	-0.2344	0.0645	0.2988	1053.1096	0.171092	-403.070088	-403.061814	-403.06087	-403.102739	32.572	
C	-0.0599470725	 1.5499255081	-0.0399835031	-0.452118
C	-0.0042390348	 0.0191106139	-0.0237903444	 0.338154
C	-1.4056771238	-0.5621648299	 0.1344145697	-0.155306
O	-1.8710433437	-0.2243380667	 1.436161785	-0.425145
C	 0.879729745	-0.5256525435	-1.1521688004	-0.099022
C	 2.0994786632	-0.4391132702	-0.3217053381	-0.055667
C	 1.1330214372	-0.4909725288	 0.9273070359	-0.106622
C	 1.16407016	-2.0080340894	 0.7054341646	-0.167763
N	 1.5947386163	-1.7837942044	-0.7173858516	-0.163654
H	 0.9435430022	 1.9854706341	-0.0577091127	 0.114201
H	-0.59900897	 1.9141707096	-0.922344303	 0.107257
H	-0.5841022053	 1.9142562462	 0.8473366885	 0.135085
H	-2.0575637795	-0.1362150319	-0.6464519715	 0.082788
H	-1.3992423777	-1.6503501298	-0.0133195305	 0.092702
H	-2.7666764302	-0.5597384456	 1.5341925712	 0.289109
H	 0.7686425279	-0.3924222544	-2.2214553891	 0.090295
H	 3.1048733165	-0.0843230397	-0.5044811212	 0.095033
H	 1.2699204848	-0.0294862309	 1.9030523007	 0.075724
H	 1.9911635253	-2.495031461	 1.2287965334	 0.106584
H	 0.2506108091	-2.5941918358	 0.8481025066	 0.098363
71.1303	164.2301	232.0761	251.163	266.5009	288.8226	372.035	421.8667	491.2649	532.5024	656.7756	762.6642	764.5711	805.9171	832.4997	889.3038	918.3249	947.9107	959.8705	970.7056	986.6245	1005.0701	1025.6142	1051.9606	1068.1168	1135.9588	1139.6624	1163.9653	1173.4321	1189.5072	1201.2106	1234.1648	1264.9755	1268.3232	1289.3683	1304.6109	1350.8023	1404.8951	1456.3575	1489.1118	1503.9626	1507.3058	1536.5454	2966.2503	3019.7459	3031.1259	3047.6507	3095.8022	3099.9145	3121.9096	3138.0854	3187.3507	3207.5625	3833.4566
CC1(CO)C2C3C1CN23	C[C@@]1(CO)[C@H]2[C@H]3[C@@H]1CN23	
InChI=1S/C7H11NO/c1-7(3-9)4-2-8-5(4)6(7)8/h4-6,9H,2-3H2,1H3	InChI=1S/C7H11NO/c1-7(3-9)4-2-8-5(4)6(7)8/h4-6,9H,2-3H2,1H3/t4-,5+,6+,7-,8?/m0/s1
