17
gdb 71227	2.85777	1.87994	1.70485	2.5831	71.26	-0.2369	-0.0017	0.2351	870.0973	0.136912	-421.779026	-421.772309	-421.771365	-421.809572	28.397	
O	-0.0666639518	 1.407169182	-0.0317221482	-0.500335
C	 0.0256613199	 0.0115647375	 0.0110164836	 0.32772
C	 0.3265721409	-0.7095164182	 1.3733034872	-0.296341
C	-0.7091095904	-1.7571816844	 0.9543574679	-0.089635
C	-0.465000594	-2.4611827436	-0.4488863816	 0.031798
O	-1.5917303075	-1.6911264181	-1.0206501442	-0.291721
C	-1.3973221545	-0.7488176291	 0.0186281027	 0.098966
C	 0.7567238914	-1.947412734	-1.1599270423	-0.08057
C	 0.929622607	-0.6316913819	-1.0079207614	-0.126115
H	 0.8205492349	 1.7784245847	 0.0297349574	 0.277513
H	 1.3591767973	-1.0073836633	 1.5715836691	 0.094095
H	-0.0684680761	-0.1183801389	 2.2060833854	 0.107539
H	-1.2367851477	-2.3640823241	 1.6889957602	 0.080729
H	-0.6389713008	-3.5351918296	-0.5194845541	 0.078657
H	-2.2571531195	-0.1111929508	 0.2294772988	 0.091868
H	 1.3427757185	-2.5771254231	-1.8183976595	 0.101743
H	 1.6685523723	-0.0362348952	-1.536435811	 0.094088
191.7956	267.3731	306.6683	388.5798	413.5785	437.6259	513.8801	583.2924	667.7117	692.3446	697.3119	753.2624	771.5703	840.2411	886.1455	895.5991	939.2484	956.2989	964.0175	987.5555	1005.6935	1049.8708	1063.3463	1130.5787	1142.7472	1159.1156	1209.3994	1211.5807	1222.5904	1258.6986	1289.9963	1319.6304	1334.589	1347.1923	1389.4488	1478.9918	1664.0601	3047.7727	3107.4552	3109.8842	3110.4227	3123.7381	3165.3149	3205.3207	3795.9114
OC12CC3C(OC13)C=C2	O[C@@]12C[C@@H]3[C@@H](O[C@H]13)C=C2	
InChI=1S/C7H8O2/c8-7-2-1-5-4(3-7)6(7)9-5/h1-2,4-6,8H,3H2	InChI=1S/C7H8O2/c8-7-2-1-5-4(3-7)6(7)9-5/h1-2,4-6,8H,3H2/t4-,5+,6+,7+/m1/s1
