15
gdb 27826	1.966	1.88102	0.96708	4.6327	72.08	-0.2285	-0.0334	0.1951	1146.1839	0.114166	-454.041732	-454.033884	-454.032939	-454.074384	29.37	
C	-0.0192056277	 1.5005681438	-0.0036545325	-0.487602
C	 0.000565317	 0.0008355587	-0.0598070801	 0.409374
N	-0.0195179874	-0.6106505478	-1.2116143601	-0.405563
C	 0.0019446663	-1.9792416353	-1.1810278505	 0.442861
O	-0.0199228665	-2.5640009482	-2.3890100195	-0.406796
C	 0.0421860854	-2.7402174853	-0.0465881409	-0.354053
C	 0.0649016835	-2.0967068815	 1.2345188526	 0.42572
O	 0.1005962081	-2.5919722745	 2.3444603117	-0.395783
N	 0.0402227383	-0.6717503942	 1.1108539581	-0.376026
H	 0.878209195	 1.8823339327	 0.4950119445	 0.150432
H	-0.061535802	 1.898231947	-1.0167397927	 0.160809
H	-0.8878683044	 1.8574778512	 0.5599388006	 0.149845
H	-0.0473083869	-1.8460402646	-3.0363518383	 0.301825
H	 0.0573415421	-3.8199253934	-0.0890473106	 0.122472
H	 0.0549924791	-0.1741377884	 1.9911967076	 0.262483
82.6233	162.5267	188.7922	218.6096	293.5446	367.6489	511.9557	522.7908	535.6214	574.3802	594.4846	626.4277	679.2789	755.2264	766.9501	854.3031	920.7958	980.9845	1033.3218	1061.5464	1063.5986	1189.3902	1221.5647	1278.5361	1297.3512	1406.1062	1446.7631	1468.8507	1483.2176	1502.2394	1616.8268	1681.2406	1806.1034	3043.4453	3100.6606	3166.4712	3238.035	3598.3573	3772.6074
CC1=NC(O)=CC(=O)N1	Cc1nc(O)cc(=O)[nH]1	
InChI=1S/C5H6N2O2/c1-3-6-4(8)2-5(9)7-3/h2H,1H3,(H2,6,7,8,9)	InChI=1S/C5H6N2O2/c1-3-6-4(8)2-5(9)7-3/h2H,1H3,(H2,6,7,8,9)
