23
gdb 106596	3.84501	0.95105	0.94239	1.5315	86.77	-0.227	0.094	0.3211	1430.331	0.20406	-388.24751	-388.237786	-388.236842	-388.282053	37.	
C	-0.1425794549	 1.5133626877	 0.1537738428	-0.380657
C	-0.116196434	-0.0154563465	 0.0533797615	-0.313122
C	-1.4821775044	-0.6148114658	-0.1099318904	 0.431856
C	-2.5934183453	-0.3131582621	-1.1525919283	-0.312637
C	-3.1848928988	-1.2126775434	-0.0385175856	 0.431844
C	-4.6138098739	-1.5807513718	 0.2345693023	-0.313127
C	-4.7900081551	-2.364567636	 1.5394261565	-0.380661
C	-1.9135053477	-2.1027295062	-0.1050345683	-0.312565
O	-2.4837008392	-0.3617946323	 0.9665578957	-0.383912
H	 0.861925318	 1.9116190977	 0.3234494022	 0.110608
H	-0.5319362855	 1.9641990923	-0.7647702386	 0.11705
H	-0.7840182933	 1.8311560781	 0.9801804068	 0.138987
H	 0.5027306699	-0.335875837	-0.7942950622	 0.102996
H	 0.3387510068	-0.44507479	 0.9544659345	 0.109809
H	-2.9621781694	 0.7138264624	-1.1591722025	 0.100338
H	-2.4874243531	-0.7362560927	-2.1556634117	 0.086721
H	-5.2034714216	-0.6562302679	 0.2670554502	 0.109817
H	-4.9875002432	-2.1618500133	-0.6180589527	 0.102997
H	-5.846771283	-2.5704352509	 1.7324792976	 0.110611
H	-4.2627490805	-3.3232468112	 1.5001980091	 0.117052
H	-4.389157061	-1.7968124673	 2.3834399742	 0.138987
H	-1.7439923137	-2.6922032971	-1.0106737982	 0.086671
H	-1.6753828271	-2.6477538467	 0.8098313654	 0.100339
70.5963	101.4467	134.5427	151.6575	216.417	219.6148	289.7413	335.1538	415.5687	424.327	521.9858	596.2696	600.7342	649.9613	691.8468	757.1027	798.661	822.1948	924.2936	951.1902	951.7379	965.2312	988.5275	1028.3411	1049.9911	1060.7431	1089.1754	1107.0234	1127.023	1143.88	1158.2426	1183.6359	1195.5574	1264.0498	1301.0798	1307.9702	1326.0648	1380.8381	1401.172	1409.3173	1411.8322	1465.0357	1470.3882	1470.9819	1497.5636	1497.8792	1507.7698	1508.4045	1524.9296	3026.1788	3026.2062	3041.6182	3041.7625	3048.5435	3059.4908	3061.5411	3061.615	3108.6774	3108.8193	3122.8722	3123.0226	3134.5788	3139.2357
CCC12CC(CC)(C1)O2	CC[C@@]12C[C@@](CC)(C1)O2	
InChI=1S/C8H14O/c1-3-7-5-8(4-2,6-7)9-7/h3-6H2,1-2H3	InChI=1S/C8H14O/c1-3-7-5-8(4-2,6-7)9-7/h3-6H2,1-2H3/t7-,8+
