21
gdb 121035	3.14522	0.90217	0.79027	4.086	79.24	-0.2427	0.0625	0.3053	1528.0258	0.184543	-420.469046	-420.45976	-420.458815	-420.50367	34.486	
C	-0.0491995509	 1.5723026235	-0.0934405307	-0.379963
C	-0.0135280659	 0.0429358643	-0.021906117	-0.179192
C	-1.4119531122	-0.5828979568	 0.0093896246	-0.167491
C	-1.411740943	-2.1150148055	 0.1379752321	 0.016233
C	-2.8397386122	-2.7202210898	 0.0926819388	-0.183877
N	-2.9893710977	-3.0186828325	-1.3230711006	-0.338189
C	-1.7496096337	-3.2178407879	-1.9208394112	 0.42658
O	-1.5398280609	-3.6567428193	-3.0292298993	-0.411258
N	-0.8013820899	-2.8112456377	-0.9908058499	-0.338534
H	 0.9602090253	 1.9940307507	-0.1150535547	 0.115454
H	-0.5727956391	 1.9127957413	-0.9932939574	 0.12036
H	-0.5700492858	 1.9962205196	 0.7721614281	 0.115744
H	 0.5459642753	-0.3407676685	-0.8848986333	 0.095426
H	 0.5448356733	-0.270817846	 0.8705169468	 0.096936
H	-1.9682596696	-0.1729798999	 0.8635073586	 0.094802
H	-1.9687895559	-0.3024255569	-0.8939643492	 0.112456
H	-0.9094708423	-2.3950623421	 1.0713829628	 0.084351
H	-2.8991611306	-3.6217746334	 0.7187788378	 0.106095
H	-3.5923266129	-2.0069068386	 0.4417133229	 0.112093
H	-3.7486671593	-3.5905813609	-1.6564701853	 0.251553
H	 0.1036119879	-2.5469509436	-1.3447862038	 0.250422
66.6964	89.7183	138.6196	150.3837	213.265	249.7052	322.6543	361.5105	472.9795	487.6492	520.4678	527.0269	703.0997	741.4025	768.591	773.675	848.7793	897.6186	916.2572	971.9323	998.2658	1014.6288	1049.5402	1091.5394	1095.0399	1148.0209	1157.8312	1226.7703	1254.7898	1258.3369	1282.8212	1314.7223	1332.8255	1365.9243	1383.5549	1402.2387	1414.419	1425.479	1441.6572	1479.2386	1492.1631	1500.175	1509.2679	1526.8058	1850.3727	2996.9052	3009.1403	3015.8162	3030.6146	3032.1403	3040.6151	3066.374	3073.4317	3099.4526	3105.7342	3646.2897	3649.9666
CCCC1CNC(=O)N1	CCC[C@H]1CNC(=O)N1	
InChI=1S/C6H12N2O/c1-2-3-5-4-7-6(9)8-5/h5H,2-4H2,1H3,(H2,7,8,9)	InChI=1S/C6H12N2O/c1-2-3-5-4-7-6(9)8-5/h5H,2-4H2,1H3,(H2,7,8,9)/t5-/m0/s1
