17
gdb 102046	2.60842	1.04358	0.84755	2.789	67.19	-0.256	-0.0547	0.2012	1369.0344	0.131098	-496.099431	-496.089247	-496.088302	-496.13555	34.605	
C	-0.8392140948	 1.4561648659	 0.1861877552	-0.247478
O	-0.8473476992	 0.0946165701	 0.5928541459	-0.237448
C	-1.4583173759	-0.783414646	-0.2992313165	-0.064191
C	-0.6124490205	-1.1045599079	-1.5457873817	 0.143885
O	 0.4224338914	-0.5539348794	-1.8011830335	-0.228917
C	-1.7895552499	-2.0992352279	 0.4057949333	 0.308738
O	-2.3489338895	-2.9939396834	-0.1918384345	-0.331225
C	-1.3779287838	-2.2718599931	 1.8536093792	-0.122274
O	-1.7421132824	-3.5315433178	 2.332608105	-0.422786
H	-0.4143149037	 2.0245826593	 1.0155199223	 0.139501
H	-0.2269371956	 1.6045559985	-0.7078309401	 0.145973
H	-1.8620106572	 1.8144231662	-0.003738274	 0.110246
H	-2.4214323223	-0.3940261505	-0.6814282941	 0.123155
H	-1.0523469585	-1.8971496604	-2.1855867223	 0.118772
H	-0.2910415571	-2.1025308657	 1.9188044264	 0.136096
H	-1.8380374541	-1.4620061597	 2.4399994102	 0.132315
H	-2.1578696771	-3.9883857484	 1.5852256892	 0.295639
42.417	96.6504	119.6608	133.3382	151.3823	184.0508	230.2243	294.1357	313.986	358.0031	378.3437	465.9284	504.8366	650.2099	755.4538	800.2679	848.4443	919.7356	1038.428	1059.5222	1116.2326	1151.3354	1176.8094	1192.6018	1213.2631	1239.8771	1250.2068	1307.0928	1338.5938	1392.8819	1445.1259	1474.0584	1480.4192	1484.4623	1512.7869	1784.2997	1842.3451	2925.4469	2939.9332	2991.8726	2996.5914	3011.9081	3091.2547	3137.856	3703.1058
COC(C=O)C(=O)CO	CO[C@@H](C=O)C(=O)CO	
InChI=1S/C5H8O4/c1-9-5(3-7)4(8)2-6/h3,5-6H,2H2,1H3	InChI=1S/C5H8O4/c1-9-5(3-7)4(8)2-6/h3,5-6H,2H2,1H3/t5-/m0/s1
