17
gdb 58798	3.48856	1.14875	1.01407	4.2951	68.78	-0.2741	0.0009	0.2751	1190.3187	0.134202	-458.960419	-458.951785	-458.950841	-458.993878	32.199	
C	-0.0769296689	 1.4633814172	-0.0626730851	-0.419957
C	-0.0355464904	-0.0635078322	-0.0825980495	 0.007755
O	 0.778029749	-0.6047169939	 0.9491673816	-0.420096
C	-1.4177978587	-0.6582695439	 0.0012446673	 0.475714
C	-2.2038249581	-1.0724116784	 1.188879275	-0.342694
C	-1.9087030922	-2.0835601719	 0.0628864869	-0.329769
C	-2.7363656918	-1.6938048942	-1.1295085486	 0.459119
O	-3.446222389	-2.205992038	-1.930219121	-0.320869
O	-2.3442928537	-0.3539546993	-1.0871671757	-0.306497
H	 0.9348555316	 1.8664794075	-0.156484234	 0.130339
H	-0.6876891803	 1.8424952918	-0.8862888124	 0.150769
H	-0.5155544934	 1.8269084376	 0.8747984036	 0.114219
H	 0.4167618541	-0.3990773845	-1.0234467893	 0.109443
H	 0.6286747478	-0.0840842613	 1.7458754659	 0.287126
H	-1.6383344971	-1.2745358971	 2.0930414005	 0.131774
H	-3.2108944334	-0.6958177728	 1.3351200514	 0.136732
H	-1.3934536454	-3.0174628565	 0.2295590235	 0.136891
68.0567	118.3398	161.7152	239.0811	276.1641	287.8421	328.4377	397.6588	456.3815	482.2086	516.4205	678.5113	690.0597	764.0922	836.6626	878.6037	911.9248	944.9793	968.2315	993.1812	1015.0201	1044.0212	1068.6921	1093.3431	1104.094	1133.3331	1187.2181	1240.1031	1304.9313	1365.941	1401.3649	1408.2836	1410.9495	1485.1724	1491.3385	1500.2414	1946.4237	3030.1324	3045.6149	3106.4598	3127.7187	3131.5155	3222.0051	3239.1249	3806.3503
CC(O)C12CC1C(=O)O2	C[C@@H](O)[C@]12C[C@H]1C(=O)O2	
InChI=1S/C6H8O3/c1-3(7)6-2-4(6)5(8)9-6/h3-4,7H,2H2,1H3	InChI=1S/C6H8O3/c1-3(7)6-2-4(6)5(8)9-6/h3-4,7H,2H2,1H3/t3-,4+,6-/m1/s1
