19
gdb 15995	2.7326	2.01519	1.33824	2.9656	71.53	-0.2314	0.0622	0.2936	960.3793	0.166109	-365.018077	-365.009974	-365.00903	-365.050549	30.604	
O	 0.3547845342	 0.3829050134	 0.9255098228	-0.423322
C	-0.2114549031	 0.3133225424	-0.3814703257	-0.112108
C	-1.5158830162	-0.4453152894	-0.2647653083	-0.029559
C	-2.2742009856	-0.8497982181	-1.5639470301	-0.253305
C	-2.5458910814	-2.2551865745	-0.9469096071	-0.292751
C	-1.4767647749	-1.9377861412	 0.1029569169	 0.370395
C	-0.2746542879	-2.7270329157	 0.4539460415	-0.304454
N	-1.3779327713	-2.5398218459	 1.4237550971	-0.374347
H	 1.1953068847	 0.8469466933	 0.8698932179	 0.289828
H	-0.3916270879	 1.3206936485	-0.7900045886	 0.089926
H	 0.4620726653	-0.2127661749	-1.0761723299	 0.085946
H	-2.1791459314	 0.0941768404	 0.4224063147	 0.081794
H	-3.1427977607	-0.2468842899	-1.8347874609	 0.100963
H	-1.6024323111	-0.9025426518	-2.4259509491	 0.100724
H	-3.5420116407	-2.331623671	-0.5010772901	 0.109264
H	-2.3798691925	-3.1240179152	-1.5882035401	 0.100589
H	-0.16456165	-3.7417894761	 0.079281034	 0.108322
H	 0.6537328617	-2.1926556244	 0.6311189624	 0.116247
H	-1.1042864012	-1.8237584998	 2.0943306827	 0.235849
80.8376	126.2486	193.8845	232.6475	282.3905	324.6152	348.2305	405.1031	505.6282	582.3445	689.2129	796.7535	835.0447	894.3887	916.8544	925.6465	956.7954	984.8634	1009.576	1038.9444	1057.5631	1086.8271	1107.3112	1127.0564	1145.0549	1198.714	1226.8786	1241.3307	1249.1343	1269.5791	1280.3758	1287.3615	1314.629	1366.4992	1409.8355	1456.7855	1477.6094	1494.4031	1506.3802	1519.0127	2966.8223	2996.4641	3036.8827	3056.0845	3059.3552	3104.8516	3106.8091	3120.8798	3198.4502	3485.4902	3829.1006
OCC1CCC11CN1	OC[C@H]1CC[C@]21CN2	
InChI=1S/C6H11NO/c8-3-5-1-2-6(5)4-7-6/h5,7-8H,1-4H2	InChI=1S/C6H11NO/c8-3-5-1-2-6(5)4-7-6/h5,7-8H,1-4H2/t5-,6-/m1/s1
