15
gdb 84980	3.08681	1.27228	0.95289	4.5873	78.3	-0.2592	-0.0606	0.1986	1199.3327	0.111358	-420.650602	-420.642384	-420.641439	-420.683475	30.553	
C	-0.0536150718	 1.5554475569	-0.0549950993	-0.395368
C	 0.0253464817	 0.0310349101	 0.0106749676	 0.075746
O	 0.7811976737	-0.4689013244	-1.1007912197	-0.233517
C	 1.8370975697	-1.2249317391	-0.6691026218	 0.368331
O	 2.6123410253	-1.7492691747	-1.4114803321	-0.330903
C	 1.7928210994	-1.2368000122	 0.8328512733	 0.030109
C	 0.7348716074	-0.5091346099	 1.2164590721	-0.232161
C	 2.7470159895	-1.9233564869	 1.6130186195	 0.258177
C	 3.5702353661	-2.5154314121	 2.2607627196	-0.40129
H	 0.9458820209	 1.9932343013	 0.0106672947	 0.137371
H	-0.5132356868	 1.8646027597	-0.9967887007	 0.143567
H	-0.6611383959	 1.937300788	 0.7711224089	 0.12658
H	-0.9870626932	-0.3910503961	-0.0642815083	 0.117511
H	 0.4122396611	-0.3119569557	 2.2300107123	 0.133108
H	 4.2994038428	-3.041086765	 2.8265798039	 0.202739
108.2317	131.3965	140.1896	237.087	257.6772	336.6999	409.702	485.8663	507.2711	542.2365	622.0575	625.7495	646.3264	716.8729	786.3024	795.8587	884.3248	893.475	963.2634	1044.84	1076.4756	1104.322	1143.5861	1211.8717	1294.1936	1335.918	1354.0999	1403.9567	1485.4884	1495.1027	1674.141	1879.6347	2238.5893	3009.7708	3047.1897	3124.0236	3134.978	3230.3099	3501.4904
CC1OC(=O)C(=C1)C#C	C[C@H]1OC(=O)C(=C1)C#C	
InChI=1S/C7H6O2/c1-3-6-4-5(2)9-7(6)8/h1,4-5H,2H3	InChI=1S/C7H6O2/c1-3-6-4-5(2)9-7(6)8/h1,4-5H,2H3/t5-/m1/s1
