18
gdb 108720	3.50265	1.05188	0.83516	6.2675	79.44	-0.2218	-0.0159	0.206	1357.4694	0.147885	-439.128285	-439.119189	-439.118245	-439.162406	33.236	
C	 0.0127247167	 1.4317967335	-0.1340551017	-0.326446
N	 0.0482909985	-0.0076827423	 0.0284741283	-0.356814
C	 0.5965972322	-0.620337586	 1.0939378942	 0.406851
C	 1.2192215751	-0.0424659395	 2.1659075982	-0.351869
C	 1.6581577068	-1.0748200707	 3.0760527223	 0.364575
O	 2.0573596826	-1.0062218194	 4.2263942615	-0.392929
C	 1.4948580104	-2.4354284792	 2.3666325144	 0.054891
O	 1.0198334335	-3.4128592726	 3.2580489257	-0.445101
C	 0.5405821376	-2.1319617097	 1.2030509666	-0.353227
H	 1.0247592949	 1.8493428384	-0.0877812728	 0.146454
H	-0.4161748926	 1.6726539141	-1.1081114004	 0.135246
H	-0.5924931873	 1.9135432967	 0.6442257362	 0.141306
H	-0.4442977292	-0.5739824054	-0.6408431762	 0.254993
H	 1.314695094	 1.015914012	 2.3622537576	 0.09788
H	 2.482449764	-2.7202678127	 1.9650633115	 0.084937
H	 1.3297092296	-3.1150344372	 4.1277922269	 0.289242
H	-0.4702863096	-2.4601595336	 1.4706854926	 0.139022
H	 0.8140329127	-2.6205030964	 0.261672915	 0.110991
72.0124	116.4987	130.4275	184.8902	191.0668	273.7486	349.5084	368.6001	455.3931	467.7407	530.4888	562.1878	602.0372	635.7046	737.3034	818.9275	842.3872	896.9439	970.3993	1034.0959	1064.3347	1124.6207	1156.7044	1169.4458	1182.9652	1210.1954	1233.9179	1285.059	1308.8275	1331.7607	1369.8438	1422.8992	1459.9104	1475.6251	1480.9065	1514.8958	1553.5393	1648.2541	1784.5734	2953.2533	3019.7008	3040.9337	3074.5562	3083.2603	3136.0633	3231.2716	3655.2873	3701.2104
CNC1=CC(=O)C(O)C1	CNC1=CC(=O)[C@@H](O)C1	
InChI=1S/C6H9NO2/c1-7-4-2-5(8)6(9)3-4/h2,6-7,9H,3H2,1H3	InChI=1S/C6H9NO2/c1-7-4-2-5(8)6(9)3-4/h2,6-7,9H,3H2,1H3/t6-/m0/s1
