21
gdb 59580	3.05279	1.20301	1.02522	3.0325	78.05	-0.2404	0.0629	0.3033	1246.5124	0.182123	-424.188138	-424.179193	-424.178249	-424.222028	33.969	
C	 0.1144667843	 1.4073365983	-0.2391082868	-0.407496
C	 0.0054880235	-0.0986050782	 0.0017893646	 0.128807
O	 0.7112259194	-0.488902257	 1.1791120107	-0.43488
C	-1.4386594778	-0.5825007499	 0.0638243543	 0.000514
C	-2.3576660693	-0.4613203833	-1.1973151559	-0.275124
C	-2.7278123454	-1.968228435	-1.0774318692	-0.078618
C	-1.7904801291	-2.896497405	-1.8586985781	-0.073966
O	-0.7887146167	-2.8332967923	-0.8155118993	-0.288647
C	-1.6795895634	-2.1112054969	 0.0644074441	 0.106505
H	 1.1649340126	 1.7102560879	-0.2590314406	 0.124524
H	-0.3480570174	 1.6986646322	-1.1875523275	 0.118148
H	-0.387638074	 1.9671244918	 0.5608648805	 0.100916
H	 0.5088753976	-0.6398474451	-0.8063701376	 0.101391
H	 0.3406573336	 0.0066463054	 1.9182069214	 0.271864
H	-1.9328157981	-0.1330287559	 0.9365355403	 0.056616
H	-3.1945954828	 0.2302079008	-1.0823353852	 0.103281
H	-1.8340566298	-0.2109966074	-2.1256338711	 0.100697
H	-3.7809093852	-2.2322098711	-0.9959578191	 0.075744
H	-2.1630770801	-3.9218362321	-1.9858270598	 0.098917
H	-1.4155470611	-2.5293390202	-2.8227256818	 0.098741
H	-1.8239867407	-2.6277941268	 1.0165978661	 0.072066
72.5327	86.0681	144.9286	225.3914	249.8539	290.7123	335.5462	370.3242	386.1515	467.3607	553.5326	683.9084	760.4216	795.9874	832.6899	886.0753	915.484	928.0907	959.0279	984.0085	998.4471	1021.325	1043.7497	1062.0638	1077.6546	1116.906	1143.9357	1149.3092	1185.025	1186.3422	1215.6614	1248.2654	1273.3556	1275.8561	1300.2947	1316.1809	1327.3017	1361.0387	1390.2909	1402.3091	1425.1221	1482.3757	1491.8067	1495.9272	1522.4405	3001.585	3006.5278	3020.6613	3046.0768	3050.7397	3063.5401	3075.8324	3093.2255	3107.888	3117.3266	3125.5394	3792.6099
CC(O)C1CC2COC12	C[C@@H](O)[C@H]1C[C@H]2CO[C@@H]12	
InChI=1S/C7H12O2/c1-4(8)6-2-5-3-9-7(5)6/h4-8H,2-3H2,1H3	InChI=1S/C7H12O2/c1-4(8)6-2-5-3-9-7(5)6/h4-8H,2-3H2,1H3/t4-,5+,6-,7-/m1/s1
