19
gdb 36489	3.94164	1.02879	0.89494	5.1292	79.01	-0.2498	0.0418	0.2915	1296.3888	0.162001	-382.079941	-382.071911	-382.070967	-382.113017	30.701	
N	-0.0132454682	-1.1597278097	-0.0221621733	-0.315731
C	-0.0004236754	-0.0053485839	 0.0351378094	 0.263105
C	 0.040284894	 1.4533515656	 0.1133944394	-0.355804
C	 1.4725463274	 2.0209721555	 0.0541634588	 0.027942
C	 2.2240821087	 1.6791253269	-1.2605491804	-0.228284
C	 3.1976620263	 2.8560773235	-1.5061694055	-0.216873
C	 2.5173591235	 4.040617973	-0.844663895	-0.02934
N	 1.078684823	 4.1502282654	-1.1800226448	-0.340389
C	 1.4950749853	 3.5410956463	 0.1038061237	-0.062887
H	-0.5410359222	 1.8727963393	-0.7153873813	 0.165614
H	-0.4556011674	 1.7597759821	 1.0420563561	 0.142494
H	 2.0361811859	 1.6428854487	 0.9158767486	 0.090373
H	 2.7305629617	 0.7135195277	-1.2051951998	 0.115691
H	 1.504319915	 1.6244966025	-2.080916197	 0.124029
H	 4.1613839931	 2.6819916902	-1.0129394322	 0.103119
H	 3.3954370324	 3.0141386916	-2.5706840132	 0.108754
H	 3.0744981559	 4.9513276006	-0.6491685217	 0.088453
H	 0.7692289519	 5.1040974581	-1.0123750975	 0.233315
H	 1.264416159	 4.0555756768	 1.0318691454	 0.086419
69.2578	102.3615	159.7244	243.7173	321.917	385.9854	403.1965	455.085	536.296	639.4493	669.51	798.0908	819.9818	841.3478	867.0812	911.0747	935.4423	942.2464	949.9065	989.6815	1021.1354	1061.2906	1084.1729	1094.4093	1127.6162	1167.6437	1182.9401	1229.776	1245.4745	1263.5799	1290.4885	1319.946	1336.5403	1350.3414	1361.0838	1390.0902	1429.35	1468.8919	1483.1225	1496.3678	2359.1634	3034.0749	3039.6148	3040.0311	3072.8328	3084.4232	3087.3985	3121.9423	3152.7393	3165.585	3506.7351
N#CCC1CCC2NC12	N#CC[C@H]1CC[C@H]2N[C@@H]12	
InChI=1S/C7H10N2/c8-4-3-5-1-2-6-7(5)9-6/h5-7,9H,1-3H2	InChI=1S/C7H10N2/c8-4-3-5-1-2-6-7(5)9-6/h5-7,9H,1-3H2/t5-,6-,7+/m1/s1
