20
gdb 36527	3.68493	0.95032	0.80045	4.7556	79.44	-0.258	0.0319	0.2899	1419.677	0.173049	-403.178689	-403.170209	-403.169265	-403.21219	32.071	
N	-0.0941413616	-1.1804108234	 0.0343680054	-0.310886
C	-0.0706001477	-0.0250033794	 0.022715916	 0.26523
C	-0.0182905946	 1.4361573751	 0.0058007109	-0.36318
C	 1.4191029028	 1.9963895851	 0.0073318936	 0.010999
C	 1.4106119607	 3.5259507914	-0.1444829674	-0.216625
C	 2.8358564592	 4.083764384	-0.0223244523	-0.21705
C	 3.4998109894	 3.5587873181	 1.2515871544	-0.065564
O	 3.4887828438	 2.1413869761	 1.2983410017	-0.241782
C	 2.1788507631	 1.612379579	 1.2873139083	-0.080112
H	-0.553497071	 1.7893802156	-0.8831812311	 0.151851
H	-0.5718986565	 1.8135676675	 0.8747488067	 0.149827
H	 1.9609941624	 1.5604160692	-0.8410402568	 0.101997
H	 0.9598095104	 3.8144356571	-1.1010604645	 0.099902
H	 0.780114351	 3.9606776782	 0.6449516285	 0.097232
H	 3.4325471457	 3.7701816218	-0.8871878529	 0.109728
H	 2.8241317104	 5.1793721803	-0.0131322786	 0.099611
H	 4.5505298217	 3.856927577	 1.3053805698	 0.110505
H	 2.985672322	 3.9683240417	 2.1391606976	 0.084824
H	 1.613502614	 1.9704603723	 2.1679807132	 0.0823
H	 2.2811198948	 0.5270060733	 1.3721901176	 0.131194
68.0665	105.6349	166.4052	243.5976	291.6262	347.0169	389.3568	396.5916	434.2568	459.2216	536.9309	612.6987	810.5806	857.354	867.2387	887.812	907.8364	957.3803	992.9679	996.9334	1041.0876	1082.2434	1113.132	1139.356	1165.9274	1199.0295	1225.8655	1241.1149	1298.9334	1308.4303	1331.5776	1350.4804	1353.8388	1376.1123	1383.5615	1405.4955	1425.656	1464.3756	1478.895	1490.4682	1492.2656	1505.3231	2360.5763	2934.9594	2952.8932	3004.7214	3031.6676	3033.0729	3040.5346	3059.8763	3075.517	3080.0299	3089.4549	3093.603
N#CCC1CCCOC1	N#CC[C@H]1CCCOC1	
InChI=1S/C7H11NO/c8-4-3-7-2-1-5-9-6-7/h7H,1-3,5-6H2	InChI=1S/C7H11NO/c8-4-3-7-2-1-5-9-6-7/h7H,1-3,5-6H2/t7-/m1/s1
