21
gdb 97774	4.22394	0.64751	0.61485	1.466	90.93	-0.2266	0.0532	0.2798	1913.9602	0.179576	-387.059487	-387.048803	-387.047859	-387.096048	38.723	
C	-0.0039481093	 1.6271802103	 0.0171407444	-0.362089
C	-0.0043933844	 0.0873572971	-0.0017371291	-0.315551
C	 0.6631911063	-0.4697745179	-1.1740571493	 0.097684
C	 1.2188078101	-0.9035702447	-2.1528648161	 0.056056
C	 1.8729532156	-1.4161684608	-3.321014127	-0.240315
C	 3.2565189322	-2.0700867762	-3.228576231	-0.345617
C	 2.0488286279	-2.9029193061	-3.5589826509	 0.407777
C	 1.515333329	-3.9166078982	-2.5762924662	-0.448188
O	 1.8691473966	-3.2472480656	-4.9093627378	-0.463483
H	 1.0182787147	 2.0151938867	 0.0175633213	 0.12707
H	-0.5146049286	 2.0259458353	-0.8635900733	 0.12801
H	-0.5154511735	 1.998637734	 0.9103012316	 0.11197
H	 0.4828754312	-0.2877720975	 0.9077912963	 0.125005
H	-1.0392526643	-0.2771556899	 0.0411488097	 0.126038
H	 1.7009415297	-0.8591589863	-4.2374274719	 0.117887
H	 3.9489811996	-1.8508693678	-4.0333619536	 0.114686
H	 3.6962397769	-2.1596763256	-2.2415924739	 0.118282
H	 1.585592836	-3.5468513504	-1.5509033614	 0.13071
H	 0.4653907745	-4.1358196565	-2.793365848	 0.129209
H	 2.0815605551	-4.8537757784	-2.6425372319	 0.10448
H	 2.4359551447	-4.0043344015	-5.0965399919	 0.280378
32.3748	75.0724	94.0364	151.5779	200.6971	219.3795	266.098	297.2226	311.5046	361.9118	381.3758	433.5851	494.9376	506.9451	551.2255	704.0443	724.3091	787.4702	860.694	904.9191	922.4131	952.8785	983.9966	1024.7905	1056.412	1080.8913	1090.5069	1100.7071	1105.2267	1200.8108	1238.9568	1286.7702	1297.7871	1344.856	1354.0602	1402.223	1409.2852	1416.6773	1473.4303	1477.0027	1484.1023	1494.4066	1503.1835	1506.183	2359.6276	3015.0452	3028.2404	3041.0473	3043.4379	3094.8149	3116.2838	3123.2382	3129.2372	3136.1713	3151.2165	3231.9924	3787.6272
CCC#CC1CC1(C)O	CCC#C[C@H]1C[C@]1(C)O	
InChI=1S/C8H12O/c1-3-4-5-7-6-8(7,2)9/h7,9H,3,6H2,1-2H3	InChI=1S/C8H12O/c1-3-4-5-7-6-8(7,2)9/h7,9H,3,6H2,1-2H3/t7-,8-/m0/s1
