25
gdb 111684	2.29494	1.26083	1.09256	0.1744	92.07	-0.2554	0.0781	0.3335	1321.5512	0.230634	-352.366055	-352.356569	-352.355625	-352.400196	36.889	
C	-0.1840519143	 1.680722041	 0.1231303997	-0.374795
C	-0.0161655124	 0.1788413945	 0.3910609159	-0.212503
C	-1.3176637057	-0.5762573425	 0.1882086957	 0.019598
C	-1.8270953132	-1.1359508157	-1.1230227796	-0.065009
C	-0.8424938438	-1.4540841662	-2.2459092031	-0.223619
C	 0.2262810841	-2.3956348964	-1.6356411825	-0.23607
C	-0.4129181961	-3.0248424965	-0.3704601228	 0.04384
C	 0.5942917429	-3.3696652284	 0.7310935324	-0.401293
C	-1.5335809775	-2.0692221488	 0.0356532204	-0.092048
H	 0.7517727242	 2.2227630879	 0.2925040651	 0.107266
H	-0.4986192579	 1.863394508	-0.9097777233	 0.118552
H	-0.9450367553	 2.1158129266	 0.7806959573	 0.111725
H	 0.7792497144	-0.2097648275	-0.2487859716	 0.099205
H	 0.3268159545	 0.0334738158	 1.4240738605	 0.096083
H	-2.1187203542	-0.1231601912	 0.7728361899	 0.075229
H	-2.8465795039	-0.9004850389	-1.4117027335	 0.07296
H	-1.3860503916	-1.9654193971	-3.0486275506	 0.097625
H	-0.3934683754	-0.5607310073	-2.6954146556	 0.094842
H	 0.5471990667	-3.1626020517	-2.3472724049	 0.092456
H	 1.1291960814	-1.8408867559	-1.3640065703	 0.102505
H	-0.9091646162	-3.9584450889	-0.6712883201	 0.068941
H	 1.1233138061	-2.4764273025	 1.0786782931	 0.11668
H	 0.0971123768	-3.8202374818	 1.5967327432	 0.108717
H	 1.3435344961	-4.0835323898	 0.3708491036	 0.107542
H	-2.3429328295	-2.4994455367	 0.6185653312	 0.071573
74.1027	106.8043	161.1299	198.549	233.9763	238.3464	252.2822	324.9021	388.5085	469.1304	532.6108	638.3236	673.3845	736.7697	748.6148	808.7022	824.1441	840.2973	901.493	945.8705	954.6464	969.7478	990.7596	1008.5488	1049.3397	1058.1636	1071.3577	1095.5458	1114.7797	1137.1227	1148.082	1164.8141	1213.9812	1233.532	1253.6533	1294.3031	1307.3872	1325.1526	1337.2778	1338.8202	1347.7752	1376.3971	1392.4538	1407.6461	1410.9677	1453.8598	1484.9293	1492.7072	1497.497	1498.1172	1499.5006	1506.8095	1513.3519	2995.9089	3020.3358	3028.7305	3029.5953	3030.4669	3051.2545	3059.7232	3082.1778	3089.2386	3091.8376	3093.6987	3102.8094	3104.4191	3113.4444	3140.552	3155.5511
CCC1C2CCC(C)C12	CC[C@H]1[C@H]2CC[C@@H](C)[C@@H]12	
InChI=1S/C9H16/c1-3-7-8-5-4-6(2)9(7)8/h6-9H,3-5H2,1-2H3	InChI=1S/C9H16/c1-3-7-8-5-4-6(2)9(7)8/h6-9H,3-5H2,1-2H3/t6-,7+,8-,9+/m1/s1
