21
gdb 72169	2.36168	2.03997	1.65343	1.6843	79.92	-0.2326	0.0818	0.3145	952.1809	0.185479	-387.09378	-387.086572	-387.085628	-387.124856	30.408	
C	 0.0241051981	 1.4909385406	-0.0940047321	-0.50789
C	-0.0470194758	-0.0065708521	-0.0008308338	 0.452337
O	 0.2791011353	-0.7126161979	-1.2301367914	-0.342343
C	-0.3628803522	-1.8464249649	-0.5761619986	 0.062406
C	 0.6843067057	-2.1817816771	 0.5022490703	-0.223462
C	 0.7162940642	-0.765084039	 1.1493234006	-0.076194
C	-0.2824264253	-0.7403188779	 2.317954777	-0.220134
C	-1.6384013269	-1.0901979934	 1.6260776554	-0.24898
C	-1.3369604498	-0.8599209317	 0.1427753644	-0.065397
H	 1.0465714412	 1.8093479476	-0.3243775143	 0.128775
H	-0.6355268921	 1.8651433437	-0.8820351098	 0.126142
H	-0.2696761413	 1.9551229875	 0.8527902446	 0.120851
H	-0.6955527754	-2.6253809954	-1.2629834243	 0.071472
H	 0.3864756958	-2.9682444353	 1.2020884306	 0.090776
H	 1.6270569823	-2.4646818591	 0.0298043601	 0.105137
H	 1.711013646	-0.3846915337	 1.3856798396	 0.060423
H	-0.0135906282	-1.4428953297	 3.1120702539	 0.096926
H	-0.3279432588	 0.255838311	 2.7728440543	 0.095651
H	-1.9466191756	-2.1220887812	 1.8245498143	 0.102057
H	-2.4512647789	-0.4476294859	 1.9760152235	 0.100129
H	-2.1637908382	-0.5491128462	-0.4958309243	 0.071321
175.4983	213.0016	240.5326	275.4655	404.0438	407.339	522.8086	574.1308	615.2735	694.4252	714.6108	792.5628	829.1253	840.6004	867.9505	882.5178	892.6379	913.0978	955.1439	968.143	981.8958	1011.4359	1056.7324	1074.5907	1086.2093	1114.9796	1146.2027	1158.6022	1201.0167	1203.9707	1218.5257	1270.2738	1275.3753	1287.5222	1296.3911	1309.4533	1330.6522	1344.9028	1378.0742	1416.1543	1477.7258	1485.2182	1487.43	1495.4638	1509.6077	3035.2661	3037.9124	3046.8705	3059.0413	3077.5891	3092.8339	3100.7768	3104.1134	3111.3784	3114.1439	3115.9743	3122.6972
CC12OC3CC1CCC23	C[C@@]12O[C@H]3C[C@@H]1CC[C@@H]23	
InChI=1S/C8H12O/c1-8-5-2-3-6(8)7(4-5)9-8/h5-7H,2-4H2,1H3	InChI=1S/C8H12O/c1-8-5-2-3-6(8)7(4-5)9-8/h5-7H,2-4H2,1H3/t5-,6+,7-,8+/m0/s1
