19
gdb 31233	1.78215	1.64482	0.95007	1.3062	78.79	-0.216	0.0121	0.2281	1272.617	0.159173	-423.055773	-423.046505	-423.045561	-423.0908	33.513	
C	-0.362670158	 1.4770641568	-0.0080224937	-0.365788
C	 0.116881648	 0.0177291545	 0.0764745867	-0.313109
C	 0.783255893	-0.4592310307	-1.1825909728	 0.180491
C	 2.1197389866	-0.6661633236	-1.3808280469	 0.211068
C	 3.3190894753	-0.555117164	-0.4948354564	-0.174722
O	 3.1764898452	-1.253953119	 0.7387611357	-0.405626
O	 2.3490079673	-1.0855993353	-2.6641090057	-0.175669
C	 1.1455512978	-1.1351387776	-3.2885546384	-0.023125
C	 0.1538598598	-0.7679489872	-2.4377159802	-0.268043
H	 0.4771411948	 2.1557863899	-0.186987893	 0.118746
H	-1.0773841694	 1.613316153	-0.8260894385	 0.116557
H	-0.8529260271	 1.7804629287	 0.9224141352	 0.112291
H	 0.8140815114	-0.0989252794	 0.9112147832	 0.125039
H	-0.7431710866	-0.627161146	 0.2978339704	 0.102774
H	 4.1961450579	-0.8974962762	-1.0631570223	 0.111028
H	 3.5048878072	 0.4853673965	-0.2064832347	 0.124349
H	 2.8990505981	-2.1520506849	 0.528253464	 0.282523
H	 1.1646698149	-1.4498060369	-4.319135585	 0.133051
H	-0.9010655463	-0.7243096488	-2.6632887574	 0.108164
49.8907	56.5888	154.0889	156.55	198.1648	253.7343	333.8983	347.6186	423.2589	427.2107	618.1566	654.0928	674.6564	740.7644	770.2719	794.41	831.5187	910.1149	948.7427	971.3147	1040.9348	1047.805	1072.6935	1086.7327	1140.9974	1186.8472	1192.4551	1256.5892	1271.16	1306.7735	1357.6846	1369.979	1406.1241	1420.1623	1449.1152	1491.5807	1496.1689	1501.547	1509.3441	1534.9943	1651.0433	3004.5947	3025.6243	3034.501	3063.1359	3084.1004	3106.7698	3110.5602	3244.9226	3280.2416	3808.5977
CCC1=C(CO)OC=C1	CCc1c(CO)occ1	
InChI=1S/C7H10O2/c1-2-6-3-4-9-7(6)5-8/h3-4,8H,2,5H2,1H3	InChI=1S/C7H10O2/c1-2-6-3-4-9-7(6)5-8/h3-4,8H,2,5H2,1H3
