17
gdb 81896	3.29095	1.22232	1.05035	3.8355	69.87	-0.2467	-0.0299	0.2169	1140.4241	0.134481	-458.938598	-458.929903	-458.928959	-458.972107	32.169	
O	-0.0700791542	 1.4646967553	-0.069612921	-0.426283
C	 0.0175825771	 0.0486515015	-0.0744210832	 0.044137
C	-1.3321467682	-0.6456438906	 0.012752217	-0.085468
C	-2.2091597227	-0.2829398405	-1.1299197209	-0.333887
C	-1.1080916918	-1.2752892463	-1.4096137678	 0.246208
C	-1.4011496478	-2.6737083892	-1.7637607325	 0.049784
O	-2.4604723592	-3.2254721006	-1.5704881605	-0.274597
C	 0.2523835696	-0.5716904072	-1.5034611816	-0.000605
O	 0.4580735282	 0.3606059411	-2.5281717545	-0.435187
H	 0.8037649098	 1.8231175548	 0.1167064609	 0.296986
H	 0.7330673369	-0.309184322	 0.6717485073	 0.084684
H	-1.7102137708	-1.1744845626	 0.8783707747	 0.113014
H	-3.1971432729	-0.7292054307	-1.1121519068	 0.149006
H	-2.1506283074	 0.7013400548	-1.5814304936	 0.128893
H	-0.5449818737	-3.2206739064	-2.2205910179	 0.072185
H	 1.0767602484	-1.2935679891	-1.5180401129	 0.085088
H	 0.1809164885	 1.2140786377	-2.1655859465	 0.286043
77.514	111.8738	176.1522	203.8081	234.7747	267.2504	310.0979	371.4127	497.614	526.2575	576.8256	654.4904	728.3708	747.6521	782.4193	836.0441	909.8895	948.5258	989.2357	1015.129	1054.0413	1073.3898	1088.4777	1103.7211	1134.4838	1189.5106	1219.6422	1234.3053	1262.3609	1293.3244	1337.8227	1399.746	1423.5722	1429.496	1433.2236	1485.9653	1796.736	2870.4374	3043.2365	3064.3518	3139.8115	3200.4644	3232.0454	3731.9286	3822.7187
OC1C2CC2(C=O)C1O	O[C@H]1[C@H]2C[C@@]2(C=O)[C@H]1O	
InChI=1S/C6H8O3/c7-2-6-1-3(6)4(8)5(6)9/h2-5,8-9H,1H2	InChI=1S/C6H8O3/c7-2-6-1-3(6)4(8)5(6)9/h2-5,8-9H,1H2/t3-,4+,5+,6+/m1/s1
