14
gdb 56726	2.87249	1.2903	1.06261	3.4482	67.94	-0.2847	-0.0024	0.2823	1112.0259	0.097962	-436.622302	-436.61341	-436.612466	-436.656382	31.987	
O	 0.8002092703	 1.4989631607	-0.1383445913	-0.399325
C	 0.2113308509	 0.2303791799	 0.0177739956	-0.087291
C	 0.3933955833	-0.5981124812	-1.1945324421	 0.277357
N	 0.5341799374	-1.2352692464	-2.1477559178	-0.325352
C	 0.7646615467	-0.4627689941	 1.2730197976	 0.127427
C	 1.3040446998	-1.8376887919	 1.2403264605	-0.204232
O	 2.1789717325	-0.7105238185	 1.1744358485	-0.265332
C	 0.2976529494	 0.1054505452	 2.5131206418	 0.282387
C	-0.1294493062	 0.5839578109	 3.5285813646	-0.366342
H	 1.7582233977	 1.3701757802	-0.1286740722	 0.309018
H	-0.8613573581	 0.4032535271	 0.1501880095	 0.152851
H	 1.336784625	-2.394809306	 2.1738267291	 0.136728
H	 1.2243087875	-2.4235444857	 0.3281280262	 0.153431
H	-0.4941236062	 1.0073218096	 4.4324208899	 0.208676
39.9409	125.2826	163.8899	189.4248	227.8149	270.9639	346.2183	420.6136	448.6688	495.8485	551.5586	564.8142	617.6659	641.1361	684.5921	757.5184	875.499	882.9296	964.1997	972.3219	1079.9639	1133.8467	1180.4518	1196.9822	1273.348	1321.1812	1371.3936	1424.0311	1515.6461	2245.2166	2358.7701	3078.1109	3104.1374	3203.8686	3498.8472	3773.4363
OC(C#N)C1(CO1)C#C	O[C@@H](C#N)[C@]1(CO1)C#C	
InChI=1S/C6H5NO2/c1-2-6(4-9-6)5(8)3-7/h1,5,8H,4H2	InChI=1S/C6H5NO2/c1-2-6(4-9-6)5(8)3-7/h1,5,8H,4H2/t5-,6+/m0/s1
