13
gdb 8786	4.60411	1.33626	1.0424	3.4509	62.96	-0.2522	-0.1172	0.135	1053.4859	0.094294	-394.800659	-394.791937	-394.790993	-394.834876	28.884	
C	-0.1309029288	 1.4301579213	-0.0068066264	-0.31315
N	-0.0584522988	-0.0099513204	-0.1314654249	-0.309662
C	 0.6562594533	-0.6095716825	-1.1082833971	 0.296775
N	 1.3223003188	 0.0353456003	-1.9960355251	-0.538663
C	 0.5792022614	-2.1177598602	-1.0324013672	 0.267368
O	-0.0477688246	-2.7202041508	-0.1966982675	-0.282806
C	 1.3387450347	-2.8392111086	-2.0719837359	 0.243755
N	 1.9209652786	-3.4407637269	-2.8697588876	-0.302369
H	 0.8655076746	 1.8607680969	 0.1403588247	 0.148016
H	-0.5551678788	 1.8803334193	-0.9108346415	 0.147996
H	-0.7604364617	 1.6794082433	 0.8486482679	 0.130669
H	-0.5441109364	-0.6108643744	 0.5131389542	 0.268805
H	 1.7918522478	-0.5972565274	-2.6421636635	 0.243265
49.209	72.4654	123.0964	139.2426	230.2612	279.3273	321.9894	387.4627	439.4493	491.104	491.7969	660.3301	794.6366	804.0818	849.0986	978.8852	1151.94	1161.0643	1186.0865	1197.7854	1332.9621	1459.141	1473.6826	1512.366	1561.2832	1699.8336	1777.8188	2338.9893	3034.1086	3086.8135	3141.8567	3502.2986	3659.7662
CNC(=N)C(=O)C#N	CNC(=N)C(=O)C#N	
InChI=1S/C4H5N3O/c1-7-4(6)3(8)2-5/h1H3,(H2,6,7)	InChI=1S/C4H5N3O/c1-7-4(6)3(8)2-5/h1H3,(H2,6,7)
