17
gdb 27672	2.80549	1.27649	0.88386	2.5012	90.44	-0.1744	0.0134	0.1878	1281.7445	0.135455	-380.884673	-380.875267	-380.874323	-380.918506	34.982	
C	 0.02479379	 1.5421350405	 0.0676629682	-0.5207
C	 0.0048011315	 0.0459581296	 0.0454638169	 0.199877
C	-0.0182754944	-0.7482446086	-1.0917595615	 0.088783
N	-0.0076654212	-2.0776633743	-0.6672657949	-0.364898
C	 0.016923509	-2.12556315	 0.6947725198	 0.314106
N	-0.0487981993	-3.3578407732	 1.3578759437	-0.614863
C	 0.0326596279	-0.827360922	 1.1679257203	-0.293189
C	-0.0370601098	-0.4063920118	-2.4537356638	 0.259566
C	-0.0597741278	-0.1241342838	-3.6276836764	-0.475753
H	 0.9272571914	 1.9270319272	 0.5572211741	 0.123357
H	-0.0042459098	 1.9449864916	-0.9479006445	 0.133656
H	-0.8339759835	 1.946502167	 0.6162626936	 0.124388
H	-0.1430744553	-2.8687440409	-1.2727054483	 0.261497
H	 0.7046747889	-3.9873893612	 1.1011324829	 0.246608
H	-0.0351134878	-3.2320061898	 2.361615168	 0.251511
H	 0.0797458795	-0.5379700045	 2.2072600698	 0.08435
H	-0.0741631593	 0.1337082142	-4.6569394378	 0.181705
100.2872	133.8277	136.3958	180.3195	206.8866	265.8846	312.5031	386.17	414.6882	441.3734	481.2756	541.3327	574.6565	618.3885	659.0894	681.4885	684.3357	753.1948	782.6529	812.184	998.7498	1037.0827	1061.3631	1121.6858	1153.0813	1199.4981	1238.0112	1333.7725	1412.5871	1452.7255	1484.8837	1485.7971	1503.0804	1553.1224	1625.7133	1657.6511	2211.0502	3024.4046	3071.4777	3116.978	3238.468	3505.1475	3509.6543	3615.7081	3679.0476
CC1=C(NC(N)=C1)C#C	Cc1c([nH]c(N)c1)C#C	
InChI=1S/C7H8N2/c1-3-6-5(2)4-7(8)9-6/h1,4,9H,8H2,2H3	InChI=1S/C7H8N2/c1-3-6-5(2)4-7(8)9-6/h1,4,9H,8H2,2H3
