22
gdb 122268	2.66888	0.84719	0.71691	2.885	83.72	-0.2468	-0.0234	0.2234	1674.9215	0.192398	-404.34263	-404.332298	-404.331354	-404.37877	37.061	
C	 0.0750848116	 1.4781025333	 0.1564397026	-0.3829
C	-0.0369193885	-0.0135955242	-0.1686770349	-0.162931
C	-1.4398639937	-0.5773767182	 0.0796731026	-0.165978
C	-1.5484749986	-2.0722653383	-0.2568950267	-0.301386
C	-2.925030992	-2.6539294634	-0.0078466395	 0.225058
C	-3.0654537853	-4.0448854415	 0.5391832118	-0.279763
N	-3.4122763166	-2.8997660004	 1.3731336337	-0.343668
C	-4.0262475209	-2.2128751884	-0.9176785143	 0.147504
O	-3.8623288357	-1.5900719203	-1.9372820759	-0.268279
H	 1.0852538382	 1.8537314683	-0.0339155783	 0.111822
H	-0.6200553793	 2.0674074697	-0.4514337237	 0.119171
H	-0.1600060824	 1.6737833444	 1.2087290012	 0.11263
H	 0.2367533469	-0.1819753557	-1.2184982081	 0.100621
H	 0.6936187299	-0.5760948529	 0.4286772622	 0.089723
H	-1.7169706701	-0.4140750008	 1.1305710691	 0.088239
H	-2.1681869348	-0.023362105	-0.5227463117	 0.122548
H	-1.298776757	-2.2221098157	-1.3137059374	 0.121734
H	-0.8108289459	-2.6386910967	 0.326633659	 0.087929
H	-3.9042237313	-4.6703005302	 0.2446064457	 0.127388
H	-2.1385555987	-4.582445123	 0.7210330946	 0.125259
H	-2.6602867056	-2.6960546362	 2.0277021858	 0.240296
H	-5.0364417402	-2.5253256948	-0.5715211081	 0.084981
57.0015	75.9845	113.9853	127.7176	144.3838	220.7232	239.8969	296.4113	305.7232	356.3432	406.1621	491.3448	545.8473	731.7996	768.0668	803.6573	817.2447	888.3958	909.6821	931.5377	964.6618	978.2892	1027.4986	1050.7038	1067.1169	1068.6459	1121.0134	1126.0425	1141.5949	1238.3361	1247.1193	1285.9723	1305.9904	1330.6529	1333.7356	1366.0327	1386.0662	1401.2559	1413.7994	1428.2317	1469.331	1486.404	1497.3286	1498.8841	1507.3032	1512.3406	1819.7961	2894.1395	3008.5705	3012.7253	3019.2245	3029.9077	3042.2439	3063.0793	3082.1361	3097.0095	3102.8014	3105.8127	3192.3139	3497.1453
CCCCC1(CN1)C=O	CCCC[C@]1(CN1)C=O	
InChI=1S/C7H13NO/c1-2-3-4-7(6-9)5-8-7/h6,8H,2-5H2,1H3	InChI=1S/C7H13NO/c1-2-3-4-7(6-9)5-8-7/h6,8H,2-5H2,1H3/t7-/m0/s1
