12
gdb 21128	5.05917	1.77438	1.39506	2.3339	63.69	-0.2448	-0.0849	0.1599	837.0072	0.083711	-406.920053	-406.913326	-406.912381	-406.951197	24.031	
C	 0.1341181707	 1.3947663349	 0.0588937975	-0.337806
N	 0.1254608721	-0.0548403175	-0.0079816771	-0.240814
C	 0.3781978212	-0.6405681842	-1.0971229836	 0.435903
N	 0.6180450932	-0.0136335569	-2.3515040621	-0.19082
N	 1.4273131101	-0.583636829	-3.1212202367	-0.0283
N	 1.953257233	-1.7705598407	-2.6678983502	-0.174008
N	 1.1493802193	-2.6183102971	-1.9163427148	-0.025907
N	 0.3414854509	-2.0645593765	-1.1421369172	-0.160623
H	 0.9291327223	 1.7036927291	 0.7472796266	 0.142535
H	 0.272373195	 1.9008061616	-0.9015080661	 0.14154
H	-0.8103433645	 1.7173630436	 0.5100216831	 0.144123
H	 2.4368597668	-2.2718652673	-3.4032649794	 0.294177
108.6996	131.0221	235.1691	258.5202	441.7192	458.9611	557.2147	609.7035	682.9339	689.5414	758.5336	819.6634	871.5095	974.552	1046.8937	1115.4642	1126.3127	1135.9847	1200.3296	1371.9035	1430.1662	1485.9665	1490.6307	1571.2512	1616.3378	1751.6324	3025.2393	3086.3383	3106.759	3585.9249
CN=C1N=NNN=N1	CN=c1nn[nH]nn1	
InChI=1S/C2H4N6/c1-3-2-4-6-8-7-5-2/h1H3,(H,3,4,5,8)	InChI=1S/C2H4N6/c1-3-2-4-6-8-7-5-2/h1H3,(H,3,4,5,8)
