17
gdb 45174	2.96294	1.94755	1.6608	2.8205	72.65	-0.2333	0.012	0.2454	867.0795	0.139606	-417.966574	-417.960362	-417.959417	-417.996924	26.115	
N	-0.0645923644	 1.2798732075	-0.1482200561	-0.546743
C	-0.0391505922	 0.0263630808	 0.0038145003	 0.411758
O	 1.120897884	-0.706666536	 0.0944055053	-0.258416
C	 0.896710664	-1.9996156648	 0.6788317976	 0.067726
C	 0.0267714587	-1.8084396927	 1.9366460567	-0.19054
N	-1.2007202813	-1.9467667346	 1.086408832	-0.151722
C	-0.3588931477	-2.7011446804	 0.057549243	-0.003116
C	-1.0364952952	-1.9346767349	-1.0733864669	-0.245019
C	-1.2654436643	-0.8468850242	 0.0155758272	-0.074523
H	 0.887253326	 1.654209938	-0.1658132686	 0.221708
H	 1.8635116887	-2.5039031657	 0.7064871447	 0.090831
H	 0.0669955047	-2.6534180583	 2.6297855397	 0.11839
H	 0.1445422506	-0.8692825394	 2.4851717552	 0.124962
H	-0.3575667733	-3.7929783718	 0.0976538338	 0.0819
H	-0.461737043	-1.6584436885	-1.9582473825	 0.122303
H	-1.9723729612	-2.4179064147	-1.3589108535	 0.124374
H	-2.1775804241	-0.2542415502	 0.0194847021	 0.106129
142.73	327.7674	357.5103	408.8718	454.7494	527.1125	595.8935	678.1039	745.9233	773.3654	801.8123	826.9256	862.3827	905.616	910.7183	962.1306	974.4748	978.6905	987.8814	1045.1249	1054.8662	1072.8681	1109.4977	1131.5178	1188.4401	1202.5447	1233.8904	1237.8098	1257.6387	1277.8049	1293.5098	1317.5058	1330.2303	1388.6432	1478.6797	1488.1703	1768.2226	3052.7729	3077.362	3086.8244	3106.3475	3113.7853	3142.0156	3145.9446	3455.3738
N=C1OC2CN3C2CC13	[NH][C]1O[C@H]2CN3[C@H]2C[C@H]13	
InChI=1S/C6H8N2O/c7-6-4-1-3-5(9-6)2-8(3)4/h3-5,7H,1-2H2	InChI=1S/C6H8N2O/c7-6-4-1-3-5(9-6)2-8(3)4/h3-5,7H,1-2H2/t3-,4+,5-/m0/s1
