23
gdb 79572	2.04038	1.64098	1.4649	0.2464	89.71	-0.2464	0.0912	0.3376	1119.2063	0.205019	-351.125937	-351.116616	-351.115672	-351.159029	36.735	
C	-0.0486748753	 1.5528315613	-0.0274681027	-0.421925
C	 0.0968997168	 0.0481414047	 0.0692014697	-0.060418
C	 1.3737750717	-0.711914257	-0.1986028913	-0.128787
C	 2.5830657193	-0.0146179941	 0.3730103882	-0.106681
C	 3.1777421263	-0.8429421111	 1.4837889318	-0.339733
C	 1.9420046423	-0.0218073945	 1.7715460481	 0.303894
C	 1.919582702	 1.0374507894	 2.842166678	-0.502272
C	 0.7224136979	-0.7340773815	 1.2052144963	 0.276502
C	 0.0069892446	-1.8591033341	 1.9051134024	-0.49944
H	 0.8490086314	 2.0739239092	 0.3115380086	 0.123316
H	-0.23330223	 1.8533228211	-1.0652576218	 0.111673
H	-0.8930657201	 1.9092696177	 0.5736178721	 0.110956
H	-0.7698463043	-0.4804206262	-0.329181376	 0.076007
H	 1.4123957372	-1.5303513267	-0.911012212	 0.077389
H	 3.1357514164	 0.7936663359	-0.0943188815	 0.080624
H	 3.130215155	-1.9283407029	 1.4365568923	 0.100628
H	 4.0979156483	-0.4590807847	 1.9168200796	 0.101486
H	 2.8875371252	 1.5440709615	 2.9187683545	 0.114631
H	 1.1565876456	 1.7983769743	 2.6493380761	 0.118454
H	 1.7050452498	 0.5979001718	 3.8241544114	 0.1171
H	-0.6064999004	-1.4864291417	 2.7349402388	 0.116269
H	-0.6601871529	-2.3948989845	 1.2218901392	 0.114972
H	 0.7145041233	-2.5861404279	 2.3201846283	 0.115354
160.641	177.4645	186.9112	194.087	215.4585	232.4743	248.8599	319.1385	366.6562	430.9298	519.9363	593.6217	614.9372	654.986	734.4633	780.1528	834.4748	874.4251	909.7186	933.0375	954.136	975.8152	988.506	1025.0192	1050.8073	1068.0043	1093.4018	1098.493	1112.2681	1121.4715	1127.1527	1155.465	1196.3479	1231.1217	1284.0257	1320.0791	1333.765	1371.3382	1409.1633	1411.9125	1420.2764	1460.4849	1485.4255	1487.0592	1494.0603	1495.0804	1498.4232	1502.9377	1506.715	3017.0835	3022.5873	3029.0986	3073.1339	3079.716	3082.0787	3092.3108	3098.4619	3102.589	3103.4834	3128.4964	3153.19	3162.5406	3187.0405
CC1C2C3CC3(C)C12C	C[C@H]1[C@H]2[C@@H]3C[C@]3(C)[C@@]12C	
InChI=1S/C9H14/c1-5-7-6-4-8(6,2)9(5,7)3/h5-7H,4H2,1-3H3	InChI=1S/C9H14/c1-5-7-6-4-8(6,2)9(5,7)3/h5-7H,4H2,1-3H3/t5-,6-,7-,8-,9-/m0/s1
