23
gdb 94310	2.26007	1.45925	1.13249	1.4145	86.26	-0.2458	0.07	0.3158	1216.7597	0.204449	-388.272516	-388.262802	-388.261858	-388.306406	38.003	
C	-0.040692438	 1.5208490237	 0.1904719593	-0.44784
C	-0.0600477475	 0.0044508978	 0.1292140647	 0.276384
C	-1.4013460328	-0.5682394022	-0.2980697679	-0.467886
C	 1.1920640803	-0.6911404794	-0.360345385	-0.399259
C	 0.8276311803	-0.7579930165	 1.0966766775	 0.272478
C	 1.5873413646	-0.1622510521	 2.2957447055	-0.301386
C	 0.8986320535	-1.2140598899	 3.2098040245	-0.251884
C	 0.4957280714	-2.0110866799	 1.9409988647	 0.082908
O	-0.7658366635	-2.6319536813	 1.8863356964	-0.425509
H	 0.949420134	 1.9090473978	 0.4448223539	 0.115433
H	-0.3240353165	 1.9463116325	-0.7795784355	 0.114837
H	-0.7510427204	 1.9010894335	 0.9351054695	 0.108381
H	-1.662644416	-0.2083825287	-1.3005559507	 0.110847
H	-1.3927187256	-1.6591976155	-0.3130576088	 0.138514
H	-2.2066012163	-0.2464532119	 0.3758909208	 0.098026
H	 1.0731532289	-1.5962507191	-0.9501744979	 0.10819
H	 2.0442200822	-0.0812638952	-0.6478917769	 0.102442
H	 2.6693363973	-0.309980196	 2.2231971449	 0.102683
H	 1.3996004719	 0.8864879508	 2.5370355563	 0.101341
H	 1.506412366	-1.7274801856	 3.957929391	 0.099728
H	 0.012432276	-0.7992360229	 3.7024218976	 0.092057
H	 1.2139869236	-2.8111203294	 1.730460958	 0.091274
H	-1.4314055237	-1.9658863404	 2.0881452581	 0.278243
77.4389	135.0397	185.6443	197.0165	243.4372	272.3511	294.2804	354.9838	384.0887	390.3785	426.9089	457.6024	531.3731	574.0775	664.5471	722.6071	777.3526	867.5569	884.3591	921.7312	941.0206	960.3984	970.8554	994.4976	1033.2809	1045.866	1064.9716	1108.9169	1118.0905	1153.88	1164.5301	1202.7359	1228.1425	1238.669	1261.185	1279.6777	1289.4881	1321.9889	1398.8759	1407.7049	1424.0228	1434.7669	1476.9322	1482.4878	1485.0188	1491.593	1499.8484	1504.1598	1516.2669	3011.4839	3019.9819	3044.0185	3050.9425	3053.1359	3063.6805	3075.7316	3097.7666	3104.5385	3107.7797	3114.5491	3134.3019	3189.9977	3812.0304
CC1(C)CC11CCC1O	CC1(C)C[C@]21CC[C@H]2O	
InChI=1S/C8H14O/c1-7(2)5-8(7)4-3-6(8)9/h6,9H,3-5H2,1-2H3	InChI=1S/C8H14O/c1-7(2)5-8(7)4-3-6(8)9/h6,9H,3-5H2,1-2H3/t6-,8-/m1/s1
