22
gdb 15191	8.56212	0.6373	0.62198	0.9473	80.12	-0.2497	0.0912	0.3409	1854.6887	0.19916	-350.18358	-350.17387	-350.172926	-350.219086	34.176	
C	 0.0145223648	 1.3478178739	 0.128827927	-0.22615
O	-0.0181753984	-0.0557826997	 0.1953878095	-0.230244
C	-1.3001158613	-0.5884720633	-0.0593629031	-0.050083
C	-1.2283544875	-2.1062359013	 0.0310640932	-0.188373
C	-2.5793505781	-2.7816696702	-0.2350690974	-0.20834
C	-2.5106297349	-4.2920944881	-0.1539450397	 0.0381
C	-2.6430029809	-4.9929408596	 1.1755235919	-0.253866
C	-3.7434879421	-5.1039982049	 0.14727316	-0.278173
H	 1.039531489	 1.6639360718	 0.338715865	 0.124581
H	-0.273681011	 1.7185907318	-0.8683715481	 0.100427
H	-0.6577616022	 1.8101578469	 0.869932943	 0.100359
H	-2.0303933655	-0.1933798148	 0.6696797958	 0.079967
H	-1.6513670612	-0.2781954549	-1.0599595282	 0.080368
H	-0.481837882	-2.4634580868	-0.6888344126	 0.103122
H	-0.8604437985	-2.3840970995	 1.0255198695	 0.108202
H	-3.322248656	-2.4174488935	 0.4880153653	 0.090254
H	-2.9492741758	-2.4843127742	-1.2264348776	 0.094863
H	-1.8095459098	-4.7421104819	-0.8533905511	 0.080161
H	-2.0277181198	-5.8645710683	 1.3693291956	 0.109705
H	-2.8315082962	-4.381361596	 2.0524247763	 0.108131
H	-4.6683236919	-4.5683190806	 0.3364320851	 0.107817
H	-3.8784323208	-6.0512112467	-0.3633271796	 0.10917
54.5369	69.4521	102.0455	117.5351	143.7915	232.4879	236.171	296.5243	378.2696	418.8306	507.4044	755.1027	775.151	809.7425	834.6271	870.9682	925.7799	960.8246	993.5642	1038.9799	1057.5423	1062.9657	1077.324	1096.0708	1141.3272	1165.5391	1176.0971	1198.7022	1202.4006	1224.0017	1228.855	1242.3941	1281.3291	1304.9349	1316.4744	1368.0916	1420.7347	1428.3296	1469.5198	1481.2116	1484.5923	1484.9013	1498.8275	1506.8769	1509.1371	1533.1673	2935.2017	2959.3843	2965.0246	3003.4169	3004.7224	3032.7224	3035.8364	3078.9624	3109.9245	3126.7045	3129.0091	3133.2557	3204.3181	3219.6015
COCCCC1CC1	COCCCC1CC1	
InChI=1S/C7H14O/c1-8-6-2-3-7-4-5-7/h7H,2-6H2,1H3	InChI=1S/C7H14O/c1-8-6-2-3-7-4-5-7/h7H,2-6H2,1H3
