13
gdb 27751	2.45945	1.49115	0.92869	5.5883	68.07	-0.2182	-0.0343	0.1838	1149.1448	0.089731	-489.937906	-489.930045	-489.929101	-489.970324	28.959	
N	 0.0222079888	 1.2703593712	 0.1430164847	-0.584884
C	-0.0460736632	-0.075184898	 0.03596569	 0.500687
N	-1.1403397942	-0.8000874879	-0.0475232389	-0.424594
C	-0.6596260759	-2.0793724998	-0.0747351731	 0.299862
O	-1.4780390257	-3.1289147726	-0.1571452035	-0.40642
C	 0.7144245528	-2.1045163848	-0.0117382229	 0.125805
O	 1.0986603498	-0.7540227068	 0.0606613722	-0.200692
C	 1.6900222592	-3.1515210961	-0.0152277429	 0.046818
O	 2.8970367714	-3.0071988945	 0.0394257895	-0.316812
H	 0.9074578238	 1.7066434574	-0.056704427	 0.283506
H	-0.8082060853	 1.7814935895	-0.1056725552	 0.28363
H	-2.380796132	-2.7857156741	-0.1805340111	 0.314247
H	 1.2185526105	-4.1567527336	-0.076149112	 0.078847
127.2127	150.8095	221.1204	253.7099	306.6575	387.2939	403.0479	423.7656	442.1845	444.9811	592.3478	653.7847	710.6352	717.0427	774.1928	867.7722	1013.5111	1048.2992	1076.4009	1135.1234	1231.3166	1325.1026	1391.4949	1451.5382	1492.3152	1588.9617	1677.1875	1693.0764	1764.7798	2890.6385	3609.4502	3730.6213	3791.0686
NC1=NC(O)=C(O1)C=O	Nc1nc(O)c(o1)C=O	
InChI=1S/C4H4N2O3/c5-4-6-3(8)2(1-7)9-4/h1,8H,(H2,5,6)	InChI=1S/C4H4N2O3/c5-4-6-3(8)2(1-7)9-4/h1,8H,(H2,5,6)
