19
gdb 108693	2.09717	1.31884	0.85639	2.1891	81.8	-0.2482	-0.0583	0.1898	1338.9824	0.159114	-423.052463	-423.043308	-423.042363	-423.087072	33.048	
O	 0.8461080616	-0.7558650526	 0.9582824698	-0.406886
C	 0.0669622127	-0.0314838767	 0.0102511732	-0.182774
C	-1.3655106611	-0.4814570008	 0.0078726235	 0.202184
C	-2.4872296787	 0.2558520182	 0.1504562711	 0.136151
C	-3.7353004629	-0.6016674663	 0.1234849452	-0.301427
C	-3.2181517894	-1.9630320175	-0.4006390106	-0.223429
C	-1.6965516226	-1.9522884659	-0.1206670216	-0.281872
C	-2.5645081424	 1.7034856268	 0.3528988962	 0.056188
O	-3.609319152	 2.3040103694	 0.4976100546	-0.270392
H	 0.5099265982	-0.541335675	 1.8349505577	 0.287855
H	 0.1576531719	 1.0515463179	 0.1606678867	 0.105293
H	 0.5180895354	-0.2605300603	-0.9633355703	 0.126359
H	-4.157317303	-0.6801311307	 1.1340249575	 0.116156
H	-4.5212580695	-0.1652764289	-0.4987979463	 0.123942
H	-3.7265037742	-2.8154318231	 0.0558229289	 0.103978
H	-3.3874219586	-2.0267505733	-1.480245486	 0.110054
H	-1.1049614953	-2.4429072154	-0.9021360639	 0.113161
H	-1.4397677841	-2.4689019292	 0.8136845935	 0.121041
H	-1.596677616	 2.2486970532	 0.3720169908	 0.064417
54.9882	119.3349	126.7579	154.157	203.5513	243.8356	299.2913	358.5472	392.3651	510.1174	523.9083	634.4342	676.6462	754.3562	850.3268	885.2091	914.8308	929.7345	990.7889	1014.6033	1025.3022	1060.2494	1068.8058	1144.06	1175.7677	1207.6873	1223.2142	1236.5515	1269.9889	1321.7895	1328.4813	1368.6831	1378.9031	1408.374	1429.6815	1473.3986	1485.2317	1494.4871	1504.4862	1684.7899	1770.6629	2894.1136	3020.8359	3024.0072	3027.0343	3049.5946	3058.3957	3064.0286	3088.8826	3107.0617	3810.6267
OCC1=C(CCC1)C=O	OCC1=C(CCC1)C=O	
InChI=1S/C7H10O2/c8-4-6-2-1-3-7(6)5-9/h4,9H,1-3,5H2	InChI=1S/C7H10O2/c8-4-6-2-1-3-7(6)5-9/h4,9H,1-3,5H2
