19
gdb 70186	3.37532	1.3279	1.12758	2.492	74.97	-0.2288	-0.0211	0.2077	1123.901	0.15869	-423.035973	-423.027691	-423.026747	-423.068731	32.267	
C	-0.2543490711	 1.5384073289	 0.0833904359	-0.44916
C	 0.0151676113	 0.0567715859	 0.0733137762	 0.441317
C	-0.7930960748	-0.8720430729	 0.9476187734	-0.372346
C	 0.685438782	-0.6277153888	 1.2304798134	-0.101124
C	 1.7027229576	-1.7006906227	 0.8873310721	-0.314712
C	 1.3642398154	-2.466593325	-0.3834853976	 0.338069
O	 1.6802058077	-3.6181603151	-0.5619927315	-0.302089
C	 0.5853274143	-1.7045286552	-1.4600464214	-0.187555
O	 0.4174637952	-0.3246060495	-1.2249169574	-0.291578
H	 0.6319795725	 2.0889141514	-0.2475905348	 0.127295
H	-1.079318421	 1.784255804	-0.5926244963	 0.127477
H	-0.5171503111	 1.8761726225	 1.0891752116	 0.116933
H	-1.5232441166	-0.4232645755	 1.6121772124	 0.117403
H	-1.0874628005	-1.8486141222	 0.5787280399	 0.12234
H	 0.9289462431	-0.0292258444	 2.1034455793	 0.091378
H	 2.6806493823	-1.2279289842	 0.7116439292	 0.135741
H	 1.8437259817	-2.4284441414	 1.6925195457	 0.130951
H	 1.1305462291	-1.7980882598	-2.4041173709	 0.143372
H	-0.3795000571	-2.2188256761	-1.5964130392	 0.126292
64.3887	191.0911	203.844	220.0993	297.4078	353.0833	384.3157	449.9521	474.8725	499.9119	572.8446	651.6358	677.4252	740.9272	807.1116	858.9887	890.6934	907.7553	933.2765	978.4517	1041.1357	1064.7373	1082.0177	1120.1009	1128.7605	1143.4528	1188.2281	1228.5157	1255.4499	1260.8408	1300.5047	1330.0688	1370.7253	1407.5473	1429.4715	1452.329	1464.5359	1478.1151	1492.358	1510.0863	1821.7646	2981.9586	3009.384	3039.6559	3081.3781	3088.4325	3106.2595	3122.4269	3135.5864	3146.2374	3216.8987
CC12CC1CC(=O)CO2	C[C@]12C[C@H]1CC(=O)CO2	
InChI=1S/C7H10O2/c1-7-3-5(7)2-6(8)4-9-7/h5H,2-4H2,1H3	InChI=1S/C7H10O2/c1-7-3-5(7)2-6(8)4-9-7/h5H,2-4H2,1H3/t5-,7+/m1/s1
