23
gdb 120742	3.01592	0.86513	0.78566	2.093	83.14	-0.2383	0.078	0.3163	1593.6379	0.202989	-425.403405	-425.392601	-425.391657	-425.44009	39.349	
C	 0.1036964953	 0.8173043612	 0.4570292672	-0.383182
C	 0.0399394182	-0.1146580037	-0.7506582099	-0.045335
O	-1.2249322286	-0.7349619991	-0.9416624983	-0.248612
C	-1.5096812169	-1.7692980644	-0.0505152173	 0.126418
C	-2.3277077988	-1.514167845	 1.1935573845	-0.331993
C	-2.9354907817	-2.2326963176	 0.0071014081	-0.074323
C	-3.9999400606	-1.5450938722	-0.8282335072	 0.133484
C	-4.0744536084	-2.129729222	-2.2392610905	-0.403523
O	-5.2710415388	-1.5711233158	-0.1799448033	-0.435016
H	 1.0758278044	 1.3208842189	 0.4860709443	 0.113717
H	-0.6774422182	 1.5807983817	 0.3940254993	 0.124679
H	-0.0228812071	 0.2707909372	 1.3950522696	 0.129747
H	 0.2211373756	 0.449517339	-1.6711800244	 0.107054
H	 0.823505823	-0.8857811538	-0.6773532442	 0.088333
H	-0.7247973928	-2.5259766985	 0.0046071001	 0.081218
H	-2.1013827839	-2.0729350504	 2.095628495	 0.106129
H	-2.6661104999	-0.4974521205	 1.3603901827	 0.124072
H	-3.0772657353	-3.3084780834	 0.1028071386	 0.073514
H	-3.7495940411	-0.4830168804	-0.900885154	 0.095704
H	-4.2860226604	-3.2064428725	-2.2069354635	 0.0972
H	-4.8700041788	-1.6428733055	-2.8100596429	 0.118124
H	-3.1233019569	-1.9866530617	-2.7603581349	 0.131254
H	-5.5410846382	-2.4929438917	-0.1044730792	 0.271339
44.0406	51.5635	105.1406	120.5724	201.4487	232.8766	257.8881	277.1836	313.4311	354.7275	368.391	386.5344	473.0854	519.3157	613.3334	767.9905	796.377	827.6742	841.4807	892.77	927.0306	974.987	995.6506	1024.5154	1053.0359	1080.686	1083.7035	1107.4393	1118.8737	1140.3293	1161.665	1191.4979	1207.6066	1241.6851	1279.8567	1330.5424	1333.4878	1382.9717	1397.8037	1400.2634	1414.2274	1422.9467	1429.7779	1482.3033	1486.1854	1490.2007	1495.4122	1497.1044	1512.7444	2979.9412	3022.2732	3040.9513	3071.8435	3074.5847	3079.2731	3097.991	3110.3228	3114.2283	3122.7585	3126.4061	3131.305	3220.8586	3798.6117
CCOC1CC1C(C)O	CCO[C@H]1C[C@H]1[C@@H](C)O	
InChI=1S/C7H14O2/c1-3-9-7-4-6(7)5(2)8/h5-8H,3-4H2,1-2H3	InChI=1S/C7H14O2/c1-3-9-7-4-6(7)5(2)8/h5-8H,3-4H2,1-2H3/t5-,6+,7+/m1/s1
