17
gdb 31291	2.0007	1.62049	0.94738	1.2265	86.38	-0.2115	-0.016	0.1956	1234.9057	0.135095	-384.69687	-384.688156	-384.687212	-384.730798	32.292	
C	-0.4272896837	 1.5650327308	-0.1123525545	-0.36814
C	 0.0919566976	 0.1268096547	 0.0561676992	-0.321009
C	 0.7565058242	-0.4088591736	-1.1755946536	 0.146195
C	 2.0888221029	-0.7066907504	-1.3277099602	 0.142435
O	 2.3312324207	-1.1624300733	-2.6011226178	-0.178037
C	 1.1457879297	-1.1506382366	-3.2508997024	-0.028067
C	 0.1510743107	-0.7028519785	-2.4398468952	-0.252632
C	 3.1733832721	-0.6256204447	-0.4381034085	 0.265033
C	 4.0902729886	-0.5497100906	 0.3406221686	-0.437778
H	 0.3929467965	 2.2508501749	-0.3444816984	 0.126152
H	-1.1571972667	 1.6312643982	-0.9254190587	 0.117792
H	-0.9131425564	 1.9105938198	 0.8052816054	 0.114517
H	 0.8034484848	 0.0878254351	 0.8872420603	 0.117472
H	-0.7453766176	-0.5273476679	 0.3308274855	 0.110382
H	 1.1717442012	-1.4885697554	-4.2741732948	 0.136976
H	-0.8905127573	-0.5964424974	-2.7014729729	 0.115378
H	 4.9001274729	-0.4837589453	 1.0240221881	 0.193329
45.0338	134.8898	152.24	171.9035	220.1277	322.8189	371.4308	461.023	515.6438	536.8571	590.6012	626.6552	672.7109	690.7225	725.6631	770.5956	793.7614	831.8453	910.2892	964.5576	1037.3672	1071.3951	1087.5791	1124.4145	1192.0725	1233.7121	1274.9456	1308.0008	1360.4716	1408.7013	1438.875	1484.3507	1497.6618	1505.4599	1521.9824	1623.2948	2225.6746	3025.8327	3037.7107	3075.7024	3109.2264	3114.632	3248.9113	3280.1326	3502.21
CCC1=C(OC=C1)C#C	CCc1c(occ1)C#C	
InChI=1S/C8H8O/c1-3-7-5-6-9-8(7)4-2/h2,5-6H,3H2,1H3	InChI=1S/C8H8O/c1-3-7-5-6-9-8(7)4-2/h2,5-6H,3H2,1H3
