15
gdb 20247	4.04152	3.12903	2.5368	1.3175	69.82	-0.1966	-0.0152	0.1814	611.6733	0.12116	-325.40414	-325.398973	-325.398029	-325.432823	22.389	
C	-0.20954808	 1.2695967106	 0.0829478952	-0.193716
N	 1.3282049878	 1.274211666	 0.07374536	-0.100945
C	 2.0809534239	 0.2944541001	 0.8350752378	-0.039909
C	 1.4929204902	-1.2647391614	 0.6355001586	-0.080533
C	 0.0919361589	-1.1080758515	 0.3275836526	-0.097846
C	-0.0500559745	-0.1037007851	-0.5959153027	-0.054986
C	 1.3559124255	 0.3056733141	-1.0859074226	-0.011883
C	 2.3810723766	-0.570181981	-0.3558745104	-0.127111
H	-0.6888812207	 1.2985396685	 1.0640869568	 0.114671
H	-0.5380188652	 2.1115896021	-0.5323418074	 0.1155
H	 2.6029960717	 0.5125211285	 1.7548524924	 0.11399
H	 1.9178535802	-1.9863352227	 1.3242058771	 0.093284
H	-0.6653316489	-1.3130602409	 1.0787098337	 0.091411
H	 1.5242013991	 0.7150071943	-2.0809276391	 0.080216
H	 3.3182908754	-0.9558926115	-0.733804932	 0.097859
337.6636	382.3446	489.6105	529.8088	634.1977	711.959	743.0514	749.4439	796.6575	834.8765	859.3843	875.6816	892.9712	943.3977	955.1243	966.6591	1010.8142	1022.9141	1046.5772	1055.1564	1100.5287	1108.7718	1168.005	1177.2876	1228.6992	1236.9965	1249.3935	1279.4615	1324.8009	1372.1711	1499.9659	1514.714	3056.2798	3118.6627	3122.3583	3163.7671	3185.6341	3203.3306	3234.0545
C1N2C3C4C=C1C2C34	C1N2[C@H]3[C@H]4[CH][C]1[C@@H]2[C@@H]34	
InChI=1S/C7H7N/c1-3-2-8-6(3)5-4(1)7(5)8/h1,4-7H,2H2	InChI=1S/C7H7N/c1-3-2-8-6(3)5-4(1)7(5)8/h1,4-7H,2H2/t4-,5-,6+,7-/m0/s1
