18
gdb 74082	2.9316	1.43097	1.04872	5.0189	81.97	-0.2106	-0.0232	0.1874	1160.854	0.14769	-401.984031	-401.975616	-401.974672	-402.01692	32.161	
C	 0.0137031756	 1.4907418955	 0.0842177013	-0.495845
C	-0.0328475288	 0.0034984014	-0.0391629776	 0.348429
C	-0.0637978032	-0.7521808442	-1.1730053488	-0.357005
C	-0.0342345032	-2.1565556373	-0.7982443571	 0.369405
O	-0.04791719	-3.1680800228	-1.4775123033	-0.387977
C	 0.004660154	-2.1492127587	 0.7188304879	 0.239071
C	-0.6622447619	-3.2682663244	 1.4796156333	-0.292375
C	 0.8362056656	-3.1685752114	 1.4583596213	-0.306675
N	-0.0872351694	-0.7644188577	 1.1080480045	-0.411408
H	 0.8945453571	 1.8100138578	 0.6548471241	 0.13483
H	 0.0556319537	 1.9607374743	-0.8993191742	 0.147031
H	-0.8689732466	 1.8635591902	 0.6152813081	 0.148375
H	-0.1100868185	-0.3778463634	-2.1840208685	 0.105518
H	-1.1822973129	-3.0076532424	 2.394466829	 0.117132
H	-1.1278134599	-4.0319132879	 0.8656583452	 0.144329
H	 1.3870193182	-3.8654501938	 0.8353280322	 0.144325
H	 1.343602433	-2.8476741409	 2.3627070798	 0.11087
H	 0.4093039171	-0.4442377543	 1.9271003129	 0.241972
109.5449	117.5256	177.5758	223.8766	232.4175	297.9325	414.6445	458.6436	481.7032	557.0732	607.474	616.4482	726.7796	744.488	780.8023	808.5244	905.7694	919.4419	953.9827	976.2375	1006.2063	1023.5382	1058.5962	1065.9625	1084.1147	1134.1442	1179.4816	1201.588	1281.3186	1304.2655	1387.1018	1418.0002	1443.6637	1448.3586	1478.4797	1482.7541	1490.7989	1630.3731	1780.69	3031.4463	3085.4955	3125.5394	3134.9217	3142.5748	3215.7806	3234.7573	3252.8951	3594.8188
CC1=CC(=O)C2(CC2)N1	CC1=CC(=O)C2(CC2)N1	
InChI=1S/C7H9NO/c1-5-4-6(9)7(8-5)2-3-7/h4,8H,2-3H2,1H3	InChI=1S/C7H9NO/c1-5-4-6(9)7(8-5)2-3-7/h4,8H,2-3H2,1H3
