18
gdb 55645	3.04168	1.02882	0.94212	5.9192	74.56	-0.2511	0.0158	0.267	1289.3678	0.145718	-439.090453	-439.080854	-439.07991	-439.124661	35.983	
C	-0.0466130456	 1.5698383321	-0.0958721876	-0.404753
C	 0.0464412697	 0.0337623816	-0.0277550506	-0.016324
N	 0.8344585863	-0.3291604572	 1.1843339419	-0.532338
H	-0.5432155603	-0.0880735391	 2.283436265	 0.313881
H	 1.107855356	-1.3073935862	 1.1330715837	 0.249677
H	 1.694085076	 0.2119254259	 1.2130860684	 0.248361
C	-1.3617970888	-0.6045571692	 0.1200498604	-0.331562
C	-2.1899595501	-0.1498207577	 1.3320765709	 0.388702
O	-1.5079789912	 0.0497142608	 2.4682293175	-0.370774
O	-3.3831617992	-0.0160078147	 1.2707551182	-0.328603
C	 0.6820208162	-0.4848467733	-1.2463687742	 0.332173
C	 1.2091721142	-0.930208393	-2.2309922218	-0.446635
H	 0.9463876009	 2.0083864022	-0.2320490348	 0.124688
H	-0.6682718761	 1.8727515815	-0.9409318886	 0.144048
H	-0.4845658094	 1.9632391108	 0.8249562442	 0.146773
H	-1.9568701115	-0.4039348424	-0.7714785941	 0.145773
H	-1.2465174338	-1.6937623402	 0.1863079882	 0.131799
H	 1.6735599968	-1.3183591318	-3.1042018167	 0.205113
84.2161	108.3837	131.4029	191.2846	245.4292	277.8909	328.1818	353.91	393.0783	404.109	430.0144	535.5399	568.3811	609.0875	645.1618	658.7705	669.6304	775.1494	870.5662	899.4092	926.7802	946.7345	972.1113	1023.3468	1047.1618	1118.2826	1185.4103	1247.725	1269.1105	1323.4317	1338.3771	1410.3577	1460.6565	1489.955	1492.1909	1496.8322	1649.2329	1860.0713	2229.7345	3042.5929	3048.5601	3122.8296	3132.6838	3140.2965	3256.2637	3487.5148	3497.9325	3567.1081
CC([NH3+])(CC([O-])=O)C#C	C[C@@](N)(CC(=O)O)C#C	
InChI=1S/C6H9NO2/c1-3-6(2,7)4-5(8)9/h1H,4,7H2,2H3,(H,8,9)	InChI=1S/C6H9NO2/c1-3-6(2,7)4-5(8)9/h1H,4,7H2,2H3,(H,8,9)/t6-/m0/s1
