19
gdb 35182	3.30639	1.19548	1.093	1.1956	86.67	-0.2283	0.0519	0.2803	1183.5377	0.158568	-348.676116	-348.667926	-348.666982	-348.708734	32.632	
C	-0.0222262423	-1.1559201282	-0.1143276777	-0.470304
C	-0.0124562437	 0.0464236174	-0.0536796	 0.337059
C	 0.0169222015	 1.4764934933	 0.0073703542	-0.267148
C	 0.5394030993	 2.1806014517	 1.2596218255	-0.370691
C	 1.3507699779	 2.2106899503	 0.0115485205	 0.385235
C	 2.7594192151	 1.6139983413	-0.1792668007	-0.318989
C	 3.121785735	 2.8555675628	-1.0123547992	-0.039014
C	 2.182386288	 3.0064813357	-2.1743391136	-0.278186
C	 1.7151214697	 3.4321485804	-0.8068517825	-0.134498
H	-0.0392523231	-2.2160810345	-0.1635836401	 0.19199
H	-0.7944036855	 1.9787263677	-0.5131971301	 0.10879
H	 0.0215914845	 3.0845259615	 1.5649437782	 0.116254
H	 0.8736656874	 1.5500562477	 2.0766432022	 0.124254
H	 3.3117379354	 1.5514560674	 0.7619389908	 0.106226
H	 2.818186101	 0.648933454	-0.692294045	 0.110322
H	 4.0710006643	 3.3746704483	-0.9725523885	 0.088373
H	 2.4138807627	 3.818458698	-2.8566028773	 0.110231
H	 1.7489539871	 2.130120233	-2.6507630036	 0.113807
H	 1.4148105655	 4.4492859021	-0.5837209533	 0.086288
91.5242	118.4347	169.8427	272.3271	316.9764	375.8513	467.0618	472.3208	520.4465	559.1218	609.8515	647.1184	748.99	782.9911	803.3298	819.0125	884.0171	901.6798	921.9228	949.6941	971.105	985.4182	1027.6938	1053.9896	1059.8708	1076.8949	1086.2133	1099.9707	1120.3756	1149.2797	1197.2712	1213.9955	1252.2633	1289.2986	1312.6777	1353.816	1416.4676	1480.2944	1483.6791	1496.2352	2230.6815	3049.6087	3102.0695	3108.4824	3125.4788	3138.1769	3175.8353	3189.0305	3202.8917	3215.728	3506.0773
C#CC1CC11CC2CC12	C#C[C@H]1C[C@]21C[C@H]1C[C@@H]21	
InChI=1S/C9H10/c1-2-7-5-9(7)4-6-3-8(6)9/h1,6-8H,3-5H2	InChI=1S/C9H10/c1-2-7-5-9(7)4-6-3-8(6)9/h1,6-8H,3-5H2/t6-,7+,8-,9+/m1/s1
