13
gdb 8756	4.33904	1.44187	1.08968	3.8983	63.99	-0.2694	-0.069	0.2004	999.2124	0.093284	-398.609762	-398.601421	-398.600477	-398.642942	28.521	
C	-0.0284044948	 1.483929341	 0.005867098	-0.354236
N	-0.006990121	 0.0206274788	 0.0042308822	-0.155238
C	-0.0043229703	-0.6567425237	 1.2281215147	 0.176377
O	-0.0184127975	-0.0971471177	 2.2965754999	-0.313669
C	 0.0106276458	-0.7254320385	-1.1783739374	 0.316223
O	 0.0288642905	-1.9378934271	-1.2044919779	-0.330072
C	 0.0056107333	 0.0625317459	-2.397322337	 0.201619
C	 0.0024990865	 0.651092338	-3.4458418534	-0.378469
H	 0.857404559	 1.8855463821	-0.49122137	 0.147938
H	-0.9214439102	 1.8596383459	-0.4985386776	 0.147911
H	-0.0373153771	 1.7956266491	 1.0494881337	 0.175924
H	 0.0124874989	-1.7449712691	 1.0914608265	 0.144918
H	-0.000457583	 1.1654409154	-4.3764957917	 0.220773
63.6618	120.6079	148.7946	179.0594	265.815	287.745	322.0358	353.3901	489.9238	522.5843	670.4307	675.6455	706.6855	769.6058	824.924	985.4754	1056.4976	1127.493	1157.3143	1289.7311	1332.2788	1418.8779	1449.8689	1502.2085	1504.521	1758.8378	1809.5439	2225.3045	3059.9006	3077.1384	3128.4739	3169.858	3492.9081
CN(C=O)C(=O)C#C	CN(C=O)C(=O)C#C	
InChI=1S/C5H5NO2/c1-3-5(8)6(2)4-7/h1,4H,2H3	InChI=1S/C5H5NO2/c1-3-5(8)6(2)4-7/h1,4H,2H3
