17
gdb 33970	2.29357	1.81284	1.22612	2.167	80.21	-0.2283	0.0093	0.2376	1040.3149	0.13556	-380.757006	-380.749081	-380.748137	-380.78924	31.13	
C	 0.0193945748	-1.1825208504	 0.0710585447	-0.406981
C	 0.0141937115	 0.0197803151	 0.0084934573	 0.209388
C	-0.0744803097	 1.4398905126	-0.0168185802	 0.092965
C	 0.2573842604	 2.303068244	-1.1814465943	-0.271567
N	 1.1247127505	 2.4090845138	-0.0032301554	-0.16341
C	 0.3684216518	 3.2670441075	 0.9859386773	-0.238984
C	-0.7897060343	 2.2700663662	 1.0375021998	 0.287464
C	-2.2425141693	 2.3643155171	 1.2901426117	-0.314486
N	-1.3284778865	 1.7484375999	 2.2777706394	-0.36357
H	 0.0476939398	-2.2434350229	 0.1145334265	 0.197654
H	 0.741951468	 1.8253810082	-2.0272732343	 0.134885
H	-0.4083051528	 3.1270122009	-1.4337755346	 0.115613
H	 0.9116200194	 3.3207037533	 1.9307543947	 0.131822
H	 0.1623838046	 4.2759451691	 0.6140701741	 0.10982
H	-2.6863691731	 3.3043630196	 1.6067455294	 0.1227
H	-2.8991697733	 1.7211329561	 0.7088451979	 0.118288
H	-1.3851512117	 0.7320121598	 2.2312383059	 0.2384
107.4854	133.979	184.6583	282.5341	318.9819	418.5921	453.3611	481.3791	554.2722	576.2793	596.5605	626.1866	670.7179	752.6217	827.143	858.5871	865.5511	905.2597	944.9995	983.486	999.0373	1046.0064	1088.4626	1111.346	1127.3295	1134.6171	1179.3096	1198.9232	1259.564	1279.5245	1289.4712	1347.9843	1425.4401	1485.7682	1501.7609	1515.7294	2228.2052	3051.5936	3096.7142	3103.1407	3125.73	3189.4096	3199.5185	3477.4296	3499.4271
C#CC12CN1CC21CN1	C#C[C@]12CN1C[C@]12CN1	
InChI=1S/C7H8N2/c1-2-7-5-9(7)4-6(7)3-8-6/h1,8H,3-5H2	InChI=1S/C7H8N2/c1-2-7-5-9(7)4-6(7)3-8-6/h1,8H,3-5H2/t6-,7+,9?/m0/s1
