19
gdb 16152	4.32412	1.61592	1.37738	1.5094	75.51	-0.2245	0.0093	0.2337	963.3467	0.166914	-327.919014	-327.911503	-327.910559	-327.950642	29.351	
C	 0.26834452	 1.4784882514	 0.2381666481	-0.379753
C	-0.1616833122	 0.0464361284	-0.1038679274	-0.252662
C	 0.5126790087	-0.48524754	-1.3477936916	 0.347045
C	 0.1677578447	 0.12231074	-2.7158082621	-0.33245
C	 0.3791439131	-1.0194444116	-3.6880044201	-0.090796
C	 0.7011064747	-2.1528594015	-3.0575031531	-0.076235
C	 0.8287633722	-1.9306415077	-1.5874492059	-0.12301
N	 1.8867540199	-0.9772763673	-1.1622304951	-0.368503
H	 1.353024476	 1.5271262879	 0.3753141286	 0.129463
H	-0.0036997487	 2.181503525	-0.556706491	 0.111608
H	-0.2070223305	 1.8233588157	 1.1614122613	 0.109945
H	 0.0842419006	-0.616427344	 0.7323713041	 0.10488
H	-1.2504457605	 0.0028208373	-0.2383464016	 0.091256
H	-0.8726761947	 0.4754878761	-2.7355374403	 0.111462
H	 0.789804996	 0.9952488816	-2.9536896377	 0.112595
H	 0.2970580846	-0.8949742621	-4.7618897863	 0.097602
H	 0.887384988	-3.1110829144	-3.5284741142	 0.0993
H	 0.6107622997	-2.721369771	-0.8762959242	 0.088164
H	 2.4673594485	-0.7480296139	-1.9674102715	 0.220087
85.1942	159.7793	216.6632	275.4922	346.3062	387.2478	410.0114	519.4056	627.7697	719.8941	747.5631	781.7154	784.4376	864.0299	897.4648	936.9971	953.7349	962.8029	975.7338	991.357	1053.8232	1073.8284	1103.873	1116.444	1136.1857	1173.1026	1187.0559	1258.8944	1279.3649	1299.4911	1332.778	1356.1605	1378.146	1406.0059	1427.0723	1471.0344	1477.623	1499.4446	1508.3764	1660.7919	3011.6532	3024.0492	3034.0867	3041.9764	3071.3387	3102.2848	3111.8133	3157.5725	3186.6219	3211.7557	3470.6111
CCC12CC=CC1N2	CC[C@]12CC=C[C@H]1N2	
InChI=1S/C7H11N/c1-2-7-5-3-4-6(7)8-7/h3-4,6,8H,2,5H2,1H3	InChI=1S/C7H11N/c1-2-7-5-3-4-6(7)8-7/h3-4,6,8H,2,5H2,1H3/t6-,7+/m1/s1
