19
gdb 116545	1.64273	1.2609	0.72644	4.7548	78.25	-0.2279	-0.0152	0.2128	1543.2098	0.157163	-456.360565	-456.350125	-456.349181	-456.397348	36.043	
C	 0.3759054553	 1.3062682585	 0.7179861777	-0.370657
C	 0.0715656699	 0.2413887886	-0.3331786403	-0.122302
N	-1.3264704758	-0.1587986362	-0.2461013638	-0.237968
C	-1.7817377593	-1.033441233	-1.0403877816	 0.313263
C	-0.9741806289	-1.7622865673	-2.1231056306	-0.17136
O	-1.7679760456	-2.5066024939	-3.0387200289	-0.417182
N	-3.1072075906	-1.4733969938	-0.9968232389	-0.339224
C	-4.1436723228	-1.0894874117	-0.1670201191	 0.159132
O	-4.1199325055	-0.2505828311	 0.6935535592	-0.266738
H	 1.4234304293	 1.6202189313	 0.6655718822	 0.100781
H	-0.261061898	 2.1822945872	 0.5670860288	 0.126959
H	 0.1754589512	 0.9185725695	 1.7205321423	 0.128142
H	 0.3089114275	 0.6398340249	-1.3336727121	 0.094026
H	 0.739411205	-0.6218903591	-0.1821811005	 0.097166
H	-0.3353532612	-1.038265891	-2.6416543296	 0.127753
H	-0.3074700053	-2.4822696184	-1.6345464409	 0.149923
H	-2.0815104467	-1.9053461019	-3.7219170679	 0.298321
H	-3.3091797086	-2.1990855503	-1.6717893498	 0.256986
H	-5.05102881	-1.6822005621	-0.410371056	 0.072978
43.4803	61.7667	96.1582	120.3152	170.5734	200.9487	241.5858	275.598	330.7488	343.0218	357.3815	480.1643	531.0198	588.867	737.4025	757.0381	794.8927	844.0306	962.71	972.9722	1024.1115	1066.1042	1098.7283	1108.0202	1127.2985	1163.055	1202.3493	1245.6302	1305.9564	1372.5047	1393.428	1397.0314	1413.9313	1449.5268	1469.6698	1480.9725	1486.5509	1503.0091	1539.331	1741.8783	1843.015	2904.825	2955.5666	2986.3504	3034.8643	3041.634	3076.2346	3114.4316	3123.1058	3583.3218	3823.4775
CCN=C(CO)NC=O	CCN=C(CO)NC=O	
InChI=1S/C5H10N2O2/c1-2-6-5(3-8)7-4-9/h4,8H,2-3H2,1H3,(H,6,7,9)	InChI=1S/C5H10N2O2/c1-2-6-5(3-8)7-4-9/h4,8H,2-3H2,1H3,(H,6,7,9)
