18
gdb 128488	2.01242	1.80595	1.00988	1.3162	75.87	-0.1973	0.0352	0.2324	1180.414	0.147854	-435.276964	-435.267275	-435.266331	-435.311494	34.559	
C	-0.2315207184	 1.4225557622	 0.0755012796	-0.25702
O	 0.0645491577	 0.0375051377	-0.1009423091	-0.288118
C	 0.6719423024	-0.5414175947	 0.9797595756	 0.114807
C	 1.9878102281	-0.9556630932	 1.0665740625	 0.290191
C	 3.0942447588	-0.866086437	 0.0718438925	-0.509857
N	 2.1040731892	-1.5092744383	 2.299944357	-0.279105
N	 0.9475815818	-1.4930660661	 3.0188382028	-0.310839
C	 0.0735026011	-0.9001289839	 2.2166992056	 0.290183
N	-1.2400551766	-0.629733782	 2.6090784123	-0.598414
H	 0.687867456	 2.0093008564	 0.2001488092	 0.111615
H	-0.7512734866	 1.7502162498	-0.827926913	 0.123094
H	-0.874520272	 1.5837409609	 0.9488881887	 0.133823
H	 3.9293910234	-0.257533111	 0.4375844203	 0.132522
H	 3.4927019289	-1.8534208685	-0.1889637188	 0.133349
H	 2.712549366	-0.406121652	-0.8423533019	 0.149494
H	 2.9168766366	-1.9364330515	 2.7066730079	 0.265876
H	-1.4905701784	-1.1570791023	 3.4367013079	 0.249266
H	-1.9026331982	-0.8120661066	 1.8651447309	 0.249136
73.9384	116.309	151.7244	160.021	190.7686	238.3316	247.1078	305.6447	319.1852	381.9916	463.9096	535.2149	582.8218	657.3909	702.3757	734.4529	787.4833	824.2984	994.2128	1041.3501	1055.0113	1062.2746	1109.7858	1180.3318	1203.634	1210.8632	1279.5682	1319.3233	1411.2907	1448.4682	1474.7044	1485.0107	1487.1736	1493.7699	1509.0608	1536.6505	1559.7752	1630.6752	1658.6899	3007.6101	3027.3618	3072.9083	3076.9368	3122.7005	3128.8247	3527.5855	3622.8001	3689.0403
COC1=C(C)NN=C1N	COc1c(C)[nH]nc1N	
InChI=1S/C5H9N3O/c1-3-4(9-2)5(6)8-7-3/h1-2H3,(H3,6,7,8)	InChI=1S/C5H9N3O/c1-3-4(9-2)5(6)8-7-3/h1-2H3,(H3,6,7,8)
