14
gdb 23948	1.9583	1.90762	0.96631	2.4438	89.42	-0.2036	-0.0207	0.183	1140.2277	0.100472	-362.392463	-362.384384	-362.38344	-362.42491	31.062	
C	 0.1441744357	-1.1923397576	-0.0054657929	-0.432642
C	 0.0327431262	 0.0078824381	 0.0025169593	 0.240238
C	-0.071710768	 1.409357602	 0.0115537423	 0.108584
C	-1.1930101543	 2.2463673635	 0.0320200166	 0.085287
C	-0.7110083414	 3.5889746421	 0.0323861894	-0.244757
C	 0.6617110104	 3.5391072361	 0.0126016432	-0.085511
N	 1.0377243697	 2.2247688405	 0.0001743683	-0.314489
C	-2.5419497985	 1.8301217705	 0.0489734935	 0.156355
C	-3.6990337717	 1.4952909385	 0.0635566564	-0.396988
H	 0.2247130727	-2.2509059989	-0.0122202865	 0.190015
H	-1.3221518522	 4.476887787	 0.0458575846	 0.111364
H	 1.3967226241	 4.3274841091	 0.0063966462	 0.131221
H	 1.9822571096	 1.8803856412	-0.0151070901	 0.272008
H	-4.7157083323	 1.1909272378	 0.0761244197	 0.179315
104.6257	153.5956	179.4786	196.2107	425.0429	457.7839	484.2251	502.6822	508.9941	524.2197	548.0753	625.8011	640.1799	652.6881	656.8377	685.0468	709.1916	755.7855	836.6406	915.3174	1066.394	1106.2297	1175.9432	1258.9126	1290.4921	1420.3463	1466.832	1490.8735	1580.7406	2223.1126	2233.0977	3260.2513	3278.9529	3502.1451	3505.573	3680.0101
C#CC1=C(C=CN1)C#C	C#Cc1c(cc[nH]1)C#C	
InChI=1S/C8H5N/c1-3-7-5-6-9-8(7)4-2/h1-2,5-6,9H	InChI=1S/C8H5N/c1-3-7-5-6-9-8(7)4-2/h1-2,5-6,9H
