18
gdb 81628	3.32674	1.09713	0.91471	3.2415	75.77	-0.2197	0.0016	0.2213	1279.1936	0.14635	-439.016883	-439.00842	-439.007476	-439.050848	31.027	
C	-0.1474085593	 1.5538575362	-0.0550554723	-0.343779
N	-0.1158366603	 0.0907102952	-0.0044978878	-0.103501
C	-1.2149796525	-0.6957532815	 0.6836603433	-0.079784
C	-0.2189933548	-1.8890609113	 0.643261457	-0.211782
C	 0.5696653839	-0.6417383018	 1.1329653146	-0.079787
C	-0.6298421997	-0.3985037949	 2.0959816319	 0.177491
O	-0.813501371	 0.8826186018	 2.6715509842	-0.200738
C	-1.1446863273	 0.9600805531	 3.9770956159	 0.161459
O	-1.3170622169	 1.9993925168	 4.5365396573	-0.272259
H	-0.3966786237	 2.0746571772	 0.8729284075	 0.138596
H	 0.8367650014	 1.8940475497	-0.3950029522	 0.119808
H	-0.8713649053	 1.8423588994	-0.8248258552	 0.119809
H	-2.2544953558	-0.6634597125	 0.3553107911	 0.091856
H	-0.3712256336	-2.7094296323	 1.3465441269	 0.099186
H	 0.0435311366	-2.2138128316	-0.3604863602	 0.121815
H	 1.6370815357	-0.5456675815	 1.335059071	 0.091858
H	-0.7991892943	-1.1671183372	 2.8609957062	 0.088055
H	-1.2349056231	-0.0348390447	 4.4549623308	 0.081696
43.7686	136.6044	142.9277	145.1124	270.5924	322.7431	361.9185	398.2964	458.5268	601.3509	732.6026	741.9178	769.4389	797.4422	887.8577	891.8229	937.8146	1014.8188	1037.091	1042.6861	1078.4255	1098.5527	1131.3184	1139.2712	1157.2557	1172.8543	1185.3442	1197.4474	1216.0246	1220.9731	1234.6435	1294.0892	1405.0137	1442.0702	1456.3936	1490.1312	1498.176	1513.9662	1868.8715	2947.7428	3015.5697	3032.0748	3086.7941	3093.1783	3112.3237	3114.5467	3118.7102	3183.1693
CN1C2CC1C2OC=O	CN1[C@H]2C[C@@H]1[C@H]2OC=O	
InChI=1S/C6H9NO2/c1-7-4-2-5(7)6(4)9-3-8/h3-6H,2H2,1H3	InChI=1S/C6H9NO2/c1-7-4-2-5(7)6(4)9-3-8/h3-6H,2H2,1H3/t4-,5+,6-
