18
gdb 49287	3.08367	1.35138	1.03325	5.6772	83.4	-0.2026	-0.021	0.1816	1152.896	0.150131	-401.969593	-401.961823	-401.960879	-402.001925	30.058	
O	-0.1222254079	-0.0378048516	 0.1002400343	-0.315956
C	-0.0199608452	 1.1750448498	 0.1052655217	 0.078344
C	 1.2200940668	 1.9128805846	-0.0174483236	 0.167977
C	 1.1896022536	 3.2698386619	-0.014329844	-0.05959
N	 2.3014279471	 4.04716025	-0.132041032	-0.304616
C	 3.5367345365	 3.5271990999	-0.7242616032	-0.185752
C	 3.7317495139	 2.0477666748	-0.449031196	-0.032808
C	 3.5819710251	 1.4708656306	 0.9305378978	-0.291352
C	 2.5188358868	 1.2056118176	-0.1270356103	-0.130085
H	-0.9252131603	 1.8226736468	 0.1948208325	 0.040048
H	 0.2544123955	 3.804530032	 0.1283113082	 0.117439
H	 2.1554339295	 5.0380815665	-0.2354082133	 0.25087
H	 3.5207094473	 3.6740686674	-1.8154845009	 0.112037
H	 4.374985961	 4.1154092792	-0.331318577	 0.114337
H	 4.4868736672	 1.6004634866	-1.0883077117	 0.093204
H	 4.2343698559	 0.6521879101	 1.213602347	 0.117439
H	 3.3170931995	 2.1388756179	 1.7433681934	 0.120988
H	 2.459491078	 0.1994699158	-0.525100393	 0.107476
90.6021	170.9256	194.6746	239.116	308.764	389.3785	448.2041	464.0309	557.369	591.7336	648.7853	733.6937	762.6848	829.5944	873.3835	908.7031	922.0086	948.2725	1012.463	1026.2737	1054.5566	1075.4298	1086.8257	1129.6782	1134.4665	1217.7452	1230.2093	1270.1418	1283.363	1318.87	1352.9588	1403.8285	1434.904	1446.6363	1488.9847	1507.853	1542.6624	1688.0653	1765.0662	2833.8771	2978.755	3038.142	3132.1964	3152.3192	3170.8383	3183.7326	3220.8454	3636.4952
O=CC1=CNCC2CC12	O=CC1=CNC[C@H]2C[C@@H]12	
InChI=1S/C7H9NO/c9-4-6-3-8-2-5-1-7(5)6/h3-5,7-8H,1-2H2	InChI=1S/C7H9NO/c9-4-6-3-8-2-5-1-7(5)6/h3-5,7-8H,1-2H2/t5-,7-/m1/s1
