15
gdb 129639	3.03707	1.29881	0.94565	2.113	65.02	-0.2086	-0.0017	0.2069	1169.8678	0.112919	-491.064518	-491.055982	-491.055038	-491.09775	31.572	
N	-0.0979268604	 1.4127403041	-0.1093608601	-0.622464
C	-0.060892952	 0.0187925499	-0.073656212	 0.003978
C	-1.0785853656	-0.8822241835	 0.0311228057	 0.340518
C	-2.5583409357	-0.6917295012	 0.0454565024	-0.189327
O	-2.9652005954	 0.303238998	-0.8938604846	-0.409154
O	-0.5828080678	-2.145075523	 0.1054119511	-0.233165
N	 0.8065864507	-2.089771993	 0.0529646497	-0.260657
C	 1.0941516529	-0.8161600267	-0.0517815125	 0.422309
O	 2.3547305466	-0.3553083448	-0.1420045978	-0.427165
H	 0.6851895157	 1.8136930322	-0.6083614087	 0.253836
H	-0.9779143019	 1.7545768913	-0.4755846928	 0.256211
H	-3.0514060399	-1.657813496	-0.1292673271	 0.1247
H	-2.9011321546	-0.3192152883	 1.0174420787	 0.13814
H	-2.720503592	-0.0135245205	-1.7705294367	 0.289616
H	 2.9500421694	-1.1159396886	-0.1133126553	 0.312624
77.0132	128.714	192.4193	248.0811	283.9124	313.0159	361.7798	394.4885	429.0563	450.7929	515.2181	594.788	648.7333	711.3103	730.8834	786.3496	806.897	957.1319	983.3026	1022.6887	1053.1533	1170.619	1209.9314	1254.2561	1260.2151	1348.8672	1390.0764	1417.3311	1493.9472	1547.3812	1584.0023	1642.0712	1718.2261	3016.6356	3065.2386	3534.7431	3633.7089	3785.4817	3803.4624
NC1=C(CO)ON=C1O	Nc1c(CO)onc1O	
InChI=1S/C4H6N2O3/c5-3-2(1-7)9-6-4(3)8/h7H,1,5H2,(H,6,8)	InChI=1S/C4H6N2O3/c5-3-2(1-7)9-6-4(3)8/h7H,1,5H2,(H,6,8)
