19
gdb 119186	1.94305	1.19356	0.84309	2.371	77.52	-0.2685	0.0157	0.2842	1407.6413	0.157998	-419.193463	-419.183368	-419.182424	-419.228984	35.771	
C	-0.0068509476	 1.5087795879	-0.1232970199	-0.40645
C	 0.0735734436	 0.0115198203	 0.0417630725	-0.036398
N	 1.3967381804	-0.6150331225	 0.011252253	-0.355171
C	 0.6169836265	-0.6678152241	 1.2723868431	 0.144207
C	 1.1950797886	 0.0745955304	 2.4638269449	-0.252901
C	 2.3498064991	-0.6796143117	 3.1179418691	-0.080288
O	 2.8179175772	 0.127010603	 4.1864357492	-0.420274
C	-0.0062058747	-1.9367026597	 1.592900656	 0.248365
N	-0.4888954959	-2.9572167911	 1.8482749996	-0.347949
H	 0.8493850115	 2.0122927948	 0.3280885793	 0.138515
H	-0.0171597219	 1.7605289907	-1.1888340963	 0.132122
H	-0.9257117017	 1.9001726403	 0.3246217368	 0.130845
H	-0.7335070365	-0.5347102212	-0.444053664	 0.108387
H	 1.3713582254	-1.5117291769	-0.4674966658	 0.250018
H	 1.5625507612	 1.0493159827	 2.13755397	 0.124658
H	 0.410482572	 0.2482188705	 3.2082358607	 0.122943
H	 2.002269949	-1.660658803	 3.4768753271	 0.106602
H	 3.1353759351	-0.856625292	 2.3677392405	 0.103293
H	 3.539266309	-0.3373207083	 4.6205864342	 0.289476
68.6415	89.9865	126.9126	145.726	171.0682	187.8584	250.2016	270.4552	344.9358	392.975	401.744	490.416	573.6281	598.4035	721.2528	783.7574	815.7807	868.0751	975.5278	993.2399	1017.2214	1049.7613	1084.945	1097.2915	1106.4019	1140.2794	1217.6563	1241.1586	1245.5271	1286.183	1310.6812	1323.2357	1365.1873	1409.0628	1453.263	1463.6758	1476.1871	1489.4384	1501.1591	1530.9695	2341.9972	2979.1727	3012.2435	3044.5163	3058.8312	3106.2591	3118.6573	3122.396	3145.5142	3509.9532	3833.4925
CC1NC1(CCO)C#N	C[C@H]1N[C@]1(CCO)C#N	
InChI=1S/C6H10N2O/c1-5-6(4-7,8-5)2-3-9/h5,8-9H,2-3H2,1H3	InChI=1S/C6H10N2O/c1-5-6(4-7,8-5)2-3-9/h5,8-9H,2-3H2,1H3/t5-,6-/m1/s1
