23
gdb 74516	3.38125	1.10139	0.97836	0.3219	93.35	-0.2211	0.0335	0.2546	1345.9747	0.206737	-351.170366	-351.161477	-351.160532	-351.203902	34.733	
C	 0.0028564042	 1.5225854024	 0.0538693446	-0.488455
C	 0.0063028661	 0.0267512069	 0.0286430704	 0.312091
C	-0.3210629374	-0.768924377	-0.9920462706	-0.216244
C	-0.1539812515	-2.2350278664	-0.6889413867	 0.345588
C	-1.243231062	-3.1747397166	-1.2980576889	-0.266688
C	-0.2898668656	-3.4909814958	-2.4789339477	-0.209651
C	 0.8858970103	-2.9500418853	-1.6261425467	-0.257247
C	 0.0633402507	-2.2358659414	 0.8423449426	-0.309868
C	 0.4530721741	-0.7881254702	 1.2259081113	-0.305979
H	 1.0045136246	 1.9181177703	 0.268181043	 0.122484
H	-0.3305316242	 1.9440218729	-0.8985524137	 0.120276
H	-0.6548951432	 1.9051585723	 0.8451418547	 0.122073
H	-0.6398309268	-0.4150288116	-1.968687173	 0.07984
H	-1.4053756784	-4.0511147694	-0.6619922314	 0.093598
H	-2.2147167964	-2.7265961003	-1.5257512824	 0.091445
H	-0.2330028838	-4.5280607828	-2.8178014565	 0.092496
H	-0.4899991173	-2.8575839969	-3.3478611429	 0.100017
H	 1.6278516173	-2.3175072027	-2.1208662673	 0.09232
H	 1.408411683	-3.7525935811	-1.0955486426	 0.093526
H	-0.8809734876	-2.5017934633	 1.3311693901	 0.100092
H	 0.804240327	-2.9769668536	 1.156830189	 0.090906
H	 1.5360882836	-0.6762745434	 1.3807337995	 0.101061
H	-0.0193164767	-0.4565938869	 2.1590074849	 0.096318
81.6812	113.8225	144.1385	188.5774	258.7621	286.4882	381.0574	391.595	441.6476	495.5391	583.3547	672.3762	738.5929	789.4566	835.0543	874.3722	876.4418	892.5665	921.9656	939.6978	944.006	968.0409	992.4321	1022.6797	1029.7746	1053.5897	1100.5814	1103.2635	1180.5118	1186.1264	1212.2151	1216.9859	1245.4021	1252.4322	1271.3814	1275.2497	1294.9209	1302.0871	1325.1471	1366.3124	1414.4259	1472.9431	1479.4054	1480.6841	1484.2889	1489.3788	1498.6894	1505.6293	1721.5939	3001.4644	3013.56	3030.9602	3040.3922	3043.7445	3046.5989	3057.1379	3057.5661	3083.6909	3089.0667	3097.0005	3107.0238	3113.5366	3167.8642
CC1=CC2(CCC2)CC1	CC1=CC2(CCC2)CC1	
InChI=1S/C9H14/c1-8-3-6-9(7-8)4-2-5-9/h7H,2-6H2,1H3	InChI=1S/C9H14/c1-8-3-6-9(7-8)4-2-5-9/h7H,2-6H2,1H3
