17
gdb 111207	2.77875	1.19852	0.9788	1.1876	69.35	-0.2425	-0.0378	0.2047	1215.4498	0.13393	-458.880291	-458.871746	-458.870802	-458.914184	30.941	
O	-0.0113432527	 1.3441023491	-0.1372672974	-0.427195
C	 0.0069416912	-0.0332150614	 0.2235371062	-0.126927
C	-1.412791528	-0.5365984178	 0.08654302	 0.032699
C	-1.9515239772	-0.810287988	-1.3413084308	 0.024355
O	-1.0537963694	-1.9758540157	-1.4505079594	-0.311376
C	-1.6582433626	-2.0605580157	-0.0928605061	 0.009333
C	-3.0355515029	-1.7816461883	-0.7437516722	-0.076447
C	-4.2238447988	-1.279676791	 0.025677997	 0.122169
O	-4.2584690056	-1.0917902613	 1.2171515559	-0.248402
H	 0.8886389479	 1.678471949	-0.0843775569	 0.289175
H	 0.6700699663	-0.6150953443	-0.4279908176	 0.109339
H	 0.3401974024	-0.1671442549	 1.2651770701	 0.087848
H	-2.0917535038	-0.0231350914	 0.7677736447	 0.111957
H	-2.0330511506	-0.1475279649	-2.2019128708	 0.109302
H	-1.3628422715	-2.8968680243	 0.5402521888	 0.104756
H	-3.3331228015	-2.5332851064	-1.4805657221	 0.10522
H	-5.1216136032	-1.0903169427	-0.6066225095	 0.084192
69.8158	96.4943	148.2669	168.3655	234.3648	273.7639	314.9408	407.5979	490.7596	621.6681	701.3651	745.0561	787.5855	812.3396	873.6952	892.6143	923.7659	1008.4471	1022.0962	1045.7567	1071.2296	1099.8806	1105.5042	1128.0222	1147.3695	1182.274	1190.4671	1235.3995	1257.3465	1262.5097	1274.3516	1365.0836	1409.2135	1426.5441	1464.9591	1524.8389	1815.858	2868.5743	2975.1054	3048.244	3082.4421	3121.8151	3126.136	3134.3091	3832.0385
OCC1C2OC1C2C=O	OC[C@H]1[C@H]2O[C@@H]1[C@H]2C=O	
InChI=1S/C6H8O3/c7-1-3-5-4(2-8)6(3)9-5/h1,3-6,8H,2H2	InChI=1S/C6H8O3/c7-1-3-5-4(2-8)6(3)9-5/h1,3-6,8H,2H2/t3-,4-,5-,6+
