16
gdb 42217	3.5131	1.23586	1.05561	1.8573	76.72	-0.2422	-0.0676	0.1746	1138.7109	0.123601	-400.632046	-400.624175	-400.623231	-400.66537	29.379	
O	 0.842407373	 1.1066312239	-1.0185075914	-0.287014
C	 0.086589809	 1.1237111357	-0.0697623279	 0.209905
C	 0.4044979743	 0.4634418382	 1.1830450683	 0.280803
C	 0.6503438298	-0.0740663176	 2.2316790137	-0.425608
C	-1.2399639329	 1.8576608285	-0.0821405249	-0.040158
C	-1.9023083582	 2.2986665356	-1.4022516102	-0.074229
C	-2.2120824904	 0.7981770466	-1.6049971301	-0.176543
N	-2.5264785251	 0.9850830178	-0.1022788071	-0.156483
C	-3.2015676272	 2.2922982976	-0.5658834629	-0.173142
H	 0.8761326853	-0.5572352731	 3.1513827924	 0.21901
H	-1.2585331981	 2.5662906487	 0.7549312164	 0.098099
H	-1.5456139536	 3.0359554918	-2.1263353555	 0.081251
H	-3.0973339582	 0.5382357853	-2.1903500101	 0.104356
H	-1.3866807244	 0.1175639109	-1.8118540162	 0.127564
H	-3.3147359718	 3.0320392605	 0.2313675959	 0.104535
H	-4.1444893914	 2.1201823197	-1.0905582203	 0.107654
36.3387	110.2778	186.2947	219.357	269.3166	428.2101	463.7497	598.7445	628.5827	648.5297	675.3033	713.5276	767.5447	784.2754	866.5945	901.7892	912.5627	916.386	955.1334	1023.8733	1071.6337	1083.0578	1116.913	1121.9994	1162.3588	1198.7937	1199.6139	1224.1409	1247.6212	1280.8653	1395.0735	1516.0807	1553.8162	1759.0804	2211.6519	3037.0162	3052.9888	3067.8075	3079.9896	3122.8092	3150.7262	3494.2499
O=C(C#C)C1C2CN1C2	O=C(C#C)[C@H]1[C@H]2CN1C2	
InChI=1S/C7H7NO/c1-2-6(9)7-5-3-8(7)4-5/h1,5,7H,3-4H2	InChI=1S/C7H7NO/c1-2-6(9)7-5-3-8(7)4-5/h1,5,7H,3-4H2/t7-/m1/s1
