21
gdb 120007	2.44534	1.05261	0.80389	4.0471	78.85	-0.266	0.0134	0.2794	1493.9168	0.181337	-424.270406	-424.260533	-424.259589	-424.305866	35.467	
C	 0.1940096842	 1.564155821	-0.004726953	-0.385722
C	 0.0847173514	 0.0390347148	-0.0678327841	-0.17088
C	-1.340819432	-0.4651563494	 0.1986648398	-0.199498
C	-1.4403390444	-1.9871994844	 0.1010376995	-0.215922
C	-2.8085398138	-2.7177833024	 0.1731849949	 0.117592
C	-4.0920618358	-1.9208395159	 0.2456011705	-0.402922
O	-2.581468791	-3.2584632122	-1.1804538258	-0.257197
C	-1.3858129074	-2.6005933425	-1.3004286051	 0.460821
O	-0.6569121947	-2.584568545	-2.2419230364	-0.331327
H	 1.2203418759	 1.8951296255	-0.1895086432	 0.117341
H	-0.4479137917	 2.0388659555	-0.754976417	 0.11768
H	-0.107530203	 1.9450147606	 0.9776634086	 0.111841
H	 0.4108276438	-0.3219992839	-1.04950817	 0.133248
H	 0.7669240211	-0.4102382572	 0.6660503335	 0.095444
H	-1.6660929571	-0.147880273	 1.1983150563	 0.100591
H	-2.0288417929	 0.0041916928	-0.5145194354	 0.106161
H	-0.6935738145	-2.4507776446	 0.7544067636	 0.109736
H	-2.8224250699	-3.5489981242	 0.8840634086	 0.096974
H	-4.1079608288	-1.1172630478	-0.4948652832	 0.132662
H	-4.949833799	-2.5734254184	 0.0594531958	 0.136429
H	-4.2092186304	-1.4808573992	 1.2413472022	 0.126948
77.8965	79.8498	94.3024	127.1172	213.4468	227.6307	243.7177	276.1609	368.3427	372.0955	474.1809	537.3656	696.163	740.853	752.4163	827.4518	847.0271	879.3595	903.1828	926.1017	1031.3745	1046.9901	1051.8172	1079.8625	1115.3743	1138.5117	1165.5777	1173.4726	1222.1298	1259.2414	1298.2873	1320.9562	1333.349	1364.8986	1386.2745	1396.2032	1414.6101	1415.0536	1481.0999	1489.4026	1495.8094	1497.2124	1500.2076	1512.0339	1923.3537	3016.4283	3022.5781	3030.1752	3044.4624	3049.464	3061.4761	3071.2073	3075.7916	3099.1043	3105.8211	3114.8201	3128.8174
CCCC1C(C)OC1=O	CCC[C@H]1[C@@H](C)OC1=O	
InChI=1S/C7H12O2/c1-3-4-6-5(2)9-7(6)8/h5-6H,3-4H2,1-2H3	InChI=1S/C7H12O2/c1-3-4-6-5(2)9-7(6)8/h5-6H,3-4H2,1-2H3/t5-,6+/m1/s1
