20
gdb 57436	2.46334	1.32377	1.11196	3.8771	79.2	-0.2711	0.0207	0.2918	1188.167	0.169161	-403.156992	-403.147297	-403.146353	-403.191071	36.912	
C	-0.0084381707	 1.5481408211	-0.0460245864	-0.402191
C	 0.0215040273	 0.0206257572	 0.0789556695	 0.338246
C	 0.6686223818	-0.3792502681	 1.4133300613	-0.457274
O	-1.3492684149	-0.3802623094	 0.0530412836	-0.464489
C	 0.7353868889	-0.5439181243	-1.1634083112	-0.016722
C	 2.0740990738	-1.2172021755	-1.1527113802	-0.304305
C	 0.8312613271	-2.0366618919	-1.4683612157	-0.180328
C	 0.334593388	-3.0110914114	-0.5398907804	 0.286642
N	-0.0979563774	-3.7873866845	 0.2032029216	-0.354149
H	 1.0047284003	 1.9541321838	-0.12033557	 0.114754
H	-0.5712992222	 1.8413962842	-0.9367657226	 0.123782
H	-0.5002547268	 1.9862304657	 0.8262743028	 0.123854
H	 0.060535356	 0.024885444	 2.2269569772	 0.128881
H	 0.719499124	-1.4639688599	 1.543797953	 0.14021
H	 1.6798198082	 0.0277440129	 1.5083338103	 0.116316
H	-1.3920654926	-1.3212979124	 0.2608826048	 0.292832
H	 0.5115339555	 0.0310864741	-2.0573585443	 0.1038
H	 2.7635468972	-1.0417072447	-1.9706699502	 0.130305
H	 2.5473068243	-1.4040710269	-0.196689585	 0.142248
H	 0.6781899321	-2.322152244	-2.5036896582	 0.13759
63.195	123.5902	190.504	221.5838	236.2631	281.2359	288.0282	344.6351	358.5109	388.2817	429.9179	463.1672	492.547	564.1377	653.3941	711.9889	773.1022	842.9518	869.5506	927.4735	938.083	978.2424	1001.5672	1015.6898	1048.617	1086.8677	1124.168	1136.6354	1164.3299	1203.1757	1216.8	1273.5229	1354.8662	1377.884	1392.7349	1414.0433	1421.411	1478.0345	1485.9737	1493.8341	1502.2299	1515.0494	2340.8144	3040.9674	3045.7659	3115.5774	3119.3166	3121.7248	3126.3692	3147.095	3150.1581	3168.7567	3240.2612	3788.6593
CC(C)(O)C1CC1C#N	CC(C)(O)[C@H]1C[C@H]1C#N	
InChI=1S/C7H11NO/c1-7(2,9)6-3-5(6)4-8/h5-6,9H,3H2,1-2H3	InChI=1S/C7H11NO/c1-7(2,9)6-3-5(6)4-8/h5-6,9H,3H2,1-2H3/t5-,6-/m0/s1
