15
gdb 26932	2.38962	1.69441	0.99348	2.6464	72.29	-0.1885	-0.0224	0.1661	1110.3433	0.113284	-453.989911	-453.981598	-453.980654	-454.022342	31.556	
N	 0.0037325329	 1.3034254784	-0.1422916712	-0.592068
C	-0.0295098484	-0.0383977636	-0.0596630056	 0.401938
C	-1.1378690128	-0.8802375587	-0.0223370957	 0.044635
C	-2.4784326837	-0.3912488756	 0.0604438802	 0.041477
O	-2.7783965276	 0.8024143506	 0.0482080635	-0.349673
C	-0.5853619646	-2.2233852634	 0.0087311399	 0.128322
N	-1.3459494957	-3.3886814203	 0.1253788262	-0.607127
C	 0.7619831941	-2.0887582637	-0.0047854148	-0.12462
O	 1.1101477055	-0.7252968069	-0.0379316832	-0.190889
H	 0.844496862	 1.7898858078	 0.1210000757	 0.266514
H	-0.9025905481	 1.7386086167	-0.0048514779	 0.290593
H	-3.2758811748	-1.157739044	 0.1551712935	 0.066397
H	-2.1804556715	-3.3781024749	-0.4465275373	 0.250728
H	-0.8177889901	-4.2307764195	-0.0612070692	 0.247269
H	 1.5921089828	-2.771077403	 0.0164286357	 0.126504
147.4916	192.0312	204.3212	247.3625	273.4647	295.6939	355.5564	378.0957	424.6724	536.7002	570.7703	614.9946	627.0055	636.4151	727.1517	760.8966	778.231	806.5387	1008.3333	1024.8966	1072.1154	1128.1188	1156.4285	1257.7715	1324.8954	1400.2	1436.8448	1508.3795	1543.2188	1642.2054	1660.1939	1678.6843	1727.1992	2902.8798	3301.6301	3508.3117	3541.2027	3631.3935	3693.6133
NC1=C(C=O)C(N)=CO1	Nc1c(C=O)c(N)co1	
InChI=1S/C5H6N2O2/c6-4-2-9-5(7)3(4)1-8/h1-2H,6-7H2	InChI=1S/C5H6N2O2/c6-4-2-9-5(7)3(4)1-8/h1-2H,6-7H2
