19
gdb 93876	2.14224	1.6477	1.13416	3.6543	75.06	-0.2508	0.0262	0.277	1131.9117	0.160087	-419.222811	-419.213617	-419.212672	-419.256902	33.711	
C	-0.3964370362	 1.4914843824	-0.0161042185	-0.414452
C	-0.0409676589	 0.0213147218	 0.1082905229	 0.142193
O	 0.5336203639	-0.428591561	-1.1186464548	-0.270988
C	 1.4798604319	-1.4647599546	-0.8753481645	-0.083846
C	 1.4793448027	-1.7376945964	 0.6479907256	-0.007328
N	 2.7020853961	-2.2117581804	 1.2665871224	-0.527606
C	 0.9856063861	-0.3706526786	 1.1985537144	-0.190667
C	 2.0908894964	 0.580619054	 1.3072875083	 0.297868
N	 2.9816506732	 1.3142487714	 1.3807812837	-0.344787
H	 0.4983242842	 2.0950824239	-0.1875308232	 0.148736
H	-1.0774880591	 1.6316931023	-0.8594851024	 0.13283
H	-0.8945922788	 1.8461764056	 0.8915257106	 0.119498
H	-0.955804585	-0.5572405962	 0.3202781675	 0.077759
H	 1.2119331539	-2.3591734409	-1.4515271992	 0.101843
H	 2.4751462543	-1.1320264719	-1.2022809967	 0.106653
H	 0.6920589235	-2.4635572042	 0.8798737759	 0.100859
H	 2.9338243305	-3.1402491445	 0.929456782	 0.236085
H	 3.4815508832	-1.6027919356	 1.0314649498	 0.244938
H	 0.520635108	-0.479036307	 2.1815475961	 0.130412
73.3534	99.2488	139.4749	175.8017	233.5758	262.2577	282.5648	370.8412	427.7465	435.9884	475.9463	591.6738	658.1842	698.5735	833.2445	844.7435	850.5111	899.0088	947.7466	1001.1335	1030.2603	1066.9187	1091.3668	1134.3534	1159.7802	1165.8163	1197.7405	1217.5507	1243.4731	1320.1991	1322.9502	1367.4827	1378.8232	1388.2941	1415.6794	1430.6817	1484.9024	1499.1017	1524.9664	1659.7362	2350.7996	2956.5542	3002.8426	3036.9576	3047.6801	3057.8021	3090.4432	3121.2658	3133.3695	3493.1721	3577.5604
CC1OCC(N)C1C#N	C[C@H]1OC[C@@H](N)[C@H]1C#N	
InChI=1S/C6H10N2O/c1-4-5(2-7)6(8)3-9-4/h4-6H,3,8H2,1H3	InChI=1S/C6H10N2O/c1-4-5(2-7)6(8)3-9-4/h4-6H,3,8H2,1H3/t4-,5+,6-/m1/s1
