18
gdb 56922	2.13875	1.30223	0.966	4.2361	82.13	-0.2682	0.0273	0.2955	1271.3516	0.145844	-364.784711	-364.775224	-364.77428	-364.819402	34.75	
C	 0.1632768546	 1.3895948236	 0.2085326825	-0.391736
C	-0.1784931585	-0.0983306033	-0.0153244838	-0.193229
C	-1.6250317985	-0.2982220923	-0.1093027116	 0.334591
C	-2.8141703176	-0.4406635168	-0.2078961902	-0.461622
C	 0.5171680728	-0.634532242	-1.2619421822	 0.021747
C	 1.9607017331	-1.0301381069	-1.2276452758	-0.307267
C	 0.8921341059	-2.1043167386	-1.3934707586	-0.176956
C	 0.6486141265	-3.0180217482	-0.3125839613	 0.291116
N	 0.4615829472	-3.753286505	 0.5612011586	-0.343123
H	 1.2444821256	 1.5195741371	 0.3117549463	 0.119245
H	-0.180382132	 1.9967054505	-0.6342638148	 0.127578
H	-0.3223739091	 1.7619388324	 1.113634251	 0.133247
H	 0.1874592175	-0.6679914273	 0.849255283	 0.126232
H	-3.8640702832	-0.5839015446	-0.2780438188	 0.199831
H	 0.1591159164	-0.1904507603	-2.1861748171	 0.111926
H	 2.5891452789	-0.8215337931	-2.0854896632	 0.131512
H	 2.4727371008	-1.0020011546	-0.2720777533	 0.14102
H	 0.7841398297	-2.5493690707	-2.3764751208	 0.135888
47.9662	97.5285	137.9074	199.7377	217.7356	237.3924	254.4224	348.5718	392.2953	497.368	533.013	562.4437	634.3619	645.0221	648.6465	770.1776	787.7628	842.1547	882.7314	952.9139	985.062	1000.5501	1076.805	1080.5835	1106.7841	1124.6415	1136.4952	1183.0183	1229.5571	1298.9113	1321.8659	1372.7751	1403.8701	1420.1272	1487.0172	1491.1283	1499.1663	2238.2841	2352.4934	3022.972	3043.5706	3117.1849	3127.4259	3141.9672	3155.097	3173.8046	3232.1692	3504.762
CC(C#C)C1CC1C#N	C[C@@H](C#C)[C@H]1C[C@H]1C#N	
InChI=1S/C8H9N/c1-3-6(2)8-4-7(8)5-9/h1,6-8H,4H2,2H3	InChI=1S/C8H9N/c1-3-6(2)8-4-7(8)5-9/h1,6-8H,4H2,2H3/t6-,7-,8+/m0/s1
