16
gdb 79667	2.69388	1.5572	1.22124	1.531	77.35	-0.2204	0.0142	0.2346	1037.5825	0.122695	-400.609932	-400.602	-400.601056	-400.64195	31.367	
O	 0.0839050446	 1.4617027154	 0.1664944147	-0.410737
C	-0.0389549933	 0.0838094827	-0.0279122143	 0.041145
C	-1.3207465448	-0.6581132002	 0.0290853978	-0.167361
C	-2.454940331	-0.0960091272	-0.8357077729	-0.038092
C	-2.1530020668	 1.138468948	-1.5916106885	-0.256068
N	-1.6511226358	-0.1647361703	-2.0993528284	-0.181025
C	-0.4665711771	-0.6628104453	-1.284567539	 0.058547
C	 0.3481748992	-1.6689110119	-1.8676160722	 0.23923
C	 1.0521299495	-2.5160038344	-2.3542631447	-0.37345
H	 0.9172317875	 1.7394472812	-0.2309757374	 0.294308
H	 0.7547803696	-0.4897187884	 0.4555684482	 0.112428
H	-1.4795521048	-1.4769056844	 0.7191746349	 0.110982
H	-3.4448037247	-0.5381542038	-0.8007246569	 0.106299
H	-2.9507914917	 1.5104589795	-2.2293741978	 0.121306
H	-1.4751575626	 1.8796984129	-1.1988992231	 0.153129
H	 1.6635879422	-3.2669125838	-2.7894558505	 0.189359
133.2983	153.2569	204.9431	277.307	318.7262	412.678	427.589	482.7826	494.836	559.0475	572.8225	668.875	674.106	701.2424	763.7498	778.1187	857.9062	912.6449	947.159	992.236	1005.024	1044.7651	1068.6977	1088.2894	1120.1728	1150.1082	1191.3842	1229.6697	1272.9247	1296.542	1347.2083	1358.3147	1471.7371	1499.3933	2226.0581	3085.4787	3131.2523	3165.8478	3197.8259	3271.9032	3502.9626	3797.8424
OC1C2C3CN3C12C#C	O[C@H]1[C@H]2[C@H]3CN3[C@@]12C#C	
InChI=1S/C7H7NO/c1-2-7-5(6(7)9)4-3-8(4)7/h1,4-6,9H,3H2	InChI=1S/C7H7NO/c1-2-7-5(6(7)9)4-3-8(4)7/h1,4-6,9H,3H2/t4-,5-,6+,7-,8?/m1/s1
