17
gdb 14072	3.50115	1.6742	1.3604	2.0863	70.9	-0.2425	-0.0281	0.2145	954.9901	0.141549	-363.852771	-363.844885	-363.843941	-363.885087	29.146	
C	-0.0497184554	 1.4788235971	-0.1732712468	-0.392718
C	 0.0506622757	-0.0160935647	-0.0052874988	-0.060496
N	 1.3843717753	-0.6080339537	-0.0933050256	-0.378336
C	 0.6978908692	-0.6261333452	 1.1985349649	 0.249688
C	 1.1586609126	-0.0141953922	 2.5319256338	-0.326774
C	 0.478722111	-1.2051164507	 3.2869592357	-0.346621
C	 0.1779309457	-1.8443506245	 1.9143194016	 0.339322
O	-0.2330190767	-2.9081578018	 1.5407786035	-0.318739
H	 0.8197391796	 1.9764458154	 0.2635533469	 0.131574
H	-0.0909626268	 1.7420676854	-1.2354791645	 0.128992
H	-0.9552623921	 1.8659831772	 0.3056969223	 0.120665
H	-0.7744078876	-0.5943740303	-0.420225702	 0.104422
H	 1.3394647665	-1.5416345135	-0.5004397579	 0.246441
H	 2.2449013362	 0.0081331936	 2.6394705408	 0.122557
H	 0.7571379136	 0.9750254412	 2.7594345928	 0.11209
H	 1.1231304301	-1.8050504984	 3.9343817813	 0.13424
H	-0.4259828468	-0.9430030651	 3.8429038417	 0.133693
91.8063	129.7725	174.2286	188.8534	259.401	350.2482	440.2024	504.3428	530.5009	614.2209	728.3436	754.5959	763.9806	865.9345	922.6156	941.552	1003.6322	1031.4232	1041.2712	1071.046	1092.6956	1100.3277	1137.6395	1187.6699	1212.0175	1237.0959	1242.6224	1265.1178	1347.9243	1409.3363	1439.0282	1461.6661	1486.7714	1488.5695	1499.2878	1873.8575	3037.1327	3065.9374	3077.3124	3100.4952	3111.1828	3115.3711	3129.8191	3133.0496	3472.8508
CC1NC11CCC1=O	C[C@H]1N[C@]21CCC2=O	
InChI=1S/C6H9NO/c1-4-6(7-4)3-2-5(6)8/h4,7H,2-3H2,1H3	InChI=1S/C6H9NO/c1-4-6(7-4)3-2-5(6)8/h4,7H,2-3H2,1H3/t4-,6+/m1/s1
