16
gdb 50649	2.68872	1.38475	0.96832	6.1045	66.48	-0.2604	-0.0492	0.2112	1158.0697	0.125213	-475.078832	-475.070861	-475.069917	-475.111975	29.064	
O	-0.0559827711	-0.0416537163	-0.126549611	-0.239804
C	-0.0238646122	 1.1502263372	 0.0324868751	 0.154569
C	 1.2571289202	 1.9650863236	 0.0582234417	-0.049824
C	 1.3724247502	 2.8476787191	 1.3052927661	-0.25336
C	 2.7912087846	 3.3998459894	 1.3331152858	-0.067201
O	 3.7565681572	 2.348963008	 1.3980679862	-0.240423
C	 3.5751197542	 1.2028244484	 0.683984499	 0.469694
O	 4.4164422659	 0.3433956282	 0.7034407431	-0.382078
N	 2.4108059824	 1.1042458948	-0.0417544922	-0.370217
H	-0.9509862496	 1.7534316082	 0.1447504209	 0.095076
H	 1.1845464285	 2.6351052747	-0.8197956649	 0.111133
H	 0.6442620188	 3.6631678635	 1.2730289953	 0.120345
H	 1.1923807009	 2.257399865	 2.2104703231	 0.134553
H	 2.9795242252	 4.017741401	 0.4442551665	 0.117275
H	 2.9681400162	 4.0142452595	 2.2187786245	 0.130702
H	 2.2413044987	 0.1770472957	-0.4064585592	 0.269559
80.1398	114.6623	140.5227	222.6909	269.3749	357.7876	451.4629	488.4943	525.9601	574.7313	667.771	699.6363	760.5589	795.954	891.9763	938.7302	961.3493	992.8149	1044.1092	1113.7345	1121.6657	1208.2014	1222.5182	1264.4371	1299.9354	1315.7196	1362.3174	1367.866	1417.5793	1437.193	1462.4945	1482.6814	1514.5218	1832.6628	1854.0703	2899.2244	2924.1549	3015.6271	3050.3438	3103.6755	3106.9332	3606.0722
O=CC1CCOC(=O)N1	O=C[C@H]1CCOC(=O)N1	
InChI=1S/C5H7NO3/c7-3-4-1-2-9-5(8)6-4/h3-4H,1-2H2,(H,6,8)	InChI=1S/C5H7NO3/c7-3-4-1-2-9-5(8)6-4/h3-4H,1-2H2,(H,6,8)/t4-/m1/s1
