17
gdb 53855	4.34186	0.73953	0.63735	0.5032	76.55	-0.2449	-0.0641	0.1809	1670.7729	0.133601	-418.000287	-417.990297	-417.989352	-418.036162	35.782	
N	-0.0458055982	 1.325853853	 0.2606373513	-0.509428
C	 0.0965281767	-0.0193427707	 0.1151578121	 0.267307
N	 1.2439565896	-0.5847357149	 0.0436661181	-0.513228
C	-1.2564521297	-0.7327520559	 0.0615690452	 0.348886
O	-2.277764622	-0.0806715322	 0.0242778319	-0.315313
C	-1.2662930159	-2.2491475311	 0.0433838889	-0.322296
C	-2.693530487	-2.8208373905	 0.0201750551	-0.366673
C	-2.7002689511	-4.2776768219	-0.0029981081	 0.281222
C	-2.6804554978	-5.4791214726	-0.0218923322	-0.420937
H	 0.7654971976	 1.9049426314	 0.1266970172	 0.263563
H	-0.9624238011	 1.7128210768	 0.1096681595	 0.270715
H	 1.1541087558	-1.5947695575	-0.0254172567	 0.220376
H	-0.7031869808	-2.5984134024	-0.8307216091	 0.150604
H	-0.7167478746	-2.6195386504	 0.9171639172	 0.151033
H	-3.244548967	-2.453677575	 0.8931505662	 0.148301
H	-3.2268935715	-2.4252125817	-0.8510702703	 0.14887
H	-2.6802963729	-6.5407696545	-0.0385603763	 0.196996
48.6361	65.4771	97.0526	99.0229	222.7114	288.7605	310.4929	344.7881	380.0977	414.062	478.9663	523.2601	542.982	613.6006	624.694	648.7829	669.9687	793.3617	803.3555	829.9732	969.2526	1029.0928	1030.2887	1085.8486	1125.7662	1156.8388	1169.644	1293.6487	1300.3112	1375.6059	1431.4589	1453.9007	1470.1295	1590.5599	1715.4326	1786.3181	2242.2651	3037.4719	3048.6933	3065.9465	3086.2476	3507.1266	3529.9998	3605.1154	3736.9129
NC(=N)C(=O)CCC#C	NC(=N)C(=O)CCC#C	
InChI=1S/C6H8N2O/c1-2-3-4-5(9)6(7)8/h1H,3-4H2,(H3,7,8)	InChI=1S/C6H8N2O/c1-2-3-4-5(9)6(7)8/h1H,3-4H2,(H3,7,8)
