17
gdb 15642	3.2961	1.84365	1.2958	3.1043	70.87	-0.2079	0.0006	0.2085	963.1579	0.142524	-363.914627	-363.906756	-363.905812	-363.947505	28.765	
C	 0.0298866673	 1.571392019	 0.1560138993	-0.37626
C	-0.0335934785	 0.0592999417	-0.0763646934	-0.163799
N	-1.3806641586	-0.4764875473	-0.008384202	-0.074873
C	-2.1307622718	-0.6871979131	 1.1604045408	-0.010782
C	-3.3447592641	-1.1787670521	 0.8940928622	-0.156876
C	-3.4728736623	-1.3298380602	-0.5983506963	-0.39086
C	-2.1176212987	-0.8360287284	-1.1278808987	 0.40612
O	-1.7337627626	-0.7627158982	-2.2750023163	-0.385862
H	 1.0653310672	 1.9202012014	 0.0927033497	 0.121227
H	-0.5583815155	 2.1012354559	-0.5983589471	 0.137473
H	-0.3573759592	 1.8415066084	 1.1437912837	 0.118105
H	 0.3341225739	-0.1861497229	-1.076012837	 0.146003
H	 0.5952649399	-0.4669312459	 0.6518946271	 0.109204
H	-1.6824975288	-0.4529855679	 2.1162782392	 0.124047
H	-4.1027791977	-1.4303370135	 1.6192546888	 0.107342
H	-3.638561086	-2.3623261428	-0.9272960433	 0.145088
H	-4.2775290144	-0.7297168042	-1.0390122266	 0.144703
44.3524	104.1969	177.0952	210.8263	312.2333	364.3794	438.9697	503.2048	590.9331	632.5345	691.3599	712.5634	788.7897	860.2013	907.6365	936.422	951.9121	976.0956	1024.9374	1095.2998	1121.3647	1146.5587	1147.7101	1249.5709	1260.956	1295.9618	1377.4801	1392.6517	1408.5491	1425.4912	1436.3129	1481.3571	1492.0328	1502.0121	1668.3062	1813.4551	3032.959	3039.0237	3044.8906	3076.0491	3097.9829	3114.7806	3124.1715	3227.5104	3259.7137
CCN1C=CCC1=O	CCN1C=CCC1=O	
InChI=1S/C6H9NO/c1-2-7-5-3-4-6(7)8/h3,5H,2,4H2,1H3	InChI=1S/C6H9NO/c1-2-7-5-3-4-6(7)8/h3,5H,2,4H2,1H3
