25
gdb 95801	2.24074	1.43751	1.05302	1.1605	88.64	-0.2416	0.0792	0.3208	1288.9104	0.229469	-389.516773	-389.506991	-389.506047	-389.550524	38.312	
C	-0.098173328	 1.5650703754	-0.0680687368	-0.416992
C	 0.0610779091	 0.0432344098	-0.0038146088	 0.029093
C	 0.6858646412	-0.5295501613	-1.2871333381	-0.202579
C	 0.8249025161	-2.0494564587	-1.1860980463	-0.0796
O	 1.5217765844	-2.4429823092	-0.0171916702	-0.25985
C	 0.8773673862	-2.0065358986	 1.1764348623	 0.140324
C	 1.5884042162	-2.6868854868	 2.33842681	-0.415639
C	 0.8376156831	-0.4612004286	 1.2427557112	 0.014196
C	 2.2401829762	 0.1474693062	 1.3961557295	-0.404113
H	 0.8555159961	 2.0688472875	-0.2555144656	 0.117767
H	-0.7792193641	 1.8472184804	-0.8782812177	 0.109267
H	-0.5086744494	 1.9628246403	 0.8668570757	 0.108422
H	-0.9496340526	-0.3855164478	 0.078685215	 0.06486
H	 0.0687173563	-0.2752437386	-2.1577885192	 0.089015
H	 1.6733809009	-0.0834437061	-1.4561563641	 0.10166
H	-0.1774440032	-2.5139184494	-1.196785439	 0.079985
H	 1.3890239676	-2.4562605383	-2.0310145126	 0.101035
H	-0.1707751857	-2.3585334839	 1.1553108047	 0.054124
H	 2.6548546626	-2.4479643167	 2.3410027311	 0.127194
H	 1.1570298085	-2.371135631	 3.2935900584	 0.10987
H	 1.4879061669	-3.7722635816	 2.2538656736	 0.119936
H	 0.2473216215	-0.1895649112	 2.129414908	 0.061117
H	 2.9155854619	-0.206359122	 0.6123959982	 0.126857
H	 2.2099270393	 1.2393484442	 1.3554602609	 0.110346
H	 2.6813558189	-0.1256521339	 2.3586997597	 0.113708
115.8835	153.9746	184.4819	221.4092	226.4198	243.8385	279.5997	317.1007	329.9936	354.0174	420.0995	447.3737	537.0392	579.7213	650.6778	750.4748	812.437	855.7141	883.4855	926.0612	973.5771	981.2449	995.2534	1015.5581	1044.4911	1051.2456	1091.4258	1127.9353	1133.9408	1162.4274	1186.6742	1212.569	1232.0256	1285.9759	1300.423	1334.1509	1341.0235	1356.3408	1379.9136	1386.2035	1393.4035	1410.5857	1411.665	1416.5239	1423.1537	1477.5263	1482.6697	1490.7074	1495.3504	1500.3018	1502.7003	1506.8673	1517.8494	2924.232	2946.9564	2979.016	3004.3549	3024.1552	3028.6055	3044.5252	3050.6159	3065.6381	3078.2319	3092.1152	3097.9872	3112.1778	3116.6173	3123.2522	3125.3943
CC1CCOC(C)C1C	C[C@H]1CCO[C@@H](C)[C@H]1C	
InChI=1S/C8H16O/c1-6-4-5-9-8(3)7(6)2/h6-8H,4-5H2,1-3H3	InChI=1S/C8H16O/c1-6-4-5-9-8(3)7(6)2/h6-8H,4-5H2,1-3H3/t6-,7-,8-/m0/s1
