14
gdb 24005	3.45646	1.4412	1.03045	6.5939	77.7	-0.2408	-0.0319	0.2088	1077.1551	0.104048	-395.74525	-395.738288	-395.737344	-395.777031	25.649	
N	-0.0395471458	-1.180491091	-0.1396991824	-0.348126
C	-0.0886405533	-0.0276008439	-0.0417898855	 0.257891
C	-0.0922623849	 1.3816900693	 0.0898740621	 0.201177
N	-1.1356718825	 2.1946601287	-0.0649938926	-0.29643
C	-0.7012580814	 3.4742919268	 0.1512684395	-0.218893
C	 0.6466333199	 3.4316049655	 0.4472584728	 0.289723
C	 2.0522111945	 3.8989014401	 0.8044838754	-0.376176
C	 2.4338747178	 2.3713691859	 0.7460903849	-0.17133
N	 1.009487737	 2.1269507229	 0.4053208876	-0.05358
H	-1.3750546904	 4.312790385	 0.0801183255	 0.125692
H	 2.5502776002	 4.5197562535	 0.0573502136	 0.143211
H	 2.16421825	 4.3570473056	 1.7890114254	 0.143215
H	 3.1212644668	 2.0805270207	-0.0497599787	 0.151802
H	 2.7327126121	 1.9168805409	 1.6919315224	 0.151822
132.8389	141.8557	142.4902	260.0081	410.6426	517.934	578.5415	602.0801	654.5047	701.2928	715.8287	800.6432	841.4406	843.5073	903.9909	1053.3645	1058.7184	1130.0831	1138.9025	1182.5801	1207.7643	1224.0468	1253.0589	1302.7937	1378.5141	1440.8773	1458.2694	1483.626	1510.8813	1541.7541	2347.6774	3080.3829	3085.9812	3129.0226	3149.0917	3266.8294
N#CC1=NC=C2CCN12	N#Cc1ncc2CCn12	
InChI=1S/C6H5N3/c7-3-6-8-4-5-1-2-9(5)6/h4H,1-2H2	InChI=1S/C6H5N3/c7-3-6-8-4-5-1-2-9(5)6/h4H,1-2H2
