17
gdb 17765	5.41824	1.32105	1.27799	1.443	74.94	-0.2206	0.0483	0.2689	1000.3711	0.141797	-326.604247	-326.597032	-326.596088	-326.63604	28.107	
C	-1.4321323673	 2.5358564095	-2.254571226	-0.454726
C	-0.8474461225	 2.0945955194	-1.3021050347	 0.32868
C	-0.145488498	 1.5789003087	-0.1302715837	-0.322967
N	 1.2009940703	 2.1618867075	-0.0360199589	-0.10221
C	 1.9057287024	 2.1215788736	 1.3141432438	-0.010629
C	 2.8061130014	 3.2503481908	 0.7494966777	-0.207485
C	 1.3346172138	 3.6098936163	 0.4163421881	-0.002972
C	 0.9651811513	 3.2263115305	 1.8783017268	-0.241572
H	-1.9472449075	 2.9156237816	-3.1017417849	 0.195987
H	-0.7875977535	 1.7276240237	 0.7531224059	 0.111228
H	-0.0132420663	 0.4938770102	-0.2321994074	 0.132397
H	 2.2091058287	 1.1785509682	 1.7726534265	 0.081232
H	 3.3165766631	 3.8839944476	 1.4761490761	 0.09451
H	 3.4269209353	 2.9744650903	-0.1027178461	 0.108075
H	 0.9573177012	 4.4306883912	-0.1938755574	 0.091602
H	-0.0700098178	 2.9578629097	 2.0881692798	 0.102786
H	 1.3640772854	 3.8594727713	 2.6754255145	 0.096064
53.3377	124.7346	300.1937	317.5229	352.8788	456.9904	560.8582	603.2023	609.8327	654.791	747.6346	783.5697	809.4872	880.0878	902.8303	907.8621	959.8823	992.1321	999.5198	1034.4449	1065.2083	1066.7505	1117.2335	1118.681	1165.9001	1182.3932	1193.4496	1222.4892	1254.0568	1263.1761	1275.7733	1364.0838	1475.3654	1488.3126	1534.0357	2241.2128	2959.6237	3032.0356	3066.4422	3080.0559	3099.5309	3118.4292	3136.9742	3161.6711	3507.1417
C#CCN1C2CC1C2	C#CCN1[C@H]2C[C@@H]1C2	
InChI=1S/C7H9N/c1-2-3-8-6-4-7(8)5-6/h1,6-7H,3-5H2	InChI=1S/C7H9N/c1-2-3-8-6-4-7(8)5-6/h1,6-7H,3-5H2/t6-,7+
