13
gdb 130962	3.5442	1.11375	0.89349	2.4734	60.31	-0.2552	-0.0461	0.2091	1199.7933	0.088533	-489.918443	-489.910619	-489.909675	-489.952402	26.726	
O	 0.1318154321	-0.16145275	 0.2365348743	-0.21995
C	 0.1022089774	 0.9164263201	-0.2882187269	 0.163416
C	 1.2082414183	 1.9551843525	-0.1115782482	-0.251303
N	 1.227123703	 2.9324216118	-1.1685036658	-0.10578
N	 1.5448311937	 2.5890575903	-2.4705766939	-0.228203
C	 1.4773336797	 3.7074374503	-3.0946483254	 0.107757
O	 1.1439311753	 4.7725636487	-2.3295445719	-0.197898
C	 0.9739432781	 4.2738785761	-1.0327934679	 0.501111
O	 0.6758848367	 4.9242109177	-0.0733021071	-0.390958
H	-0.7445820482	 1.249886684	-0.9279547669	 0.097797
H	 1.0206134366	 2.5078656588	 0.8164434956	 0.183231
H	 2.1721032017	 1.4458807275	-0.0230001099	 0.160877
H	 1.6578615057	 3.8669633423	-4.145181616	 0.179903
47.7126	76.0127	101.3824	244.4593	258.6745	336.9732	425.2704	559.247	639.4506	695.1236	748.0933	754.3792	811.3591	849.0441	945.7965	1001.5584	1024.5443	1038.336	1139.8665	1201.7499	1299.7016	1313.6603	1343.3934	1404.5674	1417.3012	1439.5595	1637.5527	1850.1483	1903.7897	2896.3129	3055.5819	3110.7025	3290.0342
O=CCN1N=COC1=O	O=CCn1ncoc1=O	
InChI=1S/C4H4N2O3/c7-2-1-6-4(8)9-3-5-6/h2-3H,1H2	InChI=1S/C4H4N2O3/c7-2-1-6-4(8)9-3-5-6/h2-3H,1H2
