16
gdb 66966	2.62212	1.74339	1.30968	5.4609	72.16	-0.2393	0.01	0.2493	977.0339	0.125385	-396.850974	-396.843276	-396.842332	-396.883244	29.483	
N	 0.0394472879	 1.4294702334	-0.0748586263	-0.630237
C	 0.0868636106	 0.0196388132	-0.0449970469	 0.315726
C	-0.0533116572	-0.8703363514	-1.2997058143	-0.118248
C	 0.5907603085	-2.1970087714	-0.9513225943	-0.193579
N	 0.0240630508	-2.0567356493	 0.4558516027	-0.176817
C	-0.9825786961	-1.0445505376	-0.1331140795	-0.08859
C	 0.7989381246	-0.8550780685	 0.9919499049	-0.131259
C	 2.2557496461	-0.9496528312	 1.0171033837	 0.283317
N	 3.4105327202	-1.0080147576	 1.0205051629	-0.334368
H	 0.1223479116	 1.8258152122	-1.0000295381	 0.246352
H	-0.7596930352	 1.827048219	 0.4008511579	 0.243361
H	-0.2589703463	-0.4209373422	-2.2641157635	 0.096084
H	 0.1033190507	-3.0458725794	-1.4358903933	 0.119589
H	 1.6773077926	-2.3104287939	-1.0013542243	 0.133606
H	-2.0533716554	-1.0612120151	 0.00887329	 0.109619
H	 0.4369153165	-0.6435204004	 2.0019967885	 0.125442
91.7617	134.8714	151.9372	285.0705	336.2547	408.5881	433.8042	532.4778	576.7098	627.4017	683.868	728.5765	810.7232	836.5702	841.7715	872.7781	918.6052	959.1708	969.905	988.3948	1013.5253	1068.6756	1095.5816	1125.4482	1160.6047	1176.9304	1208.7964	1259.2995	1265.4491	1322.1311	1349.065	1433.555	1513.2751	1653.5989	2349.3911	3061.7492	3075.9604	3119.3346	3183.5271	3227.1514	3547.6785	3637.4809
NC12C3CN(C13)C2C#N	N[C@]12[C@H]3CN([C@@H]13)[C@H]2C#N	
InChI=1S/C6H7N3/c7-1-4-6(8)3-2-9(4)5(3)6/h3-5H,2,8H2	InChI=1S/C6H7N3/c7-1-4-6(8)3-2-9(4)5(3)6/h3-5H,2,8H2/t3-,4-,5+,6-/m0/s1
