20
gdb 82550	2.96358	1.45055	1.32602	1.3205	77.97	-0.2206	0.0736	0.2942	1061.0683	0.171719	-403.110152	-403.102124	-403.101179	-403.142409	31.764	
C	 0.3021632902	 1.7716804773	-0.1993500726	-0.448394
C	 0.0744111839	 0.2791808829	-0.0995553983	 0.01502
C	 0.4489934508	-0.7273425303	-1.131162437	-0.049236
C	 1.4378997654	-0.3696725085	-2.2306943644	-0.313816
C	 2.6789486328	 0.1211220953	-1.4844404365	 0.396506
C	 3.9759516549	 0.3616736741	-2.1226592078	-0.247246
O	 3.1320904236	 1.4560699818	-1.7529217725	-0.2671
C	 2.5127395544	-0.2925455628	-0.017886799	-0.240657
N	 1.1218131425	-0.7233468226	 0.1942723534	-0.125509
H	 1.1439198384	 2.0575605517	-0.8297205871	 0.164852
H	-0.598000294	 2.245746402	-0.6058678202	 0.119836
H	 0.4686152485	 2.1960825309	 0.7974476476	 0.122894
H	-0.830130849	 0.0416559231	 0.4599966628	 0.089321
H	-0.2202568642	-1.5628282551	-1.3213082692	 0.085306
H	 1.6667052868	-1.2636433863	-2.8210085124	 0.112751
H	 1.0807310258	 0.4000978182	-2.9209358474	 0.123937
H	 4.8934778057	 0.2624708324	-1.5424235261	 0.11437
H	 4.0914067872	 0.2005006533	-3.1944601733	 0.113157
H	 3.1570071897	-1.1475742649	 0.2168275496	 0.111294
H	 2.7921285663	 0.5297742474	 0.6479650903	 0.122714
106.1597	164.127	190.5344	258.3363	294.3078	384.0994	394.3441	421.789	470.8589	574.8307	699.3537	731.0823	747.8624	792.0247	826.6184	874.3533	903.367	939.6839	960.9007	999.9569	1026.5343	1030.0111	1100.9911	1111.8221	1127.3938	1150.4666	1165.9508	1176.2595	1193.5963	1224.2845	1239.3048	1289.1979	1306.3972	1316.9569	1377.5909	1415.7775	1428.1593	1437.9403	1476.487	1490.1527	1504.7861	1510.2779	1533.6115	3035.3693	3036.7907	3045.9243	3072.8478	3086.486	3087.9873	3092.1906	3100.1085	3132.8482	3156.6415	3160.2543
CC1C2CC3(CO3)CN12	C[C@H]1[C@H]2C[C@]3(CO3)CN12	
InChI=1S/C7H11NO/c1-5-6-2-7(4-9-7)3-8(5)6/h5-6H,2-4H2,1H3	InChI=1S/C7H11NO/c1-5-6-2-7(4-9-7)3-8(5)6/h5-6H,2-4H2,1H3/t5-,6+,7+,8?/m0/s1
