17
gdb 97753	4.01681	0.77775	0.74991	2.8209	78.43	-0.2324	0.0277	0.2601	1548.17	0.134989	-421.735966	-421.727171	-421.726227	-421.771081	31.444	
O	 0.2196143413	 1.0237445783	-0.7211745543	-0.403482
C	 0.0042605305	 0.0310382351	 0.2749919205	-0.195871
C	-1.3304242044	-0.5616862585	 0.2355417947	 0.099482
C	-2.4497654748	-1.0099707381	 0.2002512429	 0.055489
C	-3.7698746915	-1.5623741438	 0.145040139	-0.255021
C	-4.4380999564	-2.0162861933	-1.1574548702	-0.146528
C	-3.4040519002	-2.719448648	-2.0304745181	-0.096167
O	-3.0472009145	-3.6183333361	-0.9399769326	-0.275931
C	-4.045672107	-3.0315062163	-0.1210468734	 0.098145
H	-0.5144329803	 1.6445269899	-0.6680198482	 0.285143
H	 0.7632361199	-0.7385494803	 0.0951881112	 0.142193
H	 0.1931897249	 0.4311614087	 1.2843698103	 0.116656
H	-4.4929499664	-1.129076686	 0.8334733699	 0.114379
H	-5.4021768332	-1.6401680188	-1.4709199881	 0.107181
H	-3.8454431854	-3.2850749945	-2.8572116366	 0.114873
H	-2.5500167768	-2.13029794	-2.3788204139	 0.126053
H	-4.6033756859	-3.6726136881	 0.552368827	 0.113406
30.2345	81.6573	90.4029	183.4643	232.0023	306.8384	342.0706	396.5269	459.1424	579.5375	616.7001	745.3341	783.5995	796.1208	841.1309	932.2149	961.5206	976.3507	985.613	1000.7507	1041.4625	1050.1168	1063.3164	1099.9478	1111.4664	1163.8315	1203.7621	1216.2141	1256.2026	1303.9524	1354.9067	1356.8638	1413.5161	1422.1596	1490.8432	1504.267	2351.2691	2973.5485	3041.944	3062.0305	3097.6583	3129.4272	3177.8645	3208.1777	3817.2058
OCC#CC1C2COC12	OCC#C[C@H]1[C@H]2CO[C@@H]12	
InChI=1S/C7H8O2/c8-3-1-2-5-6-4-9-7(5)6/h5-8H,3-4H2	InChI=1S/C7H8O2/c8-3-1-2-5-6-4-9-7(5)6/h5-8H,3-4H2/t5-,6+,7-/m0/s1
