17
gdb 93415	2.53188	1.47076	1.06913	3.8604	73.81	-0.2235	-0.0176	0.2058	1119.7746	0.138407	-455.193349	-455.185047	-455.184103	-455.226033	32.113	
N	 0.063899873	 1.4033486871	 0.0624928149	-0.572576
C	-0.015975051	 0.0315897924	 0.0718301978	 0.344605
C	-1.1664347547	-0.6777029321	 0.0651973226	-0.28502
C	-1.1943304322	-2.1436250289	 0.0341714827	 0.381889
O	-2.2182144755	-2.7957834274	-0.0886357643	-0.390173
N	 0.0532049186	-2.7624118344	 0.0865209129	-0.355749
C	 1.1779750883	-2.0728736389	 0.6982041812	-0.203191
C	 1.3222259877	-0.6882121188	 0.07069118	 0.04038
O	 1.8496810833	-0.7336683759	-1.2508746293	-0.436624
H	 0.9130573289	 1.7907556094	-0.3220052535	 0.264242
H	-0.7659769516	 1.9057828251	-0.2171722051	 0.257832
H	-2.136689428	-0.1963792823	 0.0092046309	 0.09192
H	-0.0169839925	-3.7597932762	 0.2317495386	 0.242715
H	 1.057577461	-1.9603635019	 1.7875321454	 0.108769
H	 2.0948960291	-2.6393897741	 0.5133965873	 0.119128
H	 2.0475266682	-0.1099566988	 0.6527462481	 0.099073
H	 1.2735251475	-1.3228901543	-1.75448509	 0.292776
92.9998	166.853	179.967	261.1792	330.5448	369.8389	409.6425	410.9586	462.6884	502.9812	545.6338	570.9607	615.4231	698.279	729.894	753.9781	871.6831	889.6539	908.2403	937.5732	1022.9444	1097.815	1115.0237	1136.2021	1242.2083	1256.5488	1279.024	1307.5964	1334.9215	1395.7564	1419.8597	1427.6108	1457.7679	1501.781	1649.0774	1693.5313	1772.8905	2977.4109	3062.9229	3087.6463	3191.2021	3564.8468	3601.5191	3669.8767	3778.8424
NC1=CC(=O)NCC1O	NC1=CC(=O)NC[C@H]1O	
InChI=1S/C5H8N2O2/c6-3-1-5(9)7-2-4(3)8/h1,4,8H,2,6H2,(H,7,9)	InChI=1S/C5H8N2O2/c6-3-1-5(9)7-2-4(3)8/h1,4,8H,2,6H2,(H,7,9)/t4-/m1/s1
