15
gdb 48937	4.20511	1.39614	1.26261	1.7675	69.74	-0.2594	-0.0519	0.2076	972.2709	0.113724	-416.770423	-416.76373	-416.762785	-416.801675	25.978	
O	-0.5765528143	 0.6512386304	 0.6766436845	-0.253449
C	 0.1700725521	 0.9316451051	-0.2285583066	 0.063148
C	 1.3252453001	 1.8398544553	-0.0718412744	 0.241532
C	 1.7915394149	 2.5459216693	 1.1996664596	-0.292174
C	 2.5960955716	 3.5346005643	 0.2835962202	-0.039499
N	 3.9288045114	 2.9253740822	 0.1289534818	-0.179201
C	 3.7328871045	 1.9015758918	-0.5969824407	 0.036207
N	 2.4113697653	 1.7231232238	-1.14471918	-0.188105
C	 1.7565302341	 3.0021850789	-0.9213164832	-0.092532
H	 0.0398197014	 0.534565334	-1.2569258909	 0.092663
H	 0.9348464891	 3.0331583662	 1.66807843	 0.13694
H	 2.3678752787	 1.9892780629	 1.9414917475	 0.122106
H	 2.6238788738	 4.5901679559	 0.5384405198	 0.09603
H	 4.4870259999	 1.1580153626	-0.8300261469	 0.139796
H	 1.2476470774	 3.5154405272	-1.7292779907	 0.116537
95.9905	182.8493	243.7985	392.1588	399.3189	472.1901	546.9886	673.6919	710.0275	757.7279	819.5937	865.8506	875.4987	900.5811	919.4627	949.3234	959.9957	1005.8465	1016.626	1057.9946	1078.158	1130.8738	1163.1281	1194.5617	1237.3101	1261.9283	1270.9257	1313.0083	1354.6338	1416.4217	1484.6863	1665.476	1809.4349	2920.6627	3077.3928	3141.3064	3161.3732	3183.0849	3209.2495
O=CC12CC3N=CN1C23	O=C[C@@]12C[C@H]3[N][CH]N1[C@@H]23	
InChI=1S/C6H6N2O/c9-2-6-1-4-5(6)8(6)3-7-4/h2-5H,1H2	InChI=1S/C6H6N2O/c9-2-6-1-4-5(6)8(6)3-7-4/h2-5H,1H2/t4-,5-,6-,8?/m1/s1
