24
gdb 59466	2.87056	1.02549	0.84918	1.0976	91.2	-0.232	0.0855	0.3174	1487.1714	0.216245	-368.373373	-368.363329	-368.362385	-368.408576	37.949	
C	-0.4170890018	 1.3792862879	 0.1383278449	-0.384921
C	 0.1441404179	-0.0201213929	-0.1517504901	 0.029588
C	 1.0558568802	-0.0051079482	-1.387403827	-0.390857
C	 0.882046771	-0.567716142	 1.05812697	-0.004974
C	 0.1261295487	-1.1620209961	 2.2254147572	-0.333322
C	 0.9675371518	-2.0484076312	 1.3437890594	 0.037689
N	 0.2773981108	-2.9635832693	 0.4755150646	-0.060867
C	 1.1048676773	-3.8928200359	-0.2879773335	-0.220266
C	 0.2953432337	-4.3692161749	 0.8679841089	-0.223091
H	 0.3900025403	 2.0904191148	 0.3536442025	 0.105713
H	-0.9768350233	 1.7653381215	-0.7203892149	 0.105383
H	-1.0878825361	 1.3672411829	 1.0030973375	 0.11134
H	-0.6935225751	-0.6956410285	-0.3587003898	 0.087314
H	 1.9260806942	 0.6431930604	-1.225889743	 0.104736
H	 1.4240712494	-1.0089626184	-1.6188671066	 0.117115
H	 0.5228796282	 0.3718019925	-2.2669369816	 0.105396
H	 1.7770193684	-0.003920529	 1.3175006046	 0.074539
H	 0.4596461681	-0.9612292288	 3.2375780182	 0.105448
H	-0.9484328279	-1.2628593697	 2.1122981781	 0.117249
H	 1.9091064008	-2.4132331406	 1.7660223571	 0.065569
H	 0.7833748181	-4.0883404901	-1.3071122916	 0.116073
H	 2.1840939323	-3.8422684253	-0.1521919745	 0.109992
H	 0.8334836496	-4.6360796296	 1.7759972236	 0.109752
H	-0.6286766365	-4.9177386595	 0.7081076362	 0.115401
61.3214	74.0295	116.028	180.1095	230.1917	248.2793	273.3754	288.4428	343.4663	350.5977	435.9168	497.1102	603.6873	725.7833	759.4904	823.3435	841.2167	889.0673	898.2358	927.6358	933.698	963.8034	990.3738	1009.7138	1030.0349	1056.9761	1066.204	1111.9368	1116.8097	1122.0182	1133.93	1146.4461	1174.7259	1186.6912	1203.1007	1217.5417	1234.9711	1308.8183	1327.145	1352.7998	1397.6742	1398.4527	1416.6394	1427.1296	1485.6305	1488.2591	1490.8847	1491.8249	1503.3597	1511.17	1518.9763	3021.2843	3024.9386	3039.6241	3045.2776	3083.7361	3091.6114	3093.4044	3098.3378	3101.5959	3106.4367	3115.6862	3130.5169	3175.2766	3190.2675	3217.7164
CC(C)C1CC1N1CC1	CC(C)[C@H]1C[C@H]1N1CC1	
InChI=1S/C8H15N/c1-6(2)7-5-8(7)9-3-4-9/h6-8H,3-5H2,1-2H3	InChI=1S/C8H15N/c1-6(2)7-5-8(7)9-3-4-9/h6-8H,3-5H2,1-2H3/t7-,8-/m1/s1
