14
gdb 129393	4.316	1.16372	0.91658	11.3447	72.52	-0.1658	-0.072	0.0938	1180.8193	0.102209	-466.165311	-466.157358	-466.156414	-466.197873	30.012	
N	-0.0425007718	 1.3042603665	 0.0071855613	-0.525809
C	-0.0362026541	-0.0211525446	 0.0018086965	 0.39769
N	 1.0535296992	-0.7658662132	-0.0104329723	-0.507756
H	 0.8660192381	-1.7676285507	-0.0127281384	 0.31553
H	 1.9919245074	-0.4039388507	-0.0167815483	 0.282072
C	-1.2889880272	-0.750548858	 0.0096296281	 0.39357
N	-2.4280285206	-0.0908322433	 0.0217604129	-0.264084
O	-3.3507845769	-1.1249864717	 0.0253719878	-0.2536
C	-2.6363385444	-2.3776179485	 0.0148563758	 0.425726
N	-3.2230299967	-3.5042919888	 0.0155852485	-0.607403
N	-1.2964656206	-2.083248745	 0.004828917	-0.463368
H	 0.7921964234	 1.8647561831	 0.0017338272	 0.283862
H	-0.9501561102	 1.7504037882	 0.0164584525	 0.31511
H	-4.2322419055	-3.373825843	 0.0243954815	 0.208459
89.6225	137.9003	167.9836	282.1488	356.3306	365.2795	418.6966	448.1967	553.8966	587.9813	627.1764	635.6831	720.8712	731.2191	738.3553	742.1669	789.9617	811.1184	956.8853	1052.9306	1069.0693	1073.5182	1124.3849	1259.9957	1376.8792	1529.5193	1546.2424	1573.3758	1654.8634	1716.1258	1761.7326	3466.6847	3518.8071	3566.8402	3696.5737	3715.6554
NC(=[NH2+])C1=NOC(=N)[N-]1	NC(=[NH2])c1noc([NH])n1	
InChI=1S/C3H4N5O/c4-1(5)2-7-3(6)9-8-2/h(H4-,4,5,6,7,8)/q-1/p+1	InChI=1S/C3H5N5O/c4-1(5)2-7-3(6)9-8-2/h6H,4-5H2
