19
gdb 60557	3.03397	1.18229	1.05448	1.6644	70.96	-0.2524	0.0668	0.3192	1204.0871	0.157459	-460.114151	-460.105087	-460.104142	-460.148083	34.539	
O	-0.3960910108	 1.2464667639	 0.0103962497	-0.437512
C	-0.0588335027	-0.1251896717	 0.0453472968	 0.028637
C	 0.7370716788	-0.4975361446	-1.1985684428	 0.058936
C	 0.460809993	 0.1206477622	-2.4969654904	-0.188053
O	 1.5786364227	 0.552694851	-1.7004055714	-0.251828
C	 0.6887450736	-0.5062608842	 1.3267114282	 0.386547
O	 0.9334480126	-1.89007435	 1.4131896984	-0.472059
C	 1.6769022921	 0.4356526644	 1.9595917684	-0.328303
C	 0.3327037473	 0.171448426	 2.6124566227	-0.301219
H	 0.3684751116	 1.6894709976	-0.3863464812	 0.29516
H	-0.997850767	-0.6943848146	 0.037055534	 0.103006
H	 1.2012387097	-1.4821658079	-1.1846699893	 0.091662
H	 0.7264108962	-0.4046007437	-3.4119948378	 0.122839
H	-0.3486336127	 0.8419009565	-2.5782742033	 0.131594
H	 1.8017758585	-2.0654032881	 1.0364981613	 0.286245
H	 2.55455554	-0.0071013416	 2.4185523241	 0.110231
H	 1.841699525	 1.4055886323	 1.5049131069	 0.114678
H	-0.4063978376	 0.9622577392	 2.5760043607	 0.130506
H	 0.3198725297	-0.4547226668	 3.496614485	 0.118931
59.4097	90.2532	178.1433	240.3938	279.1051	292.3014	322.9684	345.2484	417.2311	472.9048	491.1218	529.9343	676.0774	736.6608	774.9574	791.351	871.5066	922.3999	924.1433	937.1405	970.3275	1018.3018	1021.7557	1051.6673	1081.586	1102.4185	1128.3413	1162.4133	1177.4504	1191.5905	1230.762	1261.5504	1293.6303	1330.9623	1343.3983	1348.1372	1410.9301	1440.5652	1442.0806	1492.023	1518.5575	3028.3485	3101.2046	3130.6409	3135.8107	3148.5313	3195.6417	3222.2148	3245.6681	3725.7781	3811.1662
OC(C1CO1)C1(O)CC1	O[C@@H]([C@H]1CO1)C1(O)CC1	
InChI=1S/C6H10O3/c7-5(4-3-9-4)6(8)1-2-6/h4-5,7-8H,1-3H2	InChI=1S/C6H10O3/c7-5(4-3-9-4)6(8)1-2-6/h4-5,7-8H,1-3H2/t4-,5+/m1/s1
