21
gdb 104322	2.94832	1.27702	1.18366	2.0744	77.4	-0.252	0.0645	0.3165	1152.8238	0.183331	-424.224043	-424.215365	-424.214421	-424.256881	34.602	
O	-0.1285839778	 1.4591842227	 0.104650321	-0.437675
C	 0.0046360839	 0.0406531882	 0.0054165266	-0.137799
C	-1.4113718472	-0.5289780787	-0.0392971807	 0.411158
O	-2.1062287601	-0.103886887	 1.1339701723	-0.495668
C	-2.2031276721	-0.1276195359	-1.3140852007	-0.262827
C	-3.2710350693	-1.2319295642	-1.4757215921	-0.221145
C	-2.6183594084	-2.4834291963	-0.904646364	-0.02826
C	-1.201766312	-2.7832575751	-1.3238288019	-0.312251
C	-1.464135095	-2.0467432972	-0.0302345428	-0.050107
H	 0.7215631215	 1.832546285	 0.352104856	 0.293465
H	 0.5663182597	-0.2449134044	-0.8951534445	 0.089407
H	 0.5253630724	-0.3654312599	 0.8842357269	 0.092345
H	-1.8855200861	 0.8313463647	 1.2339832763	 0.281069
H	-2.632340759	 0.8701930941	-1.2066895931	 0.102805
H	-1.5378006172	-0.0973124465	-2.1833705766	 0.094216
H	-4.154807314	-0.9871027826	-0.8772744544	 0.110227
H	-3.5970168242	-1.3467348393	-2.5151426304	 0.090185
H	-3.2509751005	-3.313135016	-0.6100055637	 0.080447
H	-0.8659866368	-3.8105733626	-1.2335802163	 0.108612
H	-0.7682741594	-2.2566165703	-2.1680192264	 0.106602
H	-1.2431166684	-2.5334601286	 0.9126078586	 0.085191
111.7275	132.5438	190.299	256.2772	267.1381	332.4419	383.6403	392.6773	432.724	457.0512	495.3899	636.1506	661.037	738.9739	816.4814	820.8613	844.7168	905.0702	936.7373	952.0317	991.5132	1005.8174	1020.0203	1043.4554	1067.3671	1082.0689	1095.6038	1108.198	1144.5413	1164.7527	1197.9601	1207.5764	1225.0351	1249.8166	1279.6715	1314.4445	1327.9929	1345.5215	1385.342	1420.8486	1449.4213	1478.9913	1486.9072	1501.6263	1508.2999	2991.2304	3032.3757	3040.677	3050.5894	3080.5868	3113.9849	3128.5671	3168.5268	3179.6087	3210.0302	3767.9689	3842.3022
OCC1(O)CCC2CC12	OC[C@@]1(O)CC[C@H]2C[C@@H]12	
InChI=1S/C7H12O2/c8-4-7(9)2-1-5-3-6(5)7/h5-6,8-9H,1-4H2	InChI=1S/C7H12O2/c8-4-7(9)2-1-5-3-6(5)7/h5-6,8-9H,1-4H2/t5-,6+,7-/m0/s1
