17
gdb 120179	5.46092	0.8442	0.82009	3.3137	70.53	-0.2567	-0.0195	0.2372	1425.5145	0.133278	-458.884123	-458.875523	-458.874579	-458.91824	30.991	
C	-0.1101328646	 1.497148252	 0.0010356875	-0.386421
C	-0.12008476	-0.000758952	 0.2459544114	-0.048992
O	-1.2983822507	-0.5398376814	-0.3416937037	-0.257184
C	-1.386904068	-1.9156118812	-0.2563870376	 0.182973
C	-1.9351385965	-2.5524443007	 1.0713978914	-0.127976
O	-3.2731648498	-2.00062648	 0.7344737393	-0.294163
C	-2.7883647722	-2.4802712053	-0.5873918501	-0.123641
C	-2.4013884353	-3.7547122505	 0.2122043895	 0.458922
O	-2.5554797617	-4.9299732459	 0.2408422153	-0.304095
H	 0.7830894574	 1.9470024618	 0.4441259142	 0.119769
H	-0.1125576351	 1.7107132395	-1.071355883	 0.130725
H	-0.9930145163	 1.9631636898	 0.4467365096	 0.135977
H	 0.7691385197	-0.476728267	-0.1984456859	 0.093803
H	-0.1043068342	-0.2192858484	 1.3246844724	 0.096919
H	-0.5234163981	-2.4273775032	-0.7096521306	 0.084888
H	-1.597164254	-2.4732978449	 2.1018424917	 0.117059
H	-3.4209142509	-2.3107389327	-1.4551821613	 0.121435
64.1885	79.0297	113.5998	178.405	242.2193	301.8208	343.4777	392.7549	503.3799	590.4405	689.4465	752.3332	784.8976	797.4013	821.218	870.3653	905.5202	965.2124	981.2397	1055.0141	1059.2587	1130.3287	1136.0504	1149.26	1154.8658	1185.0108	1201.2405	1210.547	1270.0966	1298.0752	1381.4988	1407.7163	1447.1465	1483.5204	1499.7932	1526.6283	1940.1057	2970.7277	2987.8235	3005.1403	3048.4989	3123.5016	3127.3995	3159.9206	3166.1745
CCOC1C2OC1C2=O	CCO[C@H]1[C@H]2O[C@@H]1C2=O	
InChI=1S/C6H8O3/c1-2-8-6-4-3(7)5(6)9-4/h4-6H,2H2,1H3	InChI=1S/C6H8O3/c1-2-8-6-4-3(7)5(6)9-4/h4-6H,2H2,1H3/t4-,5+,6-
