19
gdb 47242	2.10106	1.75481	1.26341	2.6477	83.71	-0.2296	-0.023	0.2066	1075.8687	0.160705	-385.917531	-385.909461	-385.908517	-385.950215	31.274	
O	 0.0701059988	-0.0237368411	 0.2013628688	-0.301425
C	-0.0146826511	 1.1749925698	 0.0800781916	 0.392729
C	-1.3566417704	 1.8952194359	 0.1028707441	-0.289881
C	-1.5151491715	 2.8395744238	-1.1088680546	-0.272284
C	-1.3470281063	 2.0885593866	-2.4002960203	-0.055398
C	-0.1804650355	 1.8671984148	-3.0191201504	-0.07284
C	 1.1487662342	 2.3399682305	-2.6260504508	-0.083612
C	 1.7204225946	 2.4408406869	-1.4181721371	-0.051037
C	 1.2435134232	 2.0407157077	-0.0400194774	-0.352606
H	-2.1400930803	 1.1331550247	 0.11654486	 0.120219
H	-1.4287789338	 2.4696706472	 1.0367001308	 0.113046
H	-2.5020493474	 3.3113945306	-1.0660412418	 0.106862
H	-0.7712428247	 3.6416619443	-1.0469640553	 0.117422
H	-2.2485355057	 1.6671074334	-2.8390923685	 0.09293
H	-0.2054494411	 1.3245548904	-3.9626280126	 0.093418
H	 1.7767428117	 2.6318304521	-3.4675758767	 0.092806
H	 2.7317664738	 2.8435443363	-1.3965917728	 0.096393
H	 1.113594023	 2.9528365184	 0.5608340118	 0.118279
H	 2.0487570684	 1.4678433278	 0.4344354811	 0.134976
90.5904	97.5724	227.2619	246.0446	291.7881	365.8169	398.6147	494.5477	530.426	547.8657	644.7505	698.1877	770.4477	789.1262	823.1138	855.7775	868.7497	935.9146	986.1576	1000.0707	1008.02	1012.6449	1036.1823	1047.9505	1137.6447	1200.1478	1206.1004	1253.8205	1271.0573	1277.9045	1338.6679	1351.1117	1357.4794	1415.4698	1452.1938	1458.0524	1470.3572	1491.9905	1698.8046	1709.2716	1816.8718	3002.679	3020.4453	3040.5626	3061.347	3080.1507	3104.7306	3116.6179	3133.9506	3144.8346	3161.3549
O=C1CCC=CC=CC1	O=C1CCC=CC=CC1	
InChI=1S/C8H10O/c9-8-6-4-2-1-3-5-7-8/h1-4H,5-7H2/b3-1-,4-2-	InChI=1S/C8H10O/c9-8-6-4-2-1-3-5-7-8/h1-4H,5-7H2/b3-1-,4-2-
