15
gdb 49045	2.4226	1.72935	1.22907	3.2269	67.46	-0.2487	-0.0545	0.1942	1004.037	0.112616	-453.909578	-453.901942	-453.900998	-453.941999	28.236	
N	 0.0093809682	 1.2684007811	-0.4813320601	-0.538386
C	 0.0144452982	 0.0966499637	-0.047510534	 0.4288
O	 1.0272105305	-0.6648327601	 0.5205639456	-0.270808
C	 0.1963309689	-1.8586990309	 0.5414359693	 0.045956
C	-0.6038879351	-2.0573304653	 1.8393650746	-0.191197
N	-1.6440834245	-1.097545015	 1.3667868008	-0.356872
C	-1.0213846834	-1.0164500136	 0.0283713303	 0.109504
C	-1.8733842709	-1.3561638795	-1.1542920821	 0.077387
O	-2.9898524836	-1.7978107202	-1.0388566085	-0.255363
H	 0.9134846831	 1.7270451435	-0.3551789016	 0.237139
H	 0.6776859727	-2.6939112158	 0.0356333288	 0.115093
H	-0.9590064693	-3.0888474129	 1.9452151243	 0.119396
H	-0.0942513753	-1.7511281188	 2.7572160121	 0.128526
H	-2.5723957842	-1.5028379284	 1.2904087011	 0.24438
H	-1.4057401852	-1.1885459878	-2.1453561807	 0.106447
102.0335	127.0474	179.7388	233.8322	289.4264	323.02	429.8984	547.9294	626.1597	692.5886	743.7488	776.567	825.8767	860.5414	875.0945	899.4975	980.16	1000.6177	1018.7091	1046.4626	1086.7805	1131.1868	1159.3151	1197.3642	1220.7159	1254.93	1314.8939	1340.3469	1386.9851	1427.9159	1491.4732	1808.3559	1830.1405	2934.4614	3036.1299	3096.3946	3133.7978	3477.7429	3524.6983
N=C1OC2CNC12C=O	[NH][C]1O[C@H]2CN[C@@]12C=O	
InChI=1S/C5H6N2O2/c6-4-5(2-8)3(9-4)1-7-5/h2-3,6-7H,1H2	InChI=1S/C5H6N2O2/c6-4-5(2-8)3(9-4)1-7-5/h2-3,6-7H,1H2/t3-,5+/m0/s1
