18
gdb 12220	2.84637	1.65784	1.41417	3.7992	68.38	-0.2394	-0.0163	0.2232	964.7875	0.152269	-384.935852	-384.92731	-384.926365	-384.968967	31.223	
C	-0.6696128113	 1.281758845	-0.0926631734	-0.416477
C	-0.0167939067	-0.0917278213	-0.0526701325	 0.022199
C	 1.2804725686	-0.3544505608	-0.8626990694	 0.102811
O	 2.011979323	 0.8539451739	-0.9808911922	-0.424974
C	 1.7768748347	-1.2559115073	 0.2991725858	-0.274308
C	 0.715843385	-0.6067520929	 1.245001714	-0.106686
C	 1.2834830231	 0.4854445075	 2.1157501267	 0.156625
O	 0.9896019177	 0.6482092244	 3.2743699126	-0.262445
H	 0.0572140322	 2.0782909363	 0.0786764236	 0.139186
H	-1.1323978683	 1.4599966625	-1.0689382256	 0.117109
H	-1.4523817042	 1.3579844099	 0.6691113129	 0.123328
H	-0.7481146416	-0.8582636363	-0.3291997781	 0.085986
H	 1.1575289155	-0.8307840944	-1.8443511198	 0.065507
H	 2.8922973612	 0.6402892412	-1.306554503	 0.286942
H	 1.5684989867	-2.3151311587	 0.1305063024	 0.111735
H	 2.8291372356	-1.1419022891	 0.5764976997	 0.101883
H	 0.1360848444	-1.2802098615	 1.8789306315	 0.085209
H	 2.0156786443	 1.1501041917	 1.6081162249	 0.08637
67.6624	102.3902	202.0076	226.7156	243.3687	293.8737	309.9109	397.6751	405.4915	464.6173	552.8324	707.564	803.7824	855.7164	870.8624	912.9884	969.3504	986.9476	1015.568	1058.258	1091.0152	1142.3108	1146.4894	1169.1957	1207.2467	1232.2861	1261.0136	1265.0119	1315.5049	1333.0171	1366.7998	1406.9884	1419.2123	1430.1058	1468.3849	1490.3107	1505.6189	1820.4969	2903.2879	3007.3199	3040.0088	3051.3512	3056.743	3095.34	3101.5688	3114.8735	3133.3798	3815.7734
CC1C(O)CC1C=O	C[C@H]1[C@@H](O)C[C@H]1C=O	
InChI=1S/C6H10O2/c1-4-5(3-7)2-6(4)8/h3-6,8H,2H2,1H3	InChI=1S/C6H10O2/c1-4-5(3-7)2-6(4)8/h3-6,8H,2H2,1H3/t4-,5+,6+/m1/s1
