15
gdb 133127	2.54639	1.48811	0.94473	3.1048	70.32	-0.2522	-0.0243	0.2279	1148.1061	0.113149	-461.959463	-461.951653	-461.950708	-461.992433	28.578	
O	 0.0193403701	 1.4312163558	 0.0076491547	-0.419063
C	 0.0193341696	 0.0174152694	 0.001544689	-0.169455
C	-1.4033682357	-0.4774587922	 0.0120868618	 0.134359
C	-2.511971539	 0.3641680047	 0.0231821169	-0.185186
C	-3.7885341424	-0.1936250977	 0.0321746675	-0.001554
N	-4.0276792651	-1.5072215142	 0.03087744	-0.269865
C	-2.969591648	-2.3210172187	 0.0202890554	-0.08666
C	-1.6695687867	-1.842353476	 0.0108786448	 0.185909
F	-0.6413055506	-2.7039099293	 0.0003827782	-0.080193
H	 0.9325124024	 1.7304044475	 0.0019502017	 0.296574
H	 0.530962043	-0.3854824154	-0.8869450409	 0.117279
H	 0.5468161586	-0.3932538251	 0.8770607208	 0.11727
H	-2.3680883439	 1.4368567564	 0.024772585	 0.129154
H	-4.6628716768	 0.4519883066	 0.0408701464	 0.110842
H	-3.1469662154	-3.3933538018	 0.0191297087	 0.12059
55.8283	170.946	194.1714	218.5159	274.1843	321.0457	451.9989	520.6982	522.7383	575.1925	618.1281	748.6921	785.1001	857.8309	863.9123	945.8738	989.0322	1040.2122	1068.4483	1097.2944	1183.0361	1208.1859	1225.7772	1253.6443	1288.8954	1298.8039	1328.0277	1450.2237	1457.8195	1502.5326	1527.2381	1612.5461	1643.3212	2973.4574	2993.5053	3161.9167	3166.9664	3224.8225	3846.0872
OCC1=CC=NC=C1F	OCc1ccncc1F	
InChI=1S/C6H6FNO/c7-6-3-8-2-1-5(6)4-9/h1-3,9H,4H2	InChI=1S/C6H6FNO/c7-6-3-8-2-1-5(6)4-9/h1-3,9H,4H2
