23
gdb 119840	3.84126	0.86847	0.7845	0.269	92.55	-0.2163	0.0301	0.2464	1583.3261	0.206797	-351.165878	-351.156795	-351.155851	-351.200221	34.906	
C	 0.0779867627	 1.5706266445	 0.062329475	-0.379207
C	 0.1145194552	 0.040541057	 0.0574688901	-0.157493
C	 0.6050913647	-0.5397326514	-1.2834620292	-0.303629
C	 0.6546364901	-2.0392325727	-1.3072488427	 0.351386
C	-0.0967009913	-2.8591670272	-2.052469401	-0.200047
C	 0.1975601122	-4.3226639469	-1.8002840666	-0.26423
C	 1.3791742421	-4.2833838558	-0.8312034787	-0.031506
C	 2.64906809	-3.6129318626	-1.2860690252	-0.278949
C	 1.6302571498	-2.8257131419	-0.4831918491	-0.129653
H	 1.0733779253	 1.9919023571	-0.1178381331	 0.113558
H	-0.5878860102	 1.9533010336	-0.7193125094	 0.113811
H	-0.2787001948	 1.9577502753	 1.0219688422	 0.110926
H	 0.7627563868	-0.3121111893	 0.8691560387	 0.098566
H	-0.8850754545	-0.3574018001	 0.2706155463	 0.100328
H	-0.0507829777	-0.1838778084	-2.0872530388	 0.096012
H	 1.6062376812	-0.1353940106	-1.4931669416	 0.099191
H	-0.8271155063	-2.5302379887	-2.7844885302	 0.080032
H	-0.6673761682	-4.8343031772	-1.3552815601	 0.102221
H	 0.4318234053	-4.8674469558	-2.724657879	 0.103996
H	 1.4611896019	-5.0551590457	-0.0750061303	 0.081167
H	 3.5658377402	-3.9075839708	-0.7851999807	 0.104631
H	 2.7661115957	-3.3626609215	-2.3361334904	 0.108296
H	 1.8914761797	-2.5016811909	 0.5184873436	 0.080592
61.7819	78.6346	114.8015	236.6728	248.9369	288.6085	313.982	340.64	386.344	606.5179	645.2998	725.9259	746.6898	777.3678	812.4627	823.4176	851.827	883.2933	899.1856	904.7861	957.8578	990.4195	1005.9587	1042.5319	1053.1835	1072.2215	1090.233	1100.5866	1102.2673	1114.1887	1179.8329	1189.1685	1207.1098	1248.2881	1279.6956	1304.5899	1321.6183	1325.1412	1373.7455	1380.968	1385.0128	1412.0919	1473.5715	1477.7751	1485.5561	1492.0163	1499.7162	1509.1632	1699.548	2999.5245	3005.5227	3026.8695	3029.1958	3032.6366	3044.5643	3065.6985	3097.0385	3101.3676	3118.8005	3162.4102	3176.9955	3183.5285	3207.8773
CCCC1=CCC2CC12	CCCC1=CC[C@H]2C[C@@H]12	
InChI=1S/C9H14/c1-2-3-7-4-5-8-6-9(7)8/h4,8-9H,2-3,5-6H2,1H3	InChI=1S/C9H14/c1-2-3-7-4-5-8-6-9(7)8/h4,8-9H,2-3,5-6H2,1H3/t8-,9-/m0/s1
