14
gdb 5022	3.35093	2.24755	1.35641	3.3831	66.15	-0.2357	-0.0342	0.2016	854.2167	0.108364	-382.593438	-382.586627	-382.585683	-382.624406	25.413	
C	-0.029009759	 1.506963016	 0.0069077999	-0.473576
C	-0.0063658029	 0.0084441932	-0.0113974778	 0.079585
C	-0.0399352291	-0.6999769189	-1.1546851818	-0.001215
O	-0.0214188768	-2.0556925337	-1.2224858931	-0.189323
C	 0.0346349517	-2.7439502259	-0.0624701965	 0.071288
C	 0.0726722608	-2.1595428293	 1.1457265727	-0.254296
C	 0.0551554645	-0.7026461133	 1.2808850216	 0.321657
O	 0.0879487766	-0.11551548	 2.3546162225	-0.371254
H	 0.8614787999	 1.8937025692	 0.5126333977	 0.148073
H	-0.0761124739	 1.9265298358	-1.0013798186	 0.114193
H	-0.8875899652	 1.8663374559	 0.583063245	 0.148116
H	-0.0854771726	-0.2671751497	-2.1468975416	 0.137263
H	 0.0443444812	-3.8119050093	-0.2420502554	 0.145229
H	 0.1171714349	-2.7657453099	 2.0420694654	 0.124259
132.1231	156.891	268.0622	278.219	420.1029	448.6268	490.0453	531.5738	594.0736	733.7695	766.5464	861.7465	862.082	904.5635	968.962	993.9193	1021.7167	1065.4997	1128.0684	1163.7511	1251.2634	1350.2045	1401.0259	1416.525	1430.1768	1468.1264	1485.2205	1629.1408	1692.0594	1742.0558	3041.4166	3100.677	3122.7632	3207.5339	3210.3209	3227.2366
CC1=COC=CC1=O	Cc1coccc1=O	
InChI=1S/C6H6O2/c1-5-4-8-3-2-6(5)7/h2-4H,1H3	InChI=1S/C6H6O2/c1-5-4-8-3-2-6(5)7/h2-4H,1H3
