23
gdb 108226	2.11743	1.44866	1.12909	1.2126	86.49	-0.2292	0.0604	0.2895	1245.7392	0.204156	-388.270265	-388.260162	-388.259218	-388.304851	38.207	
C	-0.3084571813	 1.4216078245	-0.0117842992	-0.372134
C	 0.0591675782	-0.0671347279	 0.0902041684	-0.306706
C	 0.7759729681	-0.576664448	-1.1299877831	 0.288861
C	 2.1807395234	-0.1537158672	-1.580011868	-0.292233
C	 2.4416826768	-1.6069370208	-2.0937652087	-0.28611
C	 1.0332555493	-2.0150541459	-1.6451840754	 0.257346
C	 0.6609084135	-3.3586563705	-1.0879686856	-0.498005
C	 0.044908044	-1.120427938	-2.3420443536	 0.009834
O	-1.2916106846	-1.5030469472	-2.1670944716	-0.43332
H	 0.5825170997	 2.0416624683	-0.1566337667	 0.120745
H	-0.9774461021	 1.6096984702	-0.8594129761	 0.102882
H	-0.812852107	 1.7686919112	 0.8953865262	 0.111898
H	 0.6880411627	-0.2228364178	 0.9767783183	 0.094773
H	-0.8474400178	-0.6615913393	 0.2482550793	 0.104539
H	 2.2282739249	 0.6466070187	-2.327506305	 0.089571
H	 2.8331259033	 0.1162811742	-0.74494322	 0.099876
H	 2.6583798168	-1.7220721894	-3.1620121719	 0.091172
H	 3.2269987643	-2.112224437	-1.5255513439	 0.101179
H	 1.277108173	-3.6146500066	-0.2184565396	 0.108755
H	-0.3893181592	-3.3822467195	-0.7893161228	 0.136245
H	 0.8097989267	-4.1440322771	-1.8397994423	 0.11629
H	 0.2717673165	-0.730539681	-3.3401450875	 0.065902
H	-1.8281478292	-0.704629364	-2.1268119011	 0.288641
65.5755	119.2276	179.9271	191.4899	210.6902	251.3847	261.2493	268.7207	301.8197	322.5804	404.6864	488.2801	546.5847	636.0462	695.1014	715.1263	775.9153	793.2342	860.3335	941.5323	951.2853	970.0662	993.3462	1018.1025	1056.2884	1071.0004	1090.2291	1128.4532	1161.0426	1196.6801	1219.3629	1236.0786	1239.6623	1248.0645	1274.1984	1311.207	1337.7378	1342.4483	1385.3409	1409.6748	1415.1811	1454.3823	1478.4734	1483.941	1492.0992	1495.5847	1497.7876	1505.218	1509.6399	3018.1543	3021.3519	3027.748	3028.6986	3029.6526	3038.4805	3063.3795	3073.902	3080.2698	3094.0453	3100.399	3104.0075	3125.9268	3805.8328
CCC12CCC1(C)C2O	CC[C@@]12CC[C@]1(C)[C@H]2O	
InChI=1S/C8H14O/c1-3-8-5-4-7(8,2)6(8)9/h6,9H,3-5H2,1-2H3	InChI=1S/C8H14O/c1-3-8-5-4-7(8,2)6(8)9/h6,9H,3-5H2,1-2H3/t6-,7-,8+/m1/s1
