18
gdb 38198	3.29949	2.14516	1.77005	1.3617	80.74	-0.199	-0.0112	0.1879	827.8088	0.149999	-364.663847	-364.657963	-364.657019	-364.693436	26.812	
C	-0.0549755588	 1.7466166568	 0.0530599886	-0.210601
C	 1.4353058424	 1.5207869666	 0.0552809194	-0.058118
C	 1.1083960221	 0.2723395773	 1.0236466153	-0.314191
C	-0.0720379623	 0.1462267484	-0.0099561682	 0.263362
C	-1.4108650175	-0.2253734929	-0.6314413403	-0.213927
C	-1.2320100747	 0.1517681794	-1.9143064383	-0.099687
C	 0.2535697224	 0.3155695663	-2.2248933917	-0.110429
C	 1.5268781658	 0.8488810887	-1.3487302286	-0.066771
N	 0.8539155614	-0.3986468151	-1.1246862816	-0.07284
H	-0.4753500614	 2.0496102654	 1.0148530322	 0.091306
H	-0.4956118232	 2.320539932	-0.75972842	 0.103017
H	 2.1702944885	 2.2810107232	 0.3242376681	 0.068124
H	 1.8031537361	-0.5676971173	 1.042689606	 0.117929
H	 0.8469531132	 0.6087294285	 2.0271612778	 0.106082
H	-2.3483969219	-0.422475471	-0.13046199	 0.111019
H	-1.9950423442	 0.2218150735	-2.6793046892	 0.105153
H	 0.5679594846	 0.0105982805	-3.2238435314	 0.09103
H	 2.4680136275	 0.8232519696	-1.899262948	 0.089541
320.3954	353.2718	431.4229	525.9234	553.3056	573.6452	601.8456	628.8227	689.6872	733.0747	741.8667	793.1871	838.1002	853.7319	879.8349	895.4048	931.4409	946.6168	972.135	978.1824	1012.6237	1045.5606	1055.2156	1076.1884	1091.9972	1116.8873	1147.5639	1154.6115	1186.803	1202.9921	1220.8434	1244.2527	1278.6985	1312.9256	1327.0073	1351.7731	1477.188	1518.3494	1566.3794	3070.7012	3084.9903	3093.8343	3100.3471	3110.7885	3146.9879	3160.0515	3207.5614	3236.9429
C1C2CC11C=CC3C2N13	C1[C@H]2C[C@]31[CH][CH][C@H]1[C@@H]2N31	
InChI=1S/C8H9N/c1-2-8-3-5(4-8)7-6(1)9(7)8/h1-2,5-7H,3-4H2	InChI=1S/C8H9N/c1-2-8-3-5(4-8)7-6(1)9(7)8/h1-2,5-7H,3-4H2/t5-,6-,7+,8+,9?/m0/s1
