20
gdb 50580	3.71836	1.06898	0.92234	2.2837	79.49	-0.2296	-0.0238	0.2057	1281.9865	0.172361	-403.138105	-403.129881	-403.128937	-403.171508	31.345	
O	-0.1097238569	-0.0305666603	-0.0096968932	-0.247838
C	-0.0194740676	 1.1691555183	 0.0179766698	 0.146646
C	 1.2737741124	 1.9519440328	-0.0133841021	-0.047083
C	 1.351072399	 2.8128336595	-1.2885921214	-0.242247
C	 2.7113258881	 3.5273143123	-1.3484339543	-0.152906
N	 3.1312304764	 4.2364236982	-0.1416593746	-0.081856
C	 2.233126861	 5.2112884424	 0.4598970438	-0.24393
C	 2.4867409839	 3.904163095	 1.1357210541	-0.011146
C	 1.3707862666	 2.8617175875	 1.2315865943	-0.258138
H	-0.9329141743	 1.8118041959	 0.0641489591	 0.066556
H	 2.0946945763	 1.226275269	-0.0184528258	 0.095754
H	 1.2412539083	 2.1886434526	-2.1819378488	 0.114271
H	 0.5220182954	 3.5325848033	-1.302499131	 0.102498
H	 3.482906825	 2.7749802319	-1.5558220456	 0.111273
H	 2.7305758776	 4.2400285764	-2.1801426338	 0.108364
H	 2.7053498763	 6.1250408001	 0.8125827249	 0.114315
H	 1.242411806	 5.356762075	 0.0303631315	 0.103831
H	 3.1856501057	 3.8919255007	 1.969101144	 0.095612
H	 0.4049186379	 3.3634757787	 1.376504618	 0.107731
H	 1.5321504329	 2.2441021609	 2.119896711	 0.118292
57.4596	84.7007	182.834	285.3957	304.7224	334.8815	379.6918	418.0269	518.4249	542.1968	637.212	728.1409	790.7102	841.5997	887.7354	924.1232	928.8193	936.5715	995.2987	1025.4936	1050.0004	1097.2784	1103.6585	1120.5686	1138.2345	1147.6517	1166.3302	1203.1373	1246.9424	1277.7528	1301.1276	1319.4896	1347.7889	1363.5268	1376.4648	1378.2134	1405.3994	1430.1638	1486.5476	1491.2299	1492.5138	1518.0179	1835.2382	2832.7758	3018.8299	3021.4	3024.1973	3052.9989	3068.3151	3076.5016	3081.4416	3086.8446	3123.7227	3169.5134
O=CC1CCN2CC2C1	O=C[C@H]1CCN2C[C@H]2C1	
InChI=1S/C7H11NO/c9-5-6-1-2-8-4-7(8)3-6/h5-7H,1-4H2	InChI=1S/C7H11NO/c9-5-6-1-2-8-4-7(8)3-6/h5-7H,1-4H2/t6-,7+,8?/m0/s1
