23
gdb 64358	1.9167	1.74807	1.50769	1.2074	80.4	-0.243	0.0737	0.3167	1093.1149	0.203312	-425.446614	-425.436548	-425.435604	-425.48065	38.789	
C	 0.2094493759	 1.5400373256	-0.2928238766	-0.436791
C	-0.0432211477	 0.0639974628	 0.0476419908	 0.347839
C	-1.5388247278	-0.2344278378	 0.0522638579	-0.438575
O	 0.5602193172	-0.7632750252	-0.9655396513	-0.297887
C	 1.9078164118	-0.9708752436	-0.59980041	 0.005122
O	 2.0638305583	-0.5684114647	 0.7443056675	-0.297928
C	 0.7472291664	-0.4116500386	 1.3073792035	 0.347895
C	 0.8523104647	 0.599399451	 2.4443305844	-0.438561
C	 0.2629457902	-1.7689922051	 1.8379828017	-0.436777
H	 1.2756652715	 1.7775340394	-0.2595235827	 0.127895
H	-0.1555340419	 1.7374368326	-1.304552894	 0.119722
H	-0.3142027404	 2.2099999521	 0.3956578313	 0.113464
H	-1.9880404236	 0.1009646659	-0.886858058	 0.123744
H	-1.7337952535	-1.3027430771	 0.1570626182	 0.12606
H	-2.0349682494	 0.2969051956	 0.8707993944	 0.115365
H	 2.1354800893	-2.0391214877	-0.7355934667	 0.096609
H	 2.5954157535	-0.3712231953	-1.2154809241	 0.096584
H	 1.3224800728	 1.5266803845	 2.1135964692	 0.126052
H	-0.1391137267	 0.8304141395	 2.8470537655	 0.11536
H	 1.4563312681	 0.184681558	 3.2563655244	 0.123745
H	 1.0043100206	-2.1592837246	 2.5407106645	 0.119719
H	-0.692484408	-1.6809549496	 2.3637909058	 0.113453
H	 0.1439186087	-2.4918846377	 1.0270650042	 0.127892
75.2549	136.08	195.6716	201.659	262.6314	272.8246	287.7278	298.1796	345.0994	350.2601	375.042	394.4512	476.6745	514.0839	590.825	661.8769	736.2912	837.1464	866.9212	923.799	933.8589	952.3851	969.7063	1007.1114	1020.7964	1020.9069	1119.2837	1154.5124	1175.2623	1181.8307	1183.9513	1205.1167	1248.3981	1255.0849	1306.156	1395.2994	1396.0277	1410.1639	1420.5281	1428.457	1472.8503	1478.7889	1485.1728	1485.4646	1504.5602	1504.6122	1506.7992	1520.0013	1555.7857	2974.6224	3002.7048	3042.061	3043.1927	3046.8163	3050.2136	3109.2647	3109.6516	3116.0577	3118.1047	3124.0961	3125.2185	3139.9705	3140.4494
CC1(C)OCOC1(C)C	CC1(C)OCOC1(C)C	
InChI=1S/C7H14O2/c1-6(2)7(3,4)9-5-8-6/h5H2,1-4H3	InChI=1S/C7H14O2/c1-6(2)7(3,4)9-5-8-6/h5H2,1-4H3
