23
gdb 113831	3.99603	0.81652	0.73022	2.3868	88.51	-0.2183	0.0722	0.2905	1656.5974	0.205024	-384.415422	-384.405306	-384.404362	-384.451343	37.201	
C	-0.1369466023	 1.6491202486	-0.3524218302	-0.374139
C	 0.01529093	 0.2135369106	 0.1456034973	-0.111757
N	-1.2668709258	-0.4795112946	 0.0678976463	-0.085047
C	-1.5551429416	-1.254543643	-1.1319440157	-0.267431
C	-1.3314938336	-1.9403674319	 0.1755208009	 0.021119
C	-0.1194126399	-2.7919963815	 0.381584027	-0.030547
N	 0.132546894	-3.2738179743	 1.7556917867	-0.345908
C	-0.1803784524	-4.2492073937	 0.7004862273	-0.008461
C	-1.4553778952	-5.0461363001	 0.8455542751	-0.393021
H	 0.8089158775	 2.1927883405	-0.2636985029	 0.107651
H	-0.4400722385	 1.666226886	-1.4045710164	 0.116322
H	-0.9004554962	 2.1760812054	 0.2262952306	 0.12718
H	 0.8127259128	-0.285776844	-0.4306922549	 0.076382
H	 0.3303389481	 0.2112527167	 1.1957375996	 0.108574
H	-2.5541323589	-1.1557043551	-1.5492821369	 0.11188
H	-0.7631339474	-1.3497396133	-1.8765274322	 0.099571
H	-2.201140097	-2.2744611081	 0.7353738551	 0.092679
H	 0.7492123042	-2.4897833482	-0.199514896	 0.079635
H	 1.1274933386	-3.2640645607	 1.9617018514	 0.228833
H	 0.655859084	-4.829454437	 0.3094697307	 0.07944
H	-2.246666033	-4.4527546721	 1.307645299	 0.13165
H	-1.8079251846	-5.4010540062	-0.1289224983	 0.116492
H	-1.2847554629	-5.9217603638	 1.4811268965	 0.118904
33.9986	78.1871	110.5118	158.5177	200.6556	206.4929	243.24	313.8234	355.1299	407.4447	446.0082	473.9703	600.7517	731.3273	778.421	809.865	827.9418	862.5969	914.9626	936.6832	978.4988	986.7031	1006.3227	1044.891	1047.2303	1090.0942	1102.7797	1114.7044	1135.3184	1141.2786	1161.8359	1197.4359	1226.6887	1258.3407	1275.0458	1312.8435	1332.5936	1337.8661	1386.6916	1406.7814	1409.141	1438.8058	1475.9199	1487.5998	1488.9246	1492.0663	1502.4676	1508.2168	1517.6806	2951.0072	3036.9332	3037.6898	3051.7332	3074.8296	3094.0112	3096.3241	3106.011	3119.8161	3125.2295	3130.3882	3143.6402	3165.7343	3506.4402
CCN1CC1C1NC1C	CCN1C[C@H]1[C@H]1N[C@H]1C	
InChI=1S/C7H14N2/c1-3-9-4-6(9)7-5(2)8-7/h5-8H,3-4H2,1-2H3	InChI=1S/C7H14N2/c1-3-9-4-6(9)7-5(2)8-7/h5-8H,3-4H2,1-2H3/t5-,6-,7-,9?/m0/s1
