15
gdb 124121	3.70968	0.95241	0.76187	4.0254	81.64	-0.2035	0.0064	0.2099	1439.9361	0.11229	-416.78967	-416.780803	-416.779859	-416.824707	31.361	
C	-0.0100589848	 1.4814181382	 0.001860281	-0.511358
C	 0.0043755958	 0.0269080709	-0.0237678522	 0.252889
C	 0.0042310547	-1.180734809	-0.0513959587	-0.210965
C	 0.0240350902	-2.5890515866	-0.0790070446	 0.004893
C	 1.1329476184	-3.4121409388	-0.0372601105	 0.378476
N	 2.4658506737	-3.1294107858	-0.0231642874	-0.604099
O	 0.7739401797	-4.6946394486	-0.0710268222	-0.211655
N	-0.6437524908	-4.7763331929	-0.1414655626	-0.156376
C	-1.0429352987	-3.5333185415	-0.146600209	-0.067921
H	 0.6701158232	 1.9034821832	-0.7468455754	 0.148466
H	-1.0136874508	 1.8640712982	-0.2145430489	 0.153966
H	 0.2874377255	 1.87415951	 0.9811459804	 0.146659
H	 2.6948438497	-2.1929170638	 0.2745023386	 0.273303
H	 3.0658588498	-3.8492458767	 0.3507399849	 0.271602
H	-2.1023651256	-3.3232426569	-0.1955010335	 0.13212
23.9755	80.4094	108.5665	249.6405	260.1276	296.1484	335.8457	387.2544	467.5745	496.4563	524.7548	552.4418	624.8411	731.6189	748.4216	873.0086	917.8693	935.5482	992.3322	1050.5316	1053.3141	1069.4463	1194.4374	1255.2162	1351.6302	1413.0482	1450.5824	1474.5718	1479.3602	1550.2354	1623.2201	1670.9728	2352.5461	3021.6495	3077.926	3086.4139	3242.8761	3576.8394	3687.9382
CC#CC1=C(N)ON=C1	CC#Cc1c(N)onc1	
InChI=1S/C6H6N2O/c1-2-3-5-4-8-9-6(5)7/h4H,7H2,1H3	InChI=1S/C6H6N2O/c1-2-3-5-4-8-9-6(5)7/h4H,7H2,1H3
