21
gdb 111094	3.62374	1.08708	1.04557	0.8979	85.37	-0.2148	0.0245	0.2392	1282.2983	0.182494	-387.054561	-387.045871	-387.044927	-387.087801	33.429	
C	-0.0420353202	 1.3386066062	-0.2314652706	-0.244483
O	-0.0940501346	 0.0591168318	 0.3618239432	-0.258631
C	-1.3216971772	-0.5871969368	 0.1834238102	 0.194682
C	-1.535846856	-1.3910353644	-1.1709634535	-0.117277
C	-0.5739833596	-2.4565892585	-0.5485782404	-0.214304
C	-1.3269509756	-2.0445599905	 0.7599913966	-0.159475
C	-2.7706467894	-2.4339549398	 0.4111476966	 0.340556
C	-3.7384219605	-3.0921730225	 1.3322826514	-0.518052
C	-2.8969089062	-2.0033361362	-0.8527458551	-0.200159
H	 0.9315737871	 1.7703190441	 0.0120801382	 0.127043
H	-0.1454174723	 1.2914066668	-1.32535968	 0.108986
H	-0.8321459469	 1.9973458391	 0.1609936415	 0.106301
H	-2.1568258043	 0.0635994033	 0.482178003	 0.05705
H	-1.3692104543	-0.9472742691	-2.1522414441	 0.056671
H	-0.6902424403	-3.4886668592	-0.8874114066	 0.086124
H	 0.47269022	-2.1464567396	-0.5521446305	 0.10704
H	-0.9457518449	-2.2619776337	 1.7579350554	 0.06033
H	-3.8986193823	-2.4959205273	 2.2398955126	 0.126367
H	-4.7089601295	-3.2395980195	 0.8493924858	 0.123464
H	-3.3736842029	-4.0721234098	 1.6666635458	 0.126188
H	-3.7624673103	-2.0292243842	-1.5009201595	 0.091579
85.7057	154.1158	168.1681	182.5952	212.3063	286.3055	347.269	421.419	482.0701	512.4622	585.0674	612.4248	784.8346	799.0469	845.3954	861.698	913.6944	936.576	941.9973	996.3289	1007.1152	1018.8041	1059.8037	1066.4091	1089.4104	1115.4765	1143.1653	1180.9903	1183.5945	1212.4715	1229.4062	1234.6554	1243.5321	1252.4799	1261.2598	1318.4963	1376.9593	1414.4617	1477.6552	1479.216	1487.2158	1487.9033	1491.4284	1509.223	1683.0041	2978.5608	2997.921	3013.0371	3028.8864	3056.8966	3065.7967	3103.625	3115.857	3117.2019	3118.9213	3135.8041	3219.5281
COC1C2CC1C(C)=C2	CO[C@H]1[C@H]2C[C@@H]1C(=C2)C	
InChI=1S/C8H12O/c1-5-3-6-4-7(5)8(6)9-2/h3,6-8H,4H2,1-2H3	InChI=1S/C8H12O/c1-5-3-6-4-7(5)8(6)9-2/h3,6-8H,4H2,1-2H3/t6-,7-,8+/m1/s1
