21
gdb 22080	3.13151	0.93033	0.87099	1.3437	84.4	-0.2276	0.0097	0.2372	1449.2109	0.179752	-420.354736	-420.344332	-420.343388	-420.389887	38.618	
C	 1.1769985452	 0.4322712658	 0.4830196757	-0.490764
C	-0.2190325445	-0.0354034479	 0.1836685231	 0.375197
N	-1.250588785	 0.2898928585	 0.8714988039	-0.185543
O	-0.9098836743	 1.0850599614	 1.9770448279	-0.398463
C	-0.5301079002	-0.8955305802	-0.9954062674	-0.134113
N	 0.4789395006	-1.0228023267	-2.0656361876	-0.37733
C	 0.0909619269	-2.2265989326	-1.3155694504	 0.328459
C	 1.1706900248	-2.844940672	-0.4506804671	-0.447026
C	-0.7977731177	-3.2424037175	-2.0087309732	-0.45179
H	 1.8246153299	 0.2646832052	-0.377370169	 0.149084
H	 1.1588305263	 1.4956275921	 0.7365369984	 0.14168
H	 1.5875207659	-0.0883412396	 1.3556104919	 0.138441
H	-1.7728510249	 1.2791422997	 2.3573655939	 0.304482
H	-1.5743064641	-0.8096084065	-1.2868651574	 0.088817
H	 0.0295286512	-0.9973830429	-2.9775466714	 0.22911
H	 1.8436766194	-2.0936914701	-0.0382611195	 0.131649
H	 0.7258165375	-3.4061028578	 0.3783823624	 0.119342
H	 1.7729220645	-3.5444301747	-1.0418746765	 0.116883
H	-0.206995318	-3.8749032526	-2.6821987513	 0.120712
H	-1.2859782745	-3.9007115119	-1.2819410792	 0.127481
H	-1.580442339	-2.7544608197	-2.5983500673	 0.11369
55.8872	125.2357	152.3367	162.7431	199.6349	227.8668	284.3138	306.6454	321.7963	363.2797	390.3987	404.9957	461.7602	486.6485	573.39	665.3199	707.8171	788.417	850.3231	928.2469	956.4324	979.3883	981.6593	1014.2845	1036.8892	1055.8018	1079.8138	1099.2569	1155.6318	1177.9915	1295.7344	1298.8722	1350.0525	1380.0838	1395.202	1410.6668	1422.4551	1450.6431	1477.0086	1482.7381	1485.85	1491.4932	1501.2979	1511.1009	1709.1799	3023.2805	3035.7807	3042.6064	3086.5912	3092.0783	3101.6168	3102.2812	3134.8142	3152.9233	3156.5958	3496.2999	3820.6329
CC(=NO)C1NC1(C)C	CC(=NO)[C@H]1NC1(C)C	
InChI=1S/C6H12N2O/c1-4(8-9)5-6(2,3)7-5/h5,7,9H,1-3H3	InChI=1S/C6H12N2O/c1-4(8-9)5-6(2,3)7-5/h5,7,9H,1-3H3/t5-/m1/s1
