19
gdb 13695	5.57026	0.92811	0.86407	2.7105	77.03	-0.2449	0.0255	0.2704	1398.3112	0.163342	-365.043783	-365.034569	-365.033624	-365.078348	32.462	
C	 0.2926483103	 1.246818977	 0.2469637721	-0.313997
N	-0.2811836369	 0.0719533366	-0.3743598967	-0.20499
C	 0.5015946682	-0.6976079768	-0.9860365195	 0.130805
O	 0.0337755815	-1.8171926693	-1.5851962165	-0.206596
C	 0.9828455006	-2.5676814605	-2.3034031419	 0.103457
C	 1.9332982762	-3.4650608722	-1.5507040142	-0.322095
C	 0.7768048272	-4.0519735311	-2.3369144129	-0.023405
C	-0.3925600583	-4.6914474853	-1.6212412928	-0.399802
H	 1.3824354437	 1.3422227967	 0.1087199238	 0.094736
H	-0.1847815442	 2.146749066	-0.1574336587	 0.12755
H	 0.0834592846	 1.2337370108	 1.3228321471	 0.127108
H	 1.5874698058	-0.5515882148	-1.0887185997	 0.078001
H	 1.3335460434	-2.069285444	-3.2044279758	 0.100629
H	 2.9468010095	-3.5781476386	-1.9196905281	 0.11595
H	 1.8393524612	-3.4700676688	-0.4695639725	 0.124878
H	 1.0417628637	-4.5208439246	-3.2807975323	 0.091288
H	-0.6514232629	-4.1368651271	-0.7166877887	 0.136361
H	-1.2805411678	-4.7116283998	-2.2614562493	 0.123688
H	-0.1559559059	-5.7224757842	-1.3387708333	 0.116435
49.5125	79.4344	118.4801	184.1152	206.6877	223.742	298.1009	317.7417	395.0608	439.085	522.1321	619.9205	761.9748	834.5407	883.3992	925.1844	983.3388	989.099	1030.5668	1062.6183	1079.4303	1109.2297	1137.7274	1142.4043	1152.3816	1183.3632	1195.7158	1221.4583	1261.8688	1367.5585	1396.8597	1415.7027	1421.2593	1451.0931	1481.4241	1482.4316	1492.8653	1503.56	1505.9177	1779.5676	2965.6329	3005.2829	3039.3656	3057.2692	3076.5007	3098.8774	3123.075	3126.1719	3132.2399	3147.8171	3220.2136
CN=COC1CC1C	CN=CO[C@H]1C[C@H]1C	
InChI=1S/C6H11NO/c1-5-3-6(5)8-4-7-2/h4-6H,3H2,1-2H3	InChI=1S/C6H11NO/c1-5-3-6(5)8-4-7-2/h4-6H,3H2,1-2H3/t5-,6+/m1/s1
