19
gdb 30207	4.53147	1.15992	0.95452	1.283	81.5	-0.2137	0.0218	0.2355	1233.3192	0.161813	-385.932258	-385.924719	-385.923775	-385.964171	30.047	
C	-0.8387420537	 1.1964075682	-0.0270740996	-0.405144
C	 0.1895822857	 0.06921207	 0.0129888765	 0.049147
C	 1.1915981862	 0.0712825506	-1.1868513933	-0.370372
C	 2.3907644162	-0.6198990887	-0.6064157388	 0.237467
C	 3.5410738305	-1.2498162628	-0.9446216902	-0.172488
O	 4.1940121013	-1.652824784	 0.1880160514	-0.155362
C	 3.4379380284	-1.2655359568	 1.2603831239	-0.172489
C	 2.3237941971	-0.6301138894	 0.8252816895	 0.237467
C	 1.0752263483	 0.0535382896	 1.3010279759	-0.370372
H	-0.3481201638	 2.1764956376	 0.0028778186	 0.113885
H	-1.4416486169	 1.1534920552	-0.9404420483	 0.113928
H	-1.5242625576	 1.1408864904	 0.825309597	 0.113928
H	-0.3404212052	-0.8912237461	-0.0186517926	 0.08187
H	 0.7715424078	-0.4155458532	-2.0721834981	 0.109334
H	 1.4336509967	 1.1036762823	-1.4760844667	 0.107803
H	 4.0298143402	-1.5004057819	-1.8715913748	 0.132132
H	 3.8381837468	-1.5296233639	 2.2252648546	 0.132132
H	 1.2885434352	 1.0815506912	 1.6262484629	 0.107803
H	 0.5746881969	-0.4455533584	 2.1362711022	 0.109334
87.8571	226.0708	248.7089	270.0698	278.4586	408.361	457.4162	501.2722	606.2463	644.0356	706.793	732.2721	755.265	764.7458	816.5113	893.227	923.4659	929.3878	940.2031	1050.1456	1062.301	1102.7984	1109.7387	1135.1144	1146.3886	1173.5843	1237.8502	1246.9221	1275.5239	1284.8195	1299.2167	1344.8308	1368.6398	1397.0361	1412.4742	1482.7517	1491.6837	1495.8519	1501.1867	1600.4596	1666.3993	3006.3009	3007.8799	3022.3337	3026.7677	3075.5317	3077.7233	3092.6886	3096.3176	3270.6056	3275.3588
CC1CC2=COC=C2C1	C[C@H]1Cc2cocc2C1	
InChI=1S/C8H10O/c1-6-2-7-4-9-5-8(7)3-6/h4-6H,2-3H2,1H3	InChI=1S/C8H10O/c1-6-2-7-4-9-5-8(7)3-6/h4-6H,2-3H2,1H3
