21
gdb 92556	2.45785	1.75718	1.69525	1.6224	80.14	-0.238	0.078	0.316	972.7372	0.185652	-387.094484	-387.086975	-387.086031	-387.126562	30.337	
C	-0.0293254905	 1.5466318314	-0.114652612	-0.402753
C	-0.0421209534	 0.0148400275	-0.0140485455	 0.013615
C	 0.4122681743	-0.7179207243	-1.311760153	-0.226554
C	 1.8231803035	-1.239963323	-1.0018117688	 0.098892
O	 2.7637722307	-0.1613021174	-1.1453093964	-0.279916
C	 3.1365614225	 0.3659233242	 0.1227620578	-0.096207
C	 2.3565378068	-0.4054838377	 1.1644358686	-0.065179
C	 0.8469405965	-0.5936843797	 1.0832512115	-0.060922
C	 1.7861251553	-1.617640035	 0.4864677368	-0.108064
H	 0.9281572533	 1.9204602942	-0.4853760133	 0.131582
H	-0.8049785229	 1.892005419	-0.8066878492	 0.109939
H	-0.2229166433	 2.0095706394	 0.8588453191	 0.107902
H	-1.0714719013	-0.2842291546	 0.2160921208	 0.069604
H	-0.2501145567	-1.5684104346	-1.5106319954	 0.089472
H	 0.4109405098	-0.0768290998	-2.1977321046	 0.101749
H	 2.1398586334	-2.0535191035	-1.6609552268	 0.07242
H	 4.2148007141	 0.2148052916	 0.2827450822	 0.093917
H	 2.949067786	 1.4468567926	 0.1381048987	 0.098793
H	 2.7951223077	-0.4879284381	 2.1533809439	 0.086926
H	 0.3756276517	-0.7959742011	 2.0400696962	 0.079917
H	 1.9109772826	-2.637049331	 0.8282893494	 0.084868
59.2812	172.7063	239.2522	269.1151	348.3068	382.5328	506.4465	605.2802	659.5127	715.5192	763.4937	777.4225	798.1158	815.7483	867.5197	921.8444	934.7459	951.6544	970.838	1010.7961	1015.2049	1029.2169	1060.7725	1063.8108	1075.8122	1105.5952	1122.0284	1144.8666	1171.4736	1218.121	1225.2112	1259.9533	1286.7419	1309.1051	1330.9507	1343.7731	1354.5428	1374.9953	1381.5309	1408.7655	1423.6706	1478.6503	1494.0221	1502.7265	1534.3195	2988.4844	3020.3892	3031.3339	3034.9097	3041.2175	3068.0224	3093.0743	3097.2738	3122.8238	3150.9108	3166.0078	3191.5552
CC1CC2OCC3C1C23	C[C@H]1C[C@H]2OC[C@H]3[C@@H]1[C@@H]23	
InChI=1S/C8H12O/c1-4-2-6-8-5(3-9-6)7(4)8/h4-8H,2-3H2,1H3	InChI=1S/C8H12O/c1-4-2-6-8-5(3-9-6)7(4)8/h4-8H,2-3H2,1H3/t4-,5-,6+,7+,8+/m0/s1
