18
gdb 126974	6.00362	0.71916	0.65792	2.2415	74.65	-0.2343	-0.0239	0.2103	1688.6078	0.148319	-435.259566	-435.250731	-435.249786	-435.29467	30.838	
C	 0.1795159888	 1.1447431934	 0.9485389101	-0.391888
C	-0.1060253661	 0.0885768933	-0.1139267036	-0.097224
N	-1.4139374948	-0.5206908981	 0.0989738334	-0.295291
C	-1.7212300248	-1.5685904157	-0.8562810341	-0.264458
C	-2.9184339866	-2.342578776	-0.4129728177	 0.450795
N	-3.2997206921	-2.59020373	 0.8057080147	-0.321529
C	-4.4143454322	-3.3644319528	 0.5973150591	 0.041339
N	-4.7120634444	-3.5914388915	-0.6512648896	-0.114662
O	-3.7037866356	-2.8986556597	-1.3402237593	-0.197799
H	 1.1470795162	 1.6223169839	 0.7696516974	 0.11809
H	-0.5973255319	 1.9142845765	 0.9456029216	 0.131308
H	 0.2090511825	 0.6975599084	 1.9487456609	 0.117385
H	-0.1095534932	 0.5550043368	-1.1081974944	 0.104808
H	 0.710173636	-0.6593965761	-0.1279978072	 0.079326
H	-1.4825453859	-0.8998098985	 1.0385908046	 0.236307
H	-1.9256084435	-1.135409569	-1.8427873884	 0.139344
H	-0.8928997343	-2.2918334638	-1.0045265011	 0.115105
H	-5.0172147481	-3.767617131	 1.3979857535	 0.149043
36.5554	84.4476	97.0747	132.6617	248.7427	256.555	305.7138	332.7356	479.2201	653.4293	697.9788	755.4023	785.1426	818.9393	907.1442	931.6933	933.2902	981.5026	1006.1437	1034.462	1048.0226	1141.7219	1162.1879	1173.4747	1197.1688	1239.1858	1255.826	1298.2478	1307.0991	1369.3618	1406.9703	1427.8397	1485.6701	1496.113	1500.8151	1506.2883	1526.1647	1528.012	1621.5315	2892.3241	2915.9238	3027.3298	3037.5006	3051.3169	3103.7187	3123.0586	3261.4711	3521.4971
CCNCC1=NC=NO1	CCNCc1ncno1	
InChI=1S/C5H9N3O/c1-2-6-3-5-7-4-8-9-5/h4,6H,2-3H2,1H3	InChI=1S/C5H9N3O/c1-2-6-3-5-7-4-8-9-5/h4,6H,2-3H2,1H3
