15
gdb 21316	7.01851	1.1401	1.04814	2.2211	63.52	-0.251	0.0066	0.2577	1113.6865	0.120463	-395.988737	-395.981183	-395.980239	-396.021735	25.955	
C	-0.0726445317	 1.3482328808	-0.0148970403	-0.219557
O	-0.0441343658	-0.05861261	 0.0054817639	-0.231922
C	 0.6740513817	-0.5967756934	-1.0872633191	-0.158443
C	 0.6032713885	-2.0870478318	-1.028915468	 0.345375
N	 1.6359354169	-2.8275573547	-0.6518031622	-0.258524
N	 1.1344908381	-4.0805803191	-0.7360074227	-0.175662
C	-0.1483223252	-4.0441958842	-1.1521472523	 0.015597
N	-0.5195865252	-2.7975339483	-1.3518813645	-0.287941
H	 0.9393548969	 1.7808089343	 0.0425836123	 0.10241
H	-0.558208284	 1.7349752523	-0.9253428931	 0.103927
H	-0.6455151138	 1.674162989	 0.8564495853	 0.128009
H	 0.2400735109	-0.2484494431	-2.0382047466	 0.101835
H	 1.7292041935	-0.2860467176	-1.0570249509	 0.105562
H	 1.714330462	-4.8704935986	-0.5049965445	 0.28295
H	-0.7504531229	-4.9291288055	-1.2944927675	 0.146385
48.8234	83.005	128.3195	228.6672	336.1319	347.8329	399.5015	548.7049	684.2527	727.0743	827.234	858.1893	983.6599	994.1006	999.1554	1020.3622	1106.723	1151.1739	1169.6193	1183.9207	1222.9975	1252.2113	1297.8106	1362.4233	1401.1685	1467.0915	1474.6816	1483.9985	1494.3824	1507.7954	1518.3254	1561.5604	2963.1682	2977.9634	3008.1851	3017.3942	3115.8764	3258.0748	3665.4179
COCC1=NNC=N1	COCc1n[nH]cn1	
InChI=1S/C4H7N3O/c1-8-2-4-5-3-6-7-4/h3H,2H2,1H3,(H,5,6,7)	InChI=1S/C4H7N3O/c1-8-2-4-5-3-6-7-4/h3H,2H2,1H3,(H,5,6,7)
