17
gdb 83058	2.68656	1.5055	1.24706	5.1846	78.56	-0.2421	-0.0153	0.2269	1056.0476	0.136672	-380.86505	-380.857174	-380.85623	-380.897176	30.361	
C	-0.1755698326	 1.5639645622	 0.0339062984	-0.431121
C	 0.0061732262	 0.0673594396	 0.073997033	-0.014009
N	 1.2435887361	-0.6307742863	-0.2866589346	-0.146074
C	 2.4821459662	 0.185807385	-0.298164956	-0.219196
C	 2.7256298569	 0.6068218986	 1.1323611077	-0.085634
C	 1.7830293708	 0.1171577543	 1.9357855837	-0.138443
C	 0.7912220476	-0.6649735339	 1.1392825634	 0.136328
C	 0.2904936035	-1.9069720577	 1.6791834658	 0.223254
N	-0.1320380163	-2.8793522599	 2.1406115043	-0.340416
H	 0.6172241828	 2.1052402823	 0.5524547925	 0.132877
H	-0.2058477956	 1.9062844468	-1.0066781408	 0.134237
H	-1.1314756391	 1.8299392736	 0.4952980901	 0.135802
H	-0.8583401088	-0.4810445345	-0.2971747724	 0.115531
H	 3.303358001	-0.4237273292	-0.6943440147	 0.131284
H	 2.3654122859	 1.04077358	-0.9767692312	 0.124279
H	 3.5498202809	 1.2428087427	 1.4331912205	 0.116473
H	 1.7060320444	 0.2376817464	 3.0079689204	 0.12483
137.8236	164.8447	186.8234	234.7059	245.0102	367.6287	447.6677	491.3793	552.7006	568.4678	594.8027	720.3716	742.9594	760.9912	825.6324	864.9573	927.6702	955.3583	983.9581	1015.1948	1030.373	1050.9823	1123.7047	1135.502	1160.8762	1209.4103	1232.0286	1310.3907	1340.9542	1357.5187	1402.2419	1422.2521	1485.9375	1496.5295	1502.7362	1670.6808	2354.6798	3024.3956	3041.3221	3052.2089	3101.2553	3116.8819	3141.3325	3203.1284	3235.6937
CC1N2CC=CC12C#N	C[C@H]1N2CC=C[C@@]12C#N	
InChI=1S/C7H8N2/c1-6-7(5-8)3-2-4-9(6)7/h2-3,6H,4H2,1H3	InChI=1S/C7H8N2/c1-6-7(5-8)3-2-4-9(6)7/h2-3,6H,4H2,1H3/t6-,7-,9?/m1/s1
