15
gdb 64622	2.89505	1.44961	1.36406	1.6298	69.79	-0.2715	-0.0328	0.2387	985.5463	0.113094	-416.785246	-416.777485	-416.77654	-416.817382	29.479	
N	-0.071354671	 1.5173463481	-0.008893887	-0.525453
C	-0.0260757812	 0.0545728522	 0.0017483257	 0.059701
C	 0.6262333749	-0.4737578112	 1.2816205467	-0.089024
C	-0.1611175862	-1.3224778654	 1.9397100602	-0.082444
C	-1.4819562498	-1.4513071804	 1.2520420218	-0.003402
O	-2.1974005762	-0.1937149329	 1.2010385938	-0.240329
C	-1.4363835445	-0.5787010462	 0.0717144208	 0.020482
C	 0.6769030418	-0.4985935728	-1.181549156	 0.231608
N	 1.223673088	-0.8880296992	-2.1237937114	-0.335972
H	 0.8732813221	 1.8914067078	-0.0277586778	 0.243612
H	-0.5294594309	 1.8466705541	-0.8542706517	 0.245934
H	 1.6084400611	-0.1323639821	 1.5856230257	 0.121956
H	 0.0808022153	-1.8176401886	 2.871536155	 0.121598
H	-2.101361246	-2.3388882295	 1.324217035	 0.113455
H	-1.9816568173	-0.762346134	-0.8497426106	 0.118275
119.2052	144.3268	207.5538	221.4221	271.8913	395.9387	459.8381	494.7734	524.8607	580.8967	648.2782	751.7026	775.1257	820.5255	850.3754	867.5481	874.0292	957.4156	986.2072	1017.3122	1047.4047	1056.6742	1107.426	1123.7173	1185.0259	1254.9969	1296.4613	1319.21	1372.7366	1414.4962	1657.7149	1674.1824	2335.935	3155.8853	3179.7116	3203.0163	3227.7502	3490.2875	3570.6458
NC1(C=CC2OC12)C#N	N[C@]1(C=C[C@H]2O[C@@H]12)C#N	
InChI=1S/C6H6N2O/c7-3-6(8)2-1-4-5(6)9-4/h1-2,4-5H,8H2	InChI=1S/C6H6N2O/c7-3-6(8)2-1-4-5(6)9-4/h1-2,4-5H,8H2/t4-,5-,6-/m1/s1
