16
gdb 10567	2.884	1.47084	1.09904	1.4568	61.85	-0.2602	-0.0403	0.2199	1070.5119	0.127758	-420.85488	-420.846172	-420.845228	-420.888773	30.194	
O	-0.1821336214	 1.4107462751	 0.0808233336	-0.420299
C	-0.0824862631	 0.0191429426	-0.1785407875	-0.079524
C	-1.3636904855	-0.6231154651	 0.3507457555	-0.271021
C	-1.43254406	-2.1049747551	 0.0753263511	 0.292785
C	-2.6784902646	-2.7488548479	-0.4040198934	-0.220382
O	-1.6044447093	-2.517612094	-1.296857566	-0.262506
C	-0.4959077342	-3.0126137189	 0.8166864908	 0.127008
O	 0.1665117594	-2.6801306861	 1.7658572923	-0.254397
H	 0.6363518167	 1.8279056649	-0.2027025727	 0.28806
H	 0.0076667614	-0.1843839655	-1.2566330337	 0.099913
H	 0.7886747271	-0.422640945	 0.3253224156	 0.108585
H	-1.4216205739	-0.46150917	 1.4318586771	 0.130672
H	-2.2206635948	-0.12256423	-0.1096364168	 0.114851
H	-2.8827788595	-3.7940999641	-0.1733273437	 0.12437
H	-3.555096776	-2.1164482401	-0.5341066961	 0.132449
H	-0.4658182423	-4.0437209107	 0.3991607439	 0.089437
71.6555	85.6133	132.2321	162.9636	239.9377	247.6319	328.6822	364.0345	414.945	480.4811	549.6143	769.019	825.8898	860.2429	882.2534	951.7113	1023.3387	1043.1165	1077.9293	1088.5751	1135.658	1163.2879	1220.0796	1247.0042	1297.0828	1313.0631	1338.3039	1366.3381	1430.3363	1461.4015	1472.1667	1520.0786	1532.1196	1825.5292	2892.5873	2984.0123	3024.9192	3057.9084	3082.2786	3107.5232	3173.356	3834.4638
OCCC1(CO1)C=O	OCC[C@]1(CO1)C=O	
InChI=1S/C5H8O3/c6-2-1-5(3-7)4-8-5/h3,6H,1-2,4H2	InChI=1S/C5H8O3/c6-2-1-5(3-7)4-8-5/h3,6H,1-2,4H2/t5-/m1/s1
