19
gdb 72874	2.86186	1.32192	1.08252	1.5369	76.23	-0.2445	-0.0268	0.2177	1159.3241	0.157941	-423.005075	-422.996472	-422.995528	-423.038937	31.88	
C	-0.3800949437	 1.5352026051	-0.2842859199	-0.501212
C	-0.0086935591	 0.088679769	-0.0562661122	 0.308886
C	-1.1271368094	-0.918442841	 0.2953089129	-0.122143
O	-0.3996072342	-1.4075437388	 1.4505486474	-0.289672
C	 0.6684704067	-0.4805365102	 1.2285184502	 0.058576
C	 1.8227129009	-1.0865313994	 0.3523794586	-0.101893
C	 1.124800927	-0.5356479535	-0.9202276605	-0.317766
C	 3.1658944781	-0.4909747827	 0.6744679676	 0.130229
O	 3.7023944011	 0.3920274404	 0.0517261586	-0.242502
H	 0.5096103307	 2.1728654117	-0.2986279268	 0.1327
H	-0.8893449539	 1.6580564446	-1.2478731893	 0.123446
H	-1.0519725894	 1.9044900781	 0.49811323	 0.120137
H	-2.0776691808	-0.4599161058	 0.5964078476	 0.103177
H	-1.3252849798	-1.7097146437	-0.4383824524	 0.101495
H	 0.9342285118	 0.0858022878	 2.1264753275	 0.081578
H	 1.8695519901	-2.1729060356	 0.4718243533	 0.100642
H	 0.8078834016	-1.2799201628	-1.6544893947	 0.1014
H	 1.7488001442	 0.21326183	-1.4131058353	 0.131603
H	 3.6384692381	-0.9059454832	 1.5940444874	 0.081321
47.641	88.4859	203.8233	215.9686	235.9292	300.3612	332.1495	364.8574	396.2277	610.7353	668.1466	680.1852	815.1356	844.2044	877.0251	904.4176	919.4574	958.0203	983.1717	1001.6535	1020.9754	1038.8661	1082.8213	1116.4541	1147.2511	1158.5973	1170.3474	1215.8591	1237.6675	1259.0641	1287.2444	1311.4861	1341.5697	1377.9009	1414.3146	1420.3624	1478.9505	1492.155	1494.7926	1523.3579	1816.0013	2871.356	3008.2149	3024.2721	3055.7563	3060.4006	3065.6681	3074.4518	3087.7909	3101.9069	3124.4644
CC12COC1C(C2)C=O	C[C@]12CO[C@H]1[C@@H](C2)C=O	
InChI=1S/C7H10O2/c1-7-2-5(3-8)6(7)9-4-7/h3,5-6H,2,4H2,1H3	InChI=1S/C7H10O2/c1-7-2-5(3-8)6(7)9-4-7/h3,5-6H,2,4H2,1H3/t5-,6-,7-/m0/s1
