19
gdb 81851	2.75186	1.43267	1.07395	1.5298	77.25	-0.2238	0.0145	0.2382	1153.8932	0.157924	-423.015779	-423.006804	-423.00586	-423.048824	34.699	
C	 0.0567707742	 1.5082183396	 0.0560637319	-0.507882
C	-0.0223351697	 0.0177938644	-0.0236246297	 0.313142
C	-0.1052851483	-0.7489075028	-1.1128577665	-0.267963
C	-0.0561465771	-2.2087646048	-0.7774365012	 0.369216
O	-0.8904144607	-3.1035337811	-1.4490546439	-0.46969
C	 1.239922593	-2.6819858231	-0.1558377872	-0.332455
C	 0.071290122	-2.2666891954	 0.7209051731	-0.090632
C	 0.0500006938	-0.8394878102	 1.2443977337	-0.007067
O	 1.2211085604	-0.5842758907	 2.0224166575	-0.428989
H	 1.001240104	 1.828176793	 0.5154658272	 0.125488
H	-0.0054421203	 1.9713229304	-0.9320349173	 0.128955
H	-0.7524700636	 1.9184121875	 0.675290474	 0.12246
H	-0.1597367988	-0.3894778992	-2.1359346638	 0.087491
H	-0.4432742773	-3.3768599838	-2.2569099288	 0.283197
H	 1.4320452577	-3.7498745734	-0.1903700785	 0.108192
H	 2.1158515521	-2.0454695244	-0.2038715	 0.121635
H	-0.4345804216	-3.0442895631	 1.2783859565	 0.09429
H	-0.8444812551	-0.6741780717	 1.8682049501	 0.067594
H	 1.1246225452	 0.2844073988	 2.425359303	 0.283019
114.3152	165.6205	195.6667	234.0039	251.9138	273.7334	285.7701	337.2652	396.1334	458.0467	507.2778	562.7873	583.2289	663.8574	759.1794	838.086	873.9858	887.7426	915.3178	949.9431	961.863	1008.8604	1049.7266	1054.4023	1058.2127	1082.5798	1099.327	1163.1766	1224.5835	1233.108	1254.1	1326.1862	1329.7473	1344.7019	1403.0432	1405.2773	1419.5102	1474.1352	1480.0984	1493.5713	1717.9989	2954.3145	3010.4149	3055.1435	3112.4094	3128.4247	3176.8404	3196.715	3225.4721	3803.9804	3818.8289
CC1=CC2(O)CC2C1O	CC1=C[C@@]2(O)C[C@H]2[C@H]1O	
InChI=1S/C7H10O2/c1-4-2-7(9)3-5(7)6(4)8/h2,5-6,8-9H,3H2,1H3	InChI=1S/C7H10O2/c1-4-2-7(9)3-5(7)6(4)8/h2,5-6,8-9H,3H2,1H3/t5-,6-,7+/m0/s1
