18
gdb 72024	2.87392	2.10573	1.8595	0.4936	72.46	-0.2354	0.0894	0.3248	843.1267	0.150327	-401.918679	-401.912392	-401.911447	-401.948887	26.971	
C	 0.033014227	 1.4936447788	-0.079698366	-0.515114
C	-0.0065110289	-0.0067696391	-0.0253984281	 0.405641
O	 0.7859647486	-0.6157305739	-1.0472940751	-0.28737
C	 0.7254658611	-1.9693485754	-0.5717420502	 0.041148
C	 1.3935281816	-1.8327685887	 0.8130301926	-0.221366
C	 0.3460793826	-0.83322355	 1.2874146592	-0.07025
N	-0.9675660392	-1.5878927468	 1.1947295823	-0.154621
C	-0.7653809703	-2.161236445	-0.1803418921	-0.062428
C	-1.3276733257	-0.8034914865	-0.0278857063	-0.095694
H	 1.0539839564	 1.8584776648	 0.065968528	 0.129753
H	-0.3220152499	 1.8506824495	-1.0516814278	 0.132205
H	-0.6041838696	 1.9220283386	 0.6991035769	 0.12754
H	 1.1448576455	-2.654766998	-1.3046849032	 0.081409
H	 1.3777706258	-2.7495359307	 1.4082741152	 0.110843
H	 2.4077931211	-1.435081301	 0.7380600485	 0.107977
H	 0.4794133618	-0.3070281691	 2.2300904227	 0.079039
H	-1.3530391886	-3.0328811773	-0.4358216709	 0.099042
H	-2.3367733092	-0.48154118	-0.2610160557	 0.092246
203.774	248.6143	283.0786	444.1091	545.1482	578.7762	600.3532	667.5652	718.2008	776.0609	793.935	839.0354	851.1506	881.2989	892.7708	903.9679	913.4007	945.3599	976.0889	987.4579	1008.6596	1033.1089	1055.1989	1113.1452	1151.7408	1157.4045	1171.5699	1183.0075	1233.1341	1242.6159	1259.524	1290.0706	1315.2502	1338.4421	1370.3245	1420.4813	1468.1248	1482.5239	1493.7117	3041.408	3068.772	3111.5312	3119.668	3131.1106	3145.2828	3153.503	3169.3396	3207.3207
CC12OC3CC1N1C3C21	C[C@@]12O[C@H]3C[C@@H]1N1[C@H]3[C@H]21	
InChI=1S/C7H9NO/c1-7-4-2-3(9-7)5-6(7)8(4)5/h3-6H,2H2,1H3	InChI=1S/C7H9NO/c1-7-4-2-3(9-7)5-6(7)8(4)5/h3-6H,2H2,1H3/t3-,4-,5+,6+,7+,8?/m0/s1
