20
gdb 59201	2.8655	1.07922	1.04041	3.2965	75.95	-0.2363	0.0688	0.3051	1274.1476	0.170283	-440.203606	-440.194565	-440.193621	-440.237343	34.608	
C	 0.0953164085	 1.4942649792	-0.1321082373	-0.405226
C	 0.0508078	-0.0162452154	 0.10307562	 0.090662
O	 0.6446563896	-0.3636973827	 1.3564220344	-0.435439
C	-1.3683465571	-0.5611450918	 0.033062936	 0.046117
C	-2.0787615499	-0.7801646905	-1.3355674059	-0.10816
N	-1.1196226468	-1.9279846192	-1.5777257633	-0.325668
C	-1.5932282842	-2.0916090127	-0.1421986391	-0.071146
C	-3.0354014004	-1.7906473417	-0.6148647554	 0.121357
O	-3.9551948514	-1.3765349005	 0.3596217051	-0.430428
H	 1.1199636155	 1.8616863819	-0.0290611647	 0.122535
H	-0.266747541	 1.7511624144	-1.1331068583	 0.115536
H	-0.5327863585	 2.0238364691	 0.5962168709	 0.100143
H	 0.6638417029	-0.5230267847	-0.6452032047	 0.111095
H	 0.1383468473	 0.0743402808	 2.0500432964	 0.272307
H	-2.0098459569	-0.1051974494	 0.7923392191	 0.075889
H	-2.307687034	-0.0488222229	-2.1137731933	 0.075035
H	-1.5711862799	-2.6355466778	-2.1685340235	 0.204168
H	-1.2389699696	-2.9031956589	 0.493370775	 0.089542
H	-3.4588608963	-2.5532582904	-1.2853684709	 0.063824
H	-4.756377068	-1.0808082966	-0.0841081004	 0.287857
65.8055	141.4065	161.8225	240.7683	262.0104	279.7912	297.6553	360.4934	384.2573	455.309	476.7218	589.2806	618.5527	785.5574	842.4065	867.9886	880.2124	901.4919	908.5566	920.0958	1003.8746	1058.6375	1067.2797	1084.7631	1102.8879	1128.2161	1145.1459	1157.5523	1173.3311	1181.6284	1204.4231	1231.5835	1270.7022	1282.1606	1296.9265	1317.8914	1341.3493	1399.4744	1417.3981	1427.0602	1440.1473	1491.0148	1495.3514	2996.1108	3019.5988	3076.8576	3082.6168	3091.9287	3108.3955	3117.1274	3120.9146	3363.1144	3790.8774	3819.1152
CC(O)C1C2NC1C2O	C[C@@H](O)[C@H]1[C@H]2N[C@@H]1[C@H]2O	
InChI=1S/C6H11NO2/c1-2(8)3-4-6(9)5(3)7-4/h2-9H,1H3	InChI=1S/C6H11NO2/c1-2(8)3-4-6(9)5(3)7-4/h2-9H,1H3/t2-,3-,4+,5-,6-/m1/s1
