15
gdb 33449	2.54594	1.58422	1.14934	5.2069	74.59	-0.3008	-0.0143	0.2865	1051.7548	0.113426	-379.663067	-379.655336	-379.654392	-379.695365	28.837	
N	 0.1161482112	-1.1228913827	 0.061575946	-0.344307
C	 0.0572806785	 0.0314362195	 0.0389350204	 0.257199
C	 0.0328583113	 1.474759924	 0.0436788501	 0.032136
C	-1.0642149034	 2.0692415231	-0.6815644882	 0.24029
N	-1.9343502464	 2.5690679378	-1.2551119787	-0.320893
C	 0.4953272698	 2.2750241861	 1.2736381028	-0.073655
C	 1.5835308068	 1.5004811082	 2.024264823	-0.256299
C	 2.4549907082	 1.5196526799	 0.7214771437	-0.25629
C	 1.3352490204	 2.2934139949	 0.0178853616	-0.073686
H	-0.1756289723	 3.0245642953	 1.6735885069	 0.130811
H	 2.0235667347	 2.0959140617	 2.8254820892	 0.127456
H	 1.2964556835	 0.5238631319	 2.4194874925	 0.139498
H	 3.3553275576	 2.1252431741	 0.8345163044	 0.127456
H	 2.7239272037	 0.5552549658	 0.2855872295	 0.139482
H	 1.4384669464	 3.0599034804	-0.7396055232	 0.130803
135.2451	141.4998	159.8001	180.9436	312.8452	362.9906	491.3409	497.7764	589.9182	594.3901	597.37	743.3439	782.6752	864.6688	868.8766	931.29	958.4684	975.0934	1025.0446	1025.2501	1099.2937	1100.3792	1177.8991	1220.3465	1241.2512	1253.3036	1282.757	1292.3105	1354.1035	1476.8486	1496.9998	2356.3183	2362.3418	3077.8719	3082.5056	3127.3657	3142.6933	3197.0393	3207.9093
N#CC1(C#N)C2CCC12	N#CC1(C#N)[C@H]2CC[C@@H]12	
InChI=1S/C7H6N2/c8-3-7(4-9)5-1-2-6(5)7/h5-6H,1-2H2	InChI=1S/C7H6N2/c8-3-7(4-9)5-1-2-6(5)7/h5-6H,1-2H2/t5-,6+
