19
gdb 91963	2.48322	1.70716	1.41988	1.9645	74.64	-0.2346	0.0668	0.3014	998.4442	0.16212	-419.163638	-419.156183	-419.155239	-419.195217	30.562	
O	 0.0842751942	 1.4280042662	-0.1020869264	-0.434642
C	 0.0257894755	 0.0183029958	 0.0063951329	 0.010593
C	 0.6193680216	-0.49271421	 1.3485967092	-0.240234
C	-0.5745004969	-0.5421541897	 2.2868241228	-0.032272
N	-1.4147941018	 0.6772701272	 2.1986491825	-0.366502
C	-1.8175735575	-0.5567199151	 1.4744148066	-0.104835
C	-1.4240967962	-0.4994931391	 0.0270158469	 0.368599
C	-2.3452116024	-0.2571651295	-1.1005068182	-0.29155
N	-1.8692289783	-1.6264520078	-0.8099388778	-0.376943
H	-0.4264420181	 1.7570041413	 0.6543776933	 0.288032
H	 0.5728294137	-0.3738318455	-0.8572808975	 0.07172
H	 1.0287420829	-1.5032984043	 1.2339736061	 0.103722
H	 1.42046904	 0.169028062	 1.6882485008	 0.111872
H	-0.5077163076	-1.0560890579	 3.2398109002	 0.091079
H	-1.9717306684	 0.7769366956	 3.0427995495	 0.237699
H	-2.7149202914	-1.0880431722	 1.7699689428	 0.095313
H	-3.4044554942	-0.0961962615	-0.9190909937	 0.115197
H	-1.9473633876	 0.2674106445	-1.9649459946	 0.123328
H	-1.1350728975	-1.8816304201	-1.4672141353	 0.229823
119.1163	219.2665	233.5751	298.7719	352.6074	404.1078	454.8488	493.5336	571.5276	611.9314	710.5178	807.8537	811.8786	850.7215	879.4631	885.4653	907.9118	929.878	942.5141	965.4551	993.7289	1013.3444	1035.4798	1086.1595	1100.5319	1113.264	1129.3032	1155.2517	1197.3577	1239.4813	1252.205	1263.9175	1294.0574	1306.5949	1330.1451	1342.2827	1400.3236	1452.3783	1465.4193	1477.1338	1516.6283	3040.7479	3058.1956	3102.7483	3109.106	3167.325	3185.2191	3194.6616	3485.6238	3513.1818	3689.6361
OC1CC2NC2C11CN1	O[C@H]1C[C@H]2N[C@H]2[C@]21CN2	
InChI=1S/C6H10N2O/c9-4-1-3-5(8-3)6(4)2-7-6/h3-5,7-9H,1-2H2	InChI=1S/C6H10N2O/c9-4-1-3-5(8-3)6(4)2-7-6/h3-5,7-9H,1-2H2/t3-,4+,5-,6-/m1/s1
