15
gdb 68735	2.4793	1.6656	1.34974	1.1341	72.33	-0.2306	0.0307	0.2612	980.6574	0.110458	-420.525813	-420.518023	-420.517078	-420.557846	30.577	
O	-0.0074954236	 1.3667030705	 0.1081672529	-0.442076
C	 0.028209895	 0.0021477912	 0.0183789265	 0.356658
C	-0.2750091388	-0.8422459606	 1.2080068166	-0.368236
C	-1.1780269983	-1.019799049	-0.0149162164	 0.058655
C	-2.5690865208	-0.7392966252	-0.0101711924	 0.225993
C	-3.7490865735	-0.5006767565	-0.0203096567	-0.432986
C	-0.4133876332	-1.773952574	-1.0866842897	-0.054815
O	-0.17072725	-0.9057199661	-2.1994449396	-0.24183
C	 0.7042734168	-0.8155216506	-1.0603560978	-0.085932
H	-0.2908940701	 1.7132663435	-0.7470611465	 0.302248
H	 0.3864795587	-1.6488375538	 1.5127253261	 0.118638
H	-0.7411000922	-0.3044166673	 2.0273063788	 0.144538
H	-4.7901064717	-0.2928527066	-0.0293154148	 0.189373
H	-0.3870921211	-2.8412481996	-1.270108731	 0.114546
H	 1.7616215026	-0.9786271258	-1.231701386	 0.115226
111.1561	132.9976	223.6354	293.6473	362.8738	416.6221	440.4779	509.8587	549.6202	559.5833	610.0062	644.6779	656.0774	697.0506	766.1637	815.8629	871.912	874.7382	948.2919	960.0178	987.4953	1046.3034	1092.9323	1111.5283	1174.5489	1217.0335	1230.4351	1334.1111	1348.4695	1352.7253	1414.135	1492.6664	2231.4999	3117.201	3187.9629	3201.7511	3213.6489	3502.881	3783.0294
OC12CC1(C#C)C1OC21	O[C@@]12C[C@]1(C#C)[C@H]1O[C@@H]21	
InChI=1S/C7H6O2/c1-2-6-3-7(6,8)5-4(6)9-5/h1,4-5,8H,3H2	InChI=1S/C7H6O2/c1-2-6-3-7(6,8)5-4(6)9-5/h1,4-5,8H,3H2/t4-,5+,6+,7+/m0/s1
