21
gdb 41528	2.69821	1.57434	1.08335	1.2006	85.65	-0.225	0.0208	0.2457	1157.9741	0.184752	-387.081623	-387.073667	-387.072723	-387.114197	31.536	
C	-0.0579483732	 1.4577430917	-0.1651504319	-0.250047
C	 1.3895288519	 1.564570457	 0.4034081235	-0.314702
C	 1.3162472885	 0.0674060772	 0.6733362163	 0.307459
C	 1.8398065283	-0.7019883955	 1.6192917013	-0.233403
C	 1.4534245821	-2.1194986502	 1.9384804049	-0.241973
C	 0.3294075147	-2.7080813469	 1.0735412299	-0.217838
C	-0.9041800094	-1.7991922522	 0.9369272325	-0.071104
O	-0.8740356208	-0.9759847205	-0.2183963101	-0.267283
C	 0.1929364111	-0.0707839836	-0.3445454963	 0.081825
H	-0.805013758	 1.6350849876	 0.6124169256	 0.1096
H	-0.3097611276	 2.0329654012	-1.0581692531	 0.09785
H	 2.1168563132	 1.8269498267	-0.3727431139	 0.109592
H	 1.5505478561	 2.2157006686	 1.2653087224	 0.110801
H	 2.5826811082	-0.257219332	 2.2815260466	 0.080202
H	 2.3392160257	-2.7689786293	 1.8927511199	 0.105078
H	 1.1382405146	-2.1492746918	 2.9931922384	 0.105882
H	 0.6902912227	-2.9312801698	 0.0628652985	 0.111057
H	 0.0228389445	-3.6653309921	 1.5110298893	 0.095258
H	-1.8063692285	-2.4047211815	 0.8084041905	 0.104633
H	-1.0397477906	-1.200276229	 1.8513053509	 0.089412
H	 0.6299618665	-0.2286135157	-1.3426965652	 0.087698
70.6181	129.1906	260.391	266.8349	331.7537	350.5467	359.1161	455.4276	554.6831	619.4156	665.6096	734.807	801.4044	808.9497	844.8211	901.5697	916.2072	927.7975	969.2119	1005.4308	1025.5106	1053.9899	1085.5789	1093.7992	1096.8713	1102.1577	1184.2092	1191.2872	1207.304	1230.711	1257.8677	1268.6497	1276.7999	1306.4095	1354.1057	1376.1775	1378.961	1392.7502	1420.9497	1473.2708	1475.7245	1483.5767	1491.6536	1503.1407	1780.947	2975.3843	2981.6866	2987.5051	3014.3724	3034.4717	3043.2377	3067.3284	3073.1667	3079.5142	3102.0937	3122.531	3129.2326
C1CC2=CCCCOC12	C1CC2=CCCCO[C@@H]12	
InChI=1S/C8H12O/c1-2-6-9-8-5-4-7(8)3-1/h3,8H,1-2,4-6H2	InChI=1S/C8H12O/c1-2-6-9-8-5-4-7(8)3-1/h3,8H,1-2,4-6H2/t8-/m0/s1
