21
gdb 109906	2.19676	1.52822	0.99322	3.4352	84.84	-0.2324	-0.0428	0.1897	1251.9712	0.182524	-387.135873	-387.12665	-387.125706	-387.170073	34.716	
C	-0.0811964049	 1.7035299267	-0.1991800902	-0.39489
C	 0.0423038297	 0.1804917688	-0.0727034237	-0.184491
C	-1.3045876674	-0.5226158263	 0.1567846231	-0.109436
C	-1.3604599204	-2.0697733109	-0.027233537	-0.07716
C	-0.0123642227	-2.8080459519	 0.0842571559	-0.389577
C	-2.2954225971	-2.5152013705	 1.0739684261	-0.048699
C	-2.5875021644	-1.5484476576	 1.9496319941	-0.173854
C	-1.9250890197	-0.2854569861	 1.5498056432	 0.374327
O	-1.8852061889	 0.7411191558	 2.1917750914	-0.338893
H	 0.9001910212	 2.1584124512	-0.3666046096	 0.104613
H	-0.7215882394	 1.9741267735	-1.0469613521	 0.105505
H	-0.5171872111	 2.1326669903	 0.7042292506	 0.155071
H	 0.4970619794	-0.2202857619	-0.9867242594	 0.093195
H	 0.7298694895	-0.0642363596	 0.745459451	 0.102483
H	-2.0300612318	-0.0878794171	-0.5468579304	 0.104073
H	-1.7914601366	-2.3224823016	-1.0047716087	 0.08612
H	 0.4798872937	-2.5943011288	 1.0377931987	 0.126008
H	-0.1658179243	-3.890442704	 0.0236569427	 0.114545
H	 0.6662209192	-2.5228758587	-0.7238755425	 0.124708
H	-2.6369477714	-3.5441272827	 1.1390388016	 0.111981
H	-3.1891273126	-1.6305659087	 2.8458353351	 0.114373
47.8197	108.7876	192.4478	217.9802	225.4365	264.0495	278.655	319.3655	395.3938	455.9361	509.6358	646.9955	673.9628	739.5421	744.8083	808.9363	828.216	874.8471	920.9032	961.4257	1002.0284	1028.9565	1039.9455	1074.4833	1090.2626	1109.3032	1138.1753	1156.0475	1190.6312	1244.1447	1284.3541	1305.1747	1332.5498	1353.423	1361.2505	1374.2866	1408.0437	1411.3997	1484.7147	1496.336	1500.2873	1502.7904	1517.8315	1652.4825	1802.0725	2995.9809	3018.7673	3025.5111	3033.1296	3039.2009	3061.6653	3095.3276	3105.5761	3120.3884	3145.2966	3177.0823	3224.6802
CCC1C(C)C=CC1=O	CC[C@H]1[C@@H](C)C=CC1=O	
InChI=1S/C8H12O/c1-3-7-6(2)4-5-8(7)9/h4-7H,3H2,1-2H3	InChI=1S/C8H12O/c1-3-7-6(2)4-5-8(7)9/h4-7H,3H2,1-2H3/t6-,7-/m0/s1
