21
gdb 91809	2.63091	1.46166	1.20136	2.3817	77.48	-0.2494	0.0744	0.3238	1141.6638	0.182092	-424.231018	-424.222021	-424.221077	-424.264478	34.965	
C	 0.090127532	 1.6218633965	-0.0603729092	-0.394931
C	 0.0457194115	 0.0968773698	-0.0594755507	 0.003775
C	 0.7916156416	-0.5832979879	-1.2424555349	-0.265897
C	 1.2633897007	-1.9124674381	-0.6805138313	-0.013391
O	 2.4081706015	-1.7837608206	 0.1872806894	-0.30576
C	 1.10252422	-1.9446667763	 0.7834805404	 0.370386
C	 0.8995558213	-3.1687918966	 1.6286420985	-0.49859
C	 0.599051225	-0.5623486196	 1.2417220809	 0.053038
O	 1.6385147805	 0.1635010634	 1.8709241469	-0.432708
H	 1.1168256798	 1.9803010282	 0.0510281542	 0.12273
H	-0.3172303416	 2.0240191612	-0.9938869609	 0.106395
H	-0.4925371132	 2.0360080006	 0.7686589756	 0.11595
H	-1.0022228796	-0.2256955826	-0.1273830359	 0.071897
H	 0.1372882958	-0.7191857617	-2.108956214	 0.102381
H	 1.6548348503	 0.0038324274	-1.5768782189	 0.112541
H	 1.26270122	-2.8152973444	-1.2874828418	 0.094567
H	 1.3513930638	-4.0456069882	 1.157678409	 0.12871
H	 1.3579831433	-3.0307376654	 2.61363189	 0.139038
H	-0.1681419942	-3.361300763	 1.7788150747	 0.123677
H	-0.19589837	-0.6551946798	 1.9888121208	 0.077698
H	 2.4396136915	-0.055531823	 1.3744156373	 0.288492
53.6127	193.0226	207.6922	215.7883	248.6679	275.2769	290.8613	355.2383	430.8515	502.7301	521.1851	544.2532	617.1721	678.6701	723.6743	809.521	868.1438	878.2965	899.8552	922.8131	988.9371	1012.8002	1021.2559	1056.5184	1099.6302	1112.4839	1135.2326	1173.6783	1196.0116	1223.0134	1274.8701	1299.3034	1303.8692	1316.8087	1352.9043	1365.3331	1407.1431	1410.5193	1437.7627	1464.7892	1482.3775	1485.9589	1492.0502	1495.6179	1496.3302	3006.3327	3035.6595	3036.7033	3041.8414	3059.4234	3086.4752	3100.6743	3101.5471	3118.5437	3121.5879	3137.7924	3740.2127
CC1CC2OC2(C)C1O	C[C@H]1C[C@H]2O[C@@]2(C)[C@H]1O	
InChI=1S/C7H12O2/c1-4-3-5-7(2,9-5)6(4)8/h4-6,8H,3H2,1-2H3	InChI=1S/C7H12O2/c1-4-3-5-7(2,9-5)6(4)8/h4-6,8H,3H2,1-2H3/t4-,5+,6-,7+/m0/s1
