21
gdb 121167	3.22083	0.90238	0.77686	0.9156	79.41	-0.2419	0.074	0.3159	1518.0785	0.18142	-424.183934	-424.174386	-424.173442	-424.219052	34.889	
O	-0.0223724262	 1.4067345983	 0.2795341031	-0.423816
C	 0.0116496394	-0.0099759144	 0.1785767812	-0.07795
C	-1.4132731072	-0.493454454	-0.0624349693	-0.189176
C	-1.491010872	-2.001970397	-0.2115935908	 0.064897
O	-1.0798346645	-2.7033598829	 0.9941609887	-0.302602
C	-2.3380743302	-3.405781605	 1.0883417717	-0.135173
C	-2.8626924417	-2.6782666687	-0.1437260107	 0.292805
C	-4.2183511555	-2.0843635264	-0.3705834573	-0.32218
C	-3.7132330651	-3.2030019616	-1.2560189658	-0.326082
H	 0.8603088044	 1.710537755	 0.5097873293	 0.284899
H	 0.66017405	-0.3341374363	-0.652696929	 0.08058
H	 0.3984150651	-0.4726054089	 1.0977035097	 0.108841
H	-2.0477977645	-0.1707408962	 0.769939741	 0.107831
H	-1.8004079952	-0.0184883432	-0.9733266727	 0.10146
H	-0.8801119035	-2.3323527145	-1.0662612856	 0.070099
H	-2.2099508924	-4.4915956519	 0.9817062211	 0.098864
H	-2.8552423756	-3.1975743432	 2.0342319474	 0.101748
H	-4.9993873506	-2.3118656867	 0.3483628841	 0.114978
H	-4.2799790074	-1.0861204541	-0.7917147934	 0.120394
H	-3.4289270811	-2.958266195	-2.2749605478	 0.115346
H	-4.1535986462	-4.1887506032	-1.1419450653	 0.114235
65.2147	91.1677	108.7839	114.5159	235.9686	251.8125	263.2936	329.0109	350.7694	432.063	536.3792	570.347	773.8385	791.4463	847.6184	867.3479	893.1377	921.021	941.9228	985.9384	1021.1791	1029.9229	1054.7129	1074.5755	1078.1153	1087.7528	1099.6662	1143.6452	1154.4573	1187.7852	1216.281	1233.8775	1253.1121	1282.0092	1310.8452	1318.0414	1336.9356	1392.9804	1418.8321	1459.5	1464.7665	1479.255	1509.7547	1525.7349	1530.043	2959.8004	2977.3952	2999.3591	3016.1102	3031.4684	3039.263	3084.7686	3120.5554	3126.2816	3198.7073	3214.2262	3830.6563
OCCC1OCC11CC1	OCC[C@H]1OCC21CC2	
InChI=1S/C7H12O2/c8-4-1-6-7(2-3-7)5-9-6/h6,8H,1-5H2	InChI=1S/C7H12O2/c8-4-1-6-7(2-3-7)5-9-6/h6,8H,1-5H2/t6-/m1/s1
