16
gdb 127565	3.12201	1.46524	1.00984	6.4843	75.88	-0.2329	-0.0482	0.1847	1131.2864	0.124707	-434.100301	-434.091979	-434.091035	-434.133622	30.055	
C	-0.0340073486	 1.4868178473	-0.0289115789	-0.328493
N	-0.0081852801	 0.0286255576	 0.0336149143	-0.052143
N	-0.0354073161	-0.5913595885	-1.1738032587	-0.177424
C	-0.0141437067	-1.8810972124	-1.1621706145	-0.080823
C	 0.0369182888	-2.7057658077	 0.0591061213	 0.352881
O	 0.0552848566	-3.919611016	 0.0201360035	-0.357133
N	 0.061948145	-1.9803943938	 1.2552061538	-0.361429
C	 0.0393518006	-0.6842186326	 1.2035004056	 0.421655
C	 0.0662379701	 0.09768982	 2.489371619	-0.484931
H	 0.8629202467	 1.918162443	 0.4246565875	 0.14737
H	-0.0694847829	 1.753905673	-1.0834234699	 0.169409
H	-0.9163694981	 1.888963501	 0.4770783767	 0.147377
H	-0.0359596475	-2.3761689122	-2.1282455651	 0.143958
H	 0.1023371706	-0.6146819455	 3.311914192	 0.169656
H	 0.9411110672	 0.7543299783	 2.5418172639	 0.14506
H	-0.8237261455	 0.7269854785	 2.5954717898	 0.145011
73.455	93.7132	172.7657	213.4123	246.1788	328.5405	365.1788	454.4195	485.4833	544.0925	583.2488	613.5655	720.6254	789.1196	795.0274	934.7479	947.1844	1005.3344	1050.136	1058.2004	1148.023	1194.7413	1221.2828	1279.4505	1335.4496	1396.9039	1416.6668	1454.5759	1470.2051	1478.3061	1499.9871	1505.4758	1594.971	1653.2458	1781.701	3042.3315	3048.1579	3100.5122	3110.3418	3171.1078	3175.1015	3187.0259
CN1N=CC(=O)N=C1C	Cn1ncc(=O)nc1C	
InChI=1S/C5H7N3O/c1-4-7-5(9)3-6-8(4)2/h3H,1-2H3	InChI=1S/C5H7N3O/c1-4-7-5(9)3-6-8(4)2/h3H,1-2H3
