23
gdb 58566	2.14741	1.39703	1.16309	2.3983	81.3	-0.2386	0.0623	0.3008	1224.369	0.20313	-425.414404	-425.403787	-425.402842	-425.450209	39.357	
C	 0.0732484949	 1.5842532093	 0.1706210047	-0.424303
C	-0.1243657445	 0.0813518102	-0.0483795709	 0.07535
O	-1.5025373036	-0.2259783998	-0.2588625271	-0.443049
C	 0.6389394833	-0.4799013836	-1.2551850701	 0.289486
C	 0.2011075034	 0.1570546036	-2.5725158623	-0.47644
C	 2.1682077902	-0.5581613517	-1.0219380356	-0.124185
O	 2.1478499715	-1.9928331643	-0.9542268737	-0.295426
C	 0.7412372357	-2.0429566477	-1.3019446399	 0.118605
C	-0.0494267315	-2.9402876393	-0.3715191342	-0.399487
H	 1.1322627078	 1.8394927256	 0.2788812209	 0.121902
H	-0.3440107025	 2.1615336953	-0.6583346145	 0.129752
H	-0.4326305581	 1.9006817831	 1.0901808502	 0.107073
H	 0.2402011094	-0.4408474709	 0.8506472036	 0.068872
H	-2.0044176627	 0.1253963443	 0.4831600799	 0.282027
H	 0.434718377	 1.2262672708	-2.603247388	 0.112256
H	 0.7152696937	-0.3139075973	-3.4159215239	 0.114165
H	-0.8766925885	 0.0427327284	-2.715511561	 0.136551
H	 2.7744802271	-0.1884877004	-1.8603560906	 0.091641
H	 2.5474054419	-0.1121732346	-0.0928067956	 0.091704
H	 0.6221574805	-2.4059765022	-2.3339698966	 0.064863
H	 0.0665853124	-2.6431780784	 0.673887196	 0.113423
H	-1.1118228692	-2.9135480896	-0.6260826832	 0.128363
H	 0.3128584319	-3.9689439006	-0.4696840081	 0.116856
25.1665	106.0213	172.4755	199.2973	218.5931	235.2475	263.6346	269.8431	288.8575	307.0955	352.4957	386.1126	455.178	500.7294	553.3851	682.7264	758.1721	857.154	881.3453	913.0707	929.5218	973.2392	1030.6328	1034.3856	1038.8557	1089.8874	1096.9091	1117.7994	1134.6508	1167.9278	1179.9779	1200.5153	1254.018	1280.2813	1316.734	1368.1724	1382.6306	1396.0919	1400.1179	1407.0055	1411.6666	1427.4221	1476.4853	1488.772	1493.0232	1499.1021	1501.254	1511.3956	1526.2179	2970.3994	2980.9993	2996.9074	3031.571	3035.3085	3039.2052	3043.3729	3094.1499	3100.4331	3111.1704	3121.4084	3124.8823	3131.7896	3820.7221
CC(O)C1(C)COC1C	C[C@@H](O)[C@@]1(C)CO[C@H]1C	
InChI=1S/C7H14O2/c1-5(8)7(3)4-9-6(7)2/h5-6,8H,4H2,1-3H3	InChI=1S/C7H14O2/c1-5(8)7(3)4-9-6(7)2/h5-6,8H,4H2,1-3H3/t5-,6+,7-/m1/s1
