16
gdb 82019	2.56118	1.48554	1.30864	4.1533	68.77	-0.2843	0.0149	0.2992	1020.7678	0.123899	-437.859811	-437.851668	-437.850724	-437.892293	31.273	
O	 0.0006365315	 1.450068436	-0.0405778452	-0.423651
C	-0.0275482282	 0.0380569457	-0.020828516	 0.011207
C	-1.4044022425	-0.595524026	 0.0276371522	-0.04739
C	-2.2127142427	-0.2351500746	-1.1869261206	-0.304612
C	-1.1633980584	-1.292597275	-1.3238921499	-0.074123
C	 0.2155835217	-0.6148241509	-1.4561693735	 0.220957
O	 0.383962678	 0.3265494369	-2.4786492527	-0.466056
C	 1.3248739544	-1.5738086509	-1.4580622498	 0.251306
N	 2.1925977923	-2.3365738659	-1.4213589845	-0.338048
H	 0.8519239073	 1.7514917537	 0.2932486642	 0.303768
H	 0.6548693867	-0.3711582398	 0.7275374445	 0.106843
H	-1.8596625734	-0.9936227429	 0.924942763	 0.099706
H	-3.2331354126	-0.6022018879	-1.1758550807	 0.125427
H	-2.0883154947	 0.7235450258	-1.6778361063	 0.129466
H	-1.3740501911	-2.3139755423	-1.6101827211	 0.112224
H	 0.3307203918	 1.1891038081	-2.0365468534	 0.292973
106.6079	147.8927	185.4254	267.6568	282.4108	300.8125	432.845	470.597	498.2866	544.8967	572.87	614.57	660.493	770.2022	811.0543	853.5464	923.6672	943.8519	991.0113	1009.8017	1049.3057	1058.8881	1085.8632	1090.0575	1135.5217	1159.2038	1200.6927	1237.7228	1250.4849	1315.2416	1357.1907	1403.1529	1430.5032	1498.1661	2353.455	3085.6393	3140.5876	3198.5068	3212.0842	3225.4454	3686.151	3822.9927
OC1C2CC2C1(O)C#N	O[C@H]1[C@H]2C[C@H]2[C@]1(O)C#N	
InChI=1S/C6H7NO2/c7-2-6(9)4-1-3(4)5(6)8/h3-5,8-9H,1H2	InChI=1S/C6H7NO2/c7-2-6(9)4-1-3(4)5(6)8/h3-5,8-9H,1H2/t3-,4+,5-,6+/m0/s1
