19
gdb 76264	2.32832	1.54614	1.01081	4.5843	79.4	-0.2318	-0.0411	0.1907	1191.9669	0.157805	-423.069449	-423.059893	-423.058949	-423.104149	34.763	
C	 0.1362737995	 1.5854380869	 0.0762495366	-0.377726
C	 0.0356198991	 0.0586008247	-0.048156444	-0.137881
C	 0.8267898308	-0.5461915211	-1.2317627492	-0.00926
O	 1.2795558026	 0.4613739951	-2.1313544414	-0.418035
C	 1.9766103845	-1.307244817	-0.5790177703	 0.325993
C	 3.0647853336	-1.8904413349	-1.4166171782	-0.507784
C	 1.8417890679	-1.3605363929	 0.7538100616	-0.294358
C	 0.6466994364	-0.6151149148	 1.1944812231	 0.393773
O	 0.2185472242	-0.5171058362	 2.322371539	-0.346453
H	 1.1786947591	 1.9115577478	 0.1269207964	 0.124416
H	-0.325493064	 2.0785382832	-0.7813768523	 0.122916
H	-0.3711103089	 1.9010559319	 0.9913715561	 0.130703
H	-1.0223474757	-0.2180419596	-0.1007525701	 0.096045
H	 0.1943062682	-1.2647924759	-1.7766008843	 0.082147
H	 1.4465580859	 0.0532362493	-2.9852790188	 0.290131
H	 3.5542814574	-1.0999223398	-1.9974954607	 0.1448
H	 3.8210787849	-2.397571026	-0.8138786553	 0.138379
H	 2.659786766	-2.6110660539	-2.1396069909	 0.131985
H	 2.5010255485	-1.8652955068	 1.4502196327	 0.110209
37.8757	139.6026	151.6678	186.472	227.6969	241.5239	258.6338	277.5897	328.2777	409.8462	517.5854	570.2397	578.485	700.3002	714.5077	785.0354	838.0485	888.2576	920.841	1007.3932	1026.2156	1052.8094	1058.8022	1096.7244	1132.7129	1171.1112	1195.9713	1233.2554	1272.6066	1302.9313	1327.888	1341.4014	1397.1891	1402.7468	1418.9307	1476.8026	1484.8833	1492.3637	1498.3832	1686.3746	1810.0511	2969.9117	3020.3161	3051.5035	3057.6828	3073.8068	3125.6521	3126.5452	3135.2882	3206.4516	3841.0931
CC1C(O)C(C)=CC1=O	C[C@H]1[C@@H](O)C(=CC1=O)C	
InChI=1S/C7H10O2/c1-4-3-6(8)5(2)7(4)9/h3,5,7,9H,1-2H3	InChI=1S/C7H10O2/c1-4-3-6(8)5(2)7(4)9/h3,5,7,9H,1-2H3/t5-,7+/m1/s1
