17
gdb 36261	5.40104	1.0058	0.97691	4.6378	77.23	-0.2387	0.0252	0.2639	1218.6379	0.136653	-380.776411	-380.769146	-380.768202	-380.808678	28.101	
N	 0.0072800638	-1.2313365402	-0.0132085671	-0.306712
C	-0.019067717	-0.0788122372	-0.0853786661	 0.278786
C	-0.0586291772	 1.3854311518	-0.1499837036	-0.296782
N	 1.2917323553	 1.9428442095	-0.0445204588	-0.123721
C	 1.8670421855	 1.9999442077	 1.3386598739	-0.00523
C	 2.7389835812	 3.2379455849	 0.969559433	-0.05038
C	 2.3001415067	 4.0162799093	 2.224648364	-0.275167
C	 1.0285554958	 3.2441877847	 1.8200067308	-0.072981
C	 1.3483766113	 3.4034517413	 0.2857973253	-0.007549
H	-0.4808809214	 1.6784908186	-1.1184372168	 0.15308
H	-0.7577068939	 1.73815097	 0.6277954226	 0.130638
H	 2.1550839918	 1.1101188373	 1.8989873316	 0.102943
H	 3.6973747514	 3.2054855487	 0.4539104014	 0.092004
H	 2.7681446194	 3.7255749328	 3.1692371453	 0.105092
H	 2.2598584379	 5.1057410517	 2.1374410379	 0.102667
H	 0.05343497	 3.2489245519	 2.3065006898	 0.084983
H	 1.0211553995	 4.1830716271	-0.4042276131	 0.088329
57.3668	124.9617	241.1441	287.0214	391.9776	422.0332	475.7279	596.7613	732.7829	757.2093	817.2712	831.0067	849.708	882.1608	900.9364	931.7484	961.9118	973.1859	1022.0282	1027.6059	1045.0915	1076.4432	1081.5834	1133.6319	1152.9915	1155.7567	1174.6937	1180.0616	1192.1712	1249.1814	1263.746	1289.2343	1322.2622	1370.8117	1474.8899	1514.7373	2366.2505	2961.417	3051.5757	3058.1256	3101.7261	3108.1825	3113.7045	3122.6442	3138.42
N#CCN1C2C3CC2C13	N#CCN1[C@H]2[C@@H]3C[C@H]2[C@H]13	
InChI=1S/C7H8N2/c8-1-2-9-6-4-3-5(6)7(4)9/h4-7H,2-3H2	InChI=1S/C7H8N2/c8-1-2-9-6-4-3-5(6)7(4)9/h4-7H,2-3H2/t4-,5+,6-,7+
