17
gdb 44177	4.96082	1.00606	0.91383	2.1924	79.32	-0.244	-0.0269	0.2171	1252.724	0.134672	-384.647303	-384.639183	-384.638239	-384.680607	30.971	
O	 0.2051954971	 0.151978054	-0.7683043799	-0.293738
C	 0.0701166782	 1.2158343909	-0.2385337521	 0.403948
C	-1.1464073187	 1.9850904899	 0.320345216	-0.364873
C	-0.175401199	 3.1019168369	 0.7849471447	-0.04041
C	 0.4465702081	 2.857279959	 2.2050317114	-0.17285
C	 1.6888207845	 2.1700166272	 1.5323507356	-0.247961
C	 1.0416941367	 2.3482817232	 0.1288033618	-0.148046
C	 0.7331710818	 4.0435887003	 2.9847342016	 0.292434
C	 0.9809174195	 5.0407169728	 3.6101391812	-0.434607
H	-1.8060656388	 2.3027384419	-0.4950740228	 0.135894
H	-1.7542950957	 1.4773141418	 1.0750963469	 0.127686
H	-0.437680104	 4.1296507214	 0.5452522843	 0.091715
H	-0.1544299612	 2.1635427697	 2.8027775043	 0.105553
H	 2.5939115457	 2.7671323578	 1.647516645	 0.128224
H	 1.9001202528	 1.1445053459	 1.842761283	 0.121775
H	 1.6703124224	 2.7389070717	-0.6719033354	 0.097928
H	 1.1946101205	 5.9154136256	 4.1730820644	 0.197326
40.0576	117.5758	158.0511	235.9827	323.9357	424.5259	448.9532	508.2284	522.6249	614.1367	628.3147	632.0779	701.723	780.0047	828.3764	852.2806	876.5605	933.2828	949.5801	994.984	1027.4068	1053.3907	1078.2273	1092.59	1134.3905	1159.9224	1203.5002	1214.0026	1231.945	1245.6371	1269.7671	1281.8035	1349.5674	1433.5945	1482.0285	1889.3924	2233.7084	3042.9518	3047.1074	3075.879	3100.7723	3111.0747	3137.1335	3143.9949	3502.9635
O=C1CC2C(CC12)C#C	O=C1C[C@H]2[C@@H](C[C@@H]12)C#C	
InChI=1S/C8H8O/c1-2-5-3-7-6(5)4-8(7)9/h1,5-7H,3-4H2	InChI=1S/C8H8O/c1-2-5-3-7-6(5)4-8(7)9/h1,5-7H,3-4H2/t5-,6+,7-/m1/s1
