18
gdb 54200	2.70196	1.53492	1.24528	3.3099	71.36	-0.2267	0.0228	0.2495	1047.7445	0.148879	-435.243989	-435.235548	-435.234603	-435.276824	32.906	
N	 0.0976679634	 1.1208167708	 0.6435730547	-0.526397
C	 0.0543628729	 0.0443822671	-0.1792864408	 0.373564
O	 0.9859892073	-0.3111852098	-0.8819955687	-0.38023
C	-1.2681447362	-0.7353007566	-0.1361296458	 0.189034
N	-2.3556095575	 0.1115030641	 0.3527866282	-0.586925
C	-1.5689866257	-1.634911362	-1.3734925789	-0.214948
N	-1.6540942261	-2.885075726	-0.5297490899	-0.136961
C	-0.3093380459	-3.0450892152	 0.0562366619	-0.247396
C	-1.2178975714	-2.0525042925	 0.6595612989	-0.066576
H	 0.9568085426	 1.6376349469	 0.7274807938	 0.258939
H	-0.7029976391	 1.3356316434	 1.2155322126	 0.269717
H	-2.6272351341	 0.7801508335	-0.3642290666	 0.236072
H	-3.175537508	-0.4586753024	 0.5416284141	 0.241638
H	-2.5400028619	-1.4141958497	-1.823315669	 0.097851
H	-0.7932744899	-1.6714352303	-2.1410188383	 0.128909
H	-0.1921574789	-3.9863612742	 0.584371747	 0.119142
H	 0.5584917742	-2.7042943019	-0.5002034024	 0.151609
H	-1.6618055458	-2.1630200552	 1.6454430993	 0.092958
67.2959	157.2256	211.9935	258.4072	298.4532	335.5985	389.8672	409.8729	447.1621	476.0809	551.04	641.8929	669.9182	744.7757	772.3882	791.7581	836.4961	890.7703	933.7819	950.2675	970.7003	1038.356	1059.7911	1091.1464	1110.5277	1121.8422	1136.3396	1198.5067	1223.5002	1226.7645	1268.5344	1299.8443	1355.8086	1393.2064	1480.0912	1501.717	1580.3112	1654.2176	1783.0551	3062.4291	3120.5934	3128.5957	3146.1351	3214.9074	3476.4795	3556.5894	3585.0456	3730.209
NC(=O)C1(N)CN2CC12	NC(=O)[C@@]1(N)CN2C[C@@H]12	
InChI=1S/C5H9N3O/c6-4(9)5(7)2-8-1-3(5)8/h3H,1-2,7H2,(H2,6,9)	InChI=1S/C5H9N3O/c6-4(9)5(7)2-8-1-3(5)8/h3H,1-2,7H2,(H2,6,9)/t3-,5+,8?/m0/s1
