16
gdb 44059	2.62334	1.80273	1.60529	5.0717	67.18	-0.2338	0.001	0.2349	905.7928	0.125125	-437.82786	-437.820786	-437.819842	-437.859199	27.895	
O	-0.1104810232	 0.13797062	-0.5289370168	-0.313696
C	 0.0094980686	 1.2384737375	-0.1087184333	 0.420472
O	-0.9983535979	 2.0446949192	 0.4473885112	-0.295107
C	-0.0456490206	 3.1167425176	 0.6909742706	 0.35688
C	 0.6557119149	 3.1508247812	 2.0720284956	-0.296356
C	 1.8873470227	 2.4131738076	 1.4174727869	-0.301384
C	 1.0800741213	 2.3366258419	 0.0830569653	 0.070514
N	 1.1982984963	 3.2870750803	-1.0447583699	-0.36993
C	 0.172604086	 4.1864382829	-0.4087882983	-0.243258
H	 0.8595417141	 4.1450918615	 2.4743871511	 0.11582
H	 0.1255677251	 2.5661292993	 2.8251233643	 0.134412
H	 2.779824836	 3.0366373914	 1.32933392	 0.117498
H	 2.1736059769	 1.456706444	 1.8575416271	 0.131486
H	 2.1166903104	 3.6877313051	-1.1927013003	 0.230592
H	-0.6834474219	 4.3897251893	-1.0580193464	 0.13121
H	 0.5587419011	 5.1341562411	-0.0158856272	 0.110848
124.0927	177.696	262.3283	299.524	353.7978	390.3029	567.3269	625.0044	663.3022	684.5697	723.2286	733.0245	790.8826	832.7882	875.9462	906.4637	923.7854	961.5642	990.3496	1036.8994	1100.8182	1122.5265	1181.685	1196.9201	1216.7476	1241.675	1251.3966	1257.9617	1272.9113	1321.1012	1360.815	1461.268	1475.6055	1496.5151	1941.5755	3031.6116	3073.7041	3078.9206	3093.1707	3126.4591	3143.6363	3553.7669
O=C1OC23CCC12NC3	O=C1O[C@@]23CC[C@@]12NC3	
InChI=1S/C6H7NO2/c8-4-6-2-1-5(6,9-4)3-7-6/h7H,1-3H2	InChI=1S/C6H7NO2/c8-4-6-2-1-5(6,9-4)3-7-6/h7H,1-3H2/t5-,6-/m1/s1
