23
gdb 71120	2.66148	1.75525	1.49792	0.0473	87.16	-0.2539	0.0769	0.3308	1024.976	0.209783	-351.185446	-351.177862	-351.176918	-351.216874	32.144	
C	-0.0074854529	 1.5195875355	 0.0801400813	-0.456887
C	 0.0178506723	-0.0041353058	-0.0073306325	 0.27735
C	 0.882528233	-0.5412797652	-1.1779065026	-0.238422
C	 1.1464669685	-1.9871817629	-0.7864948256	-0.059365
C	 1.0109279117	-2.0761067222	 0.7234466471	-0.059366
C	 0.6666572042	-0.6829347409	 1.2274650326	-0.238418
C	-0.0270498421	-2.7124104603	-0.1708740324	-0.026915
C	-1.4253751402	-2.1190860425	-0.2615163034	-0.2397
C	-1.4118178448	-0.5678972634	-0.1688194858	-0.220956
H	 1.0035665179	 1.9258341359	 0.1947648638	 0.106958
H	-0.4457339718	 1.9618532182	-0.8219488658	 0.108391
H	-0.6033813897	 1.8583378719	 0.9354657092	 0.108391
H	 0.3733126135	-0.4309356763	-2.1433094658	 0.086498
H	 1.8293671694	 0.0098300836	-1.2436239815	 0.087835
H	 1.8986589366	-2.5558743813	-1.3221646469	 0.071738
H	 1.6619983289	-2.7111577689	 1.3141784251	 0.071739
H	 1.581010392	-0.1531673421	 1.5238612271	 0.087834
H	-0.0069069508	-0.6804220071	 2.093365136	 0.086497
H	 0.0092032196	-3.7966532746	-0.2314694916	 0.073311
H	-1.8898554308	-2.4394244968	-1.2012559318	 0.097431
H	-2.0460593676	-2.541935017	 0.5368673003	 0.097429
H	-2.0213768349	-0.2325098685	 0.6782403067	 0.089314
H	-1.8649838017	-0.1296756394	-1.0655680237	 0.089311
120.2577	227.9154	271.0388	284.4802	388.9623	391.4864	422.4129	475.8375	558.2405	642.7469	661.0908	767.5872	785.844	816.6922	819.9888	884.2447	895.1124	914.0406	945.3661	963.4229	999.343	1027.5833	1035.7154	1040.2759	1060.8915	1061.802	1100.744	1140.0977	1167.1378	1168.4411	1176.9809	1187.7918	1265.1613	1284.6827	1295.192	1296.4177	1303.2968	1340.8477	1345.7192	1353.691	1385.158	1410.5871	1443.1224	1484.7852	1488.6317	1493.8913	1497.51	1502.0438	1516.4457	3013.4415	3016.0322	3018.0569	3023.3182	3034.6912	3044.5461	3051.6335	3053.8885	3071.1229	3085.8817	3089.9338	3139.5455	3159.7693	3171.6433
CC12CC3C(C1)C3CC2	C[C@@]12C[C@H]3[C@@H](C1)[C@H]3CC2	
InChI=1S/C9H14/c1-9-3-2-6-7(4-9)8(6)5-9/h6-8H,2-5H2,1H3	InChI=1S/C9H14/c1-9-3-2-6-7(4-9)8(6)5-9/h6-8H,2-5H2,1H3/t6-,7+,8-,9+
