22
gdb 80406	2.78731	1.37874	1.25314	2.1738	81.27	-0.2151	0.0675	0.2826	1135.435	0.194086	-404.330522	-404.321467	-404.320523	-404.363822	35.827	
C	 0.0912372639	 1.7515523383	 0.0670117969	-0.343773
N	 0.0449107005	 0.2957567744	 0.0281498286	-0.089497
C	 1.1948546416	-0.510645644	-0.3570316691	-0.034747
C	 2.591157294	 0.0954430881	-0.3637582513	-0.275877
C	 2.9724424758	 0.43437192	 1.1073266836	 0.395768
C	 4.2141954755	-0.3413987403	 1.5598707386	-0.433573
O	 3.2557248352	 1.8389932855	 1.146140785	-0.45737
C	 1.7245266296	 0.0624068953	 1.9767357665	-0.301871
C	 0.6727196505	-0.5307898679	 1.0491232341	-0.028687
H	 1.0313162691	 2.1902746257	 0.4245937763	 0.136476
H	-0.1012021086	 2.1291505649	-0.9427709721	 0.118028
H	-0.7220653727	 2.1045877156	 0.7101697823	 0.115171
H	 0.9809131742	-1.2992271721	-1.0749345322	 0.082596
H	 3.2981065809	-0.6214922255	-0.7926625774	 0.097314
H	 2.6552901319	 1.0052981078	-0.9680973721	 0.12063
H	 5.0744416099	-0.0789550671	 0.937006427	 0.123603
H	 4.4605213487	-0.1113055059	 2.6039994041	 0.10317
H	 4.0483202095	-1.4215291046	 1.4898181943	 0.118757
H	 3.4978077757	 2.0666272307	 2.0502593322	 0.274616
H	 1.9874821312	-0.6729398752	 2.7445185391	 0.095942
H	 1.3601662091	 0.953487974	 2.5002945009	 0.100971
H	 0.0500867545	-1.3345278578	 1.4359388849	 0.082354
61.6646	158.4452	208.5525	235.8158	295.2777	307.6492	344.1789	355.3734	415.4584	442.6756	453.8064	495.4248	621.0673	702.9428	728.1272	777.453	788.6189	867.7361	930.4446	946.8571	951.5294	954.9781	1025.0986	1041.023	1064.9687	1106.2171	1125.4466	1148.3882	1169.6602	1180.5068	1184.0238	1202.3876	1282.053	1290.8336	1315.5518	1326.307	1336.4414	1374.5924	1402.9995	1414.6303	1462.7294	1475.6477	1486.772	1491.8602	1494.8652	1510.8406	1517.6031	3014.7254	3020.5955	3035.7091	3051.4002	3073.868	3080.8313	3086.6103	3092.1518	3092.9012	3112.7278	3121.4497	3131.7972	3803.7005
CN1C2CC(C)(O)CC12	CN1[C@H]2C[C@@](C)(O)C[C@@H]12	
InChI=1S/C7H13NO/c1-7(9)3-5-6(4-7)8(5)2/h5-6,9H,3-4H2,1-2H3	InChI=1S/C7H13NO/c1-7(9)3-5-6(4-7)8(5)2/h5-6,9H,3-4H2,1-2H3/t5-,6+,7+,8?
