19
gdb 31484	3.14164	1.11173	0.83741	2.172	79.65	-0.2196	0.0148	0.2344	1396.8671	0.159165	-419.255264	-419.245455	-419.244511	-419.290634	34.463	
C	 0.0638312761	 1.4409305128	 0.730823618	-0.497374
C	-0.0110685532	 0.043884263	 0.2351904728	 0.252214
C	-0.9891875801	-0.755143518	-0.2612194342	 0.172773
C	-2.4350805798	-0.470514168	-0.492983421	-0.494774
N	-0.439635514	-2.0055417742	-0.564416061	-0.362112
C	 0.8092379716	-1.9057513994	-0.2458795158	 0.36208
C	 1.8815433136	-2.9527849676	-0.3601796552	-0.280006
N	 1.4344256114	-4.2299413248	-0.8997837786	-0.486894
O	 1.1560118248	-0.6918183643	 0.248932017	-0.214212
H	 0.7666216422	 2.0410358569	 0.1414105865	 0.139577
H	-0.9191835833	 1.9129417721	 0.6684821434	 0.137898
H	 0.3943092075	 1.4813929885	 1.7751432327	 0.139576
H	-2.6948340077	-0.5996058414	-1.549286987	 0.13633
H	-3.0659867257	-1.158972322	 0.0796255549	 0.136344
H	-2.693749089	 0.5505741085	-0.201305988	 0.120039
H	 2.6940315745	-2.5619504616	-0.9859401657	 0.132046
H	 2.3255073905	-3.1156844808	 0.630203833	 0.132055
H	 0.6703812942	-4.5752240151	-0.3245520595	 0.237245
H	 1.0113622563	-4.0670397147	-1.8099174723	 0.237196
41.3888	113.4012	138.4795	144.9088	163.7095	227.0639	245.1631	255.4545	345.516	354.0208	482.2862	633.7545	658.246	666.4995	690.4765	783.5261	912.2041	942.5052	972.8346	997.1078	1026.1311	1062.6366	1069.199	1139.9294	1151.0068	1185.4047	1222.7619	1262.9283	1341.8393	1391.159	1394.6293	1422.0704	1425.2833	1471.4019	1473.8003	1475.3954	1491.377	1492.4316	1620.0939	1679.1461	1690.3077	3025.9585	3029.4029	3035.43	3054.9878	3078.4974	3088.6306	3118.9313	3129.0876	3490.6239	3556.2197
CC1=C(C)N=C(CN)O1	Cc1c(C)nc(CN)o1	
InChI=1S/C6H10N2O/c1-4-5(2)9-6(3-7)8-4/h3,7H2,1-2H3	InChI=1S/C6H10N2O/c1-4-5(2)9-6(3-7)8-4/h3,7H2,1-2H3
