18
gdb 38332	3.9629	1.46894	1.23557	1.3205	76.72	-0.2401	0.0193	0.2593	1017.5726	0.150554	-401.909788	-401.903067	-401.902123	-401.940957	27.24	
C	-0.0049273382	 1.6226715569	 0.056914115	-0.239392
C	 1.4960248528	 1.2083750672	-0.0004203645	-0.100374
C	 1.1714462719	 0.1768167073	 1.1202050173	-0.225372
C	-0.0001357959	 0.0651478823	 0.1003074262	-0.100373
C	 1.0727906677	 0.1161957823	-1.0332156981	 0.385535
C	 0.6753404607	 0.5088217339	-2.4805941389	-0.194882
O	 1.3582683593	-0.4581684803	-3.3114735039	-0.225976
C	 2.0260610085	-1.2558151839	-2.4454975172	 0.094274
N	 1.9474986017	-1.043216616	-1.1996592809	-0.323159
H	-0.3254964585	 2.1229712949	 0.9735766969	 0.095871
H	-0.4352989313	 2.1083987474	-0.8227703506	 0.092762
H	 2.3653945027	 1.864453302	-0.0729026684	 0.071688
H	 1.833675381	-0.682629309	 1.2021987888	 0.124103
H	 0.9120971768	 0.6019322749	 2.0928807301	 0.08653
H	-0.8627856762	-0.6022231074	 0.1444318288	 0.071688
H	-0.3975175013	 0.4266107565	-2.6779071371	 0.123634
H	 1.0157474214	 1.5064717517	-2.7730553942	 0.123634
H	 2.598532957	-2.0466317609	-2.9176963592	 0.139808
96.7287	219.8186	256.6781	336.4619	434.6766	536.6077	560.4049	591.901	774.8658	796.1056	809.604	873.9989	893.0854	903.0079	905.7709	963.6616	978.0398	995.7514	1015.7544	1019.0051	1037.8652	1092.4768	1107.1045	1113.9961	1114.5122	1153.5242	1188.9074	1197.0565	1201.5448	1222.0323	1244.0496	1250.6017	1285.11	1328.3173	1373.6113	1496.2605	1512.3547	1539.2325	1704.42	3046.2187	3057.1851	3070.8478	3093.1507	3094.3545	3101.5705	3119.0353	3165.0537	3213.2305
C1C2CC1C21COC=N1	C1[C@H]2C[C@@H]1[C@]12COC=N1	
InChI=1S/C7H9NO/c1-5-2-6(1)7(5)3-9-4-8-7/h4-6H,1-3H2	InChI=1S/C7H9NO/c1-5-2-6(1)7(5)3-9-4-8-7/h4-6H,1-3H2/t5-,6+,7-
