25
gdb 101385	3.27749	0.93804	0.76914	0.1222	93.8	-0.2335	0.0314	0.2649	1578.2602	0.229326	-352.379422	-352.36947	-352.368526	-352.414393	37.924	
C	-0.0553750641	 1.5668393617	-0.0753646783	-0.392365
C	 0.0507544887	 0.0402988564	 0.0126850096	-0.168232
C	 0.7309859649	-0.49215018	 1.2904297391	 0.023063
C	-0.0612937047	-0.1103402134	 2.5506972115	-0.399903
C	 0.9472291699	-2.0146630044	 1.2125328123	 0.054459
C	 1.7894043613	-2.5028467737	-0.0025632027	-0.274763
C	 2.5270424443	-3.7044209413	 0.535882561	-0.069082
C	 2.4539674378	-3.7797828245	 1.8628829179	-0.0661
C	 1.6553290346	-2.6414867581	 2.4493329237	-0.279217
H	 0.9295449138	 2.0372382393	 0.0254151176	 0.111763
H	-0.4696748632	 1.872585311	-1.0414143116	 0.11008
H	-0.7023358035	 1.9832905301	 0.7023738837	 0.117349
H	-0.9527520975	-0.4020526458	-0.0644300802	 0.089186
H	 0.6058690432	-0.3174005573	-0.8617348228	 0.097453
H	 1.7256503703	-0.0230158356	 1.3588940171	 0.063028
H	 0.4302983056	-0.468928758	 3.4593163984	 0.114895
H	-0.172078387	 0.9731699538	 2.647270698	 0.112
H	-1.0679595547	-0.5460422891	 2.5235005093	 0.10868
H	-0.0409116216	-2.4888513723	 1.1323557892	 0.068927
H	 1.1698335204	-2.7376426732	-0.8751396713	 0.101319
H	 2.5032110432	-1.7322891018	-0.3337741054	 0.1006
H	 3.0777794922	-4.3867590581	-0.102721114	 0.087425
H	 2.9358827531	-4.5332526848	 2.4766935341	 0.087516
H	 2.3246928441	-1.9174848859	 2.9395193916	 0.100861
H	 0.9458831092	-2.967546715	 3.2180436321	 0.101058
71.8569	87.7722	111.0892	164.761	215.7802	229.9044	305.5601	326.1521	374.8091	401.8687	406.4527	480.6961	619.9792	723.4816	774.09	781.3293	823.812	851.5369	920.0141	947.8748	953.7459	974.5398	980.0927	984.4153	998.2963	1028.557	1049.5138	1072.1265	1126.1995	1139.9499	1152.3221	1163.6049	1182.2217	1222.797	1279.7455	1291.8891	1306.5792	1327.3927	1330.6711	1354.46	1369.6617	1376.5488	1390.1082	1411.2568	1416.444	1483.0337	1484.9297	1492.3903	1496.9269	1500.362	1507.1541	1515.6601	1690.9572	2973.6338	2986.6022	2986.9065	3003.9687	3012.6387	3029.7773	3032.5259	3051.7674	3056.7496	3060.3818	3095.5538	3097.2729	3106.6264	3115.4743	3176.4901	3202.5281
CCC(C)C1CC=CC1	CC[C@@H](C)[C@H]1CC=CC1	
InChI=1S/C9H16/c1-3-8(2)9-6-4-5-7-9/h4-5,8-9H,3,6-7H2,1-2H3	InChI=1S/C9H16/c1-3-8(2)9-6-4-5-7-9/h4-5,8-9H,3,6-7H2,1-2H3/t8-/m1/s1
