19
gdb 109471	1.97402	1.82126	1.0351	3.1654	77.62	-0.2376	-0.0067	0.2309	1182.057	0.159226	-419.275643	-419.266472	-419.265527	-419.309901	33.304	
C	-0.0561424332	 1.5813773294	 0.0348900816	-0.383124
C	-0.0036615629	 0.0520633718	-0.019000816	-0.161861
N	 0.7145141713	-0.4564835572	-1.1775752158	-0.130907
C	 0.0867668111	-0.7147528587	-2.392965545	 0.386556
O	-1.0925605962	-0.5742026134	-2.6205998054	-0.381721
C	 1.227445298	-1.1940094663	-3.2896551088	-0.299465
N	 2.4387981985	-1.1572821399	-2.472944297	-0.294638
C	 2.0824768458	-0.7396885333	-1.3148664342	 0.371936
C	 3.0192357347	-0.5693960406	-0.1644937429	-0.495588
H	 0.9462255493	 2.0162942479	 0.0953060144	 0.120912
H	-0.5500398708	 1.9747552943	-0.8573845452	 0.14684
H	-0.6222142041	 1.9076717331	 0.9127495274	 0.123804
H	 0.4548763067	-0.3552751614	 0.8866347042	 0.114286
H	-1.0187022287	-0.349322429	-0.090176818	 0.143386
H	 1.0286093323	-2.2067182967	-3.6580429142	 0.14754
H	 1.3225328508	-0.5491616383	-4.1705672304	 0.147034
H	 4.0262705222	-0.8211513927	-0.4969452385	 0.159512
H	 3.0101974662	 0.4590122442	 0.2115114847	 0.141981
H	 2.745538889	-1.2259139436	 0.668811299	 0.143517
59.1174	102.9242	148.6981	179.4876	208.2005	267.3043	296.3048	318.1017	402.8926	522.9238	534.0696	593.0172	645.5372	690.9277	729.7018	782.8674	942.3813	965.7565	974.9656	998.6341	1064.4245	1072.7311	1094.3186	1120.7056	1177.7049	1180.0419	1247.8124	1311.5686	1357.8342	1381.1854	1404.1287	1410.6452	1431.1571	1439.1831	1469.0033	1479.3356	1486.2946	1492.2254	1503.2419	1698.2486	1828.8589	3041.4601	3042.8318	3049.0879	3059.2814	3082.1476	3097.2326	3100.1977	3115.9056	3130.8317	3158.5555
CCN1C(=O)CN=C1C	CCN1C(=O)CN=C1C	
InChI=1S/C6H10N2O/c1-3-8-5(2)7-4-6(8)9/h3-4H2,1-2H3	InChI=1S/C6H10N2O/c1-3-8-5(2)7-4-6(8)9/h3-4H2,1-2H3
