16
gdb 125169	3.442	1.6173	1.11549	4.8762	77.87	-0.2346	-0.0305	0.2042	1048.2094	0.126333	-396.942638	-396.93535	-396.934406	-396.974863	27.409	
C	-0.0172990758	 1.5262221698	 0.1143549641	-0.501538
C	-0.0080134127	 0.042403703	-0.0506309998	 0.142239
C	 0.0154503365	-0.7459992281	-1.1796978009	 0.301745
C	 0.0420674673	-0.8381387207	-2.6782593838	-0.424908
C	 0.0521727251	-2.3476113844	-2.8897540881	-0.121887
C	 0.0341711063	-2.9812868231	-1.7109266464	-0.005476
N	 0.0121499626	-2.0145113597	-0.6887876352	 0.063539
N	-0.0119685397	-2.051844862	 0.6494874272	-0.185192
N	-0.0227429041	-0.7985589602	 1.0351728148	-0.248394
H	 0.8757983941	 1.9906208177	-0.3183765714	 0.128199
H	-0.8891021005	 1.984764577	-0.3653563292	 0.127933
H	-0.0461403949	 1.7680750315	 1.1787662313	 0.151186
H	-0.8305743742	-0.3674318955	-3.1487410918	 0.147042
H	 0.9266417276	-0.3600427752	-3.1179941571	 0.147036
H	 0.0710576536	-2.8215232919	-3.8600261242	 0.123507
H	 0.0340669087	-4.0304703181	-1.4608629995	 0.154971
55.7392	153.8333	233.4001	245.5213	326.2966	458.6927	500.3084	611.5029	669.8931	683.8801	703.8111	739.546	813.425	885.3367	918.5426	934.3513	947.5894	1002.0934	1065.8278	1087.7644	1133.6549	1147.6945	1191.5228	1248.2411	1267.1903	1287.246	1318.8832	1398.9805	1420.3241	1434.6524	1456.8832	1486.6779	1494.9054	1617.5929	1654.0615	3029.756	3033.3562	3054.6535	3083.2578	3133.4867	3245.5891	3277.8322
CC1=C2CC=CN2N=N1	Cc1c2CC=Cn2nn1	
InChI=1S/C6H7N3/c1-5-6-3-2-4-9(6)8-7-5/h2,4H,3H2,1H3	InChI=1S/C6H7N3/c1-5-6-3-2-4-9(6)8-7-5/h2,4H,3H2,1H3
