18
gdb 108718	3.59777	1.02723	0.81124	5.6755	76.94	-0.2318	-0.0203	0.2115	1384.0754	0.147017	-439.12756	-439.118167	-439.117223	-439.162313	32.978	
C	-0.0784215617	 1.3758317043	-0.0572140743	-0.34027
N	-0.0180266353	-0.0624836351	-0.0388730168	-0.099474
C	-1.1745131416	-0.9232609077	-0.0286276081	-0.264463
C	-0.5669821556	-2.3080324212	-0.0113872586	 0.300687
C	-1.4111758476	-3.5378379485	 0.0035767886	-0.170954
O	-0.5761749	-4.6768053564	 0.0174898876	-0.40762
C	 0.7646843526	-2.2124408317	-0.0122489158	-0.319367
C	 1.1666947414	-0.7779790087	-0.029909549	 0.430347
O	 2.2831207911	-0.2977976982	-0.0357321809	-0.405392
H	 0.9508902826	 1.7405713775	-0.0618092089	 0.165785
H	-0.5938000193	 1.7498399811	-0.9515960032	 0.117652
H	-0.5938749927	 1.7725232736	 0.8272960018	 0.117663
H	-1.8111751866	-0.7457639675	 0.8528409069	 0.118614
H	-1.8105007901	-0.7676698407	-0.9147238158	 0.118604
H	-2.0752301259	-3.5088762473	 0.8859688178	 0.10416
H	-2.075184768	-3.5303805495	-0.8792942719	 0.104149
H	-1.1332672996	-5.4601300983	 0.026923293	 0.294395
H	 1.4798754164	-3.0201709355	-0.0021369024	 0.135485
60.5649	102.0067	152.9811	168.9558	187.1723	201.8679	231.998	289.1588	391.0124	437.5177	504.0539	624.0456	685.1971	730.2931	800.337	876.1033	916.896	975.2323	1024.3054	1059.0202	1082.3727	1138.646	1150.4886	1153.3652	1199.6191	1208.6467	1253.5136	1261.7771	1316.471	1328.0746	1420.8769	1446.2843	1470.1714	1492.827	1493.996	1504.1847	1528.371	1701.06	1801.8949	2940.7763	2953.7371	2976.6919	2994.4219	3005.3805	3049.553	3134.8681	3265.7889	3840.3464
CN1CC(CO)=CC1=O	CN1CC(=CC1=O)CO	
InChI=1S/C6H9NO2/c1-7-3-5(4-8)2-6(7)9/h2,8H,3-4H2,1H3	InChI=1S/C6H9NO2/c1-7-3-5(4-8)2-6(7)9/h2,8H,3-4H2,1H3
