19
gdb 92310	2.32993	1.93364	1.25326	2.7974	76.56	-0.2158	0.0164	0.2322	1034.836	0.161245	-419.198126	-419.190173	-419.189229	-419.230711	30.355	
C	-0.1096080277	 1.5305482342	-0.1199650113	-0.321515
N	 0.0867995739	 0.1020792033	 0.0083492056	-0.06062
C	 0.998104708	-0.6033273254	-0.9100516644	-0.189931
C	 1.4622649181	-1.5020256375	 0.2674030277	-0.047159
C	 2.9341582526	-1.4153023136	 0.6485466171	-0.11224
O	 3.0980217773	-0.1406709036	 1.2970593069	-0.243119
C	 1.901117594	 0.3166343451	 1.7820829282	 0.39961
N	 1.7765225085	 1.295269239	 2.5710930769	-0.537783
C	 0.7483177187	-0.4841658141	 1.1944176629	-0.083842
H	 0.8278737851	 2.1116389422	-0.1332200387	 0.103492
H	-0.652670848	 1.7312350569	-1.0501236512	 0.115342
H	-0.7133528682	 1.8936004758	 0.7163111643	 0.137056
H	 0.4979063071	-1.093589311	-1.7524634341	 0.104678
H	 1.8159359321	 0.022924551	-1.3035283279	 0.092727
H	 1.0726085389	-2.5186225226	 0.2544150413	 0.090834
H	 3.2223820376	-2.2083679226	 1.3499123001	 0.113363
H	 3.6136863052	-1.4416911022	-0.2079074161	 0.120527
H	 2.6914568545	 1.6827007777	 2.8118759188	 0.220899
H	 0.0586026222	-0.8105840828	 1.9770131339	 0.097681
82.7428	152.2137	171.773	208.6106	320.4312	343.2851	374.3299	440.9273	560.2303	675.6852	702.2043	738.9187	814.2299	854.0089	896.2503	901.7905	947.0419	976.2694	990.1232	1006.5296	1053.2547	1106.3745	1116.5966	1144.4518	1172.6908	1191.4084	1220.9194	1235.4115	1257.0048	1264.0317	1294.8014	1310.9469	1329.989	1344.2707	1407.0823	1449.8089	1482.1379	1500.228	1517.6999	1521.7298	1764.3988	2962.0621	2967.8108	3026.4863	3051.7835	3060.7056	3073.9116	3090.9846	3113.3979	3128.471	3460.0177
CN1CC2COC(=N)C12	CN1C[C@H]2CO[C]([NH])[C@@H]12	
InChI=1S/C6H10N2O/c1-8-2-4-3-9-6(7)5(4)8/h4-5,7H,2-3H2,1H3	InChI=1S/C6H10N2O/c1-8-2-4-3-9-6(7)5(4)8/h4-5,7H,2-3H2,1H3/t4-,5-/m0/s1
