23
gdb 95406	2.86777	1.16791	0.89269	0.4018	96.45	-0.2069	-0.0155	0.1914	1402.621	0.206845	-351.182146	-351.172842	-351.171898	-351.21626	36.071	
C	 0.2036036139	 1.5900481903	 0.0275770206	-0.397395
C	-0.0746663917	 0.0748851376	-0.0395937838	-0.029158
C	 0.4558701437	-0.5043322405	-1.357211606	-0.195647
C	 0.1860536794	-2.0032514719	-1.5711669161	-0.269143
C	 1.0979010642	-2.9277922107	-0.8113031896	-0.164736
C	 1.507278779	-2.7995379292	 0.4604698505	 0.308123
C	 2.437449196	-3.8296401837	 1.0637059083	-0.480425
C	 1.0967957836	-1.7422808898	 1.3956571706	-0.130873
C	 0.4368311678	-0.5891146178	 1.2126429961	-0.050867
H	 1.2809935824	 1.788868053	 0.0306453054	 0.119358
H	-0.2336626669	 2.1065185042	-0.8327785477	 0.110469
H	-0.2194707791	 2.0313431204	 0.9357491847	 0.111288
H	-1.170669598	-0.0432335281	-0.0396841137	 0.084102
H	-0.0051936365	 0.0583244673	-2.1778739671	 0.088989
H	 1.5354644807	-0.3224145556	-1.4244158394	 0.100598
H	-0.8638749063	-2.2217561398	-1.3235914581	 0.108206
H	 0.2842520669	-2.2277863852	-2.6392510324	 0.097015
H	 1.4636728327	-3.7883216866	-1.3677867749	 0.075082
H	 3.3683303418	-3.3667741632	 1.4145688543	 0.122881
H	 1.9799123683	-4.3109989205	 1.9374771971	 0.121489
H	 2.6973704249	-4.6097634501	 0.3442187368	 0.116251
H	 1.3737864521	-1.9575321861	 2.4274519879	 0.074146
H	 0.2388542511	-0.010014064	 2.1146286265	 0.080249
37.8787	169.4019	199.6078	229.9725	238.2644	276.2479	299.0944	333.1854	363.4669	430.5744	451.7499	585.4176	615.1868	695.5808	745.1899	776.9947	839.5624	871.2973	885.8676	929.9733	964.9661	989.6726	1016.4979	1034.3493	1061.7573	1070.1577	1100.1515	1114.8431	1151.3824	1172.755	1215.4892	1268.9975	1299.5456	1318.5252	1349.0086	1372.1364	1384.8713	1391.4264	1406.7511	1412.3857	1459.0179	1475.905	1480.0804	1487.1835	1496.4521	1497.9779	1502.3708	1687.9117	1723.207	2964.7614	2994.6958	3016.8975	3022.3337	3030.0024	3054.3915	3063.9692	3064.359	3098.9993	3102.8332	3109.3716	3115.8113	3134.0666	3141.7797
CC1CCC=C(C)C=C1	C[C@H]1CCC=C(C)C=C1	
InChI=1S/C9H14/c1-8-4-3-5-9(2)7-6-8/h4,6-7,9H,3,5H2,1-2H3	InChI=1S/C9H14/c1-8-4-3-5-9(2)7-6-8/h4,6-7,9H,3,5H2,1-2H3/t9-/m0/s1
