17
gdb 105560	2.0497	1.46084	1.2159	0.9195	75.71	-0.2519	-0.0387	0.2132	1137.4519	0.132133	-421.788344	-421.778912	-421.777968	-421.822815	33.967	
C	-0.2369760945	 1.5341480145	-0.0218155911	-0.393546
C	 0.2130103908	 0.0770872951	-0.1502945383	-0.21398
C	 0.7813686912	-0.4851184684	 1.1583124255	 0.082072
O	-0.2322622776	-0.549894817	 2.2129250487	-0.310085
C	-0.1885291365	-1.9846412319	 2.3296439307	-0.191821
C	 0.8520428986	-2.0436181072	 1.2115008749	 0.30579
O	 1.4379796717	-2.8847550862	 0.6098590862	-0.267634
C	 1.9955878698	 0.1795581094	 1.6003246811	 0.343313
C	 3.0180775261	 0.6986911696	 1.961360359	-0.457401
H	 0.6041662244	 2.1837074514	 0.2363973921	 0.132757
H	-0.6647571498	 1.8865942074	-0.9646056667	 0.11744
H	-0.9966229599	 1.6335572207	 0.7582588747	 0.138196
H	-0.6322233816	-0.5547289683	-0.4465959497	 0.105035
H	 0.9834807942	-0.0311516063	-0.921593787	 0.124577
H	 0.1735316965	-2.3242989643	 3.308455375	 0.141314
H	-1.1486525554	-2.4671210293	 2.1093519788	 0.137103
H	 3.9175572518	 1.1636205209	 2.2830091461	 0.206872
80.9698	96.7678	119.5215	148.4646	177.8065	232.2698	298.2037	352.8787	407.3351	512.839	534.2403	593.2531	625.996	638.4085	674.8873	738.7873	788.3549	899.3019	924.7929	989.6368	1003.252	1024.1532	1060.7005	1122.7291	1128.287	1141.1498	1203.941	1291.4691	1309.8581	1361.5568	1406.9765	1471.2754	1480.5111	1494.7553	1507.9658	1930.9924	2229.3054	3020.2323	3038.0455	3046.5457	3067.2947	3080.9567	3118.1979	3126.0027	3498.9922
CCC1(OCC1=O)C#C	CC[C@]1(OCC1=O)C#C	
InChI=1S/C7H8O2/c1-3-7(4-2)6(8)5-9-7/h1H,4-5H2,2H3	InChI=1S/C7H8O2/c1-3-7(4-2)6(8)5-9-7/h1H,4-5H2,2H3/t7-/m1/s1
