14
gdb 42249	2.96437	1.12692	0.99372	5.9748	75.41	-0.2802	-0.077	0.2031	1197.2197	0.099085	-399.5249	-399.51629	-399.515345	-399.559021	30.625	
O	 0.0169623966	-0.1156963853	-0.3897323238	-0.296989
C	-0.0365997967	 1.0667118836	-0.1243051169	 0.254241
C	 1.1479399258	 1.8456059301	 0.1774412622	 0.243905
C	 2.1226287917	 2.5071098632	 0.4247702988	-0.394935
C	-1.3288839502	 1.8236973881	-0.0834759844	-0.130854
C	-2.5073342244	 1.2375252428	-0.815491701	-0.285516
C	-2.5149785032	 1.2130793194	 0.6881460495	-0.164977
C	-2.3810572244	-0.0201856659	 1.413985551	 0.310822
N	-2.3199747875	-0.9926315749	 2.0363271095	-0.330788
H	 2.996812169	 3.0716989998	 0.6436635425	 0.221626
H	-1.245012968	 2.9008973017	-0.0052477809	 0.119181
H	-3.1930035673	 1.9146604924	-1.3097032528	 0.137599
H	-2.3169168721	 0.2939863034	-1.3129572383	 0.16959
H	-3.1436012693	 1.9410909116	 1.1900476644	 0.147093
39.5531	109.3839	144.5827	193.0078	233.5753	283.2923	303.9307	455.2116	534.2989	567.3587	607.7866	653.3821	709.8858	745.592	766.858	808.4961	848.6891	911.3824	977.2019	1064.7126	1091.862	1116.7666	1129.9369	1147.9849	1213.1923	1375.869	1400.4545	1468.7103	1756.7803	2214.4869	2361.0952	3151.7686	3170.4368	3192.3432	3252.2628	3491.3325
O=C(C#C)C1CC1C#N	O=C(C#C)[C@H]1C[C@H]1C#N	
InChI=1S/C7H5NO/c1-2-7(9)6-3-5(6)4-8/h1,5-6H,3H2	InChI=1S/C7H5NO/c1-2-7(9)6-3-5(6)4-8/h1,5-6H,3H2/t5-,6-/m0/s1
