13
gdb 29259	3.33568	1.4532	1.01222	2.3813	65.9	-0.2217	-0.0411	0.1806	1059.6061	0.090769	-489.949603	-489.942321	-489.941377	-489.981427	27.748	
O	 0.0494782939	 1.3565604392	-0.1380934584	-0.432189
C	-0.0027531599	 0.0125904141	-0.041402597	 0.264414
C	-1.1368483433	-0.6954666485	 0.0598935281	-0.089044
N	-1.0745758468	-2.0853365596	 0.1545611183	-0.390471
C	 0.0807534513	-2.8175710643	 0.1537051894	 0.485749
O	 0.1447600568	-4.0117178957	 0.2334116722	-0.364807
O	 1.2367390896	-2.0669759848	 0.0478652654	-0.253154
C	 1.2711400694	-0.6949372067	-0.0499806803	 0.354547
N	 2.3530425679	-0.0404320455	-0.1453562659	-0.562813
H	 0.9978939913	 1.5695784827	-0.1962687542	 0.312153
H	-2.1212397062	-0.2501558751	 0.0733785115	 0.14939
H	-1.9191207009	-2.6280755783	 0.230823943	 0.28204
H	 3.177810717	-0.6371549476	-0.1411824422	 0.244185
106.0225	147.9698	315.1658	329.286	375.1544	388.4803	480.7127	516.2673	518.8197	550.2821	631.0137	746.5116	746.8905	757.6034	824.5391	845.3646	860.1387	938.8846	1087.7662	1108.6242	1189.1578	1276.0755	1297.9491	1407.4098	1444.9179	1508.2894	1723.5871	1760.6233	1880.2961	3241.2425	3524.5868	3650.4553	3662.7362
OC1=CNC(=O)OC1=N	OC1=C(OC(=O)N[CH]1)[NH]	
InChI=1S/C4H4N2O3/c5-3-2(7)1-6-4(8)9-3/h1,5,7H,(H,6,8)	InChI=1S/C4H4N2O3/c5-3-2(7)1-6-4(8)9-3/h1,5,7H,(H,6,8)
