19
gdb 64008	2.74964	1.54922	1.28456	2.5364	75.81	-0.2268	0.0253	0.2521	1045.4766	0.160191	-419.183531	-419.175365	-419.174421	-419.215652	32.526	
C	-0.0378495368	 1.558691474	-0.0869148347	-0.435739
C	-0.053267296	 0.0313868284	-0.0133275442	 0.344468
O	-1.3768358203	-0.4647184736	-0.1527357461	-0.481132
C	 0.9636607707	-0.5945458684	-1.0631396434	-0.216548
N	 2.2923652008	-0.6394048292	-0.3934445708	-0.317554
C	 1.9799922048	-0.6839029934	 0.8371558108	 0.384917
N	 2.5327513584	-0.4152578056	 2.0861735677	-0.371892
C	 1.2100568535	 0.1642232526	 2.5194195449	-0.213413
C	 0.5589159269	-0.548525683	 1.2809626716	-0.121082
H	 0.9775669701	 1.9531581475	 0.0150682294	 0.128877
H	-0.4187940335	 1.8916669522	-1.059955651	 0.10855
H	-0.66969673	 1.9916162962	 0.6938844607	 0.122704
H	-1.7476628461	-0.100790341	-0.9635871364	 0.277409
H	 0.6156627321	-1.5955920583	-1.3500322568	 0.106204
H	 1.0345775895	 0.010170597	-1.9739934462	 0.093529
H	 3.3967842114	 0.1091945939	 2.1634459994	 0.241054
H	 0.8870413373	-0.1784931944	 3.504299162	 0.119725
H	 1.18588468	 1.2569958688	 2.472353227	 0.117087
H	 0.0475210473	-1.4739744536	 1.5515150463	 0.112835
116.4084	216.2216	261.1662	269.9592	288.5434	309.354	353.865	386.8963	445.8903	508.1888	581.1157	641.3314	715.4017	724.3893	810.4549	857.9791	917.3608	931.5204	947.7571	975.5085	990.5899	1024.3112	1043.7651	1118.6021	1129.6949	1144.1496	1166.095	1198.2387	1216.8266	1228.3766	1286.2922	1319.7586	1324.0734	1360.2325	1387.4258	1404.8482	1487.7291	1492.5637	1500.3538	1509.0357	1763.8749	3017.9154	3027.7469	3054.0059	3069.0827	3093.4619	3099.3531	3118.0978	3119.7478	3550.3047	3809.9818
CC1(O)CN=C2NCC12	C[C@@]1(O)C[N][C]2NC[C@@H]12	
InChI=1S/C6H10N2O/c1-6(9)3-8-5-4(6)2-7-5/h4,9H,2-3H2,1H3,(H,7,8)	InChI=1S/C6H10N2O/c1-6(9)3-8-5-4(6)2-7-5/h4,9H,2-3H2,1H3,(H,7,8)/t4-,6-/m1/s1
