19
gdb 38998	3.15413	1.7625	1.2986	0.5706	89.29	-0.1999	-0.0111	0.1889	1002.5794	0.162259	-348.765701	-348.758917	-348.757973	-348.796425	28.745	
C	-0.0606114211	 1.4604823455	 0.1150189232	-0.320622
C	 1.2956669583	 0.8041931954	 0.024665845	-0.127773
C	 1.9640644426	 0.4466560442	 1.3628044495	-0.260954
C	 1.0080796601	-0.5405030091	 2.0166851985	-0.269812
C	-0.0031706181	-0.8356080099	 1.1896583175	 0.336163
C	-1.0425609648	-1.8392660599	 1.0219951531	-0.196009
C	-1.4394701554	-1.8622466301	-0.263932679	-0.073877
C	-0.7078150124	-0.8460991504	-1.1304712812	-0.403859
C	 0.0345116537	-0.0345538696	-0.0734472548	 0.307859
H	-0.3999916282	 1.8468095228	 1.0724705157	 0.107123
H	-0.3762038185	 2.0399365791	-0.7482997484	 0.10173
H	 1.9201476593	 1.0290774207	-0.8325898441	 0.083034
H	 2.946211806	-0.0218829622	 1.2061260915	 0.105101
H	 2.1496469071	 1.3405373561	 1.973926073	 0.105966
H	 1.194722727	-0.976428412	 2.9907606484	 0.087003
H	-1.3899325247	-2.5106270622	 1.7977867527	 0.098963
H	-2.1611565337	-2.558014016	-0.6775945976	 0.097353
H	-0.0368891859	-1.3608219227	-1.8339691753	 0.113546
H	-1.3915694411	-0.2403520799	-1.7359179878	 0.109064
172.5709	228.2724	289.8813	384.3792	404.1568	426.1606	584.6327	632.2462	667.4076	749.3506	759.6045	781.2696	821.2861	845.3051	856.6369	879.9934	930.4269	950.2488	955.2743	969.1828	1005.79	1025.3686	1043.9952	1075.8703	1078.8599	1102.9434	1147.0622	1170.5008	1187.1609	1222.2632	1257.3734	1279.0303	1305.9106	1346.8898	1368.1236	1392.0184	1473.6055	1479.4142	1485.6978	1617.7101	1706.9725	2999.9952	3002.9086	3028.5874	3053.7305	3105.2322	3170.8	3189.6819	3194.3723	3201.6116	3215.6682
C1C2CC=C3C=CCC123	C1[C@H]2CC=C3C=CC[C@]123	
InChI=1S/C9H10/c1-2-7-3-4-8-6-9(7,8)5-1/h1-3,8H,4-6H2	InChI=1S/C9H10/c1-2-7-3-4-8-6-9(7,8)5-1/h1-3,8H,4-6H2/t8-,9-/m1/s1
