20
gdb 85247	2.67779	1.52713	1.11823	2.9882	79.93	-0.2147	-0.0127	0.2019	1145.0511	0.170342	-403.157408	-403.14855	-403.147606	-403.190554	33.763	
C	 0.0670327841	 1.5108569733	 0.0040545709	-0.316925
N	 0.0544024628	 0.0603235557	 0.0429052796	-0.06626
C	 0.5242256996	-0.5942057795	-1.1750164854	-0.291981
C	 1.094070473	-1.9402879313	-0.7091361562	 0.36129
O	 1.2237967019	-2.9258699207	-1.3911743971	-0.328647
C	 1.3791765568	-1.8332355031	 0.7578489183	 0.198159
C	 1.4198360431	-3.0992473884	 1.5743932553	-0.482422
C	 2.2509696146	-0.6229003346	 1.1216906293	-0.344696
C	 0.7505073684	-0.5252239087	 1.1705420826	-0.037182
H	 1.0767940058	 1.9372418713	-0.1427493468	 0.095137
H	-0.5716921697	 1.8633701789	-0.8118850383	 0.123808
H	-0.3355702457	 1.9072016876	 0.941615227	 0.121043
H	-0.280905109	-0.7493778102	-1.9000747484	 0.134074
H	 1.3236127909	-0.0327361762	-1.6933885463	 0.108763
H	 2.2118256426	-3.760601713	 1.2104367342	 0.139004
H	 1.6102350292	-2.8832018136	 2.6295704457	 0.113754
H	 0.4742538007	-3.6455726138	 1.5013532797	 0.130657
H	 2.7904578395	-0.7134260837	 2.0587375589	 0.121395
H	 2.7960785883	-0.105733424	 0.3392672508	 0.120544
H	 0.2509426531	-0.4207928261	 2.1290196661	 0.100484
115.2702	130.817	161.1706	223.6212	249.2951	279.0503	299.0951	333.759	473.6807	484.5845	534.7356	562.0153	653.6922	687.7407	796.5186	850.5873	866.1201	951.3538	963.346	1006.8097	1027.3774	1038.3266	1066.8047	1087.191	1118.9681	1121.1543	1149.1082	1188.6016	1199.3377	1252.5321	1291.66	1323.2072	1346.2349	1401.9792	1419.1366	1458.3047	1481.731	1484.4073	1487.0687	1496.8148	1498.9263	1505.6971	1836.7934	2932.2073	2937.4275	3039.7214	3062.0116	3069.3407	3104.7255	3107.653	3114.0581	3129.7007	3153.277	3216.5279
CN1CC(=O)C2(C)CC12	CN1CC(=O)[C@@]2(C)C[C@@H]12	
InChI=1S/C7H11NO/c1-7-3-5(7)8(2)4-6(7)9/h5H,3-4H2,1-2H3	InChI=1S/C7H11NO/c1-7-3-5(7)8(2)4-6(7)9/h5H,3-4H2,1-2H3/t5-,7+/m1/s1
