20
gdb 58990	3.53813	0.97906	0.945	2.5251	76.73	-0.249	0.0205	0.2695	1371.6821	0.170268	-440.310288	-440.300635	-440.29969	-440.34541	34.949	
C	-0.0540597175	 1.5008868687	-0.1768674319	-0.40612
C	 0.0038716567	-0.0060542435	 0.104092566	 0.045405
O	 0.6236938011	-0.2902753104	 1.349885624	-0.430983
C	-1.3710833322	-0.6197004334	 0.0501957428	 0.402288
N	-1.8692550128	-1.3161625372	-0.8831577405	-0.323111
C	-3.248133767	-1.6548452003	-0.4789685176	 0.025458
C	-3.5012846857	-3.1584675791	-0.5600638904	-0.388463
C	-3.372258378	-1.0694466331	 0.95588474	-0.12307
O	-2.1348884502	-0.3500803296	 1.1521672252	-0.278204
H	 0.9518859235	 1.9209578387	-0.1001147511	 0.12868
H	-0.4455816661	 1.6959499441	-1.1799427772	 0.128088
H	-0.7001359583	 2.003587476	 0.5500315555	 0.121432
H	 0.6077316745	-0.5024781841	-0.6591359951	 0.117973
H	-0.0042322651	-0.0446344447	 2.0393904984	 0.289554
H	-3.9369919821	-1.1444829875	-1.1640509743	 0.089167
H	-2.8167081909	-3.6998025373	 0.1010482074	 0.122515
H	-4.5287401221	-3.3975570049	-0.2652958584	 0.112503
H	-3.3424010463	-3.5158630697	-1.5805459425	 0.133092
H	-4.2002531646	-0.3678817893	 1.0813125859	 0.11938
H	-3.4433332568	-1.8477792835	 1.7237986639	 0.114414
43.9897	81.7702	119.5467	182.9349	230.7723	249.0342	265.6888	324.2456	354.3271	377.559	458.6063	531.0715	671.4815	693.1524	740.2832	852.55	886.5328	918.3684	938.9022	945.6581	999.7764	1031.1343	1089.0644	1091.0233	1102.5837	1125.5636	1161.4868	1226.0919	1260.0218	1292.4134	1322.2742	1346.6783	1363.3348	1383.4909	1397.9255	1407.9281	1426.446	1487.639	1489.614	1496.2412	1496.8793	1520.1999	1749.6556	3018.2927	3034.7397	3039.8978	3042.75	3092.8513	3101.6891	3105.9522	3117.7248	3124.3404	3127.9633	3798.7943
CC(O)C1=NC(C)CO1	C[C@@H](O)C1=N[C@@H](C)CO1	
InChI=1S/C6H11NO2/c1-4-3-9-6(7-4)5(2)8/h4-5,8H,3H2,1-2H3	InChI=1S/C6H11NO2/c1-4-3-9-6(7-4)5(2)8/h4-5,8H,3H2,1-2H3/t4-,5+/m0/s1
