18
gdb 108811	3.31281	1.18108	0.91531	3.1478	75.97	-0.2261	0.0168	0.2429	1280.9357	0.147997	-435.301162	-435.291982	-435.291038	-435.33533	33.109	
C	 0.0259609731	 1.3675653824	 0.0140023891	-0.237581
O	-0.0219000376	-0.0648164257	 0.0425422451	-0.266451
C	-1.2472652797	-0.5841267474	 0.0261868662	 0.499949
N	-2.3606419104	 0.0348401203	-0.0081153223	-0.377256
C	-3.3977338328	-1.0134177978	-0.021193798	-0.04281
C	-4.3306550065	-0.8933505623	-1.2269370275	-0.375116
C	-2.6448775527	-2.352750251	 0.0042914297	 0.3906
N	-3.1777874946	-3.5039909678	-0.023339928	-0.552295
N	-1.306024257	-1.9718947023	 0.0568175924	-0.420061
H	 1.0845742712	 1.626655355	 0.0267506685	 0.133979
H	-0.4549348237	 1.7475707942	-0.8908114339	 0.146152
H	-0.4849246329	 1.7836660563	 0.8858857676	 0.146465
H	-3.9947019633	-0.9351320776	 0.8964119206	 0.11256
H	-3.7608588888	-0.9434165827	-2.1597126162	 0.11465
H	-5.0541126368	-1.712280169	-1.2169741236	 0.1382
H	-4.8602246523	 0.062227274	-1.1985313996	 0.122202
H	-2.4833651464	-4.2522847796	-0.0014437977	 0.20598
H	-0.5060151087	-2.5811646791	 0.0247325678	 0.260831
71.3912	116.6989	135.0391	198.3472	207.24	227.1209	257.7149	365.2305	396.8804	445.6212	527.5569	634.7403	678.1385	710.821	736.0757	808.1206	852.5511	934.5386	989.4443	1049.9608	1067.4993	1097.5243	1122.3891	1134.1734	1183.4011	1223.8303	1259.8998	1289.938	1315.5428	1336.2522	1398.3626	1446.3681	1477.2371	1486.975	1494.7669	1495.7987	1508.587	1724.4371	1765.9489	3026.9267	3045.828	3052.5972	3120.0538	3128.7428	3134.8883	3160.8859	3457.8881	3663.3085
COC1=NC(C)C(=N)N1	COC1=N[C@@H](C)[C]([NH])N1	
InChI=1S/C5H9N3O/c1-3-4(6)8-5(7-3)9-2/h3H,1-2H3,(H2,6,7,8)	InChI=1S/C5H9N3O/c1-3-4(6)8-5(7-3)9-2/h3H,1-2H3,(H2,6,7,8)/t3-/m0/s1
