24
gdb 117944	3.05945	0.82797	0.69682	3.2962	87.91	-0.2302	0.0381	0.2683	1749.4614	0.215278	-405.591276	-405.579598	-405.578654	-405.629512	40.474	
C	 0.0732288866	 1.5507242077	 0.0490203535	-0.378862
C	 0.0815907294	 0.0209697253	-0.000209087	-0.169731
C	-1.3359574894	-0.5654142305	 0.0106480863	-0.153715
N	-1.360266141	-2.0272752288	 0.0046139605	-0.083117
C	-1.3616758205	-2.6792788998	 1.299697687	-0.3461
C	-1.3690132844	-2.6656045585	-1.2095498008	 0.419365
O	-1.3315151075	-2.0330438088	-2.2550517843	-0.389418
C	-1.4338089276	-4.1953447546	-1.2160050591	-0.310368
C	-1.5271962087	-4.7509567046	-2.6366612667	-0.369488
H	 1.0899438557	 1.9538882503	 0.0248482531	 0.115011
H	-0.4710705318	 1.9694488214	-0.8044253646	 0.123037
H	-0.4086708067	 1.9191367285	 0.962020577	 0.11073
H	 0.5838276318	-0.324412343	-0.9098711609	 0.123354
H	 0.6524241792	-0.3749010885	 0.8497112876	 0.089734
H	-1.8810704104	-0.2240821649	 0.8997088609	 0.090606
H	-1.877151177	-0.2219403305	-0.8736217521	 0.135533
H	-1.2396349855	-3.7558156343	 1.2002169931	 0.138852
H	-0.5363850136	-2.3071009233	 1.9191309557	 0.128452
H	-2.2984223461	-2.4887962382	 1.8417603081	 0.124525
H	-0.5437012596	-4.5948965233	-0.7130864104	 0.119841
H	-2.2912218142	-4.5291426824	-0.6188777002	 0.117076
H	-1.559861	-5.8443265651	-2.6164571942	 0.100782
H	-2.4242738237	-4.3840550684	-3.1407515585	 0.130427
H	-0.669666095	-4.4355600958	-3.2346452841	 0.133475
39.2513	60.6498	87.0739	90.0681	103.3592	161.8496	212.8576	226.0387	238.4225	288.3357	339.7668	360.6056	399.6814	554.6094	586.4318	596.5179	745.6894	763.5118	823.8339	876.1025	893.0733	974.481	1014.5711	1046.6097	1078.4468	1093.8053	1109.4076	1121.5707	1153.2029	1169.2535	1249.2965	1289.6326	1296.6423	1326.0223	1333.4794	1363.4956	1406.2005	1411.5981	1415.1881	1439.3881	1461.847	1471.312	1485.5212	1488.8659	1489.9113	1493.0009	1498.4408	1501.3022	1507.6929	1529.1402	1742.3983	3004.8048	3022.1796	3022.9974	3027.1858	3030.933	3051.8419	3052.5975	3056.9452	3073.0699	3096.9857	3105.9465	3113.9595	3122.7809	3136.0358	3168.5034
CCCN(C)C(=O)CC	CCCN(C)C(=O)CC	
InChI=1S/C7H15NO/c1-4-6-8(3)7(9)5-2/h4-6H2,1-3H3	InChI=1S/C7H15NO/c1-4-6-8(3)7(9)5-2/h4-6H2,1-3H3
