14
gdb 29052	2.77541	1.7647	1.07878	3.3679	82.36	-0.2283	-0.0922	0.1361	1026.3812	0.102667	-432.898499	-432.891155	-432.89021	-432.931146	27.637	
N	 0.0096472472	 1.337956459	 0.1241852586	-0.507731
C	-0.0338807988	 0.0009207324	 0.0892154155	 0.227866
C	-1.2516983596	-0.6695760158	 0.0132562158	-0.079875
N	-1.5277412474	-1.9740830804	-0.0326292765	-0.234742
C	-0.6580280072	-2.9529007838	-0.0142019735	-0.017127
C	 0.7639803212	-2.9066139158	 0.0569231154	 0.027321
N	 1.6230350048	-1.9298850514	 0.1231527486	-0.318512
C	 1.3592007059	-0.583197202	 0.1430178599	 0.372329
O	 2.274615661	 0.2285029055	 0.2075417582	-0.366099
H	 0.9386275674	 1.7384720335	 0.1792484672	 0.291853
H	-0.8173233758	 1.9091249053	 0.0975067893	 0.273133
H	-2.1359033879	-0.0306676574	-0.0140971106	 0.098189
H	-1.0828853846	-3.9551050772	-0.0598996639	 0.112568
H	 1.2256244439	-3.8985565421	 0.055362396	 0.120827
31.3864	149.1366	350.1813	368.4415	379.164	382.4598	435.8676	452.2394	547.9921	639.2063	676.0042	678.1534	748.0952	813.7317	856.8752	896.0701	921.4238	995.5122	1003.8751	1028.4997	1162.5187	1269.7849	1366.2473	1419.7984	1442.2962	1464.7429	1491.3657	1561.7277	1615.2179	1646.3275	1710.9327	3081.6343	3104.7245	3134.0263	3530.1995	3709.8726
NC1=CN=CC=NC1=O	Nc1cnccnc1=O	
InChI=1S/C5H5N3O/c6-4-3-7-1-2-8-5(4)9/h1-3H,(H2,6,8,9)	InChI=1S/C5H5N3O/c6-4-3-7-1-2-8-5(4)9/h1-3H,(H2,6,8,9)
