23
gdb 109671	2.38163	1.02174	0.96049	1.2755	82.11	-0.2429	0.0691	0.312	1414.4819	0.202953	-425.408688	-425.397491	-425.396547	-425.444867	40.819	
C	-0.9535412571	 0.6391143833	-2.9892005137	-0.4003
C	-0.4718129547	-0.3716727255	-1.9394921818	-0.227025
C	-1.5848450072	-0.8448962213	-1.0211044847	 0.365598
O	-2.1705167475	 0.2036982258	-0.278311378	-0.472901
C	-2.5028664542	-2.000583086	-1.3683081216	-0.080528
C	-2.3984390904	-2.8319746745	-2.6299739875	-0.410205
C	-1.500542175	-2.1235100263	-0.2258820959	-0.106162
C	-0.3368217709	-3.0869447739	-0.2743100038	-0.087922
O	-0.7459202997	-4.4448299356	-0.1382176735	-0.416615
H	-0.1277123283	 0.9614733246	-3.6299359322	 0.117221
H	-1.7279775062	 0.2075504785	-3.6324234719	 0.119103
H	-1.3649519611	 1.5362447712	-2.514804659	 0.113806
H	-0.0085571977	-1.2228060888	-2.4463663058	 0.098373
H	 0.3089344466	 0.0889488894	-1.3219228556	 0.105299
H	-2.7341536993	 0.7073872776	-0.8752586838	 0.280327
H	-3.5245093086	-1.8453936798	-1.0292730117	 0.081545
H	-1.3732225543	-2.9103357548	-2.9993523326	 0.116708
H	-2.7500943885	-3.8522274891	-2.4472498827	 0.130428
H	-3.0048765366	-2.4026013297	-3.4350681746	 0.110128
H	-1.9383055764	-2.0233002889	 0.7654497819	 0.08672
H	 0.1868459448	-3.0431135933	-1.232215149	 0.104451
H	 0.3974063402	-2.8183776472	 0.5017293627	 0.091749
H	-1.2469248479	-4.5159569657	 0.6806894047	 0.280201
66.2784	82.0504	120.7423	141.8839	189.5794	228.3562	238.0447	253.3634	279.1536	295.3571	320.6962	342.7516	421.472	454.6317	535.7546	624.4985	686.138	784.6188	790.6971	854.4036	933.6048	974.8485	1010.795	1015.5988	1033.9572	1049.3649	1075.723	1094.5578	1128.3812	1135.4646	1157.1213	1203.826	1252.5567	1290.2732	1310.7417	1313.2061	1350.6379	1377.9818	1384.3336	1404.319	1418.5356	1429.725	1463.2329	1475.3329	1495.728	1498.0473	1503.0133	1511.5277	1515.2958	2978.7945	3033.2857	3036.1112	3037.4445	3082.2671	3094.556	3096.8237	3106.0667	3108.5292	3115.6588	3124.9443	3138.0726	3801.6951	3813.4376
CCC1(O)C(C)C1CO	CC[C@@]1(O)[C@@H](C)[C@H]1CO	
InChI=1S/C7H14O2/c1-3-7(9)5(2)6(7)4-8/h5-6,8-9H,3-4H2,1-2H3	InChI=1S/C7H14O2/c1-3-7(9)5(2)6(7)4-8/h5-6,8-9H,3-4H2,1-2H3/t5-,6+,7+/m0/s1
