16
gdb 107376	3.19257	1.30708	1.05057	3.8561	64.6	-0.256	0.0413	0.2973	1118.0953	0.124845	-475.047439	-475.039504	-475.03856	-475.080215	30.007	
O	 0.0211353839	 1.4160846335	 0.3848983161	-0.409688
C	 0.0086240506	 0.0887191605	-0.1027833868	-0.144641
C	-1.3573757104	-0.5324458244	-0.0298126316	 0.398248
C	-1.951700715	-1.1381789916	 1.2148533932	-0.357532
C	-1.6885273287	-1.9984256255	-0.0135396916	-0.082911
N	-2.7386329268	-2.0965739348	-0.9785965475	-0.363865
C	-3.1458583049	-0.8559143366	-1.4297942115	 0.456581
O	-4.0768370368	-0.585900332	-2.1314091732	-0.378806
O	-2.2742507666	 0.0855651571	-0.9231266762	-0.287405
H	-0.5893019755	 1.925823722	-0.1594803403	 0.298143
H	 0.369928341	 0.0346891871	-1.1411503111	 0.105419
H	 0.7002666078	-0.4825956022	 0.5242318208	 0.1139
H	-1.2778343869	-1.2602771115	 2.0558588338	 0.132183
H	-2.9798832851	-0.9049881115	 1.4691573531	 0.13299
H	-0.9372067009	-2.7799457318	-0.0136612662	 0.119574
H	-3.4082304356	-2.8483714683	-0.9975918809	 0.267809
73.5496	137.1324	160.4432	272.9129	363.2084	379.0528	415.4866	444.6201	484.1345	507.4912	667.9542	744.1413	767.1664	774.3523	869.008	901.8225	930.1491	983.2591	993.3398	1019.6916	1045.5561	1071.3314	1083.0997	1136.5346	1171.1949	1220.7137	1276.8528	1335.8093	1385.8909	1390.4576	1407.9196	1436.8671	1477.8341	1490.6308	1900.2449	2992.6851	3084.1115	3135.3124	3174.444	3230.8851	3654.6894	3808.6811
OCC12CC1NC(=O)O2	OC[C@]12C[C@H]1NC(=O)O2	
InChI=1S/C5H7NO3/c7-2-5-1-3(5)6-4(8)9-5/h3,7H,1-2H2,(H,6,8)	InChI=1S/C5H7NO3/c7-2-5-1-3(5)6-4(8)9-5/h3,7H,1-2H2,(H,6,8)/t3-,5-/m1/s1
