17
gdb 125229	5.77216	0.9389	0.86129	3.5105	76.78	-0.2394	-0.0128	0.2266	1351.47	0.136864	-417.985566	-417.977362	-417.976418	-418.019219	29.744	
C	 0.0642000604	 1.4828686578	 0.0289476224	-0.490597
C	-0.0909379511	 0.0035332545	 0.0212623735	 0.449126
C	-1.1594042917	-0.8279512067	-0.1105885674	-0.448425
C	-0.5954454977	-2.1334391539	-0.0271146721	 0.421311
N	 0.7053428501	-2.0795288091	 0.1506767875	-0.233102
O	 1.0296664503	-0.7255477514	 0.1758951547	-0.211049
C	-1.2848000605	-3.4386899581	-0.1195888366	-0.11657
C	-0.7890668678	-4.4621578584	-1.0898532488	-0.22469
N	-0.6055247644	-4.656021053	 0.34926691	-0.313565
H	 0.7269853567	 1.811164973	-0.7782877712	 0.152747
H	-0.9068599587	 1.9638700335	-0.1007740808	 0.142922
H	 0.5003739747	 1.8255217383	 0.9728604374	 0.153461
H	-2.1932341762	-0.5581311134	-0.2490049192	 0.118277
H	-2.3485550304	-3.4034092221	 0.0995837892	 0.097371
H	-1.4966779508	-5.1383723444	-1.5619732956	 0.120658
H	 0.0698520433	-4.1857769035	-1.6944942759	 0.128363
H	 0.3478628038	-4.407681713	 0.607900913	 0.253762
51.0376	94.5311	147.0439	169.2104	260.9278	311.4359	415.8406	449.7619	637.4778	641.2291	721.0561	733.7025	810.4752	832.7514	885.8037	942.0597	974.2135	990.9998	1016.2863	1030.5909	1048.6736	1065.4673	1110.8226	1138.2839	1151.7333	1192.4034	1256.5403	1284.8039	1314.3958	1366.8252	1413.1067	1473.9433	1474.878	1490.8134	1506.4335	1520.36	1644.0708	3043.6514	3100.6676	3109.3766	3139.9721	3142.9448	3202.408	3272.9296	3494.3684
CC1=CC(=NO1)C1CN1	Cc1cc(no1)[C@H]1CN1	
InChI=1S/C6H8N2O/c1-4-2-5(8-9-4)6-3-7-6/h2,6-7H,3H2,1H3	InChI=1S/C6H8N2O/c1-4-2-5(8-9-4)6-3-7-6/h2,6-7H,3H2,1H3/t6-/m1/s1
