18
gdb 79044	3.70094	1.65844	1.40754	0.6862	75.16	-0.236	0.0796	0.3156	957.4066	0.148584	-401.822969	-401.816192	-401.815248	-401.853759	28.034	
C	-0.1738779365	 1.5938419688	-0.0923687445	-0.418142
C	-0.0146058682	 0.0982368247	 0.0670048216	-0.022338
N	 1.166679146	-0.5594651047	-0.7075824397	-0.200046
C	 2.1383323291	-0.1752358371	 0.4366015767	-0.052381
C	 2.5565468748	-1.5852778951	 0.8788946972	-0.146785
C	 2.2863511845	-1.5528673863	 2.4237842742	-0.117957
O	 1.047145443	-0.776959764	 2.5522495522	-0.34933
C	 0.8402754411	-0.5198018398	 1.186750293	 0.401168
C	 1.1447877733	-1.7333368555	 0.2955554306	-0.037534
H	 0.7541614756	 2.1301132368	 0.1239103204	 0.121643
H	-0.475924458	 1.8310889158	-1.1171133222	 0.132191
H	-0.9479854448	 1.9695808463	 0.5844395928	 0.127906
H	-0.9522125023	-0.4294033513	-0.1422249044	 0.083239
H	 2.7036574867	 0.7545123873	 0.4282050626	 0.086015
H	 3.4440825292	-2.1195223628	 0.53738166	 0.079604
H	 2.1258900748	-2.5507867632	 2.8450604409	 0.114789
H	 3.0819658208	-1.047874179	 2.9815574987	 0.114391
H	 0.5264287208	-2.6143284907	 0.1268638998	 0.083566
200.4263	202.6844	231.6308	305.8224	439.6952	473.8567	524.5973	673.1564	707.7179	767.3081	790.1463	794.3473	856.3034	866.6244	889.1687	906.1818	943.4026	950.34	986.1446	994.9666	1050.0905	1055.0468	1062.1269	1121.7822	1131.6793	1158.2443	1167.9378	1181.1676	1222.8216	1234.7372	1259.1487	1276.651	1307.3364	1362.9391	1399.325	1417.4556	1491.1145	1492.8719	1509.9612	3040.1961	3041.3017	3047.8815	3089.0352	3106.6408	3109.4662	3118.4158	3124.1678	3136.8641
CC1N2C3C4COC13C24	C[C@H]1N2[C@@H]3[C@H]4CO[C@@]13[C@@H]24	
InChI=1S/C7H9NO/c1-3-7-5-4(2-9-7)6(7)8(3)5/h3-6H,2H2,1H3	InChI=1S/C7H9NO/c1-3-7-5-4(2-9-7)6(7)8(3)5/h3-6H,2H2,1H3/t3-,4-,5-,6+,7+/m1/s1
