17
gdb 71418	4.44387	1.2039	1.08393	4.9961	77.04	-0.2592	0.0185	0.2777	1125.128	0.136512	-380.820391	-380.812782	-380.811838	-380.852329	29.447	
C	 0.018292178	 1.4885678685	 0.0401824718	-0.497224
C	-0.0526352278	-0.0046626593	 0.0588489352	 0.342365
C	-1.271360414	-0.9027704787	-0.1720567826	-0.303517
C	-0.3637669783	-2.0709350814	 0.2882485596	-0.075769
C	 0.5692760182	-0.9990998472	 0.9676391191	-0.097429
N	 1.1944901555	-0.7537367751	-0.3712127943	-0.174243
C	 0.6936499321	-2.0937269434	-0.8413359066	-0.110669
C	 1.725168482	-3.1137564914	-0.6838011737	 0.294137
N	 2.5152398079	-3.9476773855	-0.5590609489	-0.322189
H	 1.009202201	 1.8298509623	 0.3501427697	 0.141694
H	-0.1716091997	 1.8748401468	-0.967146266	 0.130481
H	-0.7272985968	 1.9203554895	 0.7159030286	 0.124072
H	-2.0504232007	-0.6840462475	 0.5627576731	 0.116128
H	-1.7130792049	-0.9621366965	-1.1732956671	 0.101529
H	-0.7673431312	-2.984151758	 0.7180563431	 0.1
H	 1.1019563061	-0.9354477401	 1.9068155327	 0.112923
H	 0.3248966925	-2.1106335529	-1.8736475337	 0.117712
126.8579	143.1571	196.9764	257.1643	308.8306	390.6174	446.192	487.5092	538.8031	629.8614	736.655	789.1464	814.3891	868.7698	895.8184	921.9975	939.1675	962.7846	997.4092	1014.3919	1031.5369	1040.4525	1091.7206	1141.5723	1154.9778	1169.0039	1222.042	1234.3169	1250.2944	1285.3253	1350.4354	1396.286	1434.9733	1485.0175	1490.7036	1502.2887	2361.1799	3035.6205	3038.426	3046.3651	3098.549	3106.141	3123.1474	3152.8281	3212.325
CC12CC3C1N2C3C#N	C[C@]12C[C@@H]3[C@H]1N2[C@H]3C#N	
InChI=1S/C7H8N2/c1-7-2-4-5(3-8)9(7)6(4)7/h4-6H,2H2,1H3	InChI=1S/C7H8N2/c1-7-2-4-5(3-8)9(7)6(4)7/h4-6H,2H2,1H3/t4-,5-,6+,7-,9?/m0/s1
