23
gdb 118481	1.76141	1.23747	0.81628	2.9676	79.6	-0.2468	0.0691	0.3159	1511.4217	0.202142	-462.539019	-462.527518	-462.526574	-462.576402	40.253	
C	-0.2262109219	 1.4432695977	 0.035475193	-0.223895
O	-0.1108488007	 0.0422699641	 0.0896824661	-0.225319
C	-1.3534453855	-0.6152547532	 0.0073662905	-0.085317
C	-1.1399139499	-2.1275681191	 0.0239226494	 0.084852
O	-0.5298600212	-2.5998151714	-1.1763528119	-0.261163
C	-1.4044228588	-2.7580670041	-2.2705561844	-0.241372
C	-0.2268844402	-2.6224670161	 1.1588301693	 0.136593
C	-0.7578176022	-2.2986972049	 2.5480737091	-0.401564
O	-0.1000283536	-4.0339459084	 1.0651914045	-0.449372
H	 0.7821060773	 1.857705024	 0.1077050247	 0.130126
H	-0.6818906128	 1.7784432244	-0.9099437895	 0.103903
H	-0.8338065535	 1.837735987	 0.8657358924	 0.103417
H	-2.0038143842	-0.3334626563	 0.8528696557	 0.091317
H	-1.8866881502	-0.3198565269	-0.9122524998	 0.086524
H	-2.1255868902	-2.6076130112	 0.1431826032	 0.067878
H	-0.8185841817	-3.1782824299	-3.0918957173	 0.130263
H	-2.231066805	-3.4452856367	-2.0332489521	 0.109511
H	-1.8348072369	-1.8040032851	-2.6067554141	 0.109614
H	 0.7516410638	-2.1410509251	 1.0216473022	 0.089844
H	-1.77937112	-2.671985396	 2.6772711764	 0.113935
H	-0.1257592504	-2.7846454541	 3.2957794265	 0.127809
H	-0.7435832701	-1.2217709501	 2.7338967026	 0.120574
H	 0.103578628	-4.2077372885	 0.1379594437	 0.281844
55.295	66.1756	90.7016	114.0013	152.3438	191.0794	209.2692	227.4015	253.6966	316.5021	337.4802	350.8012	417.4893	467.3822	481.3619	506.3333	686.3477	846.0961	873.5047	932.2547	951.3801	1039.6525	1055.2255	1095.4526	1130.9687	1150.7482	1162.8173	1174.5639	1183.4463	1188.3979	1224.0369	1227.4692	1270.5379	1298.9215	1312.6624	1374.2852	1387.796	1399.0919	1418.7161	1443.7275	1477.1445	1479.1325	1485.8077	1488.355	1490.8071	1499.3979	1502.7562	1509.517	1523.9248	2952.395	2967.8666	2972.1672	2980.7394	2983.3497	3011.3682	3011.9143	3032.3466	3041.8185	3112.9582	3113.434	3116.1616	3127.2353	3784.1064
COCC(OC)C(C)O	COC[C@@H](OC)[C@@H](C)O	
InChI=1S/C6H14O3/c1-5(7)6(9-3)4-8-2/h5-7H,4H2,1-3H3	InChI=1S/C6H14O3/c1-5(7)6(9-3)4-8-2/h5-7H,4H2,1-3H3/t5-,6-/m1/s1
