20
gdb 31043	2.1766	1.43669	0.88122	2.8421	85.81	-0.1649	0.0406	0.2055	1355.4754	0.17075	-399.377948	-399.367654	-399.36671	-399.413999	36.105	
C	 0.1556915305	 1.4804677684	-0.011008561	-0.307997
N	-0.0724425975	 0.0420159334	-0.0310253566	-0.392541
C	 0.555134221	-0.6923838403	-1.0429087848	 0.251571
C	 0.62849841	-2.0627624623	-1.1651656161	 0.211926
C	 0.1301697642	-3.1771518524	-0.3119340702	-0.517969
N	 1.3153173957	-2.2544473943	-2.3609155818	-0.339148
C	 1.5993957195	-1.0354509259	-2.8928748932	 0.333717
C	 2.3181765168	-0.8453978378	-4.1865943286	-0.499397
N	 1.1541784484	-0.0689836527	-2.1119526594	-0.358778
H	 1.2139257961	 1.7621523981	 0.0986002567	 0.106863
H	-0.2012638645	 1.9182343805	-0.9454677534	 0.142717
H	-0.4141425948	 1.9119609911	 0.8167047963	 0.105073
H	 0.0574514079	-0.3755406325	 0.8795281524	 0.225721
H	-0.3818119526	-3.9490330902	-0.9007575896	 0.121822
H	 0.9225994922	-3.6794806768	 0.2609116695	 0.121375
H	-0.5991077239	-2.7916831571	 0.4066730196	 0.135243
H	 1.5476420047	-3.1467995073	-2.7634553003	 0.252846
H	 1.7680572286	-1.2768767004	-5.0316899799	 0.127255
H	 2.4337721224	 0.2244312377	-4.3649870865	 0.153997
H	 3.3150515653	-1.3022144393	-4.1755235731	 0.125703
50.2473	60.4728	106.2843	156.1617	181.0704	187.9132	238.6933	249.6265	326.2094	352.3706	473.108	511.3348	575.5932	619.3229	661.8604	676.6788	740.4905	838.2172	967.4568	1020.6294	1044.2874	1056.3157	1063.0941	1075.3227	1135.4336	1155.9447	1207.6917	1224.3873	1324.1825	1406.991	1410.9916	1432.9715	1450.2195	1467.0459	1470.8652	1483.2585	1483.6638	1485.5993	1498.2253	1511.0477	1518.802	1572.8761	1656.4099	2987.9517	2997.9715	3023.6481	3043.7393	3069.6338	3081.5416	3101.7816	3129.0256	3145.8615	3580.1181	3659.7671
CNC1=C(C)NC(C)=N1	CNc1c(C)[nH]c(C)n1	
InChI=1S/C6H11N3/c1-4-6(7-3)9-5(2)8-4/h7H,1-3H3,(H,8,9)	InChI=1S/C6H11N3/c1-4-6(7-3)9-5(2)8-4/h7H,1-3H3,(H,8,9)
