19
gdb 119629	4.12954	0.92099	0.84703	0.5661	70.81	-0.23	0.0763	0.3063	1382.1485	0.15875	-460.12981	-460.121053	-460.120109	-460.163743	32.484	
O	 0.1313564749	 1.4245076147	-0.347369188	-0.418798
C	 0.0489060254	 0.016159766	-0.1980536574	-0.058399
C	-1.3825221525	-0.457938924	 0.0832771801	-0.304012
C	-1.4923247732	-1.9522019117	 0.1882603835	 0.415859
C	-1.6084787599	-2.8810033884	-1.0138421616	-0.396524
C	-2.7134501959	-2.7962574433	 0.0248678794	 0.017597
O	-2.7155027135	-3.7346614395	 1.0719327238	-0.256598
C	-1.4063803203	-3.7291725781	 1.6113005341	 0.008487
O	-0.821099032	-2.4740871745	 1.321441643	-0.298808
H	-0.0646974671	 1.8225441664	 0.5066882739	 0.281856
H	 0.3984923973	-0.4061876397	-1.1460374498	 0.113732
H	 0.7221999889	-0.3500371876	 0.5898300023	 0.107855
H	-1.7386059998	-0.0117686528	 1.0215484825	 0.099178
H	-2.0370407705	-0.0994007272	-0.7182950481	 0.109695
H	-1.8104319234	-2.4123129497	-1.9716197356	 0.121796
H	-0.9948478344	-3.7730334545	-1.0711716423	 0.125566
H	-3.7056438813	-2.4313311545	-0.2088040428	 0.114628
H	-1.4598121591	-3.8650107684	 2.6962794356	 0.121875
H	-0.8081822936	-4.5400761131	 1.1643131172	 0.095013
74.4209	100.6035	115.2787	214.4023	261.3152	299.3041	332.7105	348.6497	420.8695	468.2843	701.9858	734.0917	741.4489	784.8129	852.4843	886.1856	934.0021	970.6657	982.4035	1015.5402	1031.3182	1046.3828	1071.7223	1074.1266	1098.9254	1152.4219	1153.6318	1173.628	1220.2083	1250.2488	1263.1362	1310.7294	1336.3559	1391.5919	1407.5609	1421.1622	1435.9706	1472.9861	1477.4615	1513.3975	1551.0593	2961.7471	3008.12	3020.8719	3068.9956	3072.2553	3088.7713	3133.4387	3195.3196	3222.9674	3817.0881
OCCC12CC1OCO2	OCC[C@]12C[C@H]1OCO2	
InChI=1S/C6H10O3/c7-2-1-6-3-5(6)8-4-9-6/h5,7H,1-4H2	InChI=1S/C6H10O3/c7-2-1-6-3-5(6)8-4-9-6/h5,7H,1-4H2/t5-,6+/m1/s1
