21
gdb 118352	2.81251	0.89399	0.73985	2.6509	79.39	-0.2519	-0.0267	0.2251	1597.0983	0.179632	-424.214884	-424.204588	-424.203644	-424.251412	36.018	
C	-0.0705715435	 1.5984763896	 0.0857594862	-0.38188
C	-0.016837077	 0.0707690514	 0.0108884695	-0.180576
C	-1.4065043387	-0.5771900337	 0.0113016093	-0.196075
C	-1.3666439739	-2.1131829727	-0.0534850903	-0.10562
C	-0.7436133604	-2.6982109412	 1.2116371691	 0.166149
O	-0.0958498658	-3.7124679026	 1.2421476043	-0.261357
C	-2.7618946367	-2.6995234496	-0.2334595675	 0.06871
C	-3.087521655	-4.1007154988	 0.0503268819	-0.190538
O	-3.471303964	-3.0592530741	 0.9583246581	-0.237251
H	 0.9336548488	 2.032639984	 0.0779776255	 0.11714
H	-0.621738814	 2.0172106986	-0.7636437184	 0.116433
H	-0.5714794102	 1.9326278576	 1.0009355585	 0.118317
H	 0.5216554886	-0.2374277204	-0.8949021837	 0.102637
H	 0.571632927	-0.3149274654	 0.8542586448	 0.105304
H	-1.9604193198	-0.2725226525	 0.9101799911	 0.11227
H	-1.9843083391	-0.1997482264	-0.8418073044	 0.099694
H	-0.7507027039	-2.4398473698	-0.9011628894	 0.102513
H	-0.9465537047	-2.1162779133	 2.1375961258	 0.089942
H	-3.3741911227	-2.1765792176	-0.970798921	 0.095226
H	-3.9100433549	-4.5743487746	-0.4828022799	 0.118546
H	-2.30866119	-4.7687525484	 0.4111499206	 0.140417
58.7103	67.1949	83.4017	96.5878	144.5307	232.8399	246.0299	267.5303	307.0577	347.8113	419.5695	554.5816	579.9853	738.1252	788.6553	849.0373	857.6975	904.6978	938.421	980.3021	995.4913	1049.3485	1062.5497	1081.2035	1102.8326	1143.7773	1154.4116	1161.8911	1175.0763	1247.6358	1262.9603	1290.7621	1320.6861	1340.36	1346.5608	1393.5024	1407.1977	1414.7889	1435.5708	1484.0127	1493.0971	1499.6796	1509.5157	1524.6888	1828.113	2888.8834	3010.5745	3017.9621	3031.5819	3034.0675	3038.7536	3061.4916	3088.8206	3096.3829	3097.5665	3106.3856	3188.3375
CCCC(C=O)C1CO1	CCC[C@@H](C=O)[C@H]1CO1	
InChI=1S/C7H12O2/c1-2-3-6(4-8)7-5-9-7/h4,6-7H,2-3,5H2,1H3	InChI=1S/C7H12O2/c1-2-3-6(4-8)7-5-9-7/h4,6-7H,2-3,5H2,1H3/t6-,7+/m0/s1
