21
gdb 119958	1.91648	1.1818	0.86601	4.0696	81.59	-0.2393	-0.0114	0.228	1439.7826	0.180062	-424.210622	-424.200285	-424.199341	-424.246765	36.41	
C	 0.48773663	 1.0602320653	-2.8451412204	-0.226576
O	 0.5598656254	-0.1504801732	-2.1293419001	-0.226292
C	 0.804901601	-1.2655864877	-2.9610913206	-0.090694
C	 0.7917649706	-2.5110801874	-2.110285391	-0.055308
C	 1.7729943317	-3.6336981419	-2.2711098468	-0.042708
C	 2.8549790333	-3.6874334364	-3.3313521941	-0.416031
C	 1.855604641	-2.7401594611	-1.0316171555	-0.117574
C	 2.9516615532	-1.7652799075	-0.8308036901	 0.176279
O	 3.4359497355	-1.5206999862	 0.2482618272	-0.278132
H	 1.4242323622	 1.2731845304	-3.3850212821	 0.104518
H	-0.3350921574	 1.0536874035	-3.5775801122	 0.104021
H	 0.3097761482	 1.8573995016	-2.1199323436	 0.13337
H	 0.0223105661	-1.3454241884	-3.7349284868	 0.093233
H	 1.7593509553	-1.1375150893	-3.4942529508	 0.088288
H	-0.2069095649	-2.7951414894	-1.7919728658	 0.104561
H	 1.3627260553	-4.6150001316	-2.0465039579	 0.101522
H	 3.2864447635	-2.7113991088	-3.5604884574	 0.125276
H	 3.6737675709	-4.337461293	-3.0062474965	 0.130967
H	 2.4542238148	-4.0994792011	-4.2638327427	 0.124384
H	 1.5132239572	-3.1696719497	-0.0960972783	 0.104781
H	 3.3246589471	-1.2541467682	-1.7443124848	 0.062115
47.0145	96.4511	98.7487	117.2702	198.6181	224.0054	227.327	258.3891	275.443	365.6554	415.5254	465.4111	524.5593	571.6658	727.6602	836.0179	909.5767	944.9048	957.2181	1002.8827	1022.1718	1040.3294	1056.034	1103.6222	1149.4548	1155.8003	1175.1796	1184.9611	1192.7176	1227.1712	1256.7119	1273.0431	1340.0031	1371.2405	1417.4391	1420.8157	1441.1543	1458.9076	1481.5302	1486.2113	1497.983	1501.1923	1510.4591	1527.2278	1810.6156	2889.9133	2957.2009	2971.2945	2995.4203	3013.4233	3040.0631	3096.7651	3119.6215	3122.645	3140.0731	3151.7336	3173.5305
COCC1C(C)C1C=O	COC[C@H]1[C@@H](C)[C@H]1C=O	
InChI=1S/C7H12O2/c1-5-6(3-8)7(5)4-9-2/h3,5-7H,4H2,1-2H3	InChI=1S/C7H12O2/c1-5-6(3-8)7(5)4-9-2/h3,5-7H,4H2,1-2H3/t5-,6+,7-/m0/s1
