23
gdb 88459	2.56045	1.29764	1.2089	1.5709	85.34	-0.2445	0.0783	0.3228	1211.7802	0.205003	-388.269644	-388.26008	-388.259135	-388.303857	36.564	
C	 1.8499972865	 0.4110637612	-0.8533169022	-0.422426
C	 1.0551366747	-0.728392755	-0.2487434792	-0.001154
C	 1.7472933795	-1.9364763175	 0.3416205786	-0.313341
C	 0.977920759	-0.9998978524	 1.2381561445	-0.041698
C	 1.6688535701	-0.1668045162	 2.3017511723	 0.407116
C	 0.9255101718	 1.1350324799	 2.5755363321	-0.433914
C	 2.0868700601	-0.9676383237	 3.5683453918	-0.322392
C	 3.5264267869	-0.6135693225	 3.1587286997	-0.067667
O	 3.0721698826	 0.0998618038	 1.9915241101	-0.316998
H	 2.7600046617	 0.607964787	-0.2840546637	 0.15055
H	 2.1329437879	 0.173623778	-1.8853573273	 0.107467
H	 1.2608819151	 1.3352041632	-0.8815452694	 0.107687
H	 0.1335142032	-0.9471870548	-0.7839689607	 0.077231
H	 1.3494167549	-2.9263538676	 0.1453621945	 0.100633
H	 2.8290366686	-1.8836459992	 0.4078608699	 0.120494
H	 0.0131367228	-1.3609656449	 1.590604628	 0.078208
H	-0.1072671548	 0.930545882	 2.8791830161	 0.112274
H	 1.4149031817	 1.7015320981	 3.3733811415	 0.112024
H	 0.8998995119	 1.756757372	 1.6762303136	 0.129613
H	 1.7465456773	-0.547353046	 4.5165533298	 0.10369
H	 1.8432009676	-2.0304615538	 3.5323924901	 0.110077
H	 4.0732133692	 0.0424413727	 3.8470280878	 0.100974
H	 4.1692219318	-1.4619937343	 2.8951318419	 0.101551
76.4493	84.6047	162.9555	210.2222	220.533	249.0311	280.3462	338.1552	356.0241	388.588	494.3472	534.0098	664.1497	777.8208	786.0035	823.4603	851.7042	878.8234	892.3232	934.7696	950.6274	966.0945	996.0968	1029.9189	1046.0836	1065.6266	1080.7816	1118.7325	1151.9179	1162.0561	1171.4874	1200.3468	1210.4926	1215.6674	1234.5656	1257.3577	1276.14	1351.968	1390.2754	1405.5664	1410.6917	1425.9977	1479.6645	1486.4893	1488.2136	1493.6914	1507.0199	1509.9873	1530.4992	3016.0367	3027.53	3033.846	3054.4382	3076.6336	3078.209	3103.6728	3113.1624	3118.0492	3122.7584	3129.7408	3133.6685	3143.3778	3216.4502
CC1CC1C1(C)CCO1	C[C@H]1C[C@H]1[C@@]1(C)CCO1	
InChI=1S/C8H14O/c1-6-5-7(6)8(2)3-4-9-8/h6-7H,3-5H2,1-2H3	InChI=1S/C8H14O/c1-6-5-7(6)8(2)3-4-9-8/h6-7H,3-5H2,1-2H3/t6-,7+,8+/m0/s1
