15
gdb 127943	2.76833	1.40074	0.93568	2.8033	72.54	-0.2194	-0.0443	0.175	1184.3434	0.112733	-450.149517	-450.140787	-450.139843	-450.183586	29.822	
C	 0.0290512524	 1.4079809215	-0.0036478138	-0.338234
N	 0.0456983161	-0.0439799828	-0.0060577677	-0.36412
C	-1.0770904908	-0.6324637743	-0.0025709858	 0.525765
N	-2.3861037817	-0.1830540565	 0.0099372721	-0.33757
N	-3.319992921	-1.20127	-0.0330230313	-0.200112
C	-2.6260642286	-2.2852491799	-0.0228610155	 0.055875
N	-1.258548083	-2.0386887981	 0.0030902728	-0.179197
C	-0.2441470452	-2.9925816598	 0.0200417531	 0.172311
O	-0.4631871651	-4.1769461979	 0.0187672009	-0.298103
H	 1.0557284868	 1.7800323559	 0.0196784056	 0.133857
H	-0.450537234	 1.8261355885	-0.9035868105	 0.10852
H	-0.493260626	 1.8228296033	 0.8732898291	 0.110852
H	-2.6926002056	 0.7647427865	-0.110141955	 0.284144
H	-3.0235054994	-3.2860337731	-0.0319200936	 0.184611
H	 0.7485866149	-2.5196577033	 0.0344969997	 0.1414
88.5376	107.4119	117.7089	160.3516	211.0716	235.0096	236.5801	365.612	409.3085	612.2181	651.6509	711.4071	726.7833	833.6748	865.6819	942.1967	1051.4375	1056.453	1073.0482	1118.8805	1163.028	1193.2077	1239.4445	1285.9965	1382.2911	1406.7008	1418.684	1448.9414	1495.4826	1506.2987	1641.0483	1779.3231	1813.7649	2962.0337	3004.8259	3049.4373	3107.1771	3298.3607	3713.167
CN=C1NN=CN1C=O	CN=c1[nH]ncn1C=O	
InChI=1S/C4H6N4O/c1-5-4-7-6-2-8(4)3-9/h2-3H,1H3,(H,5,7)	InChI=1S/C4H6N4O/c1-5-4-7-6-2-8(4)3-9/h2-3H,1H3,(H,5,7)
