17
gdb 14408	3.34912	2.6056	2.07578	2.1838	66.87	-0.2215	0.0718	0.2933	723.6644	0.144712	-363.798188	-363.792114	-363.79117	-363.827849	25.593	
O	-0.0182831939	 1.4256474174	-0.0399557112	-0.483074
C	 0.0330282912	 0.0386980814	-0.0702578726	 0.395323
C	 0.4270589503	-0.8295996617	-1.2622085279	-0.248401
N	-0.3239070825	-1.9424300011	-0.5559461313	-0.154792
C	 0.5901854955	-2.1451365218	 0.6197386227	-0.154071
C	 0.4035789051	-0.769769493	 1.2716691788	-0.129173
C	-1.1170311507	-0.8239485918	 1.5791383701	-0.244647
C	-1.2399674878	-0.8330163784	 0.0562967884	-0.018477
H	 0.8566785228	 1.7626492964	 0.1808062431	 0.283059
H	-0.1053230289	-0.5339302997	-2.1705864455	 0.110115
H	 1.4735758297	-1.0520589366	-1.4954586121	 0.091388
H	 0.2466487302	-2.9727478222	 1.2471001132	 0.100352
H	 1.6026326108	-2.3684900974	 0.2744673957	 0.097459
H	 1.1309420221	-0.395898873	 1.9928994788	 0.061387
H	-1.4978658638	-1.6623787243	 2.1691654244	 0.096152
H	-1.4979532292	 0.1224721373	 1.9698517985	 0.114919
H	-2.1578053908	-0.6858195515	-0.5092790531	 0.082482
243.4422	269.9947	333.122	433.4099	459.5813	523.6273	595.8036	675.2264	690.3217	777.2554	839.6505	860.1942	907.9131	918.274	940.3791	947.6121	994.5425	1006.1246	1036.7935	1065.3198	1102.337	1119.7017	1155.4936	1171.4631	1178.1196	1214.7078	1229.8364	1239.1025	1252.1198	1286.8804	1298.7638	1325.0116	1376.2966	1484.4487	1502.686	1530.816	3041.1401	3053.5226	3058.616	3099.5788	3106.0684	3110.6043	3121.9692	3140.6908	3802.6263
OC12CN3CC1CC23	O[C@@]12CN3C[C@@H]1C[C@@H]23	
InChI=1S/C6H9NO/c8-6-3-7-2-4(6)1-5(6)7/h4-5,8H,1-3H2	InChI=1S/C6H9NO/c8-6-3-7-2-4(6)1-5(6)7/h4-5,8H,1-3H2/t4-,5-,6-/m0/s1
