18
gdb 83530	2.96073	1.76585	1.61178	0.9611	69.29	-0.2305	0.0795	0.31	902.6089	0.151053	-439.044064	-439.037498	-439.036554	-439.074527	27.99	
O	 0.0278925446	 1.4746354394	 0.0167421839	-0.466475
C	 0.0211994761	 0.0691377535	-0.0388331848	 0.142939
C	 0.4137352379	-0.609308252	 1.2850620297	 0.040329
O	-0.6033793482	-0.0702531067	 2.163961082	-0.306566
C	-1.8388714972	-0.1056825727	 1.3914900378	-0.085658
C	-1.3829448169	-0.5973174997	 0.0062844125	-0.054095
N	-1.1679189235	-2.0543803382	 0.2232381926	-0.106651
C	 0.0727879118	-2.6360933494	-0.311713957	-0.266141
C	 0.0704068125	-2.0731226879	 1.0649371407	-0.031193
H	-0.1548359618	 1.7142759919	 0.9344619935	 0.293682
H	 0.6211651727	-0.2093790721	-0.9026648229	 0.088207
H	 1.3894933668	-0.3755986098	 1.709646707	 0.087132
H	-2.54503524	-0.8031761872	 1.8493759329	 0.121914
H	-2.2722888041	 0.8988733156	 1.3669013376	 0.105793
H	-2.0660367614	-0.3883743466	-0.8164272344	 0.083059
H	 0.0128937036	-3.7159471989	-0.4116966287	 0.123993
H	 0.6236383797	-2.1558824047	-1.112320279	 0.12375
H	 0.0654228275	-2.7263666444	 1.9326198767	 0.10598
247.896	268.8665	322.6859	353.1669	379.8612	491.7939	521.0364	565.853	620.2341	738.8985	792.1322	796.6717	838.5513	877.1647	886.809	907.5343	961.1423	976.4867	1007.7598	1024.5294	1053.6265	1063.0523	1093.7017	1113.118	1124.1348	1162.8228	1184.2497	1228.1004	1240.5096	1250.564	1268.3287	1291.6964	1299.5043	1325.2745	1363.1285	1381.0494	1448.8528	1513.7608	1516.91	3049.2617	3103.0295	3121.5299	3126.2933	3129.9974	3139.6857	3153.3936	3209.4815	3770.3418
OC1C2OCC1N1CC21	O[C@H]1[C@H]2OC[C@@H]1N1C[C@@H]21	
InChI=1S/C6H9NO2/c8-5-4-2-9-6(5)3-1-7(3)4/h3-6,8H,1-2H2	InChI=1S/C6H9NO2/c8-5-4-2-9-6(5)3-1-7(3)4/h3-6,8H,1-2H2/t3-,4-,5+,6-,7?/m0/s1
