13
gdb 48234	2.42427	1.4134	0.97522	4.0265	63.93	-0.2733	-0.1098	0.1635	1133.3189	0.086575	-489.911799	-489.903094	-489.902149	-489.946058	29.434	
N	-0.0305818611	 1.2649606065	 0.9567074886	-0.442156
C	 0.0160652138	 0.1506499312	 0.3446532957	 0.243235
C	-1.3047837549	-0.346921726	-0.1972730951	 0.156334
O	-1.4319976298	-1.34524266	-0.8552408742	-0.242573
N	 1.1749600179	-0.6050228196	 0.0484975412	-0.174268
C	 1.1338403549	-2.0328348719	 0.1167149657	 0.172903
O	 1.9983148851	-2.750655783	-0.2847143584	-0.243833
C	 2.3402297996	 0.1053072204	-0.3474612614	 0.151324
O	 3.4313585838	-0.3608524895	-0.4776217962	-0.237773
H	 0.8767964893	 1.5606021923	 1.3209583273	 0.248618
H	-2.139796944	 0.3245314078	 0.0746170879	 0.135183
H	 0.218322301	-2.3822554363	 0.6147565477	 0.123322
H	 2.0975868346	 1.1690060181	-0.5297868589	 0.109685
52.2545	103.0861	158.1085	182.9362	217.0777	245.7373	279.2391	335.7636	437.4948	524.9053	571.3206	595.7144	684.5887	904.9053	930.6071	982.8388	1007.5674	1035.6534	1051.7086	1173.3352	1216.1805	1363.7527	1375.7885	1438.061	1466.9747	1691.7637	1813.2912	1824.1051	1887.5116	2957.1329	2983.6361	3034.6931	3474.4074
N=C(C=O)N(C=O)C=O	N=C(C=O)N(C=O)C=O	
InChI=1S/C4H4N2O3/c5-4(1-7)6(2-8)3-9/h1-3,5H	InChI=1S/C4H4N2O3/c5-4(1-7)6(2-8)3-9/h1-3,5H
