15
gdb 98818	3.10532	1.16229	0.96454	1.1149	63.73	-0.2697	-0.0473	0.2223	1218.9567	0.109856	-494.914645	-494.905693	-494.904749	-494.949842	30.171	
C	-0.4060152272	 1.3984580192	-0.1847848429	-0.242584
O	-0.3432774445	-0.0302298903	-0.3196167012	-0.228536
C	 0.6565801145	-0.4923169398	-1.0866190737	 0.425754
O	 1.4523058149	 0.184904951	-1.6790241334	-0.34712
C	 0.6685349324	-2.0133976232	-1.0451266853	-0.108916
O	 1.4403914485	-2.602221569	-2.0944412104	-0.26427
C	 2.4668578544	-3.1109553057	-1.216430239	-0.1819
C	 1.674648193	-2.5967262552	-0.0116372879	 0.336582
O	 1.7644329832	-2.6321869127	 1.1722803757	-0.251556
H	 0.5190085226	 1.7819739381	 0.2522870052	 0.147303
H	-0.5587103362	 1.86680722	-1.1599529767	 0.147347
H	-1.2517240692	 1.5959251411	 0.4729891351	 0.140914
H	-0.3507332695	-2.4077616878	-0.9728962546	 0.135206
H	 2.5879614845	-4.1988008187	-1.2791030513	 0.140713
H	 3.4354125185	-2.6181800169	-1.3673420798	 0.151063
41.7764	87.5193	95.8153	115.6073	193.1939	221.8078	320.5618	402.9097	426.648	491.3805	665.1365	717.716	756.6876	827.053	913.9059	985.776	1015.5432	1016.5388	1053.0666	1091.6275	1134.7847	1178.4264	1184.3992	1206.5527	1223.3537	1296.4894	1334.2358	1472.7302	1476.2196	1482.6864	1495.9816	1835.4229	1934.7916	3026.2335	3056.2063	3063.8749	3078.4854	3133.2182	3167.0471
COC(=O)C1OCC1=O	COC(=O)[C@H]1OCC1=O	
InChI=1S/C5H6O4/c1-8-5(7)4-3(6)2-9-4/h4H,2H2,1H3	InChI=1S/C5H6O4/c1-8-5(7)4-3(6)2-9-4/h4H,2H2,1H3/t4-/m0/s1
