20
gdb 96675	3.72511	0.76647	0.6461	2.0992	79.43	-0.243	-0.0112	0.2318	1756.008	0.165614	-440.3097	-440.298158	-440.297214	-440.350142	37.848	
C	-0.0998231671	 1.4335383409	 0.0222316844	-0.32291
N	-0.0563343227	-0.0186889783	 0.0273622109	-0.293319
C	 0.5363749354	-0.61049376	-0.9234720201	 0.411424
C	 1.2332164251	-0.0044884378	-2.1138216075	-0.492851
O	 0.6058409977	-1.962946537	-0.9627494696	-0.229489
C	-0.0104252085	-2.6544596324	 0.1037174878	-0.154579
C	 0.1962784877	-4.1530563152	-0.0781514159	 0.351153
C	-0.4936072098	-5.0120055902	 0.9683518687	-0.482649
O	 0.8503671178	-4.6187456702	-0.9771132939	-0.272787
H	 0.9020957771	 1.8850189761	 0.0607322247	 0.114267
H	-0.6060190244	 1.8376528503	-0.8663862613	 0.113807
H	-0.6507094548	 1.778434641	 0.9010316379	 0.124082
H	 2.0414674988	 0.6567400126	-1.7846831089	 0.143902
H	 1.6457958825	-0.7831729998	-2.7546948017	 0.151888
H	 0.533563272	 0.6063630458	-2.6936395723	 0.143617
H	 0.406544479	-2.3359042069	 1.0687663005	 0.134397
H	-1.0826638806	-2.4222222869	 0.1547687705	 0.130583
H	-0.2439663048	-4.677808702	 1.9812082734	 0.138406
H	-1.5817106552	-4.9293554364	 0.8636778626	 0.144321
H	-0.1976851051	-6.0532197235	 0.8372306097	 0.146735
17.4756	22.0633	47.4093	83.1952	94.4512	113.1329	181.9974	231.2554	283.437	297.8723	324.4908	475.2791	497.4439	579.6528	584.7532	635.104	811.6425	853.7994	869.7534	949.0892	1006.1136	1052.9114	1092.4777	1107.6344	1110.626	1114.3195	1166.6369	1190.9336	1250.0673	1312.5428	1376.3935	1384.4905	1402.2432	1443.6663	1461.7371	1474.7807	1476.1109	1481.643	1486.322	1487.7588	1510.3584	1743.1393	1834.3471	2985.9278	3018.3153	3034.2098	3037.5983	3044.9414	3046.413	3097.7654	3097.7769	3101.1584	3154.2197	3157.3119
CN=C(C)OCC(C)=O	CN=C(C)OCC(=O)C	
InChI=1S/C6H11NO2/c1-5(8)4-9-6(2)7-3/h4H2,1-3H3	InChI=1S/C6H11NO2/c1-5(8)4-9-6(2)7-3/h4H2,1-3H3
