19
gdb 54917	4.76298	0.84457	0.80297	2.6636	83.11	-0.2467	-0.0161	0.2305	1465.0801	0.156814	-385.869694	-385.860111	-385.859167	-385.904961	34.836	
C	-0.1549312208	 1.4814073244	-0.2771189432	-0.480757
C	 0.0836005308	 0.0091106505	 0.0032117011	 0.383889
O	 1.1995818977	-0.4538441914	 0.0937542565	-0.305049
C	-1.1588164621	-0.8566674216	 0.1246460403	-0.116158
C	-1.5154638785	-1.5219947274	-1.2523400901	-0.243791
C	-0.835560118	-2.8376839086	-0.7556642923	-0.139575
C	-0.8950604416	-2.2709616017	 0.7001226842	-0.242815
C	-1.4915139128	-4.0950472223	-1.043457387	 0.2969
C	-2.0597565804	-5.130318215	-1.2727620621	-0.442539
H	 0.7874364555	 1.9782953702	-0.5101792699	 0.142797
H	-0.8642847683	 1.6120310442	-1.1017290578	 0.138455
H	-0.6058946679	 1.9526558996	 0.6043965886	 0.14338
H	-1.972746427	-0.2825391469	 0.574160344	 0.080888
H	-2.5935846877	-1.6439454955	-1.3704036159	 0.119367
H	-1.1052595756	-1.0675656783	-2.1574373426	 0.112646
H	 0.2055500304	-2.8657844158	-1.0891604998	 0.122199
H	 0.0140467021	-2.3832870285	 1.2909383046	 0.126815
H	-1.7548702768	-2.6576068488	 1.249887223	 0.109947
H	-2.5507236488	-6.0489979772	-1.4779813416	 0.193401
47.2894	60.2009	126.0438	133.9859	189.378	237.7343	286.6453	354.1033	510.1083	513.1741	551.1261	591.9215	617.7852	631.6009	658.7142	744.055	824.8256	865.7649	924.4561	939.705	963.6676	1005.7693	1028.5705	1074.338	1098.5554	1099.4936	1180.6921	1186.3064	1212.1343	1256.4657	1259.48	1274.1863	1348.0628	1370.188	1386.0776	1462.0487	1463.5959	1474.8825	1488.0875	1800.7362	2233.1355	3034.1187	3065.398	3069.1664	3074.6573	3085.4561	3094.663	3128.5075	3148.9565	3152.077	3505.191
CC(=O)C1CC(C1)C#C	CC(=O)[C@H]1C[C@@H](C1)C#C	
InChI=1S/C8H10O/c1-3-7-4-8(5-7)6(2)9/h1,7-8H,4-5H2,2H3	InChI=1S/C8H10O/c1-3-7-4-8(5-7)6(2)9/h1,7-8H,4-5H2,2H3/t7-,8-
