25
gdb 96327	1.86772	1.5696	0.93392	1.0597	89.33	-0.2399	0.0818	0.3217	1371.5019	0.229715	-389.513048	-389.503264	-389.50232	-389.54737	37.858	
C	 0.0823227853	 1.5695966066	 0.1304615337	-0.394372
C	 0.0117111416	 0.0487195055	 0.0158833888	 0.13857
C	 0.6141406931	-0.4496093249	-1.3091807398	-0.18674
C	 0.184544848	-1.8574437741	-1.7781158294	-0.204046
C	-0.1721953889	-2.8731548943	-0.6760071448	-0.208328
C	 0.7428699668	-2.8775787259	 0.5582427686	-0.188111
C	 0.4286887552	-1.7703911701	 1.5793702577	 0.143866
C	 1.2061422334	-1.9570820903	 2.879325562	-0.395395
O	 0.7413125271	-0.4616771358	 1.1292940128	-0.272356
H	 1.1189566256	 1.9094745801	 0.036371627	 0.120919
H	-0.5108687238	 2.0476315148	-0.6548091006	 0.10837
H	-0.2949266518	 1.894463369	 1.1035567422	 0.116397
H	-1.0428880038	-0.2641541503	 0.097020055	 0.060676
H	 0.3803260304	 0.2687276427	-2.1035754802	 0.089409
H	 1.7011904479	-0.410525228	-1.1731739802	 0.104301
H	-0.6824446443	-1.7697186009	-2.444082679	 0.094173
H	 0.989768722	-2.2700054708	-2.3980169294	 0.096558
H	-1.2019697527	-2.700854202	-0.3359363111	 0.093999
H	-0.1782114455	-3.8719113128	-1.1277672314	 0.090793
H	 0.6276126615	-3.8369286091	 1.0778620734	 0.091248
H	 1.7986726382	-2.8064519749	 0.2657384385	 0.095942
H	-0.6537542922	-1.8202023333	 1.8008179217	 0.056922
H	 2.2834610507	-1.9335204193	 2.6860903686	 0.119713
H	 0.96949776	-1.1520245275	 3.5797204141	 0.118883
H	 0.9584489062	-2.9141465045	 3.3476117118	 0.108607
72.2744	115.6807	172.824	217.1501	222.1287	249.9929	278.9876	338.5189	355.479	369.2178	467.1235	472.2083	525.0364	568.0755	748.6825	783.2508	825.4647	843.4921	900.8356	929.6085	932.8393	977.3418	1017.62	1032.3985	1046.5202	1098.4502	1115.1039	1126.6684	1145.6941	1164.7208	1178.6667	1226.9767	1235.6625	1271.9622	1298.6901	1332.4244	1336.9073	1354.6234	1381.9936	1390.1716	1392.5963	1401.5989	1404.9528	1406.988	1420.5436	1471.7746	1476.5207	1484.6359	1486.4019	1492.0049	1499.2561	1502.354	1503.7271	2925.3114	2959.8255	3015.2904	3018.3915	3020.9723	3033.1078	3040.4641	3041.911	3045.7432	3060.1253	3061.2596	3076.2679	3111.6687	3113.4839	3121.5762	3122.8763
CC1CCCCC(C)O1	C[C@H]1CCCC[C@@H](C)O1	
InChI=1S/C8H16O/c1-7-5-3-4-6-8(2)9-7/h7-8H,3-6H2,1-2H3	InChI=1S/C8H16O/c1-7-5-3-4-6-8(2)9-7/h7-8H,3-6H2,1-2H3/t7-,8+
