14
gdb 131065	3.97383	1.07521	0.90476	4.0223	63.3	-0.275	-0.0466	0.2283	1206.4086	0.101609	-469.986304	-469.978472	-469.977528	-470.019968	27.26	
O	 0.8818279509	 0.8040978538	 1.3777476384	-0.324909
C	 0.4058523368	 1.3706490433	 0.4145229259	 0.161016
N	 1.0708664443	 1.5867276908	-0.7503167178	-0.26526
C	 2.452459305	 1.1565103032	-0.9268914706	-0.293341
C	 3.4487078377	 2.0859618548	-0.2957985719	 0.337352
N	 4.2908939922	 2.789920244	-1.003677453	-0.145139
O	 5.029293781	 3.5055759151	-0.1060168873	-0.147738
N	 4.6385851075	 3.2444803273	 1.1802320779	-0.060294
C	 3.6722335704	 2.3765602493	 1.0826280937	-0.103902
H	-0.629551322	 1.7592959469	 0.3877214688	 0.095059
H	 0.6420701836	 2.1572212931	-1.4613577016	 0.262897
H	 2.5477252726	 0.1640906144	-0.4776583154	 0.160298
H	 2.6641349064	 1.0785432885	-1.9944817772	 0.145065
H	 3.1578995936	 1.9834012254	 1.94496264	 0.178897
51.7396	79.5779	132.6974	225.5165	267.5881	331.333	433.0193	497.5645	651.6066	668.8073	735.5222	800.0913	883.0123	930.3582	935.5351	959.6515	1008.6241	1025.6945	1034.4854	1077.8449	1180.618	1212.7955	1288.4257	1386.3974	1423.1814	1429.7426	1459.4335	1468.2801	1519.438	1613.1614	1793.0112	2961.5366	3073.9349	3134.2149	3284.9193	3641.6741
O=CNCC1=NON=C1	O=CNCc1nonc1	
InChI=1S/C4H5N3O2/c8-3-5-1-4-2-6-9-7-4/h2-3H,1H2,(H,5,8)	InChI=1S/C4H5N3O2/c8-3-5-1-4-2-6-9-7-4/h2-3H,1H2,(H,5,8)
