16
gdb 122047	2.53436	0.90826	0.69567	2.2653	67.07	-0.2839	-0.0663	0.2176	1538.0447	0.120751	-475.011694	-475.001611	-475.000666	-475.049022	33.363	
O	-0.0338299272	 1.3668375007	 0.2807859779	-0.414943
C	 0.0859311884	 0.0301900495	-0.1589420382	-0.065786
C	-1.2519318417	-0.6894455491	-0.1643332282	-0.088615
O	-2.0841326352	-0.0004553184	-1.1040920058	-0.261658
C	-3.4158114754	-0.4338973423	-1.1490127433	-0.08612
C	-4.1690124069	 0.5601727156	-2.0631349369	 0.150065
O	-5.346456769	 0.7543463037	-1.9937500826	-0.212544
C	-3.5439810959	-1.8000278632	-1.697340142	 0.268459
N	-3.6213035252	-2.864986275	-2.1391861836	-0.307383
H	-0.6717261082	 1.7935934431	-0.3014280832	 0.289776
H	 0.5303259923	-0.0319102816	-1.1643061791	 0.105529
H	 0.7607720888	-0.4773282597	 0.5374160071	 0.122459
H	-1.1356387986	-1.7413680444	-0.4592853946	 0.123708
H	-1.7108687818	-0.6460465889	 0.8338167505	 0.112917
H	-3.8974547327	-0.4134114427	-0.1596955122	 0.145536
H	-3.4947124017	 1.0764488929	-2.7764367857	 0.118599
32.4524	45.8477	68.7416	124.6688	141.3303	188.1607	253.8648	296.49	364.7264	388.772	451.3112	514.9973	530.6333	656.261	846.3766	873.3982	909.4954	1015.257	1039.0686	1074.4833	1088.6451	1132.2335	1147.0708	1231.0234	1263.6177	1274.0415	1327.3285	1384.6034	1391.5683	1413.504	1436.3408	1494.5444	1504.1773	1858.3602	2351.9183	2936.2861	2992.0987	3000.4515	3005.3761	3052.182	3088.5897	3813.3963
OCCOC(C=O)C#N	OCCO[C@@H](C=O)C#N	
InChI=1S/C5H7NO3/c6-3-5(4-8)9-2-1-7/h4-5,7H,1-2H2	InChI=1S/C5H7NO3/c6-3-5(4-8)9-2-1-7/h4-5,7H,1-2H2/t5-/m1/s1
