14
gdb 23925	3.61457	1.66054	1.52635	1.3451	49.89	-0.2395	0.0774	0.3169	840.5554	0.104952	-510.208554	-510.201404	-510.20046	-510.240575	25.999	
F	-0.3371272474	-0.0396348018	 0.1768352672	-0.085849
C	-0.0925738108	 1.281686779	 0.1048145384	 0.260341
F	 1.240849947	 1.4382194649	 0.1826412463	-0.08364
F	-0.4828698278	 1.6991597733	-1.1079974253	-0.073663
C	-0.7901639998	 2.0605437107	 1.2071912169	-0.093322
C	-2.2572524533	 1.6196229466	 1.449966674	-0.246914
C	-1.7183797536	 0.8624788855	 2.691761279	-0.153691
N	-0.4516211889	 1.6298628142	 2.5742070127	-0.313371
H	-0.605722704	 3.1217506747	 1.0050335061	 0.10132
H	-2.9051821165	 2.4601390313	 1.6989415946	 0.120884
H	-2.7211893562	 1.0217515172	 0.6659986444	 0.12424
H	-2.2435446924	 1.0231928935	 3.638108941	 0.106779
H	-1.6172926218	-0.2146449942	 2.5178034694	 0.108912
H	 0.4122607557	 1.1071956951	 2.6700281353	 0.227975
63.1164	149.77	197.3477	258.8587	353.9902	415.329	526.85	575.4604	621.873	695.6215	760.6058	811.9091	916.5366	944.759	981.6896	1013.6273	1072.9168	1099.7135	1160.5277	1171.9127	1192.3009	1215.4281	1252.8408	1265.3728	1290.4612	1331.2254	1358.0304	1422.3859	1482.1944	1522.1957	3032.015	3047.0189	3078.2335	3097.0694	3154.0726	3535.41
FC(F)(F)C1CCN1	FC(F)(F)[C@H]1CCN1	
InChI=1S/C4H6F3N/c5-4(6,7)3-1-2-8-3/h3,8H,1-2H2	InChI=1S/C4H6F3N/c5-4(6,7)3-1-2-8-3/h3,8H,1-2H2/t3-/m1/s1
