14
gdb 53854	4.21907	0.8256	0.69642	4.1067	64.84	-0.2713	-0.0898	0.1815	1512.6316	0.097425	-473.867818	-473.858245	-473.857301	-473.904657	31.396	
C	-0.0074543731	 1.4453828381	 0.008755351	-0.473883
C	 0.0378736728	-0.0603414538	 0.0017666179	 0.288915
O	 1.0385975232	-0.7257796561	-0.0111708061	-0.250682
C	-1.3573868422	-0.7340804475	 0.0116315585	 0.363951
O	-2.3954172313	-0.1233097964	 0.0243723691	-0.335721
O	-1.260885011	-2.0724290714	 0.0036797971	-0.210085
C	-2.5254357619	-2.7485739961	 0.0119951449	-0.206292
C	-2.2746307953	-4.1870723263	 0.0010123128	 0.276097
N	-2.1230489316	-5.3311257689	-0.0072503163	-0.281668
H	 1.0084188718	 1.839786194	 0.0005980947	 0.150981
H	-0.5661872817	 1.8088495552	-0.8597602848	 0.161487
H	-0.5491386627	 1.8011780033	 0.8911364493	 0.161468
H	-3.0977293963	-2.4690365293	 0.9023829123	 0.177706
H	-3.1149807407	-2.4585277648	-0.8636482004	 0.177727
18.8921	51.8069	101.439	119.6879	144.2022	225.1011	295.1697	345.7847	374.3338	434.9317	488.3847	567.6498	610.8953	719.6489	847.4976	954.5435	985.3471	1013.7921	1037.0035	1039.5828	1157.8197	1250.4348	1296.5691	1386.5386	1396.6228	1452.5661	1460.5066	1479.447	1809.5484	1835.5331	2379.3766	3049.4995	3058.4832	3099.2089	3110.5782	3166.2715
CC(=O)C(=O)OCC#N	CC(=O)C(=O)OCC#N	
InChI=1S/C5H5NO3/c1-4(7)5(8)9-3-2-6/h3H2,1H3	InChI=1S/C5H5NO3/c1-4(7)5(8)9-3-2-6/h3H2,1H3
