20
gdb 112650	2.21706	1.49402	0.99615	1.9698	77.17	-0.248	0.0281	0.2761	1257.8628	0.169743	-440.314605	-440.304968	-440.304024	-440.349258	34.658	
C	 0.0037286124	 1.4230542541	-0.0823558538	-0.243845
O	 0.0109776826	 0.0162657052	 0.0927380481	-0.224773
C	-1.2355790411	-0.5775796727	-0.0303633849	 0.183409
O	-1.7029761478	-0.4981246542	-1.3945035219	-0.264287
C	-1.555544031	-1.7591993522	-1.9136042384	 0.395505
C	-1.7948198743	-1.8657785771	-3.3797757076	-0.478645
N	-1.2508947042	-2.7009812906	-1.1203129676	-0.311003
C	-1.1523371797	-2.106574587	 0.2243648594	-0.011057
C	 0.0918436409	-2.5766725253	 0.9718174384	-0.384156
H	 1.0211103439	 1.7720420895	 0.1048837159	 0.131641
H	-0.2949701359	 1.6986528781	-1.1001727463	 0.128756
H	-0.6797620036	 1.90789161	 0.6306330491	 0.109299
H	-1.9774619774	-0.0490923501	 0.5831267806	 0.073427
H	-2.8048612326	-1.5219592106	-3.6247791238	 0.14354
H	-1.0928774264	-1.2276861897	-3.925905604	 0.143857
H	-1.6738474407	-2.9009755437	-3.6970668765	 0.151705
H	-2.0432605415	-2.4135251603	 0.7883072996	 0.088504
H	 0.9974770575	-2.2923768105	 0.4334133369	 0.133202
H	 0.1362869745	-2.1398615386	 1.9736116366	 0.112228
H	 0.0649901845	-3.6651130643	 1.0648605604	 0.122692
74.6198	113.7101	140.6179	167.6266	184.7276	215.4024	229.5261	285.4826	352.0177	415.7669	502.943	530.6203	620.1235	684.4784	755.5368	880.2521	905.515	943.0759	956.5129	985.7054	1029.3204	1066.692	1090.1765	1122.1396	1144.9548	1162.6053	1180.2565	1218.7336	1271.4862	1317.8452	1350.2363	1362.6482	1396.7303	1412.0111	1413.7153	1475.308	1476.7242	1480.3296	1485.0725	1486.5882	1495.5239	1511.1854	1746.9597	2994.6281	3007.8566	3025.5256	3049.3749	3052.9647	3068.8319	3106.4103	3123.6284	3129.7145	3143.316	3164.6078
COC1OC(C)=NC1C	CO[C@H]1O[C](C)[N][C@H]1C	
InChI=1S/C6H11NO2/c1-4-6(8-3)9-5(2)7-4/h4,6H,1-3H3	InChI=1S/C6H11NO2/c1-4-6(8-3)9-5(2)7-4/h4,6H,1-3H3/t4-,6-/m0/s1
