20
gdb 59618	3.00879	1.08303	0.95756	3.1404	75.84	-0.245	0.0252	0.2702	1304.9206	0.17174	-440.340261	-440.331205	-440.330261	-440.374184	34.286	
C	 0.0829235447	 1.5655964777	-0.1141053883	-0.409502
C	 0.0327936404	 0.043812188	 0.0477360237	 0.128117
O	 0.7736308257	-0.3804938396	 1.1807381067	-0.430769
C	-1.4067034751	-0.5048048193	 0.0955027103	 0.017247
C	-1.4658825111	-2.0504375939	 0.1790565497	-0.236653
C	-2.6845957145	-2.3552629722	 1.0627517343	-0.337852
C	-2.9156866454	-1.074110109	 1.8657043029	 0.399274
O	-3.6810149637	-0.9034267277	 2.7858434456	-0.368071
N	-2.0914329996	-0.1076110399	 1.3229625202	-0.323724
H	 1.1220445592	 1.9005774971	-0.1582140088	 0.132997
H	-0.4260822722	 1.8863665132	-1.0293994755	 0.115228
H	-0.390583414	 2.0716013182	 0.7356030726	 0.107484
H	 0.5284407655	-0.4189537429	-0.8150093831	 0.091909
H	 0.2310116959	-0.1816896632	 1.9549483513	 0.281723
H	-1.9478529847	-0.140689996	-0.791054432	 0.075832
H	-1.5239992701	-2.5019845063	-0.8131998701	 0.107596
H	-0.5482802481	-2.3989611917	 0.6596668211	 0.132413
H	-3.5919988201	-2.5368780025	 0.475291447	 0.131727
H	-2.5576411829	-3.2099218259	 1.7298191309	 0.134393
H	-2.2947927398	 0.857453686	 1.5376393414	 0.250631
83.2167	95.5765	138.6921	203.5319	244.8674	275.9532	343.3006	398.6566	457.2458	497.064	525.6764	586.8137	606.4315	634.4135	712.3927	827.8181	838.4375	893.7717	916.2279	978.2064	998.6031	1017.5981	1046.7333	1091.4913	1103.5041	1141.2381	1183.3152	1228.3562	1258.2284	1278.9338	1296.092	1318.1928	1334.2189	1373.8665	1391.2642	1403.0394	1418.7617	1429.8456	1469.0108	1488.9811	1498.9233	1501.544	1836.2451	2983.1083	3029.7276	3035.7712	3053.2744	3072.5948	3096.6928	3113.491	3123.3559	3126.0569	3619.5067	3765.4688
CC(O)C1CCC(=O)N1	C[C@@H](O)[C@H]1CCC(=O)N1	
InChI=1S/C6H11NO2/c1-4(8)5-2-3-6(9)7-5/h4-5,8H,2-3H2,1H3,(H,7,9)	InChI=1S/C6H11NO2/c1-4(8)5-2-3-6(9)7-5/h4-5,8H,2-3H2,1H3,(H,7,9)/t4-,5-/m1/s1
