19
gdb 14863	3.4212	1.31783	1.02425	2.8744	73.58	-0.2264	-0.0276	0.1988	1172.3435	0.164177	-365.049089	-365.040373	-365.039429	-365.082965	30.97	
C	-0.0676229261	 1.6291267919	-0.0349704666	-0.383864
C	 0.0717308267	 0.1158668725	 0.1123987636	-0.125039
N	-1.2232029893	-0.5397325396	 0.1374704873	-0.077063
C	-2.0927013108	-0.3830864529	 1.3212405623	-0.159971
C	-2.5368051019	-1.8534959149	 1.145199207	-0.259112
C	-1.2702599466	-2.0070623979	 0.2467445845	-0.038779
C	-1.4686750664	-2.7378371846	-1.0616163094	 0.154228
O	-1.0592876285	-3.8447286292	-1.2995482818	-0.247042
H	 0.9166535962	 2.1052829732	-0.0694070458	 0.117206
H	-0.610223502	 1.8787721217	-0.9512280233	 0.126282
H	-0.6151114703	 2.0594755288	 0.810331064	 0.120091
H	 0.6346881154	-0.2911142889	-0.7367233369	 0.106441
H	 0.6585380446	-0.1180042745	 1.0228223935	 0.076972
H	-1.5271344235	-0.2311613349	 2.2555098584	 0.089497
H	-2.8555188183	 0.3975561584	 1.2402259541	 0.107064
H	-2.5792496676	-2.4848609663	 2.0315418826	 0.120988
H	-3.4656487802	-1.9514954268	 0.5789635814	 0.118734
H	-0.4280369473	-2.4566952149	 0.79473735	 0.076872
H	-2.068298664	-2.1550358711	-1.798899455	 0.076494
62.0646	92.6448	132.5213	181.4688	209.7416	253.2681	317.5551	386.0224	412.859	517.7206	655.0457	775.4571	811.6413	871.45	908.5369	954.6468	964.6523	1000.5943	1051.4693	1073.6506	1119.6112	1140.9365	1155.129	1197.1914	1217.8834	1230.0267	1250.3161	1268.2954	1304.0702	1313.2542	1344.9093	1393.1175	1404.6755	1416.8423	1484.2026	1489.3936	1492.3696	1509.7158	1525.9456	1831.2211	2870.2645	2907.6176	2966.5686	2991.5272	3038.6558	3043.6616	3064.465	3083.3211	3106.6829	3119.8286	3150.4652
CCN1CCC1C=O	CCN1CC[C@H]1C=O	
InChI=1S/C6H11NO/c1-2-7-4-3-6(7)5-8/h5-6H,2-4H2,1H3	InChI=1S/C6H11NO/c1-2-7-4-3-6(7)5-8/h5-6H,2-4H2,1H3/t6-/m0/s1
