18
gdb 91151	2.54066	1.74728	1.15407	3.6586	78.83	-0.2108	-0.0471	0.1637	1070.6395	0.14869	-401.951522	-401.943736	-401.942791	-401.983855	29.724	
C	 0.0217806847	 1.5567253764	 0.1273923009	-0.328426
N	 0.0118458634	 0.1126269907	 0.1511719505	-0.064904
C	-1.256452916	-0.6017326698	 0.3631945691	-0.17907
C	-0.5112668966	-1.6012945612	 1.2988414102	-0.105081
C	 0.0802542973	-2.8306434079	 0.6632074243	-0.059835
C	 1.3904732563	-2.7148739581	 0.4076159772	-0.177384
C	 1.8960306012	-1.3772734043	 0.8164451569	 0.412496
O	 3.0318717074	-0.9687836581	 0.7616103896	-0.337214
C	 0.660915159	-0.5931562982	 1.2857186367	-0.110257
H	 1.0535108032	 1.9142410182	 0.057898984	 0.13888
H	-0.5185639711	 1.914487847	-0.7555254876	 0.123022
H	-0.4436895849	 2.0131626215	 1.0220957457	 0.089354
H	-2.0024624705	-0.0155955639	 0.9230699656	 0.090679
H	-1.7230836946	-0.9952793949	-0.547105567	 0.104456
H	-1.012266149	-1.8144634019	 2.2447527613	 0.093944
H	-0.5204065687	-3.7082645042	 0.4447946049	 0.11484
H	 2.0324556296	-3.4622522248	-0.0414388875	 0.116494
H	 0.8380645394	 0.0155217635	 2.1798500851	 0.078005
100.0582	138.6445	212.108	242.8528	279.0852	327.2389	398.6844	477.1141	578.2816	673.9194	711.7135	783.869	806.6758	856.1112	869.7371	912.5955	944.9459	989.4377	1001.2394	1016.5493	1076.295	1104.8625	1132.0506	1167.2335	1180.9516	1194.7887	1212.4154	1234.2582	1258.005	1299.0927	1317.6787	1329.838	1368.9574	1451.0215	1488.6732	1499.0489	1515.5415	1637.9915	1819.3231	2923.0837	2973.6399	3043.1668	3051.6135	3061.0107	3094.1305	3107.353	3180.7679	3223.6089
CN1CC2C=CC(=O)C12	CN1C[C@H]2C=CC(=O)[C@@H]12	
InChI=1S/C7H9NO/c1-8-4-5-2-3-6(9)7(5)8/h2-3,5,7H,4H2,1H3	InChI=1S/C7H9NO/c1-8-4-5-2-3-6(9)7(5)8/h2-3,5,7H,4H2,1H3/t5-,7+/m1/s1
