14
gdb 130674	5.39784	1.06135	0.93058	5.9077	64.84	-0.2461	0.0057	0.2518	1189.8901	0.102037	-469.994243	-469.986904	-469.98596	-470.026627	27.011	
O	 0.0040245617	 0.077204123	 0.1298429192	-0.390554
C	-0.0576243208	 1.2702545961	 0.0642367719	 0.515964
N	-1.1281805809	 2.0874181529	-0.2757675458	-0.436877
C	-0.7020000412	 3.3884349849	-0.2268696093	 0.493968
N	 0.536309822	 3.4868938461	 0.1392084697	-0.198614
O	 0.9661506621	 2.140712945	 0.3260241197	-0.233886
N	-1.5236313758	 4.4340068718	-0.6010190497	-0.176681
C	-2.4015784757	 5.0427974623	 0.4196877073	-0.237728
C	-1.2046089706	 5.7655917997	-0.0870601364	-0.215034
H	-2.0165586724	 1.7508629372	-0.6043545923	 0.289739
H	-3.3931155318	 5.3021275314	 0.064319119	 0.139536
H	-2.3529265772	 4.6356023909	 1.4256640231	 0.144837
H	-0.3462804054	 5.8467825416	 0.5712885998	 0.165419
H	-1.3214789038	 6.5634840969	-0.812313486	 0.139912
71.693	126.7132	192.8116	241.0327	394.6075	425.3076	465.5822	550.7488	599.2705	717.4423	746.1704	778.0974	822.0996	881.1541	903.7068	934.5855	971.6487	1039.0282	1048.0838	1118.2493	1143.8341	1171.1515	1181.717	1207.1037	1240.207	1339.7663	1490.3734	1514.1666	1516.2948	1648.9581	1907.6596	3123.5837	3136.892	3216.5135	3233.7259	3688.899
O=C1NC(=NO1)N1CC1	O=c1[nH]c(no1)N1CC1	
InChI=1S/C4H5N3O2/c8-4-5-3(6-9-4)7-1-2-7/h1-2H2,(H,5,6,8)	InChI=1S/C4H5N3O2/c8-4-5-3(6-9-4)7-1-2-7/h1-2H2,(H,5,6,8)
