21
gdb 101027	2.79668	1.07113	0.85775	0.5752	74.36	-0.2647	0.0683	0.333	1401.1671	0.18082	-461.339321	-461.329332	-461.328387	-461.374246	37.26	
C	 0.2022136522	 1.5615483529	 0.1655467545	-0.385385
C	 0.0684096423	 0.0405202772	 0.059597786	-0.195825
C	 0.5863315226	-0.5019280641	-1.2838022102	 0.048678
O	 1.9149041184	-0.0690845736	-1.5301062714	-0.432065
C	 0.5172507373	-2.0305177757	-1.3887983317	 0.338327
C	-0.7729034766	-2.7389955181	-0.9925378414	-0.145434
O	-0.6425622996	-4.1432259149	-1.0454805096	-0.416353
C	 1.4391243502	-2.7172066819	-2.2983997881	-0.226315
O	 1.6940890818	-2.6914832008	-0.871852543	-0.305188
H	 1.2418846804	 1.8670391763	 0.0298442626	 0.134251
H	-0.394976997	 2.0633890433	-0.6042018815	 0.113235
H	-0.1424410289	 1.917986612	 1.14060756	 0.110024
H	 0.6247090482	-0.4454864422	 0.8726012681	 0.100364
H	-0.9826226001	-0.2444650631	 0.1863869251	 0.100568
H	-0.021258838	-0.0769178915	-2.0946474065	 0.093246
H	 2.4784826852	-0.6518600269	-1.0017870771	 0.289366
H	-1.0767072456	-2.4113961632	 0.0122441901	 0.101649
H	-1.5751170938	-2.4606015398	-1.6856214693	 0.119411
H	 0.1610550556	-4.3494160032	-0.5504453043	 0.292852
H	 1.1631710767	-3.6936917129	-2.6846610095	 0.13235
H	 2.1339608887	-2.1279746899	-2.8884322327	 0.132246
68.9215	93.61	133.8201	170.1045	215.1908	253.0235	294.381	323.1424	359.8106	384.3095	429.0695	490.4971	507.6208	520.2312	654.0086	724.0947	788.535	851.645	862.2517	920.3182	965.2287	993.4111	1038.4539	1075.339	1081.5398	1116.757	1136.2367	1142.0283	1180.4558	1193.5763	1245.4251	1268.4663	1299.7196	1340.1073	1370.5848	1381.7155	1405.9156	1411.2899	1435.1524	1438.321	1482.1449	1494.6563	1502.3768	1508.2578	1509.421	2998.8564	3014.9955	3024.0825	3038.4578	3064.5017	3066.9308	3102.6773	3123.5207	3132.119	3223.4652	3746.7302	3773.0931
CCC(O)C1(CO)CO1	CC[C@@H](O)[C@@]1(CO)CO1	
InChI=1S/C6H12O3/c1-2-5(8)6(3-7)4-9-6/h5,7-8H,2-4H2,1H3	InChI=1S/C6H12O3/c1-2-5(8)6(3-7)4-9-6/h5,7-8H,2-4H2,1H3/t5-,6-/m1/s1
