25
gdb 100971	2.29023	1.0725	0.96958	1.3754	89.14	-0.2538	0.0701	0.3239	1447.5078	0.226213	-389.488879	-389.477509	-389.476565	-389.52515	42.098	
C	 0.1347619109	 1.6170376632	 0.0043636442	-0.382886
C	 0.1988016429	 0.0883974306	-0.0475944038	-0.195459
C	 0.5811688894	-0.5354616817	 1.3034289017	 0.063743
O	-0.3644264365	-0.1916741681	 2.320603791	-0.443053
C	 0.8118684467	-2.04334375	 1.2377436426	 0.364276
C	-0.3703106543	-2.8684004409	 0.7559420227	-0.484945
C	 2.1968164336	-2.5257240145	 0.8590068624	-0.339891
C	 1.7049929913	-2.6872569404	 2.2794113655	-0.036497
C	 2.3342131695	-1.9368192305	 3.434417319	-0.410556
H	 1.1166698767	 2.0447739784	 0.2361991268	 0.112249
H	-0.1934996463	 2.0345504722	-0.9523210403	 0.106408
H	-0.5600916123	 1.9452560949	 0.7819632587	 0.126978
H	-0.7746441068	-0.3079395068	-0.3673317451	 0.087509
H	 0.9244292844	-0.2381525166	-0.8026533133	 0.099646
H	 1.5085243415	-0.057955732	 1.6370708595	 0.077188
H	-1.2213304964	-0.5415328109	 2.0542452414	 0.276201
H	-0.6503151134	-2.6277738549	-0.2752187635	 0.118767
H	-0.1351403367	-3.9362979933	 0.7894246025	 0.117216
H	-1.2534768879	-2.7176584827	 1.3897242827	 0.105098
H	 2.2844812614	-3.4020717016	 0.2246412562	 0.103111
H	 2.962317358	-1.7755483736	 0.6802512033	 0.10394
H	 1.4025487219	-3.6981439466	 2.5451063692	 0.076737
H	 2.7710290931	-0.984349181	 3.122634228	 0.115957
H	 1.5973531564	-1.7213060569	 4.2146913755	 0.128279
H	 3.1403947129	-2.5299331363	 3.879952173	 0.109984
47.8202	103.1913	123.0673	181.2183	186.3238	205.5252	233.148	249.7148	254.542	270.302	312.9816	372.8477	428.0256	450.0519	510.9205	545.9375	744.2612	778.5962	790.4412	870.874	877.8581	930.3004	935.0934	980.6627	989.2523	1026.8398	1048.6511	1061.2737	1100.9288	1103.9475	1121.664	1134.8813	1137.0307	1189.4838	1234.624	1267.2855	1314.345	1328.519	1338.9339	1387.4305	1404.1743	1410.25	1415.3745	1418.816	1434.334	1481.6559	1489.7728	1494.9661	1496.3758	1499.1229	1499.869	1506.0951	1509.2983	3013.0247	3020.235	3034.6314	3035.8424	3048.1997	3061.5582	3079.7902	3095.1971	3100.0973	3101.8569	3107.3207	3116.6136	3120.1272	3126.6191	3198.9132	3806.925
CCC(O)C1(C)CC1C	CC[C@@H](O)[C@@]1(C)C[C@H]1C	
InChI=1S/C8H16O/c1-4-7(9)8(3)5-6(8)2/h6-7,9H,4-5H2,1-3H3	InChI=1S/C8H16O/c1-4-7(9)8(3)5-6(8)2/h6-7,9H,4-5H2,1-3H3/t6-,7-,8+/m1/s1
