18
gdb 113240	4.54447	0.79255	0.7534	3.4958	72.86	-0.2768	0.023	0.2998	1503.8032	0.145218	-439.078091	-439.068243	-439.067298	-439.113597	34.872	
C	-0.0353249768	 1.6924591798	 0.0597850805	-0.474541
C	-0.1480978244	 0.1947898442	 0.2378825979	 0.375802
C	-1.3897579114	-0.4401298554	-0.3984036409	-0.400988
C	-1.4944139346	-0.1666634784	-1.8319118658	 0.274189
N	-1.5730673021	 0.0648428219	-2.9610438539	-0.307278
O	 1.0453417236	-0.5687886121	 0.0399963272	-0.290822
C	 0.4628437763	-0.5457303213	 1.3576208925	-0.022911
C	 1.3206039767	 0.0482788851	 2.4481484063	-0.094995
O	 2.3605958333	-0.8448890367	 2.8060993984	-0.411893
H	 0.8980270143	 2.073463704	 0.4737640519	 0.138023
H	-0.0629617717	 1.9446553987	-1.004677776	 0.158666
H	-0.8712330175	 2.2040564408	 0.5487850449	 0.12831
H	-1.3616706523	-1.5233451	-0.2488642993	 0.162324
H	-2.2937744241	-0.0619100053	 0.0937691259	 0.156233
H	 0.004261984	-1.4950992074	 1.6435425391	 0.097667
H	 1.7166602708	 1.0256586107	 2.1442257686	 0.09859
H	 0.7181434936	 0.1947154098	 3.3514878888	 0.117686
H	 2.8869955124	-0.9971880683	 2.0129560741	 0.295938
46.9678	68.4546	123.7246	145.9986	193.9747	228.322	307.1694	358.9804	387.4676	400.2462	405.3345	443.9733	493.4404	644.6441	728.1367	824.6261	878.403	921.8156	924.7993	969.379	1030.4082	1060.4126	1106.1175	1116.9464	1127.3235	1209.8906	1223.1608	1262.4026	1314.985	1350.2783	1383.1066	1419.1641	1421.7496	1449.0043	1466.326	1491.3762	1494.4184	1512.6569	2364.0803	3021.7941	3044.6881	3048.1841	3073.0897	3091.098	3099.5644	3109.7551	3153.0439	3802.4151
CC1(CC#N)OC1CO	C[C@@]1(CC#N)O[C@H]1CO	
InChI=1S/C6H9NO2/c1-6(2-3-7)5(4-8)9-6/h5,8H,2,4H2,1H3	InChI=1S/C6H9NO2/c1-6(2-3-7)5(4-8)9-6/h5,8H,2,4H2,1H3/t5-,6-/m0/s1
