18
gdb 48864	3.71625	1.40526	1.36727	1.9646	75.01	-0.2456	-0.0267	0.219	987.7232	0.150201	-401.954617	-401.947728	-401.946783	-401.986042	27.708	
O	-0.0655627478	 0.0133284347	 0.0662531537	-0.253398
C	 0.0392666059	 1.2091477377	-0.0598666137	 0.057662
C	 1.3273845331	 1.9598843269	-0.0590882943	 0.174216
C	 2.6524399523	 1.1747311054	-0.0324637933	-0.260514
C	 3.5662041878	 2.3918363368	 0.0320395979	-0.040834
C	 2.8912976481	 3.5020852025	-0.7015024193	-0.036826
C	 1.5604948921	 2.9674941856	-1.2174857339	-0.27801
N	 2.8818578447	 3.4803488907	 0.7811645503	-0.120053
C	 1.5639100104	 2.9227644523	 1.1463803325	-0.190399
H	-0.8662867483	 1.8505282243	-0.1739806757	 0.069853
H	 2.732732651	 0.5180148477	 0.8374091897	 0.11831
H	 2.8057045624	 0.5750886354	-0.9341750911	 0.112986
H	 4.6405037963	 2.3187623137	 0.1462861269	 0.096305
H	 3.4195064798	 4.3154736606	-1.1834902584	 0.097524
H	 1.6524155854	 2.4768651679	-2.1913803167	 0.114946
H	 0.7806161597	 3.7330428154	-1.2798809463	 0.109277
H	 0.8185677549	 3.7201489519	 1.2191381544	 0.110179
H	 1.6234836723	 2.3958685906	 2.1025866772	 0.118778
78.8383	186.363	271.	412.2964	429.9667	442.515	467.9422	670.1863	677.3316	729.8229	789.976	806.1866	853.4393	883.6314	929.1627	941.0029	961.6422	968.4094	992.9931	1028.3748	1052.2133	1061.8706	1116.6014	1126.8433	1156.1902	1179.98	1212.7676	1223.9359	1240.4319	1259.6496	1282.7835	1304.3247	1334.8043	1381.8798	1431.3634	1484.5182	1490.6563	1516.8891	1815.5339	2853.8694	3050.5141	3057.2499	3066.7987	3099.0464	3109.7419	3114.1028	3187.3979	3197.631
O=CC12CC3C(C1)N3C2	O=C[C@@]12C[C@H]3[C@@H](C1)N3C2	
InChI=1S/C7H9NO/c9-4-7-1-5-6(2-7)8(5)3-7/h4-6H,1-3H2	InChI=1S/C7H9NO/c9-4-7-1-5-6(2-7)8(5)3-7/h4-6H,1-3H2/t5-,6+,7-,8?
