18
gdb 82084	2.4605	1.61152	1.16431	2.7615	70.93	-0.2338	0.0325	0.2663	1071.3965	0.148402	-439.08674	-439.07837	-439.077426	-439.12003	32.366	
N	 0.1026032558	 1.1743276472	 0.41450227	-0.531589
C	 0.0819436747	-0.0196912114	-0.245204641	 0.378553
O	 0.9732696468	-0.3991360851	-0.9805112088	-0.372925
C	-1.1965349697	-0.8326586636	-0.0532979592	-0.16555
C	-1.0260522514	-2.3459184803	 0.0870013585	-0.022504
C	-0.3054831963	-2.6573388938	 1.3594770229	-0.296536
C	-1.7800903947	-2.3346769775	 1.4254530283	-0.091035
C	-2.0158394981	-0.8371601993	 1.3036834834	 0.091654
O	-1.6280023259	 0.0045984622	 2.3793247588	-0.43243
H	 0.9501847327	 1.7170675614	 0.3576601089	 0.252479
H	-0.5265455482	 1.3178014331	 1.1924431234	 0.266826
H	-1.8640512887	-0.5669955817	-0.8788687807	 0.109221
H	-1.1103466681	-3.0595408194	-0.7207691731	 0.100293
H	-0.0668687222	-3.7024912495	 1.5246279667	 0.122099
H	 0.4535175956	-1.9767468973	 1.7408527542	 0.109155
H	-2.4983177251	-3.0463913704	 1.8134376388	 0.094007
H	-3.0634618607	-0.5962455304	 1.1113861816	 0.100654
H	-0.8789229867	-0.4118019844	 2.8205927475	 0.287628
46.0466	123.2141	207.6416	229.6239	307.2619	330.809	412.9165	463.7177	513.773	539.9188	585.6128	654.1406	701.8041	719.5986	791.181	813.3071	827.6426	925.261	973.9893	987.741	1025.7757	1037.3217	1055.1818	1066.2594	1089.1608	1091.9678	1135.949	1168.5306	1205.3798	1256.6406	1270.5904	1297.6345	1318.9276	1355.2408	1376.6522	1434.2314	1494.9456	1622.9281	1793.5843	3062.7999	3091.1864	3103.7648	3185.9343	3199.1217	3214.1983	3541.1337	3688.7767	3802.0945
NC(=O)C1C2CC2C1O	NC(=O)[C@H]1[C@H]2C[C@H]2[C@H]1O	
InChI=1S/C6H9NO2/c7-6(9)4-2-1-3(2)5(4)8/h2-5,8H,1H2,(H2,7,9)	InChI=1S/C6H9NO2/c7-6(9)4-2-1-3(2)5(4)8/h2-5,8H,1H2,(H2,7,9)/t2-,3+,4-,5+/m0/s1
