17
gdb 20136	4.47611	1.70478	1.54962	1.4766	67.61	-0.2225	0.078	0.3005	866.5189	0.142601	-363.780094	-363.773194	-363.77225	-363.811392	26.607	
C	 1.1902537079	-0.9248975854	-0.4103849595	-0.224652
C	-0.0112980003	-0.2396138251	-0.9634814016	-0.227691
N	 0.5347937412	 0.1427295951	 0.338517996	-0.088509
C	-0.1764058311	-0.2200308337	 1.5420687973	 0.034197
C	-1.369826368	 0.6963868392	 1.9901724079	-0.275319
C	-2.204482544	-0.5750040173	 2.1779251121	 0.031443
O	-2.3114873253	-1.2008380709	 0.8964946699	-0.235323
C	-1.1271118288	-1.4440700462	 1.6703272762	-0.019428
H	 1.0596529899	-1.9496762524	-0.0662183057	 0.108419
H	 2.1835666437	-0.6968911049	-0.7871318218	 0.114797
H	 0.1059191713	 0.5080139823	-1.7433868307	 0.112164
H	-0.9434742277	-0.7926881901	-0.9880504135	 0.14616
H	 0.559768823	-0.2782273373	 2.3520496509	 0.088666
H	-1.1614872824	 1.2522372617	 2.9062156069	 0.109196
H	-1.7553675	 1.3725604099	 1.2245754209	 0.118654
H	-2.985676086	-0.7872765726	 2.8978356149	 0.107118
H	-0.8953732034	-2.4789992925	 1.8972587297	 0.100109
73.6164	176.8768	204.8419	299.7311	401.4301	444.7757	596.4365	706.2277	764.0985	814.3046	826.7647	849.7656	883.8602	903.1257	925.392	955.364	988.6264	1015.8493	1042.8495	1070.0609	1091.2236	1119.1449	1123.0283	1152.1451	1180.7149	1190.3225	1217.7766	1237.3869	1243.9671	1276.3745	1336.4454	1370.0707	1381.7355	1471.018	1495.1084	1523.5269	3043.256	3077.23	3094.8327	3119.4663	3136.3022	3172.624	3179.5697	3196.7068	3220.4252
C1CN1C1CC2OC12	C1CN1[C@H]1C[C@H]2O[C@@H]12	
InChI=1S/C6H9NO/c1-2-7(1)4-3-5-6(4)8-5/h4-6H,1-3H2	InChI=1S/C6H9NO/c1-2-7(1)4-3-5-6(4)8-5/h4-6H,1-3H2/t4-,5+,6-/m0/s1
