19
gdb 67778	2.69618	2.06624	1.5393	1.2118	78.88	-0.2203	0.0119	0.2322	921.0195	0.160933	-385.8651	-385.858118	-385.857174	-385.895907	29.391	
C	 0.0111788224	 1.5768537202	-0.023372299	-0.523067
C	 0.0556684151	 0.0666760743	-0.0026122042	 0.297406
C	 0.4839481256	-0.7027023676	-1.2405649246	-0.159834
C	 0.3821678654	-1.988499127	-0.888814227	-0.113975
C	-0.0984535496	-1.9309976179	 0.5448683291	-0.105213
C	 0.7222287994	-0.7503796071	 1.1850034613	-0.098415
C	-0.1071113051	-0.3645007836	 2.3990485721	-0.110898
O	-1.4415646669	-0.3943038204	 1.8347377399	-0.276429
C	-1.1823434461	-0.787437528	 0.5069825064	 0.098317
H	 1.0174503315	 2.0069058527	-0.0817139635	 0.117464
H	-0.5534930377	 1.9375183474	-0.8902451318	 0.119109
H	-0.4767940399	 1.9714785188	 0.8727375585	 0.129739
H	 0.7579555744	-0.2608271871	-2.1888200948	 0.098468
H	 0.5498333846	-2.8831553643	-1.4712001021	 0.1026
H	-0.2830969487	-2.8513224653	 1.0993321932	 0.063732
H	 1.8070843764	-0.8070997994	 1.2892399343	 0.06854
H	-0.038419662	-1.0838744052	 3.2234536405	 0.105578
H	 0.1096528475	 0.6376614366	 2.7860318286	 0.106078
H	-2.1073835364	-0.8735508771	-0.0649574468	 0.0808
178.2252	238.6245	268.3227	335.4773	369.9832	425.685	528.338	611.6699	644.0355	658.4549	720.2366	727.4155	797.1783	896.4178	898.899	916.4913	926.1067	941.1983	963.1629	972.6553	996.9193	1021.768	1066.9287	1077.202	1085.0343	1148.7552	1159.2131	1181.9169	1194.9047	1215.6285	1235.2665	1256.256	1284.5279	1304.1666	1351.0876	1373.7348	1411.1259	1489.7343	1496.0889	1518.8545	1628.3738	3027.862	3030.1626	3067.8242	3089.5361	3106.7701	3107.6657	3114.1955	3123.2913	3215.1275	3243.0599
CC12C=CC3C1COC23	C[C@@]12C=C[C@H]3[C@@H]1CO[C@@H]23	
InChI=1S/C8H10O/c1-8-3-2-5-6(8)4-9-7(5)8/h2-3,5-7H,4H2,1H3	InChI=1S/C8H10O/c1-8-3-2-5-6(8)4-9-7(5)8/h2-3,5-7H,4H2,1H3/t5-,6-,7+,8+/m0/s1
