18
gdb 30865	2.27575	1.44551	0.91797	1.8708	77.26	-0.1896	0.034	0.2236	1278.5367	0.146247	-439.105398	-439.095598	-439.094654	-439.140793	34.377	
C	 0.1303608234	 1.3285986685	 0.0226766271	-0.252335
O	-0.405013832	 0.0843964396	 0.4790556845	-0.270194
C	 0.4036613834	-0.6454503889	 1.2628813086	 0.33804
C	 0.7052775372	-1.9706620614	 1.2232590451	 0.140824
C	 0.2636609182	-2.9619898032	 0.1936453929	-0.507992
C	 1.5159951078	-2.1955776432	 2.3945124941	-0.293832
C	 1.6601232093	-1.0089909052	 3.033470837	 0.297686
N	 2.3640455002	-0.6468950932	 4.1821899452	-0.597643
O	 0.9658485186	-0.0284223755	 2.3394383369	-0.216985
H	 1.0561293503	 1.1698896225	-0.5437257349	 0.121198
H	-0.6281770496	 1.7663776175	-0.6280034091	 0.134599
H	 0.3295984768	 2.0037927836	 0.860451562	 0.135579
H	 1.1171409402	-3.4630129661	-0.2779289621	 0.122566
H	-0.36828113	-3.7456104226	 0.6282249915	 0.126173
H	-0.3133131702	-2.4660737177	-0.5910081599	 0.130696
H	 1.942718922	-3.1318591185	 2.7198265101	 0.105352
H	 3.2099400519	-0.1238883545	 3.9745609743	 0.242908
H	 1.7996716325	-0.0845086516	 4.8110778668	 0.24336
45.4191	96.9177	132.6562	144.1326	163.6165	204.9897	245.2477	278.9544	354.4275	409.1022	546.4654	606.9285	623.278	626.8282	703.9838	777.8553	817.586	827.6006	970.0247	992.6123	1036.5546	1066.6159	1137.3624	1175.2478	1182.3275	1199.3597	1209.3285	1254.2906	1287.9912	1398.5511	1425.6139	1481.3695	1486.0634	1488.1938	1498.834	1505.0602	1639.8708	1674.1319	1709.4919	3021.2765	3024.853	3070.8764	3095.6118	3117.4062	3141.2263	3255.0923	3487.3972	3556.4625
COC1=C(C)C=C(N)O1	COc1c(C)cc(N)o1	
InChI=1S/C6H9NO2/c1-4-3-5(7)9-6(4)8-2/h3H,7H2,1-2H3	InChI=1S/C6H9NO2/c1-4-3-5(7)9-6(4)8-2/h3H,7H2,1-2H3
