23
gdb 121259	3.79416	0.93886	0.83323	1.0176	86.14	-0.2409	0.0844	0.3253	1492.4238	0.206797	-388.290068	-388.280976	-388.280032	-388.324448	34.668	
C	 0.0046387016	 1.5118539657	 0.0964278644	-0.383113
C	 0.2067911743	 0.0100401794	-0.0215475734	-0.034235
O	 0.5737244043	-0.4919240748	 1.2477877576	-0.259045
C	 0.6936434416	-1.9012391557	 1.3071136217	 0.156285
C	 1.9550778536	-2.4602232028	 0.5942709482	-0.260322
C	 2.3392280538	-3.7325748429	 1.3797040153	-0.222709
C	 1.833275317	-3.4837976531	 2.7959722219	-0.027612
C	 2.149534906	-2.1510155337	 3.4242473476	-0.282124
C	 0.8182297631	-2.3634335072	 2.745946185	-0.055428
H	 0.9269264182	 1.9971522387	 0.4285113735	 0.124942
H	-0.2830849994	 1.9370034177	-0.8699583813	 0.110988
H	-0.779915819	 1.7365307898	 0.8245534217	 0.124697
H	-0.7206765289	-0.4781560838	-0.3683190387	 0.08076
H	 0.9840386367	-0.2115147611	-0.770838264	 0.085174
H	-0.2114095906	-2.3548074909	 0.8665966729	 0.057374
H	 1.789276004	-2.6610384337	-0.4669072033	 0.096285
H	 2.7438088901	-1.7035414421	 0.6591075899	 0.111577
H	 1.8268072259	-4.6077619873	 0.962659022	 0.098624
H	 3.4141476837	-3.9404456892	 1.3339109489	 0.097562
H	 1.6870565307	-4.3370092849	 3.44927834	 0.078305
H	 2.1400222133	-2.1008921298	 4.5074078267	 0.107566
H	 2.8802825139	-1.4970127043	 2.9610425444	 0.114279
H	-0.0786939839	-2.3767807139	 3.354224659	 0.08017
61.1251	85.8725	107.6607	200.8552	248.2363	270.2965	334.029	364.9409	414.1878	545.7616	615.4941	641.2152	776.6856	820.0768	829.4145	840.4065	868.3233	895.5152	939.1306	959.0709	982.1563	1001.4227	1037.6018	1056.6118	1063.8734	1089.9951	1110.9309	1132.9412	1145.5317	1159.4718	1186.7257	1201.2695	1208.9844	1226.7407	1295.7353	1299.888	1329.6439	1337.4193	1351.8536	1376.308	1399.0574	1401.915	1438.3868	1482.903	1486.7412	1495.896	1499.6612	1514.3426	1529.2261	2943.5928	2953.8905	2982.861	3030.4979	3043.4181	3053.5718	3067.6233	3103.1044	3117.4388	3120.4893	3135.6649	3164.7499	3177.0903	3217.6566
CCOC1CCC2CC12	CCO[C@H]1CC[C@H]2C[C@@H]12	
InChI=1S/C8H14O/c1-2-9-8-4-3-6-5-7(6)8/h6-8H,2-5H2,1H3	InChI=1S/C8H14O/c1-2-9-8-4-3-6-5-7(6)8/h6-8H,2-5H2,1H3/t6-,7+,8-/m0/s1
