17
gdb 79515	3.18892	1.62197	1.28151	2.4341	72.37	-0.2368	-0.0221	0.2147	985.8085	0.137645	-421.799636	-421.792679	-421.791735	-421.83103	27.842	
O	 0.0593453323	 1.4048247282	 0.117488038	-0.446328
C	-0.008099768	-0.0045836701	 0.0445163146	 0.017719
C	-1.4113909624	-0.5183279413	-0.2122596033	-0.028603
C	-1.305861095	-1.9720166106	-0.7821546745	-0.070382
C	-2.5801278097	-1.7150491927	-1.62140429	-0.239839
C	-1.7444875313	-0.4197408615	-1.7397506753	-0.049735
C	-0.443943992	-1.2992141315	-1.9142013514	-0.137798
C	 0.6558203419	-0.5264253727	-1.2497411117	 0.377625
O	 1.7652588828	-0.2505741816	-1.6320568472	-0.343852
H	 0.9577671859	 1.6500391644	-0.1387632749	 0.293146
H	 0.4476163068	-0.4754692106	 0.931446561	 0.082255
H	-2.196355825	-0.2937983004	 0.5097584884	 0.082347
H	-1.0313681438	-2.8717478153	-0.2288932133	 0.083836
H	-2.6994379433	-2.3117544673	-2.5291372388	 0.100114
H	-3.521791859	-1.6397036564	-1.0697818616	 0.09851
H	-1.9722163471	 0.4862633928	-2.3009395809	 0.093197
H	-0.249249563	-1.8139501534	-2.8533251892	 0.087787
99.2537	193.8707	240.4093	357.333	379.9893	480.2638	507.8154	598.2035	681.3423	703.119	775.9662	816.9678	877.6501	887.157	909.5948	917.6663	933.3142	998.4092	1011.5106	1062.2425	1067.6015	1087.7283	1116.6673	1138.2553	1146.6838	1171.8839	1190.3644	1206.4251	1227.5365	1242.2826	1257.5483	1275.3456	1322.903	1363.1798	1414.2524	1519.3052	1852.4999	2966.2714	3050.9442	3098.5549	3114.0749	3116.5561	3124.8521	3143.2004	3772.0184
OC1C2C3CC2C3C1=O	O[C@H]1[C@@H]2[C@H]3C[C@@H]2[C@H]3C1=O	
InChI=1S/C7H8O2/c8-6-4-2-1-3(4)5(2)7(6)9/h2-6,8H,1H2	InChI=1S/C7H8O2/c8-6-4-2-1-3(4)5(2)7(6)9/h2-6,8H,1H2/t2-,3+,4-,5+,6-/m0/s1
