21
gdb 75243	3.58291	1.15731	1.00661	1.6623	85.1	-0.2308	0.0319	0.2627	1265.0869	0.183034	-387.099244	-387.090724	-387.089779	-387.132168	33.406	
C	-0.0008842123	 1.5404997265	 0.0548220239	-0.475887
C	-0.0194519826	 0.0385322091	-0.025754374	 0.317448
C	-0.0728067553	-0.6138239793	-1.1899016888	-0.138431
C	-0.0551013031	-2.1148933197	-1.3336024988	-0.325421
C	 0.2358006815	-2.8141182021	-0.0186576151	 0.431545
C	 0.6321691063	-4.225269482	 0.003306301	-0.249004
O	 1.6092537613	-3.1962921911	 0.1862760423	-0.280347
C	-0.4160610845	-2.15961273	 1.1787762694	-0.287219
C	 0.0505976404	-0.700650561	 1.2935726842	-0.286892
H	 0.8943352946	 1.8951631328	 0.5824679086	 0.123406
H	-0.013781173	 2.0012694969	-0.9366042447	 0.118119
H	-0.8625351123	 1.9187889737	 0.6203262344	 0.119389
H	-0.1249486438	-0.0451266802	-2.1162554387	 0.075396
H	-1.0203963841	-2.4635367098	-1.7317129591	 0.107848
H	 0.7029308885	-2.4194885567	-2.0652819432	 0.116448
H	 0.4214724831	-4.8341773909	 0.8824443183	 0.106796
H	 0.7092971992	-4.7805966163	-0.9316447938	 0.106441
H	-1.5056086745	-2.1875745854	 1.0495769072	 0.101258
H	-0.1752258107	-2.7163848386	 2.0891556326	 0.099956
H	 1.0848013223	-0.6767763934	 1.665767082	 0.123139
H	-0.5489859711	-0.1737217227	 2.0463982722	 0.096014
77.1016	156.0118	187.9562	254.3635	286.1285	338.6367	352.8544	407.8824	427.6717	465.4506	548.96	648.7129	721.7808	771.6918	811.6073	826.958	886.5104	937.458	959.0426	979.323	993.1532	1022.1259	1041.9148	1071.5096	1083.5334	1127.6682	1160.5335	1168.1379	1177.7802	1226.9933	1244.5949	1286.0031	1314.2065	1344.4006	1368.1244	1389.5653	1413.1423	1440.4839	1460.8337	1472.7004	1479.3444	1483.4883	1491.7638	1533.4246	1742.4257	2991.674	3007.7873	3013.7351	3026.2423	3046.2841	3050.1311	3057.513	3071.6054	3087.0089	3109.082	3143.0042	3154.6794
CC1=CCC2(CO2)CC1	CC1=CC[C@]2(CO2)CC1	
InChI=1S/C8H12O/c1-7-2-4-8(5-3-7)6-9-8/h2H,3-6H2,1H3	InChI=1S/C8H12O/c1-7-2-4-8(5-3-7)6-9-8/h2H,3-6H2,1H3/t8-/m1/s1
