13
gdb 24866	2.49101	1.77786	1.09467	3.9177	68.92	-0.2729	-0.1077	0.1652	1016.8452	0.091206	-452.807747	-452.800675	-452.79973	-452.839785	26.082	
O	 0.0608738525	-0.0329082807	-0.3932413884	-0.341421
C	 0.0222007225	 1.1625497659	-0.1817036554	 0.384701
N	-1.1955615231	 1.8357581823	-0.1980480503	-0.37548
C	-1.5485616583	 3.1309561451	 0.2299024184	 0.403528
O	-2.5744121225	 3.3105558265	 0.8357246188	-0.314738
N	-0.7701704315	 4.2064926078	-0.2151498794	-0.230502
C	 0.5036968148	 4.2521351161	-0.2093927623	 0.014486
C	 1.4701951021	 3.2270314169	 0.1789145886	-0.100477
C	 1.2595296465	 1.9028779322	 0.1635342417	-0.131563
H	-1.9829967143	 1.1960262828	-0.1980842653	 0.274182
H	 0.9462259487	 5.187294307	-0.5633175608	 0.138391
H	 2.4721315236	 3.5881531766	 0.3961933633	 0.130754
H	 2.080717629	 1.2246951015	 0.3709298611	 0.148138
85.1386	113.9804	249.8997	344.2416	375.857	446.4736	473.8523	548.3594	610.3351	693.1519	724.4988	759.6493	831.7269	842.0431	877.0802	959.3164	973.7033	1006.7338	1035.8687	1203.3929	1247.5764	1347.8275	1412.9332	1426.3663	1444.703	1670.1316	1722.7413	1774.2633	1810.5845	3093.651	3166.0597	3200.5792	3562.1212
O=C1NC(=O)N=CC=C1	O=c1[nH]c(=O)nccc1	
InChI=1S/C5H4N2O2/c8-4-2-1-3-6-5(9)7-4/h1-3H,(H,7,8,9)	InChI=1S/C5H4N2O2/c8-4-2-1-3-6-5(9)7-4/h1-3H,(H,7,8,9)
