17
gdb 79320	3.62646	1.22465	1.15781	3.1011	74.67	-0.2412	-0.0255	0.2157	1112.429	0.135019	-421.771457	-421.763662	-421.762717	-421.80397	29.48	
C	 0.0739221242	 1.6229098331	-0.0204246177	-0.424011
C	 0.0717031555	 0.1027305068	-0.0113553678	 0.024204
C	 0.7843566295	-0.6742966501	-1.1323287465	-0.189089
C	 2.2129845523	-0.8160909962	-0.6621531031	 0.039752
O	 2.3617540359	-0.1266241369	 0.5702699862	-0.281721
C	 1.046799646	-0.649394753	 0.9414378389	-0.02341
C	 1.1772925632	-1.7872190653	-0.1234889287	 0.256114
C	 1.0395718068	-3.2335645415	-0.1769915192	 0.00121
O	 0.6882399181	-3.9327269594	 0.7457921334	-0.276151
H	 1.0961773165	 2.0044310414	-0.0719935456	 0.137104
H	-0.4854724199	 2.0091164815	-0.8789000201	 0.117334
H	-0.3957152736	 2.0179557906	 0.8869125163	 0.119822
H	-0.9351176194	-0.3052653402	 0.1199554159	 0.092363
H	 0.4855783653	-0.815138022	-2.1637394438	 0.107171
H	 3.0793776391	-0.9796519372	-1.2893275953	 0.126505
H	 0.9025383708	-0.7400565925	 2.0143779187	 0.105704
H	 1.2925058997	-3.6672866089	-1.1726770115	 0.067101
86.9318	136.9247	204.282	216.7402	273.5164	292.0721	452.53	574.2446	599.7752	677.7443	715.8962	767.5055	812.0126	830.1445	889.1829	915.9178	929.6159	998.189	1011.5676	1040.0066	1046.2468	1051.3148	1083.5124	1116.0296	1127.7913	1167.1033	1207.7834	1234.7832	1291.0677	1324.4441	1373.6157	1398.9749	1407.2261	1449.6038	1490.9017	1502.2051	1790.5832	2855.6569	3037.3738	3069.7406	3098.9165	3131.1378	3170.2628	3198.9106	3216.4655
CC1C2C3OC1C23C=O	C[C@H]1[C@H]2[C@H]3O[C@@H]1[C@@]23C=O	
InChI=1S/C7H8O2/c1-3-4-6-7(4,2-8)5(3)9-6/h2-6H,1H3	InChI=1S/C7H8O2/c1-3-4-6-7(4,2-8)5(3)9-6/h2-6H,1H3/t3-,4-,5-,6+,7+/m0/s1
