14
gdb 28983	3.07479	1.54144	1.02696	2.7167	79.93	-0.2313	-0.0546	0.1767	1069.4504	0.103954	-395.818234	-395.810764	-395.80982	-395.850107	28.254	
N	-0.033924025	 1.3544579712	 0.097903709	-0.577109
C	 0.0110602848	-0.0018958816	 0.0344135041	 0.366633
N	-1.1639258966	-0.6459643408	 0.0266910818	-0.336432
C	-1.1517295628	-1.9767489726	 0.0026491475	 0.009849
C	 0.0039697173	-2.7554548494	-0.0194605727	-0.144697
C	 1.2242389271	-2.0957529914	-0.0206330376	-0.149242
C	 1.2508479734	-0.7010110988	 0.0056079682	 0.077776
C	 2.4690820993	 0.0326263953	-0.0011485803	 0.20496
N	 3.4292324719	 0.6830508717	-0.0112772901	-0.35355
H	 0.7936661738	 1.8992295219	-0.0758740591	 0.278431
H	-0.9322189076	 1.7865920999	-0.0376815323	 0.267868
H	-2.1296807688	-2.4530191391	-0.0017835677	 0.118832
H	-0.0547602867	-3.8360051259	-0.0394910257	 0.108688
H	 2.16019517	-2.6424814704	-0.0430169149	 0.127991
123.9642	143.2636	223.7034	271.2345	389.2628	407.8305	476.6685	482.9066	540.1784	577.8788	603.9237	606.094	738.5663	792.4818	824.8114	898.9081	979.4832	991.3391	1022.4458	1097.3187	1147.2023	1212.9037	1293.3349	1323.5716	1368.5885	1487.5559	1497.0362	1593.4367	1624.405	1651.8305	2325.3265	3154.4921	3197.4389	3218.6797	3606.9182	3735.5291
NC1=NC=CC=C1C#N	Nc1ncccc1C#N	
InChI=1S/C6H5N3/c7-4-5-2-1-3-9-6(5)8/h1-3H,(H2,8,9)	InChI=1S/C6H5N3/c7-4-5-2-1-3-9-6(5)8/h1-3H,(H2,8,9)
