19
gdb 87723	2.41938	1.39662	1.21198	1.5685	71.54	-0.2368	0.0575	0.2943	1126.1478	0.157061	-460.120759	-460.111585	-460.110641	-460.154665	34.805	
C	 0.6642065221	 1.3240715711	-0.2569327392	-0.410393
C	 0.0133879207	-0.0174335415	 0.0099358535	 0.106564
O	 0.5828128865	-1.0920831627	-0.805222471	-0.335449
C	 1.1607853451	-1.7017093972	 0.3548892443	 0.357055
C	 1.5617845038	-3.1408975137	 0.3468510498	-0.3995
C	 2.6193620711	-2.0468480649	 0.2640590019	 0.053992
O	 3.2496443233	-1.7672539954	-0.9442472844	-0.435122
C	 0.4350797862	-0.7679021666	 1.3129874543	-0.024931
O	 1.1737808729	-0.1021860807	 2.2981810415	-0.421037
H	 1.7521906249	 1.2711654312	-0.1445640187	 0.115635
H	 0.4491754841	 1.6518905411	-1.2780543551	 0.132272
H	 0.2805128488	 2.077851701	 0.4376280628	 0.134076
H	-1.06818012	 0.0318236209	-0.1538488585	 0.088869
H	 1.475756581	-3.705610279	 1.270136557	 0.121813
H	 1.3569006615	-3.6960820997	-0.563077338	 0.129169
H	 3.2648463391	-1.900746824	 1.1271252767	 0.10216
H	 2.5908414351	-1.3064236416	-1.4862193539	 0.291914
H	-0.412950674	-1.2267109221	 1.8265115324	 0.10619
H	 2.0122501277	 0.1733847538	 1.9113933447	 0.286723
52.4923	133.0895	192.7538	206.159	227.152	255.4886	335.341	388.009	406.2718	462.8456	495.5665	530.4666	590.7598	634.1415	785.6443	801.6935	824.2097	863.9947	898.2729	964.6167	1001.617	1027.3005	1049.5682	1063.7172	1087.725	1127.956	1153.7159	1168.4538	1195.8167	1242.5865	1286.8298	1301.2229	1314.2097	1361.5935	1391.5964	1408.3002	1419.0681	1442.6037	1476.2042	1484.5405	1497.9846	3037.3606	3050.9599	3089.9677	3109.616	3118.7026	3123.1529	3132.9158	3218.6722	3703.3242	3805.7175
CC1OC2(CC2O)C1O	C[C@H]1O[C@]2(C[C@H]2O)[C@H]1O	
InChI=1S/C6H10O3/c1-3-5(8)6(9-3)2-4(6)7/h3-5,7-8H,2H2,1H3	InChI=1S/C6H10O3/c1-3-5(8)6(9-3)2-4(6)7/h3-5,7-8H,2H2,1H3/t3-,4-,5+,6+/m1/s1
