18
gdb 26352	2.50553	1.44449	0.94435	1.8943	74.7	-0.193	0.0416	0.2347	1209.5623	0.147412	-439.11021	-439.101009	-439.100064	-439.144295	34.724	
C	 0.2929375727	 1.2293681167	-0.5897231918	-0.434614
C	 0.0159479155	-0.0567217946	 0.2006129296	 0.04115
O	 0.3599078602	 0.1212741763	 1.5765421687	-0.424252
C	-1.3936382744	-0.5829512285	 0.0727795854	 0.091965
C	-2.0089903014	-1.3577631987	 1.0404697041	-0.14997
N	-3.2507402711	-1.7043686035	 0.597528588	-0.247511
C	-3.4758289164	-1.1601877523	-0.6468554076	-0.153285
C	-2.3415746929	-0.4649318366	-0.996221346	 0.188379
O	-2.2028238411	 0.1656984383	-2.2041136815	-0.450848
H	 1.2789227302	 1.6124753846	-0.3149209343	 0.12866
H	 0.3039722887	 1.0425982107	-1.6699718753	 0.11887
H	-0.4486944284	 2.0056249257	-0.3645351075	 0.112687
H	 0.7286273676	-0.817117141	-0.1462453637	 0.101698
H	-0.3519716915	 0.6359034627	 1.9747995975	 0.271378
H	-1.6322644846	-1.6888955716	 1.9938837131	 0.129707
H	-3.9153813813	-2.2530425825	 1.1122782195	 0.262602
H	-4.4010450301	-1.2994023256	-1.1793699408	 0.121836
H	-1.5858124117	 0.8947783701	-2.1028205876	 0.291549
39.6229	150.9045	177.862	201.2452	297.0706	312.3717	325.2879	344.5688	378.4189	430.2166	486.3974	529.5338	619.5187	629.6156	659.1937	713.0989	741.1492	774.2436	889.1169	909.084	1014.2119	1068.8262	1082.782	1090.6462	1136.9219	1174.1816	1228.582	1271.7236	1278.8705	1347.5201	1367.5845	1387.7708	1413.8085	1423.446	1485.0012	1498.3454	1510.4097	1550.9755	1639.1945	3012.075	3019.5367	3087.9585	3117.463	3273.6736	3279.1985	3695.6878	3787.5799	3853.8455
CC(O)C1=CNC=C1O	C[C@@H](O)c1c[nH]cc1O	
InChI=1S/C6H9NO2/c1-4(8)5-2-7-3-6(5)9/h2-4,7-9H,1H3	InChI=1S/C6H9NO2/c1-4(8)5-2-7-3-6(5)9/h2-4,7-9H,1H3/t4-/m1/s1
