17
gdb 113528	3.76333	0.98104	0.8726	1.3075	71.13	-0.2591	0.0061	0.2651	1319.1426	0.136377	-455.104645	-455.096143	-455.095199	-455.138372	31.165	
O	 0.0269032603	 1.3349615799	-0.5091834185	-0.414814
C	 0.0269022904	 0.1443743326	 0.2546816847	-0.060715
C	-1.3471920036	-0.4828696668	 0.2912264336	-0.112216
N	-1.7496498367	-1.1294211247	-0.9737354881	-0.387517
C	-1.5436037469	-1.9479953678	 0.2113317677	 0.192044
C	-0.6234558139	-3.1564666786	 0.3678299453	-0.1504
O	-1.7026273144	-3.8408808582	 1.0923419339	-0.265363
C	-2.5663518054	-2.7759361953	 0.9188836142	 0.386025
N	-3.7701242622	-2.6119009771	 1.2252851098	-0.561965
H	-0.2875475306	 1.0931139988	-1.3882918389	 0.292812
H	 0.7515016629	-0.5864222872	-0.1371693137	 0.089192
H	 0.343727561	 0.4229075097	 1.2649831855	 0.117062
H	-2.1103607677	 0.0727783729	 0.8319745285	 0.121304
H	-2.7501447468	-1.0236566765	-1.132649924	 0.25601
H	-0.3748904427	-3.6815309449	-0.5569796407	 0.134478
H	 0.2576986181	-3.0377202145	 1.0022354016	 0.12866
H	-4.1652999618	-3.4278455322	 1.693476979	 0.235402
69.7142	111.2531	145.1214	164.2195	256.3097	283.9446	397.291	427.2492	470.2356	540.8768	623.8855	701.128	776.7278	842.2187	855.7394	871.4134	943.8065	984.501	1000.2496	1009.2985	1025.222	1078.4398	1092.0358	1099.9482	1145.4937	1178.7778	1215.5296	1263.7713	1272.6463	1324.9433	1353.5677	1389.3781	1426.6687	1495.0132	1502.0767	1509.3273	1829.2884	2983.9194	3068.5035	3079.3123	3131.3676	3143.5677	3490.5367	3492.9526	3795.0363
OCC1NC11COC1=N	OC[C@H]1N[C@]21CO[C]2[NH]	
InChI=1S/C5H8N2O2/c6-4-5(2-9-4)3(1-8)7-5/h3,6-8H,1-2H2	InChI=1S/C5H8N2O2/c6-4-5(2-9-4)3(1-8)7-5/h3,6-8H,1-2H2/t3-,5+/m1/s1
