17
gdb 65830	3.29676	1.108	1.07761	3.1418	72.81	-0.2587	0.0144	0.2731	1169.8751	0.137008	-418.0737	-418.065219	-418.064275	-418.106792	31.682	
C	 0.3223330881	 1.3613888272	 0.0549325955	-0.429635
C	-0.1286885169	-0.112913869	-0.002893738	 0.106046
C	 0.5653529369	-0.8528970823	-1.1950068811	-0.196203
N	 1.7819233035	-1.3465348001	-0.5849010156	-0.305542
C	 1.7396123195	-1.4741969112	 0.7796964843	 0.403233
O	 2.5973195083	-1.9563840561	 1.480848443	-0.366162
C	 0.3907947092	-0.9003273056	 1.2294692446	-0.367558
C	-1.5857113575	-0.1787709055	-0.129566782	 0.255902
N	-2.7360209027	-0.2259835001	-0.2316934178	-0.338244
H	 1.413263572	 1.4081681113	 0.1157590985	 0.1406
H	-0.0030520754	 1.904430219	-0.8361062618	 0.138446
H	-0.0967709111	 1.8589337864	 0.9329749352	 0.14277
H	-0.0692958022	-1.6625659487	-1.5779261409	 0.130448
H	 0.7736914612	-0.1637433134	-2.0187021975	 0.128768
H	 2.5263990687	-1.7763038386	-1.1110504701	 0.260183
H	 0.5053501977	-0.2791872776	 2.1188447764	 0.145072
H	-0.2682493392	-1.7354497358	 1.4862666972	 0.151878
84.5999	148.9862	165.5652	198.4141	255.6722	347.8698	355.5432	442.1786	478.5863	488.4534	580.3479	581.5043	611.2503	688.7201	781.7832	866.0087	926.5942	943.4957	970.1224	982.3887	1075.6044	1101.3054	1175.3294	1180.1862	1220.5033	1256.7603	1273.5363	1309.761	1349.7837	1410.8457	1448.3438	1466.9583	1493.0816	1498.5557	1533.5592	1843.1318	2357.1893	3018.6285	3047.7123	3070.5462	3079.4071	3126.5309	3129.4192	3132.7535	3641.893
CC1(CNC(=O)C1)C#N	C[C@]1(CNC(=O)C1)C#N	
InChI=1S/C6H8N2O/c1-6(3-7)2-5(9)8-4-6/h2,4H2,1H3,(H,8,9)	InChI=1S/C6H8N2O/c1-6(3-7)2-5(9)8-4-6/h2,4H2,1H3,(H,8,9)/t6-/m1/s1
