15
gdb 82011	2.6053	1.45329	1.34509	3.4797	65.01	-0.2531	0.0084	0.2615	997.21	0.111994	-453.89955	-453.891282	-453.890338	-453.932252	30.975	
N	-0.0945100724	 1.4823782193	 0.1742965889	-0.554199
C	 0.0050087414	 0.0497729377	 0.0394514347	 0.069323
C	 0.8721985482	-0.5197192212	 1.0679237391	 0.267606
N	 1.5699408112	-1.0060480837	 1.8508626842	-0.329928
C	-1.3508445866	-0.6793843832	-0.0489340936	 0.011405
O	-1.9753782288	-0.2012408412	-1.2443285287	-0.267381
C	-1.0307512099	-1.2874930528	-1.3488557661	-0.012993
C	 0.34185712	-0.6143432579	-1.4142108871	 0.067297
O	 0.5674714852	 0.2718994116	-2.4599646538	-0.420975
H	 0.7820846417	 1.925200004	-0.0844164145	 0.249801
H	-0.8097435479	 1.8215018714	-0.4610990554	 0.242829
H	-1.988574095	-1.0131495182	 0.7598640965	 0.135924
H	-1.3842311104	-2.2058703526	-1.8011763734	 0.125428
H	 1.1853932365	-1.3036593551	-1.3561853075	 0.122104
H	-0.2667463332	 0.7290475119	-2.6270451933	 0.29376
107.0631	151.7567	166.4017	210.2466	269.5023	290.1433	414.3421	462.9659	494.2848	507.6595	574.5676	633.9122	682.4279	784.6772	834.3249	862.2787	872.5307	914.7781	941.6476	1013.3973	1024.0416	1062.3303	1129.0402	1191.7991	1210.7241	1245.1162	1265.8501	1293.1459	1347.025	1371.3841	1435.1257	1650.37	2354.2576	3115.4818	3197.3108	3212.7962	3502.6157	3585.8503	3776.5285
NC1(C#N)C2OC2C1O	N[C@@]1(C#N)[C@H]2O[C@H]2[C@H]1O	
InChI=1S/C5H6N2O2/c6-1-5(7)3(8)2-4(5)9-2/h2-4,8H,7H2	InChI=1S/C5H6N2O2/c6-1-5(7)3(8)2-4(5)9-2/h2-4,8H,7H2/t2-,3+,4-,5+/m0/s1
