21
gdb 70730	2.53499	1.53133	1.12342	1.2337	84.62	-0.2269	0.0221	0.2489	1152.0197	0.1841	-387.086052	-387.077728	-387.076784	-387.118589	33.56	
O	 0.2700220781	 1.3546458877	 0.1701490226	-0.471363
C	 0.0300572463	-0.0258482345	-0.0104009648	 0.371481
C	-1.0559372904	-0.3782521559	-1.0211911663	-0.353307
C	-1.3338107055	-0.4332590401	 0.4666415783	-0.044459
C	-1.6813034857	-1.7086948892	 1.2114932455	-0.220685
C	-0.9128230251	-2.9770926858	 0.8315852295	-0.212635
C	 0.5540782767	-3.0005541521	 1.2841282802	-0.245041
C	 1.5001946076	-2.0463491967	 0.603070781	-0.069313
C	 1.270821147	-0.8384297578	 0.0858529564	-0.107808
H	 0.7840305706	 1.6644567353	-0.5842038189	 0.277803
H	-1.4892315134	 0.4406670881	-1.5859209249	 0.108026
H	-0.9438808877	-1.3080542053	-1.5676486709	 0.113784
H	-1.8905753894	 0.4276794053	 0.8268472812	 0.098461
H	-1.5545067501	-1.5308542973	 2.2884379076	 0.099063
H	-2.7534993689	-1.8922451604	 1.060870658	 0.097995
H	-1.4221729967	-3.8306094345	 1.2944992626	 0.094319
H	-0.9649423473	-3.1463675624	-0.250896137	 0.099962
H	 0.5921999528	-2.8277204833	 2.3713737882	 0.11095
H	 0.9446666099	-4.0163760599	 1.1454918078	 0.098667
H	 2.5266584722	-2.4043163099	 0.5423001536	 0.083752
H	 2.1278404192	-0.3217256214	-0.3480699196	 0.070347
80.1187	178.4686	243.7103	282.1681	317.1376	332.7155	366.9941	392.6604	455.5057	508.3106	582.432	645.2757	711.6059	734.5877	794.3554	832.0275	883.9669	911.702	919.8851	948.3066	964.2032	977.912	1000.0846	1039.4894	1080.7387	1096.8646	1105.371	1136.9043	1191.1627	1212.4848	1253.9761	1271.38	1278.3991	1297.7548	1357.7442	1380.0216	1387.9076	1400.7408	1424.2363	1443.3478	1472.8006	1486.2472	1491.6551	1501.4338	1735.2923	2986.6615	3006.4659	3023.597	3037.5087	3045.9007	3065.0066	3107.1825	3130.4729	3140.8331	3145.2441	3223.5875	3788.0039
OC12CC1CCCC=C2	O[C@]12C[C@H]1CCCC=C2	
InChI=1S/C8H12O/c9-8-5-3-1-2-4-7(8)6-8/h3,5,7,9H,1-2,4,6H2	InChI=1S/C8H12O/c9-8-5-3-1-2-4-7(8)6-8/h3,5,7,9H,1-2,4,6H2/t7-,8-/m1/s1
