19
gdb 54852	2.63254	1.50049	1.39776	2.2165	74.02	-0.2258	0.0167	0.2425	1032.4795	0.161258	-419.221779	-419.213324	-419.21238	-419.255391	31.961	
N	 0.8814000891	-0.1659111547	 0.781615889	-0.511538
C	-0.0166643569	 0.2815004164	-0.144277995	 0.372575
O	 0.2007856879	 1.2409134858	-0.8596118745	-0.36619
C	-1.3149527661	-0.5023552506	-0.1420525286	-0.116964
C	-2.0924819392	-0.8243172967	-1.3601455837	-0.035161
C	-1.4397528794	-0.6933470365	-2.727928936	-0.21578
C	-0.1146704807	-1.4805087644	-2.6037430515	-0.242206
C	-0.3491749225	-2.4384891632	-1.4093121372	-0.153674
N	-1.4549273116	-1.9128424403	-0.5796537613	-0.126915
H	 1.742197166	 0.3415808539	 0.9068742147	 0.262469
H	 0.6718216703	-0.9355241328	 1.3933797143	 0.268766
H	-1.8786391718	-0.3157738857	 0.7727451556	 0.109796
H	-3.1768537749	-0.7722351231	-1.3080073217	 0.08911
H	-2.1006790655	-1.144264346	-3.4755413467	 0.098627
H	-1.2714696585	 0.348738123	-3.0064338417	 0.132439
H	 0.1279483611	-2.0290725981	-3.5173614337	 0.096158
H	 0.7130228544	-0.7978102068	-2.4074664261	 0.131669
H	-0.673642831	-3.4251993335	-1.7563052088	 0.107588
H	 0.5494478794	-2.5855259967	-0.8021027071	 0.099231
36.2586	140.9371	171.04	209.5639	212.8402	301.0861	400.3823	471.3536	545.3383	609.7725	663.9254	686.8178	718.8964	753.3468	817.1504	858.4433	873.071	896.5174	909.404	968.7689	1006.7228	1048.4702	1098.4406	1103.0687	1109.4546	1139.5508	1199.7905	1216.6834	1255.9317	1283.0075	1293.7766	1319.9969	1329.7627	1347.0761	1386.0512	1438.7678	1483.4433	1496.1718	1514.8186	1614.044	1786.9912	3043.4281	3051.0307	3076.207	3082.161	3094.9527	3113.2429	3130.9525	3141.204	3597.3881	3736.7432
NC(=O)C1C2CCCN12	NC(=O)[C@H]1[C@H]2CCCN12	
InChI=1S/C6H10N2O/c7-6(9)5-4-2-1-3-8(4)5/h4-5H,1-3H2,(H2,7,9)	InChI=1S/C6H10N2O/c7-6(9)5-4-2-1-3-8(4)5/h4-5H,1-3H2,(H2,7,9)/t4-,5-,8?/m1/s1
