16
gdb 86697	1.97464	1.56509	1.10631	4.8897	69.69	-0.2589	-0.0351	0.2238	1118.3477	0.12306	-437.888884	-437.880129	-437.879185	-437.922995	31.306	
O	-0.1968340376	 1.1191526752	 1.2230673013	-0.415205
C	 0.0031595101	 0.1381725687	 0.2379633147	 0.106781
C	 0.5137523331	-1.1494137592	 0.9170843895	-0.251284
C	-0.937499699	-1.7365704141	 0.9209269809	-0.115219
C	-1.6260321274	-1.5971793367	 2.2625962682	 0.156858
O	-2.1179403717	-2.5252534555	 2.8500556952	-0.245732
C	-1.3115487844	-0.6389519213	-0.1421376251	-0.193206
C	-2.5507266451	 0.1063629443	-0.0256666874	 0.2731
N	-3.5017753019	 0.7564671813	 0.0788047036	-0.324399
H	-0.7631806501	 1.8137226496	 0.8653146194	 0.302753
H	 0.5753498207	 0.5241633802	-0.6140490501	 0.090264
H	 1.1823265869	-1.7302691779	 0.2793090998	 0.124994
H	 0.9859437012	-0.9887753179	 1.8876402127	 0.13725
H	-1.0524126836	-2.7653584285	 0.5794035766	 0.107212
H	-1.6208423305	-0.5713126857	 2.6857092402	 0.10935
H	-1.2342028505	-1.0618567824	-1.1472827193	 0.136484
62.8356	88.2468	132.7961	150.0499	298.38	311.9853	369.1439	375.505	397.6633	446.9595	548.9983	616.9855	749.2859	819.8966	860.9601	900.6036	929.2934	962.9704	1023.929	1056.0078	1078.1709	1115.2977	1145.2078	1211.9237	1216.5674	1248.592	1267.2688	1295.4082	1331.7998	1337.1036	1416.9126	1426.0785	1471.1923	1829.0702	2348.8895	2928.8556	3030.5968	3080.7659	3084.1717	3117.3009	3142.6088	3790.6537
OC1CC(C=O)C1C#N	O[C@H]1C[C@@H](C=O)[C@H]1C#N	
InChI=1S/C6H7NO2/c7-2-5-4(3-8)1-6(5)9/h3-6,9H,1H2	InChI=1S/C6H7NO2/c7-2-5-4(3-8)1-6(5)9/h3-6,9H,1H2/t4-,5+,6-/m0/s1
