19
gdb 85268	2.82113	1.33212	1.00437	2.0926	76.31	-0.2375	-0.016	0.2215	1194.3141	0.1593	-423.049282	-423.040862	-423.039917	-423.082312	32.626	
O	-0.0115686972	 1.4084259398	-0.0764889702	-0.430205
C	 0.016477981	-0.0051779601	-0.0125064399	 0.113649
C	 0.6465693889	-0.5841611919	 1.2680300275	-0.361324
C	-0.0471973189	-1.9344681843	 1.4566493417	 0.350428
O	 0.341942898	-2.856249342	 2.133034171	-0.340844
C	-1.3007430597	-1.9188810532	 0.6294356989	 0.244316
C	-1.6343607308	-3.2081614427	-0.1143265772	-0.293346
C	-2.4626473665	-2.7888397719	 1.0543861379	-0.306732
C	-1.4290188749	-0.5364467387	 0.0114621783	-0.323413
H	 0.8939397003	 1.7256563253	-0.1501666515	 0.284625
H	 0.5373307069	-0.420925287	-0.8895684362	 0.075898
H	 1.7344821943	-0.6843668755	 1.25886579	 0.118143
H	 0.3720887457	 0.0606331776	 2.1143327788	 0.136049
H	-2.0470131035	-3.1019975172	-1.1119791138	 0.118531
H	-0.9465095695	-4.034917519	 0.0242328189	 0.135732
H	-2.3333784923	-3.3334262618	 1.9835894034	 0.13625
H	-3.458927725	-2.3998076526	 0.8736456745	 0.119179
H	-2.0190583663	 0.1306015298	 0.6520553902	 0.116007
H	-1.8878376705	-0.5351448046	-0.9803365622	 0.107057
79.9638	116.3403	234.5984	237.3188	284.181	320.5346	344.459	441.2092	466.1969	498.5748	577.9477	634.3075	704.6572	792.0004	819.4755	867.9748	890.8828	923.828	934.2192	987.9274	1023.7878	1053.9666	1065.2985	1088.3607	1099.2398	1117.6847	1155.9607	1200.6739	1208.3852	1231.6559	1260.1857	1296.3008	1301.2142	1356.023	1379.5658	1427.3566	1452.8327	1453.4093	1485.5856	1500.7442	1826.5763	2974.1183	3029.3825	3037.6465	3097.8901	3108.2055	3131.3767	3132.948	3218.0979	3232.6034	3820.771
OC1CC(=O)C2(CC2)C1	O[C@H]1CC(=O)C2(CC2)C1	
InChI=1S/C7H10O2/c8-5-3-6(9)7(4-5)1-2-7/h5,8H,1-4H2	InChI=1S/C7H10O2/c8-5-3-6(9)7(4-5)1-2-7/h5,8H,1-4H2/t5-/m0/s1
