20
gdb 51240	3.07208	1.26318	1.12242	3.6101	79.36	-0.2413	0.0302	0.2715	1166.6926	0.171587	-403.149991	-403.141333	-403.140389	-403.184477	32.356	
O	-0.1571460012	-0.0107959275	-0.1682715889	-0.326187
C	-0.0401086592	 1.1584901997	 0.1345511902	 0.132629
N	 1.143608066	 1.8207233492	 0.2207986293	-0.373765
C	 2.4170445601	 1.1704830321	 0.0258531519	 0.408172
C	 3.0350681603	 0.3717034172	 1.2035107978	-0.261987
C	 4.3949891273	 1.097415133	 0.9687503084	-0.222696
C	 3.7447856361	 1.9958630849	-0.1238333357	-0.095334
C	 3.9090569075	 1.4750361605	-1.5719138618	-0.22363
C	 2.6667338578	 0.5516811911	-1.381731365	-0.247682
H	-0.9035110338	 1.8171358894	 0.3615644605	 0.070463
H	 1.1354043624	 2.7674751134	 0.5679759761	 0.243442
H	 2.5764711188	 0.6397576347	 2.1588728307	 0.098517
H	 3.0200595247	-0.7161072533	 1.1048010936	 0.108803
H	 4.7680693644	 1.6413424293	 1.8392469157	 0.102471
H	 5.2033604243	 0.462821953	 0.5956851453	 0.102666
H	 3.7934994937	 3.0748740666	 0.0398052813	 0.059586
H	 3.7458107249	 2.249491984	-2.3258430077	 0.101225
H	 4.8605165337	 0.9823939571	-1.7907038254	 0.098517
H	 2.8669919551	-0.5214140586	-1.3650418038	 0.106354
H	 1.854322497	 0.7354680642	-2.0846484924	 0.118435
32.6143	61.5263	140.1357	201.9414	251.1795	356.474	381.2118	402.6902	512.9868	585.4999	624.5538	738.7119	747.3127	795.9066	851.1488	874.3748	898.2373	933.2265	956.5399	993.5085	1015.3122	1029.9997	1032.2377	1087.3946	1133.2798	1171.6863	1176.1814	1185.7511	1223.8586	1228.8486	1243.0242	1257.969	1268.4374	1283.4629	1301.2217	1326.7245	1428.2029	1471.0448	1480.6768	1485.7028	1498.796	1504.1299	1799.0802	2922.3488	3053.8728	3058.0318	3063.4483	3076.4801	3083.5281	3100.4579	3105.0798	3122.1414	3141.4974	3618.3053
O=CNC12CCC1CC2	O=CN[C@]12CC[C@H]1CC2	
InChI=1S/C7H11NO/c9-5-8-7-3-1-6(7)2-4-7/h5-6H,1-4H2,(H,8,9)	InChI=1S/C7H11NO/c9-5-8-7-3-1-6(7)2-4-7/h5-6H,1-4H2,(H,8,9)/t6-,7-
