21
gdb 57375	2.37409	1.36243	1.15048	3.9334	78.64	-0.2402	-0.0155	0.2247	1184.7138	0.179017	-424.228936	-424.218819	-424.217874	-424.263378	38.41	
C	 0.2889495661	 1.5064106275	 0.2635324141	-0.415702
C	-0.0021053665	 0.0183520472	-0.0022488645	 0.223126
C	 0.2571096143	-0.8022335696	 1.2687475468	-0.434244
O	-1.3762874304	-0.1502861451	-0.3880350782	-0.463694
C	 0.7935861438	-0.4546470092	-1.224166233	 0.282621
C	 2.2820365237	-0.7599220603	-1.134931261	-0.302252
C	 1.325432091	-1.8797094676	-1.3575992577	-0.301406
C	 0.3675616637	 0.1418802008	-2.5302743742	 0.10026
O	 0.9402349224	-0.056149245	-3.5775032967	-0.28806
H	 1.3364192047	 1.658031682	 0.5405582075	 0.123998
H	 0.0770294828	 2.1143235148	-0.6202337171	 0.125867
H	-0.3319355701	 1.8778405395	 1.0873031807	 0.104466
H	-0.3112839349	-0.371480865	 2.1007028381	 0.107899
H	-0.0771838641	-1.8333130047	 1.1362790337	 0.132035
H	 1.3107353221	-0.802317591	 1.5630315552	 0.120091
H	-1.9262874593	 0.2444035818	 0.297119743	 0.277971
H	 2.8756278153	-0.4284197991	-1.979231847	 0.138203
H	 2.7561435902	-0.6660313054	-0.1645533328	 0.115405
H	 1.1306358809	-2.568381371	-0.5455239136	 0.1192
H	 1.2714314239	-2.3042748076	-2.3532292497	 0.138378
H	-0.5365669994	 0.777925807	-2.4852269436	 0.095839
57.6726	123.9426	208.3572	222.7733	243.6811	266.4937	272.252	298.5381	328.5464	347.078	371.3284	379.7726	474.4272	512.7009	584.9258	715.7209	794.3306	827.2101	845.4806	916.2978	919.0478	952.4273	975.1992	992.2207	1028.009	1062.1379	1071.7284	1104.4312	1133.3414	1183.4798	1194.3723	1209.206	1257.2776	1314.9193	1384.9042	1397.1339	1415.9996	1431.6865	1447.8843	1476.1861	1486.2232	1488.0051	1501.7222	1512.1573	1800.3398	2953.8136	3030.0594	3038.7153	3096.1571	3103.2469	3121.9006	3130.3351	3139.9189	3151.4243	3228.3267	3246.6619	3807.2401
CC(C)(O)C1(CC1)C=O	CC(C)(O)C1(CC1)C=O	
InChI=1S/C7H12O2/c1-6(2,9)7(5-8)3-4-7/h5,9H,3-4H2,1-2H3	InChI=1S/C7H12O2/c1-6(2,9)7(5-8)3-4-7/h5,9H,3-4H2,1-2H3
