18
gdb 26817	3.35717	1.10822	0.84189	3.4453	88.04	-0.2131	-0.0378	0.1753	1352.1741	0.147219	-402.024217	-402.014886	-402.013941	-402.05924	32.995	
C	-0.0045490691	 1.4901899173	 0.1134219728	-0.50404
C	-0.0000944782	 0.0041215534	-0.0303174355	 0.23913
C	-0.0103153068	-0.7922846774	-1.1796112771	 0.216536
C	-0.0350942603	-0.3062413662	-2.599121886	-0.506428
C	 0.0256620335	-2.134851012	-0.7461877292	-0.310811
C	 0.0573285772	-2.1393229379	 0.6433073312	 0.218305
N	 0.0419122401	-0.8237554917	 1.0472915722	-0.339894
C	 0.0874342329	-3.2015891075	 1.615820851	 0.070351
O	 0.1045078845	-3.0177028579	 2.8220082935	-0.330647
H	 1.0085793998	 1.8936503356	 0.2362950126	 0.142589
H	-0.4360438888	 1.9607133811	-0.773425742	 0.141357
H	-0.5918609672	 1.807482151	 0.9815098145	 0.133042
H	 0.9588573793	-0.0052794205	-2.9528077208	 0.129268
H	-0.393561405	-1.0910687101	-3.2711180741	 0.127945
H	-0.6953864344	 0.5587551816	-2.7242043756	 0.123952
H	 0.0221997011	-3.0134721835	-1.3753430513	 0.106453
H	 0.0476886891	-0.5638613653	 2.0211444446	 0.271966
H	 0.0950151224	-4.2244394101	 1.1840732794	 0.070925
54.6636	63.9006	113.8256	156.7424	202.9275	253.7409	276.8446	356.6188	384.6621	504.0813	600.2014	623.3186	655.0676	674.4537	708.5063	804.7753	831.629	994.0313	1001.1824	1022.0653	1037.7673	1048.6256	1067.571	1164.2568	1177.7197	1245.8158	1359.9178	1386.5656	1408.1663	1419.6656	1443.0917	1477.5336	1480.5915	1487.5713	1496.1162	1516.7486	1532.9689	1613.6952	1749.07	2909.2467	3022.9369	3024.0606	3074.3808	3079.4931	3107.0094	3120.2044	3236.9552	3650.5332
CC1=C(C)C=C(N1)C=O	Cc1c(C)cc([nH]1)C=O	
InChI=1S/C7H9NO/c1-5-3-7(4-9)8-6(5)2/h3-4,8H,1-2H3	InChI=1S/C7H9NO/c1-5-3-7(4-9)8-6(5)2/h3-4,8H,1-2H3
