19
gdb 54402	3.19506	1.42304	1.17485	2.4133	75.66	-0.2443	-0.0183	0.226	1094.9708	0.158988	-423.025952	-423.017757	-423.016813	-423.05961	31.339	
C	-0.2884047221	 1.4643916452	-0.0602367822	-0.479962
C	 0.0431793851	-0.0066944602	 0.0233934014	 0.269641
O	 0.3084327029	-0.5715057453	 1.0617035229	-0.311239
C	 0.0380239249	-0.7985047393	-1.2619588468	 0.36875
C	 1.2572965354	-1.6421610704	-1.7341544265	-0.257791
C	 0.1607263533	-2.2512764918	-2.6610683365	-0.093726
C	-0.8083945012	-2.0906865104	-1.4495940813	-0.257771
C	-0.2214963638	-1.0086757204	-3.4770816476	-0.080254
O	-0.2916322458	-0.0169198538	-2.4230129895	-0.330426
H	 0.4118961986	 1.9668585102	-0.735824669	 0.149672
H	-1.2809152767	 1.598614664	-0.5032061667	 0.149703
H	-0.2485004561	 1.9093713245	 0.934503	 0.133863
H	 2.08388866	-1.0939333176	-2.1927412367	 0.101511
H	 1.609992228	-2.3298309015	-0.9663600471	 0.12453
H	 0.2905476488	-3.1897953261	-3.1979759885	 0.079545
H	-0.6388152333	-2.8181226282	-0.6565787217	 0.124535
H	-1.8742724135	-1.9533735128	-1.6474823583	 0.101512
H	 0.5356635764	-0.7171815392	-4.2139318495	 0.103954
H	-1.1938903409	-1.0927248969	-3.9756739465	 0.103954
25.6375	141.6503	179.2361	182.2351	343.6102	359.5689	433.3899	467.8424	545.2137	587.3426	614.0129	667.5636	825.7199	863.7968	880.4004	892.2402	937.9163	948.6749	958.4911	981.9409	989.8054	1017.1599	1066.3524	1087.4938	1100.3835	1113.5418	1151.6552	1169.8625	1185.7704	1233.0099	1246.9108	1289.0617	1334.1284	1359.5653	1386.8514	1453.0441	1462.876	1475.2963	1506.4311	1530.9719	1802.3078	3027.0404	3043.834	3068.1057	3072.4246	3075.2152	3104.8336	3129.3686	3152.0194	3156.847	3158.9679
CC(=O)C12CC(C1)CO2	CC(=O)[C@@]12C[C@@H](C1)CO2	
InChI=1S/C7H10O2/c1-5(8)7-2-6(3-7)4-9-7/h6H,2-4H2,1H3	InChI=1S/C7H10O2/c1-5(8)7-2-6(3-7)4-9-7/h6H,2-4H2,1H3/t6-,7+
