15
gdb 29991	3.32362	1.58386	1.12013	0.8179	74.16	-0.1988	-0.0311	0.1677	1020.9762	0.114491	-420.642513	-420.635596	-420.634651	-420.673795	27.281	
O	 0.2229771531	 1.423792465	-0.2043432119	-0.41614
C	 0.0362550528	 0.0281617398	-0.0398777564	-0.061858
C	 0.6039883909	-0.5452572948	 1.2714410116	-0.126325
C	-0.3045213619	-1.3059804537	 1.9126569178	-0.217182
C	-1.5184098691	-1.2580396873	 1.1103767341	 0.327312
C	-1.3881038045	-0.4812048463	 0.0001135193	 0.193384
C	-2.644905987	-0.5428520786	-0.6704832811	-0.372794
C	-3.4290385228	-1.3512177098	 0.1054055033	-0.017469
O	-2.7449861799	-1.8058244601	 1.2090599461	-0.19953
H	-0.2685537932	 1.8603932135	 0.5003105427	 0.286077
H	 0.5785523366	-0.4298106678	-0.8786543293	 0.118503
H	 1.6171683589	-0.3377724019	 1.5888889237	 0.111208
H	-0.1732643409	-1.8456594445	 2.84062355	 0.118529
H	-2.9503580104	-0.0613571542	-1.5865564933	 0.120122
H	-4.4494361626	-1.6873647192	 0.0277799934	 0.136163
134.065	164.821	282.4647	336.4272	360.0181	486.8904	554.349	602.8711	643.5618	690.1428	707.076	721.6434	770.4261	828.4519	847.4414	920.1378	935.5307	965.2519	1031.7356	1053.1033	1074.1789	1145.0128	1165.603	1210.7143	1244.4393	1263.267	1310.3624	1399.8479	1423.2267	1473.9069	1488.4289	1569.2208	1624.3363	3025.6046	3218.172	3240.1057	3252.66	3287.4335	3802.9084
OC1C=CC2=C1C=CO2	O[C@H]1C=Cc2c1cco2	
InChI=1S/C7H6O2/c8-6-1-2-7-5(6)3-4-9-7/h1-4,6,8H	InChI=1S/C7H6O2/c8-6-1-2-7-5(6)3-4-9-7/h1-4,6,8H/t6-/m0/s1
