17
gdb 127060	5.50998	0.76337	0.70845	2.6126	71.4	-0.2723	-0.0294	0.2429	1595.0837	0.135465	-455.135341	-455.126551	-455.125607	-455.17079	29.98	
C	-0.0878614636	 1.4326840572	 0.3960171199	-0.386993
C	-0.0542614029	-0.0317289672	-0.0020517018	-0.026974
O	-1.3779680721	-0.5391965925	 0.0520164842	-0.242436
C	-1.4553547175	-1.8980582963	-0.2957029571	-0.175758
C	-2.8691886333	-2.3567088405	-0.1481444559	 0.426003
N	-3.5964255055	-2.988918836	-1.0211935663	-0.31221
C	-4.7653139285	-3.1748965798	-0.3242293261	 0.03701
N	-4.7734846665	-2.694505295	 0.8880687192	-0.107021
O	-3.4932816607	-2.1442112096	 1.0151854799	-0.182581
H	 0.92060113	 1.855514011	 0.367342227	 0.11932
H	-0.7234565083	 2.0016258504	-0.2879618837	 0.13266
H	-0.4848243838	 1.5453722573	 1.4084953471	 0.134375
H	 0.3535144176	-0.1513590457	-1.0194100888	 0.093629
H	 0.5954004071	-0.6077326278	 0.6778863821	 0.092995
H	-1.1529349815	-2.0825574409	-1.3364082302	 0.130339
H	-0.8067920521	-2.5099989488	 0.3552754551	 0.118637
H	-5.6298216384	-3.6762070859	-0.7342172746	 0.149007
31.3733	69.5396	92.227	118.8536	243.0949	252.8362	311.7247	357.6341	471.7196	658.3676	705.912	786.4135	822.7227	904.335	923.575	930.1583	980.9045	1008.7726	1036.8162	1049.0985	1144.4796	1161.5219	1184.0634	1190.3495	1238.803	1265.7036	1297.3809	1342.9475	1376.0261	1405.5163	1442.6848	1483.2109	1497.8322	1502.6633	1519.1858	1532.0958	1628.745	2955.3109	2963.92	2988.4758	3025.396	3047.8041	3122.7627	3126.4448	3262.6594
CCOCC1=NC=NO1	CCOCc1ncno1	
InChI=1S/C5H8N2O2/c1-2-8-3-5-6-4-7-9-5/h4H,2-3H2,1H3	InChI=1S/C5H8N2O2/c1-2-8-3-5-6-4-7-9-5/h4H,2-3H2,1H3
