15
gdb 125258	2.44189	1.48611	0.92921	3.8566	72.71	-0.2424	-0.0412	0.2012	1183.0118	0.112995	-453.991856	-453.983806	-453.982862	-454.024509	29.689	
C	-0.0863956018	 1.5202471871	 0.0607837197	-0.505781
C	-0.0144387413	 0.0324055625	-0.062643312	 0.436707
C	-0.0007925629	-0.7502131884	-1.1821161736	-0.426299
C	 0.0776476638	-2.0856049397	-0.6877194208	 0.477682
O	 0.1149934036	-3.1813833913	-1.4590899061	-0.417692
N	 0.1109631719	-2.1505385334	 0.6217553985	-0.3483
N	 0.053963564	-0.8349201728	 1.0189368888	-0.102927
C	 0.0676651767	-0.4895149547	 2.3685165831	 0.178786
O	 0.1274408601	-1.2675888882	 3.279555816	-0.272371
H	 0.7901192809	 1.9350519318	 0.5696756185	 0.149585
H	-0.131596679	 1.9596210477	-0.9376483851	 0.147286
H	-0.975656184	 1.8462624746	 0.6105445594	 0.149584
H	-0.0404959077	-0.4298098839	-2.2099679858	 0.12553
H	 0.1669561138	-3.9455964318	-0.8689230006	 0.312053
H	 0.0152790219	 0.6057364705	 2.4945561501	 0.096157
125.2357	166.4371	201.2661	204.2699	236.7936	287.1528	418.9771	449.4907	481.6403	568.5066	602.6792	635.2978	704.3532	719.2896	807.3331	898.2418	989.1708	1017.2117	1034.6527	1063.4559	1128.324	1177.9774	1240.9449	1336.2735	1373.8286	1418.2345	1460.3003	1483.7465	1490.6726	1529.6135	1558.5304	1647.1492	1836.0874	2989.568	3039.1471	3093.5416	3132.0944	3273.772	3777.7233
CC1=CC(O)=NN1C=O	Cc1cc(O)nn1C=O	
InChI=1S/C5H6N2O2/c1-4-2-5(9)6-7(4)3-8/h2-3H,1H3,(H,6,9)	InChI=1S/C5H6N2O2/c1-4-2-5(9)6-7(4)3-8/h2-3H,1H3,(H,6,9)
