21
gdb 68111	4.41207	1.04082	1.0205	1.6576	83.73	-0.2259	0.0913	0.3172	1286.5633	0.181564	-387.023201	-387.014586	-387.013641	-387.056495	33.832	
C	-0.1073461566	 1.3965418869	-0.0484900596	-0.508979
C	 0.0792898685	-0.0874259675	-0.001291674	 0.402668
C	 0.7469958957	-1.0383564755	-1.0266733181	-0.30007
C	 0.0205697656	-1.8922561851	 0.0466085654	 0.446601
C	 0.6157909683	-0.9790870273	 1.1508644611	-0.304804
O	-1.1326512112	-0.9463376974	-0.0498239349	-0.380631
C	-0.2548106238	-3.3468231507	 0.0546804898	-0.139845
C	 0.6951109415	-4.2832041081	 0.7662104183	-0.269573
C	-0.6789272482	-4.0382784796	 1.3273133572	-0.261599
H	 0.8614815183	 1.903894072	-0.0023189832	 0.123665
H	-0.6081644998	 1.6901802362	-0.9760689823	 0.131668
H	-0.715775162	 1.7340444498	 0.7961032456	 0.131173
H	 0.2842086571	-1.0487489812	-2.0151481919	 0.098206
H	 1.8394105138	-1.0786351944	-1.0637420234	 0.087553
H	 1.6959174381	-1.0085500401	 1.3213242776	 0.088132
H	 0.0372518673	-0.9275069056	 2.0749148916	 0.100783
H	-0.6979686927	-3.712661699	-0.8671169771	 0.090992
H	 0.9069669119	-5.2392015922	 0.3011603176	 0.114359
H	 1.5397547909	-3.8432421743	 1.2855740273	 0.115055
H	-0.7618822273	-3.4354410925	 2.2245449243	 0.119232
H	-1.4190994154	-4.8262822045	 1.2488483885	 0.115413
59.8009	145.0119	151.361	196.3468	284.6426	294.3226	393.4098	446.6019	527.4172	575.2762	613.054	638.1028	703.4582	774.3048	796.8356	831.0467	894.5932	907.0184	936.7312	952.1736	955.9189	987.1775	1036.896	1062.0104	1068.1399	1080.516	1087.0973	1118.5167	1130.0723	1152.5867	1169.3917	1173.3181	1198.4396	1210.7266	1221.289	1287.0717	1348.3404	1409.9283	1433.6885	1464.6929	1469.7209	1477.5517	1489.2844	1503.8992	1529.5831	3038.2705	3047.7082	3058.3646	3112.1712	3113.6668	3132.2889	3134.9872	3137.639	3141.236	3148.4625	3214.8045	3230.5841
CC12CC(C1)(O2)C1CC1	C[C@@]12C[C@@](C1)(O2)C1CC1	
InChI=1S/C8H12O/c1-7-4-8(5-7,9-7)6-2-3-6/h6H,2-5H2,1H3	InChI=1S/C8H12O/c1-7-4-8(5-7,9-7)6-2-3-6/h6H,2-5H2,1H3/t7-,8+
