22
gdb 60842	1.93222	1.41046	1.17973	1.3388	82.47	-0.2425	-0.0215	0.221	1232.546	0.191263	-404.344733	-404.334162	-404.333218	-404.38023	38.503	
C	 0.0093692355	 1.4716471383	-0.4012189352	-0.425037
C	 0.0103417052	 0.0157199002	 0.1073466818	-0.12814
C	 0.787685564	-0.0846341653	 1.4046423936	 0.161324
O	 0.4046431991	-0.6069097608	 2.4213596459	-0.253986
C	-1.379752546	-0.6053481351	 0.1804036739	 0.34679
C	-2.3822855089	 0.10331816	 1.0726130961	-0.490551
N	-1.8551614506	-1.1228302432	-1.1223798312	-0.391787
C	-1.5656941354	-2.0700310613	-0.0263137157	-0.026705
C	-0.4655364649	-3.0832272936	-0.2362310505	-0.411322
H	 1.0313691887	 1.8473689114	-0.5139019349	 0.119047
H	-0.478947089	 1.5158779161	-1.3778985391	 0.141753
H	-0.5195630788	 2.1430937905	 0.2813704225	 0.127529
H	 0.5994747885	-0.5581193022	-0.6207303594	 0.107178
H	 1.8023248373	 0.3778083712	 1.3530019646	 0.07633
H	-2.5906541767	 1.1194110457	 0.7194430457	 0.116038
H	-3.3312541631	-0.442177293	 1.0884443635	 0.110358
H	-2.0110764863	 0.1648642072	 2.0989141675	 0.147931
H	-2.8578497298	-0.9769602496	-1.2124193406	 0.223407
H	-2.4305972265	-2.4798006646	 0.4952194574	 0.079426
H	 0.3445411375	-2.6842617687	-0.8504264856	 0.121698
H	-0.0512705436	-3.408069407	 0.7239753884	 0.129374
H	-0.8585518262	-3.9662217164	-0.7516741087	 0.119345
51.8801	100.3385	142.5563	183.7966	191.3103	213.9452	222.8427	252.4578	287.3161	309.4587	412.5734	418.6321	472.297	520.2503	637.2794	713.6791	785.6177	843.9971	900.8691	917.2328	940.4134	977.0108	1019.7006	1022.4268	1052.5751	1080.8379	1108.097	1133.6163	1144.0732	1160.8714	1243.5733	1289.9935	1300.3633	1324.895	1376.7767	1398.6815	1407.5416	1413.9653	1435.1038	1463.954	1485.4132	1492.2496	1497.1732	1503.066	1507.788	1512.8853	1824.2821	2848.9363	3025.353	3031.863	3039.1364	3041.656	3091.9106	3097.8577	3103.2743	3108.6252	3121.3216	3125.4125	3131.9716	3491.7663
CC(C=O)C1(C)NC1C	C[C@@H](C=O)[C@@]1(C)N[C@H]1C	
InChI=1S/C7H13NO/c1-5(4-9)7(3)6(2)8-7/h4-6,8H,1-3H3	InChI=1S/C7H13NO/c1-5(4-9)7(3)6(2)8-7/h4-6,8H,1-3H3/t5-,6-,7+/m0/s1
