17
gdb 31271	2.37205	1.35755	0.92691	0.8487	72.74	-0.1991	0.0303	0.2294	1255.3534	0.134911	-458.96902	-458.959814	-458.95887	-459.004554	32.175	
C	-0.0612751434	 1.2728616247	-0.298111945	-0.254358
O	-0.1033756755	 0.0397610083	 0.4260732219	-0.269802
C	-1.2320431316	-0.6705515191	 0.3177165681	 0.354358
C	-1.4204130429	-2.017114294	 0.2514696834	 0.142052
C	-0.366249111	-3.068141161	 0.1898530921	-0.213686
O	-0.5806279109	-3.8654781816	-0.9749224187	-0.419565
C	-2.8507495281	-2.1921311778	 0.2479690657	-0.255948
C	-3.3991576409	-0.9567485002	 0.3028872655	-0.023697
O	-2.4120902666	-0.0016295808	 0.3572712051	-0.19277
H	 0.9398775585	 1.676948066	-0.1436561402	 0.137349
H	-0.2315402542	 1.1019983046	-1.367234725	 0.130267
H	-0.8067198282	 1.9777877762	 0.0805915761	 0.141239
H	 0.6209392247	-2.5832750865	 0.1733831384	 0.099434
H	-0.4050441067	-3.6991518584	 1.0929175357	 0.091692
H	 0.0359597458	-4.603550891	-0.9388263875	 0.283745
H	-3.3800066487	-3.1300247756	 0.1862315792	 0.116645
H	-4.4069309703	-0.5784729039	 0.2953285853	 0.133045
29.0339	55.784	151.8567	158.3088	189.9864	251.7791	288.609	317.9371	425.1325	542.1677	607.2881	630.0484	683.5159	742.4859	751.957	829.1967	905.2688	991.3769	1029.2473	1042.5008	1064.7437	1129.4881	1169.9798	1179.9661	1202.3668	1233.5558	1251.2409	1289.3583	1309.7994	1427.5527	1461.7694	1486.234	1493.5945	1504.5265	1517.0768	1565.0651	1693.8926	2961.0842	3007.5439	3029.2793	3104.5475	3146.9696	3257.6657	3291.8935	3816.535
COC1=C(CO)C=CO1	COc1c(CO)cco1	
InChI=1S/C6H8O3/c1-8-6-5(4-7)2-3-9-6/h2-3,7H,4H2,1H3	InChI=1S/C6H8O3/c1-8-6-5(4-7)2-3-9-6/h2-3,7H,4H2,1H3
