20
gdb 59286	2.56876	1.31703	1.0826	3.0754	81.71	-0.2067	0.0013	0.2081	1221.7239	0.170472	-403.205346	-403.19616	-403.195216	-403.239604	34.318	
C	 0.0170713355	 1.5523765536	-0.0186140894	-0.386929
C	-0.0144457424	 0.0206439341	 0.0542815864	 0.028918
C	 0.7912201613	-0.5201906517	 1.2420675672	-0.386967
N	-1.3848549278	-0.4844069853	 0.0655208396	-0.083408
C	-2.3579897258	-0.2483781026	 1.0522061739	-0.010015
C	-3.5164017129	-0.8515483398	 0.7682605436	-0.16151
C	-3.3576646231	-1.5835680683	-0.5369001635	-0.393674
C	-1.9054236563	-1.2876915577	-0.9399523892	 0.408178
O	-1.3060017386	-1.6608111162	-1.92555969	-0.38802
H	 1.048847409	 1.9055458264	-0.1079724772	 0.121332
H	-0.5457557705	 1.9122786909	-0.8840998133	 0.129203
H	-0.4119349797	 2.0058546112	 0.8819054098	 0.113594
H	 0.4036372585	-0.3862871413	-0.8714610543	 0.124076
H	 1.834019975	-0.196635678	 1.1702797157	 0.121345
H	 0.3952156582	-0.1537747839	 2.1957649575	 0.113598
H	 0.7707880579	-1.6131723846	 1.2605998811	 0.129161
H	-2.1043176073	 0.3636049272	 1.9059722655	 0.12603
H	-4.4123408899	-0.8211977023	 1.3683714004	 0.106449
H	-3.5007051471	-2.6676911536	-0.4591199665	 0.144298
H	-4.0334685239	-1.2360400882	-1.3270459173	 0.144342
47.5066	97.6665	176.9423	195.7185	225.8994	254.4716	295.9157	397.4224	429.5119	454.8162	549.4857	595.3521	611.6831	692.534	715.9567	852.1379	876.9173	908.0009	933.6283	948.3431	952.8393	977.2632	1002.5837	1085.2255	1145.2236	1146.1843	1151.1524	1190.3094	1242.8579	1266.5074	1289.9849	1365.8155	1398.9501	1400.4043	1419.943	1431.2741	1435.1004	1484.0457	1490.3687	1501.3565	1507.0986	1667.271	1809.2388	3033.805	3037.4137	3044.1423	3072.4806	3075.2539	3100.039	3110.6607	3118.9715	3121.5859	3233.142	3260.2156
CC(C)N1C=CCC1=O	CC(C)N1C=CCC1=O	
InChI=1S/C7H11NO/c1-6(2)8-5-3-4-7(8)9/h3,5-6H,4H2,1-2H3	InChI=1S/C7H11NO/c1-6(2)8-5-3-4-7(8)9/h3,5-6H,4H2,1-2H3
