16
gdb 11298	4.88639	1.3551	1.2236	4.0137	64.91	-0.2399	0.0248	0.2646	981.1242	0.132023	-379.928856	-379.921049	-379.920105	-379.962305	28.227	
O	-0.5289496686	 1.2929539209	 0.7529062732	-0.434051
C	 0.0311043955	 0.2118935961	 0.0245590839	 0.134691
C	 0.8192231231	-0.761378276	 0.9085265151	-0.193366
N	-0.2303289992	-1.4795935637	 1.6349048969	-0.306075
C	-1.4318909943	-1.5708912683	 0.7783872679	-0.07188
C	-1.1357382146	-0.6581558275	-0.4479910428	-0.240332
C	-1.7323538781	-2.9504635735	 0.3731856271	 0.246712
N	-1.9468771342	-4.047442451	 0.0764732326	-0.326654
H	 0.1733663068	 1.7232207534	 1.2505481283	 0.286387
H	 0.6380381632	 0.5749839938	-0.8162711363	 0.075387
H	 1.448623567	-1.4033769319	 0.2700061756	 0.097222
H	 1.4835099928	-0.2400059622	 1.6089504583	 0.100691
H	 0.0660911312	-2.3814470562	 1.9829067937	 0.238652
H	-2.3021312914	-1.1937983789	 1.3287006584	 0.132938
H	-1.9985259055	-0.0557284589	-0.7334262009	 0.132742
H	-0.8298668439	-1.2609636762	-1.3060491109	 0.126937
17.2858	141.0693	191.1076	243.7676	263.1929	382.4337	404.0579	507.1971	550.0628	594.8748	702.8421	807.7896	851.1059	880.3548	916.574	974.4484	1000.9082	1014.4918	1060.958	1111.4152	1139.1909	1184.5955	1199.578	1243.9957	1291.2989	1325.1353	1330.9275	1361.6248	1370.4477	1413.9816	1452.7649	1481.7196	1518.4163	2347.9202	2963.8723	3010.5233	3029.9478	3041.1316	3083.5591	3142.4359	3580.3756	3821.8762
OC1CNC(C1)C#N	O[C@H]1CN[C@@H](C1)C#N	
InChI=1S/C5H8N2O/c6-2-4-1-5(8)3-7-4/h4-5,7-8H,1,3H2	InChI=1S/C5H8N2O/c6-2-4-1-5(8)3-7-4/h4-5,7-8H,1,3H2/t4-,5+/m0/s1
