17
gdb 115122	3.0968	1.23171	0.91724	5.1625	68.96	-0.2525	-0.0827	0.1699	1245.7901	0.135497	-459.017678	-459.009054	-459.00811	-459.051623	31.	
C	 0.0267681721	 1.6120061374	-0.1937314289	-0.393612
C	 0.0460554202	 0.0874461459	-0.0479047551	-0.195931
C	-1.3453189748	-0.5233478535	 0.1625084404	-0.12408
C	-1.4053146702	-2.0582530255	 0.0705600167	-0.115112
O	-2.4448748085	-2.5072193561	 0.9698547886	-0.216909
C	-2.7636618369	-1.5575796161	 1.8802862875	 0.365565
O	-3.5294852362	-1.7194248296	 2.7808029042	-0.30995
C	-1.9808265101	-0.2724301343	 1.5180302177	 0.257633
O	-1.9203283785	 0.6965872093	 2.2224765866	-0.272571
H	 1.0397565328	 1.9971876726	-0.3409056961	 0.119317
H	-0.5742475081	 1.9160076297	-1.0579774711	 0.115776
H	-0.3962364017	 2.0825154786	 0.6961514394	 0.156015
H	 0.4895512319	-0.3664787153	-0.9432514598	 0.106714
H	 0.6883478104	-0.2003744447	 0.7934895543	 0.112924
H	-2.0450672056	-0.1037704571	-0.5763182085	 0.126635
H	-1.6552639358	-2.4277886173	-0.9251491316	 0.136737
H	-0.4604255011	-2.513868464	 0.3874286857	 0.130848
52.4515	110.682	163.4738	180.5641	244.0607	278.3231	334.5372	367.3137	440.6909	581.889	598.8752	644.9673	734.3411	766.6065	830.7936	898.6447	976.358	1017.3973	1017.7862	1041.1122	1074.4768	1131.0024	1153.3684	1204.0205	1235.6584	1267.0231	1291.8176	1340.1063	1372.0197	1402.9407	1415.2358	1488.124	1497.7949	1513.9512	1522.8057	1861.9952	1887.2367	3000.8066	3022.3629	3040.2566	3048.0215	3059.8682	3106.2945	3119.1195	3139.178
CCC1COC(=O)C1=O	CC[C@H]1COC(=O)C1=O	
InChI=1S/C6H8O3/c1-2-4-3-9-6(8)5(4)7/h4H,2-3H2,1H3	InChI=1S/C6H8O3/c1-2-4-3-9-6(8)5(4)7/h4H,2-3H2,1H3/t4-/m0/s1
