19
gdb 103584	2.76792	1.26719	1.11406	4.7134	77.88	-0.2649	-0.041	0.2239	1188.415	0.158365	-423.090085	-423.081218	-423.080274	-423.123497	33.521	
C	 0.032909447	 1.5440342984	-0.154111292	-0.396068
C	-0.0298213621	 0.0260734242	 0.0393322015	-0.192775
C	-1.4579313012	-0.5572855559	 0.0877520501	 0.300474
C	-2.3123699377	 0.021168344	 1.2222055064	-0.421295
O	-2.1142988213	-0.2637699949	-1.1652990821	-0.252569
C	-2.4407142865	-1.4207127802	-1.8278692075	 0.403288
O	-2.9884711255	-1.4240326685	-2.8938009476	-0.347273
C	-1.9930023158	-2.5550647647	-0.9818630028	-0.241182
C	-1.4301385429	-2.0662784797	 0.1196763601	-0.096654
H	 1.0713472679	 1.8655620353	-0.2757127976	 0.117693
H	-0.5230491566	 1.8422701383	-1.0466220443	 0.145002
H	-0.3796816429	 2.0845097647	 0.7026883876	 0.118918
H	 0.4987444516	-0.4709461198	-0.7815227951	 0.111601
H	 0.4855628353	-0.2609982221	 0.964391252	 0.09884
H	-2.437441495	 1.0985195965	 1.0967725118	 0.140824
H	-3.3021902338	-0.4418519678	 1.2236876116	 0.132193
H	-1.8384998502	-0.1647542908	 2.1910602981	 0.119662
H	-2.1357199332	-3.5838742907	-1.2779788628	 0.134188
H	-0.9982356572	-2.6170284663	 0.9462209924	 0.125133
90.3886	118.1498	181.523	214.5496	228.3277	287.6751	324.2899	358.8795	411.4018	507.3311	525.9633	610.5969	710.1697	734.641	783.2018	829.7597	842.1214	901.4937	922.9373	967.0669	975.3678	1005.2844	1013.1827	1069.3403	1089.4971	1132.9258	1195.7119	1203.7619	1252.4497	1316.0536	1353.3319	1372.8862	1404.0722	1409.1541	1474.7462	1487.0705	1492.5871	1506.5977	1510.7745	1664.3092	1868.5124	3030.5502	3046.4649	3049.1417	3071.795	3112.4812	3122.1978	3128.9655	3137.6689	3212.4093	3254.3482
CCC1(C)OC(=O)C=C1	CC[C@@]1(C)OC(=O)C=C1	
InChI=1S/C7H10O2/c1-3-7(2)5-4-6(8)9-7/h4-5H,3H2,1-2H3	InChI=1S/C7H10O2/c1-3-7(2)5-4-6(8)9-7/h4-5H,3H2,1-2H3/t7-/m1/s1
