16
gdb 52594	2.04047	1.09794	0.91557	4.1332	83.87	-0.27	0.0108	0.2808	1387.2799	0.120093	-363.558001	-363.54748	-363.546536	-363.594908	36.226	
C	-0.0263564758	 1.486245996	 0.0356431331	-0.500717
C	-0.0046336205	 0.0317796648	 0.0144292822	 0.066626
C	 0.0275851713	-1.1698828121	-0.0012720148	 0.122297
C	 0.0297591929	-2.6413423182	-0.023597982	-0.295399
C	-1.4311050247	-3.1828738146	-0.1039980437	-0.396104
C	 0.8096359664	-3.141919026	-1.1689250858	 0.359044
C	 1.4132885027	-3.5642266438	-2.1157338837	-0.448813
C	 0.6450592445	-3.1442889041	 1.2308391515	 0.310788
N	 1.0963592228	-3.5457154531	 2.2150005357	-0.34123
H	 0.5411874803	 1.8997883201	-0.8046242048	 0.158338
H	-1.0504326734	 1.8685342266	-0.0297678907	 0.155188
H	 0.4166376682	 1.870027516	 0.9606282066	 0.16118
H	-1.8897392169	-2.8196735464	-1.0249659088	 0.145255
H	-1.4221963037	-4.2744815892	-0.1073294848	 0.146697
H	-2.0025281668	-2.8231027188	 0.7535530029	 0.14615
H	 1.9616214228	-3.9303861472	-2.9487739829	 0.210699
19.3725	78.4444	94.5396	131.9325	190.2762	202.9792	248.2173	279.6385	301.1493	378.38	455.0004	481.3318	514.2892	551.8023	577.3789	633.9209	652.2486	665.631	862.8464	936.8708	1022.0348	1051.4079	1053.096	1087.6751	1183.9266	1239.0198	1401.3004	1413.1322	1475.1875	1475.6104	1484.6881	1486.0256	2247.3086	2363.0046	2380.6361	3033.2311	3060.2926	3097.3962	3098.5453	3150.3045	3154.048	3500.4424
CC#CC(C)(C#C)C#N	CC#C[C@@](C)(C#C)C#N	
InChI=1S/C8H7N/c1-4-6-8(3,5-2)7-9/h2H,1,3H3	InChI=1S/C8H7N/c1-4-6-8(3,5-2)7-9/h2H,1,3H3/t8-/m1/s1
