15
gdb 9193	8.13877	0.82926	0.7632	4.2666	62.69	-0.2902	-0.0036	0.2866	1402.2174	0.117212	-399.851746	-399.842757	-399.841813	-399.887265	29.398	
C	-0.0588563558	 1.3594686292	 0.0889358271	-0.24398
O	 0.0263217144	-0.068630908	-0.0332808814	-0.233318
C	 0.6487349927	-0.5178142073	-1.1348033934	 0.456138
O	 1.118535076	 0.1935196714	-1.9875739523	-0.353697
C	 0.6763872194	-2.033828272	-1.1538269997	-0.329783
C	 1.3908663742	-2.556067654	-2.4097590062	-0.333248
C	 1.4288751924	-4.0155375105	-2.4505045688	 0.255579
N	 1.4516790056	-5.1705496433	-2.469892449	-0.301377
H	 0.939679304	 1.8021586608	 0.1166795883	 0.145377
H	-0.6099429907	 1.7842370225	-0.7534842161	 0.145405
H	-0.5861776403	 1.5443731197	 1.0242822466	 0.140116
H	 1.1698866423	-2.3887302292	-0.2434989458	 0.156978
H	-0.3520088868	-2.4053929523	-1.1027020611	 0.157049
H	 0.8904129342	-2.1834615481	-3.3086648228	 0.169444
H	 2.4131939185	-2.1679312388	-2.4489659152	 0.169315
25.4839	58.6986	111.1875	115.4177	174.927	223.5818	309.3596	392.8934	403.7687	538.1882	585.3739	708.0432	785.2746	893.9854	961.7486	1008.677	1040.2487	1070.9463	1178.8429	1183.2219	1203.5759	1221.3022	1300.8524	1310.5983	1393.4773	1456.3153	1466.7502	1475.5207	1482.7107	1496.9201	1818.3799	2365.6929	3055.5079	3060.6288	3069.9704	3092.6298	3112.4181	3131.9014	3165.2607
COC(=O)CCC#N	COC(=O)CCC#N	
InChI=1S/C5H7NO2/c1-8-5(7)3-2-4-6/h2-3H2,1H3	InChI=1S/C5H7NO2/c1-8-5(7)3-2-4-6/h2-3H2,1H3
