20
gdb 72017	2.80835	2.00601	1.82302	1.7189	80.2	-0.2325	0.0959	0.3283	888.0113	0.174388	-365.989056	-365.982558	-365.981614	-366.019351	28.374	
C	-0.0131573127	 1.5143203391	 0.0140881171	-0.511324
C	 0.0031458257	 0.0056405332	-0.0541945924	 0.331203
C	 0.801648158	-0.7094961	-1.1598140095	-0.253249
C	 0.6345133294	-2.1102040376	-0.5446322424	-0.00509
C	 1.3307774173	-1.9245788222	 0.8175725598	-0.217938
C	 0.3598064154	-0.8282823921	 1.2795884987	-0.114626
C	-0.9995590367	-1.5260769939	 1.1334975962	-0.045988
C	-1.3246376039	-0.777574024	-0.0984730177	-0.09046
N	-0.8450396856	-2.1786796905	-0.1940490464	-0.127613
H	 0.9941939121	 1.916007953	 0.1695118241	 0.116506
H	-0.4034824791	 1.9473827668	-0.9144893545	 0.116711
H	-0.64452036	 1.8700356661	 0.8356840136	 0.118038
H	 0.3252313229	-0.6033910497	-2.1398641757	 0.096993
H	 1.8503314282	-0.403876286	-1.2373090709	 0.091211
H	 0.9237906306	-2.9690004918	-1.1486771806	 0.070052
H	 1.2877061189	-2.8129747896	 1.455170958	 0.100421
H	 2.3726390248	-1.6056966695	 0.716915664	 0.093761
H	 0.5799547044	-0.2608745909	 2.1822215923	 0.065419
H	-1.6238465226	-1.9905516793	 1.8889522409	 0.085769
H	-2.2682515871	-0.4966749611	-0.5557250944	 0.080203
223.92	245.7782	270.8373	415.7977	472.4163	546.6598	580.6701	660.3945	676.2937	762.7834	815.2854	815.7596	859.6597	862.2489	902.7951	911.6617	918.8304	929.7864	958.5007	967.2102	991.2149	995.7504	1031.9047	1048.377	1086.2503	1119.3259	1153.2296	1164.2678	1188.5786	1205.1513	1225.5922	1242.9662	1250.452	1277.5821	1297.2683	1304.4753	1339.4066	1364.4679	1414.8287	1480.8008	1493.0259	1496.3061	1504.4372	3022.3594	3043.0717	3051.7606	3085.1913	3091.345	3093.4981	3103.2553	3127.2869	3132.2833	3152.9582	3171.7056
CC12CC3CC1C1C2N31	C[C@@]12C[C@H]3C[C@@H]1[C@H]1[C@@H]2N31	
InChI=1S/C8H11N/c1-8-3-4-2-5(8)6-7(8)9(4)6/h4-7H,2-3H2,1H3	InChI=1S/C8H11N/c1-8-3-4-2-5(8)6-7(8)9(4)6/h4-7H,2-3H2,1H3/t4-,5-,6+,7+,8-,9?/m1/s1
