23
gdb 88691	3.17769	0.95159	0.87335	2.5343	87.98	-0.217	0.0727	0.2897	1477.7124	0.204213	-384.418104	-384.407885	-384.40694	-384.453567	38.186	
C	 0.5274972624	 1.6788286479	-0.5765015081	-0.310132
N	 0.1281892469	 0.3143404738	-0.2687806304	-0.08528
C	 1.1635260781	-0.6263764457	 0.1339365716	-0.26187
C	 0.139456473	-0.163987042	 1.1186410379	 0.019602
C	 0.541653863	 0.7001430594	 2.2710818576	-0.06847
N	-0.5457037793	 1.2700324586	 3.0988710121	-0.376927
C	 0.3942159418	 0.3106128746	 3.7072731004	 0.315378
C	-0.215715666	-1.0151286907	 4.1192994273	-0.43709
C	 1.4270439949	 0.8431251188	 4.6827612114	-0.455732
H	 1.4195492577	 2.0351790722	-0.036881435	 0.094605
H	 0.7432908025	 1.7435479009	-1.6479576733	 0.121933
H	-0.3019722292	 2.357855515	-0.3551311054	 0.128191
H	 1.1137342169	-1.6210865528	-0.302224252	 0.112279
H	 2.1761056569	-0.2415862679	 0.2643465955	 0.098966
H	-0.6992853945	-0.8208277581	 1.3323710258	 0.092867
H	 1.3915933511	 1.3489000808	 2.068965625	 0.074683
H	-0.3156078481	 2.221783742	 3.3752949608	 0.222752
H	-1.0346577738	-1.3028551048	 3.458835113	 0.131765
H	 0.5363233274	-1.8119942694	 4.1147962141	 0.114302
H	-0.6202773713	-0.9429861322	 5.1353382502	 0.114935
H	 0.9746640037	 1.0211511618	 5.6657960287	 0.120497
H	 2.2456844334	 0.1283151626	 4.8227844607	 0.123043
H	 1.8607352325	 1.7858049051	 4.3329149919	 0.109701
32.5669	113.6083	152.9379	176.3488	196.8444	225.4189	244.1601	329.348	359.8867	385.3763	405.6836	438.4012	455.3127	553.4729	710.811	743.8936	837.534	857.9759	901.3043	946.2428	957.0939	981.0042	997.4277	1032.2684	1065.989	1078.323	1092.996	1122.246	1128.881	1147.0948	1160.0199	1166.3512	1201.9219	1246.8861	1299.0379	1338.4451	1340.7775	1370.7916	1411.2083	1422.5244	1450.3258	1472.2738	1478.3932	1489.2416	1492.375	1499.6397	1503.8161	1510.086	1517.9757	2971.4305	3020.8193	3033.4123	3064.2493	3074.7343	3083.5084	3090.7171	3096.4512	3102.3991	3121.9742	3135.0984	3147.0871	3165.4537	3489.1587
CN1CC1C1NC1(C)C	CN1C[C@H]1[C@H]1NC1(C)C	
InChI=1S/C7H14N2/c1-7(2)6(8-7)5-4-9(5)3/h5-6,8H,4H2,1-3H3	InChI=1S/C7H14N2/c1-7(2)6(8-7)5-4-9(5)3/h5-6,8H,4H2,1-3H3/t5-,6+,9?/m0/s1
