15
gdb 36477	2.92368	1.08959	0.85597	2.7333	69.35	-0.2961	-0.0218	0.2743	1274.416	0.112587	-416.806438	-416.797862	-416.796918	-416.841413	29.393	
N	 0.0319187731	-1.1515852836	-0.2298362419	-0.292449
C	-0.0205806665	-0.0038512062	-0.1088545563	 0.262825
C	-0.0473195907	 1.4503030266	 0.0380778876	-0.376892
C	 1.3712780336	 2.0271564797	 0.0709311089	-0.061051
C	 2.1826233193	 2.0143829112	-1.242907591	-0.077585
O	 2.3297735345	 3.4563741794	-1.2153246587	-0.266437
C	 1.5332142688	 3.5759895212	-0.0280156785	-0.028713
C	 0.3046004833	 4.3495680457	-0.2402149469	 0.287951
N	-0.6792025005	 4.9362389323	-0.3942397354	-0.317859
H	-0.6210642352	 1.8812091417	-0.7898568743	 0.177647
H	-0.5857119554	 1.704997806	 0.957906927	 0.17056
H	 1.9195266445	 1.61968139	 0.9211794937	 0.123486
H	 3.1510571894	 1.5078193388	-1.2072884171	 0.131883
H	 1.6289082751	 1.6798884156	-2.1276963621	 0.129381
H	 2.0945129269	 4.0312564516	 0.7962371749	 0.137252
35.2772	67.3507	97.2478	158.4501	230.0181	322.5453	366.5147	393.8512	517.2473	533.8614	584.5604	809.8575	812.9601	883.1773	905.4565	949.6111	984.0793	1034.6731	1048.8518	1090.2291	1135.0891	1159.2263	1219.747	1247.2102	1272.4921	1323.9999	1355.3541	1359.0559	1390.524	1461.8517	1525.5386	2354.0016	2365.5502	3037.5383	3044.3602	3049.4717	3086.1577	3093.6162	3113.4665
N#CCC1COC1C#N	N#CC[C@H]1CO[C@H]1C#N	
InChI=1S/C6H6N2O/c7-2-1-5-4-9-6(5)3-8/h5-6H,1,4H2	InChI=1S/C6H6N2O/c7-2-1-5-4-9-6(5)3-8/h5-6H,1,4H2/t5-,6-/m0/s1
