17
gdb 76935	2.21895	1.22607	0.99382	2.6861	78.6	-0.2414	-0.0288	0.2126	1251.752	0.131801	-421.783571	-421.773783	-421.772839	-421.818125	35.604	
C	-0.1452094208	 1.5941957734	 0.114113293	-0.420034
C	-0.0086467951	 0.0872151692	 0.0614143829	-0.072493
C	 1.308480467	-0.624611715	-0.2633229523	-0.198432
C	 2.5738135838	 0.1174184039	-0.4656225333	 0.15401
O	 3.4203304727	-0.2229504339	-1.2590237916	-0.272154
C	 0.6759414134	-0.6714559594	 1.1563496507	 0.169211
O	 1.2517962745	 0.1252316697	 2.1524178495	-0.449098
C	 0.1550993854	-1.9365450117	 1.6019768229	 0.290677
C	-0.2463708055	-3.0007525708	 1.9930466763	-0.431321
H	 0.6581538307	 2.0612595089	 0.6841779205	 0.146277
H	-0.1496056005	 2.0160763567	-0.895742332	 0.129258
H	-1.0904170981	 1.863325732	 0.5956116349	 0.131574
H	-0.8689634227	-0.4241737012	-0.3588625832	 0.116231
H	 1.2392496473	-1.5331927088	-0.85065328	 0.118315
H	 2.713366883	 1.0141481276	 0.1703818754	 0.086883
H	 1.9206541441	-0.4013879247	 2.6046221163	 0.296678
H	-0.6141428492	-3.936262296	 2.3368353501	 0.204421
76.7492	121.1595	148.3718	163.2744	195.4607	220.3511	267.1362	332.2504	369.3513	435.5125	446.5258	505.6624	551.7054	593.4691	616.4746	679.8269	686.7476	781.9165	908.3535	961.9232	1011.5497	1027.1057	1057.407	1063.7578	1130.2581	1171.0491	1212.3824	1255.0717	1317.9844	1342.5976	1414.5168	1429.6356	1450.2653	1493.4809	1505.4985	1801.0736	2232.4194	2929.5874	3046.8871	3105.5984	3144.435	3163.2677	3185.3539	3498.6783	3801.7023
CC1C(C=O)C1(O)C#C	C[C@H]1[C@@H](C=O)[C@]1(O)C#C	
InChI=1S/C7H8O2/c1-3-7(9)5(2)6(7)4-8/h1,4-6,9H,2H3	InChI=1S/C7H8O2/c1-3-7(9)5(2)6(7)4-8/h1,4-6,9H,2H3/t5-,6+,7-/m0/s1
