17
gdb 115202	4.214	1.01806	0.85363	1.8671	72.53	-0.2431	-0.0642	0.1789	1298.4403	0.135931	-458.977701	-458.969415	-458.968471	-459.011003	30.823	
O	 0.0206159257	 1.4330119418	-0.0002273969	-0.420267
C	 0.0526798811	 0.0259502006	 0.0363996959	-0.065989
C	-1.3639754158	-0.559143742	 0.0488335285	 0.049717
O	-1.9855561969	-0.0615139437	-1.126939316	-0.273956
C	-3.2609385716	-0.6151409114	-1.3913945768	-0.19005
C	-3.2307144765	-2.1408482533	-1.4849485533	 0.352456
O	-4.050846286	-2.7540664876	-2.1345468735	-0.315843
C	-2.1923460156	-2.7924919011	-0.6632859543	-0.176605
C	-1.3709684403	-2.0589414462	 0.0967769309	-0.060032
H	-0.554348318	 1.6688208982	-0.7382194188	 0.294645
H	 0.5977294756	-0.3972255984	-0.8221528679	 0.10113
H	 0.5782459561	-0.2642659646	 0.9519015235	 0.111167
H	-1.884814081	-0.1615721388	 0.9411375863	 0.095345
H	-3.9892883436	-0.3323527958	-0.6106534365	 0.117534
H	-3.6070367297	-0.2024415879	-2.3410819717	 0.141249
H	-2.1845780664	-3.877664947	-0.656844588	 0.118892
H	-0.6712860869	-2.5305106731	 0.7837877686	 0.120607
62.1086	127.4905	165.2847	213.9	296.6964	365.7626	421.7187	427.3386	441.2234	535.5817	547.0121	606.7613	742.8062	768.252	845.3302	871.6717	983.0876	1014.2055	1026.8729	1055.287	1091.6992	1107.1343	1130.722	1175.7867	1222.0688	1254.1596	1280.4168	1285.3684	1346.1355	1378.601	1386.2682	1406.6066	1436.2081	1470.0379	1498.4881	1679.8201	1792.4155	2924.5445	2957.6958	2985.9907	3081.5054	3117.1468	3153.1706	3192.7855	3793.6274
OCC1OCC(=O)C=C1	OC[C@H]1OCC(=O)C=C1	
InChI=1S/C6H8O3/c7-3-6-2-1-5(8)4-9-6/h1-2,6-7H,3-4H2	InChI=1S/C6H8O3/c7-3-6-2-1-5(8)4-9-6/h1-2,6-7H,3-4H2/t6-/m0/s1
