14
gdb 57119	3.2058	0.79362	0.68322	4.398	76.82	-0.2831	-0.0666	0.2165	1560.7704	0.097888	-436.684155	-436.67463	-436.673686	-436.720208	32.347	
C	-0.1206400586	 1.4318627243	-0.0185093182	-0.485997
C	 0.0596642245	-0.0586135537	 0.0561104092	 0.373155
O	 0.2656354714	-0.670724304	 1.075792882	-0.294588
C	 0.0019466289	-0.881566718	-1.2689719157	-0.144473
O	 0.278109321	-2.2248176382	-1.0086050174	-0.402687
C	-1.3036286381	-0.702210351	-1.9108981796	 0.185372
C	-2.3824427708	-0.5626825449	-2.4367432892	-0.049634
C	-3.6009818577	-0.3985299079	-3.0305697209	 0.217181
N	-4.6372707131	-0.2511485203	-3.5341294307	-0.328792
H	 0.6108840937	 1.8661760366	-0.7088164691	 0.156264
H	-1.11305885	 1.6692886381	-0.4148056029	 0.172251
H	-0.0019242205	 1.8702587227	 0.9724231363	 0.161811
H	 0.7706469885	-0.4603392944	-1.9389183088	 0.136673
H	 0.311726291	-2.2885849993	-0.0375373351	 0.303464
32.3467	69.0118	87.9981	125.9202	197.4115	260.0849	300.0459	399.249	406.4362	433.8511	509.7974	547.2932	573.8163	600.3003	634.6847	768.9334	813.9478	971.6472	1037.6119	1110.7332	1161.1556	1193.2178	1238.2479	1336.3217	1391.0981	1424.3503	1460.9287	1470.2186	1821.6639	2262.1865	2397.9712	2968.985	3046.7352	3109.9387	3161.9119	3641.9141
CC(=O)C(O)C#CC#N	CC(=O)[C@@H](O)C#CC#N	
InChI=1S/C6H5NO2/c1-5(8)6(9)3-2-4-7/h6,9H,1H3	InChI=1S/C6H5NO2/c1-5(8)6(9)3-2-4-7/h6,9H,1H3/t6-/m0/s1
