19
gdb 30773	2.9201	1.28481	0.93824	4.1408	79.13	-0.2092	0.0297	0.239	1259.5962	0.159671	-419.248008	-419.238481	-419.237537	-419.282643	34.007	
C	 0.0708081943	 1.4140028823	 0.0439007828	-0.340296
N	 0.0074099225	-0.032263416	 0.0280863642	-0.033801
C	-0.1429735579	-0.8245819102	-1.0741830746	-0.022452
N	-0.1498512406	-2.1000537379	-0.7707144544	-0.324841
C	-0.0044239828	-2.1491091815	 0.5994856466	 0.147044
C	 0.0222094675	-3.4594373458	 1.3294965998	-0.171223
O	 1.0624822833	-3.5475428536	 2.3044760132	-0.413258
C	 0.0994741151	-0.8766913307	 1.1209227887	 0.208825
C	 0.2638892727	-0.3855964119	 2.5200996705	-0.517492
H	 1.032014275	 1.7644385013	 0.4336851316	 0.143075
H	-0.0447468568	 1.7833652341	-0.9767015263	 0.145609
H	-0.7288109982	 1.8372351278	 0.6599195489	 0.144185
H	-0.2340778599	-0.4037289103	-2.0654002567	 0.121448
H	-0.9025297812	-3.6224328629	 1.8952654835	 0.112479
H	 0.0929522606	-4.2615029174	 0.5820760842	 0.110565
H	 1.8879199239	-3.3488379412	 1.8495858188	 0.27874
H	 1.1025826723	 0.3151702611	 2.6166492914	 0.121358
H	-0.631619494	 0.1299450309	 2.8907670346	 0.125754
H	 0.465747984	-1.2376794579	 3.1710969934	 0.164278
67.1465	98.6261	128.2441	170.5007	198.4762	252.2377	261.8688	272.9845	367.0226	407.2703	480.0274	613.6243	647.5942	703.3204	713.5992	789.1776	797.4458	961.0276	972.4705	1048.6823	1065.1097	1076.0146	1131.4233	1150.754	1178.7877	1222.9897	1267.0595	1303.6328	1368.5955	1403.8049	1414.9919	1427.6944	1430.0384	1459.0243	1479.6066	1485.1518	1497.2269	1505.3049	1517.4974	1539.1365	1613.754	3013.1447	3014.2262	3037.569	3057.4472	3057.6112	3096.0006	3136.641	3140.8883	3238.1968	3806.8058
CN1C=NC(CO)=C1C	Cn1cnc(CO)c1C	
InChI=1S/C6H10N2O/c1-5-6(3-9)7-4-8(5)2/h4,9H,3H2,1-2H3	InChI=1S/C6H10N2O/c1-5-6(3-9)7-4-8(5)2/h4,9H,3H2,1-2H3
