19
gdb 111966	3.02387	1.20917	0.94912	3.1905	78.42	-0.2385	-0.0235	0.215	1287.1039	0.157433	-423.039955	-423.030586	-423.029641	-423.074978	33.592	
C	 0.0091004489	 1.5929489564	-0.0994425832	-0.233749
O	-0.1341878858	 0.1910569501	-0.0422098631	-0.233127
C	 0.5929688651	-0.5010169043	-1.0311297865	-0.021515
C	 2.0409732284	-0.7804190876	-0.7104638795	-0.106359
C	 2.3498663468	-2.0721865795	-0.8364140715	-0.074283
C	 1.1807839875	-2.933249046	-1.2461216695	-0.150304
C	 0.9314375622	-4.1826557113	-0.3913995217	-0.393558
C	 0.0127921779	-1.9315009352	-1.1881090394	 0.371467
O	-1.1546517061	-2.2057449559	-1.2165415037	-0.298218
H	 1.0421890793	 1.9183829507	 0.0945850892	 0.105204
H	-0.3005583637	 1.9907414157	-1.0783748662	 0.108775
H	-0.6389211531	 2.0122090716	 0.6736935056	 0.133695
H	 0.489444228	 0.0189061158	-2.0018690107	 0.089812
H	 2.7342871774	 0.0025050583	-0.4262341958	 0.104713
H	 3.3364541591	-2.4913756654	-0.6675558608	 0.103607
H	 1.2818919765	-3.2492106799	-2.2962794274	 0.110962
H	 0.8654186012	-3.9226005858	 0.6693638734	 0.127083
H	-0.0106480571	-4.6519274219	-0.6857454197	 0.141022
H	 1.7393467675	-4.9097534859	-0.5161088995	 0.114774
38.275	70.4277	166.8433	187.3836	198.7922	231.0523	256.9813	336.7071	345.7551	519.173	554.3692	585.6132	658.5963	737.9127	744.454	861.8109	895.5318	954.0878	984.8264	1017.1935	1029.6157	1076.8014	1106.6933	1130.1446	1152.0621	1166.1759	1181.4537	1217.3542	1264.2416	1279.3553	1306.5329	1348.0143	1384.9839	1406.7208	1478.5159	1490.3959	1492.9446	1500.0736	1506.3481	1674.7006	1863.1142	2928.312	2976.2667	2986.8129	3023.8099	3042.3936	3113.0275	3118.2128	3127.1324	3179.5061	3207.7446
COC1C=CC(C)C1=O	CO[C@H]1C=C[C@@H](C)C1=O	
InChI=1S/C7H10O2/c1-5-3-4-6(9-2)7(5)8/h3-6H,1-2H3	InChI=1S/C7H10O2/c1-5-3-4-6(9-2)7(5)8/h3-6H,1-2H3/t5-,6+/m1/s1
