17
gdb 23423	3.59472	1.2567	1.04195	1.643	72.23	-0.2318	-0.0024	0.2294	1138.38	0.136983	-455.072216	-455.06436	-455.063416	-455.104923	29.742	
O	-0.1617369356	 1.3297845661	 0.0142742102	-0.391111
N	 0.0102021081	-0.0626094359	 0.1077635887	-0.232259
C	-1.0994691748	-0.6698453599	-0.0010013051	 0.433752
C	-2.4947060248	-0.1098615705	-0.1372978777	-0.168125
O	-3.3661271069	-1.1189460925	 0.3770053874	-0.279006
C	-2.721968626	-2.3807842029	 0.4164133633	 0.127223
C	-2.8274387175	-3.2491071358	-0.8632497929	-0.194621
N	-1.5004436028	-2.7463566439	-1.2955600762	-0.317064
C	-1.2282504244	-2.1626378107	 0.0477301673	-0.154804
H	 0.7330148933	 1.6575295027	 0.1552563951	 0.308406
H	-2.6290402248	 0.8078510725	 0.4416054571	 0.136126
H	-2.7213341274	 0.1107381007	-1.1903968168	 0.127481
H	-2.9793608146	-2.8672035574	 1.3589693901	 0.090265
H	-2.8632975817	-4.3226027607	-0.6341681581	 0.094612
H	-3.6489246765	-3.0003613326	-1.5428628441	 0.111546
H	-0.8346157199	-3.4442606307	-1.6030247997	 0.224579
H	-0.4622723237	-2.6550269783	 0.6511916616	 0.082999
86.7141	110.6561	182.2501	220.3829	354.8979	376.4583	418.1663	450.1781	554.7594	650.6981	679.1665	699.3308	807.4742	854.4268	864.6209	939.6088	967.3689	981.2366	1008.6187	1015.8749	1033.6215	1069.9239	1120.432	1152.5803	1208.1276	1215.412	1236.0979	1246.2786	1281.8368	1331.3774	1340.0507	1368.067	1379.3093	1416.8575	1498.5195	1506.142	1772.3365	3004.8142	3008.8823	3072.7816	3083.1535	3090.7787	3096.868	3555.0915	3816.4393
ON=C1COC2CNC12	ON=C1CO[C@H]2CN[C@@H]12	
InChI=1S/C5H8N2O2/c8-7-3-2-9-4-1-6-5(3)4/h4-6,8H,1-2H2	InChI=1S/C5H8N2O2/c8-7-3-2-9-4-1-6-5(3)4/h4-6,8H,1-2H2/t4-,5-/m0/s1
