16
gdb 32353	4.87278	1.02627	0.85233	4.8419	77.03	-0.2004	-0.0371	0.1633	1293.6134	0.125886	-437.942641	-437.934805	-437.933861	-437.975173	29.628	
C	 0.1063787852	 1.4045002157	 0.0065020341	-0.246736
O	 0.0305399889	-0.0057905062	 0.0027888623	-0.263555
C	-1.2147725285	-0.559479349	 0.0107938939	 0.309182
C	-2.3950350002	 0.121515823	 0.0220438564	-0.103897
N	-3.5785412876	-0.575891238	 0.0291339743	-0.366624
C	-3.7218942599	-1.9687316012	 0.0259696023	 0.42387
O	-4.8303950277	-2.4830068761	 0.0332042222	-0.408212
C	-2.4405482941	-2.6587429155	 0.0140114894	-0.238612
C	-1.2608145261	-1.9874511113	 0.0068572697	-0.117698
H	 1.1673944487	 1.65755688	-0.0009495716	 0.140937
H	-0.3751584575	 1.8356687384	-0.8823520854	 0.122155
H	-0.361306546	 1.8302145135	 0.9053254418	 0.122155
H	-2.4784710982	 1.1985015124	 0.0259681444	 0.126659
H	-4.4529941659	-0.0704360505	 0.0374862818	 0.259741
H	-2.4813832606	-3.7408482941	 0.0111104343	 0.120345
H	-0.3125784506	-2.5158932212	-0.0020866899	 0.120288
78.9392	139.3952	226.9794	246.0962	343.2769	392.8398	396.7335	469.6675	515.8913	528.1983	639.1911	669.0923	754.4295	773.1512	828.2937	829.1734	859.6874	992.2511	1003.0593	1076.4609	1119.5764	1179.4692	1207.232	1212.3695	1236.7471	1293.8624	1363.4311	1443.9765	1466.3663	1486.3498	1490.8076	1508.3638	1590.5055	1684.9727	1780.4917	2992.1747	3047.0482	3138.2794	3183.485	3218.5997	3236.8417	3614.0116
COC1=CNC(=O)C=C1	COc1c[nH]c(=O)cc1	
InChI=1S/C6H7NO2/c1-9-5-2-3-6(8)7-4-5/h2-4H,1H3,(H,7,8)	InChI=1S/C6H7NO2/c1-9-5-2-3-6(8)7-4-5/h2-4H,1H3,(H,7,8)
