18
gdb 84532	2.43956	1.53724	1.24936	3.3639	78.77	-0.2365	-0.0289	0.2077	1068.6986	0.147432	-401.932298	-401.924248	-401.923304	-401.964861	30.837	
C	-0.559996501	 1.1877744523	-0.3497424011	-0.403985
C	 0.0413270188	-0.2155532243	-0.2687322002	 0.005513
C	 0.9395044169	-0.6459916716	-1.4127898898	-0.094076
C	 2.0809066437	-1.1556182512	-0.9489059149	-0.087792
C	 2.0960409753	-1.0849801271	 0.5424668851	-0.094203
C	 2.1107199241	 0.2918081275	 1.1742261185	-0.099302
C	 2.5892732339	 1.4885389662	 0.4290252027	 0.140538
O	 3.0942954301	 2.4315713757	 0.9936981118	-0.273447
N	 0.8432736231	-0.4598020921	 0.9612963668	-0.121044
H	 0.2023523725	 1.9619914427	-0.4688493499	 0.131453
H	-1.2420518071	 1.2544341093	-1.2029480468	 0.122539
H	-1.1284825053	 1.4040059488	 0.5585469583	 0.138794
H	-0.8026989976	-0.9191062749	-0.1997289402	 0.104107
H	 0.6591849937	-0.543181726	-2.4548119435	 0.108763
H	 2.8944801451	-1.563709241	-1.5352660839	 0.112151
H	 2.4778974486	-1.9197844422	 1.1257735293	 0.108211
H	 2.3570235871	 0.3586948796	 2.2309570693	 0.11523
H	 2.495511088	 1.4622909785	-0.6728177515	 0.086548
87.7699	159.1205	207.2214	230.0419	278.5277	286.1442	396.4503	465.6532	505.769	591.4308	705.6063	726.8722	770.6081	802.4098	841.0193	886.113	903.451	957.9555	967.3399	1034.3114	1050.5227	1060.5501	1090.9737	1108.0318	1133.0629	1142.269	1162.9359	1269.1777	1302.912	1319.8115	1340.3945	1347.5606	1366.0837	1410.3874	1437.8129	1493.2023	1496.1772	1662.7806	1793.1582	2950.0077	2979.4071	3047.2987	3116.9313	3127.5925	3132.9639	3149.4194	3196.4075	3223.5172
CC1C=CC2C(C=O)N12	C[C@H]1C=C[C@H]2[C@@H](C=O)N12	
InChI=1S/C7H9NO/c1-5-2-3-6-7(4-9)8(5)6/h2-7H,1H3	InChI=1S/C7H9NO/c1-5-2-3-6-7(4-9)8(5)6/h2-7H,1H3/t5-,6-,7+,8?/m0/s1
