15
gdb 27362	2.02776	1.87911	0.98124	5.3247	73.48	-0.2208	-0.0246	0.1962	1139.2926	0.112708	-453.991552	-453.98343	-453.982486	-454.024302	30.142	
C	-0.0226042158	 1.4474207771	 0.107809148	-0.470937
C	-0.0021923416	-0.0367747789	-0.0559606341	 0.398158
N	-0.0256487014	-0.6311543974	-1.1732700079	-0.339227
C	-0.003608956	-2.0540782275	-1.230624749	 0.334028
N	-0.0263972644	-2.6833321035	-2.3425285285	-0.532258
C	 0.0461998174	-2.7463717299	 0.0469129402	-0.292102
C	 0.0676904429	-2.0269782604	 1.1744426659	 0.46012
O	 0.1129834044	-2.5277467171	 2.4136748098	-0.406399
O	 0.0449329677	-0.6625426077	 1.1790458048	-0.269573
H	 0.8698701888	 1.7836226369	 0.6454794339	 0.149961
H	-0.059343337	 1.9169175994	-0.8737286094	 0.161958
H	-0.8930813471	 1.7536447288	 0.6970204844	 0.149998
H	-0.0605605102	-2.002323825	-3.1033436503	 0.215145
H	 0.0653949034	-3.8255695198	 0.0809808842	 0.130253
H	 0.1198763689	-1.7933480649	 3.0400211579	 0.310877
118.5298	133.3732	175.7293	211.9594	290.254	306.274	359.7974	493.6682	535.43	563.3139	576.7398	627.4765	661.8974	738.7985	852.3253	907.2252	910.4907	915.2674	976.2709	1062.7109	1066.9601	1135.8595	1191.1273	1203.3976	1281.8456	1355.0056	1407.2531	1424.5699	1471.9274	1475.0052	1688.9045	1719.8282	1784.8752	3048.702	3106.074	3174.4223	3247.6105	3466.5739	3805.5179
CC1=NC(=N)C=C(O)O1	CC1=NC(=C[C@@H](O)O1)[NH]	
InChI=1S/C5H6N2O2/c1-3-7-4(6)2-5(8)9-3/h2,6,8H,1H3	InChI=1S/C5H7N2O2/c1-3-7-4(6)2-5(8)9-3/h2,5-6,8H,1H3/t5-/m0/s1
