22
gdb 11403	5.26986	1.10877	0.96122	0.254	84.6	-0.2236	0.036	0.2597	1294.3063	0.200533	-313.10072	-313.091849	-313.090904	-313.134046	33.382	
C	-0.3772528624	 1.7597967102	 0.3447981375	-0.382537
C	-0.0079749207	 0.2755643209	 0.2585539476	-0.187068
C	-1.1577616664	-0.6225837705	-0.2060255367	 0.057313
C	-1.6659271925	-0.3482249092	-1.650362869	-0.260378
C	-2.0608341474	-1.7168189887	-2.145870579	-0.166432
C	-1.6097529725	-2.6993869792	-1.3630691522	 0.336855
C	-1.7675848136	-4.1726550708	-1.5694192232	-0.491046
C	-0.8262432799	-2.1380253147	-0.194057862	-0.323867
H	 0.4685917424	 2.3600294559	 0.694552014	 0.109252
H	-0.6827051858	 2.1547095253	-0.6298442947	 0.118179
H	-1.2087005059	 1.9196400752	 1.0407795046	 0.111911
H	 0.8428316921	 0.1470082661	-0.4249739543	 0.091006
H	 0.3390886693	-0.0680284884	 1.2419828098	 0.090991
H	-2.0075959813	-0.4684453806	 0.4721801253	 0.069685
H	-2.4908892452	 0.3731757987	-1.6744822535	 0.097788
H	-0.8690771722	 0.0803078553	-2.2786062692	 0.096742
H	-2.6173657512	-1.8691257117	-3.0655065233	 0.078431
H	-2.3430694805	-4.3963355229	-2.4721058745	 0.120207
H	-0.7914956185	-4.6677658985	-1.6577123724	 0.121923
H	-2.2746768549	-4.6422231853	-0.7165109828	 0.121336
H	 0.2513119216	-2.3155238905	-0.3382867286	 0.095732
H	-1.0844409742	-2.6142654664	 0.7602446165	 0.093979
68.3304	116.0791	177.5792	197.3489	244.8967	251.4896	296.2037	406.6427	416.5919	448.2343	571.7556	650.1686	777.9924	824.8062	838.4307	879.4315	922.3213	946.8287	955.0182	983.5347	1033.1301	1034.6903	1045.0809	1080.0635	1126.6848	1142.8571	1156.1764	1199.0829	1227.6088	1283.5649	1293.2255	1308.2392	1329.7176	1336.1263	1370.8447	1388.5344	1412.7418	1414.1511	1479.2043	1484.5949	1485.3242	1489.9301	1496.3301	1502.1543	1507.8131	1725.444	2981.8656	2983.7378	3004.1363	3012.1487	3013.6804	3030.1745	3037.3246	3042.2586	3052.0571	3056.924	3096.2516	3102.2369	3106.3864	3177.5815
CCC1CC=C(C)C1	CC[C@H]1CC=C(C)C1	
InChI=1S/C8H14/c1-3-8-5-4-7(2)6-8/h4,8H,3,5-6H2,1-2H3	InChI=1S/C8H14/c1-3-8-5-4-7(2)6-8/h4,8H,3,5-6H2,1-2H3/t8-/m0/s1
