14
gdb 130055	3.63898	1.20071	0.90523	5.5663	72.79	-0.2228	-0.0412	0.1816	1194.4072	0.102906	-466.205955	-466.19796	-466.197016	-466.23844	29.595	
N	-0.0506824913	 1.3738459879	 0.1243269211	-0.599388
C	-0.0024828531	-0.0059809379	 0.0248686283	 0.305176
N	-1.0479060022	-0.8006440015	 0.0400850781	-0.291448
N	-0.5038582495	-2.04632625	-0.0119292217	 0.055491
C	-1.3246469567	-3.1739191196	-0.013204068	 0.198682
O	-0.9327090271	-4.3061165004	-0.0743715415	-0.276978
N	 0.8484138355	-2.078678043	-0.0577745183	-0.279206
C	 1.1876768433	-0.808955528	-0.0341168441	 0.32126
N	 2.4844490599	-0.3373287103	-0.126207795	-0.598255
H	 0.5855460835	 1.8424019134	-0.508790322	 0.260753
H	-0.9895349635	 1.7400393418	 0.0335152074	 0.265464
H	-2.3774942183	-2.8533225032	 0.0503873211	 0.109452
H	 3.1734926612	-1.0736450449	-0.0419595067	 0.26856
H	 2.6820676384	 0.4245279557	 0.5104878713	 0.260437
104.6232	194.4462	221.9071	236.2558	253.505	320.2859	381.2457	413.9652	453.7691	560.5311	619.3918	652.3738	697.2282	742.3478	782.7626	806.5964	858.4433	981.5745	1022.761	1126.3632	1154.4138	1241.4274	1342.9827	1374.6407	1419.9638	1479.4312	1593.717	1608.9816	1652.351	1676.6568	1833.3057	3013.6282	3537.1589	3538.6854	3635.7377	3637.1092
NC1=NN(C=O)N=C1N	Nc1nn(C=O)nc1N	
InChI=1S/C3H5N5O/c4-2-3(5)7-8(1-9)6-2/h1H,(H2,4,6)(H2,5,7)	InChI=1S/C3H5N5O/c4-2-3(5)7-8(1-9)6-2/h1H,(H2,4,6)(H2,5,7)
