22
gdb 5997	4.05624	1.0457	1.03285	2.2681	75.25	-0.2512	0.0705	0.3217	1274.8642	0.196915	-387.330149	-387.319507	-387.318563	-387.365325	37.833	
C	 0.00549924	 1.393778232	 0.0457730488	-0.225157
O	 0.0032016484	-0.0110579168	 0.0037371451	-0.237589
C	 0.6625864638	-0.5973310004	 1.1049455944	-0.068468
C	 0.6142962176	-2.1275915589	 0.9786020356	 0.22868
C	-0.8488885137	-2.6055642335	 0.9717029944	-0.404357
C	 1.3275112077	-2.568388691	-0.3122835831	-0.404367
C	 1.3455689886	-2.7047942751	 2.2014001966	-0.089386
O	 1.3225558789	-4.1227394913	 2.1243115553	-0.42633
H	 1.0288867407	 1.8025056599	 0.0363934557	 0.101969
H	-0.5243652954	 1.7500380662	-0.8411859342	 0.126086
H	-0.505793383	 1.7779178565	 0.943262859	 0.101966
H	 1.7114109495	-0.251932958	 1.1435982136	 0.077187
H	 0.1802628871	-0.2781873632	 2.0463972099	 0.077246
H	-1.385192181	-2.1792738178	 0.1211207254	 0.124084
H	-0.8944160512	-3.6951470502	 0.9136933913	 0.126411
H	-1.3667758394	-2.2945088349	 1.8868297366	 0.097444
H	 2.3702929059	-2.229267259	-0.3188854183	 0.097376
H	 1.3277017273	-3.6572885759	-0.3954509543	 0.12635
H	 0.8307424688	-2.1428048259	-1.1868815044	 0.124076
H	 2.3829140148	-2.3313387926	 2.2190072649	 0.07971
H	 0.8514190033	-2.3557756102	 3.1233286691	 0.079682
H	 1.7864567411	-4.4726116999	 2.8897564684	 0.287389
80.114	101.7815	119.8001	148.8085	215.7096	224.8692	241.9851	242.9561	274.8793	328.6765	331.9424	371.0622	415.4957	420.0888	605.2849	761.68	906.6725	927.9214	955.2672	969.0406	990.4822	1012.4472	1079.6091	1085.7942	1161.3604	1181.5999	1200.3458	1216.2865	1218.3158	1250.3032	1262.4678	1306.434	1333.9657	1391.4301	1397.6115	1424.3694	1459.6597	1481.0808	1485.4699	1487.3096	1490.3431	1498.5017	1501.7917	1511.652	1520.2747	1528.9537	2930.9021	2953.0271	2959.1046	2966.7109	2984.2905	3008.0844	3032.5786	3037.0816	3105.8353	3109.0594	3111.675	3135.935	3139.9949	3839.4653
COCC(C)(C)CO	COCC(C)(C)CO	
InChI=1S/C6H14O2/c1-6(2,4-7)5-8-3/h7H,4-5H2,1-3H3	InChI=1S/C6H14O2/c1-6(2,4-7)5-8-3/h7H,4-5H2,1-3H3
