15
gdb 10469	2.6979	1.87798	1.32386	2.8188	62.28	-0.2561	-0.0413	0.2148	926.6412	0.116699	-399.786953	-399.778704	-399.77776	-399.82109	28.275	
O	 0.6460869062	 0.0300133677	-0.7597804467	-0.243334
C	 0.1989783053	 0.9721604124	-0.1522487318	 0.153803
C	 1.038995038	 2.199249958	 0.1667527732	-0.375108
C	 1.2158547565	 3.0558548	-1.0819755115	 0.209414
C	 2.5934252393	 3.4527618212	-1.5264066754	-0.275337
N	 1.8381168329	 2.4780405243	-2.2964481718	-0.334437
C	 0.0837058784	 3.9739499815	-1.4068119064	 0.148271
O	-0.8839352369	 4.1272781453	-0.7036130827	-0.266022
H	-0.8596689517	 0.9932723429	 0.178441437	 0.108049
H	 0.5654658171	 2.7984427698	 0.9483934564	 0.135857
H	 2.0151562859	 1.8486279154	 0.5143520559	 0.126931
H	 2.7524960588	 4.4075536579	-2.0211194841	 0.130901
H	 3.4123779555	 3.1270104214	-0.890163027	 0.129299
H	 2.1180706457	 1.5209146718	-2.0888459364	 0.258948
H	 0.205181819	 4.5057109504	-2.3746348588	 0.092763
38.3543	50.1658	131.523	187.9892	258.0112	338.6207	362.1115	423.0484	538.649	552.7119	744.0637	791.3126	891.454	929.9084	941.4759	982.7882	1001.8271	1039.2486	1052.08	1106.7513	1142.5858	1205.2783	1248.8228	1303.2277	1328.0787	1378.0272	1414.6817	1423.3751	1457.4718	1510.9419	1813.1349	1819.2842	2914.1366	2925.7594	3059.767	3106.3004	3122.4374	3192.9312	3496.581
O=CCC1(CN1)C=O	O=CC[C@]1(CN1)C=O	
InChI=1S/C5H7NO2/c7-2-1-5(4-8)3-6-5/h2,4,6H,1,3H2	InChI=1S/C5H7NO2/c7-2-1-5(4-8)3-6-5/h2,4,6H,1,3H2/t5-/m0/s1
