17
gdb 66000	2.85509	1.30958	1.17854	1.787	69.37	-0.2505	0.0143	0.2648	1098.6886	0.136055	-455.102824	-455.094433	-455.093489	-455.136052	31.371	
N	-0.1651010471	 1.4783106894	 0.2068486469	-0.576024
C	-0.0072159162	 0.0562773319	 0.0671273299	 0.135138
C	 0.9649854959	-0.5498408877	-1.0035062301	-0.128931
O	 1.7225662558	-1.2080196576	 0.0564281613	-0.257635
C	 0.9626887806	-0.6168634011	 1.0440869202	 0.40649
N	 1.0680420179	-0.648232515	 2.2909372553	-0.533038
C	-1.369504426	-0.6175981108	 0.0671775092	 0.073208
C	-2.5031233575	-0.0752123839	 0.8164932205	-0.177586
O	-2.4103738042	 0.0868723614	-0.611001114	-0.255309
H	 0.7185496073	 1.9689663651	 0.1450249157	 0.237122
H	-0.7987022829	 1.8253443291	-0.5060226851	 0.247577
H	 0.5543463658	-1.2780584358	-1.7073441907	 0.121032
H	 1.5805920385	 0.1871698016	-1.526776107	 0.112858
H	 1.8675402753	-1.2122432318	 2.5855525968	 0.230635
H	-1.3419549388	-1.6889453707	-0.1333147967	 0.099568
H	-3.2899864891	-0.7483056403	 1.1506950896	 0.120269
H	-2.3623866454	 0.8338871962	 1.3928201584	 0.144628
81.1909	107.8724	152.4706	241.1509	271.992	319.9755	342.891	408.4854	444.1268	574.7677	662.886	706.6682	776.213	817.9691	851.9842	866.5628	888.6154	932.4874	955.2999	979.2151	1006.0656	1053.6519	1086.631	1106.8588	1153.9853	1160.6046	1175.0374	1223.344	1262.5517	1298.9874	1319.1035	1367.9854	1441.0316	1513.7751	1515.9578	1635.0999	1824.4248	3053.6363	3103.767	3111.2048	3118.9845	3210.4638	3473.308	3513.4002	3608.5955
NC1(COC1=N)C1CO1	N[C@]1(CO[C]1[NH])[C@H]1CO1	
InChI=1S/C5H8N2O2/c6-4-5(7,2-9-4)3-1-8-3/h3,6H,1-2,7H2	InChI=1S/C5H8N2O2/c6-4-5(7,2-9-4)3-1-8-3/h3,6H,1-2,7H2/t3-,5-/m1/s1
