17
gdb 33851	4.23301	1.2911	1.1518	3.4414	78.24	-0.233	0.0384	0.2714	1069.6655	0.137699	-380.791416	-380.784144	-380.783199	-380.822823	29.647	
C	-0.0952750334	-1.1663872694	 0.2210637272	-0.396328
C	-0.028835609	 0.028870682	 0.1058147452	 0.26834
C	 0.0274239384	 1.4531518912	-0.0755191757	 0.095623
C	-0.9870866699	 2.0953542597	-1.0410217503	-0.303908
C	-0.2947812629	 3.3183808653	-1.6321590707	-0.033837
N	 0.0762086159	 4.3544567457	-0.6485699605	-0.348002
C	 1.0974141147	 3.3895358954	-1.1137811777	-0.049554
C	 1.3116523047	 2.2451554949	-0.1414316844	-0.075863
N	 0.5087762378	 2.2473018343	 1.0759636441	-0.358285
H	-0.1458123906	-2.2200691196	 0.3409076796	 0.187914
H	-1.2182619515	 1.3831711283	-1.8389087844	 0.119552
H	-1.9269794529	 2.3459314299	-0.5382571089	 0.121992
H	-0.551034968	 3.6334081417	-2.6386829212	 0.094282
H	 0.2028881939	 5.2490183355	-1.114428368	 0.237316
H	 1.9289211739	 3.7421780334	-1.7126702346	 0.091575
H	 2.2896627	 1.7805950508	-0.07768371	 0.100773
H	 0.0011385389	 3.1328416409	 1.1159437603	 0.24841
130.4063	150.5193	286.463	310.63	418.0363	450.4536	520.386	580.731	601.1807	616.216	652.745	689.5267	721.0143	794.9299	837.1421	853.1001	891.6189	898.5752	970.3536	975.8337	1018.0034	1040.6832	1075.5793	1121.1077	1127.388	1141.9236	1185.5987	1196.2632	1244.7665	1286.3185	1307.4529	1318.6172	1369.0592	1404.1014	1423.4482	1476.2101	2237.8126	3052.9736	3096.6125	3159.0459	3168.8605	3186.2777	3443.0058	3503.7679	3508.3161
C#CC12CC3NC3C1N2	C#C[C@]12C[C@H]3N[C@H]3[C@H]1N2	
InChI=1S/C7H8N2/c1-2-7-3-4-5(8-4)6(7)9-7/h1,4-6,8-9H,3H2	InChI=1S/C7H8N2/c1-2-7-3-4-5(8-4)6(7)9-7/h1,4-6,8-9H,3H2/t4-,5-,6-,7+/m1/s1
