23
gdb 78115	2.60913	1.28679	1.06274	1.1486	86.35	-0.2411	0.0761	0.3171	1274.7106	0.20337	-388.271665	-388.261655	-388.26071	-388.305427	39.036	
C	-0.0607123431	 1.4619311829	 0.0405093434	-0.427276
C	 0.070018672	-0.0464088	-0.0030897505	-0.088994
C	 0.739057317	-0.6460705202	-1.226190776	-0.149796
C	 1.4512475406	-0.6351501445	 0.1163673781	 0.399775
O	 2.5629450684	 0.1174831281	 0.4656958871	-0.465332
C	 1.3902765739	-2.1645075823	 0.2006861029	-0.361242
C	 0.7017472703	-2.1901833547	-1.2188909557	 0.335443
C	-0.6713459383	-2.855478373	-1.301473858	-0.443844
C	 1.6428851762	-2.7607409505	-2.281879673	-0.439339
H	 0.815839688	 1.9465412085	-0.3976724691	 0.130067
H	-0.946985355	 1.7957821609	-0.5093425015	 0.116748
H	-0.1572663293	 1.8227506635	 1.071268	 0.107964
H	-0.7632584121	-0.5808796173	 0.4532400279	 0.069076
H	 0.9250341679	-0.0377227397	-2.1055095185	 0.079287
H	 2.4882733855	 0.3542549538	 1.3971485951	 0.28324
H	 2.3803400045	-2.6267215519	 0.1874399568	 0.103179
H	 0.8131589003	-2.5784445897	 1.0353162004	 0.083086
H	-1.3677785015	-2.4595062239	-0.5563978787	 0.110995
H	-1.1202268538	-2.7031936133	-2.2897932137	 0.110829
H	-0.5907857957	-3.9362989061	-1.1373331174	 0.110193
H	 1.7844947719	-3.8386320274	-2.1422503097	 0.108405
H	 1.2376860954	-2.6032296464	-3.2885436761	 0.108425
H	 2.6257894269	-2.280511727	-2.2381654039	 0.119112
132.432	169.6735	180.7792	208.7967	221.0184	259.1804	268.3425	287.9314	329.5535	359.6301	381.236	423.7079	471.2491	508.0224	608.7089	694.5933	777.686	825.1436	878.4926	926.0841	945.0205	956.886	974.5379	987.1836	1010.4073	1033.8572	1045.0668	1097.8928	1113.1016	1145.0294	1190.7973	1192.7979	1211.4941	1249.072	1267.3177	1285.2662	1314.0051	1367.8019	1401.6325	1414.9537	1418.9615	1438.8979	1483.3107	1486.6809	1487.8092	1494.9293	1502.2685	1506.8734	1507.9366	3019.2144	3025.1403	3028.9023	3035.0111	3082.7528	3084.7829	3088.1786	3090.6961	3096.6882	3101.784	3104.8121	3119.2113	3163.0978	3784.8744
CC1C2C1(O)CC2(C)C	C[C@H]1[C@H]2[C@]1(O)CC2(C)C	
InChI=1S/C8H14O/c1-5-6-7(2,3)4-8(5,6)9/h5-6,9H,4H2,1-3H3	InChI=1S/C8H14O/c1-5-6-7(2,3)4-8(5,6)9/h5-6,9H,4H2,1-3H3/t5-,6+,8-/m0/s1
