17
gdb 60673	2.07843	1.45306	1.19045	1.328	73.35	-0.2662	-0.0559	0.2103	1120.6598	0.134017	-417.997191	-417.987734	-417.986789	-418.031938	33.323	
C	-0.1975222393	 1.5824934288	-0.1145236363	-0.42076
C	-0.1036905889	 0.0547121686	 0.0521652668	-0.034128
C	 0.6366027937	-0.321713729	 1.3576549024	 0.159767
O	 1.3848043238	 0.4257831384	 1.9220778374	-0.233807
C	-1.4354649116	-0.5543118342	 0.0842782842	 0.25732
N	-2.4796315174	-1.0507040375	 0.1048797841	-0.340629
C	 0.7386718765	-0.5687226484	-1.0815039082	 0.007089
C	 0.6566207218	-2.0091909257	-1.435505222	-0.259389
N	 0.1524959889	-0.9760644716	-2.3564408153	-0.325064
H	 0.8035003563	 2.009810948	-0.0354515118	 0.150984
H	-0.6225196585	 1.8332441908	-1.0886587253	 0.141918
H	-0.8191035589	 2.0226755172	 0.6681984375	 0.143923
H	 0.463984189	-1.3625397283	 1.6997290833	 0.11128
H	 1.6954446645	-0.0601457204	-1.1759145898	 0.121114
H	 1.5477288127	-2.531277646	-1.7699523408	 0.132727
H	-0.0685425453	-2.6260126502	-0.9116881571	 0.137585
H	-0.8648841073	-0.9452144604	-2.3132734292	 0.250071
59.9146	83.3452	139.8388	169.1097	195.3962	218.5833	267.4953	306.5514	366.51	429.93	520.3154	564.6699	626.2761	714.4134	815.6374	862.9282	918.9749	922.4407	968.7882	998.3448	1018.8678	1107.4939	1140.8114	1147.8073	1162.6333	1177.796	1241.5766	1264.9788	1307.3539	1383.9916	1406.2966	1420.0048	1485.3155	1493.9545	1504.8087	1837.4775	2348.9203	2927.4862	3061.9048	3116.5292	3136.4396	3141.4059	3150.5898	3205.3176	3487.2352
CC(C=O)(C#N)C1CN1	C[C@@](C=O)(C#N)[C@H]1CN1	
InChI=1S/C6H8N2O/c1-6(3-7,4-9)5-2-8-5/h4-5,8H,2H2,1H3	InChI=1S/C6H8N2O/c1-6(3-7,4-9)5-2-8-5/h4-5,8H,2H2,1H3/t5-,6+/m1/s1
