16
gdb 44619	4.37762	1.42237	1.36672	2.4741	69.77	-0.2409	0.0217	0.2626	950.8107	0.127494	-437.871386	-437.865268	-437.864324	-437.901739	25.361	
N	-0.0828100674	 1.2237315295	-0.0198173059	-0.567955
C	-0.0682980698	-0.0348432337	-0.0131873971	 0.434411
O	 1.0505735714	-0.8508176189	-0.0333167647	-0.258458
C	 0.4689095929	-2.1622642013	 0.0056133715	 0.06143
C	-0.7452734576	-2.1302928563	-0.9744631871	-0.093255
C	-1.5643194872	-3.3406205353	-0.551203511	-0.107437
O	-1.4681695124	-3.2421238484	 0.8892135445	-0.276673
C	-0.675748263	-2.0886802449	 1.0567009129	 0.107067
C	-1.203983978	-1.0055455725	 0.0359338966	-0.164978
H	 0.8690931245	 1.5947026639	-0.0426742261	 0.225493
H	 1.2392979671	-2.9303160699	-0.0020165176	 0.101105
H	-0.6161484124	-1.9239081201	-2.0359872633	 0.096053
H	-2.6145951551	-3.292992976	-0.8595862673	 0.118069
H	-1.1370912018	-4.2920934817	-0.8884875626	 0.115022
H	-0.504681034	-1.8730232826	 2.1097611852	 0.107735
H	-2.216429257	-0.613448162	 0.0683238118	 0.102372
165.2102	294.0865	340.5797	384.4434	465.5821	564.0357	663.1042	679.0597	685.8413	819.7037	860.7015	889.0701	911.8853	929.6685	948.2151	971.3521	979.1038	998.9111	1013.577	1038.0138	1066.2605	1068.8802	1124.2304	1162.3552	1189.995	1204.4725	1213.8027	1229.6253	1254.5905	1274.6501	1314.3736	1349.1539	1390.5765	1524.3507	1807.9071	3031.2524	3072.5306	3136.2092	3146.8674	3156.0957	3173.025	3470.0225
N=C1OC2C3COC2C13	[NH][C]1O[C@@H]2[C@H]3CO[C@@H]2[C@@H]13	
InChI=1S/C6H7NO2/c7-6-3-2-1-8-5(3)4(2)9-6/h2-5,7H,1H2	InChI=1S/C6H7NO2/c7-6-3-2-1-8-5(3)4(2)9-6/h2-5,7H,1H2/t2-,3-,4+,5+/m0/s1
