19
gdb 112168	2.39132	1.24949	1.03854	3.0257	71.37	-0.2708	0.0079	0.2787	1234.7321	0.157325	-460.193827	-460.184125	-460.183181	-460.228388	35.157	
C	-0.2286688576	 1.5504936216	 0.1230865081	-0.449543
C	-0.1142601112	 0.0354457559	-0.0535649115	 0.051225
C	-1.4180331023	-0.6718190703	 0.3288649779	-0.443034
C	 0.5544505377	-0.5164026913	-1.3458349243	 0.089575
C	 1.1335851193	 0.4072177686	-2.3990178292	-0.08176
O	 1.9192434269	-0.3178694331	-3.3247330817	-0.416612
O	 1.6466711879	-1.0920766605	-0.5352085034	-0.282513
C	 1.1130404941	-0.5900692176	 0.6268832957	 0.456776
O	 1.5520212324	-0.6847990764	 1.7275454137	-0.333297
H	 0.7025115246	 2.0731078245	-0.108164214	 0.130951
H	-1.0195568939	 1.9566447237	-0.515963769	 0.125339
H	-0.4849765448	 1.7781891863	 1.1618576241	 0.141128
H	-2.243721689	-0.3156404903	-0.296095	 0.124802
H	-1.3399694108	-1.7563204262	 0.2074062742	 0.131466
H	-1.6677864955	-0.4657699428	 1.3737256051	 0.140068
H	 0.0039075473	-1.3299518358	-1.826781271	 0.101907
H	 0.3221145695	 0.8720831442	-2.9695752311	 0.119106
H	 1.7135804529	 1.2099405423	-1.9212392226	 0.097652
H	 2.6144468326	-0.7559743026	-2.819969161	 0.296763
77.2581	108.2659	161.7928	172.6533	206.2492	214.408	272.7976	300.8427	320.0293	401.7406	423.9898	486.6107	601.2646	664.2539	741.6651	764.5861	851.4615	883.8088	962.7088	995.479	1006.0919	1025.2159	1072.8192	1109.2452	1116.957	1190.7754	1212.4344	1222.273	1268.0163	1313.3125	1351.2342	1400.2571	1405.6035	1423.5546	1432.8256	1481.0536	1486.3477	1493.2601	1503.7846	1507.6455	1932.2285	3001.199	3035.4791	3042.6199	3070.1667	3083.6942	3106.6904	3110.6976	3116.816	3124.4087	3799.1758
CC1(C)C(CO)OC1=O	CC1(C)[C@@H](CO)OC1=O	
InChI=1S/C6H10O3/c1-6(2)4(3-7)9-5(6)8/h4,7H,3H2,1-2H3	InChI=1S/C6H10O3/c1-6(2)4(3-7)9-5(6)8/h4,7H,3H2,1-2H3/t4-/m1/s1
