23
gdb 108931	3.73431	0.93906	0.85667	0.3049	94.83	-0.21	0.0323	0.2424	1488.0348	0.206277	-351.167852	-351.158579	-351.157635	-351.202229	35.612	
C	 0.0894867322	 1.4966945091	 0.3248363547	-0.371645
C	-0.0205430924	 0.0372569024	-0.1523887001	-0.285613
C	-1.4168256641	-0.508655664	-0.1027923527	 0.324186
C	-2.1602583489	-0.9139645374	-1.1367124537	-0.254176
C	-3.5105188517	-1.3786616163	-0.7266451202	 0.373568
C	-4.752219984	-0.9193636379	-1.4689232054	-0.310008
C	-4.3156620274	-2.3600880194	-1.5431240489	-0.316449
C	-3.451690132	-1.451420246	 0.8070408008	-0.307907
C	-2.1944664928	-0.6307810105	 1.197108954	-0.311539
H	 1.1244927561	 1.8476102438	 0.2671268133	 0.111361
H	-0.5284913637	 2.1567145523	-0.2922305907	 0.118843
H	-0.2405796736	 1.6045145827	 1.362845706	 0.118839
H	 0.3637703327	-0.0416222114	-1.1757330911	 0.098382
H	 0.6354386451	-0.5842549798	 0.4745662934	 0.099035
H	-1.8431559108	-0.8968307624	-2.1752429246	 0.081387
H	-5.6321042597	-0.6807959279	-0.8796536705	 0.10857
H	-4.6227340978	-0.2967119161	-2.3482983424	 0.107836
H	-3.8927838167	-2.7222724097	-2.4749466431	 0.107668
H	-4.9017825406	-3.0994485333	-1.0056863346	 0.107215
H	-4.3636286451	-1.0806450839	 1.283436476	 0.095615
H	-3.3242787169	-2.4936950067	 1.1199808092	 0.103107
H	-1.6098667041	-1.1150850203	 1.9891084985	 0.096761
H	-2.4611279238	 0.3628835227	 1.5826651722	 0.104963
57.3728	89.1187	121.4109	199.8412	235.9791	268.2156	311.3076	379.037	441.7295	502.8508	520.2715	604.4522	755.6926	778.4774	786.8046	844.0489	863.2487	877.1007	893.9708	931.2111	943.5348	958.305	981.0816	998.9119	1042.5892	1055.2424	1067.0807	1073.8013	1100.4171	1164.5761	1184.6125	1191.1936	1219.2716	1260.3324	1287.0637	1302.3846	1315.4377	1337.4256	1352.7091	1394.8357	1406.4747	1464.8496	1479.3174	1482.7079	1497.9432	1499.0418	1501.1974	1508.1518	1711.8176	2999.738	3008.6506	3032.3661	3035.6581	3046.4087	3056.0378	3086.5358	3106.0733	3107.9118	3117.5789	3122.4758	3172.4016	3196.0728	3212.6257
CCC1=CC2(CC2)CC1	CCC1=CC2(CC2)CC1	
InChI=1S/C9H14/c1-2-8-3-4-9(7-8)5-6-9/h7H,2-6H2,1H3	InChI=1S/C9H14/c1-2-8-3-4-9(7-8)5-6-9/h7H,2-6H2,1H3
