14
gdb 20717	5.7341	1.61789	1.27177	1.1007	70.15	-0.2202	-0.0726	0.1476	914.3298	0.109083	-374.913693	-374.906756	-374.905812	-374.944872	25.818	
C	-0.2340741317	 1.4781474397	-0.0021556383	-0.454642
C	 0.0163600428	 0.0019862563	-0.0276272742	 0.368347
N	-0.0048624342	-0.6206824559	-1.1674784081	-0.210947
N	 0.2251803362	-1.9431741606	-1.1397866132	-0.24331
C	 0.4836142603	-2.7134448493	-0.0160889821	 0.356107
N	 0.6866562654	-3.9735056962	-0.1333339807	-0.55582
C	 0.4764466393	-1.8812350138	 1.1912319266	-0.049273
N	 0.2594078114	-0.6125953214	 1.1969679721	-0.257443
H	 0.6227411852	 2.0033727832	 0.4329394176	 0.140614
H	-0.4110461132	 1.8495740891	-1.0119183588	 0.140663
H	-1.1011294205	 1.7075818097	 0.6262415435	 0.140614
H	 0.2041466764	-2.4078611488	-2.0367520279	 0.278151
H	 0.8608086997	-4.3906616496	 0.779710135	 0.21751
H	 0.668976633	-2.3809893223	 2.1414929685	 0.12943
87.7627	152.9242	295.0337	311.0355	385.3386	431.2925	493.237	513.8259	637.5537	690.2641	749.8461	782.9047	783.02	829.2014	967.2879	981.2679	1029.3861	1067.9544	1120.169	1244.9557	1277.9506	1381.2966	1403.2483	1417.1419	1449.2917	1474.7309	1479.8346	1568.7868	1649.0709	1705.7641	3042.2829	3096.1723	3126.1096	3153.2038	3495.6006	3606.9886
CC1=NNC(=N)C=N1	Cc1n[nH]c([NH])cn1	
InChI=1S/C4H6N4/c1-3-6-2-4(5)8-7-3/h2H,1H3,(H2,5,8)	InChI=1S/C4H11N4/c1-3-6-2-4(5)8-7-3/h3-8H,2H2,1H3
