20
gdb 68599	2.34923	1.84516	1.49425	0.5133	78.68	-0.2296	0.0692	0.2987	995.7434	0.171942	-403.099498	-403.091652	-403.090708	-403.131277	31.754	
C	 0.0257929263	 1.5125110505	 0.0994539654	-0.505306
C	-0.0432220581	 0.0195343124	-0.035785509	 0.348285
C	 0.3168962725	-0.7920027872	-1.3150065735	-0.278354
C	-0.3995198145	-1.9297519078	-0.5184045471	-0.156676
C	 0.5282487523	-2.0341601928	 0.6988149545	-0.077116
O	 0.7511540111	-0.6303208627	 0.9802245726	-0.313598
C	-1.3382653597	-0.8168083735	-0.0130448473	 0.39617
C	-2.524638322	-0.782047625	 0.849256093	-0.346801
N	-2.619719468	-0.4923244025	-0.611837881	-0.400441
H	 1.0543652681	 1.861788423	-0.030091483	 0.135567
H	-0.5978323081	 2.000491731	-0.6560163328	 0.116634
H	-0.313863404	 1.824682718	 1.0922245793	 0.130154
H	-0.2480033604	-0.4825854248	-2.1956123376	 0.11034
H	 1.3803432012	-0.9081989951	-1.5390133735	 0.09487
H	-0.7649530184	-2.8445601259	-0.9807787833	 0.081216
H	 0.0573256208	-2.5192124711	 1.5618462201	 0.100526
H	 1.4829093156	-2.5289876822	 0.4853500897	 0.09893
H	-3.0128751821	-1.702744087	 1.1578016503	 0.120419
H	-2.632477336	 0.0435416018	 1.5486872974	 0.115785
H	-2.7031355266	 0.5132223309	-0.7523913643	 0.229395
165.019	193.152	204.3496	239.5066	282.4455	357.5608	417.772	432.186	563.3535	627.1143	637.8115	679.5525	809.6768	856.143	882.3428	904.9301	909.5807	938.1317	951.7522	958.5698	972.3093	1004.4953	1025.111	1068.8917	1079.3793	1118.1859	1128.1162	1166.2444	1182.8556	1194.4791	1229.9615	1244.3898	1259.8332	1265.5576	1342.2804	1357.5761	1418.1936	1435.109	1480.0595	1484.5253	1495.0075	1519.6908	1530.9673	3023.0492	3038.9012	3063.3784	3066.6761	3103.9392	3110.001	3113.1437	3138.4873	3142.8939	3187.3315	3471.8741
CC12CC(CO1)C21CN1	C[C@@]12C[C@@H](CO1)[C@]12CN1	
InChI=1S/C7H11NO/c1-6-2-5(3-9-6)7(6)4-8-7/h5,8H,2-4H2,1H3	InChI=1S/C7H11NO/c1-6-2-5(3-9-6)7(6)4-8-7/h5,8H,2-4H2,1H3/t5-,6-,7-/m0/s1
