15
gdb 25578	7.24342	0.75841	0.68947	4.0156	68.47	-0.2134	-0.0349	0.1785	1523.1402	0.11222	-453.978597	-453.970184	-453.96924	-454.013651	29.053	
O	-0.2299013284	 0.2121781596	 0.505941845	-0.234155
C	 0.0489679358	 1.1303119473	-0.2168516575	 0.141641
C	 1.3690417245	 1.871064924	-0.1421803434	-0.154591
O	 1.3437450225	 2.8817218375	-1.1460743429	-0.282008
C	 2.4480946482	 3.6416921836	-1.2103854109	 0.500221
N	 3.5205456666	 3.560794911	-0.4703603124	-0.356129
C	 4.3464830824	 4.5679591902	-0.9480026756	-0.093282
C	 3.7517039837	 5.2408993343	-1.9731742539	-0.10501
N	 2.5133853811	 4.6308426386	-2.1391680845	-0.340225
H	-0.6436730432	 1.5099080737	-1.00041097	 0.094647
H	 1.502937812	 2.3109199459	 0.8534990445	 0.157342
H	 2.2039436535	 1.1785377323	-0.3037589867	 0.156958
H	 5.3198661882	 4.7386429534	-0.5155913897	 0.112361
H	 4.0640616272	 6.0665685066	-2.5892648297	 0.131891
H	 1.7985607059	 4.863073572	-2.8069670922	 0.270339
30.8533	49.9326	115.9647	119.8779	306.3382	306.7214	392.9576	473.3273	582.8592	635.5666	687.8033	724.7485	740.7819	769.2994	843.1872	924.0118	1004.8566	1055.6114	1085.0707	1089.0501	1108.4556	1138.6039	1194.4326	1231.6882	1290.3414	1339.2665	1381.1685	1410.62	1471.2565	1511.4615	1549.5041	1615.3512	1848.0232	2895.2443	3036.4488	3075.7621	3256.2581	3288.998	3677.1147
O=CCOC1=NC=CN1	O=CCOc1ncc[nH]1	
InChI=1S/C5H6N2O2/c8-3-4-9-5-6-1-2-7-5/h1-3H,4H2,(H,6,7)	InChI=1S/C5H6N2O2/c8-3-4-9-5-6-1-2-7-5/h1-3H,4H2,(H,6,7)
