21
gdb 118533	3.13295	0.76377	0.65102	1.1957	81.54	-0.2423	0.0455	0.2878	1724.5616	0.178485	-424.175149	-424.163773	-424.162828	-424.213248	39.414	
C	 0.1756673738	 1.4080512329	-0.0323217266	-0.241273
O	 0.0663595317	 0.0037240868	-0.1647943657	-0.251295
C	-1.2330667784	-0.5414484197	-0.0120805678	 0.105761
C	-1.2423257141	-1.871165415	-0.7699849521	-0.207574
C	-0.9578951928	-1.713891426	-2.2655723591	-0.074345
O	-1.0287448432	-2.9494199299	-2.9625208446	-0.418797
C	-1.60062061	-0.7631036272	 1.47975102	-0.355647
C	-1.9831745079	 0.4371631205	 2.2135166009	 0.284712
C	-2.3333983803	 1.4161536855	 2.8178432003	-0.435649
H	 1.1904369995	 1.6735395513	-0.340595255	 0.122544
H	-0.5401483497	 1.9301121309	-0.6849930969	 0.105503
H	 0.0135371081	 1.7450432242	 0.9975847745	 0.129282
H	-1.9757112524	 0.1397728311	-0.4584688617	 0.078022
H	-0.4872826823	-2.5325218765	-0.3224674188	 0.094988
H	-2.2151399169	-2.359143605	-0.6453074798	 0.105122
H	-1.7210622279	-1.0738344403	-2.7234408185	 0.106256
H	 0.0119767553	-1.2205834619	-2.4080177277	 0.106704
H	-0.2925528179	-3.4941084601	-2.6667681674	 0.280594
H	-2.4302073491	-1.4794806593	 1.5287863153	 0.131486
H	-0.7412587659	-1.2444100506	 1.9624309344	 0.137848
H	-2.6342444093	 2.2827476384	 3.3525009964	 0.195757
26.5588	68.1555	77.1899	104.6079	119.4339	182.617	198.3407	282.4404	293.4398	337.4504	344.5772	372.6948	400.9777	499.6927	609.6647	616.3778	634.0768	773.1021	835.6514	931.5714	945.2691	1010.6487	1056.5732	1066.7881	1077.0374	1107.9579	1143.0631	1170.6004	1183.1658	1215.6357	1256.0512	1267.9627	1316.5657	1331.2362	1369.8367	1387.6015	1403.9616	1419.238	1454.3851	1475.2986	1479.9566	1491.9584	1512.0421	1516.5139	2233.7556	2973.5228	2991.826	3015.7808	3022.6574	3026.9548	3060.2973	3065.4306	3067.1231	3086.0504	3111.8668	3505.2892	3817.4773
COC(CCO)CC#C	CO[C@@H](CCO)CC#C	
InChI=1S/C7H12O2/c1-3-4-7(9-2)5-6-8/h1,7-8H,4-6H2,2H3	InChI=1S/C7H12O2/c1-3-4-7(9-2)5-6-8/h1,7-8H,4-6H2,2H3/t7-/m1/s1
