23
gdb 105877	2.00614	1.40508	1.27987	1.3418	86.08	-0.2424	0.071	0.3134	1213.6474	0.204791	-388.269021	-388.259086	-388.258142	-388.303429	37.735	
C	-0.0057152267	 1.5439291333	 0.2507289307	-0.369093
C	-0.0324705767	 0.0549694357	-0.1256963472	-0.303837
C	-1.4228905974	-0.5237117443	-0.088571009	 0.36112
C	-2.0591232589	-1.0327967927	 1.1841616107	-0.043686
C	-3.3654362313	-0.5736402334	 1.802506473	-0.417869
C	-1.9150324422	-1.9853440887	 0.0282423914	-0.147821
C	-3.001717742	-1.7425081519	-1.0235674626	-0.28153
C	-2.4496195141	-0.2863126531	-1.1946671435	 0.052575
O	-3.3017060922	 0.8271225727	-0.9958784161	-0.43136
H	 1.0044867337	 1.9572957302	 0.1670910936	 0.103448
H	-0.6682623625	 2.1228675286	-0.4001908799	 0.128795
H	-0.3490751713	 1.6911910386	 1.2798049008	 0.116975
H	 0.3916902324	-0.0754344076	-1.1310486357	 0.088321
H	 0.6166674962	-0.5104392554	 0.5550170039	 0.092164
H	-1.2879554445	-1.2160205629	 1.9328770948	 0.077991
H	-4.1065449128	-0.3003576921	 1.0517118199	 0.133807
H	-3.7857177553	-1.3566266128	 2.4446976804	 0.104383
H	-3.199372111	 0.3127577803	 2.4244187194	 0.113733
H	-1.3122749532	-2.8838379946	 0.0968180043	 0.080004
H	-2.8873153253	-2.3449109758	-1.927855732	 0.095501
H	-4.03600731	-1.8235737384	-0.6756454909	 0.097049
H	-1.9311632555	-0.197909669	-2.1604011645	 0.067725
H	-3.8658952092	 0.9160090034	-1.7709017715	 0.281608
76.2913	120.6497	150.2185	189.2302	200.498	234.4221	286.503	301.2047	336.7535	354.476	408.9282	507.2337	566.1181	665.038	715.6421	769.7489	785.1918	840.3394	879.3901	947.2208	966.7582	979.0903	992.1911	1019.752	1067.5476	1073.0121	1096.8245	1099.6807	1129.0289	1158.5422	1170.1442	1209.0389	1240.3067	1247.789	1265.567	1290.9556	1342.3429	1349.972	1362.6468	1409.7782	1414.2398	1424.0612	1465.0298	1481.9142	1489.4586	1496.4074	1500.7979	1507.8176	1509.8672	2988.1663	3006.5147	3031.048	3034.7848	3042.7166	3051.1787	3085.3379	3102.7667	3103.5813	3104.1629	3109.775	3153.0017	3173.5033	3810.462
CCC12C(C)C1CC2O	CC[C@]12[C@@H](C)[C@H]1C[C@H]2O	
InChI=1S/C8H14O/c1-3-8-5(2)6(8)4-7(8)9/h5-7,9H,3-4H2,1-2H3	InChI=1S/C8H14O/c1-3-8-5(2)6(8)4-7(8)9/h5-7,9H,3-4H2,1-2H3/t5-,6+,7+,8-/m0/s1
