21
gdb 84743	1.97928	1.80132	1.17577	2.5988	83.56	-0.235	-0.0106	0.2245	1144.1027	0.182405	-387.134419	-387.125328	-387.124384	-387.168041	34.738	
C	-0.0493416014	 1.6104178521	-0.1365492061	-0.39067
C	 0.020309911	 0.0749656487	-0.0148073431	-0.041098
C	 0.6216134989	-0.530470384	-1.2605048403	-0.071828
C	 1.8758967681	-0.9708609141	-1.3411840982	-0.055948
C	 2.8544163956	-0.9034219642	-0.1974528431	-0.356985
C	 2.284539339	-0.2136167007	 1.0370842975	 0.388585
O	 2.9784334655	 0.4372174457	 1.7839343446	-0.319064
C	 0.7885843863	-0.4141602251	 1.2490646053	-0.091769
C	 0.3000098088	 0.190178801	 2.5639722466	-0.410531
H	 0.9530593955	 2.0507225048	-0.1537298934	 0.128773
H	-0.5535238281	 1.8966606536	-1.0649185078	 0.115186
H	-0.603399538	 2.054420404	 0.6949824088	 0.120892
H	-1.01092741	-0.2914615801	 0.0802056701	 0.081
H	-0.020564736	-0.5758036604	-2.1372735415	 0.089534
H	 2.2478070771	-1.389653546	-2.2731211169	 0.092919
H	 3.1625926722	-1.9185786695	 0.0994323371	 0.132307
H	 3.7782130029	-0.387316415	-0.4818133187	 0.132482
H	 0.6399259575	-1.5043548861	 1.2732514785	 0.092671
H	 0.5513975534	 1.2507034607	 2.6323365286	 0.135189
H	-0.7846176285	 0.0786785064	 2.6626481706	 0.105166
H	 0.7743845201	-0.3055043517	 3.4148402913	 0.12319
80.9572	95.5856	195.7507	213.7293	243.1181	280.1075	287.6898	388.3822	424.8407	468.7391	511.8512	562.4279	617.6486	701.1391	738.1189	802.2146	828.5585	916.2121	931.394	969.2157	995.2916	1005.8278	1014.2128	1087.2096	1091.2854	1104.6825	1145.1104	1167.3675	1185.8617	1229.665	1283.4989	1315.7385	1331.268	1346.2141	1390.3191	1402.4223	1410.8317	1420.0311	1445.5649	1486.6619	1492.7221	1495.5161	1507.4077	1725.1016	1812.3132	2991.3171	2995.4793	3008.3897	3036.8776	3045.8827	3064.9959	3105.1781	3114.0392	3114.4513	3131.978	3142.3559	3165.9515
CC1C=CCC(=O)C1C	C[C@H]1C=CCC(=O)[C@H]1C	
InChI=1S/C8H12O/c1-6-4-3-5-8(9)7(6)2/h3-4,6-7H,5H2,1-2H3	InChI=1S/C8H12O/c1-6-4-3-5-8(9)7(6)2/h3-4,6-7H,5H2,1-2H3/t6-,7-/m0/s1
