16
gdb 110346	2.30273	1.45356	1.32539	3.1058	64.41	-0.2488	-0.0274	0.2214	1040.5702	0.123098	-474.980702	-474.972057	-474.971113	-475.014447	31.389	
O	 0.0211415862	 1.2707064563	 0.4760993434	-0.419027
C	 0.0750658612	 0.0117843795	-0.1678886702	-0.096162
C	-1.2943504577	-0.640045949	-0.2060970985	-0.02436
C	-1.587621448	-2.0828230795	-0.17347376	-0.06978
C	-0.6148452151	-2.9039783327	 0.6620856378	-0.011299
O	 0.6700242001	-3.1000215554	 0.1356546108	-0.415732
C	-0.8602352565	-1.8418612998	 1.7615179485	 0.340617
O	-0.4097203443	-1.600035417	 2.8390801152	-0.308565
N	-1.9351240226	-1.1883556575	 1.0434853322	-0.198095
H	-0.2057295214	 1.1165698149	 1.400360164	 0.299234
H	 0.3926027812	 0.2061019002	-1.197882868	 0.120901
H	 0.8216412662	-0.6546900478	 0.2791802765	 0.122155
H	-2.0279783146	-0.0431812196	-0.7433604162	 0.124917
H	-2.3885671161	-2.5156964456	-0.7605125739	 0.11793
H	-1.0885961797	-3.8496762567	 0.9660476941	 0.11614
H	 1.2000034811	-3.5578988004	 0.7979329843	 0.301126
52.2477	126.7679	180.1887	182.9815	215.0648	281.1035	339.3406	384.7204	472.2368	528.648	583.8008	650.051	693.5176	769.9787	823.7846	881.0275	918.8256	971.126	1020.7839	1043.6718	1074.2786	1084.6546	1133.7526	1162.0819	1188.6174	1219.8772	1271.8006	1289.5659	1343.2317	1370.6276	1414.4079	1427.2174	1449.486	1506.1422	1907.5417	2999.338	3039.4602	3083.8175	3145.2107	3194.8814	3800.7508	3807.3578
OCC1C2C(O)C(=O)N12	OC[C@H]1[C@H]2[C@@H](O)C(=O)N12	
InChI=1S/C5H7NO3/c7-1-2-3-4(8)5(9)6(2)3/h2-4,7-8H,1H2	InChI=1S/C5H7NO3/c7-1-2-3-4(8)5(9)6(2)3/h2-4,7-8H,1H2/t2-,3-,4+,6?/m0/s1
