19
gdb 75453	1.96721	1.62664	1.35098	3.215	81.92	-0.2357	0.0018	0.2376	1097.8889	0.159103	-382.095725	-382.086523	-382.085578	-382.12931	34.362	
C	-0.1432289229	 1.4675742145	 0.0273236611	-0.505043
C	 0.0011277401	-0.017491095	-0.0468611003	 0.330103
C	 0.0614885397	-0.796002678	-1.1242040624	-0.176125
C	 0.1525572022	-2.2503713668	-0.7645119653	-0.211446
N	 0.4331212316	-2.2049867006	 0.6786573405	-0.332961
C	 0.050209362	-0.8877256594	 1.2138509113	 0.050186
C	 1.0625022583	-0.4115517497	 2.2706511806	-0.409592
C	-1.3077178115	-0.9135675974	 1.8232605689	 0.240285
N	-2.3644146781	-0.9662635908	 2.2917003706	-0.34873
H	 0.7099790493	 1.932322611	 0.535204654	 0.134389
H	-0.2203474169	 1.9030608736	-0.9717378519	 0.131257
H	-1.0408418307	 1.747104624	 0.5924602132	 0.147841
H	 0.0302338068	-0.4470518438	-2.149465434	 0.104236
H	-0.7841299775	-2.7760181536	-1.0172032548	 0.109794
H	 0.9611095054	-2.7700528882	-1.2962837016	 0.114536
H	 0.009839224	-2.967117881	 1.1921412533	 0.232552
H	 2.0504977747	-0.3526478449	 1.80828057	 0.130115
H	 0.7875874705	 0.5659390848	 2.6768696637	 0.127636
H	 1.1070482229	-1.1248572886	 3.0979028332	 0.130969
87.4872	131.2592	179.7102	195.3738	229.5379	261.2172	261.9474	334.4942	371.8203	491.7744	506.4799	591.6326	618.6255	648.7609	667.3957	797.4201	832.1879	889.2997	950.4173	960.5786	1015.5835	1042.6262	1068.8738	1084.9751	1122.9912	1149.4502	1169.9984	1202.2507	1236.742	1304.4549	1354.3269	1401.6141	1418.1987	1443.8724	1476.4177	1484.8789	1486.3559	1498.074	1518.8336	1734.7642	2332.8512	2956.9862	3017.3329	3026.4013	3046.731	3076.6992	3120.202	3123.8272	3135.5838	3207.6631	3571.1538
CC1=CCNC1(C)C#N	CC1=CCN[C@]1(C)C#N	
InChI=1S/C7H10N2/c1-6-3-4-9-7(6,2)5-8/h3,9H,4H2,1-2H3	InChI=1S/C7H10N2/c1-6-3-4-9-7(6,2)5-8/h3,9H,4H2,1-2H3/t7-/m1/s1
