14
gdb 14817	2.60519	1.97225	1.234	1.0676	63.83	-0.2546	-0.0359	0.2187	940.2672	0.104854	-382.481793	-382.47391	-382.472966	-382.515161	27.427	
O	 0.101509797	-0.1607352314	-0.2635904354	-0.250549
C	 0.0653679008	 1.0048066366	 0.0329223712	 0.169363
C	 1.2625051199	 1.9218652371	 0.0022414374	-0.168947
C	 1.0160578383	 3.2662962909	-0.7267173262	-0.087521
O	 1.1000702252	 4.0181057071	 0.4983684376	-0.270484
C	 1.4606859812	 2.838826735	 1.256739138	-0.055536
C	 0.6267765079	 2.6134908009	 2.4251795872	 0.329489
C	-0.0488073043	 2.4178417063	 3.3996921917	-0.436802
H	-0.8842891084	 1.4979568524	 0.3361890567	 0.096286
H	 2.1453253728	 1.3594274148	-0.2993463777	 0.108754
H	 1.8007708026	 3.5422802119	-1.4401375782	 0.118599
H	 0.0366912803	 3.3779382373	-1.207542556	 0.118325
H	 2.5145023169	 2.8820819849	 1.5618787052	 0.117782
H	-0.6472146602	 2.2471131662	 4.2609112385	 0.211242
50.528	63.7747	147.2496	206.4911	313.6767	323.6796	441.4434	526.73	539.9823	636.2284	685.941	790.0242	866.4938	869.4991	961.9771	970.3713	1032.1591	1062.5255	1090.5073	1134.1108	1171.3234	1220.0875	1254.3205	1302.6429	1348.3868	1361.6082	1431.34	1524.5763	1833.1287	2235.4445	2895.8145	3014.0749	3023.8814	3067.9742	3127.7311	3499.8201
O=CC1COC1C#C	O=C[C@H]1CO[C@H]1C#C	
InChI=1S/C6H6O2/c1-2-6-5(3-7)4-8-6/h1,3,5-6H,4H2	InChI=1S/C6H6O2/c1-2-6-5(3-7)4-8-6/h1,3,5-6H,4H2/t5-,6-/m0/s1
