18
gdb 9365	8.1194	0.76849	0.71455	0.6698	66.12	-0.2552	0.0151	0.2703	1573.9686	0.151052	-422.099801	-422.089942	-422.088998	-422.135959	32.309	
C	-0.0739175534	 1.3273126718	 0.1138789194	-0.228836
O	 0.0007293637	-0.0746580643	 0.0182442879	-0.234723
C	 0.6584040039	-0.5071879384	-1.1521316958	-0.046221
C	 0.67164141	-2.0287600489	-1.135071581	-0.344084
C	 1.3550211554	-2.6084117272	-2.3521687568	 0.449556
O	 1.8377629183	-1.9709124845	-3.255601087	-0.358774
O	 1.3587652598	-3.9555479468	-2.3046151012	-0.233423
C	 1.9843764847	-4.6067527424	-3.4171762101	-0.240022
H	 0.9257504575	 1.7896497022	 0.1379176605	 0.105081
H	-0.6319034762	 1.7658248216	-0.728745383	 0.105111
H	-0.5952357887	 1.5648328312	 1.0443702415	 0.126465
H	 0.1432120167	-0.1396334378	-2.0534195754	 0.101408
H	 1.6872362437	-0.1163592339	-1.1941374711	 0.101059
H	 1.1768640325	-2.3959649171	-0.2351618299	 0.14146
H	-0.3511576231	-2.4178797455	-1.0836504177	 0.141657
H	 3.0346136431	-4.3143061777	-3.495597801	 0.14038
H	 1.8995532401	-5.6756516098	-3.2212240832	 0.133518
H	 1.4788603722	-4.3476217725	-4.3509709961	 0.140387
35.5868	67.6827	111.7076	114.0035	125.5025	175.8351	233.284	268.916	316.8894	358.2757	507.8956	589.8527	708.1349	811.6422	900.5062	997.3387	1016.8354	1090.4444	1093.3897	1163.3131	1179.4559	1181.1387	1198.2957	1214.9363	1222.4573	1241.5428	1297.6318	1350.4972	1429.4337	1463.7465	1474.8796	1482.4316	1483.3984	1484.9581	1498.3223	1505.6584	1528.0169	1815.3347	2966.5307	2981.4588	3006.0281	3013.7126	3051.352	3055.3561	3092.0926	3114.175	3125.3877	3158.8613
COCCC(=O)OC	COCCC(=O)OC	
InChI=1S/C5H10O3/c1-7-4-3-5(6)8-2/h3-4H2,1-2H3	InChI=1S/C5H10O3/c1-7-4-3-5(6)8-2/h3-4H2,1-2H3
