19
gdb 61880	2.42127	0.91654	0.72629	3.8711	73.18	-0.2718	0.0029	0.2747	1555.071	0.156447	-460.164731	-460.154881	-460.153937	-460.201161	34.11	
C	-0.1542623668	 1.5764496565	-0.1542200938	-0.392601
C	-0.1560665752	 0.0523561103	-0.1731387513	 0.105377
C	-1.5123710022	-0.5412004465	-0.5541912438	-0.232741
C	-1.5272981563	-2.052544694	-0.549250078	 0.083676
C	-1.9138003301	-2.8214435465	 0.6425644351	-0.178368
O	-2.8116146491	-2.6692888816	-0.4573007338	-0.233535
O	 0.8044928682	-0.408282442	-1.1524320257	-0.191141
C	 2.0236184464	-0.7814530214	-0.7234112729	 0.169971
O	 2.8938493969	-1.127795733	-1.4641988761	-0.27461
H	 0.8326611035	 1.9605097533	 0.1194987702	 0.126683
H	-0.4133859453	 1.9702873789	-1.1412753137	 0.13969
H	-0.8819159987	 1.9504917351	 0.5722669794	 0.126185
H	 0.1453038243	-0.3336585693	 0.8109123024	 0.090576
H	-2.2697312086	-0.175702201	 0.1474128021	 0.113891
H	-1.7901166978	-0.1758387761	-1.5501914336	 0.124469
H	-0.857136107	-2.5280910443	-1.2645247669	 0.115218
H	-1.5215847917	-3.8261284851	 0.7928143818	 0.120805
H	-2.2002304045	-2.295625149	 1.5534606506	 0.110111
H	 2.1227386643	-0.7410755542	 0.3797291579	 0.076343
36.4146	63.3282	90.0883	143.5053	165.1918	215.1551	250.9948	319.0329	343.8016	401.7481	481.8636	530.8056	612.5813	820.757	866.5365	883.6416	898.3069	949.5662	974.4781	1029.771	1046.4208	1084.188	1129.7675	1137.3046	1156.8224	1157.3119	1185.6471	1196.0061	1258.3446	1289.4897	1312.4581	1375.9796	1388.8643	1412.9584	1439.4668	1443.6185	1474.1625	1488.0351	1495.7335	1530.0228	1864.947	2938.1903	3008.8625	3039.0667	3044.2231	3079.0231	3087.0271	3117.6806	3122.4712	3124.1925	3166.3368
CC(CC1CO1)OC=O	C[C@@H](C[C@H]1CO1)OC=O	
InChI=1S/C6H10O3/c1-5(9-4-7)2-6-3-8-6/h4-6H,2-3H2,1H3	InChI=1S/C6H10O3/c1-5(9-4-7)2-6-3-8-6/h4-6H,2-3H2,1H3/t5-,6-/m0/s1
