16
gdb 124165	3.50705	0.98213	0.77465	1.0098	83.81	-0.2284	-0.0133	0.2151	1443.5008	0.12447	-396.92658	-396.917338	-396.916394	-396.964127	31.316	
C	-0.0014677129	 1.4668630194	 0.0422043918	-0.508639
C	 0.0214839697	 0.0133335193	 0.0222174656	 0.178567
C	 0.0542997126	-1.1920583055	 0.0055964957	-0.04496
C	 0.0409706009	-2.6051912016	-0.0137106777	 0.145968
N	 1.1555932026	-3.3555316357	-0.0283873513	-0.28071
N	 0.6817351198	-4.5887231463	-0.0434379882	-0.11233
N	-0.6406499064	-4.7276973045	-0.0401519107	-0.234252
C	-1.0847837736	-3.4720857427	-0.0211735402	 0.193534
C	-2.5360647967	-3.1301276051	-0.0107447465	-0.513803
H	 1.0150049352	 1.8742433645	 0.0658435228	 0.156754
H	-0.5011313295	 1.8700767889	-0.8457873586	 0.152076
H	-0.5322927009	 1.8451236218	 0.9230451502	 0.152033
H	 1.295466727	-5.3869752741	-0.0568303282	 0.291731
H	-2.797853821	-2.5485879653	 0.8793507956	 0.140094
H	-2.8044609377	-2.5230500672	-0.8816048677	 0.1401
H	-3.1364432591	-4.0415969059	-0.0216776826	 0.143837
4.3663	64.689	81.8129	113.3134	253.3278	259.9887	311.098	364.6364	479.5615	491.6035	515.581	551.1792	699.8015	712.8066	768.6894	981.2528	1001.3698	1021.7423	1051.3804	1051.9355	1070.7055	1186.2525	1195.4745	1275.8676	1344.5435	1411.2417	1413.3113	1454.4462	1474.4641	1475.9727	1480.4735	1483.2001	1520.3378	1556.3707	2365.4124	3026.2724	3041.3883	3085.4028	3091.9051	3094.2961	3138.8085	3669.8163
CC#CC1=NNN=C1C	CC#Cc1n[nH]nc1C	
InChI=1S/C6H7N3/c1-3-4-6-5(2)7-9-8-6/h1-2H3,(H,7,8,9)	InChI=1S/C6H7N3/c1-3-4-6-5(2)7-9-8-6/h1-2H3,(H,7,8,9)
