19
gdb 78332	2.82043	1.34874	1.04593	3.3918	82.17	-0.2351	-0.0062	0.2289	1201.5021	0.158604	-385.872607	-385.86422	-385.863275	-385.905405	32.305	
C	-0.103469913	 1.4087127089	-0.0113100851	-0.424262
C	 0.05316802	-0.0931674427	 0.0975353537	-0.014971
C	 1.4437087823	-0.6585866863	-0.2058484738	-0.193943
C	 0.8379423143	-0.6679812203	 1.226529617	-0.173077
C	 0.7573455326	-2.1870653715	 1.1798661443	 0.242978
C	 1.1208048785	-3.1903113304	 2.2411624722	-0.333148
C	-0.2846049518	-3.1375917095	 1.7066127733	-0.319069
C	 1.4059419845	-2.1631096319	-0.1945122709	 0.369439
O	 1.8481148027	-3.0221462233	-0.9075827225	-0.338395
H	 0.7838353666	 1.9296750815	 0.3629063522	 0.120114
H	-0.2589226181	 1.7151017108	-1.0506813004	 0.128476
H	-0.9643469187	 1.7507482663	 0.5727722046	 0.12513
H	-0.8066950952	-0.6611173408	-0.2525629576	 0.097296
H	 2.2141820971	-0.0298397369	-0.6344236483	 0.106311
H	 1.1837054399	-0.0834255836	 2.0697703813	 0.102167
H	 1.758018565	-4.0128855582	 1.9335193064	 0.136407
H	 1.3034643763	-2.8185818139	 3.2439253217	 0.119941
H	-1.0604925739	-2.7280193694	 2.3451321214	 0.118548
H	-0.6097239292	-3.9332281489	 1.0443381505	 0.13006
117.9915	153.7201	191.5957	203.4321	229.8774	246.6633	357.9109	418.2863	480.5015	634.8724	659.0549	755.3425	774.8421	792.1432	856.1284	862.2762	892.5596	930.2888	947.2308	967.408	995.5798	1005.7367	1047.9286	1059.3635	1080.6186	1097.9581	1105.8865	1146.3993	1191.278	1195.5453	1234.244	1239.2167	1274.6707	1382.7106	1412.5314	1417.578	1457.5209	1492.8568	1494.3765	1501.0029	1872.0279	3032.8759	3098.4186	3101.4613	3124.0117	3127.8076	3130.4062	3191.6921	3200.2997	3210.1545	3224.8131
CC1C2C1C1(CC1)C2=O	C[C@H]1[C@H]2[C@@H]1C1(CC1)C2=O	
InChI=1S/C8H10O/c1-4-5-6(4)8(2-3-8)7(5)9/h4-6H,2-3H2,1H3	InChI=1S/C8H10O/c1-4-5-6(4)8(2-3-8)7(5)9/h4-6H,2-3H2,1H3/t4-,5-,6+/m0/s1
