19
gdb 88119	2.65789	1.43729	1.10405	4.3515	75.76	-0.2623	0.0151	0.2775	1151.9494	0.160118	-423.071025	-423.062592	-423.061648	-423.104249	31.629	
C	 0.0016158411	 1.4982915534	-0.2537651045	-0.414631
C	 0.082937396	 0.0020218199	-0.0567866044	-0.035422
C	 1.3992222138	-0.7130771841	-0.0476916659	-0.328103
C	 0.6028343802	-0.5764361969	 1.2419754666	 0.163917
C	 1.0462415435	 0.216898153	 2.456566674	-0.338073
C	 1.0542155032	-0.8672379896	 3.5523427147	-0.085936
O	 0.1612310842	-1.9036493103	 3.1084000636	-0.229319
C	-0.0503395689	-1.8175748788	 1.7660627309	 0.419256
O	-0.6732263855	-2.6426930303	 1.1572086948	-0.363543
H	 0.8621729751	 2.0115436903	 0.1870900793	 0.115373
H	-0.0192089685	 1.7449834864	-1.320411475	 0.127307
H	-0.9049251796	 1.9127032492	 0.200302062	 0.124573
H	-0.7417327409	-0.5689153524	-0.475482349	 0.115339
H	 1.4540665712	-1.7015806376	-0.4896473681	 0.136547
H	 2.3059611466	-0.1200404618	-0.1204099762	 0.113868
H	 2.0253467095	 0.6886315333	 2.3491548555	 0.115411
H	 0.3211868869	 1.0010782323	 2.6997502217	 0.119343
H	 2.0499194119	-1.3054581442	 3.6851610768	 0.119008
H	 0.6964713502	-0.5126367918	 4.5209539434	 0.125086
77.209	150.7891	175.3904	189.0491	198.2607	291.7301	355.2026	418.6538	524.0792	565.429	680.5568	717.6007	728.7487	808.3488	863.9604	895.5151	916.5455	939.5675	973.5935	1026.4886	1034.4614	1061.3602	1078.3172	1115.6793	1129.6356	1154.191	1193.0076	1211.9454	1242.0586	1276.9488	1310.7433	1342.1834	1400.2431	1411.6687	1429.2631	1480.4264	1489.4873	1497.5463	1505.3004	1524.3874	1865.5042	3031.8226	3041.1001	3047.2103	3095.822	3099.4296	3101.8202	3114.3369	3127.313	3151.7486	3221.9775
CC1CC11CCOC1=O	C[C@H]1C[C@]21CCOC2=O	
InChI=1S/C7H10O2/c1-5-4-7(5)2-3-9-6(7)8/h5H,2-4H2,1H3	InChI=1S/C7H10O2/c1-5-4-7(5)2-3-9-6(7)8/h5H,2-4H2,1H3/t5-,7-/m0/s1
