19
gdb 102139	2.44238	1.10426	0.84593	2.6013	77.89	-0.2534	-0.0256	0.2278	1379.0437	0.155535	-423.009732	-422.999256	-422.998311	-423.046313	37.25	
C	-0.1383815494	 1.4341236907	 0.2297914947	-0.484401
C	 0.0418413182	-0.0639630303	 0.1459475454	 0.393258
O	 0.2699491208	-0.7327626219	 1.1348686366	-0.325449
C	-0.0452440056	-0.7249863576	-1.2350096649	-0.118551
C	 0.5816387885	-2.130772071	-1.1992372222	-0.06783
O	 1.899241238	-2.1354103081	-0.6998878104	-0.431225
C	-1.52343517	-0.8433747139	-1.7143131174	-0.384165
C	-2.1256601148	 0.3843749157	-2.2157645916	 0.301938
C	-2.6202199429	 1.3915583409	-2.6479630964	-0.430001
H	 0.6834152685	 1.9249097414	-0.3056446432	 0.146521
H	-1.0620978743	 1.7475114379	-0.2653217827	 0.160595
H	-0.1320504374	 1.7495964132	 1.2738036477	 0.139394
H	 0.5011285561	-0.1007881688	-1.9513535797	 0.105079
H	-0.0722822929	-2.8001894968	-0.6198866783	 0.097679
H	 0.6295323655	-2.5208953171	-2.221955591	 0.108396
H	 1.8193341869	-1.9387811233	 0.2416318887	 0.295815
H	-1.5486860263	-1.5940788039	-2.5152601104	 0.144382
H	-2.1345817511	-1.2548205823	-0.9008074359	 0.146039
H	-3.0638110679	 2.276469225	-3.0328034789	 0.202525
24.4585	74.4964	116.8729	143.7958	169.0751	206.6071	248.91	272.8558	340.7523	395.2367	424.9324	493.4535	538.6616	602.1384	621.9784	629.5379	647.0189	725.8532	886.1369	940.4826	949.7902	995.6706	1023.5248	1075.261	1088.9167	1101.8301	1189.6742	1204.8195	1229.1231	1274.7873	1339.1053	1378.6092	1393.317	1405.3706	1434.0221	1461.8158	1469.3492	1472.7864	1494.7621	1782.5304	2235.8748	2990.8339	3017.8045	3037.8268	3045.4618	3055.4376	3070.8358	3105.1433	3155.1793	3503.6516	3785.6183
CC(=O)C(CO)CC#C	CC(=O)[C@@H](CO)CC#C	
InChI=1S/C7H10O2/c1-3-4-7(5-8)6(2)9/h1,7-8H,4-5H2,2H3	InChI=1S/C7H10O2/c1-3-4-7(5-8)6(2)9/h1,7-8H,4-5H2,2H3/t7-/m1/s1
