17
gdb 128127	3.08804	1.25551	0.9482	2.7329	73.2	-0.2076	0.0138	0.2214	1233.278	0.137093	-451.3054	-451.29614	-451.295196	-451.340214	33.598	
C	 0.2401471552	 1.1840829988	-0.1853680574	-0.328773
N	-0.4634389537	-0.0143056743	 0.2987503466	-0.395564
C	 0.220328564	-0.7635221232	 1.2557705627	 0.366508
C	 0.7060128955	-2.0313957065	 1.1901589308	 0.021999
N	 0.5918458367	-2.9922460456	 0.1722189341	-0.626988
C	 1.3010389719	-2.2305119028	 2.4736775931	 0.393798
N	 1.9871714674	-3.3705719992	 2.8651873966	-0.598234
N	 1.1831203318	-1.1715596773	 3.2440267206	-0.2391
O	 0.4896916996	-0.227688479	 2.478592186	-0.226877
H	 1.1899171744	 0.8803271165	-0.6339606938	 0.132939
H	-0.3674700854	 1.6600066492	-0.9599655623	 0.121452
H	 0.4512944601	 1.9191128187	 0.6024813477	 0.129588
H	-1.3934271887	 0.2321183067	 0.623055257	 0.240173
H	 0.1060104781	-2.5971461234	-0.6262088663	 0.248226
H	 1.4994658374	-3.3284441124	-0.1344421607	 0.24708
H	 1.5323520323	-4.2205771999	 2.5551400608	 0.25645
H	 2.1660375334	-3.3913300563	 3.8613012744	 0.257323
24.3867	120.9849	168.2513	214.2251	223.1855	246.7398	288.3165	357.5687	392.6957	414.5194	551.2377	582.3399	643.9479	696.8394	707.6185	758.8276	786.3769	807.0453	857.9977	970.4897	997.1751	1075.5809	1143.4735	1151.9371	1171.3752	1185.3031	1271.8051	1345.4596	1449.7137	1464.749	1488.487	1516.9694	1532.0262	1570.6618	1638.2865	1642.7861	1739.004	3013.3631	3087.2072	3120.4258	3495.9295	3511.5041	3532.7221	3584.923	3632.3761
CNC1=C(N)C(N)=NO1	CNc1c(N)c(N)no1	
InChI=1S/C4H8N4O/c1-7-4-2(5)3(6)8-9-4/h7H,5H2,1H3,(H2,6,8)	InChI=1S/C4H8N4O/c1-7-4-2(5)3(6)8-9-4/h7H,5H2,1H3,(H2,6,8)
