20
gdb 6237	2.53384	1.91037	1.84076	2.3051	70.53	-0.2402	0.0644	0.3046	908.6184	0.17386	-386.133947	-386.124652	-386.123707	-386.16694	35.185	
C	-0.193689418	 1.536342873	-0.0447367165	-0.46403
C	-0.01714258	 0.0238342636	-0.0340966029	 0.304863
O	-1.2387496908	-0.6275127578	-0.3204859977	-0.469756
C	 1.2326717754	-0.4738977023	-0.8005465176	-0.120928
O	 1.921643145	-0.753711373	 0.4304713379	-0.324507
C	 0.7004590054	-0.5965159676	 1.2158916581	 0.378524
C	 0.9480184571	 0.2825537547	 2.4329567935	-0.437577
C	 0.1513406421	-1.9617403939	 1.6232731329	-0.412928
H	 0.745784438	 2.0559054163	 0.1578961414	 0.133868
H	-0.5373034328	 1.8627996683	-1.0351218299	 0.107075
H	-0.9359017159	 1.8509107272	 0.6951617228	 0.126447
H	-1.6911290356	-0.1341688932	-1.0120170514	 0.278587
H	 1.0365705643	-1.3794658779	-1.389889925	 0.095298
H	 1.7711377425	 0.2558689562	-1.4174322855	 0.091324
H	 1.4181931527	 1.2296104885	 2.1610544271	 0.11575
H	 0.0103207644	 0.4917003242	 2.9585505585	 0.117829
H	 1.6155517702	-0.2348962462	 3.1294275341	 0.123922
H	 0.8653213086	-2.4504109807	 2.2935087592	 0.112835
H	-0.8050693442	-1.85864765	 2.1442190762	 0.117657
H	-0.0085756183	-2.6018849995	 0.754344785	 0.125749
80.7688	174.0567	217.1462	221.8188	241.9159	277.987	289.5583	333.2082	347.8169	374.4436	418.144	493.4878	507.2244	639.7232	680.0061	850.465	895.4978	911.888	932.4216	977.6239	985.5087	995.6517	1026.1052	1105.7813	1151.3665	1176.0734	1185.8426	1210.8909	1248.4387	1278.083	1326.8904	1389.2632	1398.9647	1406.2136	1415.788	1471.0321	1476.6922	1486.3945	1492.2986	1502.0992	1510.4433	1519.38	3005.3487	3022.1014	3039.0582	3046.9426	3055.5874	3091.1229	3103.9045	3115.7048	3123.766	3132.9184	3138.8865	3816.024
CC1(O)COC1(C)C	C[C@@]1(O)COC1(C)C	
InChI=1S/C6H12O2/c1-5(2)6(3,7)4-8-5/h7H,4H2,1-3H3	InChI=1S/C6H12O2/c1-5(2)6(3,7)4-8-5/h7H,4H2,1-3H3/t6-/m1/s1
