16
gdb 53476	6.51039	0.59715	0.55348	5.5527	79.43	-0.2588	-0.0369	0.2219	1922.8639	0.120355	-400.753741	-400.743269	-400.742324	-400.792403	34.181	
C	 0.1896469142	 1.5283595073	 0.0257438217	-0.499118
C	 0.0884396861	 0.0769577908	 0.0176866134	 0.142082
C	-0.0021901556	-1.1221089156	 0.0101753627	 0.042452
C	-0.1224048112	-2.5682803465	 0.0012223089	-0.487581
C	-1.5651922528	-3.0860923142	-0.0844346542	 0.387685
O	-2.5208253596	-2.3926634727	-0.2859766576	-0.241568
C	-1.6779384112	-4.6127831837	 0.1207211517	-0.458746
C	-2.9960675781	-5.1471280721	-0.1931326258	 0.288321
N	-4.0315002244	-5.5923383506	-0.4424374262	-0.291554
H	 0.8221820772	 1.8874691735	-0.7932380277	 0.151046
H	-0.7972290436	 1.9893749422	-0.0886766625	 0.159126
H	 0.6209194964	 1.8922283141	 0.964579698	 0.150411
H	 0.4186517882	-3.0035262447	-0.8531814001	 0.158389
H	 0.3482491445	-3.0146274636	 0.8892016078	 0.148527
H	-0.9167156857	-5.1252162219	-0.4794015079	 0.170406
H	-1.4345767044	-4.8326931325	 1.1684230577	 0.180121
22.2729	34.5362	37.1682	67.9106	150.2076	202.51	266.0327	299.0594	366.71	371.6009	415.1178	433.1343	455.6284	694.1362	773.6054	788.7506	869.9619	952.7272	986.2687	1045.4555	1052.0566	1054.8241	1178.3309	1184.6007	1254.4031	1317.9837	1348.9054	1414.2837	1432.1562	1443.7284	1476.8996	1477.0825	1850.2105	2376.6111	2385.0816	2997.1194	3023.9351	3030.1862	3037.5728	3074.7514	3091.8181	3094.3605
CC#CCC(=O)CC#N	CC#CCC(=O)CC#N	
InChI=1S/C7H7NO/c1-2-3-4-7(9)5-6-8/h4-5H2,1H3	InChI=1S/C7H7NO/c1-2-3-4-7(9)5-6-8/h4-5H2,1H3
