20
gdb 98605	4.20695	1.014	0.92985	3.2872	81.53	-0.238	0.0283	0.2663	1336.7745	0.172063	-403.127167	-403.118422	-403.117478	-403.161779	32.303	
C	 0.13909098	 1.4730411393	 0.0471595503	-0.333938
N	-0.0387828036	 0.0351889991	 0.0628942079	-0.314916
C	-1.2708365681	-0.558509656	 0.0959747949	 0.383961
O	-2.3102552893	 0.0816625773	 0.08641778	-0.3813
C	-1.2065514228	-2.0760018965	 0.1299490957	-0.0819
C	-1.2564236407	-2.8505312114	 1.4975876124	-0.055567
C	-2.7690480972	-2.494088937	 1.5847285731	-0.218225
C	-2.5172033962	-2.9129038404	 0.103639332	-0.039636
C	-1.674402746	-4.0968500291	 0.6670027218	-0.226293
H	 0.73100962	 1.7910675409	-0.818236508	 0.123123
H	-0.8542598019	 1.919071902	-0.0152033835	 0.171222
H	 0.6327530737	 1.8302250264	 0.9586788076	 0.123241
H	 0.7769594211	-0.5536429205	 0.0911289612	 0.243519
H	-0.4189153155	-2.4347214186	-0.5442809783	 0.066848
H	-0.5120804243	-2.8044779531	 2.294669932	 0.069153
H	-3.3812261112	-3.1803401338	 2.1763708436	 0.08453
H	-3.0363433339	-1.4539820955	 1.757134129	 0.129639
H	-3.2440682062	-2.9415438845	-0.7076656152	 0.07894
H	-0.9177596181	-4.5293433437	 0.005555952	 0.085247
H	-2.2281512098	-4.8706120846	 1.2047331415	 0.092353
31.0285	91.7083	113.1684	159.0973	234.6093	314.3122	383.0323	423.7235	472.3529	570.0925	687.2127	773.9971	783.0923	818.4192	886.6162	900.8717	904.4851	910.269	955.0039	1016.2683	1029.1309	1050.2195	1074.0461	1090.8744	1116.8812	1139.4371	1151.0749	1154.1323	1169.6577	1192.8836	1213.5889	1224.1726	1241.6963	1254.4946	1266.1471	1402.0743	1438.6225	1492.3081	1500.9362	1501.2022	1538.5194	1558.4396	1766.4101	3024.1093	3026.9612	3046.3122	3064.2675	3075.3217	3094.0246	3113.6676	3119.0536	3152.5875	3167.8383	3646.5143
CNC(=O)C1C2CC1C2	CNC(=O)[C@H]1[C@H]2C[C@@H]1C2	
InChI=1S/C7H11NO/c1-8-7(9)6-4-2-5(6)3-4/h4-6H,2-3H2,1H3,(H,8,9)	InChI=1S/C7H11NO/c1-8-7(9)6-4-2-5(6)3-4/h4-6H,2-3H2,1H3,(H,8,9)/t4-,5+,6-
