19
gdb 68017	2.78501	1.53474	1.18504	2.1624	75.41	-0.2371	-0.008	0.2291	1077.6706	0.158697	-423.044639	-423.036296	-423.035352	-423.076964	33.115	
C	-0.0218856428	 1.5352186304	 0.0163512918	-0.496861
C	 0.0418294125	 0.030342281	 0.0385144595	 0.206428
C	 0.9866027811	-0.8211314807	-0.8879160039	-0.303621
C	 0.7009861123	-1.9333538566	 0.1446137584	 0.420043
O	 1.5854338155	-3.0062840525	 0.2032411198	-0.482583
C	 0.6574548306	-0.8042369548	 1.2206455904	-0.335314
C	-0.7986500098	-2.2140811455	-0.0854344931	-0.407088
C	-1.2599210355	-0.7420106457	-0.1576996022	 0.413715
O	-2.3672843307	-0.3071734466	-0.3249984386	-0.338182
H	 0.9663378991	 1.9788119293	 0.1697988723	 0.1139
H	-0.414309371	 1.8922298119	-0.9411784276	 0.131222
H	-0.6910294146	 1.9058065676	 0.7993499918	 0.130896
H	 0.6900178178	-0.9866065359	-1.9274973819	 0.103659
H	 2.0185376046	-0.4669026017	-0.8339376634	 0.112884
H	 1.2384719006	-3.6582665227	 0.821741242	 0.280613
H	 1.6568426224	-0.447606232	 1.4803402743	 0.110723
H	 0.0533294257	-0.9523170761	 2.1210808261	 0.096361
H	-1.0043521384	-2.7516423709	-1.0161373072	 0.128476
H	-1.2848377594	-2.7443956186	 0.7410952715	 0.114727
128.6636	176.2832	230.5702	245.2179	259.0054	317.5388	363.0089	451.5456	497.9564	502.8042	551.8019	604.6811	628.581	691.7929	763.6769	795.2827	856.3414	918.7537	956.2928	988.6669	998.9248	1025.5261	1060.646	1066.6773	1110.4225	1117.9469	1158.3759	1192.9405	1195.2441	1214.136	1241.1237	1321.5558	1346.0998	1386.8653	1419.7669	1462.0002	1484.11	1488.5343	1489.7166	1528.8709	1864.8915	3038.2041	3045.2748	3050.1251	3058.4878	3098.2655	3106.1711	3110.2035	3119.8366	3124.5761	3806.1457
CC12CC(O)(C1)CC2=O	C[C@@]12C[C@@](O)(C1)CC2=O	
InChI=1S/C7H10O2/c1-6-3-7(9,4-6)2-5(6)8/h9H,2-4H2,1H3	InChI=1S/C7H10O2/c1-6-3-7(9,4-6)2-5(6)8/h9H,2-4H2,1H3/t6-,7-
