23
gdb 110204	2.03843	1.50359	1.03583	1.2551	86.46	-0.2529	0.0811	0.334	1277.0461	0.204575	-388.254968	-388.245265	-388.244321	-388.289065	37.661	
C	 0.4667714638	 0.2963731195	-1.4924744068	-0.381473
C	-0.010231783	 0.1670676874	-0.0399816844	-0.235803
C	-1.3778820503	-0.4964843649	 0.0719697007	-0.00553
C	-1.5783408891	-2.0601824184	 0.0906110156	 0.323275
C	-1.2438283651	-3.0500128862	-0.9923897492	-0.509094
C	-1.0470310991	-2.063646552	 1.5595816111	-0.340223
C	-2.0079316606	-0.8407037284	 1.4446550152	 0.37757
O	-2.2909914729	 0.1251991377	 2.3942397836	-0.475889
C	-2.9938017053	-1.7793658286	 0.6866268643	-0.325903
H	 1.4293796012	 0.8142785468	-1.5484094496	 0.110261
H	 0.5888351317	-0.6844017096	-1.9640403725	 0.116439
H	-0.2511723269	 0.8637243527	-2.0952592657	 0.113925
H	 0.7457266551	-0.3689103617	 0.5430522043	 0.094866
H	-0.0806410343	 1.1669056495	 0.4073715595	 0.108393
H	-2.0828858653	 0.0098538499	-0.6009181437	 0.055243
H	-0.1690662517	-3.0626589437	-1.2032331607	 0.120491
H	-1.536272162	-4.0647283773	-0.6999347807	 0.116431
H	-1.7657363104	-2.8072933822	-1.9244791886	 0.118626
H	-1.3896305593	-2.8940973285	 2.1855829504	 0.078826
H	 0.0141746672	-1.8676584495	 1.7186238893	 0.093406
H	-2.6571947624	-0.3084659758	 3.1723714871	 0.280844
H	-3.720404091	-1.2989914943	 0.0250770761	 0.087552
H	-3.4431344605	-2.5937718023	 1.2637797148	 0.077767
68.5591	133.4384	207.9118	223.1957	225.1232	231.1235	266.4957	288.5509	348.2374	418.3239	486.6611	549.7207	586.2544	596.1012	662.8182	722.4212	764.8539	814.6955	869.5641	943.7939	960.9443	978.7736	1008.508	1017.1619	1041.1667	1092.4022	1103.8385	1110.476	1119.9143	1131.4271	1160.4072	1164.7144	1193.5005	1205.1189	1280.2316	1300.7355	1330.6306	1348.0418	1372.6616	1410.1061	1412.9963	1441.4543	1481.8134	1488.9184	1491.5575	1497.5207	1501.7781	1507.5779	1550.1281	3013.3093	3025.4071	3028.2195	3031.7369	3038.2768	3050.7287	3067.9447	3090.4336	3093.4863	3099.7466	3103.5426	3107.4553	3125.6866	3809.5167
CCC1C2(C)CC1(O)C2	CC[C@H]1[C@@]2(C)C[C@]1(O)C2	
InChI=1S/C8H14O/c1-3-6-7(2)4-8(6,9)5-7/h6,9H,3-5H2,1-2H3	InChI=1S/C8H14O/c1-3-6-7(2)4-8(6,9)5-7/h6,9H,3-5H2,1-2H3/t6-,7-,8-/m0/s1
