15
gdb 21240	3.36321	1.99137	1.30381	2.1885	63.47	-0.2049	0.037	0.2419	904.9442	0.120475	-395.975111	-395.967119	-395.966175	-396.008025	28.26	
C	-0.5701528871	 0.8091702355	-0.1446863593	-0.256433
O	 0.7996643646	 0.6479756861	 0.2451318827	-0.27536
C	 1.0410268292	-0.3416399113	 1.1256808249	 0.417801
C	 0.6315308515	-1.664042977	 1.2378519957	 0.016351
N	-0.2903436305	-2.3352962514	 0.3871766714	-0.617185
C	 1.3333963564	-2.1344051157	 2.3748842457	-0.052531
N	 2.1128879483	-1.2063701174	 2.9188477892	-0.237684
N	 1.9192352882	-0.1216393293	 2.1355650984	-0.258412
H	-1.1767348172	 1.1232692215	 0.7128673086	 0.122357
H	-0.5751718466	 1.5924504171	-0.9041154391	 0.130278
H	-0.9751602766	-0.122092617	-0.5479303168	 0.154808
H	 0.1729950584	-2.7408653097	-0.4206392488	 0.243247
H	-0.745078204	-3.0953588211	 0.8805490036	 0.239824
H	 1.2889735364	-3.1228048439	 2.8123061929	 0.100057
H	 2.414446469	 0.7343914936	 2.318939511	 0.272881
42.6308	150.5625	160.146	205.5301	279.6157	291.4801	394.3481	465.8922	483.9544	663.9075	689.9691	709.2903	733.2988	850.1198	873.4131	940.7575	1040.8794	1114.1805	1159.9986	1184.5849	1206.175	1254.183	1271.8715	1307.8455	1383.7662	1444.0504	1471.0428	1483.5492	1513.4203	1551.6656	1635.6307	1671.3413	3028.6688	3109.1275	3148.239	3225.8749	3492.1936	3573.6812	3675.7363
COC1=C(N)C=NN1	COc1c(N)cn[nH]1	
InChI=1S/C4H7N3O/c1-8-4-3(5)2-6-7-4/h2H,5H2,1H3,(H,6,7)	InChI=1S/C4H7N3O/c1-8-4-3(5)2-6-7-4/h2H,5H2,1H3,(H,6,7)
