17
gdb 82636	2.38767	1.76152	1.35335	2.2147	67.32	-0.2315	0.0615	0.293	991.7472	0.134745	-458.890026	-458.88192	-458.880976	-458.922212	31.63	
C	-0.151998287	 1.4619824964	 0.0170080313	-0.518532
C	-0.0161410641	-0.0278846568	 0.097835282	 0.183391
C	-0.0179959034	-0.9551481231	-1.1491668943	-0.069237
O	 0.6982137451	-2.1510101516	-0.8143299382	-0.300334
C	 0.0369714312	-2.1039108498	 0.4840985232	-0.090493
C	 0.7133877574	-0.8764584327	 1.1499962374	 0.142443
O	 2.1087987468	-0.8703949912	 1.2111229451	-0.449032
C	-1.0630988534	-1.1115996177	-0.0893864016	 0.280486
O	-2.4233048318	-1.0142078582	-0.0145521951	-0.44542
H	 0.8254388212	 1.9336868491	-0.1286680104	 0.133061
H	-0.7983580503	 1.7592320078	-0.8155687543	 0.123424
H	-0.5894408361	 1.869886827	 0.9345559109	 0.129044
H	-0.025141783	-0.6062551007	-2.1732906297	 0.114461
H	-0.0605914679	-3.0771644689	 0.9603960931	 0.088303
H	 0.3202083504	-0.6868707794	 2.1525623573	 0.095496
H	 2.4010386491	-1.2599573592	 0.3753123812	 0.285333
H	-2.8138745742	-1.7072078209	-0.5603830478	 0.297608
157.8163	171.6016	178.7524	233.2509	294.6945	321.6965	385.6768	412.8827	500.2164	546.5983	612.2983	679.1678	687.939	758.0927	812.8217	822.7554	895.8095	936.3758	957.2654	966.423	1021.1312	1037.3797	1100.559	1111.3576	1141.7277	1176.7632	1210.6891	1234.7411	1280.3663	1289.5828	1307.9697	1359.4752	1415.7255	1434.7342	1484.2847	1491.6986	1514.4925	3029.6261	3086.8518	3093.7357	3098.9761	3147.7016	3211.505	3753.0282	3779.9752
CC12C3OC(C1O)C23O	C[C@@]12[C@H]3O[C@@H]([C@H]1O)[C@@]23O	
InChI=1S/C6H8O3/c1-5-2(7)3-6(5,8)4(5)9-3/h2-4,7-8H,1H3	InChI=1S/C6H8O3/c1-5-2(7)3-6(5,8)4(5)9-3/h2-4,7-8H,1H3/t2-,3+,4-,5+,6+/m1/s1
