12
gdb 18414	3.65923	1.91519	1.59402	4.8097	60.24	-0.2843	-0.017	0.2673	791.0535	0.084291	-377.494559	-377.488154	-377.48721	-377.525366	23.682	
N	-0.0605474723	 1.2091166522	 0.0055547893	-0.536909
C	-0.0641523448	-0.0367984786	 0.0540313809	 0.464232
O	 0.9906430928	-0.9571429645	 0.1759254036	-0.259245
C	 0.0689189119	-2.041667027	-0.0345991279	 0.081274
C	-0.9278969811	-2.1048285724	 1.0860672394	-0.219056
C	-0.6136491796	-1.7069781693	 2.4330834431	 0.319034
N	-0.3701152818	-1.4032622466	 3.5212053483	-0.325499
C	-1.1079471638	-1.1031964994	-0.0742460984	-0.21358
H	 0.880839843	 1.5925395636	 0.1007924911	 0.246323
H	 0.3824003218	-2.8656789889	-0.6600541034	 0.14534
H	-1.6217069328	-2.9387365598	 1.0175200336	 0.15454
H	-2.0079821232	-1.0758084592	-0.6696565194	 0.143545
100.888	160.407	249.316	387.9592	429.6216	516.3768	643.2605	698.2349	718.1815	792.8404	826.4247	875.446	897.7452	936.9722	959.6157	988.4234	1035.0668	1044.9497	1068.2187	1150.4672	1184.7053	1278.6232	1319.158	1406.2741	1849.8425	2364.2067	3157.4297	3223.8858	3242.7021	3492.0323
N=C1OC2C(C#N)C12	[NH][C]1O[C@H]2[C@@H](C#N)[C@@H]12	
InChI=1S/C5H4N2O/c6-1-2-3-4(2)8-5(3)7/h2-4,7H	InChI=1S/C5H4N2O/c6-1-2-3-4(2)8-5(3)7/h2-4,7H/t2-,3+,4-/m0/s1
