13
gdb 44115	3.5134	1.83133	1.58722	5.0573	62.44	-0.2675	-0.0681	0.1994	823.0558	0.090288	-452.685572	-452.679585	-452.678641	-452.715901	23.871	
O	-0.1644962499	 0.0169187746	-0.0249582516	-0.292311
C	-0.0928523598	 1.1932896898	 0.0680751368	 0.484374
O	-1.246618125	 2.0324737746	 0.1042314859	-0.233778
C	-0.6213072383	 3.1059723073	 0.7446626755	 0.220492
N	-0.5869745549	 3.175396637	 2.0114365429	-0.186219
C	 0.8377277684	 3.3997190377	 2.3433771606	-0.194181
C	 1.5894568869	 3.0914233563	 1.0406221579	-0.033215
C	 0.6421684405	 3.3824288246	-0.0323464096	-0.10018
N	 1.1184187834	 1.9920841223	 0.0234512123	-0.225201
H	 1.0916725137	 4.4190448259	 2.6651484691	 0.139188
H	 1.0678192918	 2.722208438	 3.1710013595	 0.153998
H	 2.6584298876	 3.2458338894	 0.955675927	 0.135887
H	 0.7427459656	 3.9764104425	-0.9329878264	 0.131146
129.5392	283.6789	373.6307	428.058	508.7333	585.2963	605.0167	715.2336	750.2819	775.2212	803.7034	846.9403	869.1061	887.7038	907.4906	938.3262	978.4627	1011.8731	1021.3493	1100.0036	1170.5348	1185.142	1240.6443	1294.3628	1300.3046	1366.4094	1469.1537	1645.2447	1934.5307	3025.3407	3091.5398	3184.2469	3204.7466
O=C1OC2=NCC3C2N13	O=C1O[C]2[N]C[C@@H]3[C@H]2N13	
InChI=1S/C5H4N2O2/c8-5-7-2-1-6-4(9-5)3(2)7/h2-3H,1H2	InChI=1S/C5H4N2O2/c8-5-7-2-1-6-4(9-5)3(2)7/h2-3H,1H2/t2-,3-,7?/m1/s1
