21
gdb 110522	2.77714	1.29703	1.12211	1.5898	82.64	-0.2343	0.0789	0.3131	1194.4733	0.182682	-387.038554	-387.029907	-387.028962	-387.071654	33.565	
C	-0.0079261491	 1.5989601084	-0.1955532411	-0.533247
C	 0.0284856298	 0.1164304324	-0.0242135517	 0.362536
C	 0.0214034111	-1.021869916	-1.0176075257	-0.130252
C	 1.2695418885	-1.650566669	-0.4042923433	-0.243713
C	 0.8976202085	-0.8676556028	 0.8824976611	-0.100859
C	-0.4269642842	-1.5330624473	 1.3552784988	 0.024365
C	-0.9838678316	-0.944345061	 2.6373547033	-0.103246
O	-0.1377966187	-1.3503559708	 3.7067261643	-0.425149
C	-1.0469386479	-0.9414454988	 0.0914200087	-0.131152
H	 0.9575852951	 1.9905377192	-0.5377643107	 0.119793
H	-0.760587521	 1.8818493659	-0.9402989097	 0.120307
H	-0.2594623953	 2.1131379996	 0.7396813632	 0.118529
H	-0.2694566828	-0.9803446414	-2.060588491	 0.07893
H	 1.336907941	-2.7423282077	-0.3262004618	 0.086297
H	 2.1791554462	-1.2613937131	-0.8710295057	 0.093858
H	 1.649845004	-0.58313167	 1.6148938708	 0.076442
H	-0.398369954	-2.6265944209	 1.4462237988	 0.063816
H	-1.0249825644	 0.1539298392	 2.5552138671	 0.082831
H	-2.0158370462	-1.2996901349	 2.7929234862	 0.080268
H	-0.4923950683	-0.9894346088	 4.5242241798	 0.28482
H	-2.0976478608	-0.8491114721	-0.1599002813	 0.074824
93.7456	140.1148	188.2575	212.5808	245.0913	268.6733	301.8635	407.9344	453.9065	519.4262	604.4724	731.8715	767.4791	790.9694	855.8172	873.355	894.6575	934.2142	964.9511	1000.654	1013.0929	1019.9039	1031.3205	1055.1238	1072.2628	1093.625	1112.8199	1138.6913	1164.5019	1173.5437	1207.6804	1208.9111	1233.2853	1253.3381	1264.1594	1291.6064	1304.6746	1379.4984	1410.5279	1455.9046	1459.7858	1482.5945	1497.1412	1501.4235	1518.2292	2959.9122	2986.5761	3015.4594	3022.5626	3030.3916	3072.2927	3084.8638	3088.342	3142.7544	3172.8077	3186.5806	3831.6966
CC12C3CC1C(CO)C23	C[C@@]12[C@H]3C[C@@H]1[C@@H](CO)[C@@H]23	
InChI=1S/C8H12O/c1-8-5-2-6(8)7(8)4(5)3-9/h4-7,9H,2-3H2,1H3	InChI=1S/C8H12O/c1-8-5-2-6(8)7(8)4(5)3-9/h4-7,9H,2-3H2,1H3/t4-,5-,6+,7-,8+/m1/s1
