16
gdb 11723	4.70132	1.50694	1.28982	4.3453	67.51	-0.2453	-0.0262	0.2191	957.4259	0.128857	-383.710627	-383.703085	-383.702141	-383.742419	28.032	
C	-0.0768337799	 1.5418232631	-0.0021687791	-0.409729
C	 0.1177875832	 0.0432033033	 0.0725116111	 0.141924
O	 1.1633330681	-0.4562378218	-0.8195077073	-0.322349
C	 1.7441772045	-1.1972934799	 0.2392942975	 0.387797
C	 2.2528961846	-0.2750785505	 1.3253400754	-0.341388
C	 0.7926583336	-0.6034923646	 1.2883633617	-0.186355
C	 2.1875852055	-2.585459063	 0.0642882073	 0.062203
O	 2.1676945848	-3.197988641	-0.9736659266	-0.264166
H	 0.8295677321	 2.0820389406	 0.2826986731	 0.124447
H	-0.3430306599	 1.8325633087	-1.0229765852	 0.138229
H	-0.8907483925	 1.8483744709	 0.6632511428	 0.123564
H	-0.8167702051	-0.4798993845	-0.1645272573	 0.097162
H	 2.8056923823	-0.7510440959	 2.1292312933	 0.130956
H	 2.6269795144	 0.6957606543	 1.0165490379	 0.13361
H	 0.2818272225	-1.1088073734	 2.0969933549	 0.115857
H	 2.5594500918	-3.0380697063	 1.0134234807	 0.068239
100.4673	161.5094	199.2995	218.3738	294.1388	350.7105	432.9713	518.0018	545.0808	679.3881	775.0271	789.1482	861.4206	872.5349	945.1678	960.8929	990.557	1018.2462	1044.2842	1065.4846	1093.3074	1109.5057	1151.0246	1194.3806	1288.894	1329.386	1347.6486	1392.0213	1412.6239	1437.061	1474.2323	1484.4336	1492.755	1815.2437	2855.9448	3031.3458	3042.0515	3112.1534	3124.009	3127.4914	3204.4351	3219.2177
CC1OC2(CC12)C=O	C[C@H]1O[C@]2(C[C@@H]12)C=O	
InChI=1S/C6H8O2/c1-4-5-2-6(5,3-7)8-4/h3-5H,2H2,1H3	InChI=1S/C6H8O2/c1-4-5-2-6(5,3-7)8-4/h3-5H,2H2,1H3/t4-,5+,6-/m1/s1
