21
gdb 121770	2.71193	0.75469	0.6146	0.7397	91.08	-0.2599	0.0353	0.2952	1847.5068	0.178686	-349.891942	-349.880971	-349.880027	-349.928688	39.524	
C	 0.0552903997	 1.5777728211	-0.0252199883	-0.380352
C	 0.0228878057	 0.0471027875	-0.0181912681	-0.170066
C	-1.3999999246	-0.5212924294	 0.0226317366	-0.170753
C	-1.4289949646	-2.0508759476	 0.023349312	-0.184421
C	-2.8687905738	-2.6407125924	 0.0724005171	-0.355746
C	-2.8442818101	-4.0972722262	-0.0979035448	 0.322063
C	-2.7936250871	-5.2870724838	-0.2534182152	-0.436176
C	-3.5726511444	-2.2649704354	 1.3041605439	 0.353733
C	-4.1353082589	-1.943936838	 2.3157405852	-0.47222
H	 1.0822500808	 1.9551522197	-0.0513967718	 0.111917
H	-0.4701486921	 1.981184427	-0.8980544588	 0.113778
H	-0.4280325607	 1.9874861861	 0.8685856623	 0.115831
H	 0.542822166	-0.3354103108	-0.9065255136	 0.095148
H	 0.585852383	-0.3278378308	 0.84663922	 0.097964
H	-1.9194203166	-0.1476036226	 0.9133518806	 0.112326
H	-1.9658559932	-0.146629877	-0.8422989614	 0.091104
H	-0.9471836897	-2.4397817972	-0.8805162493	 0.108795
H	-0.8676841176	-2.4440366712	 0.8778688681	 0.115936
H	-3.4256431973	-2.2128428313	-0.7749486134	 0.134684
H	-2.7614900992	-6.3401404017	-0.3860291296	 0.196779
H	-4.6408513153	-1.6685095761	 3.2081081286	 0.199676
53.9687	73.9366	96.7481	127.4509	138.3988	206.9309	208.6622	251.7098	332.8719	344.1521	381.4346	492.2459	564.917	575.897	630.6668	634.2014	643.6894	647.6009	737.3592	779.2147	847.1149	904.0046	950.155	1000.3821	1029.9104	1045.8578	1068.4511	1119.1713	1141.2648	1231.822	1261.3484	1298.6063	1312.085	1331.6993	1338.3954	1368.0935	1399.8241	1412.936	1483.0632	1486.7954	1499.8149	1499.8958	1513.0642	2237.8781	2244.1203	2991.8546	3006.7149	3015.9637	3029.7425	3039.2219	3043.1037	3061.5281	3090.2671	3097.1995	3102.4805	3503.6348	3504.5563
CCCCC(C#C)C#C	CCCCC(C#C)C#C	
InChI=1S/C9H12/c1-4-7-8-9(5-2)6-3/h2-3,9H,4,7-8H2,1H3	InChI=1S/C9H12/c1-4-7-8-9(5-2)6-3/h2-3,9H,4,7-8H2,1H3
