19
gdb 80822	2.02244	1.80304	1.62339	4.1484	75.04	-0.2285	-0.0004	0.2281	990.9545	0.159174	-423.042539	-423.034188	-423.033244	-423.075005	32.618	
C	-0.0592072446	 1.5293909946	 0.0615216733	-0.507008
C	-0.0509207978	 0.0250035606	-0.0081143297	 0.186035
C	 0.3530166562	-0.8188079756	-1.274725414	-0.283509
C	-0.37724102	-1.9726393538	-0.5321339241	-0.094562
C	 0.5324231865	-2.205079433	 0.6862168221	-0.326765
C	 0.7756770955	-0.7246891758	 1.0409710464	 0.424733
O	 1.467467184	-0.256913587	 1.904088175	-0.342559
C	-1.3353943402	-0.8537147427	-0.0126269776	 0.110418
O	-1.9720767864	-0.9734606146	 1.2337027429	-0.436083
H	 0.9616969349	 1.9229117841	 0.0402893755	 0.131084
H	-0.6176522463	 1.9682832321	-0.7711454231	 0.108073
H	-0.5170863243	 1.8630701055	 0.9977803449	 0.139663
H	-0.1680558667	-0.4776661122	-2.1725208483	 0.106206
H	 1.4188576472	-0.9407946349	-1.4818878807	 0.109754
H	-0.7526407346	-2.847016295	-1.0628998771	 0.066377
H	 0.041317324	-2.7218457522	 1.5142704203	 0.128103
H	 1.4672275814	-2.7216445828	 0.4498703846	 0.118293
H	-2.0292142764	-0.5217835854	-0.7960265567	 0.073169
H	-2.7695093323	-1.5013197017	 1.1274684563	 0.288578
119.4607	147.2777	213.8578	240.6244	257.6482	272.817	377.4684	430.6601	480.5968	544.4718	601.4833	669.1541	673.4139	750.5061	803.1739	843.7783	870.2961	908.2317	941.8011	987.9572	996.2067	1033.6609	1081.6157	1097.9299	1121.7141	1136.0473	1151.925	1188.7934	1214.2534	1246.08	1269.2552	1295.7718	1306.1102	1356.5449	1413.9839	1432.3653	1456.2907	1485.0719	1490.6374	1507.5805	1868.1417	3018.0565	3038.5185	3062.5704	3065.8659	3108.163	3111.0993	3116.9879	3118.0285	3121.7931	3823.6916
CC12CC(CC1=O)C2O	C[C@@]12C[C@@H](CC1=O)[C@H]2O	
InChI=1S/C7H10O2/c1-7-3-4(6(7)9)2-5(7)8/h4,6,9H,2-3H2,1H3	InChI=1S/C7H10O2/c1-7-3-4(6(7)9)2-5(7)8/h4,6,9H,2-3H2,1H3/t4-,6-,7-/m1/s1
