16
gdb 128169	2.59215	1.35476	0.92619	4.6477	71.47	-0.2053	-0.0147	0.1906	1243.5421	0.122297	-471.162609	-471.153175	-471.152231	-471.19791	32.146	
C	-0.136772181	 1.3640050033	-0.004452733	-0.330728
N	-0.1302947909	-0.0865621004	-0.1188756907	-0.388862
C	 0.5878617186	-0.7189988608	-1.0797904695	 0.423904
C	 0.9637852095	-2.0471898653	-1.1794696833	 0.197689
O	 0.7745015662	-3.0160546165	-0.2552431462	-0.280734
C	 0.063987791	-4.1647221956	-0.7273381311	-0.252801
N	 1.6326421246	-2.183368142	-2.3495655874	-0.150521
N	 1.7143981938	-1.1110189351	-2.990547287	-0.064931
O	 1.0206315912	-0.0685823204	-2.1393033468	-0.246346
H	 0.8306394042	 1.7724201295	 0.3175971565	 0.134471
H	-0.3891012888	 1.8033651191	-0.9715697243	 0.161445
H	-0.9018452912	 1.6539274684	 0.7183181353	 0.135286
H	-0.2218472256	-0.6182969007	 0.7332236094	 0.262974
H	-0.0243378632	-4.8435536529	 0.1226528808	 0.133231
H	-0.9343863149	-3.8871437183	-1.0871486052	 0.120291
H	 0.6149810265	-4.6562822725	-1.5354426276	 0.145632
42.635	92.0669	122.1609	141.1227	167.138	200.1139	273.8437	325.9789	410.0774	455.4273	494.7516	609.439	655.746	665.6928	738.4802	791.5612	963.3469	1032.926	1076.7094	1145.8102	1162.0904	1175.7148	1211.3872	1246.0989	1304.0038	1436.9602	1446.057	1465.106	1483.9651	1488.102	1491.8495	1505.0875	1512.3637	1532.8892	1677.7297	3014.1132	3019.6556	3094.035	3102.8211	3139.2959	3143.5792	3624.2557
CNC1=C(OC)N=NO1	CNc1c(OC)nno1	
InChI=1S/C4H7N3O2/c1-5-3-4(8-2)6-7-9-3/h5H,1-2H3	InChI=1S/C4H7N3O2/c1-5-3-4(8-2)6-7-9-3/h5H,1-2H3
