15
gdb 26585	2.43461	1.86644	1.06446	2.8314	73.23	-0.2145	-0.0475	0.167	1059.8718	0.113189	-454.014673	-454.006594	-454.00565	-454.047325	30.101	
C	 0.0632552143	 1.527055369	 0.014387162	-0.504228
C	 0.0089396115	 0.0274704871	 0.0014036294	 0.239987
C	-1.1767889152	-0.6533332381	 0.0457900755	 0.097442
N	-2.4293583082	-0.0786090687	 0.1477780846	-0.584791
C	-1.174436803	-2.1109618232	 0.0315001268	 0.420656
O	-2.1539056941	-2.814243271	 0.049170043	-0.363704
O	 0.0803433412	-2.6931213491	-0.0124713214	-0.194443
C	 1.1905493362	-1.92149338	-0.0525089391	 0.105094
N	 1.2169577865	-0.6468941377	-0.051495998	-0.31043
H	 1.0932561486	 1.8588778561	 0.149894062	 0.14987
H	-0.3090394216	 1.9545664344	-0.9267681744	 0.13176
H	-0.5546988527	 1.9364809259	 0.8222563256	 0.139352
H	-2.5517727469	 0.8252186513	-0.2815180988	 0.255968
H	-3.1776137891	-0.7326259072	-0.0386518368	 0.270762
H	 2.0904095624	-2.5247369288	-0.0875902104	 0.146704
91.4356	127.0096	187.1158	276.2051	300.2258	337.4674	372.0729	502.6057	522.2825	530.9293	561.3851	608.7218	631.7269	703.2661	792.3356	868.7426	897.7876	935.6787	1012.7165	1054.2556	1096.6569	1161.6974	1223.0574	1291.6272	1380.5222	1412.5557	1428.1335	1483.2892	1490.5179	1601.8258	1634.6299	1671.3412	1819.7494	3014.5356	3067.2613	3145.5222	3210.7815	3560.4735	3676.1583
CC1=C(N)C(=O)OC=N1	Cc1c(N)c(=O)ocn1	
InChI=1S/C5H6N2O2/c1-3-4(6)5(8)9-2-7-3/h2H,6H2,1H3	InChI=1S/C5H6N2O2/c1-3-4(6)5(8)9-2-7-3/h2H,6H2,1H3
