23
gdb 93058	2.25275	1.52016	1.15787	0.5559	93.8	-0.2109	-0.0202	0.1906	1202.7614	0.206977	-351.176419	-351.167255	-351.166311	-351.210056	35.848	
C	-0.2956991409	 1.6215928985	 0.0232667082	-0.396428
C	-0.0378225123	 0.1076764014	-0.0094129633	 0.019916
C	 0.5872477176	-0.3342585133	-1.3441767926	-0.280034
C	 2.0037585441	 0.0678454277	-1.6498424184	-0.060755
C	 2.9745505925	 0.5090028094	-0.8338993611	-0.071529
C	 2.9574210247	 0.7247357745	 0.6084648935	-0.089194
C	 2.027355266	 0.3527398461	 1.4996700959	-0.058623
C	 0.7540864983	-0.4118855773	 1.2248220246	-0.032682
C	-0.1253087734	-0.4636203449	 2.4849884583	-0.411531
H	 0.632684695	 2.1903328471	-0.0682112889	 0.133491
H	-0.9533979205	 1.9132869397	-0.8024600184	 0.105405
H	-0.7847797216	 1.9244945405	 0.9542130992	 0.1098
H	-1.0175867364	-0.3876330732	 0.0321773686	 0.068021
H	 0.5197216862	-1.4293676526	-1.4304238887	 0.107587
H	-0.0496060362	 0.0431349617	-2.1575632013	 0.100498
H	 2.2650930808	-0.027148955	-2.7028928019	 0.085939
H	 3.9248737265	 0.7500877665	-1.3065850194	 0.07986
H	 3.8322390875	 1.2426457724	 0.9963747652	 0.081193
H	 2.203565471	 0.6119931196	 2.5419540196	 0.079827
H	 1.0397399534	-1.4492112507	 0.9924859599	 0.087461
H	-0.4494867384	 0.5366510321	 2.7912513112	 0.119945
H	-1.0203224709	-1.0709536179	 2.3181554727	 0.108977
H	 0.4251520571	-0.9007397226	 3.3244684267	 0.112857
55.0805	143.1304	195.4658	225.8991	246.6538	308.1069	326.3085	337.9473	383.9295	451.267	466.2334	581.3247	655.4206	738.6021	745.4602	801.4363	850.8233	855.9314	885.6665	916.4172	971.4667	991.3741	1000.4326	1013.7396	1018.6934	1050.0948	1092.787	1109.7317	1132.6219	1158.4527	1257.9711	1259.2737	1275.0244	1304.0702	1318.4059	1343.0979	1378.4725	1387.4707	1408.2426	1414.7476	1432.973	1462.8786	1464.3392	1494.0474	1496.8813	1499.7317	1507.3459	1678.9077	1710.8778	2978.6114	2988.6423	3007.4428	3014.854	3032.023	3040.4178	3097.038	3100.7646	3105.1722	3121.6866	3126.4718	3130.1616	3145.13	3158.6349
CC1CC=CC=CC1C	C[C@H]1CC=CC=C[C@H]1C	
InChI=1S/C9H14/c1-8-6-4-3-5-7-9(8)2/h3-6,8-9H,7H2,1-2H3	InChI=1S/C9H14/c1-8-6-4-3-5-7-9(8)2/h3-6,8-9H,7H2,1-2H3/t8-,9+/m1/s1
