21
gdb 71821	3.19553	1.70367	1.37148	0.2179	86.33	-0.2267	0.0229	0.2496	1012.9834	0.184947	-349.947261	-349.939996	-349.939051	-349.97833	30.755	
C	 0.029523745	 1.5419160477	 0.0163528445	-0.492802
C	-0.0090761994	 0.0291601087	 0.0019382214	 0.384318
C	 0.449205352	-0.6798262373	-1.3078536157	-0.290436
C	-0.8045781193	-1.6326917667	-1.2516285199	-0.060409
C	-0.5248367598	-3.007062275	-0.70126267	-0.0782
C	-0.5448430257	-3.0193054513	 0.6335024196	-0.078209
C	-0.8414105834	-1.6551972161	 1.2003461805	-0.06041
C	 0.4098274765	-0.7038376025	 1.3116973167	-0.290438
C	-1.3273688295	-0.8217184851	-0.0256720916	-0.092283
H	 1.0636277789	 1.9089466271	 0.0350641742	 0.114121
H	-0.4536651783	 1.96335548	-0.8729610522	 0.109456
H	-0.4799782599	 1.9471695642	 0.8984742535	 0.109454
H	 0.4112719517	 0.0005480789	-2.164464802	 0.091874
H	 1.4279229354	-1.1681698234	-1.2939016172	 0.090765
H	-1.4069486913	-1.6287477794	-2.1630252064	 0.06479
H	-0.2726160986	-3.8529520149	-1.3321692608	 0.088528
H	-0.3114346904	-3.8766986481	 1.2560664445	 0.088529
H	-1.4708890832	-1.6678242311	 2.0931548392	 0.064791
H	 1.388666415	-1.1920918362	 1.3182255734	 0.090763
H	 0.3459550541	-0.0392782361	 2.1791145619	 0.091874
H	-2.3340046499	-0.4022636734	-0.0369426937	 0.053922
188.7151	209.9348	224.5668	325.2907	340.0899	387.0764	516.6234	565.3161	642.8065	707.983	764.5155	766.5609	811.492	821.0346	836.3643	883.777	910.6307	931.8111	937.902	955.3146	974.6061	978.8976	1002.9982	1025.2392	1092.4501	1099.5456	1135.1815	1154.5298	1169.5086	1172.9196	1235.7498	1238.3645	1245.5676	1260.5886	1261.2685	1296.0197	1310.9448	1346.7925	1369.9	1410.6277	1472.9424	1482.059	1491.8116	1493.8068	1665.4271	3012.4379	3038.6735	3041.8295	3071.668	3071.7309	3075.5074	3082.2237	3095.7182	3097.752	3103.8795	3174.8758	3200.6102
CC12CC3C=CC(C1)C23	C[C@@]12C[C@H]3C=C[C@@H](C1)[C@@H]23	
InChI=1S/C9H12/c1-9-4-6-2-3-7(5-9)8(6)9/h2-3,6-8H,4-5H2,1H3	InChI=1S/C9H12/c1-9-4-6-2-3-7(5-9)8(6)9/h2-3,6-8H,4-5H2,1H3/t6-,7+,8+,9-
