16
gdb 69885	2.78954	1.6433	1.19863	0.5705	76.78	-0.2092	0.0252	0.2344	1024.2846	0.12248	-400.619535	-400.611575	-400.610631	-400.651528	31.847	
O	-0.1519563794	 1.4163659112	-0.0333212443	-0.445096
C	-0.0353381973	 0.0460646488	-0.0087216823	 0.338954
C	-0.2244398273	-0.8543130213	-1.1955773074	-0.357892
C	-1.1581942476	-0.9598758869	 0.0013501856	-0.122838
C	-0.4895513852	-1.6819057623	 1.2020838438	-0.117367
N	 0.8661727794	-2.1227567437	 0.8237995734	-0.377207
C	 0.6302631994	-0.6966949091	 1.2165398578	 0.104496
C	 1.3023492162	-0.0699351171	 2.2926092597	 0.176221
C	 1.8883865744	 0.4799833007	 3.1897169145	-0.388903
H	 0.6569962252	 1.7828070147	-0.4097280697	 0.291002
H	-0.6794277853	-0.3426007887	-2.038396365	 0.114858
H	 0.4689502605	-1.6487151617	-1.4393791047	 0.142627
H	-2.2230418825	-0.7881863425	-0.0717117189	 0.103944
H	-1.0122450734	-2.1170954685	 2.0437607439	 0.110571
H	 1.2798524125	-2.5819259114	 1.6357541785	 0.238556
H	 2.3911659604	 0.9656142678	 3.9888981451	 0.188076
124.6974	132.8511	257.2005	294.8122	335.7649	401.1965	444.276	478.2504	520.7041	550.4234	565.7683	584.55	650.1742	666.0823	787.7944	823.4665	843.182	879.736	923.9941	928.5775	975.8352	988.4418	1014.3294	1037.4137	1088.7731	1138.9036	1181.2814	1232.7098	1244.9973	1295.6246	1328.8574	1376.9942	1408.3185	1483.7572	2227.7573	3137.7044	3201.8961	3215.8551	3236.4895	3471.3804	3501.7286	3780.0367
OC12CC1C1NC21C#C	O[C@]12C[C@H]1[C@H]1N[C@@]21C#C	
InChI=1S/C7H7NO/c1-2-6-5(8-6)4-3-7(4,6)9/h1,4-5,8-9H,3H2	InChI=1S/C7H7NO/c1-2-6-5(8-6)4-3-7(4,6)9/h1,4-5,8-9H,3H2/t4-,5+,6+,7+/m0/s1
