19
gdb 89280	2.14081	1.77402	1.16818	4.1825	75.8	-0.2332	-0.0154	0.2177	1098.9537	0.157438	-423.019156	-423.010371	-423.009426	-423.052844	33.578	
C	-0.2545327462	 1.5827772138	 0.1909904187	-0.493206
C	 0.0352371194	 0.1126125498	-0.0151240019	 0.363571
C	-1.1580480093	-0.8825297088	-0.0181450154	-0.326708
C	-0.4273985281	-1.7764114312	 1.0314752021	 0.129665
O	-0.0456256836	-3.0737611204	 0.637447102	-0.418599
C	 0.7736896153	-0.792531535	 1.0660320958	-0.242567
C	 1.8426041228	-1.0944703277	 0.0111365688	 0.447235
O	 2.8967607254	-1.6572343383	 0.0469183296	-0.30219
C	 1.1271113076	-0.2596373596	-1.0663389569	-0.413154
H	 0.6675552595	 2.1544242	 0.3450863576	 0.118937
H	-0.7653069986	 2.0071259988	-0.6818384027	 0.121856
H	-0.8987861089	 1.7454049387	 1.061995064	 0.116199
H	-2.090777027	-0.4522390708	 0.3574060738	 0.098819
H	-1.3567741913	-1.3748249496	-0.9744123457	 0.099225
H	-0.9546820937	-1.7936959557	 1.9944563874	 0.077231
H	-0.8330815339	-3.6268765188	 0.6074972896	 0.286656
H	 1.1221044592	-0.4637451388	 2.0463198503	 0.084866
H	 0.7975713989	-0.8060812431	-1.9547801188	 0.125232
H	 1.7417993425	 0.5878848466	-1.3902997383	 0.126931
40.8703	116.3154	225.7776	238.9142	273.9229	301.6973	358.2619	397.2025	411.6047	445.2518	567.8732	583.7669	603.9747	719.8081	807.1503	844.1132	887.7586	926.6975	930.9888	965.9152	985.527	1034.6137	1069.1702	1086.7885	1125.8201	1140.6148	1166.873	1183.9229	1220.5857	1238.3077	1244.5932	1277.1509	1314.6048	1333.6418	1412.7691	1415.9418	1434.0625	1475.0394	1492.8499	1494.4098	1890.8625	3003.4386	3020.3344	3044.6453	3050.6908	3084.2671	3091.4437	3100.2563	3105.3288	3106.2827	3814.6508
CC12CC(O)C1C(=O)C2	C[C@]12C[C@@H](O)[C@H]1C(=O)C2	
InChI=1S/C7H10O2/c1-7-2-4(8)6(7)5(9)3-7/h4,6,8H,2-3H2,1H3	InChI=1S/C7H10O2/c1-7-2-4(8)6(7)5(9)3-7/h4,6,8H,2-3H2,1H3/t4-,6+,7-/m1/s1
