18
gdb 28293	4.94975	1.22706	0.99538	1.2828	87.9	-0.1928	0.0022	0.195	1190.399	0.149611	-364.863747	-364.85612	-364.855175	-364.895762	29.87	
C	-0.0167756913	 1.509334872	 0.0120560836	-0.493054
C	 0.0025952215	 0.0101372361	 0.0085336559	 0.301551
C	-0.0303752433	-0.8012951106	-1.1079278509	-0.242245
N	 0.0053165602	-2.1024654623	-0.6696248944	-0.002667
C	 0.0025070999	-3.4000180476	-1.1998808795	-0.013667
C	 0.053731968	-4.2995623415	-0.2095071068	-0.140463
C	 0.0964763687	-3.5833246866	 1.132769127	-0.414147
C	 0.0599083291	-2.1394366772	 0.7099465857	 0.389724
C	 0.0593807427	-0.8436525343	 1.1621432044	-0.451072
H	 0.8833396016	 1.9276476585	 0.4785197014	 0.122065
H	-0.0736474944	 1.9051206418	-1.0063008713	 0.116027
H	-0.8757189418	 1.9042035278	 0.5678258618	 0.121974
H	-0.0753504151	-0.555384497	-2.1568263216	 0.114454
H	-0.0374440432	-3.5470189529	-2.2693240543	 0.129182
H	 0.0637839205	-5.3721251648	-0.3303091448	 0.10738
H	-0.7539224252	-3.8624236467	 1.7688666189	 0.132107
H	 1.0014351456	-3.8381480977	 1.7000533075	 0.1321
H	 0.0950433765	-0.5182766169	 2.1912435573	 0.09075
102.7721	125.4775	234.051	262.3136	289.0618	436.6408	476.4496	545.7703	626.7037	655.5964	686.0417	715.4527	729.8967	782.8855	784.9921	886.4792	904.5641	941.156	950.1186	980.4653	1009.0362	1060.4704	1086.1987	1142.2047	1146.0209	1181.1765	1213.2631	1263.0417	1321.3569	1351.4701	1409.7765	1413.0183	1450.9775	1462.7953	1481.916	1501.416	1542.1435	1612.4965	1657.6825	3019.1023	3020.8047	3040.2191	3066.9805	3101.9938	3238.9835	3239.4391	3258.2424	3262.5261
CC1=CN2C=CCC2=C1	Cc1cn2C=CCc2c1	
InChI=1S/C8H9N/c1-7-5-8-3-2-4-9(8)6-7/h2,4-6H,3H2,1H3	InChI=1S/C8H9N/c1-7-5-8-3-2-4-9(8)6-7/h2,4-6H,3H2,1H3
