22
gdb 81377	2.32644	1.66342	1.28334	0.4327	81.37	-0.2085	0.0794	0.2878	1111.9516	0.195622	-404.315025	-404.306623	-404.305679	-404.347385	33.644	
C	-0.2781856937	 1.6771204226	 0.6077642165	-0.423403
C	 0.0385114208	 0.2300733496	 0.2651974695	 0.034282
C	 1.407481882	-0.0629235239	-0.4017785117	 0.119257
C	 1.9384080542	-0.1945836222	 1.0361636652	-0.202635
N	 0.5363726091	-0.5667211375	 1.4638944595	-0.138484
C	 0.3720539282	-2.0098882329	 1.1606525468	 0.035018
C	-0.9849786949	-2.5166233273	 1.6411809269	-0.406592
C	 0.5732207879	-2.2978974215	-0.3575851477	-0.089951
O	 1.4097490285	-1.3443372553	-1.0177494403	-0.280969
H	 0.5685595553	 2.1918482823	 1.0697531263	 0.120438
H	-0.5563887297	 2.2298850425	-0.2959480895	 0.116304
H	-1.1169070774	 1.7205219311	 1.308907013	 0.126832
H	-0.8273441657	-0.2179670719	-0.2310197867	 0.074855
H	 1.8537777699	 0.6332390013	-1.1176485565	 0.072112
H	 2.6974302565	-0.9623664859	 1.2068871645	 0.101696
H	 2.2495412034	 0.7414073825	 1.505996064	 0.103197
H	 1.1544306445	-2.5238287945	 1.7314649556	 0.081764
H	-1.8040484958	-1.9868499394	 1.1417447464	 0.116165
H	-1.1010400907	-3.5850635955	 1.4284453989	 0.112771
H	-1.0874736035	-2.3613272393	 2.71796457	 0.125862
H	 1.0337945983	-3.2788206494	-0.5111013327	 0.107198
H	-0.4071935572	-2.3229053253	-0.8553295379	 0.094282
143.0846	195.9855	204.8339	230.8491	269.3871	301.6289	328.0656	425.7382	465.2967	478.5331	517.7594	615.7229	780.6989	813.9628	821.7413	877.1665	891.4264	911.1788	931.7518	949.7502	1016.1884	1034.2187	1054.4298	1071.6691	1092.3782	1124.8085	1138.5768	1155.8404	1187.0725	1199.9204	1248.8802	1256.6678	1265.2956	1297.0202	1332.2611	1348.1192	1372.0216	1385.5416	1406.54	1410.1667	1414.9833	1487.0664	1487.9395	1495.1146	1497.1728	1504.9104	1522.6225	2989.7634	3027.5346	3031.6514	3038.6816	3055.6104	3062.5126	3071.1468	3072.4341	3095.1035	3106.916	3112.4751	3120.5153	3121.9809
CC1C2CN1C(C)CO2	C[C@H]1[C@H]2CN1[C@@H](C)CO2	
InChI=1S/C7H13NO/c1-5-4-9-7-3-8(5)6(7)2/h5-7H,3-4H2,1-2H3	InChI=1S/C7H13NO/c1-5-4-9-7-3-8(5)6(7)2/h5-7H,3-4H2,1-2H3/t5-,6-,7+/m0/s1
