20
gdb 109358	2.7429	1.34273	0.97547	3.7133	82.92	-0.239	-0.0268	0.2122	1257.1261	0.172886	-403.209361	-403.200569	-403.199625	-403.24289	33.208	
C	-0.0230535225	 1.5665217315	 0.154085492	-0.374378
C	-0.0174239574	 0.0409540844	-0.0481066269	-0.270425
C	-1.3997465406	-0.5610608561	-0.0569606718	 0.21816
C	-2.0373334468	-0.9414662856	-1.1714551524	-0.170546
C	-3.4341907026	-1.5002123151	-1.1618303406	-0.247658
C	-3.7355082101	-2.1666426733	 0.1799034284	-0.167264
N	-3.3081586052	-1.2953472636	 1.2653088116	-0.330006
C	-2.0850274741	-0.6692465133	 1.2709022733	 0.353361
O	-1.6083695264	-0.2031724392	 2.2947874844	-0.378666
H	 0.999504005	 1.9571014589	 0.1543986879	 0.108159
H	-0.5762815286	 2.0662364341	-0.6480863784	 0.106594
H	-0.4894242305	 1.8194499492	 1.1082482802	 0.148384
H	 0.4820617179	-0.2063774934	-0.9914766299	 0.090779
H	 0.5621698845	-0.4170593408	 0.7602696822	 0.118518
H	-1.552165795	-0.8144801507	-2.137315621	 0.094789
H	-4.153914317	-0.6903791883	-1.3519380681	 0.124485
H	-3.5662607694	-2.2275206691	-1.9697360993	 0.111936
H	-4.8072287149	-2.3583423195	 0.2853910215	 0.112472
H	-3.2207101203	-3.1396207436	 0.2266781434	 0.107032
H	-3.6733302961	-1.4668646666	 2.1911793235	 0.244274
85.2767	100.1817	170.5453	218.358	229.7826	308.6135	316.4987	398.5584	471.0025	500.1608	566.1094	595.0216	670.3532	718.4528	783.9651	813.7092	881.0047	904.2029	910.6828	980.8457	1002.1271	1077.7889	1084.346	1105.0397	1119.3431	1188.6233	1221.2947	1248.096	1283.9802	1311.6211	1354.9333	1366.3423	1386.8375	1398.8535	1416.122	1466.6926	1475.4291	1479.1358	1494.5799	1514.2508	1516.6891	1707.143	1766.7015	2973.6164	3005.2756	3037.0576	3037.9861	3070.8948	3079.1048	3079.4938	3103.6539	3139.0001	3145.7192	3606.981
CCC1=CCCNC1=O	CCC1=CCCNC1=O	
InChI=1S/C7H11NO/c1-2-6-4-3-5-8-7(6)9/h4H,2-3,5H2,1H3,(H,8,9)	InChI=1S/C7H11NO/c1-2-6-4-3-5-8-7(6)9/h4H,2-3,5H2,1H3,(H,8,9)
