22
gdb 120150	2.76817	1.16566	0.97622	2.471	83.07	-0.2238	0.0778	0.3017	1323.3603	0.193679	-404.283823	-404.274319	-404.273375	-404.318321	35.215	
C	-0.9194677373	 1.5883377118	-0.8039465694	-0.225273
O	-0.8716598201	 0.1815939913	-0.8430678375	-0.223764
C	-1.7477827789	-0.419614091	 0.089096949	-0.105704
C	-1.5133943075	-1.9094797922	 0.1133650246	 0.003264
C	-2.5626228341	-2.9173361465	 0.3636206725	-0.050126
C	-3.8868054743	-2.5750829087	-0.3237371707	-0.294407
C	-3.0896703672	-2.6113463917	-1.6596068947	 0.09357
C	-3.1114593963	-1.4868690167	-2.6814876338	-0.410665
N	-1.7877580172	-2.9071592195	-0.9484248676	-0.163206
H	-0.2149175898	 1.9602631973	-1.5515471656	 0.1298
H	-1.9246940078	 1.9725622529	-1.0410967085	 0.101923
H	-0.6301142346	 1.9790988794	 0.1846694093	 0.103983
H	-1.5438949652	-0.0341350226	 1.1038298976	 0.091449
H	-2.790177246	-0.1605693393	-0.1424672083	 0.087918
H	-0.5483447704	-2.1534318577	 0.5540586762	 0.101102
H	-2.4362057812	-3.7141088163	 1.0905256617	 0.091718
H	-4.6329414198	-3.3683491489	-0.2513239277	 0.107423
H	-4.3600956066	-1.6331632944	-0.030983703	 0.102296
H	-3.3361412742	-3.5412894798	-2.1821068465	 0.087676
H	-2.8294059064	-0.5179295243	-2.2698539292	 0.133077
H	-2.4067156725	-1.7133723213	-3.4883653665	 0.128683
H	-4.1113144427	-1.4038312519	-3.1224301117	 0.109265
75.8578	106.3786	121.9272	163.372	213.4743	247.2677	267.4547	297.995	375.587	449.1432	476.2357	609.5816	674.489	751.8413	762.9724	840.036	870.7106	940.0338	945.881	986.0559	999.2471	1036.7041	1076.6515	1099.2497	1122.7983	1134.1466	1137.295	1165.2883	1185.2493	1204.8935	1226.6921	1254.7194	1266.9552	1282.8891	1302.3679	1350.2987	1391.6089	1398.2025	1413.568	1460.3622	1480.2111	1485.8619	1488.2469	1491.9783	1498.825	1506.5945	1528.7568	2950.4063	2968.197	3010.2444	3017.9109	3037.0512	3045.72	3056.7718	3098.6782	3113.4972	3116.2748	3126.7092	3153.3244	3154.667
COCC1C2CC(C)N12	COC[C@H]1[C@H]2C[C@@H](C)N12	
InChI=1S/C7H13NO/c1-5-3-6-7(4-9-2)8(5)6/h5-7H,3-4H2,1-2H3	InChI=1S/C7H13NO/c1-5-3-6-7(4-9-2)8(5)6/h5-7H,3-4H2,1-2H3/t5-,6-,7+,8?/m1/s1
