21
gdb 111629	2.1357	1.62321	1.2235	1.0984	84.59	-0.2117	0.0319	0.2436	1150.2088	0.182216	-387.081943	-387.07295	-387.072006	-387.115567	33.96	
C	-0.4952603503	 0.9979381161	-0.1170172658	-0.235961
O	 0.458161024	-0.020425893	 0.1038060159	-0.227008
C	 0.8828931976	-0.6373105971	-1.0628289021	 0.128677
C	 1.4039770609	-2.0321859047	-0.9708090687	-0.12125
C	 1.0347394351	-2.838628448	 0.2777458458	-0.263973
C	-0.4668537918	-2.9806459243	 0.1877257691	-0.17228
C	-0.9771997685	-2.422206162	-0.914879911	 0.35668
C	-2.4130101628	-2.4023342853	-1.3410837893	-0.501918
C	 0.0950435748	-1.767123892	-1.7257493058	-0.213793
H	-0.0946676318	 1.7926987258	-0.7650326636	 0.103466
H	-1.4102317206	 0.6025183259	-0.5791295123	 0.112522
H	-0.7414809646	 1.4267481442	 0.8571804094	 0.125757
H	 1.3972453821	 0.0342410559	-1.7544297202	 0.078711
H	 2.3232176439	-2.269053988	-1.4938798155	 0.084834
H	 1.5378111839	-3.8142438947	 0.2818031192	 0.099643
H	 1.3406810608	-2.320687769	 1.1953440594	 0.119655
H	-1.0521790149	-3.4630734837	 0.9634731912	 0.081076
H	-3.0478594483	-2.9408987244	-0.6323334056	 0.122273
H	-2.7964094661	-1.3782122289	-1.4315468074	 0.124183
H	-2.5388720893	-2.8672359621	-2.3276103942	 0.122156
H	 0.0317748159	-1.7726780805	-2.8100366383	 0.07655
87.4962	121.5395	162.5529	176.0553	208.9363	257.2112	294.7041	333.2977	444.8348	542.4086	599.9211	667.4807	715.605	760.788	807.2044	817.3045	871.8025	947.4497	955.6524	989.1553	1015.5277	1020.3569	1056.531	1068.0436	1082.8515	1107.4938	1113.9253	1178.0105	1182.3941	1190.9379	1208.3943	1259.8655	1269.469	1314.7477	1353.2723	1373.2301	1414.0102	1416.7435	1472.4448	1477.4231	1485.3342	1487.2492	1489.1578	1504.6695	1710.3591	2982.8022	3014.822	3018.6119	3038.6715	3050.371	3058.6826	3069.4053	3109.5605	3118.1803	3147.6382	3174.1125	3186.6648
COC1C2CC=C(C)C12	CO[C@H]1[C@H]2CC=C(C)[C@@H]12	
InChI=1S/C8H12O/c1-5-3-4-6-7(5)8(6)9-2/h3,6-8H,4H2,1-2H3	InChI=1S/C8H12O/c1-5-3-4-6-7(5)8(6)9-2/h3,6-8H,4H2,1-2H3/t6-,7+,8-/m0/s1
