20
gdb 75882	2.39624	1.56918	1.2147	2.4832	75.64	-0.2674	0.0202	0.2876	1105.9906	0.170491	-440.314408	-440.305249	-440.304304	-440.347649	35.194	
C	 0.3327318801	 1.423761527	 0.074880197	-0.428043
C	-0.0419032941	-0.0641819756	-0.0067832086	 0.227386
C	-1.558922257	-0.2432510884	-0.0805252328	-0.45625
C	 0.6881890042	-0.7478715348	-1.1835548389	-0.115954
O	 2.0216758526	-1.0559130372	-0.7065443409	-0.236663
C	 2.0177487438	-1.0563789003	 0.6469010606	 0.385176
N	 3.0140181375	-1.1603981363	 1.4151061343	-0.575203
C	 0.6072186794	-0.852902215	 1.1571061049	 0.049029
O	 0.5703335301	-0.2322852424	 2.4101920727	-0.440751
H	 1.4173340076	 1.5692627193	 0.0509832435	 0.125651
H	-0.1016461565	 1.9734438334	-0.7662928941	 0.109235
H	-0.0380728483	 1.8565124787	 1.0062571306	 0.139439
H	-1.9748133314	 0.2515494235	-0.9650518508	 0.115448
H	-1.8349122147	-1.3023624252	-0.1238080695	 0.114
H	-2.0370925654	 0.1939406044	 0.8012305087	 0.13753
H	 0.1994466052	-1.6834969056	-1.4814173103	 0.110998
H	 0.7945397728	-0.1081033707	-2.0624993421	 0.122553
H	 3.892439359	-1.2534080668	 0.9060151823	 0.229771
H	 0.1233345488	-1.8456255452	 1.2074118898	 0.088725
H	 1.4627492764	-0.334140763	 2.7754740835	 0.297923
97.8384	172.0467	200.8671	219.11	252.1886	267.5687	299.91	338.0076	376.2147	394.3759	487.6953	534.173	549.8328	642.7384	696.9987	802.9406	872.9581	895.4618	917.406	947.0377	962.1601	983.8136	1007.637	1044.822	1088.4649	1156.6554	1188.2512	1223.6879	1233.7722	1252.5318	1282.2528	1324.6649	1371.0946	1398.5797	1409.1805	1426.2275	1439.2609	1482.7627	1488.384	1504.2234	1507.7333	1517.6421	1783.525	2935.8415	3028.7274	3034.4572	3040.6745	3095.4516	3104.5847	3106.484	3109.3307	3132.9566	3497.6697	3708.0847
CC1(C)COC(=N)C1O	CC1(C)CO[C]([NH])[C@H]1O	
InChI=1S/C6H11NO2/c1-6(2)3-9-5(7)4(6)8/h4,7-8H,3H2,1-2H3	InChI=1S/C6H11NO2/c1-6(2)3-9-5(7)4(6)8/h4,7-8H,3H2,1-2H3/t4-/m1/s1
