17
gdb 81231	2.61489	1.9119	1.48031	0.621	67.22	-0.2421	0.0377	0.2798	917.0251	0.136835	-458.862327	-458.855438	-458.854494	-458.893187	28.486	
O	 0.1165708648	 1.4052174781	 0.0783931768	-0.450542
C	 0.101601714	-0.001062674	 0.069901429	 0.09202
C	-0.0222617498	-0.6419187062	 1.4641060019	 0.066218
C	-1.5549136357	-0.2111096062	 1.4460719852	-0.346709
C	-1.3190081025	-0.6543222204	-0.020278478	 0.349465
O	-1.9343720399	-0.8845413212	-1.3021044299	-0.364934
C	-1.1247065696	-2.1170039849	-1.406090957	-0.178504
C	-1.0055722224	-2.1042134907	 0.1556427057	 0.077731
O	 0.066931154	-2.0550369485	 1.1049970633	-0.298185
H	-0.2615787342	 1.708475581	-0.7542173533	 0.294586
H	 0.8998968594	-0.4180005475	-0.5539509725	 0.076971
H	 0.6339597582	-0.4144374843	 2.299890083	 0.10381
H	-2.2681284278	-0.7890293301	 2.0350728542	 0.10992
H	-1.638134629	 0.8585553654	 1.6246655266	 0.13227
H	-1.7042147216	-2.9306813299	-1.8466028712	 0.121017
H	-0.2035073603	-1.9446706809	-1.9697171347	 0.119834
H	-1.8279786376	-2.7006425098	 0.5638645109	 0.095031
193.1416	249.2766	304.6724	317.0126	384.7485	444.4861	455.888	534.1092	583.8593	633.7511	731.0305	795.735	813.0207	874.227	890.2326	922.6181	970.0763	994.365	1003.6258	1040.8249	1070.4039	1094.4666	1126.6094	1136.0258	1152.4614	1184.6754	1189.4416	1213.8642	1232.1548	1261.9777	1289.4397	1325.0334	1332.1035	1396.0862	1409.4624	1483.2305	1504.4053	3043.0082	3046.8521	3060.312	3095.6799	3127.7059	3168.4827	3179.219	3803.6166
OC1C2CC11OCC1O2	O[C@H]1[C@H]2C[C@]31OC[C@H]3O2	
InChI=1S/C6H8O3/c7-5-3-1-6(5)4(9-3)2-8-6/h3-5,7H,1-2H2	InChI=1S/C6H8O3/c7-5-3-1-6(5)4(9-3)2-8-6/h3-5,7H,1-2H2/t3-,4-,5+,6+/m1/s1
