16
gdb 36071	4.33387	1.19269	1.11854	3.9386	75.27	-0.2395	0.0338	0.2733	1091.4125	0.124309	-363.513035	-363.50586	-363.504916	-363.545176	27.836	
N	-0.1444258716	-1.1201954961	 0.3022648356	-0.30748
C	-0.0776516733	 0.0151636237	 0.0989913599	 0.263572
C	 0.0277898298	 1.4543564729	-0.1659283319	-0.492051
C	 1.4407831076	 1.9559099839	-0.1065799401	 0.381711
C	 2.7086195862	 1.6256953237	-0.9557383315	-0.156802
C	 3.5893053876	 1.945944445	 0.242280075	-0.07746
C	 3.2163529754	 3.0447493095	-0.7418920569	-0.084978
C	 1.9512456441	 3.3750405271	 0.1053031397	-0.170214
C	 2.3250784693	 2.2731679308	 1.0910281029	-0.140229
H	-0.4176732964	 1.6563315605	-1.1486835282	 0.155813
H	-0.5852224846	 1.9886590776	 0.5703491622	 0.154993
H	 2.8777787327	 0.9415319736	-1.7759954425	 0.098644
H	 4.5606214472	 1.5507397239	 0.5049970746	 0.095662
H	 3.8483834465	 3.653057186	-1.3741383942	 0.093124
H	 1.3922412629	 4.2870304058	 0.2696832507	 0.090381
H	 2.1049450366	 2.1875645519	 2.1468303146	 0.095313
66.42	99.5262	255.1454	283.4339	391.0847	452.8881	630.8893	679.1812	748.435	761.4921	777.7321	801.7319	841.2027	849.5288	858.8839	919.7448	926.0834	947.1972	957.603	976.6591	984.941	1008.8557	1022.391	1068.7669	1111.888	1174.0227	1194.7972	1218.1507	1256.477	1295.7233	1318.5999	1332.5985	1421.4065	1451.0734	2362.4738	3025.0206	3063.9138	3191.6852	3201.5027	3206.4293	3208.9452	3220.7008
N#CCC12C3C4C3C1C24	N#CC[C@@]12[C@@H]3[C@H]4[C@@H]3[C@@H]1[C@@H]24	
InChI=1S/C8H7N/c9-2-1-8-5-3-4(5)7(8)6(3)8/h3-7H,1H2	InChI=1S/C8H7N/c9-2-1-8-5-3-4(5)7(8)6(3)8/h3-7H,1H2/t3-,4+,5-,6+,7-,8+
