23
gdb 106831	2.79596	1.12347	0.92881	1.6999	86.53	-0.2368	0.0841	0.3208	1405.8899	0.203933	-388.27652	-388.266457	-388.265512	-388.311791	37.39	
C	-0.5008121232	 1.3445476158	-0.3340933638	-0.376511
C	 0.1304986433	 0.0043509344	 0.070880985	-0.297256
C	 1.0305771539	-0.5488718572	-0.9908596257	 0.353348
C	 2.4246152627	-0.0539401253	-1.4223776971	-0.286203
C	 2.7392432746	-1.5081277225	-1.9151834609	-0.286206
C	 1.327684364	-1.9220010619	-1.4561750115	 0.353329
C	 0.8401979117	-3.275985599	-1.0407659245	-0.297254
C	 0.7076410086	-4.2420058391	-2.2273216145	-0.376507
O	 0.4157204875	-1.0749251427	-2.1845550186	-0.337354
H	 0.2653379674	 2.1042533847	-0.5207421114	 0.118282
H	-1.0897130831	 1.2296574767	-1.2486410968	 0.134912
H	-1.1600853019	 1.7206196581	 0.453709221	 0.111574
H	 0.7080362885	 0.1275450171	 0.9959040985	 0.09872
H	-0.6575622042	-0.7274769715	 0.2806010607	 0.106557
H	 2.4229047719	 0.7317691657	-2.1816606307	 0.10572
H	 3.05486428	 0.2516675552	-0.5829268626	 0.099543
H	 2.9345098177	-1.6327979618	-2.9829772061	 0.105722
H	 3.5385068301	-1.9836860165	-1.3404562174	 0.099543
H	 1.5339104064	-3.6895548099	-0.2977173036	 0.098719
H	-0.1304083526	-3.163690735	-0.5448758443	 0.106556
H	 0.0078863865	-3.844783015	-2.968239005	 0.134914
H	 1.6713957577	-4.396030444	-2.7237397935	 0.118281
H	 0.3410124523	-5.2186222764	-1.8979167973	 0.111573
56.4716	84.4146	115.261	168.53	203.6635	211.3738	256.7127	287.0661	352.7419	355.834	500.1033	543.8104	624.1998	703.57	717.0109	770.7443	781.3845	788.8474	911.1847	924.749	934.1578	963.6277	984.279	1017.729	1023.5693	1074.1297	1092.5026	1134.7405	1160.3121	1197.3389	1212.7811	1217.8245	1225.1141	1285.1211	1316.0997	1317.7012	1345.8863	1368.9296	1407.044	1407.1302	1463.0644	1463.1824	1468.9414	1477.4799	1497.616	1497.9821	1502.3943	1507.449	1523.1773	3025.544	3027.4985	3038.7179	3038.989	3056.6956	3064.7486	3066.4447	3069.7307	3106.5914	3107.519	3108.0046	3118.1024	3118.306	3124.3786
CCC12CCC1(CC)O2	CC[C@@]12CC[C@]1(CC)O2	
InChI=1S/C8H14O/c1-3-7-5-6-8(7,4-2)9-7/h3-6H2,1-2H3	InChI=1S/C8H14O/c1-3-7-5-6-8(7,4-2)9-7/h3-6H2,1-2H3/t7-,8+
