13
gdb 16200	3.35007	2.45062	1.56128	3.9663	60.34	-0.226	-0.032	0.194	770.2675	0.096059	-398.613231	-398.606678	-398.605734	-398.643855	24.764	
O	 0.0567385072	-0.0018163853	 0.0099004185	-0.360064
C	 0.023768751	 1.2043559277	 0.0230459668	 0.371919
N	-1.0979780838	 2.0146984924	 0.025691886	-0.356969
C	-0.7403760251	 3.3733679171	 0.0044074787	-0.018735
C	 0.5893981071	 3.5373973852	 0.0197643862	-0.268673
C	 1.1958248605	 2.1872875953	 0.0605922873	 0.326109
C	 2.4607388594	 1.7796905167	 0.7042343117	-0.225088
O	 2.3526859128	 1.8425607052	-0.7090633539	-0.257515
H	-2.0342619076	 1.6543881897	-0.0482240096	 0.267252
H	-1.5188933631	 4.1224159713	-0.0103624916	 0.140227
H	 1.1294205655	 4.4704241284	 0.0137871993	 0.121075
H	 3.0839384722	 2.5424628143	 1.1689104078	 0.121307
H	 2.521011804	 0.7765096821	 1.1234858829	 0.139156
120.1811	238.0492	254.2875	280.4977	441.3169	477.6946	576.3093	589.9122	708.7263	724.5101	757.8717	798.2245	885.0372	904.2075	920.5738	973.1608	1066.8356	1101.2808	1133.971	1147.314	1168.4914	1277.4347	1334.9597	1392.423	1434.3305	1509.8383	1653.9424	1849.7586	3083.017	3181.505	3239.7931	3268.8504	3670.5532
O=C1NC=CC11CO1	O=C1NC=C[C@]21CO2	
InChI=1S/C5H5NO2/c7-4-5(3-8-5)1-2-6-4/h1-2H,3H2,(H,6,7)	InChI=1S/C5H5NO2/c7-4-5(3-8-5)1-2-6-4/h1-2H,3H2,(H,6,7)/t5-/m1/s1
