20
gdb 92029	2.82362	1.58105	1.20794	1.8536	77.13	-0.2349	0.0678	0.3028	1067.5221	0.174273	-403.119763	-403.112237	-403.111293	-403.15138	31.147	
O	 0.0024160324	 1.4259934494	-0.0060097519	-0.439243
C	 0.0415554504	 0.0024122822	-0.039422898	 0.139301
C	 0.8530221574	-0.5543337234	 1.144796604	-0.25506
C	 0.8396634482	-2.0789507457	 1.233200808	-0.044241
C	 0.0301080873	-2.7835386273	 2.2964581832	-0.299542
C	-0.4417418071	-2.7966123823	 0.8653946693	-0.00657
C	-1.602248384	-1.9571955805	 0.4058383706	-0.046085
N	-1.9915418709	-0.7947560026	 1.2285636659	-0.354015
C	-1.358427984	-0.5771864908	-0.0910603192	-0.060083
H	-0.4732183984	 1.6676995095	 0.7975111257	 0.279824
H	 0.5467304979	-0.2413270028	-0.9826912986	 0.085483
H	 1.8788437643	-0.1859597923	 1.0574668732	 0.102293
H	 0.4359507117	-0.119982844	 2.0595113633	 0.105894
H	 1.7593484636	-2.5689756803	 0.929226062	 0.081768
H	 0.4162405416	-3.7053541823	 2.7175973901	 0.104484
H	-0.5279254466	-2.1596867414	 2.9858876492	 0.12755
H	-0.3436827042	-3.7309329573	 0.320973655	 0.079765
H	-2.4117095914	-2.5128227273	-0.0620810665	 0.081489
H	-2.9955257475	-0.6520929375	 1.1694267734	 0.23266
H	-1.9787078006	-0.1937744231	-0.8979585287	 0.084328
121.63	202.4913	248.9509	339.8202	376.4175	392.0647	406.9714	482.7686	547.0414	603.7306	667.1975	746.5875	802.504	837.1555	853.4741	884.1079	900.5248	919.0796	959.5384	986.635	1025.656	1043.892	1062.6106	1074.4503	1106.7532	1125.0219	1125.7243	1134.7168	1172.3523	1193.3013	1223.8714	1240.7109	1264.3529	1278.3046	1331.8148	1372.784	1377.7415	1391.8583	1415.9491	1432.5432	1453.9895	1475.4015	1492.7681	3032.8031	3049.5807	3094.4568	3123.7579	3133.3822	3137.3666	3145.9672	3155.9504	3225.0904	3512.6471	3790.5916
OC1CC2CC2C2NC12	O[C@H]1C[C@H]2C[C@H]2[C@H]2N[C@@H]12	
InChI=1S/C7H11NO/c9-5-2-3-1-4(3)6-7(5)8-6/h3-9H,1-2H2	InChI=1S/C7H11NO/c9-5-2-3-1-4(3)6-7(5)8-6/h3-9H,1-2H2/t3-,4-,5+,6-,7+/m1/s1
