20
gdb 102785	2.05056	1.15179	0.8268	4.0567	77.74	-0.2416	-0.0302	0.2114	1433.3443	0.167556	-440.325862	-440.315166	-440.314222	-440.363048	36.771	
C	 0.1278190568	 1.4176312423	 0.116030176	-0.377411
C	 0.0556321461	-0.1012498956	-0.077704195	-0.167381
N	 0.5743296992	-0.5578609155	-1.3661964782	-0.094105
C	 2.0155730136	-0.7001728086	-1.4860585684	-0.263557
C	 2.5252039548	-1.9596499294	-0.8022481072	 0.157566
O	 3.5728574777	-2.0374088348	-0.2172101751	-0.234871
C	-0.1951259816	-0.7641928645	-2.4924888349	 0.405495
C	-1.699522526	-0.5854243996	-2.3534696512	-0.508428
O	 0.3042002893	-1.0904645732	-3.5562142848	-0.369327
H	 1.156283212	 1.782046452	 0.0367878991	 0.132706
H	-0.4727007728	 1.9404395636	-0.6344282708	 0.128146
H	-0.2485260715	 1.6902870582	 1.1068996778	 0.125351
H	 0.6312309686	-0.5994272682	 0.7114336298	 0.122167
H	-0.9738220203	-0.4453634769	 0.0349685831	 0.123583
H	 2.2396702832	-0.7874733952	-2.5552908848	 0.174162
H	 2.5476534416	 0.166801652	-1.0819824374	 0.12524
H	 1.8360783516	-2.8305795132	-0.8975370253	 0.084428
H	-1.9693899082	 0.3986275132	-1.9599280788	 0.138856
H	-2.1322749366	-0.7070192714	-3.3456102794	 0.152523
H	-2.1295730877	-1.3405643553	-1.6872557244	 0.144857
43.6827	63.7206	76.6462	102.6162	131.3204	177.0672	211.2294	290.9294	310.876	384.7975	418.7934	438.5852	549.9991	583.5426	606.4085	719.6296	771.3674	796.0462	944.0474	986.4647	1036.2615	1050.3125	1052.5003	1077.4983	1100.0695	1169.2393	1215.9439	1285.5363	1317.3949	1335.8053	1386.4024	1394.9657	1408.124	1412.2229	1433.008	1454.9708	1468.2693	1487.7176	1490.2745	1496.8133	1512.3748	1758.5093	1837.6289	2871.2724	3037.1645	3041.1693	3045.4153	3046.9197	3099.2654	3103.51	3110.4526	3114.8276	3124.7927	3163.9792
CCN(CC=O)C(C)=O	CCN(CC=O)C(=O)C	
InChI=1S/C6H11NO2/c1-3-7(4-5-8)6(2)9/h5H,3-4H2,1-2H3	InChI=1S/C6H11NO2/c1-3-7(4-5-8)6(2)9/h5H,3-4H2,1-2H3
