20
gdb 78971	3.22988	1.82487	1.68848	1.7784	79.34	-0.224	0.083	0.307	908.7902	0.175088	-365.98494	-365.978509	-365.977565	-366.015336	27.843	
C	-0.2054067185	 1.5640287717	 0.0018003796	-0.435562
C	 0.0441172356	 0.056526189	 0.0198759155	 0.059861
C	 0.865316089	-0.5364461401	-1.1285700886	-0.007368
C	 2.3862599414	-0.468586807	-0.6797683426	-0.072726
C	 2.3502397544	 0.1185359225	 0.7435892789	-0.22436
C	 0.9896970522	-0.5190107643	 1.1148589904	-0.073235
C	 1.1733639744	-1.9722363628	 0.5964988087	-0.052606
C	 2.2463032981	-1.9788202867	-0.4336894468	-0.037042
N	 0.8189224752	-2.0285347837	-0.8647992797	-0.155551
H	 0.7019296904	 2.1446058756	-0.185192376	 0.119251
H	-0.9208986279	 1.8197345164	-0.7867648484	 0.117766
H	-0.6288633162	 1.9039132088	 0.9531739546	 0.116061
H	-0.9196611977	-0.4645517943	 0.0569003576	 0.082672
H	 0.6040027349	-0.2762010491	-2.153205707	 0.069119
H	 3.1309392327	-0.1055664317	-1.3842605675	 0.068331
H	 3.1736249231	-0.2662619319	 1.3539360566	 0.095979
H	 2.357087639	 1.2101428499	 0.7968216519	 0.094601
H	 0.6595889851	-0.4283812297	 2.1494497051	 0.05915
H	 0.9079885194	-2.8472301091	 1.1761601999	 0.090097
H	 2.9511648853	-2.7793812637	-0.6308156021	 0.085564
169.5613	230.0653	288.2697	454.3869	501.4933	549.1806	651.7516	669.5742	766.9625	780.5157	799.7973	825.1328	854.0697	875.9473	903.6556	915.6741	923.6503	948.7073	962.0754	979.7486	997.6779	1040.9166	1049.1627	1063.7759	1095.5853	1120.6026	1126.9331	1165.52	1178.2559	1197.7181	1229.6161	1247.1294	1253.8167	1265.6122	1281.2808	1308.3093	1335.0609	1352.49	1386.8893	1413.1605	1487.9491	1497.3171	1515.0975	3035.1337	3042.945	3054.2628	3095.4573	3101.2936	3116.9431	3119.2946	3125.3608	3143.864	3165.1341	3194.8322
CC1C2C3CC1C1C3N21	C[C@H]1[C@H]2[C@H]3C[C@@H]1[C@@H]1[C@H]3N21	
InChI=1S/C8H11N/c1-3-4-2-5-6(3)9-7(4)8(5)9/h3-8H,2H2,1H3	InChI=1S/C8H11N/c1-3-4-2-5-6(3)9-7(4)8(5)9/h3-8H,2H2,1H3/t3-,4+,5-,6+,7-,8+,9?/m1/s1
