20
gdb 8182	2.63548	2.5382	1.71004	1.6183	74.21	-0.2337	0.0842	0.318	863.1357	0.177741	-348.996208	-348.988701	-348.987756	-349.027273	30.296	
C	-0.0412453005	 1.535499875	-0.0166090501	-0.417939
C	 0.0804519793	 0.0218766267	 0.0560083014	 0.133677
O	 0.9403270742	-0.4806019206	-0.9990910152	-0.299506
C	 1.8856314899	-1.2703659079	-0.2603879033	 0.110618
C	 2.2853752411	-0.3474354126	 0.9129066484	-0.275314
C	 0.7833796335	-0.5886870605	 1.2928718614	 0.287757
C	 0.2081207985	-0.3000481786	 2.6588056649	-0.504878
C	 1.0030022813	-2.0424622605	 0.7462305881	-0.272058
H	 0.9120345331	 2.0333938846	 0.1808391985	 0.117619
H	-0.3737857787	 1.8310649968	-1.0160681201	 0.127805
H	-0.7802139546	 1.897973323	 0.7060518516	 0.112206
H	-0.9193361776	-0.4212284075	-0.0637668257	 0.067028
H	 2.5917828742	-1.7367903667	-0.9454283024	 0.075713
H	 2.9685845047	-0.8178295677	 1.6232803095	 0.095568
H	 2.6189429817	 0.6632056783	 0.6683629412	 0.09684
H	 0.2375854218	 0.7709200421	 2.8879336263	 0.121015
H	-0.8373380742	-0.6245251379	 2.723127913	 0.117385
H	 0.767253455	-0.822587074	 3.4415445604	 0.116911
H	 0.1399357821	-2.5809396279	 0.3450798008	 0.094983
H	 1.569442225	-2.6705312542	 1.4370432814	 0.094568
191.6807	201.4953	226.3608	234.7081	309.195	349.9548	486.395	497.6728	533.2374	593.9005	667.3387	793.3933	824.0205	852.2398	860.3334	915.9475	939.8887	962.227	974.2197	1017.6544	1032.8444	1054.5797	1090.1698	1112.9339	1132.2051	1149.8429	1192.1302	1224.1208	1240.2145	1260.2467	1270.4325	1310.5773	1354.1803	1393.1015	1411.9887	1415.2166	1472.6101	1488.8232	1490.2835	1495.3482	1499.5489	1513.3253	2987.4083	3024.8819	3038.6636	3058.3577	3070.186	3087.5724	3097.4039	3107.8687	3117.1986	3124.7081	3132.046	3136.5651
CC1OC2CC1(C)C2	C[C@H]1O[C@H]2C[C@]1(C)C2	
InChI=1S/C7H12O/c1-5-7(2)3-6(4-7)8-5/h5-6H,3-4H2,1-2H3	InChI=1S/C7H12O/c1-5-7(2)3-6(4-7)8-5/h5-6H,3-4H2,1-2H3/t5-,6-,7+/m1/s1
