19
gdb 72175	2.35806	2.15717	1.69492	0.9756	73.34	-0.2333	0.0673	0.3006	898.3709	0.161858	-423.017169	-423.010249	-423.009305	-423.047948	29.205	
O	-0.0745879764	 1.4035589472	 0.0372702011	-0.488484
C	-0.0107881122	 0.0165751424	-0.0429058889	 0.375917
C	 0.2937877896	-0.7981381742	-1.329195526	-0.313779
C	-0.3475175168	-1.9074767152	-0.4684099319	 0.083863
O	 0.6289300677	-2.1059442538	 0.5735747818	-0.29015
C	 0.7301415077	-0.7576049329	 1.0909708941	 0.036865
C	-0.2058989148	-0.6638045155	 2.2954312329	-0.213454
C	-1.5896095487	-0.9721066712	 1.647214748	-0.238385
C	-1.3025732273	-0.8299434329	 0.1468678482	-0.064022
H	 0.819200009	 1.7568734459	-0.0346218936	 0.281909
H	-0.330496417	-0.4759926125	-2.1651230137	 0.10399
H	 1.330636727	-0.9507311632	-1.6383506643	 0.093976
H	-0.685059721	-2.8653380649	-0.8589134265	 0.08096
H	 1.7776292132	-0.496282397	 1.2666405581	 0.061829
H	 0.0738560888	-1.3737398349	 3.077040377	 0.101612
H	-0.1794249416	 0.346185163	 2.7182861419	 0.100942
H	-1.9377931827	-1.9791211698	 1.8939819668	 0.10613
H	-2.3605249597	-0.2698678318	 1.9746610776	 0.103969
H	-2.1359556847	-0.5586114688	-0.5008513226	 0.076311
199.9324	236.187	270.3009	309.2556	421.1299	437.0208	484.7584	570.0051	644.0373	689.4993	744.4049	801.785	817.02	869.7673	898.7736	912.2461	921.3004	945.5163	974.6421	1003.0647	1016.0023	1029.525	1051.7549	1092.0825	1106.309	1143.1832	1171.9052	1206.4425	1210.9317	1235.3809	1255.4475	1280.6372	1288.23	1299.0145	1321.1378	1336.7782	1352.7545	1393.8158	1469.261	1488.1866	1495.5062	3048.877	3060.3196	3064.529	3073.9287	3095.459	3113.7317	3121.3705	3133.2584	3143.7912	3797.2787
OC12CC3OC1CCC23	O[C@@]12C[C@H]3O[C@@H]1CC[C@@H]23	
InChI=1S/C7H10O2/c8-7-3-5-4(7)1-2-6(7)9-5/h4-6,8H,1-3H2	InChI=1S/C7H10O2/c8-7-3-5-4(7)1-2-6(7)9-5/h4-6,8H,1-3H2/t4-,5-,6-,7-/m1/s1
