16
gdb 106573	2.69877	1.53408	1.24262	1.6178	70.08	-0.2526	-0.0068	0.2458	1023.7083	0.124473	-437.844056	-437.836197	-437.835253	-437.876753	29.69	
O	 0.0668531572	 1.4399523936	-0.0221785568	-0.414754
C	 0.0698584786	 0.0236905671	 0.041474933	-0.17776
C	-1.3241905124	-0.5423319081	-0.0145388003	 0.112895
N	-2.2412242425	-0.3134128497	 1.1766717995	-0.331247
C	-3.1151538387	-1.3783346935	 0.5562916599	-0.186793
C	-3.4373761399	-0.7348106264	-0.7719976827	-0.064746
C	-2.2694128527	-0.1858139863	-1.142844052	-0.090769
C	-1.7390123748	-2.0753411556	 0.1636513247	 0.378174
O	-1.2178170753	-3.1379070537	 0.2247918766	-0.308369
H	-0.5886933882	 1.7517020718	 0.6121715154	 0.29383
H	 0.6448661404	-0.3290338321	-0.8209582005	 0.127453
H	 0.5845014941	-0.3422640012	 0.9445011846	 0.09639
H	-1.7916939015	-0.7100219134	 2.0091181141	 0.223713
H	-3.8903929752	-1.8390860572	 1.163346893	 0.095011
H	-4.3746446145	-0.805111073	-1.3031729011	 0.121033
H	-1.9905060545	 0.3241319177	-2.0526603175	 0.125938
75.7626	121.481	156.2407	270.3678	300.4224	373.4193	440.1119	512.8085	547.8217	639.5995	686.4373	754.8235	775.044	796.7084	878.1786	890.0108	910.8917	920.262	957.0088	992.1165	1041.0168	1075.3659	1088.3705	1129.7629	1137.2411	1211.6103	1256.8653	1283.3102	1316.1467	1366.213	1390.236	1435.3168	1503.3128	1594.7999	1897.327	2978.6061	3077.4397	3161.6431	3238.2482	3261.9541	3392.409	3800.7776
OCC12NC(C=C1)C2=O	OC[C@@]12N[C@@H](C=C1)C2=O	
InChI=1S/C6H7NO2/c8-3-6-2-1-4(7-6)5(6)9/h1-2,4,7-8H,3H2	InChI=1S/C6H7NO2/c8-3-6-2-1-4(7-6)5(6)9/h1-2,4,7-8H,3H2/t4-,6-/m0/s1
