23
gdb 63181	2.80658	1.32192	1.23303	1.2194	85.45	-0.2396	0.0805	0.3201	1177.4437	0.207115	-388.29185	-388.282997	-388.282053	-388.32461	35.211	
C	-0.1949029443	 1.5491119586	 0.0763465195	-0.473173
C	-0.0370916448	 0.0409868887	 0.0100549514	 0.33627
C	-1.2240909863	-0.7138345617	 0.5839596187	-0.452398
C	 0.6611762386	-0.6156425666	-1.171650719	-0.08278
C	 1.3058667525	 0.1938896051	-2.2949005889	-0.240314
C	 2.7520931068	 0.5633198315	-1.9515947991	-0.068383
O	 2.842438953	 1.1414139759	-0.6593723032	-0.238884
C	 2.6049699705	 0.1910773976	 0.3698588471	-0.11264
C	 1.3193374857	-0.6003782669	 0.2000574028	-0.094696
H	 0.6861774832	 2.0755260156	-0.2917654985	 0.141264
H	-1.0645044893	 1.8739135001	-0.5084316065	 0.106666
H	-0.3653268844	 1.8675765693	 1.1117982816	 0.108784
H	-2.1476738939	-0.4601047532	 0.0495692956	 0.111681
H	-1.0854279166	-1.7975082735	 0.5128663313	 0.108282
H	-1.3763390474	-0.4666833544	 1.641603793	 0.111346
H	 0.2334521752	-1.5638414687	-1.4839513416	 0.076471
H	 1.2966413197	-0.3875240095	-3.2230316423	 0.095827
H	 0.7384982388	 1.1097848037	-2.4953158421	 0.10696
H	 3.3954747517	-0.331103704	-2.0060760033	 0.084941
H	 3.1486810112	 1.3076119822	-2.648499383	 0.102923
H	 3.4495550385	-0.5185721163	 0.4093211878	 0.088519
H	 2.6082111144	 0.7612596994	 1.3053239687	 0.107109
H	 1.3293767173	-1.539438643	 0.7482824798	 0.076224
138.5168	170.9744	206.1643	218.8483	251.7209	274.7039	337.8644	352.3637	416.3802	456.1458	481.8106	537.4156	679.1334	731.537	769.6176	800.3756	863.4579	927.1312	960.8528	970.5826	975.1094	986.0234	1030.7851	1056.0544	1078.2233	1085.4841	1127.4157	1145.7146	1162.7213	1164.509	1226.1317	1255.4426	1272.346	1321.7888	1329.0292	1348.9202	1369.4146	1383.8517	1409.1594	1417.6661	1423.3096	1453.203	1481.2739	1487.9422	1491.067	1493.2677	1502.2595	1511.9762	1516.4819	2952.6694	2964.7251	3016.3171	3022.7844	3036.2076	3059.4016	3071.8162	3073.4456	3076.744	3083.4688	3093.1182	3127.1049	3140.553	3142.2457
CC1(C)C2CCOCC12	CC1(C)[C@H]2CCOC[C@@H]12	
InChI=1S/C8H14O/c1-8(2)6-3-4-9-5-7(6)8/h6-7H,3-5H2,1-2H3	InChI=1S/C8H14O/c1-8(2)6-3-4-9-5-7(6)8/h6-7H,3-5H2,1-2H3/t6-,7+/m0/s1
