21
gdb 109838	3.41226	0.80608	0.74434	4.2298	80.44	-0.2377	-0.0124	0.2253	1596.8606	0.179799	-424.219025	-424.208542	-424.207598	-424.255868	36.984	
C	 0.3691280195	 1.3183189745	 0.4320303906	-0.377399
C	-0.111645596	-0.0887290751	 0.0534909631	-0.201045
C	 0.5282683835	-0.5854333163	-1.2274737758	-0.059801
C	 1.7988802347	-1.4092139566	-1.2043849673	 0.074206
O	 2.3027879352	-1.8671536415	 0.0205988576	-0.41767
C	 0.5110983463	-2.0472832316	-1.6552533737	-0.085416
C	-0.1493112763	-3.137489753	-0.8274864042	-0.294281
C	 0.5120390442	-4.4790962422	-1.0734838208	 0.157918
O	-0.0624876509	-5.4723459218	-1.4399249827	-0.243897
H	 1.4531671233	 1.3391875093	 0.5917881659	 0.104386
H	 0.1420013828	 2.0417157878	-0.3585493904	 0.118344
H	-0.1105145978	 1.6668447891	 1.3516882921	 0.116009
H	 0.1117512882	-0.7775646406	 0.8733851382	 0.108532
H	-1.202897816	-0.0822069875	-0.0599113522	 0.102742
H	 0.4563307616	 0.1221829363	-2.051282524	 0.084408
H	 2.5608743443	-1.2101428467	-1.9572381047	 0.087866
H	 2.7606128233	-1.1378826747	 0.4518118631	 0.29295
H	 0.4281513577	-2.2117548481	-2.726451862	 0.097291
H	-0.0361788243	-2.9184898978	 0.2394826265	 0.130475
H	-1.215749428	-3.22473595	-1.0553266792	 0.115691
H	 1.6092964247	-4.4804326135	-0.8865567301	 0.088693
43.998	59.6509	65.5626	120.0006	168.6181	220.9699	267.6159	274.7467	289.211	304.2596	480.9165	531.8032	553.8161	593.8383	752.2218	773.646	813.2906	836.2079	871.3385	966.6471	990.4908	1022.4382	1050.118	1056.1178	1088.8278	1118.5381	1147.2977	1157.4825	1187.2205	1237.8974	1251.1378	1288.4728	1289.119	1302.4979	1339.1751	1382.0459	1404.7462	1414.5031	1423.0067	1450.8659	1463.3166	1487.1346	1497.7713	1504.5641	1832.1621	2887.471	3027.455	3030.6832	3050.8043	3075.8725	3096.7777	3098.9924	3104.4218	3106.3772	3121.6196	3141.5468	3805.1115
CCC1C(O)C1CC=O	CC[C@H]1[C@@H](O)[C@H]1CC=O	
InChI=1S/C7H12O2/c1-2-5-6(3-4-8)7(5)9/h4-7,9H,2-3H2,1H3	InChI=1S/C7H12O2/c1-2-5-6(3-4-8)7(5)9/h4-7,9H,2-3H2,1H3/t5-,6+,7-/m1/s1
