13
gdb 17425	3.12342	2.7922	1.88074	2.9641	56.98	-0.2525	-0.003	0.2495	700.8529	0.09551	-398.551631	-398.545399	-398.544455	-398.581763	24.243	
O	 0.218830831	 1.4307879328	-0.2859848906	-0.46023
C	 0.0715586311	 0.0816124139	-0.1600101733	 0.268008
C	 0.5273236909	-0.8692953094	-1.286879659	-0.289061
C	-0.4535037831	-1.8798242265	-0.6814301334	-0.024739
C	-1.2482730538	-0.8550704329	-0.0044670376	-0.134591
N	-0.3932481631	-1.8159190901	 0.8267285133	-0.202732
C	 0.4530794389	-0.6645972904	 1.1036984834	 0.368345
O	 0.9963328236	-0.3446119104	 2.117370987	-0.334399
H	 0.3412239077	 1.8033880591	 0.5974750449	 0.305097
H	 0.1746589565	-0.5281472761	-2.2631338482	 0.129346
H	 1.592789157	-1.1159265382	-1.3302837789	 0.118854
H	-0.7631123996	-2.8357877607	-1.0810694195	 0.122462
H	-2.2889234173	-0.6854363811	 0.2277500419	 0.13364
145.794	225.4685	329.0143	388.9506	417.6615	508.3531	628.5631	668.1346	699.3425	759.2466	811.9539	852.1575	863.3011	893.2277	948.733	995.5483	1012.6603	1037.9605	1086.9692	1120.8477	1160.1715	1219.7845	1250.3843	1329.3997	1361.836	1410.1918	1500.7798	1902.4261	3055.2485	3120.1849	3213.0918	3242.0359	3764.6137
OC12CC3C1N3C2=O	O[C@]12C[C@@H]3[C@H]1N3C2=O	
InChI=1S/C5H5NO2/c7-4-5(8)1-2-3(5)6(2)4/h2-3,8H,1H2	InChI=1S/C5H5NO2/c7-4-5(8)1-2-3(5)6(2)4/h2-3,8H,1H2/t2-,3-,5-,6?/m1/s1
