16
gdb 42376	2.595	1.09618	0.83301	2.4473	70.29	-0.288	-0.0099	0.2781	1357.4398	0.122596	-437.911934	-437.902874	-437.90193	-437.948333	31.261	
O	-0.4586878453	 0.4253631915	 1.9960722726	-0.349128
C	-0.0629397016	 0.7476862379	 0.9089713931	 0.46218
C	 1.4276866941	 0.8759999169	 0.5798452449	-0.466935
C	 1.7518018709	 1.7348021902	-0.5532117263	 0.283575
N	 2.0296151839	 2.4203793156	-1.4397859094	-0.303702
O	-0.8230517215	 0.9846532304	-0.1665661388	-0.227593
C	-2.231450863	 0.8791171501	 0.0101376242	 0.139526
C	-3.0225206544	 2.1502383237	-0.0301565796	-0.279702
C	-3.0392146053	 1.1902689614	-1.2042666935	-0.29731
H	 1.9312766993	 1.232183903	 1.4821079416	 0.187404
H	 1.8071510259	-0.1348062296	 0.3866827764	 0.187542
H	-2.5119917461	 0.0828460837	 0.6870516637	 0.130642
H	-3.8955634609	 2.225209707	 0.6078058786	 0.128874
H	-2.465293859	 3.0712442599	-0.1561364994	 0.136054
H	-2.4918718667	 1.4873555369	-2.0912955681	 0.141465
H	-3.9265706503	 0.5967665014	-1.3913700498	 0.127108
23.1875	34.7814	83.0985	129.5262	211.3014	330.8523	371.8339	391.7575	420.6614	499.5419	593.8598	675.1067	756.8302	819.1213	851.5946	890.2152	949.5432	978.8864	986.2876	1012.1865	1061.826	1080.7204	1117.7887	1171.0675	1193.5454	1218.6991	1237.7103	1280.9766	1314.2271	1392.7246	1440.7098	1456.567	1498.5322	1834.6948	2373.0407	3053.8806	3112.0707	3144.0595	3146.5697	3202.9805	3228.5977	3242.2703
O=C(CC#N)OC1CC1	O=C(CC#N)OC1CC1	
InChI=1S/C6H7NO2/c7-4-3-6(8)9-5-1-2-5/h5H,1-3H2	InChI=1S/C6H7NO2/c7-4-3-6(8)9-5-1-2-5/h5H,1-3H2
