19
gdb 56916	3.03566	0.99727	0.89171	1.4289	78.5	-0.2577	0.0231	0.2808	1382.5261	0.154361	-422.971522	-422.960949	-422.960005	-423.007487	38.041	
C	 0.0736739085	 1.5161623958	-0.2029546096	-0.454924
C	-0.0559625669	 0.0333659823	 0.0683906042	 0.395282
C	-1.1902930893	-0.6490406444	-0.6674601526	-0.452846
O	 1.1790381322	-0.7163880531	 0.0779889941	-0.291917
C	 0.453982927	-0.5937893477	 1.2999627178	-0.006513
C	 1.1150665535	 0.1728332684	 2.4402661686	-0.089188
O	 0.1234999001	 0.6955215928	 3.3235401244	-0.415661
C	 2.0800395759	-0.6744712798	 3.1441390112	 0.291934
C	 2.8239459406	-1.4034714737	 3.7442579921	-0.43853
H	 0.9691925777	 1.9415557994	 0.2517986462	 0.129619
H	 0.1313485931	 1.693659695	-1.2821851242	 0.122912
H	-0.799840462	 2.053255477	 0.1805834993	 0.131366
H	-1.0703578685	-0.5267286181	-1.749419172	 0.125917
H	-1.2137006633	-1.7185890019	-0.4452068944	 0.127009
H	-2.1538486716	-0.2113843288	-0.3852556441	 0.123636
H	-0.0285404633	-1.5162291743	 1.6337322767	 0.084778
H	 1.6366811022	 1.0418365199	 2.0296963432	 0.12444
H	-0.1410513246	-0.0151644162	 3.9177746532	 0.289057
H	 3.5012659788	-2.0335223626	 4.2664127158	 0.20363
34.7003	95.2519	138.7114	154.9149	175.6699	210.6282	231.3072	270.1962	349.821	376.4561	385.9113	427.8582	502.4445	540.4009	595.4965	638.9431	677.3802	715.6472	834.5109	922.5278	937.2098	951.4124	1005.237	1052.7018	1067.7565	1107.4173	1140.4056	1152.9785	1239.3786	1261.5293	1293.331	1352.9236	1401.2947	1409.658	1421.0388	1463.0894	1472.7778	1486.3665	1500.6692	1520.3544	2233.7776	3034.5501	3042.2578	3068.3069	3082.3236	3097.755	3103.5262	3123.8636	3140.5571	3501.9148	3811.6174
CC1(C)OC1C(O)C#C	CC1(C)O[C@H]1[C@@H](O)C#C	
InChI=1S/C7H10O2/c1-4-5(8)6-7(2,3)9-6/h1,5-6,8H,2-3H3	InChI=1S/C7H10O2/c1-4-5(8)6-7(2,3)9-6/h1,5-6,8H,2-3H3/t5-,6-/m0/s1
