16
gdb 98097	4.35427	0.90762	0.79455	2.3551	68.72	-0.2457	-0.0761	0.1696	1419.6707	0.122633	-475.037985	-475.028608	-475.027664	-475.073541	31.803	
C	 0.1643326236	 1.3868703588	-0.3240569005	-0.335765
N	 0.0731527755	-0.0139561025	 0.0291443246	-0.305695
C	 0.7555613013	-0.5658893216	 1.0517483966	 0.321132
O	 1.5209151435	 0.009044999	 1.8098176118	-0.371997
C	 0.4642774156	-2.0736671164	 1.1979991379	 0.279547
O	-0.3160729903	-2.6367961166	 0.4641335748	-0.315114
C	 1.189496322	-2.757152242	 2.3154719705	-0.017544
C	 0.4374455718	-3.7256495624	 3.1470551625	-0.158398
O	 1.3525020959	-4.1677925129	 2.1660334125	-0.210714
H	 0.8635134217	 1.8580720186	 0.3682454389	 0.170706
H	 0.5329975308	 1.5123385707	-1.3476682171	 0.136546
H	-0.8101292017	 1.8799954291	-0.2403730452	 0.135605
H	-0.5209363082	-0.6450535073	-0.4899429597	 0.268843
H	 2.0244027358	-2.2159379682	 2.7470330799	 0.138018
H	 0.7394786456	-3.8626220919	 4.1841137696	 0.13
H	-0.612026483	-3.9008457942	 2.9174801328	 0.13483
46.8984	68.8299	92.8827	142.7875	153.6843	256.4977	270.4547	315.6627	360.5019	502.3609	522.6522	643.9796	741.9143	817.2278	824.8185	871.5682	905.4043	971.8683	1028.6612	1099.5533	1144.3531	1152.2156	1162.8019	1173.3714	1182.7099	1249.8857	1274.6766	1412.6585	1444.863	1494.4673	1497.6897	1508.7096	1573.5148	1776.9355	1802.0796	3033.1861	3087.9156	3088.5783	3150.7297	3181.4692	3191.7174	3607.1253
CNC(=O)C(=O)C1CO1	CNC(=O)C(=O)[C@H]1CO1	
InChI=1S/C5H7NO3/c1-6-5(8)4(7)3-2-9-3/h3H,2H2,1H3,(H,6,8)	InChI=1S/C5H7NO3/c1-6-5(8)4(7)3-2-9-3/h3H,2H2,1H3,(H,6,8)/t3-/m1/s1
