20
gdb 40627	3.9497	1.15267	1.12238	1.7378	79.48	-0.2309	0.0886	0.3196	1174.8051	0.172911	-403.085063	-403.077679	-403.076735	-403.117081	29.691	
C	-0.1178234986	 1.4055378096	-0.1083969673	-0.225929
C	 1.2870328262	 0.9422944759	 0.0577440008	-0.228136
N	 0.182009455	-0.0118450837	 0.0724569112	-0.073815
C	-0.1530834513	-0.577796635	 1.3593855283	 0.066633
C	-1.4986003595	-1.3834215526	 1.3763867325	-0.096606
C	-0.7088376754	-2.5382882878	 0.6800125694	-0.2395
C	 0.4019459522	-2.0093582894	 1.6156647376	 0.085966
O	-0.0912000692	-2.2950975249	 2.9337536764	-0.284144
C	-1.4748760789	-1.8738473783	 2.8265184305	-0.084982
H	-0.5656835907	 1.9413803934	 0.7270780038	 0.111453
H	-0.4958048942	 1.6881255625	-1.0866325921	 0.117962
H	 1.9543977017	 0.8798848283	-0.7968727876	 0.118543
H	 1.7758861999	 1.1687147897	 1.004099903	 0.114384
H	-0.0005850603	 0.1266544785	 2.1945566435	 0.052698
H	-2.4296376967	-0.9746642099	 0.9853286757	 0.071774
H	-1.0461928399	-3.5644625067	 0.8427246434	 0.093104
H	-0.5159664618	-2.3313839693	-0.3700831371	 0.12445
H	 1.4553228792	-2.2760639016	 1.5459428312	 0.078065
H	-1.6836102577	-1.0882964127	 3.5626256262	 0.097563
H	-2.1434923902	-2.722878246	 3.0119536406	 0.100515
83.9638	171.1669	180.0619	343.2508	351.2698	444.5698	457.3979	499.8101	656.5501	787.6991	833.7935	848.5581	885.6745	889.6339	907.6907	915.7266	940.7002	950.8137	983.7709	1006.6661	1034.3431	1049.5689	1070.2599	1081.7529	1106.2935	1117.4793	1119.7032	1133.1463	1170.3878	1182.5789	1199.1448	1223.9363	1245.3989	1262.4551	1269.5763	1286.9948	1325.6126	1359.0578	1392.5722	1477.1466	1492.0213	1519.6905	1527.332	2954.6628	3019.9737	3059.0641	3078.9535	3094.8001	3099.017	3126.2201	3138.1809	3172.1414	3178.1986	3192.5138
C1CN1C1C2CC1OC2	C1CN1[C@H]1[C@H]2C[C@@H]1OC2	
InChI=1S/C7H11NO/c1-2-8(1)7-5-3-6(7)9-4-5/h5-7H,1-4H2	InChI=1S/C7H11NO/c1-2-8(1)7-5-3-6(7)9-4-5/h5-7H,1-4H2/t5-,6-,7-/m0/s1
