16
gdb 34261	4.24569	1.30772	1.18652	3.0428	73.24	-0.263	0.0134	0.2764	1027.6367	0.126724	-400.735862	-400.729084	-400.728139	-400.767026	26.849	
N	 0.0964290512	-1.122610875	-0.0647499198	-0.34735
C	 0.0411081828	 0.0328073855	-0.01657762	 0.17038
C	-0.038871305	 1.455429436	 0.0530424093	 0.200949
C	-1.2250743659	 2.2659453436	 0.5976034176	-0.308293
C	-0.7420425051	 3.4564976863	-0.293770151	 0.076741
O	 0.0908256812	 4.3485544124	 0.4225090572	-0.258668
C	 1.2234045704	 3.5910356066	 0.8656211356	-0.109099
C	 1.222062564	 2.3315325837	 0.006802788	-0.117295
C	 0.194197398	 2.4850048539	-1.061625338	-0.121213
H	-2.1736873224	 1.8520831585	 0.2486794329	 0.125672
H	-1.2751865335	 2.4502134544	 1.6741965454	 0.116349
H	-1.4951982533	 4.0291788974	-0.8304082217	 0.101164
H	 2.1283397989	 4.1863666785	 0.7032928919	 0.120127
H	 1.143442487	 3.3697604944	 1.9376847828	 0.11224
H	 2.1505817707	 1.8175705779	-0.2072570156	 0.121045
H	 0.3311794408	 2.3393619559	-2.1234785946	 0.117253
140.0455	158.9711	237.4595	370.2903	425.0689	500.5474	549.9278	571.771	699.5435	702.2563	757.5438	849.2549	879.212	883.4931	903.1467	943.7743	983.6319	996.6974	1011.8092	1030.6183	1079.6916	1109.4792	1159.0807	1172.711	1199.2774	1220.5783	1229.7813	1257.5512	1284.1942	1325.7067	1371.2537	1411.3102	1489.9522	1522.4008	2345.457	3020.1238	3061.4709	3068.4418	3121.9736	3148.5135	3205.7259	3225.7588
N#CC12CC3OCC1C23	N#C[C@@]12C[C@H]3OC[C@@H]1[C@@H]23	
InChI=1S/C7H7NO/c8-3-7-1-5-6(7)4(7)2-9-5/h4-6H,1-2H2	InChI=1S/C7H7NO/c8-3-7-1-5-6(7)4(7)2-9-5/h4-6H,1-2H2/t4-,5-,6-,7+/m1/s1
