17
gdb 55786	4.45233	0.94818	0.79457	4.7994	70.46	-0.2398	0.0112	0.251	1384.0191	0.137021	-455.203268	-455.194523	-455.193578	-455.239114	30.773	
N	 0.6807595147	 0.1162491097	-0.6108397363	-0.519574
C	-0.349787166	 0.3380512133	 0.2348335589	 0.403194
O	-0.6189468231	 1.4197752321	 0.7228351853	-0.374664
C	-1.2520130649	-0.8657971586	 0.5580964309	-0.425203
C	-0.8530034368	-2.2516910994	 0.1548920909	 0.445051
N	 0.1215114573	-2.6106367053	-0.5813214046	-0.329318
C	 0.0745021777	-4.0754342597	-0.6841274518	-0.19322
C	-1.1601753734	-4.4784349023	 0.1617570424	-0.112442
O	-1.6688407935	-3.2162578479	 0.653070236	-0.250188
H	 1.2929974648	 0.8898536396	-0.8109498027	 0.253133
H	 0.8933899868	-0.8265146246	-0.9190726997	 0.275089
H	-1.4221942835	-0.8539826592	 1.6388984939	 0.163063
H	-2.2343582157	-0.6543340099	 0.1180230382	 0.164283
H	-0.0187144817	-4.3742747651	-1.7331154459	 0.123759
H	 1.0053872712	-4.5074226016	-0.3028755986	 0.124004
H	-1.9502831648	-4.9620438344	-0.4185119292	 0.126258
H	-0.9166002789	-5.1059843867	 1.0228249923	 0.126775
17.3025	46.7723	89.5955	191.3636	215.1577	336.7045	376.6789	418.7515	520.9676	568.8058	623.4981	741.8209	748.0991	777.6836	831.2315	872.0597	934.7024	958.4576	988.8729	1011.103	1040.7502	1123.6035	1150.8368	1193.1609	1210.4376	1226.8757	1247.6554	1317.4761	1360.3344	1368.5995	1403.7845	1440.7849	1505.5266	1527.5316	1618.4226	1731.3753	1799.6209	3045.6297	3053.1846	3062.3043	3075.0629	3096.4283	3111.2876	3475.9959	3689.0418
NC(=O)CC1=NCCO1	NC(=O)CC1=NCCO1	
InChI=1S/C5H8N2O2/c6-4(8)3-5-7-1-2-9-5/h1-3H2,(H2,6,8)	InChI=1S/C5H8N2O2/c6-4(8)3-5-7-1-2-9-5/h1-3H2,(H2,6,8)
