18
gdb 79148	2.49536	1.97491	1.51494	2.7903	69.01	-0.2399	0.046	0.2859	919.8801	0.150059	-439.044506	-439.03726	-439.036316	-439.075828	29.567	
O	 0.0492643154	 1.4501427929	 0.2212530351	-0.456532
C	-0.0359978741	 0.0631722056	 0.0065489309	 0.140945
C	-1.4077556681	-0.5960190292	-0.0633693595	-0.069057
C	-2.0481323194	-0.4396749232	-1.3903845401	-0.020465
C	-1.6255773165	 0.6910960188	-2.3165679579	-0.29268
C	-0.1198601399	 0.3965561722	-2.5411730718	 0.113532
O	 0.7440076902	 1.5327751492	-2.4722633322	-0.43859
C	 0.2232538265	-0.5567115175	-1.3972096521	-0.073654
N	-0.9821926088	-1.4690718615	-1.2395608509	-0.16205
H	 0.4217589281	 1.8397151233	-0.5817644569	 0.29265
H	 0.5730212585	-0.4611378921	 0.7533615276	 0.086048
H	-1.9458488765	-1.0159872115	 0.7810673244	 0.091273
H	-3.0435508552	-0.8596223479	-1.4946604473	 0.094895
H	-2.1914293769	 0.6710719087	-3.2521926514	 0.10351
H	-1.7575839679	 1.6722912005	-1.8521043746	 0.121226
H	 0.0246568144	-0.1196258228	-3.5000445014	 0.090868
H	 0.4882509631	 2.1567515357	-3.1587536731	 0.295709
H	 1.1606291969	-1.0946589213	-1.532147039	 0.082373
121.0709	212.9338	288.8547	309.0387	364.4866	431.8825	451.6978	525.0362	574.7174	626.9013	703.6183	754.0949	773.5654	821.7895	825.2881	906.9987	967.8436	975.2825	988.064	1039.7889	1058.5389	1066.4921	1089.8076	1106.215	1154.5515	1159.4559	1184.6768	1219.7219	1242.2334	1255.0505	1295.9253	1318.2674	1342.716	1372.2536	1377.0612	1417.015	1428.6239	1437.316	1489.4919	3006.6327	3025.9759	3056.0279	3102.9883	3123.5448	3153.7967	3167.431	3728.4992	3824.9524
OC1C2C3CC(O)C1N23	O[C@H]1[C@H]2[C@H]3C[C@@H](O)[C@@H]1N23	
InChI=1S/C6H9NO2/c8-3-1-2-4-6(9)5(3)7(2)4/h2-6,8-9H,1H2	InChI=1S/C6H9NO2/c8-3-1-2-4-6(9)5(3)7(2)4/h2-6,8-9H,1H2/t2-,3-,4-,5+,6+,7?/m1/s1
