17
gdb 126413	4.62498	1.02549	0.84809	3.6147	79.25	-0.2333	-0.0583	0.1751	1331.685	0.137596	-418.058774	-418.050668	-418.049724	-418.09187	30.302	
C	 0.1059643468	 1.5723422375	 0.0076736509	-0.373164
C	-0.0106554394	 0.0488083022	 0.0029050543	-0.272376
C	-1.4245949795	-0.4830613381	 0.0129552306	 0.331323
N	-2.4129960162	 0.366777207	 0.0235107605	-0.253292
N	-3.6559171668	-0.1387908135	 0.0321198223	-0.26517
C	-4.0634760925	-1.4766793709	 0.0314568284	 0.422224
O	-5.2454382415	-1.7728171801	 0.0401695253	-0.392799
C	-2.9266140483	-2.3867481971	 0.0195295226	-0.200085
C	-1.6639412591	-1.9009385191	 0.0107134419	-0.120369
H	 1.1583283226	 1.8696671424	-0.0000913286	 0.109604
H	-0.3837996998	 2.0079590745	-0.8668291287	 0.130436
H	-0.3689311437	 2.001314853	 0.8935958531	 0.130401
H	 0.5048649796	-0.3642254808	-0.8753925137	 0.118157
H	 0.5197759766	-0.3708881882	 0.8690659484	 0.118125
H	-4.3962001133	 0.5507741065	 0.0401987908	 0.272594
H	-3.151095193	-3.4468415434	 0.0182293194	 0.130293
H	-0.8103537625	-2.5730252218	 0.0018018225	 0.1141
62.663	110.7564	190.3465	226.7488	307.1494	374.9633	390.8167	463.0492	521.8934	532.2503	628.2014	728.8634	743.6772	755.4597	805.4169	827.5367	872.4441	992.9799	1005.9836	1019.7994	1077.2246	1106.9251	1144.9789	1209.8803	1236.0703	1280.6459	1289.4279	1379.6872	1417.3728	1428.3946	1447.9444	1476.1424	1492.8602	1501.3967	1578.3117	1661.0997	1790.473	3010.4476	3032.7215	3051.0771	3122.0626	3127.6073	3169.0081	3212.7685	3592.2256
CCC1=NNC(=O)C=C1	CCc1n[nH]c(=O)cc1	
InChI=1S/C6H8N2O/c1-2-5-3-4-6(9)8-7-5/h3-4H,2H2,1H3,(H,8,9)	InChI=1S/C6H8N2O/c1-2-5-3-4-6(9)8-7-5/h3-4H,2H2,1H3,(H,8,9)
