16
gdb 46474	2.88913	1.51411	1.09669	5.5767	70.17	-0.2313	-0.0925	0.1388	1075.1353	0.124354	-437.890038	-437.882173	-437.881229	-437.922907	29.389	
O	-0.0162684696	 0.0188012201	 0.2494342553	-0.274248
C	-0.0492797891	 1.1983000988	 0.0303279846	 0.319208
C	-1.2718519808	 2.1021057671	-0.0765614876	-0.339848
C	-0.7918108238	 3.3479410595	-0.8588097688	-0.329734
C	 0.6977039904	 3.4667342989	-0.546339333	 0.187086
C	 1.6039265992	 4.4864512866	-1.1301314227	-0.275506
N	 1.2567130602	 4.5666044324	 0.2903546639	-0.326058
C	 1.2035077963	 2.0970659264	-0.1906531937	 0.292403
O	 2.3447249524	 1.7360825055	-0.087982601	-0.283558
H	-2.1186627239	 1.5802464045	-0.5259595959	 0.140347
H	-1.5616027945	 2.376289404	 0.9465398948	 0.147141
H	-0.9364695107	 3.1893794577	-1.9333529256	 0.127942
H	-1.3452013995	 4.2522860873	-0.5900392619	 0.112617
H	 2.6337172336	 4.2028375796	-1.327699904	 0.146661
H	 1.1691047148	 5.2033565956	-1.8226273701	 0.120433
H	 0.5282257251	 5.2670146759	 0.4229461259	 0.235113
56.31	116.7085	229.4567	244.2974	319.5415	343.4949	405.0789	471.7157	548.9757	595.1672	672.4224	702.4159	769.0587	841.0187	875.1296	935.541	969.0353	983.2521	990.0728	1026.5535	1064.7514	1124.8684	1138.7588	1164.3227	1212.3507	1268.8914	1288.3647	1305.3972	1324.9928	1394.1502	1448.1667	1492.7658	1496.9358	1839.2897	1860.8119	3034.3706	3042.6021	3087.8778	3106.5306	3119.9063	3201.489	3472.2427
O=C1CCC2(CN2)C1=O	O=C1CC[C@]2(CN2)C1=O	
InChI=1S/C6H7NO2/c8-4-1-2-6(3-7-6)5(4)9/h7H,1-3H2	InChI=1S/C6H7NO2/c8-4-1-2-6(3-7-6)5(4)9/h7H,1-3H2/t6-/m0/s1
