14
gdb 31923	6.40734	0.89314	0.7877	2.3971	76.41	-0.2377	-0.0386	0.1991	1357.4393	0.099857	-436.681141	-436.672654	-436.671709	-436.716069	29.766	
O	 0.4879720016	 0.6837350208	-0.7943753723	-0.419245
C	-0.0122597338	 0.0552630845	 0.3569949003	-0.14876
C	-1.4423818614	-0.3401730927	 0.1732759282	 0.368636
N	-2.1486131521	-0.1403819607	-0.8970255148	-0.321413
C	-3.390292455	-0.6690117589	-0.5970472211	-0.199499
C	-3.3740912258	-1.1740563519	 0.6684924647	 0.179133
O	-2.1005470612	-0.9582413256	 1.1700838565	-0.201792
C	-4.3228171627	-1.8124108323	 1.4790462994	 0.234786
C	-5.1494964536	-2.3595552482	 2.1626375449	-0.397025
H	-0.2317334096	 0.7075365267	-1.4395073534	 0.304302
H	 0.578996095	-0.8420104561	 0.5979276727	 0.127543
H	 0.0651089722	 0.7232695879	 1.229073183	 0.127546
H	-4.208906422	-0.655124419	-1.2979036335	 0.142871
H	-5.8786909517	-2.8421007945	 2.7656704254	 0.20292
12.5842	120.693	129.059	205.6308	228.9745	265.3092	406.9447	453.366	545.1044	559.5539	622.2705	679.1577	685.3096	698.4319	740.7249	869.6389	977.5537	1012.8255	1041.2322	1111.2938	1171.0076	1207.8948	1242.1144	1256.7666	1309.0513	1356.798	1472.9957	1509.2324	1576.5607	1615.3708	2236.0927	2984.7967	3000.0891	3276.4674	3500.8038	3750.2539
OCC1=NC=C(O1)C#C	OCc1ncc(o1)C#C	
InChI=1S/C6H5NO2/c1-2-5-3-7-6(4-8)9-5/h1,3,8H,4H2	InChI=1S/C6H5NO2/c1-2-5-3-7-6(4-8)9-5/h1,3,8H,4H2
