20
gdb 85832	2.39804	1.32148	1.14009	5.1674	79.65	-0.2409	0.0278	0.2687	1196.8312	0.170425	-399.320688	-399.310828	-399.309884	-399.355085	36.806	
C	-0.892214005	 1.0375266261	 0.0115346123	-0.399842
C	 0.0919839216	-0.1159333843	 0.0707751241	 0.039673
N	 1.365105999	 0.1110094301	-0.6538092076	-0.342807
C	 2.1673304482	-0.5017001266	 0.4317603129	 0.14714
C	 2.5992879681	-1.9554242432	 0.1992764248	-0.451479
C	 3.3391045977	 0.3148793476	 0.7856145698	 0.286847
N	 4.263729724	 0.9563495014	 1.0486099232	-0.350982
C	 0.9237951106	-0.3570247871	 1.3852898951	-0.029671
N	 1.0547371596	 0.6771089599	 2.3819526773	-0.505564
H	-0.4317911875	 1.9679600313	 0.3546848803	 0.116777
H	-1.2353314599	 1.19471031	-1.016289004	 0.122783
H	-1.7730950781	 0.8319488	 0.6302521049	 0.11161
H	-0.4153772504	-1.0454498399	-0.2277580722	 0.063387
H	 1.4628659151	-0.3310545172	-1.5619898891	 0.219015
H	 3.3094011334	-2.0196565414	-0.6310473037	 0.135892
H	 3.0823208576	-2.3663632437	 1.0907693832	 0.144512
H	 1.7259157149	-2.5700852822	-0.0386428814	 0.123251
H	 0.6743635117	-1.2906152196	 1.8952495274	 0.087804
H	 1.2871941478	 1.5740518715	 1.9676897049	 0.247351
H	 0.1929076314	 0.7908370373	 2.9046824079	 0.234304
55.084	142.9345	179.4498	205.8643	231.3277	241.7545	259.3541	275.9902	314.3509	395.1351	412.0565	488.0741	579.4468	581.7259	635.0177	710.5209	768.0814	813.3299	864.5566	926.1418	940.6354	966.2431	1013.8165	1063.0578	1101.918	1129.9577	1144.3313	1171.6662	1215.4876	1236.6244	1263.1876	1304.8725	1375.0313	1390.6724	1402.4209	1416.6691	1426.2797	1484.4998	1485.5139	1492.8055	1494.6329	1658.4715	2353.7056	2980.7269	3033.6159	3036.9425	3079.605	3099.3042	3113.245	3116.9684	3117.2414	3504.6472	3523.0854	3589.9887
CC1NC(C)(C#N)C1N	C[C@H]1N[C@@](C)(C#N)[C@H]1N	
InChI=1S/C6H11N3/c1-4-5(8)6(2,3-7)9-4/h4-5,9H,8H2,1-2H3	InChI=1S/C6H11N3/c1-4-5(8)6(2,3-7)9-4/h4-5,9H,8H2,1-2H3/t4-,5+,6+/m1/s1
