20
gdb 115460	3.99897	0.86619	0.73753	5.2821	77.27	-0.234	0.0319	0.2659	1509.2421	0.171872	-440.318222	-440.308918	-440.307974	-440.35329	33.314	
O	-0.1440098154	 1.4455736485	-0.0689367187	-0.422923
C	-0.0234131912	 0.0308142581	-0.0861285761	-0.098691
C	-1.4187549704	-0.553233145	 0.04603011	 0.024069
C	-1.4638648211	-2.0924681641	 0.0870968944	-0.256661
C	-2.8347670749	-2.4066585746	 0.7078628851	-0.157942
N	-3.1264230704	-1.2199971269	 1.5173392593	-0.042411
C	-2.1321975184	-0.1613428356	 1.3512935892	-0.167887
C	-4.2560442058	-1.125326139	 2.2560510116	 0.135007
O	-5.0905899165	-2.0042648506	 2.3557408823	-0.34476
H	 0.7358555631	 1.8280720122	-0.1334473961	 0.290804
H	 0.4402432905	-0.3216406004	-1.0210448847	 0.092476
H	 0.6035175046	-0.3268200157	 0.7480005252	 0.086926
H	-2.0220833796	-0.1968392998	-0.7978763652	 0.094318
H	-1.3381738487	-2.5518993215	-0.8960498604	 0.111052
H	-0.6617098709	-2.4690708098	 0.7335188146	 0.106956
H	-3.6130612356	-2.5391180441	-0.0532290336	 0.121567
H	-2.8343618256	-3.3086999496	 1.3262633477	 0.126617
H	-1.4144549547	-0.1485997679	 2.185618984	 0.103534
H	-2.6013662967	 0.8233666941	 1.3001142801	 0.131598
H	-4.3429091123	-0.1457932882	 2.7687252914	 0.066352
37.9438	99.4631	129.7619	179.8638	193.8288	244.5611	278.8916	333.6363	400.4304	422.4802	489.625	594.5879	745.7747	822.5905	867.4841	883.421	939.3583	966.9772	993.7214	1035.3435	1061.7803	1088.069	1109.2485	1144.8966	1179.3369	1202.193	1224.3395	1241.3452	1257.9838	1277.2305	1305.402	1326.544	1350.4301	1364.9379	1388.1783	1410.4355	1446.7958	1462.612	1494.1279	1513.7078	1520.6506	1528.1231	1787.1007	2925.5674	2959.0074	2985.6272	2992.205	3031.5295	3035.4572	3044.958	3083.3611	3101.642	3106.3498	3832.0034
OCC1CCN(C1)C=O	OC[C@H]1CCN(C1)C=O	
InChI=1S/C6H11NO2/c8-4-6-1-2-7(3-6)5-9/h5-6,8H,1-4H2	InChI=1S/C6H11NO2/c8-4-6-1-2-7(3-6)5-9/h5-6,8H,1-4H2/t6-/m0/s1
