18
gdb 67662	3.01806	1.88856	1.62546	2.5847	73.5	-0.2165	0.074	0.2904	888.4175	0.150311	-401.88968	-401.883166	-401.882222	-401.920086	27.741	
O	-0.0817902251	 1.4088519393	 0.0203724889	-0.465145
C	 0.0340353723	 0.0327860059	 0.0301088215	 0.351626
C	-0.1672603561	-0.8118119292	-1.2306108506	-0.133601
C	 0.6457662848	-2.0803565288	-1.4248217325	-0.244605
C	 0.8120760135	-2.5689597663	 0.0212995553	 0.00044
C	 1.8672018203	-1.7203566877	 0.7730872596	-0.253248
C	 0.6910912516	-0.8011161938	 1.1388664055	-0.054081
N	-0.3073268223	-1.9077650108	 0.8512045907	-0.144683
C	-1.0749535575	-0.9935580714	-0.0458228153	-0.089429
H	 0.6478044173	 1.7755700971	-0.4911752505	 0.28656
H	-0.5494049741	-0.2550529941	-2.0800105968	 0.089836
H	 0.0803186551	-2.7938741597	-2.0360344046	 0.102131
H	 1.6157783365	-1.9236350256	-1.9082506235	 0.099206
H	 0.8590396192	-3.6538651896	 0.1251017511	 0.075667
H	 2.2664313231	-2.2283350434	 1.6539062571	 0.108988
H	 2.6912998376	-1.3081164778	 0.1852933466	 0.092596
H	 0.6372183481	-0.3351639617	 2.1270080908	 0.079352
H	-2.1557949141	-0.9294757722	-0.0302461431	 0.09839
220.1431	253.63	299.756	355.5275	406.7311	514.7355	590.7557	646.8536	669.2084	715.596	791.0893	844.7923	845.4558	876.559	913.9685	921.8773	949.0159	970.5777	989.3025	1000.5858	1017.7375	1046.6442	1065.9985	1084.7852	1126.8877	1167.2179	1176.983	1200.557	1223.2405	1227.3747	1247.4932	1276.3223	1290.3445	1319.5321	1338.8068	1353.0894	1452.2123	1481.5861	1499.9282	3031.2134	3058.4233	3069.382	3075.759	3097.2807	3117.6178	3173.2732	3190.3397	3792.7532
OC12C3CC4CC1N4C23	O[C@@]12[C@H]3C[C@H]4C[C@@H]1N4[C@@H]23	
InChI=1S/C7H9NO/c9-7-4-1-3-2-5(7)8(3)6(4)7/h3-6,9H,1-2H2	InChI=1S/C7H9NO/c9-7-4-1-3-2-5(7)8(3)6(4)7/h3-6,9H,1-2H2/t3-,4-,5-,6+,7-/m0/s1
