13
gdb 129708	3.44695	1.30459	0.95011	5.4596	68.6	-0.2293	-0.0278	0.2015	1126.0858	0.090964	-448.94912	-448.940824	-448.939879	-448.982265	29.594	
N	 0.1829294849	 1.4149594863	 0.0977300877	-0.620513
C	 0.0015199572	 0.0286267261	 0.0054191961	 0.276644
C	-1.1165832302	-0.7845029083	 0.0248840701	 0.148396
O	-2.3943497724	-0.342589275	 0.0992044214	-0.443377
C	-0.6119764271	-2.1063964057	-0.0535489665	 0.155244
N	 0.7303161364	-2.1186294783	-0.1241865782	-0.289629
N	 1.0614214973	-0.830164931	-0.0728301109	-0.214085
C	-1.4062968244	-3.2803851989	-0.0674547011	 0.22263
N	-2.1446931982	-4.1732779285	-0.0700472315	-0.359997
H	-0.5934169985	 1.8425843778	 0.5899165608	 0.264283
H	 0.2551974213	 1.8608292423	-0.8122858229	 0.257988
H	-2.9878080528	-1.1008077925	 0.1549285186	 0.315858
H	 2.0338967765	-0.5661673843	-0.0796431937	 0.286557
90.3815	119.2467	127.3003	254.2225	283.8986	297.9178	340.1928	433.2799	521.1269	524.3254	580.7277	613.3552	675.7292	738.2402	746.011	787.2458	818.2435	1037.0157	1164.1012	1199.5185	1268.189	1318.2141	1334.9944	1422.0057	1468.6498	1547.0711	1651.1841	1680.1808	2342.198	3499.3785	3586.16	3655.3167	3803.1726
NC1=C(O)C(=NN1)C#N	Nc1c(O)c(n[nH]1)C#N	
InChI=1S/C4H4N4O/c5-1-2-3(9)4(6)8-7-2/h9H,(H3,6,7,8)	InChI=1S/C4H4N4O/c5-1-2-3(9)4(6)8-7-2/h9H,(H3,6,7,8)
