21
gdb 93230	2.62765	1.2803	0.93158	3.1876	78.7	-0.2554	-0.0249	0.2305	1291.2876	0.183155	-424.274222	-424.265363	-424.264419	-424.307497	34.437	
C	 0.0258736474	 1.5798031621	 0.0129916179	-0.404258
C	 0.0136690873	 0.0476046903	 0.0118045381	 0.026041
C	 0.6628624035	-0.5186107476	-1.263321867	-0.199698
C	 0.6630282705	-2.062284307	-1.2843584652	-0.314745
C	 1.2588045773	-2.6137791703	-0.0082592689	 0.370787
O	 2.1629886525	-3.4219832129	 0.0295019534	-0.332754
C	 0.6783748843	-2.0627149749	 1.2907945422	 0.04233
O	 1.3684536057	-2.5736364407	 2.3966391932	-0.44353
C	 0.7124346078	-0.5224720365	 1.2568978657	-0.214395
H	 1.0524682836	 1.9636029597	-0.0062091748	 0.117941
H	-0.4967082517	 1.9816197352	-0.8612936045	 0.113165
H	-0.4610989641	 1.9786964108	 0.9084382339	 0.117142
H	-1.0357971117	-0.2841376734	 0.0293847876	 0.073578
H	 0.1470604747	-0.1433265717	-2.1537999935	 0.10333
H	 1.6984514457	-0.1584930991	-1.3275635156	 0.108438
H	-0.3732518296	-2.4205685658	-1.3546771392	 0.122662
H	 1.2147288171	-2.4642439671	-2.1374558542	 0.123644
H	-0.3805995001	-2.3797362046	 1.3229187802	 0.08555
H	 2.014756742	-3.1955718967	 2.0238379641	 0.289797
H	 1.7630077429	-0.2031899696	 1.2765077123	 0.105165
H	 0.2510707947	-0.1437408901	 2.1748647943	 0.109811
90.1572	139.2526	196.6213	235.5815	267.086	307.1196	370.5444	392.1289	407.8497	451.5082	459.8558	508.6517	606.5874	708.3382	744.3228	822.0387	869.2652	916.6213	933.9112	975.532	1011.1742	1027.0619	1069.1002	1101.1212	1117.6572	1149.8257	1154.5414	1193.8543	1251.4957	1264.2123	1276.5164	1307.4343	1327.5972	1342.6563	1372.1394	1375.5684	1390.7568	1412.3792	1444.6402	1468.7621	1485.5965	1496.6517	1500.7634	1501.5173	1800.3167	2933.8471	2986.7095	3019.1577	3023.9693	3026.0672	3031.4818	3070.4681	3078.2355	3096.0132	3102.8695	3106.8438	3673.9516
CC1CCC(=O)C(O)C1	C[C@H]1CCC(=O)[C@@H](O)C1	
InChI=1S/C7H12O2/c1-5-2-3-6(8)7(9)4-5/h5,7,9H,2-4H2,1H3	InChI=1S/C7H12O2/c1-5-2-3-6(8)7(9)4-5/h5,7,9H,2-4H2,1H3/t5-,7-/m0/s1
