16
gdb 28239	4.7712	1.26955	1.02184	1.0176	72.85	-0.1725	0.034	0.2066	1122.2953	0.128218	-434.086875	-434.079597	-434.078653	-434.118424	28.305	
N	 0.04107547	 1.287348166	 0.1882275184	-0.584169
C	-0.0453704065	-0.0752009859	 0.0588328842	 0.42353
N	-1.1365986376	-0.7837730749	-0.0785064501	-0.424698
C	-0.6419347022	-2.0720813538	-0.0081414414	 0.304104
C	 0.6866282202	-2.088034076	 0.1900121348	 0.194916
C	 1.2827131519	-3.4248666148	-0.0777642212	-0.333424
C	-0.0461572315	-4.259767257	 0.0338839536	-0.163148
N	-1.1697500456	-3.3315938756	-0.3102170045	-0.397649
O	 1.1183004438	-0.7647061205	 0.1817707457	-0.228861
H	 0.9080723441	 1.6880798473	-0.1392209555	 0.263991
H	-0.7804166466	 1.7644523844	-0.152664084	 0.270813
H	 1.7194931809	-3.5057749932	-1.0846625332	 0.110022
H	 2.0313677989	-3.7839268902	 0.6357456956	 0.110435
H	-0.0506357607	-5.1252076473	-0.6325185255	 0.11217
H	-0.1455485148	-4.6160018921	 1.0677075922	 0.1072
H	-2.0345382444	-3.5659762964	 0.163775681	 0.234769
129.0442	185.644	269.4987	285.2442	321.5931	334.2271	517.0189	539.2319	606.5428	671.0768	681.7131	725.4753	755.3946	806.9756	839.0738	871.336	936.9289	975.1626	1015.2211	1078.7173	1108.0738	1125.8387	1180.7621	1237.3079	1264.5396	1304.2749	1347.8826	1351.8524	1419.2191	1472.6196	1503.0534	1517.2611	1590.2975	1664.948	1699.8079	2984.874	3013.3613	3058.8195	3098.6147	3535.9209	3573.3817	3683.29
NC1=NC2=C(CCN2)O1	Nc1nc2c(CCN2)o1	
InChI=1S/C5H7N3O/c6-5-8-4-3(9-5)1-2-7-4/h7H,1-2H2,(H2,6,8)	InChI=1S/C5H7N3O/c6-5-8-4-3(9-5)1-2-7-4/h7H,1-2H2,(H2,6,8)
