19
gdb 94354	2.76928	1.08311	0.99301	2.6682	77.56	-0.2491	-0.0249	0.2242	1279.142	0.157224	-423.004983	-422.995975	-422.995031	-423.039136	32.986	
C	-0.3505925866	 1.4362834078	 0.0846194591	-0.40657
C	 0.1574666567	 0.0160092847	-0.0572349328	 0.089784
O	 1.4287261443	-0.0504292625	-0.7541309406	-0.294516
C	 2.0526553447	-0.7957512571	 0.3113046535	-0.13607
C	 0.7937402676	-0.6715725363	 1.1606315149	 0.260544
C	 0.676891393	-0.3321713695	 2.5966214451	-0.360482
C	 0.2198848937	-1.7083859353	 2.1055257162	-0.171897
C	-1.2333026102	-1.9817914809	 2.0763555992	 0.169873
O	-1.7374414285	-3.0632097041	 2.2504869754	-0.26739
H	 0.3675592365	 2.0559937621	 0.6290598562	 0.12395
H	-0.5060602276	 1.8748762043	-0.9057859457	 0.134662
H	-1.308332781	 1.4556286727	 0.6162960011	 0.118703
H	-0.587397639	-0.6080337274	-0.5713770203	 0.085556
H	 2.311569658	-1.8174935807	 0.0038142309	 0.10929
H	 2.9504830593	-0.2957763159	 0.696060874	 0.10888
H	 1.5735519441	-0.3026088867	 3.206498429	 0.131894
H	-0.0987742576	 0.3654526854	 2.8998506318	 0.129145
H	 0.8400515156	-2.5677031742	 2.3403450202	 0.110108
H	-1.8614087629	-1.0797147864	 1.8791141828	 0.064535
75.4582	89.2225	142.4654	187.6998	223.6134	246.4066	346.3447	369.4	394.6986	459.4392	529.4287	572.2923	786.0844	853.6674	868.8115	883.0031	903.0392	937.989	1014.3692	1026.8221	1045.5476	1068.9846	1070.4336	1092.1746	1099.3194	1143.3967	1155.7117	1174.6393	1212.4857	1281.2662	1299.5437	1345.2679	1380.8011	1404.7251	1410.6441	1446.8394	1484.1285	1486.4006	1493.92	1523.3673	1821.0751	2838.8443	2997.937	3007.5471	3036.2766	3049.0078	3107.1543	3120.1368	3123.845	3169.1798	3212.394
CC1OCC11CC1C=O	C[C@H]1OC[C@]21C[C@H]2C=O	
InChI=1S/C7H10O2/c1-5-7(4-9-5)2-6(7)3-8/h3,5-6H,2,4H2,1H3	InChI=1S/C7H10O2/c1-5-7(4-9-5)2-6(7)3-8/h3,5-6H,2,4H2,1H3/t5-,6+,7+/m1/s1
