16
gdb 131728	4.78625	1.01929	0.84475	3.3086	78.72	-0.2063	-0.0482	0.1581	1303.1442	0.125617	-434.066044	-434.0578	-434.056856	-434.099475	30.422	
O	-0.0223806886	 1.4529872148	 0.0098878217	-0.395725
C	-0.0222799674	 0.0477769329	 0.0019874377	-0.154419
C	-1.4340604116	-0.4854931164	 0.012429013	 0.30312
N	-2.4255090687	 0.3486285877	 0.0222006187	-0.225793
N	-3.6666326802	-0.1767149718	 0.0310018458	-0.308115
C	-4.0427787059	-1.5247736198	 0.0308855039	 0.383953
N	-5.2482309413	-1.9690686656	 0.0395394966	-0.5632
C	-2.8919701106	-2.4134843943	 0.0196284143	-0.090939
C	-1.6401013815	-1.9135346214	 0.0108319018	-0.143472
H	 0.8931077272	 1.746663689	-0.0006884382	 0.292523
H	 0.4903982634	-0.3592314201	-0.8883159554	 0.103292
H	 0.5071059155	-0.369225702	 0.8777743923	 0.103176
H	-4.3945734164	 0.5225398579	 0.0385778372	 0.262453
H	-5.9310793733	-1.2091295733	 0.0468134905	 0.195757
H	-3.1051534545	-3.4752701615	 0.0189335312	 0.128773
H	-0.776569706	-2.5721613261	 0.0025379088	 0.108618
49.6915	101.266	190.5805	223.8548	287.1188	367.6449	376.1234	446.243	493.6041	556.539	630.2076	633.9132	735.3386	782.398	793.605	827.8746	862.226	999.9046	1016.1449	1036.8382	1096.4561	1110.104	1169.7853	1216.9244	1232.2486	1253.0301	1253.9622	1348.5436	1441.3611	1458.9159	1473.9607	1513.6663	1597.5723	1666.4422	1715.4576	2936.9424	2950.1825	3172.4856	3220.591	3452.4326	3610.7564	3836.4764
OCC1=NNC(=N)C=C1	OCC1=NNC(=CC1)[NH]	
InChI=1S/C5H7N3O/c6-5-2-1-4(3-9)7-8-5/h1-2,9H,3H2,(H2,6,8)	InChI=1S/C5H8N3O/c6-5-2-1-4(3-9)7-8-5/h2,6,8-9H,1,3H2
