19
gdb 41673	2.79632	1.95229	1.55947	1.2768	78.1	-0.2298	0.0134	0.2432	915.2769	0.163329	-385.882584	-385.876015	-385.875071	-385.913236	27.684	
C	 0.0535612313	 1.562380026	-0.0716562324	-0.109469
O	 1.4181708069	 1.9647278477	-0.1567196935	-0.249031
C	 2.1865560518	 1.7174504292	 1.0058411085	-0.066302
C	 1.7383104283	 0.465296719	 1.8244133865	-0.11157
C	 0.6801049689	 0.7979345347	 2.8626847617	-0.088093
C	-0.4792689487	 0.1801857724	 2.6242007826	-0.08083
C	-0.4006109237	-0.6533168194	 1.3960071596	-0.099446
C	-0.0425930538	 0.0549348016	 0.0822690761	-0.048414
C	 1.0369934959	-0.5666106475	 0.9283186049	-0.062941
H	-0.4578008105	 2.0914734098	 0.744153824	 0.096322
H	-0.3969759134	 1.8796053062	-1.0152218135	 0.105897
H	 3.2157334317	 1.5837699851	 0.6558872214	 0.103045
H	 2.1736315197	 2.5996767213	 1.666635434	 0.084008
H	 2.6351713667	 0.0530621262	 2.3009146611	 0.080879
H	 0.8625930859	 1.5173836115	 3.6539316359	 0.093225
H	-1.3850563965	 0.288983607	 3.2096253628	 0.095274
H	-0.9724209507	-1.5709463324	 1.3170487146	 0.084874
H	-0.31369141	-0.4912328996	-0.8156937732	 0.087681
H	 1.5832580801	-1.4283703389	 0.5658850788	 0.084893
146.8457	224.2377	315.0565	378.4721	445.9851	524.135	596.744	646.1243	730.1259	775.5712	784.6896	804.1808	819.621	860.9791	904.7612	945.0098	951.0731	969.4351	982.8629	995.1541	1021.7352	1037.8142	1076.1592	1096.0827	1110.0637	1121.21	1136.405	1190.1195	1247.8516	1276.5121	1293.1071	1298.1319	1324.0315	1342.5706	1375.6747	1391.4998	1405.0039	1420.8691	1488.4778	1512.8889	1664.7098	2965.343	3007.5063	3032.3503	3060.6758	3093.8009	3153.9361	3171.651	3181.5927	3186.1052	3208.248
C1OCC2C=CC3C1C23	C1OC[C@H]2C=C[C@H]3[C@@H]1[C@@H]23	
InChI=1S/C8H10O/c1-2-6-7-4-9-3-5(1)8(6)7/h1-2,5-8H,3-4H2	InChI=1S/C8H10O/c1-2-6-7-4-9-3-5(1)8(6)7/h1-2,5-8H,3-4H2/t5-,6+,7-,8+/m1/s1
