17
gdb 84267	3.17832	1.45927	1.10153	2.9004	75.31	-0.249	-0.0253	0.2237	1086.3704	0.136156	-421.819447	-421.811724	-421.81078	-421.851723	29.869	
O	 0.2571275734	 1.4102949833	-0.054986096	-0.442152
C	 0.1444248592	 0.0135654105	 0.0145571268	 0.037349
C	 0.6646408788	-0.6004048974	 1.3105863272	-0.266775
C	-0.1063224509	-1.6352982728	 1.6449776862	 0.287288
C	-0.7045866877	-2.3818808	 2.8133513678	-0.313017
C	-2.1036893512	-2.1307673229	 2.1225512255	-0.241411
C	-1.344246373	-1.7932646729	 0.7960447994	-0.161033
C	-1.3504426744	-0.4319284014	 0.1039585981	 0.321675
O	-2.2648088306	 0.3039077787	-0.1571574696	-0.312579
H	-0.6425378068	 1.7406007168	-0.1978474105	 0.293794
H	 0.6078735503	-0.4438215921	-0.8766466662	 0.09559
H	 1.4593041103	-0.1401758916	 1.8845962979	 0.113445
H	-0.46058164	-3.449382831	 2.8209993045	 0.119584
H	-0.5395966258	-1.974216202	 3.8134580657	 0.119699
H	-2.7904939281	-2.9782364502	 2.0924876996	 0.112909
H	-2.6175585507	-1.2595832515	 2.5334324	 0.128742
H	-1.3509538627	-2.6118807734	 0.0681624536	 0.106892
81.3973	158.9925	209.8649	282.4524	332.5307	348.5281	401.205	492.5191	566.9717	643.898	667.5914	748.1684	777.3041	788.0508	872.4558	877.3235	913.2492	957.9643	1012.595	1031.5517	1046.2312	1081.1987	1112.8482	1152.959	1166.8575	1195.4206	1206.9202	1231.1437	1260.2381	1288.965	1292.8098	1348.9862	1398.7609	1474.6023	1486.7882	1715.2455	1843.3157	2946.6277	3048.1889	3050.5971	3077.7209	3106.3648	3139.8309	3212.3548	3715.871
OC1C=C2CCC2C1=O	O[C@H]1[CH][C]2CC[C@H]2C1=O	
InChI=1S/C7H8O2/c8-6-3-4-1-2-5(4)7(6)9/h3,5-6,8H,1-2H2	InChI=1S/C7H8O2/c8-6-3-4-1-2-5(4)7(6)9/h3,5-6,8H,1-2H2/t5-,6+/m1/s1
