15
gdb 34166	3.83505	1.63168	1.42286	5.1159	72.54	-0.254	0.0074	0.2614	899.7636	0.114642	-379.593123	-379.586922	-379.585978	-379.623607	25.27	
N	 0.0133170566	-1.1162846739	 0.0630089209	-0.340689
C	 0.0161756129	 0.0393603867	 0.025702134	 0.184092
C	 0.0540362026	 1.4771971285	-0.057592166	 0.254857
C	-0.4406126697	 2.2693019641	-1.2853309059	-0.282537
C	 0.3863191512	 3.4169277185	-0.6610029126	-0.089274
C	-0.1872035484	 3.619881394	 0.7553287395	-0.04618
C	 0.8761135322	 2.8388102532	 1.4289270929	-0.053715
C	 1.3449876489	 2.3662831139	 0.0328176028	-0.12097
N	-0.4584818117	 2.2047260996	 1.1906568848	-0.170857
H	 0.0128941588	 1.8875593624	-2.2040047204	 0.12686
H	-1.5189050059	 2.3922308745	-1.4077548578	 0.124988
H	 0.7404686697	 4.275868744	-1.2250572607	 0.092292
H	-0.8500165954	 4.3888923216	 1.1300294081	 0.110672
H	 1.3362341095	 2.9005034581	 2.4065328869	 0.111093
H	 2.3319319387	 2.0869081949	-0.3225242664	 0.099367
153.5595	167.004	397.0699	474.6054	518.2463	537.1295	573.5855	731.2414	755.2018	798.6011	815.265	836.99	860.8714	885.506	916.3672	948.3207	955.5902	1006.2276	1030.5043	1034.7381	1048.2181	1089.1382	1124.425	1158.522	1179.5989	1201.3355	1214.7892	1245.8025	1281.9419	1285.7938	1332.3195	1480.8682	2354.7052	3066.5093	3131.4895	3154.9936	3170.923	3195.2892	3208.5303
N#CC12CC3C4C(C13)N24	N#C[C@]12C[C@H]3[C@@H]4[C@H]([C@@H]13)N24	
InChI=1S/C7H6N2/c8-2-7-1-3-4(7)6-5(3)9(6)7/h3-6H,1H2	InChI=1S/C7H6N2/c8-2-7-1-3-4(7)6-5(3)9(6)7/h3-6H,1H2/t3-,4+,5-,6+,7-,9?/m1/s1
