21
gdb 94861	2.75551	1.76251	1.36582	1.715	82.09	-0.2301	0.0789	0.309	1027.5756	0.184096	-387.024214	-387.016656	-387.015712	-387.055782	31.363	
C	-0.4182229359	 1.5346928889	-0.040253904	-0.401441
C	-0.0148218184	 0.0580297759	-0.0064976844	 0.00931
C	 0.8443250911	-0.3671276047	-1.2634479738	-0.212053
C	 2.0397870146	-1.2501767068	-0.777451619	-0.355375
C	 2.1974969294	-0.7171636191	 0.6151037958	 0.429437
C	 2.8106263467	-0.8445023463	 2.0285246151	-0.315692
C	 1.9049783036	 0.4301738722	 1.9554559587	 0.024972
O	 2.5255065938	 0.7508734007	 0.661491226	-0.350244
C	 0.8183359355	-0.3981151901	 1.213735447	-0.02955
H	 0.4704240812	 2.1704735936	-0.0381251858	 0.136606
H	-1.0024068576	 1.7605460024	-0.9393548581	 0.105675
H	-1.0333799562	 1.7972777368	 0.8273634317	 0.104729
H	-0.9323527695	-0.5414467429	-0.0000869145	 0.066293
H	 0.2376169962	-0.8893654264	-2.0090510208	 0.091988
H	 1.2434239038	 0.5309627326	-1.7419240491	 0.116314
H	 1.77144433	-2.3118113647	-0.7392791358	 0.105853
H	 2.9270135212	-1.1408472469	-1.4064901104	 0.112869
H	 2.4870673344	-1.6820716519	 2.652068586	 0.096461
H	 3.8779345768	-0.6360152095	 2.1086916823	 0.108525
H	 1.8141751851	 1.2359391967	 2.6856977697	 0.090893
H	 0.3473432543	-1.1871865206	 1.8073519333	 0.06443
118.5676	202.7378	258.0351	279.148	330.928	399.8524	454.1242	520.5519	571.1796	669.1358	680.067	745.5943	794.7054	799.7321	847.6268	882.5478	896.7397	932.5729	952.4134	974.7785	988.1387	1009.4677	1031.4064	1060.7785	1093.4909	1117.4342	1133.1609	1164.2412	1175.958	1192.012	1212.2695	1228.4311	1254.7442	1273.1551	1314.9547	1321.4878	1353.8251	1361.3167	1383.4881	1404.8018	1475.5751	1487.9664	1492.7514	1496.3628	1510.7913	3025.0039	3030.6268	3047.9634	3056.5396	3059.0558	3067.7949	3089.079	3096.0251	3103.5114	3111.0438	3125.4153	3147.7275
CC1CCC23CC(O2)C13	C[C@H]1CC[C@@]23C[C@@H](O2)[C@@H]13	
InChI=1S/C8H12O/c1-5-2-3-8-4-6(9-8)7(5)8/h5-7H,2-4H2,1H3	InChI=1S/C8H12O/c1-5-2-3-8-4-6(9-8)7(5)8/h5-7H,2-4H2,1H3/t5-,6+,7+,8-/m0/s1
