14
gdb 125283	5.3571	1.28623	1.04394	3.9609	70.55	-0.2243	-0.009	0.2153	1078.3079	0.102296	-436.68452	-436.677672	-436.676728	-436.715806	26.024	
C	 0.0985190763	 1.4494248314	 0.023473189	-0.487678
C	-0.0900004157	-0.021370232	 0.0042488983	 0.36972
C	-1.1674591	-0.8283518809	-0.1986317823	-0.469626
C	-0.6811632543	-2.182428352	-0.0861062898	 0.161071
C	 0.6493626762	-2.0371563339	 0.1747986528	 0.468658
O	 1.318555501	-3.1638434132	 0.3207246152	-0.241189
N	 0.3421217958	-4.2006520365	 0.1405320634	-0.147135
C	-0.8060750955	-3.5964185028	-0.0935195198	-0.115695
O	 1.0747142541	-0.7786852114	 0.2432865982	-0.240315
H	 0.8149411411	 1.7735125238	-0.7398428451	 0.146374
H	-0.8567994606	 1.9416347695	-0.1711739307	 0.142462
H	 0.4726916525	 1.7947667619	 0.9938345875	 0.146375
H	-2.168795099	-0.4824503557	-0.4003452895	 0.127139
H	-1.6714207419	-4.2237856083	-0.2567207471	 0.13984
139.9225	147.5085	276.3668	283.8073	340.7966	502.6331	556.8274	608.7374	617.7003	749.0843	758.8935	800.8058	805.5534	819.2719	901.5092	906.8636	975.5138	1017.4051	1065.3485	1154.415	1185.8384	1216.9884	1259.3641	1413.9992	1423.8223	1455.254	1468.1609	1486.3977	1554.4488	1619.8237	1639.0272	3032.1647	3083.8063	3132.5562	3240.0806	3262.0743
CC1=CC2=C(ON=C2)O1	Cc1cc2c(onc2)o1	
InChI=1S/C6H5NO2/c1-4-2-5-3-7-9-6(5)8-4/h2-3H,1H3	InChI=1S/C6H5NO2/c1-4-2-5-3-7-9-6(5)8-4/h2-3H,1H3
