14
gdb 71387	2.72353	1.84531	1.33511	4.8572	62.53	-0.245	-0.0053	0.2397	917.8574	0.099616	-473.754095	-473.746633	-473.745689	-473.785724	28.919	
O	-0.068761055	 1.3153076161	 0.1123083638	-0.45587
C	 0.0293776519	-0.0508876571	-0.0139643344	 0.286263
C	 0.8147248867	-0.9326508703	-0.9751909101	-0.259367
N	-0.0789429434	-2.067797912	-0.4887785493	-0.210593
C	-1.0739927291	-1.0351875693	 0.0212283693	-0.150082
C	-0.2120570991	-0.9259028688	 1.2895726092	 0.202607
O	-0.4541579475	-0.3291312319	 2.4889758418	-0.456421
C	 0.4125476816	-2.2208034922	 0.9321504789	 0.37634
O	 1.0173274707	-3.1120251067	 1.4320935431	-0.31105
H	 0.8158628947	 1.6750118357	 0.2545223192	 0.301917
H	 0.619764613	-0.7121467356	-2.028486008	 0.128386
H	 1.8838529728	-1.102688878	-0.807458406	 0.123177
H	-2.1425736819	-1.0508891264	-0.1281811063	 0.134293
H	-0.3445851555	 0.6255180663	 2.3729058688	 0.290402
118.6467	215.6867	258.8321	282.5816	302.5762	393.3274	415.5444	488.4584	547.0456	575.9508	646.3099	713.7385	753.3798	796.6814	841.0731	895.9704	912.6706	943.2118	977.7094	1019.3862	1080.3438	1115.6698	1143.3497	1175.6546	1256.9316	1304.6979	1321.7566	1428.9631	1451.0935	1512.6066	1929.7944	3042.118	3105.5747	3243.7437	3734.6626	3780.4593
OC12CN3C1C2(O)C3=O	O[C@]12CN3[C@H]1[C@@]2(O)C3=O	
InChI=1S/C5H5NO3/c7-3-5(9)2-4(5,8)1-6(2)3/h2,8-9H,1H2	InChI=1S/C5H5NO3/c7-3-5(9)2-4(5,8)1-6(2)3/h2,8-9H,1H2/t2-,4-,5-/m1/s1
