19
gdb 105819	2.43661	1.53671	1.25885	0.6985	75.45	-0.207	0.0729	0.28	1089.8762	0.157556	-422.926505	-422.917822	-422.916878	-422.959619	33.373	
C	-0.0039843758	 1.332154363	 0.2136882882	-0.258948
O	-0.0572594406	-0.0426178957	-0.1414692994	-0.27148
C	-1.3330722388	-0.5602505098	-0.0756188116	 0.393695
C	-1.9007357033	-1.0878906522	 1.1990292289	 0.003601
O	-3.0903056084	-0.6701440491	 1.8139264426	-0.417776
C	-1.7302487844	-2.0382970008	 0.0288745024	-0.227996
C	-2.6931645453	-1.8419207302	-1.1735768401	-0.056087
C	-3.7374448445	-0.7633794974	-1.0109537705	-0.30717
C	-2.3067147553	-0.379641427	-1.2786103123	-0.124131
H	 1.0362925252	 1.6477508725	 0.1087843682	 0.125694
H	-0.6330421768	 1.9450624431	-0.4465232978	 0.115622
H	-0.3302201597	 1.4893401806	 1.2508196852	 0.118336
H	-1.0828745292	-1.2425630073	 1.9086936023	 0.097626
H	-3.4762954036	-1.4382590414	 2.2499839887	 0.286153
H	-1.0911567127	-2.90858553	 0.1159939801	 0.095614
H	-2.7382926728	-2.5674896348	-1.9751005566	 0.090748
H	-4.3841617216	-0.6551860768	-1.8783407059	 0.105109
H	-4.2055620447	-0.5567151428	-0.0602607569	 0.138913
H	-1.9856999877	 0.1553164562	-2.1628292056	 0.092477
82.855	157.1452	171.457	196.0739	263.2446	296.113	353.9369	373.3345	412.9266	503.2322	590.6077	690.7612	696.6656	765.0082	784.68	858.0727	888.0251	908.5322	938.9754	995.106	1011.3202	1030.9167	1048.4277	1063.6953	1093.6482	1106.3352	1130.1603	1178.6227	1179.6334	1202.8432	1231.0381	1255.9612	1283.8836	1299.8955	1336.7415	1353.4084	1461.6737	1480.9793	1485.9393	1498.6725	1506.2278	2996.8723	3052.0698	3066.5922	3123.2601	3129.218	3183.173	3192.6089	3201.6664	3252.5759	3794.2216
COC12C(O)C1C1CC21	CO[C@]12[C@@H](O)[C@H]1[C@H]1C[C@@H]21	
InChI=1S/C7H10O2/c1-9-7-4-2-3(4)5(7)6(7)8/h3-6,8H,2H2,1H3	InChI=1S/C7H10O2/c1-9-7-4-2-3(4)5(7)6(7)8/h3-6,8H,2H2,1H3/t3-,4+,5+,6-,7-/m0/s1
