19
gdb 76524	2.54275	1.18681	1.17922	4.5773	76.49	-0.2641	0.0122	0.2762	1199.5996	0.158404	-423.046464	-423.037365	-423.036421	-423.080321	33.233	
C	-0.103320507	 0.7758265998	-2.0893498061	-0.414634
C	 0.0576187578	-0.3390370301	-1.0789014653	-0.081581
C	 1.3502725914	-0.6295796146	-0.3602979749	-0.081586
C	 2.6210359163	 0.1634905178	-0.5748420139	-0.414634
C	 0.18559749	-0.0310868484	 0.3960743558	 0.088883
C	 0.0484164339	 1.2729657954	 1.1700754489	-0.153879
O	-0.6922116952	 0.5503054602	 2.2100575164	-0.256791
C	-0.5804664735	-0.6453654574	 1.5257408685	 0.43389
O	-0.997909073	-1.7129007083	 1.8449526781	-0.348545
H	 0.4783705994	 1.6636287059	-1.8273621704	 0.119734
H	 0.2211070863	 0.448305582	-3.0826612474	 0.129325
H	-1.1524014332	 1.0797504862	-2.1660784968	 0.129829
H	-0.5521515853	-1.2156309851	-1.2841808648	 0.111369
H	 1.5155511453	-1.6803770945	-0.1347227149	 0.111368
H	 2.4263182277	 1.2258077975	-0.7444350905	 0.119734
H	 3.2784749544	 0.0838246088	 0.297084008	 0.129829
H	 3.1722147445	-0.2149758078	-1.4421113043	 0.129325
H	 0.9653338722	 1.7041446016	 1.5794263093	 0.124182
H	-0.5756598424	 2.0505302909	 0.7227019043	 0.124182
108.9774	123.2824	156.1275	173.7117	180.6148	230.3388	242.4953	317.7601	424.5547	522.3781	563.2754	619.5629	692.6212	775.5263	803.7738	824.9717	914.617	954.72	1009.4426	1017.5079	1031.0704	1073.0623	1086.5095	1115.8552	1137.6704	1145.5469	1148.1876	1180.0663	1214.4925	1303.281	1355.0055	1370.9812	1416.682	1424.184	1467.4816	1486.9845	1494.1221	1499.8729	1514.6177	1520.2557	1932.1813	3035.865	3039.7715	3060.6529	3097.6937	3099.017	3106.3565	3116.2567	3117.161	3136.8778	3147.1295
CC1C(C)C11COC1=O	C[C@H]1[C@@H](C)[C@]21COC2=O	
InChI=1S/C7H10O2/c1-4-5(2)7(4)3-9-6(7)8/h4-5H,3H2,1-2H3	InChI=1S/C7H10O2/c1-4-5(2)7(4)3-9-6(7)8/h4-5H,3H2,1-2H3/t4-,5+,7+
