17
gdb 37129	3.47476	1.68873	1.66946	1.2517	69.53	-0.2016	0.0601	0.2617	882.362	0.136596	-421.721386	-421.714756	-421.713812	-421.751961	27.689	
C	 0.0907850127	 1.3431121427	 0.0398187177	-0.289817
C	 1.4086520375	 0.6266822893	-0.024225215	-0.124671
C	 0.0907288937	-0.157218937	-0.0163304273	-0.124671
C	 0.4039588476	-0.6837574949	-1.4421905896	 0.284847
C	 0.6962772752	 0.2990535381	-2.5505427118	-0.39719
C	 1.7091987539	 0.0925960163	-1.450008121	 0.284847
O	 2.7193637454	-0.8495401164	-1.6525082086	-0.280179
C	 2.1421180536	-2.1196608328	-1.3489880103	 0.001212
O	 0.7478640913	-2.0221828629	-1.6407017945	-0.280179
H	-0.1419521963	 1.7442864384	 1.0218824088	 0.121547
H	-0.2797339369	 1.9578535086	-0.7732360431	 0.116589
H	 2.1766054628	 0.7394038349	 0.7303261364	 0.098834
H	-0.3681838544	-0.7742384965	 0.7455700145	 0.098834
H	 0.9727375757	-0.1751488715	-3.4847780068	 0.138258
H	 0.1445547152	 1.2255054375	-2.6626482311	 0.125261
H	 2.5909773451	-2.88078663	-1.9929251095	 0.124764
H	 2.297756458	-2.3706491336	-0.288404699	 0.101712
168.8706	234.6041	336.1173	337.7742	455.927	464.9873	512.8238	610.513	703.2714	727.4882	741.8156	813.8232	861.5842	894.2797	908.1707	916.1587	944.9915	950.1146	996.9197	1011.4113	1042.0462	1043.9543	1074.024	1094.6807	1148.4555	1157.7885	1164.3195	1176.5515	1209.5872	1233.8235	1284.7182	1306.196	1347.2288	1416.565	1454.4085	1501.9016	1535.7103	2985.5067	3098.3196	3125.3024	3142.8982	3186.8403	3194.5296	3207.0237	3234.6346
C1C2C1C13CC21OCO3	C1[C@H]2[C@@H]1[C@@]13C[C@@]21OCO3	
InChI=1S/C7H8O2/c1-4-5(1)7-2-6(4,7)8-3-9-7/h4-5H,1-3H2	InChI=1S/C7H8O2/c1-4-5(1)7-2-6(4,7)8-3-9-7/h4-5H,1-3H2/t4-,5+,6+,7-
