17
gdb 34556	3.71057	1.29615	1.21851	1.5059	82.24	-0.2307	-0.028	0.2027	1067.0603	0.137607	-384.663436	-384.656263	-384.655319	-384.694917	29.026	
C	 0.0974950852	-1.1688589988	 0.0417035024	-0.408741
C	-0.0156050248	 0.0308435486	-0.0023846971	 0.182011
C	-0.0783812639	 1.4351195581	-0.0628878255	 0.240361
C	-1.1338033214	 2.2655040718	-0.0347090112	-0.217127
C	-0.5471603442	 3.6666359379	 0.0269315027	 0.023554
C	 0.0118489648	 3.8631208713	 1.4761827998	-0.215695
C	 1.2430349036	 2.9111811749	 1.4389778937	-0.220087
C	 1.1452511251	 2.3695597594	-0.022378093	-0.053735
O	 0.6641439809	 3.5153192462	-0.724623666	-0.244647
H	 0.1771997478	-2.2267739212	 0.0814273504	 0.191425
H	-2.1801412427	 2.0078902687	 0.0501661742	 0.113263
H	-1.1497779338	 4.4824605539	-0.3693629073	 0.085012
H	 0.3156952413	 4.9024586973	 1.6203982115	 0.109409
H	-0.718116252	 3.6056798234	 2.2462386104	 0.105065
H	 2.175761607	 3.4642268915	 1.5686565858	 0.109031
H	 1.2071716283	 2.1141353407	 2.1842152609	 0.111808
H	 2.0646966088	 1.9916634563	-0.4652529717	 0.089094
114.112	150.4444	253.0507	352.6065	434.2142	489.4887	536.185	580.0301	593.8869	630.4832	638.4891	739.3959	814.3194	833.5305	847.4202	869.8215	894.6638	896.2411	933.4356	959.8411	989.5868	1049.5058	1054.5041	1127.3836	1168.7661	1203.0237	1229.5153	1238.7178	1248.9772	1291.5709	1309.7271	1322.1999	1346.4112	1483.9446	1502.2303	1648.0394	2220.003	3067.7863	3077.4802	3113.0576	3129.3117	3134.5947	3145.3639	3235.547	3503.6847
C#CC1=CC2CCC1O2	C#CC1=C[C@H]2CC[C@@H]1O2	
InChI=1S/C8H8O/c1-2-6-5-7-3-4-8(6)9-7/h1,5,7-8H,3-4H2	InChI=1S/C8H8O/c1-2-6-5-7-3-4-8(6)9-7/h1,5,7-8H,3-4H2/t7-,8+/m1/s1
