18
gdb 37610	3.03825	2.49419	2.25088	1.9617	75.22	-0.2105	0.0599	0.2704	748.1192	0.152924	-364.746168	-364.741173	-364.740229	-364.775147	23.261	
C	-0.0358582208	 1.5847128666	 0.0564227473	-0.234837
C	 1.4769109818	 1.8241295403	-0.0126105769	-0.048413
C	 2.0211606671	 0.9204953342	-1.1700640255	-0.070583
C	 1.0453778005	-0.2980391057	-1.1371767188	-0.004928
C	 0.0252841041	 0.0556532389	-0.0173666605	-0.049905
C	 1.1559477493	-0.394421786	 0.951499357	-0.004928
C	 2.1356662678	 0.8206780903	 0.9931694504	-0.070584
C	 2.9046920348	 0.1230137159	-0.166679038	 0.002254
N	 1.9506400117	-1.0636159206	-0.1709393008	-0.178326
H	-0.4836533176	 1.9479575588	 0.9889776808	 0.098484
H	-0.5776350788	 2.0298794008	-0.786447858	 0.098484
H	 1.8349822074	 2.8533965425	 0.0159281624	 0.064285
H	 2.3481484904	 1.3461159773	-2.1174426602	 0.064956
H	 0.738432381	-0.7853387327	-2.0636507099	 0.067515
H	-0.9114593493	-0.4997944551	 0.0065944946	 0.068847
H	 0.9459478871	-0.9662380027	 1.856461618	 0.067515
H	 2.5627039772	 1.1590902216	 1.9358869031	 0.064956
H	 3.9800394563	-0.0428390746	-0.2312513748	 0.065211
371.3627	554.2907	557.7029	657.7155	701.5746	709.8873	795.5332	821.5381	826.1435	834.2525	866.9495	883.0542	888.8571	905.7234	924.253	941.0643	970.4421	977.1883	987.6943	988.9058	1002.8013	1034.0422	1110.223	1116.2988	1148.7278	1178.491	1182.7308	1193.7847	1204.7688	1216.0539	1237.1596	1245.6522	1258.5841	1260.4327	1261.13	1302.7253	1315.9152	1333.9872	1478.4089	3032.3695	3079.2132	3091.9622	3092.393	3102.2158	3109.0488	3119.1439	3123.0381	3130.5794
C1C2C3C4C1C1C2C3N41	C1[C@@H]2[C@@H]3[C@@H]4[C@H]1[C@@H]1[C@H]2[C@H]3N41	
InChI=1S/C8H9N/c1-2-4-6-3(1)7-5(2)8(4)9(6)7/h2-8H,1H2	InChI=1S/C8H9N/c1-2-4-6-3(1)7-5(2)8(4)9(6)7/h2-8H,1H2/t2-,3+,4-,5+,6+,7-,8+
