14
gdb 15511	3.18971	1.93412	1.30997	3.5785	57.81	-0.2674	-0.0386	0.2287	887.2071	0.107409	-419.73141	-419.724251	-419.723307	-419.763645	25.07	
O	-0.3637547036	 0.4650637795	-0.5982985983	-0.231603
C	 0.391454216	 0.8188798573	 0.2676505191	 0.150488
C	 1.3667353295	 1.9770821587	 0.1168071498	-0.249615
C	 1.2299419554	 2.8005182432	-1.1616252279	-0.252261
C	 1.4789920685	 4.2365229488	-0.6698416453	-0.08971
O	 1.1679140894	 4.2442946191	 0.7372534833	-0.211114
C	 1.1560246875	 2.993896348	 1.250699478	 0.437419
O	 0.9886995198	 2.7594364908	 2.4121338179	-0.337846
H	 0.4265216153	 0.3270301952	 1.2601668841	 0.118045
H	 2.3745221774	 1.5632898351	 0.2613526661	 0.136968
H	 1.9299677292	 2.5085971592	-1.9456384101	 0.124936
H	 0.2179812341	 2.6814335148	-1.5566236389	 0.145441
H	 2.5245207239	 4.5414661147	-0.7878070249	 0.123462
H	 0.8413346476	 4.9808581855	-1.1498976129	 0.135389
69.5422	106.5487	177.4978	211.7706	297.7223	480.8684	554.9869	652.7467	685.8523	700.9755	795.9567	861.9022	948.1384	965.3455	973.799	1053.7942	1080.1275	1137.6777	1177.3951	1200.6529	1226.5824	1250.5732	1297.4409	1344.2442	1398.8809	1415.1913	1500.6158	1527.3295	1829.9572	1873.0476	2943.3711	3027.1244	3048.5111	3081.526	3115.6897	3133.7544
O=CC1CCOC1=O	O=C[C@H]1CCOC1=O	
InChI=1S/C5H6O3/c6-3-4-1-2-8-5(4)7/h3-4H,1-2H2	InChI=1S/C5H6O3/c6-3-4-1-2-8-5(4)7/h3-4H,1-2H2/t4-/m1/s1
