16
gdb 25948	4.93876	0.99363	0.86137	2.58	74.38	-0.2204	-0.0065	0.2139	1310.0425	0.125212	-434.100749	-434.092329	-434.091385	-434.135074	30.186	
C	-0.1751469891	 1.3769139807	-0.6682947933	-0.466224
C	 0.0240350904	-0.1091897802	-0.5021418819	 0.362305
N	 1.0076256195	-0.6952436344	-1.0534973139	-0.502663
N	-0.95887611	-0.6917470791	 0.3175591634	-0.450685
C	-1.1506099024	-2.0380560944	 0.546942628	 0.40148
C	-2.2539847398	-2.8233579855	 0.6639719457	-0.193029
N	-1.8574040915	-4.1104171776	 1.0100052321	-0.244843
C	-0.5720946972	-4.0492930202	 1.0651697321	 0.073535
O	-0.0543221855	-2.8141658649	 0.8078414924	-0.169791
H	 0.6242680026	 1.7711680243	-1.2932222603	 0.159634
H	-1.1400666892	 1.5959586586	-1.1406456949	 0.130141
H	-0.1577755955	 1.8848379507	 0.3024714123	 0.136206
H	 1.0306581495	-1.6919323639	-0.8427075257	 0.22535
H	-1.7466632152	-0.1101871442	 0.5546166196	 0.259739
H	-3.2898161393	-2.559433276	 0.5265267071	 0.122624
H	 0.1391827027	-4.8338090539	 1.2663775872	 0.15622
33.6567	74.5526	146.7269	149.2022	319.6517	346.0103	384.1665	404.202	553.0318	568.1517	660.2616	678.8602	786.4581	805.7672	817.871	894.8385	911.1158	936.1525	986.675	1019.9245	1073.2749	1110.7935	1125.0978	1141.0781	1247.7375	1296.1715	1312.8062	1371.4876	1406.9076	1466.146	1485.7494	1493.6799	1567.3279	1654.6046	1742.7855	3034.7385	3090.0479	3170.8635	3268.1477	3285.6874	3504.1695	3634.9351
CC(=N)NC1=CN=CO1	CC(=N)Nc1cnco1	
InChI=1S/C5H7N3O/c1-4(6)8-5-2-7-3-9-5/h2-3H,1H3,(H2,6,8)	InChI=1S/C5H7N3O/c1-4(6)8-5-2-7-3-9-5/h2-3H,1H3,(H2,6,8)
