25
gdb 100669	2.71629	0.93632	0.85098	0.7021	84.69	-0.2607	0.0717	0.3324	1502.2972	0.225737	-426.619388	-426.607544	-426.6066	-426.655636	43.838	
C	 0.037437021	 1.5312066285	 0.1811857788	-0.423673
C	-0.0505345854	 0.0112836106	-0.046953497	 0.032634
C	-1.5244037258	-0.4143311447	-0.0011113136	-0.098562
O	-1.9950090123	-0.1897788381	 1.3244724972	-0.422659
C	 0.6916006217	-0.5136476189	-1.319130833	 0.248211
C	 0.829543988	-2.0497155674	-1.254777394	-0.418894
C	-0.0303376244	-0.1201494252	-2.6238619133	-0.421572
C	 2.1121338808	 0.0871836596	-1.3401711777	-0.098124
O	 2.8463111062	-0.4892779555	-2.4142982092	-0.426664
H	 1.0523065682	 1.8581879781	 0.4217443088	 0.109771
H	-0.2996090467	 2.0950477005	-0.6958981157	 0.109457
H	-0.6063869915	 1.802625712	 1.0209261799	 0.132945
H	 0.4209305524	-0.4763185029	 0.8177835937	 0.078876
H	-2.1068898556	 0.1749941406	-0.7261329562	 0.085043
H	-1.6346739871	-1.4732940868	-0.2706630944	 0.086285
H	-2.9419234221	-0.3545077069	 1.3370866905	 0.284705
H	-0.140750257	-2.55013465	-1.3113413631	 0.105816
H	 1.4412653692	-2.4079270756	-2.0849615329	 0.133943
H	 1.3140422877	-2.3610024017	-0.322330576	 0.104718
H	-0.2179031734	 0.9574575996	-2.6763899396	 0.106313
H	 0.5873231799	-0.3917620093	-3.4832802236	 0.130781
H	-0.9915052488	-0.6334284032	-2.724088189	 0.106365
H	 2.0549304171	 1.1771213903	-1.4623339232	 0.0868
H	 2.6068216348	-0.115998183	-0.3757232956	 0.080805
H	 3.6947261531	-0.0416051505	-2.4693716517	 0.28668
69.1372	107.7758	132.135	180.1543	215.3953	225.1554	242.5089	247.8968	252.1082	278.5853	311.3699	324.5301	345.1325	360.7561	381.3638	443.1548	485.2424	607.2161	738.3199	841.0488	912.7508	929.2785	931.138	958.8358	965.5183	1015.1869	1048.578	1056.7946	1082.4619	1113.6565	1161.887	1185.5037	1205.2004	1231.362	1257.9384	1279.3708	1287.3778	1301.0482	1348.5728	1369.1742	1395.6984	1403.3338	1412.5855	1453.6675	1458.1047	1481.9473	1496.6702	1497.7911	1500.4685	1509.9286	1516.9232	1524.0425	1527.3335	2962.3185	2978.2387	3008.204	3020.5518	3023.8406	3035.8669	3039.8139	3042.8593	3099.3329	3103.5824	3106.8737	3122.542	3125.5547	3133.0976	3834.4475	3840.9211
CC(CO)C(C)(C)CO	C[C@@H](CO)C(C)(C)CO	
InChI=1S/C7H16O2/c1-6(4-8)7(2,3)5-9/h6,8-9H,4-5H2,1-3H3	InChI=1S/C7H16O2/c1-6(4-8)7(2,3)5-9/h6,8-9H,4-5H2,1-3H3/t6-/m0/s1
