18
gdb 32808	3.25321	1.08136	0.82346	1.5739	75.77	-0.1876	0.039	0.2266	1388.883	0.148532	-435.295377	-435.286027	-435.285083	-435.330422	33.266	
C	-0.0360874486	 1.4915821043	-0.0485188638	-0.389471
C	-0.0194815175	-0.0257090093	-0.0154851114	-0.035339
O	 0.6660045675	-0.4737098613	-1.1876830524	-0.292438
C	 0.7823058033	-1.8115538531	-1.3337384185	 0.34158
C	 1.4079675209	-2.4265027784	-2.3968406481	 0.119218
N	 2.0665476561	-1.9875240839	-3.5617250201	-0.617077
N	 1.2786769373	-3.7809055765	-2.1144717856	-0.24979
C	 0.6101381458	-3.9019348675	-0.9455747351	 0.000513
N	 0.2923449329	-2.7207356667	-0.4426438684	-0.347201
H	 0.9819674907	 1.8917894514	-0.0556106074	 0.123074
H	-0.5536311366	 1.8555986463	-0.9408767608	 0.123071
H	-0.5539548422	 1.8794238197	 0.8339109978	 0.116413
H	 0.4923292439	-0.403260784	 0.8778400305	 0.110828
H	-1.0351484216	-0.439019898	-0.0017473945	 0.110722
H	 2.8654942603	-1.4012730138	-3.3405338931	 0.246317
H	 1.452342548	-1.4353427486	-4.1522984319	 0.246316
H	 1.6349105198	-4.5151119613	-2.7035504852	 0.26571
H	 0.3769458199	-4.8565051792	-0.4992946419	 0.127554
59.559	66.9382	108.1082	139.378	244.7686	251.5708	291.4594	334.6561	350.6965	532.4862	541.6517	660.0779	667.521	735.2196	771.1594	786.0161	810.8359	822.0116	920.0587	959.968	1072.19	1112.1257	1128.8307	1181.0795	1184.0367	1218.7619	1273.3926	1289.8185	1319.9939	1389.9886	1395.4982	1417.0146	1484.1818	1490.1487	1498.7123	1506.6071	1528.1176	1649.5072	1671.9089	3026.9779	3043.1942	3061.0453	3117.6904	3119.6538	3252.9671	3493.6706	3551.4994	3665.2141
CCOC1=C(N)NC=N1	CCOc1c(N)[nH]cn1	
InChI=1S/C5H9N3O/c1-2-9-5-4(6)7-3-8-5/h3H,2,6H2,1H3,(H,7,8)	InChI=1S/C5H9N3O/c1-2-9-5-4(6)7-3-8-5/h3H,2,6H2,1H3,(H,7,8)
