14
gdb 27808	2.08357	1.94397	1.01194	5.7168	68.51	-0.2597	-0.0485	0.2113	1099.0859	0.100678	-470.095939	-470.087547	-470.086603	-470.129367	29.825	
C	-0.0161093706	 1.4830753713	 0.0258718439	-0.455395
C	 0.000074356	-0.0151476976	-0.0052190743	 0.353218
N	-0.0245069313	-0.6029933652	-1.1803409857	-0.366833
C	-0.0089064403	-1.9575988797	-1.2417188867	 0.440573
O	-0.0251395264	-2.6774286255	-2.1885531726	-0.32243
O	 0.0345715474	-2.6550013021	 0.0538392018	-0.243996
C	 0.0560064969	-1.931397457	 1.16108229	 0.523566
N	 0.0953019501	-2.6612536157	 2.2839468811	-0.555424
N	 0.0409130302	-0.6218659679	 1.2109825854	-0.388718
H	 0.8826941198	 1.8491641262	 0.5329861259	 0.147437
H	-0.0654883433	 1.8867255753	-0.984382697	 0.14856
H	-0.8718071887	 1.8298967451	 0.6140022606	 0.146932
H	 0.1060129017	-3.6648748771	 2.2363211633	 0.285926
H	 0.1130287385	-2.1849936702	 3.1686089844	 0.286584
83.7892	110.5739	164.3064	184.7284	194.1874	298.9009	347.6955	524.6951	551.7661	563.8271	579.0954	624.0028	624.9341	769.9827	770.9757	808.4483	958.3295	994.7969	1034.7894	1061.6247	1117.3962	1160.3824	1380.6544	1425.6964	1448.6093	1471.4798	1473.6624	1544.9911	1622.4105	1669.0068	1913.378	3048.8063	3106.2365	3169.0866	3625.4322	3764.0175
CC1=NC(=O)OC(N)=N1	Cc1nc(=O)oc(N)n1	
InChI=1S/C4H5N3O2/c1-2-6-3(5)9-4(8)7-2/h1H3,(H2,5,6,7,8)	InChI=1S/C4H5N3O2/c1-2-6-3(5)9-4(8)7-2/h1H3,(H2,5,6,7,8)
