19
gdb 39317	2.86356	1.76321	1.32483	0.8117	73.42	-0.2276	0.0737	0.3013	988.8009	0.162281	-422.986721	-422.979749	-422.978805	-423.018045	28.421	
C	-0.0199253345	 1.5688605767	-0.0191924875	-0.335677
C	 1.2725743887	 0.8126791652	 0.0357589129	 0.128934
O	 2.1084157512	 0.7827586861	 1.1570312169	-0.252407
C	 1.4390644432	 0.7313098116	 2.4068952649	-0.107401
C	 0.5265795903	-0.4918751022	 2.5214726623	-0.0803
C	-0.7898966157	-0.2465902066	 3.2818655282	-0.092699
O	-1.5175521153	-0.0928956964	 2.0442657962	-0.292343
C	-0.4070628915	-0.656940367	 1.2940291162	 0.126716
C	-0.0350519416	 0.0463955777	 0.015150535	-0.096851
H	-0.3980862528	 2.0737761589	 0.8605269484	 0.131763
H	-0.2782636914	 2.0543031428	-0.9534891827	 0.114114
H	 1.8898918655	 0.7920939867	-0.855288135	 0.103897
H	 2.2302883377	 0.7038001354	 3.1606883526	 0.112418
H	 0.863868405	 1.6543983178	 2.5698989943	 0.100161
H	 1.0977498124	-1.3807316038	 2.795316475	 0.079624
H	-1.141765346	-1.1112315752	 3.861209824	 0.097259
H	-0.8515207073	 0.6512380424	 3.9086356359	 0.102317
H	-0.603954266	-1.7160707021	 1.0797751791	 0.073069
H	-0.2993591319	-0.4695406078	-0.9014120965	 0.087403
106.4736	190.8307	287.1507	354.0883	396.4254	427.1924	484.8725	578.6098	704.1993	741.5436	778.7411	811.5366	824.244	867.7613	914.4975	948.2068	983.9692	1001.9591	1005.6679	1010.923	1043.5515	1082.2454	1087.8571	1116.8595	1125.4273	1157.4216	1179.6159	1194.3814	1233.419	1241.3669	1270.203	1298.1404	1347.0201	1361.5165	1373.52	1382.9894	1408.6073	1423.874	1485.2141	1513.1205	1525.8658	2999.0048	3001.0296	3007.5867	3052.3826	3082.2395	3098.9702	3147.9922	3159.9305	3176.7803	3236.2644
C1C2OCC3COC3C12	C1[C@H]2OC[C@H]3CO[C@H]3[C@@H]12	
InChI=1S/C7H10O2/c1-5-6(1)8-2-4-3-9-7(4)5/h4-7H,1-3H2	InChI=1S/C7H10O2/c1-5-6(1)8-2-4-3-9-7(4)5/h4-7H,1-3H2/t4-,5-,6+,7+/m0/s1
