15
gdb 16198	3.27831	2.406	1.55591	3.0499	67.57	-0.2079	-0.0029	0.2051	804.117	0.120341	-362.699741	-362.692968	-362.692023	-362.730465	26.325	
O	 0.0836605454	 0.0093338694	 0.0060736464	-0.394893
C	 0.0447390209	 1.2221974721	 0.0104369396	 0.375741
N	-1.0892956928	 2.0160386581	 0.0284564776	-0.35349
C	-0.7558907552	 3.3799511712	 0.0292372098	-0.030837
C	 0.5744757725	 3.5454980848	 0.012865628	-0.265815
C	 1.1920262876	 2.2005567411	 0.0001202115	 0.22343
C	 2.4687456273	 1.7956634665	 0.7270930467	-0.290094
C	 2.4502763474	 1.8013477674	-0.7613432864	-0.290123
H	-2.0206146424	 1.63648317	 0.0391873065	 0.260566
H	-1.5416217243	 4.1207054624	 0.042213278	 0.130506
H	 1.1055568893	 4.4847235853	 0.0097746678	 0.108647
H	 3.0040080151	 2.5806173488	 1.2490848621	 0.121237
H	 2.4299103283	 0.8356282042	 1.2303090471	 0.141963
H	 2.3988560635	 0.8451896216	-1.2707758769	 0.141946
H	 2.9724695672	 2.5903303171	-1.2904497278	 0.121215
125.2816	220.6957	240.7732	263.888	448.1192	466.4882	573.2291	585.8452	700.3319	724.6917	756.0597	791.3566	814.7223	864.8164	890.1326	933.075	970.7236	1002.9658	1063.6649	1072.847	1090.8382	1113.1341	1170.4855	1205.0513	1301.6256	1310.2127	1385.8502	1421.8158	1452.5489	1485.8773	1647.7141	1821.7388	3135.9176	3137.1139	3223.655	3238.1133	3238.9823	3260.4013	3672.961
O=C1NC=CC11CC1	O=C1NC=CC21CC2	
InChI=1S/C6H7NO/c8-5-6(1-2-6)3-4-7-5/h3-4H,1-2H2,(H,7,8)	InChI=1S/C6H7NO/c8-5-6(1-2-6)3-4-7-5/h3-4H,1-2H2,(H,7,8)
