14
gdb 131473	3.34479	1.58733	1.13025	2.2117	69.4	-0.2529	-0.0428	0.2101	997.6037	0.102978	-436.671146	-436.664488	-436.663544	-436.70222	26.039	
O	 0.185079533	 1.4278394323	-0.1787547815	-0.411253
C	 0.051752628	 0.0211068323	-0.0592311025	-0.082563
C	 0.6370742234	-0.5493351635	 1.2416056874	-0.108652
C	-0.2406732296	-1.29626084	 1.9334474802	-0.190075
C	-1.5011307259	-1.307523113	 1.18938484	 0.377427
N	-2.6894777821	-1.8286464643	 1.3294234622	-0.252243
O	-3.3918297838	-1.3637690657	 0.1989623558	-0.181709
C	-2.5749111444	-0.5958989933	-0.5615911921	-0.078679
C	-1.3561556848	-0.5182953836	 0.0119555574	 0.110473
H	-0.3097010979	 1.8276857609	 0.5458295434	 0.286314
H	 0.5957911978	-0.3832879722	-0.9216160324	 0.121638
H	 1.658050425	-0.3326694127	 1.5315325445	 0.120886
H	-0.0666250877	-1.8012280782	 2.8738577213	 0.129138
H	-3.0263111209	-0.1930934891	-1.4549554738	 0.159299
141.71	182.446	311.111	354.5477	362.3383	502.4326	560.0247	589.3196	657.3315	722.1932	733.3795	795.5821	842.8767	868.6378	877.9152	958.1752	961.9732	973.7659	1068.1792	1090.0789	1102.3309	1173.4422	1239.9768	1257.3102	1287.9449	1344.1715	1411.0632	1418.7284	1568.4164	1613.3015	1675.5924	3042.6996	3211.854	3238.4828	3266.0601	3796.9331
OC1C=CC2=NOC=C12	O[C@H]1C=Cc2nocc12	
InChI=1S/C6H5NO2/c8-6-2-1-5-4(6)3-9-7-5/h1-3,6,8H	InChI=1S/C6H5NO2/c8-6-2-1-5-4(6)3-9-7-5/h1-3,6,8H/t6-/m0/s1
