18
gdb 52117	3.40497	1.12891	0.94956	4.5187	72.34	-0.2323	0.0229	0.2552	1232.9633	0.147508	-439.059751	-439.051144	-439.0502	-439.094125	31.35	
O	 0.5028901447	 1.6348660428	 1.2701279741	-0.324962
C	 0.3093818038	 1.6230027739	 0.0707512805	 0.155539
N	 1.2257421603	 1.2403531683	-0.8528178663	-0.254741
C	 2.5792434575	 0.8378404762	-0.4698436367	-0.308905
C	 3.4631440438	 1.9848655516	-0.0715763664	 0.296081
C	 4.1855916976	 2.8903002625	-1.0543231983	-0.348933
C	 4.9679679295	 2.1399045058	-0.0198081527	 0.055307
O	 4.9424978702	 2.8184130156	 1.2321960578	-0.28824
C	 3.4966421182	 2.6422507623	 1.3077078591	-0.122915
H	-0.6551536537	 1.9152583575	-0.38958837	 0.079749
H	 1.0032706107	 1.3554237882	-1.8280798043	 0.251194
H	 2.4892568066	 0.1329825037	 0.3631674006	 0.138586
H	 3.0139811932	 0.2999761502	-1.3177244151	 0.109463
H	 4.253972268	 2.4985924375	-2.0658947087	 0.105069
H	 4.1057897654	 3.9717005886	-0.9820920651	 0.117554
H	 5.788406783	 1.4587395035	-0.2183036742	 0.10415
H	 2.9636680667	 3.5894956653	 1.4385542072	 0.111091
H	 3.2311650245	 1.9541894866	 2.1152475786	 0.124916
35.1253	82.5662	134.8023	219.5859	241.3616	322.4524	351.5314	401.9676	455.8782	489.2178	699.9644	758.4078	765.4258	852.6985	925.1208	926.6263	945.0309	967.518	989.5729	1008.3765	1026.9939	1033.288	1065.3224	1081.631	1115.2146	1150.5287	1199.1855	1226.9922	1278.309	1300.4296	1342.7192	1387.1769	1410.4009	1426.5729	1461.8847	1480.4671	1512.3588	1522.3748	1795.5455	2940.0304	3046.3127	3049.1049	3096.6292	3102.7099	3108.6012	3172.0343	3199.1117	3643.5606
O=CNCC12CC1OC2	O=CNC[C@]12C[C@H]1OC2	
InChI=1S/C6H9NO2/c8-4-7-2-6-1-5(6)9-3-6/h4-5H,1-3H2,(H,7,8)	InChI=1S/C6H9NO2/c8-4-7-2-6-1-5(6)9-3-6/h4-5H,1-3H2,(H,7,8)/t5-,6+/m1/s1
