22
gdb 112883	2.52789	1.19785	0.89228	3.6519	83.69	-0.231	0.0387	0.2697	1391.5412	0.194837	-404.411775	-404.40212	-404.401176	-404.446776	35.501	
C	-0.013153877	 1.5375975992	 0.1769238202	-0.381241
C	-0.0477837524	 0.0256100157	-0.070327126	-0.155569
N	-1.3815026838	-0.541248201	-0.0285450171	-0.067051
C	-2.1667845388	-0.6520225621	 1.1883129036	-0.178449
C	-3.3371551007	-1.5801236349	 0.7862257878	 0.022386
C	-4.6101296252	-1.3586046009	 1.5980973914	-0.406387
C	-3.465961458	-1.3326156917	-0.7265046401	-0.344387
C	-2.069602797	-0.8886838004	-1.1643218269	 0.401104
O	-1.637331904	-0.8296416674	-2.2977950717	-0.399247
H	 1.0167270889	 1.9042769397	 0.1252709594	 0.119762
H	-0.6023133244	 2.0650770041	-0.5789335663	 0.133235
H	-0.4095939856	 1.7963463628	 1.1641486584	 0.116302
H	 0.3445286276	-0.2028930045	-1.0645535621	 0.143433
H	 0.5794212459	-0.4902691684	 0.6688776089	 0.099404
H	-1.5649974357	-1.0684498412	 2.0052712727	 0.10563
H	-2.5380275036	 0.3294869244	 1.5231290199	 0.099739
H	-2.9982048859	-2.6131576947	 0.9307048505	 0.087417
H	-4.9854403756	-0.3370084536	 1.469373212	 0.117609
H	-5.4014451763	-2.0470229505	 1.2853838564	 0.121663
H	-4.434016326	-1.5185088191	 2.6675134246	 0.116119
H	-3.7943940812	-2.2001464493	-1.301828467	 0.126891
H	-4.1645789711	-0.5134210559	-0.9420419386	 0.121635
53.5138	83.7511	125.8991	172.0034	209.7928	246.0798	276.7313	326.3659	373.8869	419.5758	499.3621	540.872	599.5064	657.0573	767.2609	800.0466	855.7543	905.6314	935.4578	954.1724	971.1471	1038.7343	1075.5066	1095.2681	1115.811	1138.8209	1172.9806	1198.3717	1243.5655	1266.3995	1270.5544	1289.7177	1346.932	1352.071	1379.7571	1396.4623	1410.9682	1414.7817	1452.8097	1470.1349	1478.829	1494.9083	1497.3146	1500.4933	1502.6581	1533.5238	1803.5328	2975.3863	3017.7081	3023.7075	3028.1068	3035.7162	3038.2275	3045.5788	3094.8767	3096.387	3103.2428	3113.1572	3115.9977	3120.6753
CCN1CC(C)CC1=O	CCN1C[C@@H](C)CC1=O	
InChI=1S/C7H13NO/c1-3-8-5-6(2)4-7(8)9/h6H,3-5H2,1-2H3	InChI=1S/C7H13NO/c1-3-8-5-6(2)4-7(8)9/h6H,3-5H2,1-2H3/t6-/m0/s1
