19
gdb 94937	2.52762	1.47572	1.26825	1.4234	70.73	-0.2334	0.0674	0.3008	1073.2081	0.158205	-460.135437	-460.126607	-460.125663	-460.168512	34.079	
C	-0.0691832448	 1.5760258694	-0.1779154364	-0.481918
C	 0.0167563866	 0.0826430429	 0.036386034	 0.361832
O	-1.1618417338	-0.6154664948	-0.2817004674	-0.466495
C	 1.3002465266	-0.6774834256	-0.2005081959	-0.002274
O	 2.4713255302	 0.0997799453	-0.240108181	-0.259734
C	 2.9664213527	 0.2446140548	 1.096110362	-0.113223
C	 1.7568822386	 0.1207957893	 2.0583997073	 0.08459
O	 1.3460625081	 1.3379490384	 2.657647609	-0.434087
C	 0.7227599999	-0.6039992977	 1.1937986145	-0.15184
H	 0.9136560347	 2.0472903545	-0.0988959299	 0.13505
H	-0.4324099071	 1.7814541622	-1.1923581967	 0.112398
H	-0.7713652426	 2.0415142133	 0.5212265365	 0.133251
H	-1.3101071347	-0.524124232	-1.2302862501	 0.281873
H	 1.3115657731	-1.581464637	-0.8036947569	 0.098031
H	 3.7052365831	-0.5428097803	 1.3040631861	 0.099631
H	 3.455638638	 1.2185128438	 1.1845790827	 0.114115
H	 2.0236152955	-0.5157641135	 2.9068763797	 0.098301
H	 0.9968450685	 1.9153158185	 1.9727680309	 0.282663
H	 0.1841450373	-1.4425329314	 1.6167654018	 0.107836
84.4075	170.7493	199.9166	232.0623	274.3307	293.33	316.6201	378.9489	398.1192	416.406	490.6915	542.8868	669.6695	744.6928	768.1316	841.6158	864.0201	880.0095	968.3222	972.888	1000.4824	1031.5093	1058.946	1076.1725	1088.3171	1126.1724	1136.1974	1186.9637	1228.2223	1274.5135	1277.2263	1285.1865	1309.2533	1320.1712	1371.1377	1412.0257	1426.7499	1445.862	1500.6782	1503.462	1507.7038	2998.3925	3027.1474	3073.1256	3084.1816	3095.7843	3123.485	3141.9976	3194.0581	3785.9762	3845.0224
CC1(O)C2OCC(O)C12	C[C@@]1(O)[C@H]2OC[C@@H](O)[C@@H]12	
InChI=1S/C6H10O3/c1-6(8)4-3(7)2-9-5(4)6/h3-5,7-8H,2H2,1H3	InChI=1S/C6H10O3/c1-6(8)4-3(7)2-9-5(4)6/h3-5,7-8H,2H2,1H3/t3-,4-,5+,6+/m1/s1
