19
gdb 103133	2.27882	1.44325	1.11095	3.8516	71.84	-0.2455	-0.0304	0.2151	1151.1198	0.156716	-460.164288	-460.154608	-460.153664	-460.198491	35.852	
C	-0.1381776019	 1.5689378739	-0.0507101487	-0.431755
C	-0.0903648992	 0.037173015	-0.0844895415	 0.136948
C	-1.4802499624	-0.577126013	 0.1509139113	-0.109209
O	-1.9708285138	-0.2565173939	 1.4359224509	-0.423269
C	 0.7655700753	-0.5552153989	-1.2562306538	 0.059499
O	 0.9987568089	 0.3614634179	-2.2954706942	-0.424365
C	 1.9419764637	-0.8492757811	-0.2654543668	-0.390387
C	 0.9524256223	-0.5660411088	 0.8653185286	 0.3871
O	 0.9050481259	-0.8544707425	 2.0331612916	-0.327687
H	 0.8590991047	 2.0157990387	-0.0583748628	 0.118321
H	-0.6738387488	 1.9407329605	-0.9286479119	 0.133634
H	-0.6662327719	 1.8885849975	 0.8499789671	 0.140828
H	-2.1981356801	-0.1781616388	-0.5752885085	 0.112331
H	-1.4309837948	-1.6684392527	 0.0001905943	 0.082352
H	-1.2986104905	-0.5432301043	 2.0698765105	 0.297477
H	 0.3239004106	-1.4875463516	-1.6347578929	 0.079309
H	 1.5327743148	-0.0700749496	-2.9696704202	 0.290704
H	 2.4259375433	-1.8287159385	-0.2744270875	 0.126897
H	 2.7040768539	-0.0650025197	-0.3318618256	 0.141272
79.0906	129.8663	154.8709	202.9809	228.3633	252.3033	259.2234	286.0496	320.9228	425.0423	465.829	492.8896	525.5797	595.5893	674.9908	715.2536	816.526	867.5405	940.7711	961.7093	965.1331	1053.8313	1072.932	1099.419	1129.9591	1140.2287	1173.1219	1190.7972	1210.6579	1256.2118	1275.4531	1324.8122	1380.4742	1398.8423	1418.7608	1438.3157	1447.0283	1488.0621	1494.2863	1509.018	1856.5253	2960.6524	3003.5959	3050.1371	3053.7566	3056.9573	3119.2097	3120.7748	3139.4888	3744.2199	3822.532
CC1(CO)C(O)CC1=O	C[C@@]1(CO)[C@@H](O)CC1=O	
InChI=1S/C6H10O3/c1-6(3-7)4(8)2-5(6)9/h4,7-8H,2-3H2,1H3	InChI=1S/C6H10O3/c1-6(3-7)4(8)2-5(6)9/h4,7-8H,2-3H2,1H3/t4-,6+/m0/s1
