21
gdb 63014	2.18134	1.72766	1.3877	2.6951	81.23	-0.2361	-0.0149	0.2211	1066.8537	0.182089	-387.121809	-387.113004	-387.11206	-387.154744	34.612	
C	 0.1108841307	 1.5780055784	-0.0106910578	-0.420404
C	 0.0424349858	 0.0471988624	-0.0353804114	 0.171806
C	-1.4301792018	-0.420740259	 0.0134524107	-0.427774
C	 0.7612013927	-0.6128048621	-1.2057323085	-0.048134
C	 2.2659132278	-0.5297269763	-1.2616563715	-0.314746
C	 1.6125446598	-1.7681532946	-0.7016224382	-0.043198
C	 1.4904624367	-1.8387591335	 0.806843152	-0.333139
C	 0.7468382791	-0.5552774642	 1.2042842892	 0.363876
O	 0.7027560761	-0.0876588127	 2.3129525721	-0.326656
H	 1.1392358802	 1.9337196567	-0.1223922649	 0.115206
H	-0.4846752881	 2.0060207192	-0.8235833589	 0.107662
H	-0.2738692104	 1.9541483212	 0.9413004352	 0.133518
H	-1.9710372064	-0.0485474116	-0.863214989	 0.117763
H	-1.5075380319	-1.5129590015	 0.0149978764	 0.116015
H	-1.9258354157	-0.0396453049	 0.9109008212	 0.131944
H	 0.2216351051	-0.7010168293	-2.1429029009	 0.08165
H	 2.7343939935	-0.6038572605	-2.2367545976	 0.114977
H	 2.7835288869	 0.1377337416	-0.5770057999	 0.115409
H	 1.6813976316	-2.6912171174	-1.2649923629	 0.087166
H	 0.882623522	-2.6966864656	 1.122876893	 0.128667
H	 2.4397206963	-1.9050350162	 1.3470397116	 0.128395
80.2095	193.666	198.2071	217.3851	254.1367	295.4934	318.4866	344.9068	450.8715	490.968	559.1487	587.1656	661.179	685.8084	792.9483	823.3683	854.5092	880.1156	937.0754	953.1272	969.6802	998.1556	1030.1083	1050.8244	1070.4161	1077.7231	1092.6143	1118.0832	1163.4041	1197.956	1206.9365	1236.4949	1258.135	1287.8817	1356.3018	1385.2794	1390.94	1416.1638	1453.3532	1482.2354	1485.8729	1490.1982	1501.912	1507.9093	1839.5365	3029.9015	3032.3291	3037.3901	3085.8838	3098.6269	3105.5997	3113.2021	3116.1659	3119.417	3159.5614	3176.2524	3206.5296
CC1(C)C2CC2CC1=O	CC1(C)[C@H]2C[C@H]2CC1=O	
InChI=1S/C8H12O/c1-8(2)6-3-5(6)4-7(8)9/h5-6H,3-4H2,1-2H3	InChI=1S/C8H12O/c1-8(2)6-3-5(6)4-7(8)9/h5-6H,3-4H2,1-2H3/t5-,6-/m0/s1
