12
gdb 123538	4.186	1.86029	1.28793	2.7409	70.81	-0.2618	-0.1031	0.1587	864.5678	0.081249	-427.8305	-427.82493	-427.823985	-427.86043	21.848	
C	 0.0550332061	 1.353238897	 0.0094144249	 0.045522
N	 1.3176944611	 1.8110562024	-0.0005630141	-0.245477
N	 2.0479515625	 0.6962730139	-0.0138740868	 0.05582
N	 3.3825479917	 0.7105632576	-0.0269106055	-0.053936
N	 3.959884588	-0.4389166375	-0.0389833684	-0.166017
C	 3.2015472388	-1.584728077	-0.037908917	 0.075746
N	 1.8961522501	-1.6670767078	-0.0255402816	-0.305093
C	 1.2690325601	-0.4792029568	-0.0127673435	 0.52101
C	-0.0443641703	-0.0468650099	 0.0025280133	-0.357249
H	-0.7520090004	 2.0715239171	 0.0213581161	 0.142138
H	 3.7804295935	-2.5016438845	-0.0486953684	 0.150138
H	-0.9281143911	-0.6614998646	 0.0077694809	 0.137398
217.1221	235.4011	414.4539	476.4963	599.599	626.8882	650.1923	651.609	773.4984	774.8517	823.9473	897.0568	934.3455	939.9272	959.7204	1062.6319	1093.0033	1176.7064	1216.6486	1231.4402	1317.1868	1349.8353	1414.9	1432.6171	1474.2858	1546.5147	1628.4834	3205.6315	3250.5147	3288.5899
C1=NN2N=NC=NC2=C1	c1nn2nncnc2c1	
InChI=1S/C4H3N5/c1-2-7-9-4(1)5-3-6-8-9/h1-3H	InChI=1S/C4H3N5/c1-2-7-9-4(1)5-3-6-8-9/h1-3H
