16
gdb 132737	2.33919	1.80168	1.02495	4.6924	75.17	-0.229	-0.0047	0.2244	1092.1665	0.125341	-442.110394	-442.102432	-442.101488	-442.142591	30.692	
C	-0.0511816144	 1.5349924972	 0.011533892	-0.532182
C	-0.0109041778	 0.0311267894	-0.0133644595	 0.059881
C	-0.0229853584	-0.6937408456	-1.2187515061	 0.28443
N	-0.1124955621	-0.0377175714	-2.4303948487	-0.586905
C	 0.0037675739	-2.0974814968	-1.1574573896	-0.20242
C	 0.0409264369	-2.7103897657	 0.0800495395	-0.001579
N	 0.0565671041	-2.0446182583	 1.2429043669	-0.347385
C	 0.0304513113	-0.7347666901	 1.1499763007	 0.29065
F	 0.0466560488	-0.0797945489	 2.3170457293	-0.081136
H	 0.838377432	 1.9749654963	-0.460145932	 0.123733
H	-0.9272008466	 1.9193559447	-0.5250612743	 0.134825
H	-0.092835272	 1.9023098158	 1.0366077073	 0.150736
H	 0.2034625317	 0.9186111934	-2.4572057775	 0.256258
H	 0.1491230467	-0.5683272085	-3.24635328	 0.254992
H	-0.0068360399	-2.6887525934	-2.0669594966	 0.085332
H	 0.0627832258	-3.7946026982	 0.1519639388	 0.110771
130.3225	158.4334	237.7874	278.145	300.1269	342.2281	390.3606	491.3902	508.153	530.3819	534.2101	554.4653	669.5286	705.1673	779.2981	833.4936	843.7552	944.5952	972.7144	1053.8498	1060.3844	1122.9385	1157.4344	1228.9149	1311.8558	1343.3049	1366.55	1414.1762	1464.0085	1494.8981	1501.2637	1518.7027	1619.1122	1642.3949	1663.7713	3010.1434	3059.0906	3151.3563	3160.5541	3186.3989	3588.7622	3693.7891
CC1=C(N)C=CN=C1F	Cc1c(N)ccnc1F	
InChI=1S/C6H7FN2/c1-4-5(8)2-3-9-6(4)7/h2-3H,1H3,(H2,8,9)	InChI=1S/C6H7FN2/c1-4-5(8)2-3-9-6(4)7/h2-3H,1H3,(H2,8,9)
