18
gdb 28498	3.06128	1.32869	0.93732	3.4745	83.39	-0.2198	-0.0145	0.2054	1243.1472	0.147526	-402.024164	-402.015231	-402.014287	-402.058033	32.956	
C	-0.075432317	 1.5195110385	-0.007729393	-0.466612
C	 0.0083252335	 0.0145658713	 0.0097859145	 0.317954
N	 0.1216879659	-0.5962220434	-1.1788119629	-0.325695
C	 0.1981365692	-1.9226832725	-1.2026542234	-0.062493
C	 0.1671736797	-2.7203085581	-0.0578205355	 0.253166
O	 0.2545780099	-4.0712544085	-0.225904558	-0.437308
C	 0.0494497866	-2.1040863546	 1.191862972	 0.196777
C	 0.0113941727	-2.9193688435	 2.4585392583	-0.536246
C	-0.0296379353	-0.7119096443	 1.1995136306	-0.233568
H	 0.814623634	 1.9490107977	-0.4790467311	 0.135838
H	-0.9377844905	 1.8501256673	-0.5958167472	 0.135841
H	-0.165856873	 1.9311029092	 1.000837795	 0.111942
H	 0.2897585419	-2.4048046869	-2.1731605537	 0.111071
H	 0.2221259678	-4.5053048441	 0.632084007	 0.298271
H	 0.9246350452	-3.5152075411	 2.5876772785	 0.136605
H	-0.083153032	-2.275455404	 3.3354927328	 0.139742
H	-0.8383474971	-3.6147115249	 2.4706667764	 0.136605
H	-0.1220012515	-0.1904466483	 2.1476132495	 0.088108
51.1763	130.3248	150.0351	195.5534	275.0643	293.5639	314.467	369.6825	444.6254	457.8905	511.8846	567.3802	598.1758	745.6234	762.8522	788.4	891.3233	944.8319	949.5781	998.9986	1027.8822	1057.6042	1060.2973	1153.0836	1190.0812	1262.8013	1303.5672	1327.6876	1337.5086	1405.6131	1411.0155	1429.7471	1476.3806	1487.5065	1490.8204	1503.7366	1525.3926	1610.8121	1652.2666	3011.0809	3037.6827	3057.8613	3096.4366	3119.477	3121.1316	3156.0856	3168.8437	3832.6816
CC1=NC=C(O)C(C)=C1	Cc1ncc(O)c(C)c1	
InChI=1S/C7H9NO/c1-5-3-6(2)8-4-7(5)9/h3-4,9H,1-2H3	InChI=1S/C7H9NO/c1-5-3-6(2)8-4-7(5)9/h3-4,9H,1-2H3
