23
gdb 123019	4.44299	0.59877	0.56684	1.7979	83.67	-0.227	0.0751	0.3021	2055.1128	0.203575	-425.399997	-425.389374	-425.38843	-425.436764	38.384	
C	-0.0053393244	 1.4706877915	 0.2164670055	-0.379957
C	-0.1806430705	-0.0331667668	 0.4436023024	-0.166107
C	 0.9975568263	-0.6629364997	 1.1940425546	-0.181545
C	 0.8218423046	-2.1577794858	 1.4145971651	-0.071533
O	 1.972656933	-2.6540562191	 2.0989061826	-0.267813
C	 1.9073435472	-4.0315354194	 2.3349549042	 0.077634
C	 2.8392694039	-4.5523569289	 3.3974679783	-0.36411
C	 1.3559352981	-4.4334081324	 3.6808270722	 0.12143
O	 0.8854860106	-3.4240773561	 4.5210768754	-0.433075
H	 0.896732099	 1.6797121674	-0.3689926478	 0.116317
H	-0.8583558138	 1.8939917092	-0.3226307476	 0.113406
H	 0.0871593395	 2.0063359235	 1.1676133996	 0.116481
H	-1.108011538	-0.2131599112	 1.0030272118	 0.099679
H	-0.3075962479	-0.5368298476	-0.523834113	 0.097828
H	 1.9294998826	-0.4983059553	 0.6395355034	 0.107151
H	 1.1251229537	-0.172609237	 2.1676706805	 0.100088
H	-0.0845763769	-2.3670717067	 2.0018454602	 0.104686
H	 0.7163713573	-2.6790487195	 0.4495615578	 0.093369
H	 1.710513779	-4.6344291325	 1.4484981692	 0.08599
H	 3.2822339596	-5.5327326884	 3.2594135375	 0.114749
H	 3.4839006392	-3.8198707089	 3.8724009813	 0.124646
H	 0.7621731877	-5.3361634235	 3.7776518227	 0.103029
H	 1.2261181702	-2.595861963	 4.1569095041	 0.287659
45.896	64.8125	99.9249	116.8069	141.57	223.4483	246.7927	258.9071	303.2478	382.4401	430.6542	446.2721	507.6955	662.2243	745.3165	771.4018	790.4793	816.313	866.6534	913.8059	955.4192	984.7533	1026.8079	1038.731	1066.9451	1077.1525	1084.1507	1110.9125	1124.6713	1142.3071	1179.6853	1195.0114	1225.2466	1252.2808	1296.2331	1313.1194	1326.602	1330.7021	1360.6517	1392.0119	1414.1542	1428.9188	1439.1632	1481.7948	1488.3114	1496.3117	1499.8356	1510.5179	1526.8629	2974.2035	3012.9084	3015.0926	3027.1141	3032.3965	3041.0523	3072.8427	3098.9491	3099.1791	3104.3541	3130.6681	3168.6047	3222.6099	3755.2333
CCCCOC1CC1O	CCCCO[C@H]1C[C@H]1O	
InChI=1S/C7H14O2/c1-2-3-4-9-7-5-6(7)8/h6-8H,2-5H2,1H3	InChI=1S/C7H14O2/c1-2-3-4-9-7-5-6(7)8/h6-8H,2-5H2,1H3/t6-,7+/m1/s1
