17
gdb 45831	2.67075	1.58898	1.08552	3.5834	88.03	-0.2255	-0.0695	0.156	1093.4745	0.138	-384.722576	-384.715099	-384.714155	-384.754541	29.15	
O	-0.3856288481	 0.0994336217	 0.7335137467	-0.333444
C	-0.1682229963	 1.2033326825	 0.2723502634	 0.356861
C	-1.2396641588	 1.9658941493	-0.5096531323	-0.363305
C	-1.8006674745	 3.0157167106	 0.3984494038	-0.065769
C	-1.3380013215	 4.274237867	 0.4859705118	-0.073565
C	-0.20817575	 4.8178920912	-0.2318479503	-0.084587
C	 1.005186408	 4.26100307	-0.4769229567	-0.106959
C	 1.6188928972	 3.0407028781	 0.0097876257	-0.049333
C	 1.1542551853	 1.8357298088	 0.4163074682	-0.166959
H	-0.7967157575	 2.4266458261	-1.3979911643	 0.122017
H	-2.0053742032	 1.2459794928	-0.8042278228	 0.124063
H	-2.6423677529	 2.721106583	 1.0195079616	 0.113334
H	-1.8876998014	 4.981881395	 1.1039755851	 0.103046
H	-0.3213306135	 5.8528116027	-0.5520488694	 0.105497
H	 1.7099164997	 4.9044738604	-0.9999872902	 0.100656
H	 2.7022400386	 3.1440451648	 0.0796511014	 0.108374
H	 1.8840576488	 1.1362613861	 0.8165657781	 0.110074
88.1438	190.6326	262.8377	268.4277	286.4301	398.206	486.4863	502.7868	566.3882	670.3445	683.3757	734.2101	775.2339	824.3791	855.0203	889.6181	923.9861	966.777	1000.8821	1013.5417	1017.8834	1035.4588	1062.9516	1141.3997	1233.7725	1258.0526	1274.6654	1292.7227	1308.1611	1411.4501	1438.3969	1473.8203	1481.1362	1605.6815	1665.1395	1681.1949	1758.3708	3052.834	3112.4678	3122.7657	3126.6839	3140.6719	3152.0642	3166.0078	3173.4091
O=C1CC=CC=CC=C1	O=C1CC=CC=CC=C1	
InChI=1S/C8H8O/c9-8-6-4-2-1-3-5-7-8/h1-6H,7H2/b2-1-,5-3-,6-4-	InChI=1S/C8H8O/c9-8-6-4-2-1-3-5-7-8/h1-6H,7H2/b2-1-,5-3-,6-4-
