21
gdb 122536	5.10892	0.57699	0.55637	2.3062	77.29	-0.2579	0.0757	0.3337	2042.3504	0.179741	-461.324341	-461.31374	-461.312796	-461.361623	36.692	
C	-0.2483866275	 1.5156522993	 0.4046159141	-0.38506
C	 0.0056164421	 0.0557515851	 0.0709122722	-0.027176
O	 0.7258893386	-0.5304668093	 1.1374443053	-0.246098
C	 1.0286859768	-1.8899490704	 0.9238301042	-0.086423
C	 1.8010438791	-2.381201619	 2.1214146505	 0.050015
O	 1.0706284388	-2.9739030793	 3.1996658481	-0.264161
C	 1.9939370295	-3.7972231058	 2.4677272837	 0.026244
C	 1.3821212018	-4.9636855454	 1.7303714755	-0.085286
O	 0.9967697752	-5.9840019858	 2.6356291949	-0.417586
H	 0.6970842708	 2.0480816641	 0.5410300392	 0.127228
H	-0.806987172	 1.9991724684	-0.4022632466	 0.115663
H	-0.8265438983	 1.6017476795	 1.3287842821	 0.130915
H	-0.9472069175	-0.4785946721	-0.0824446858	 0.088471
H	 0.5788056889	-0.0348619322	-0.8679085551	 0.085106
H	 0.1104802704	-2.4808640642	 0.7916705327	 0.097426
H	 1.6408588259	-2.0110425358	 0.0118243027	 0.089757
H	 2.5704240317	-1.6778767752	 2.4434757882	 0.101793
H	 2.8886408731	-4.0589869758	 3.035722584	 0.098995
H	 0.5338970832	-4.6298705182	 1.1170720768	 0.092233
H	 2.1251261571	-5.4120594533	 1.061499243	 0.113968
H	 0.3862172123	-5.5814853847	 3.2638399901	 0.293976
39.177	66.9664	82.1719	95.0619	131.5764	177.5875	245.7565	252.4464	314.2112	394.6139	421.9571	473.3767	487.6776	586.6018	787.1076	823.0285	850.0134	904.5611	910.3876	992.5834	1039.7347	1069.4227	1070.2582	1085.2131	1140.3462	1154.991	1161.969	1176.782	1191.5354	1233.1796	1268.3541	1297.5435	1301.3902	1345.8856	1368.6161	1396.3539	1407.5311	1427.2347	1445.2512	1483.7465	1491.0156	1495.8616	1500.8559	1505.9374	1534.1191	2942.6598	2955.2993	2978.207	3002.9789	3017.9467	3046.346	3071.4891	3096.4484	3110.3796	3120.9093	3123.8795	3800.6525
CCOCC1OC1CO	CCOC[C@H]1O[C@H]1CO	
InChI=1S/C6H12O3/c1-2-8-4-6-5(3-7)9-6/h5-7H,2-4H2,1H3	InChI=1S/C6H12O3/c1-2-8-4-6-5(3-7)9-6/h5-7H,2-4H2,1H3/t5-,6+/m0/s1
