14
gdb 34775	2.16971	1.91844	1.23233	4.6734	71.09	-0.2625	0.0027	0.2652	991.7636	0.099739	-399.470085	-399.462321	-399.461377	-399.502566	28.895	
C	-0.1839606038	-1.2270773316	-0.202808731	-0.400252
C	-0.0626000874	-0.0417411713	-0.0524146597	 0.327504
C	 0.0550934562	 1.3947403174	 0.0819289364	-0.082032
O	-0.1154582636	 1.9191172128	 1.4448599237	-0.275839
C	 1.0702573798	 2.6848192481	 1.3097078007	 0.087258
C	 2.2909116396	 1.8029228254	 1.1853995288	-0.210957
C	 2.4178470407	 0.5297512601	 1.8426693237	 0.311166
N	 2.5640422153	-0.4745864832	 2.3960962005	-0.336589
C	 1.4160330487	 2.0945584578	-0.0303647108	-0.160731
H	-0.2671886772	-2.2806529833	-0.3120776126	 0.213232
H	-0.6734686192	 1.8976204728	-0.5650720672	 0.128561
H	 1.0861380354	 3.6903976933	 1.7118502086	 0.129154
H	 3.2204790397	 2.3656591271	 1.1491689033	 0.1434
H	 1.8259581857	 2.5259309147	-0.9325607746	 0.126126
96.5061	118.5797	162.5613	210.0087	328.1861	382.1785	491.021	526.9954	588.7067	639.6922	641.8232	694.103	753.8517	798.4719	809.3292	896.5063	944.88	968.9364	997.0597	1034.7044	1040.7183	1059.2509	1109.0484	1170.0977	1237.4019	1271.3984	1327.4148	1360.7021	1415.679	2243.5024	2360.1885	3037.3174	3150.7685	3194.1497	3217.6282	3500.8254
C#CC1OC2C(C#N)C12	C#C[C@H]1O[C@H]2[C@@H](C#N)[C@@H]12	
InChI=1S/C7H5NO/c1-2-5-6-4(3-8)7(6)9-5/h1,4-7H	InChI=1S/C7H5NO/c1-2-5-6-4(3-8)7(6)9-5/h1,4-7H/t4-,5+,6-,7-/m0/s1
