21
gdb 108703	3.02759	1.19663	0.92917	1.9232	86.68	-0.2264	0.0112	0.2376	1320.0108	0.183233	-387.066524	-387.057871	-387.056927	-387.100226	32.8	
C	-0.3449854087	 1.503942953	 0.022898521	-0.370914
C	 0.1857837077	 0.0583229332	 0.0271179944	-0.290718
C	 0.8690819246	-0.3193684108	-1.2503707482	 0.202103
C	 2.1418603053	-0.645885851	-1.4633352407	 0.074211
C	 3.2949812465	-1.4593105609	-0.9289187941	-0.156228
O	 3.2463893367	-2.2551979592	-2.1539270224	-0.307381
C	 2.4017926101	-1.2396220982	-2.8062425668	 0.1209
C	 0.9959005247	-1.5590506239	-3.3380676919	-0.252074
C	 0.1143271726	-0.5144413284	-2.5751576943	-0.29563
H	 0.4726585565	 2.2184112983	-0.1133474145	 0.122193
H	-1.0635709834	 1.6600353585	-0.7881517018	 0.120673
H	-0.8487406833	 1.7365198626	 0.9660167629	 0.114435
H	 0.8776812411	-0.0733242	 0.8666592802	 0.100876
H	-0.6582552272	-0.6244249073	 0.2004024635	 0.103245
H	 4.258807643	-0.9403636896	-0.8386560107	 0.103496
H	 3.1155872484	-2.0549787725	-0.0268833101	 0.113913
H	 3.0151930062	-0.6684052772	-3.5168066312	 0.073296
H	 0.8980778575	-1.5006667926	-4.4258037884	 0.0937
H	 0.7226517341	-2.5701968582	-3.019927694	 0.117213
H	-0.9042256979	-0.8796256425	-2.3998960868	 0.103887
H	 0.0131829357	 0.4164378867	-3.1491640162	 0.108804
59.0211	116.9269	160.8404	205.4128	241.5094	270.6771	318.4945	405.9114	516.8396	603.5326	618.5065	685.2824	769.3552	792.1271	854.898	900.7574	918.5626	927.5956	961.6136	965.9176	989.033	1029.1178	1056.8809	1077.0528	1120.6585	1128.0703	1144.6887	1163.596	1194.4648	1242.2277	1265.7664	1284.7742	1295.2629	1326.9772	1335.5346	1352.0685	1357.8146	1406.5511	1475.6136	1479.9925	1493.6008	1498.1538	1507.1118	1512.1969	1770.3255	3000.8127	3004.7282	3009.0077	3015.998	3036.6348	3051.056	3059.1012	3061.812	3063.8605	3106.3309	3107.7775	3111.3543
CCC1=C2COC2CC1	CC[C]1[C]2CO[C@H]2CC1	
InChI=1S/C8H12O/c1-2-6-3-4-8-7(6)5-9-8/h8H,2-5H2,1H3	InChI=1S/C8H12O/c1-2-6-3-4-8-7(6)5-9-8/h8H,2-5H2,1H3/t8-/m0/s1
