18
gdb 97211	2.50575	1.58209	1.07425	1.2769	75.73	-0.244	0.0223	0.2662	1145.4537	0.147201	-439.07944	-439.070823	-439.069879	-439.113207	31.337	
C	 0.0707421039	 1.4296401327	-0.0335021185	-0.335524
N	 0.194395584	-0.0177204419	-0.0717259271	-0.338054
C	 0.6004735349	-0.6416070624	 0.9398611558	 0.382781
O	 0.9946672228	-0.1010965638	 2.140716434	-0.260225
C	 1.219398493	-1.1835797801	 3.042526013	 0.006773
O	 1.4703609905	-2.3235256149	 2.2624095065	-0.277271
C	 0.7466510013	-2.1190065375	 1.0699868744	 0.313084
C	-0.3605348016	-3.0626019118	 0.6611688452	-0.318616
C	 0.9564018601	-3.033804683	-0.0858189922	-0.319107
H	 0.8087751068	 1.8741734668	-0.7116655925	 0.12802
H	-0.9174707637	 1.7128533895	-0.4117080806	 0.124853
H	 0.2075743321	 1.8657812545	 0.9626451272	 0.123344
H	 2.0963263247	-0.9644313471	 3.6565802184	 0.130187
H	 0.3244409966	-1.3104136111	 3.6726713946	 0.104669
H	-0.5444283533	-3.9049195218	 1.3184206072	 0.126058
H	-1.2323867139	-2.6277716731	 0.1861547043	 0.135569
H	 0.9821466718	-2.5718975458	-1.066145147	 0.143483
H	 1.6403704902	-3.8604673692	 0.0694108673	 0.129978
72.0127	97.5021	152.5426	178.9585	202.546	281.4098	294.609	442.4738	500.5962	544.7433	705.7755	733.6791	751.0652	771.7833	869.0022	914.7825	949.9127	977.0213	1017.9215	1046.6385	1060.6957	1074.9403	1083.7036	1128.892	1136.5437	1173.1187	1174.7498	1197.8488	1230.6484	1295.1315	1374.7355	1437.506	1439.6518	1442.4681	1487.2644	1494.4585	1498.306	1543.0065	1822.5424	2975.8127	3016.7613	3077.0991	3088.682	3100.6483	3139.1472	3140.8466	3230.1046	3243.2999
CN=C1OCOC11CC1	CN=C1OCOC21CC2	
InChI=1S/C6H9NO2/c1-7-5-6(2-3-6)9-4-8-5/h2-4H2,1H3	InChI=1S/C6H9NO2/c1-7-5-6(2-3-6)9-4-8-5/h2-4H2,1H3
