19
gdb 17434	2.64884	2.57278	1.82103	1.9533	74.04	-0.2309	0.0806	0.3116	835.0913	0.165715	-327.867142	-327.859731	-327.858787	-327.898234	29.323	
C	 0.0244016178	 1.5983357402	 0.0185035052	-0.43164
C	 0.0866417385	 0.0758273956	 0.0480283776	-0.007077
C	 1.0842568372	-0.7044284246	-0.807882282	-0.052162
C	 1.2190234694	-1.7700591313	 0.2084372991	-0.103536
N	 2.3863829256	-0.8861168322	-0.0652449962	-0.151727
C	 2.1669988714	-0.2232457116	 1.2610771311	-0.186051
C	 0.7032861673	-0.70182047	 1.2621521514	 0.278665
C	-0.0849733159	-0.9330172777	 2.5237421166	-0.514602
H	 1.0087902117	 2.0595906205	 0.1331762204	 0.123032
H	-0.3881429952	 1.9451253282	-0.9353595504	 0.118213
H	-0.6247013214	 1.982111776	 0.8139501599	 0.114742
H	-0.9117157051	-0.3382541868	-0.1394599002	 0.07357
H	 1.1460972883	-0.7760576429	-1.8864254763	 0.091359
H	 1.2399563056	-2.8511381352	 0.1593122305	 0.09217
H	 2.7773833329	-0.7452430135	 2.0041826666	 0.102432
H	 2.383056201	 0.8503885213	 1.3025370796	 0.092437
H	-0.2914395511	 0.015175978	 3.0345722758	 0.121904
H	-1.0477126105	-1.4115026959	 2.3132848551	 0.118985
H	 0.4614137724	-1.5735393081	 3.2249620161	 0.119287
156.7472	189.92	205.8713	267.5616	296.3053	319.5221	488.3303	565.9636	609.968	680.9576	760.6646	782.0188	799.8075	842.2971	885.6349	918.0951	957.0904	975.2215	1008.181	1013.2105	1058.3374	1086.5071	1113.9668	1145.8015	1149.5517	1174.6191	1189.5599	1212.8085	1249.4608	1269.4254	1326.7001	1349.2141	1394.2023	1408.0543	1416.2273	1488.3288	1492.7344	1493.6571	1495.3161	1517.5973	3021.9196	3029.1037	3031.895	3037.5496	3085.0172	3088.9062	3090.7334	3092.0624	3114.1159	3189.6187	3203.9291
CC1C2C3N2CC13C	C[C@H]1[C@@H]2[C@H]3N2C[C@@]13C	
InChI=1S/C7H11N/c1-4-5-6-7(4,2)3-8(5)6/h4-6H,3H2,1-2H3	InChI=1S/C7H11N/c1-4-5-6-7(4,2)3-8(5)6/h4-6H,3H2,1-2H3/t4-,5+,6+,7-,8?/m0/s1
