20
gdb 117650	2.71907	0.99209	0.95894	2.8672	72.31	-0.2391	0.0354	0.2745	1368.3047	0.168009	-477.451532	-477.440708	-477.439764	-477.487633	38.889	
C	-0.0804724835	 1.300854512	 0.3608415364	-0.232224
O	-0.0404066376	-0.0948558977	 0.1614821377	-0.25835
C	-1.3109145682	-0.6632707023	-0.1006218571	-0.090679
C	-1.1044018333	-2.1852380094	-0.1730676622	 0.253754
C	-0.2947317312	-2.583410072	-1.4145194682	-0.419324
O	-0.446543913	-2.6125981287	 1.0184975093	-0.491634
C	-2.499269809	-2.8330527898	-0.2410638171	 0.370771
N	-2.8099667093	-3.6208626107	 0.8143738522	-0.524424
O	-3.2412546287	-2.616391081	-1.1834433897	-0.392205
H	 0.9400345573	 1.6303469189	 0.5693660992	 0.131392
H	-0.4496025865	 1.8245256753	-0.5331269998	 0.116169
H	-0.7258958504	 1.5700245093	 1.2106769023	 0.1116
H	-2.0087386926	-0.4193336025	 0.7162879527	 0.095635
H	-1.7361059591	-0.2904825194	-1.0412287348	 0.120181
H	 0.6316413364	-2.0051170963	-1.4562933796	 0.121633
H	-0.0448818868	-3.6464454028	-1.3655238601	 0.121787
H	-0.8797258195	-2.398346641	-2.3180268284	 0.139347
H	 0.2022960841	-1.9256219903	 1.2188249084	 0.290141
H	-2.1440876538	-3.7403001753	 1.5586691272	 0.276925
H	-3.7060893155	-4.0771906261	 0.8357012114	 0.259506
44.6627	86.5283	118.3111	135.2948	226.882	236.3388	254.5055	292.5555	296.7895	331.4548	358.1718	388.5448	426.6602	462.5256	534.299	604.5449	642.3665	763.1869	774.9663	893.24	945.6109	985.7999	998.8091	1094.9074	1131.7581	1151.5967	1163.5507	1192.7218	1208.5341	1230.1592	1278.5968	1320.3499	1380.6619	1406.6996	1425.9115	1479.3143	1485.8637	1493.8179	1495.4683	1501.7389	1522.4818	1590.0022	1789.6134	2976.8423	2986.1213	3033.4467	3049.1486	3051.9869	3119.0711	3128.6663	3140.5808	3602.164	3744.9504	3768.53
COCC(C)(O)C(N)=O	COC[C@@](C)(O)C(=O)N	
InChI=1S/C5H11NO3/c1-5(8,3-9-2)4(6)7/h8H,3H2,1-2H3,(H2,6,7)	InChI=1S/C5H11NO3/c1-5(8,3-9-2)4(6)7/h8H,3H2,1-2H3,(H2,6,7)/t5-/m1/s1
