18
gdb 98514	2.28915	1.4725	0.96809	1.5789	75.67	-0.2473	-0.0344	0.2129	1225.5586	0.146576	-439.126225	-439.116854	-439.11591	-439.161016	33.444	
C	-0.061752979	 1.4908008837	-0.1728675296	-0.33802
N	-0.149648014	 0.0501791315	-0.3047541927	-0.343064
C	-1.1432953169	-0.6672333565	 0.2644948024	 0.370318
O	-2.0489294969	-0.1866445095	 0.9333815541	-0.407998
C	-1.0900462993	-2.1662907468	 0.0306077837	 0.111131
C	-1.653146778	-3.0169891341	 1.1863250906	-0.281456
C	-2.467335406	-2.8558797494	-0.0316581322	-0.281463
C	-0.0356748155	-2.8297430571	-0.7619019846	 0.116611
O	 0.9023161153	-2.2986922804	-1.3185863618	-0.303611
H	 0.8728430178	 1.7856492238	 0.3172085174	 0.126941
H	-0.1086994994	 1.9800240694	-1.1521721823	 0.12694
H	-0.9039500899	 1.8240738981	 0.4337891868	 0.16715
H	 0.5441032852	-0.4624430389	-0.8362332088	 0.271563
H	-1.1670046351	-3.9670858009	 1.3788372153	 0.126437
H	-1.9263781559	-2.4328733445	 2.0561271199	 0.161681
H	-3.2973797741	-2.1615604927	 0.0051999616	 0.161681
H	-2.5685066095	-3.6897793068	-0.7175552344	 0.126436
H	-0.1613855588	-3.9336448889	-0.8239157656	 0.088723
65.3179	67.5852	138.9504	150.5583	200.4666	283.7216	298.0037	328.7259	364.4419	403.5774	495.4367	632.669	688.2141	755.3766	789.5554	820.5991	838.4865	934.2643	967.2284	976.2425	1048.9658	1071.5602	1082.0371	1105.1914	1153.2279	1179.8246	1210.2146	1247.9772	1293.7665	1345.0297	1437.5838	1442.6929	1443.7516	1475.8503	1500.0434	1500.6061	1599.852	1751.7162	1791.8504	2883.1368	3029.2345	3079.8529	3143.029	3143.3099	3157.0482	3238.6879	3251.151	3532.9114
CNC(=O)C1(CC1)C=O	CNC(=O)C1(CC1)C=O	
InChI=1S/C6H9NO2/c1-7-5(9)6(4-8)2-3-6/h4H,2-3H2,1H3,(H,7,9)	InChI=1S/C6H9NO2/c1-7-5(9)6(4-8)2-3-6/h4H,2-3H2,1H3,(H,7,9)
