20
gdb 74930	3.00115	1.72719	1.47964	1.6482	83.59	-0.2112	0.0161	0.2273	983.9538	0.173642	-365.969555	-365.962527	-365.961583	-366.000532	29.574	
C	-0.0067117083	 1.4759856702	 0.0422168301	-0.502986
C	 0.0353038706	-0.0196149598	-0.0124545096	 0.340129
C	-0.0490752093	-0.77680227	-1.1123806361	-0.181764
C	 0.0941085477	-2.2572105078	-0.8830442952	-0.046574
C	 1.5024975213	-2.472004645	-0.2465413775	-0.230159
C	 0.7777006581	-2.2200774533	 1.0702451527	 0.015392
C	 0.0477680787	-0.8304563416	 1.2649689609	-0.152401
C	-1.252681107	-1.692899853	 1.1968029947	-0.156857
N	-0.5152076657	-2.7510460532	 0.4550903765	-0.145679
H	 0.9056620795	 1.8815437787	 0.4982988555	 0.12571
H	-0.1097876253	 1.9105449013	-0.9560822118	 0.12247
H	-0.843778226	 1.830594742	 0.6579747297	 0.124916
H	-0.1413002254	-0.3759205647	-2.1168525677	 0.082026
H	-0.1999345582	-2.8748809615	-1.7320540502	 0.070389
H	 1.8160550238	-3.5178036814	-0.2949769129	 0.109582
H	 2.3064753766	-1.8093328717	-0.5697636925	 0.096922
H	 1.1276431698	-2.6845194178	 1.9967623975	 0.068686
H	 0.2644392505	-0.2469452664	 2.1628170066	 0.057095
H	-1.5392290493	-2.1125382807	 2.1670976718	 0.103261
H	-2.1258730922	-1.2558274841	 0.7044929673	 0.099839
150.6196	195.0597	302.3303	348.977	393.0355	444.0747	485.921	583.0716	640.8319	716.4204	741.5851	795.9387	805.7428	817.8216	843.2564	888.1863	942.2625	956.5768	980.3346	1006.4578	1023.5127	1034.8422	1058.0192	1070.3383	1091.447	1099.3901	1171.5267	1193.4587	1197.3825	1207.0737	1230.5477	1247.1941	1278.829	1298.0079	1300.6946	1332.565	1368.9656	1411.9182	1471.0511	1477.7222	1488.0618	1489.2029	1707.3126	3012.1525	3038.0446	3057.602	3057.6636	3069.987	3081.3257	3099.7693	3102.9779	3106.9711	3131.8542	3173.901
CC1=CC2CC3C1CN23	CC1=C[C@H]2C[C@H]3[C@@H]1CN23	
InChI=1S/C8H11N/c1-5-2-6-3-8-7(5)4-9(6)8/h2,6-8H,3-4H2,1H3	InChI=1S/C8H11N/c1-5-2-6-3-8-7(5)4-9(6)8/h2,6-8H,3-4H2,1H3/t6-,7+,8-/m0/s1
