16
gdb 6061	5.04658	1.03153	0.86589	7.5841	64.74	-0.2456	0.0078	0.2533	1267.5424	0.129229	-417.111816	-417.102874	-417.10193	-417.14601	31.396	
C	-0.001004571	 1.4936590591	 0.0348227937	-0.466064
C	 0.0347355282	-0.0114808556	-0.0146908851	 0.387171
N	 1.2874471074	-0.5618733988	-0.0959872824	-0.53697
N	-1.0572324547	-0.6771032717	 0.0544248094	-0.300964
H	-2.8826596113	-0.8863603055	 0.210952393	 0.304623
C	-1.0263510212	-2.1251956618	 0.0157593315	-0.324603
C	-2.4554601561	-2.6832357011	 0.1164956047	 0.41576
O	-3.3875857593	-1.7321846274	 0.2269429486	-0.360784
O	-2.6989620435	-3.8598824424	 0.0973103218	-0.34473
H	 0.6027251485	 1.8681274596	 0.8683397478	 0.142483
H	 0.4052278965	 1.9227337963	-0.8881724934	 0.136778
H	-1.0297797409	 1.8280796737	 0.1584775842	 0.153108
H	 2.0669905401	 0.0272830346	-0.3337326244	 0.262757
H	 1.3911838836	-1.5380797947	-0.3162605169	 0.267889
H	-0.5941799781	-2.5234915285	-0.9157037231	 0.127879
H	-0.4486406182	-2.5625193355	 0.8437948006	 0.135668
61.3427	77.5613	130.4082	142.778	246.8715	294.0892	304.9861	370.1402	460.4729	494.1832	571.2194	603.3935	637.3316	641.674	832.2628	873.8073	914.1497	997.1981	999.1554	1045.3948	1062.5379	1176.2665	1222.5618	1232.8661	1338.0339	1364.7418	1415.3966	1451.5254	1456.3252	1478.8418	1483.155	1649.5417	1743.4617	1875.7278	2980.5558	3018.2872	3040.0462	3096.9789	3167.7232	3435.4911	3610.9635	3725.5187
CC(N)=[NH+]CC([O-])=O	CC(=NCC(=O)O)N	
InChI=1S/C4H8N2O2/c1-3(5)6-2-4(7)8/h2H2,1H3,(H2,5,6)(H,7,8)	InChI=1S/C4H8N2O2/c1-3(5)6-2-4(7)8/h2H2,1H3,(H2,5,6)(H,7,8)
