21
gdb 97922	3.63323	0.65207	0.63253	1.3287	88.33	-0.2421	0.0363	0.2784	1872.9366	0.179992	-387.044323	-387.033674	-387.03273	-387.082212	37.894	
C	 0.2604781712	 1.5577851831	 0.3070236406	-0.458813
C	-0.0053580301	 0.0852330696	 0.0685544502	 0.391501
C	-1.4662472625	-0.263204697	-0.2209989736	-0.435367
C	-1.9871351692	 0.3427868877	-1.4442063721	 0.078703
C	-2.400045849	 0.8424349643	-2.4589043041	 0.099175
C	-2.9177894922	 1.4593348936	-3.6728997751	-0.2155
O	-2.6473315478	 0.6219398539	-4.792274887	-0.409565
C	 1.0520295204	-0.7360168343	-0.6235096946	-0.286401
C	 0.7923628854	-0.926605406	 0.8542908296	-0.317556
H	 1.3224949123	 1.7403229494	 0.4969009341	 0.110901
H	-0.0359294821	 2.1539709463	-0.5623411242	 0.127769
H	-0.3018519655	 1.9264256263	 1.1736804862	 0.110629
H	-1.5733314037	-1.3532532086	-0.289156311	 0.125172
H	-2.0893322793	 0.0478269609	 0.6297064708	 0.124208
H	-4.0011572645	 1.6287965233	-3.5575567137	 0.1137
H	-2.4544224564	 2.4517254222	-3.7996402236	 0.11324
H	-3.0042052982	 1.0621517308	-5.5705051826	 0.287854
H	 0.7311575552	-1.5173100916	-1.3043800923	 0.115574
H	 1.969398183	-0.2400712726	-0.9221967112	 0.109018
H	 1.5321947184	-0.5568301062	 1.5565314334	 0.108653
H	 0.3001342448	-1.8401138251	 1.1724831102	 0.107106
12.1398	48.9577	84.3071	139.6537	218.5749	226.7616	254.4636	306.0032	323.8269	352.6966	353.081	391.2282	477.8611	568.0401	724.4441	770.699	786.2756	871.8815	898.6968	933.1649	955.6091	977.2991	1028.2416	1043.7533	1045.0903	1070.3785	1079.1575	1123.6062	1148.5273	1186.1519	1210.1883	1247.3787	1257.0531	1307.9845	1333.0911	1373.9208	1419.1296	1458.7712	1461.1946	1470.9362	1490.8538	1500.6261	1503.8375	1512.3448	2369.2143	2958.9749	2975.8174	3004.9194	3023.6508	3042.9809	3086.2665	3104.8709	3124.6342	3131.4872	3202.6049	3217.7724	3816.1235	12.1405	48.9568	84.3069	139.6536	218.5745	226.7613	254.4635	306.0032	323.827	352.6967	353.0811	391.2284	477.8614	568.0403	724.4441	770.6991	786.2755	871.8814	898.6969	933.1649	955.6091	977.2991	1028.2416	1043.7534	1045.0903	1070.3785	1079.1575	1123.6063	1148.5274	1186.1521	1210.1886	1247.3784	1257.053	1307.9848	1333.0911	1373.921	1419.1296	1458.7712	1461.1947	1470.9365	1490.854	1500.6262	1503.8371	1512.3449	2369.2145	2958.9748	2975.8174	3004.9193	3023.6507	3042.9809	3086.2665	3104.8709	3124.6342	3131.4871	3202.6049	3217.7724	3816.1233
CC1(CC#CCO)CC1	CC1(CC#CCO)CC1	
InChI=1S/C8H12O/c1-8(5-6-8)4-2-3-7-9/h9H,4-7H2,1H3	InChI=1S/C8H12O/c1-8(5-6-8)4-2-3-7-9/h9H,4-7H2,1H3
