15
gdb 29646	2.42578	1.69378	1.00641	3.5753	65.66	-0.175	0.0411	0.2161	1105.4664	0.111241	-491.089744	-491.080556	-491.079612	-491.124131	32.537	
C	 0.1312851135	 1.4399068124	 0.0122902914	-0.331606
N	-0.0158690793	 0.0019274269	 0.0015559465	-0.143572
C	 0.017581241	-0.7661279831	-1.1456687387	 0.466799
N	 0.1212205535	-0.316658012	-2.3285718485	-0.612565
O	-0.07503462	-2.0840843205	-0.7513303942	-0.242663
C	-0.100198845	-2.1079836221	 0.6484075536	 0.165105
O	-0.3034472202	-3.2814849728	 1.27869715	-0.423878
C	-0.0655339893	-0.8516165134	 1.102988358	 0.266938
O	-0.0955922504	-0.3171528215	 2.3420437669	-0.437019
H	 1.1773466577	 1.7416161258	-0.1186898869	 0.135825
H	-0.4516790409	 1.8572168648	-0.8109749775	 0.161936
H	-0.2376602486	 1.82548942	 0.9636020399	 0.146218
H	 0.103326564	-1.0750681326	-3.0045338248	 0.222857
H	 0.4792965035	-3.8414356542	 1.1866538868	 0.309381
H	-0.2734018696	-1.0283220077	 2.9681075774	 0.316244
48.9657	90.1048	156.8822	219.0244	259.0631	269.4409	277.8552	326.848	341.8052	394.9929	572.557	595.4883	644.4538	654.7286	711.1528	733.8917	736.7248	935.9476	1025.8714	1041.237	1139.649	1158.0881	1214.2106	1269.4272	1284.1981	1335.3914	1419.8103	1440.3051	1485.9974	1505.5415	1539.9855	1762.0405	1847.4391	3031.5927	3109.4244	3155.6549	3545.462	3726.7958	3821.295
CN1C(=N)OC(O)=C1O	CN1[C@@H]([NH])OC(=C1O)O	
InChI=1S/C4H6N2O3/c1-6-2(7)3(8)9-4(6)5/h5,7-8H,1H3	InChI=1S/C4H7N2O3/c1-6-2(7)3(8)9-4(6)5/h4-5,7-8H,1H3/t4-/m1/s1
