13
gdb 129301	3.30766	1.23967	0.95776	2.3795	65.09	-0.2457	-0.0192	0.2265	1136.4975	0.089905	-448.917639	-448.909908	-448.908964	-448.951508	27.132	
N	-0.0379374537	 1.312853439	-0.3835746834	-0.61101
C	 0.0303473759	 0.0692003235	-0.1730260892	 0.513252
O	 1.1141340653	-0.7596361175	-0.1640899046	-0.246013
N	 0.7033589102	-2.1004854522	 0.1173081726	-0.127715
C	-0.5728091075	-2.0230176087	 0.2587243847	 0.075258
N	-1.0594289554	-0.7537726676	 0.1044119708	-0.11935
C	-2.4197301234	-0.2610813017	 0.1525993585	-0.287596
C	-3.1425367133	-0.7348979551	 1.3360255991	 0.266695
N	-3.7185703863	-1.1351106202	 2.253089193	-0.287227
H	 0.8754222547	 1.7214610288	-0.5574995675	 0.245499
H	-1.193164296	-2.8755407999	 0.4923795546	 0.187159
H	-2.3434857275	 0.8316891094	 0.1620646201	 0.214201
H	-2.980269343	-0.5461393077	-0.7460524288	 0.176847
24.7279	89.302	200.9698	227.2672	271.0542	369.6789	438.2367	544.6099	594.4871	703.4215	724.6737	746.5073	803.6074	870.1861	887.7899	929.5039	940.0907	995.0582	1034.72	1179.9318	1231.7262	1252.4937	1335.876	1388.7625	1438.4606	1482.2084	1654.8659	1781.7748	2372.0217	3037.6406	3089.3547	3264.9616	3557.6699
N=C1ON=CN1CC#N	[NH][C@@H]1ON=CN1CC#N	
InChI=1S/C4H4N4O/c5-1-2-8-3-7-9-4(8)6/h3,6H,2H2	InChI=1S/C4H5N4O/c5-1-2-8-3-7-9-4(8)6/h3-4,6H,2H2/t4-/m0/s1
