19
gdb 110870	2.2199	1.47649	1.23521	1.6342	71.96	-0.2237	0.0719	0.2956	1130.2013	0.156263	-460.098184	-460.088667	-460.087723	-460.132387	34.817	
C	 0.0943739392	 1.0580671708	-0.5044317396	-0.237923
O	-0.1772529857	 0.1668877625	 0.5652476925	-0.23572
C	-1.3379881175	-0.5697863794	 0.3708600373	 0.016607
C	-1.50014175	-1.6277788972	-0.691891409	-0.020493
O	-0.2659475358	-2.2842081478	-0.9574442177	-0.305088
C	-0.2225633145	-2.8243937255	 0.4021125262	 0.107509
C	 1.1083303312	-2.6573622707	 1.1025066248	-0.425843
C	-1.4611518411	-2.0060188989	 0.7888922374	 0.227198
O	-2.4507493927	-2.4855395687	 1.6241687232	-0.457254
H	 1.0138419651	 1.5897341298	-0.2496098354	 0.127276
H	 0.2370405408	 0.5127497092	-1.4455869508	 0.130381
H	-0.7156450899	 1.7908139667	-0.6347519579	 0.104953
H	-2.2683133745	-0.0174522835	 0.5379173155	 0.091135
H	-2.2737853006	-1.650245951	-1.4510170112	 0.109693
H	-0.5129090889	-3.8825969495	 0.3574777152	 0.090046
H	 1.3913414868	-1.6060563524	 1.1522801938	 0.147483
H	 1.0411303263	-3.0599667733	 2.1195908356	 0.114376
H	 1.8865120642	-3.217617691	 0.5739564267	 0.123014
H	-2.3833521523	-2.0276562301	 2.4692525735	 0.292648
67.1682	148.1579	167.0793	188.466	209.2803	227.7515	262.7108	287.5227	316.8822	402.0582	426.9546	578.1207	643.079	673.4818	764.1064	814.056	853.3675	925.5644	956.7913	1007.6446	1014.3387	1063.2342	1082.7838	1120.4494	1138.1535	1160.1681	1179.8009	1212.2048	1232.8282	1249.4753	1279.6243	1329.4816	1348.8618	1384.8924	1405.5877	1460.4312	1484.2243	1488.1674	1495.645	1501.9852	1508.2399	2992.3865	3019.6367	3039.8355	3058.59	3061.4943	3099.3684	3123.4064	3158.1326	3179.869	3797.8901
COC1C2OC(C)C12O	CO[C@H]1[C@H]2O[C@@H](C)[C@@]12O	
InChI=1S/C6H10O3/c1-3-6(7)4(8-2)5(6)9-3/h3-5,7H,1-2H3	InChI=1S/C6H10O3/c1-3-6(7)4(8-2)5(6)9-3/h3-5,7H,1-2H3/t3-,4-,5+,6+/m0/s1
