23
gdb 64484	2.54552	1.42139	1.18927	0.6673	82.	-0.2404	0.0921	0.3325	1187.3377	0.205253	-425.446028	-425.436647	-425.435702	-425.479382	36.824	
C	 0.0174573153	 1.5109254689	 0.0411697356	-0.412778
C	 0.0296291995	-0.019972729	-0.0046978427	 0.399787
C	-1.3940304613	-0.5843318792	-0.030056269	-0.412811
O	 0.6386902773	-0.5098967665	-1.1889683102	-0.277584
C	 2.055789	-0.408716532	-1.2936059617	-0.075944
C	 2.733999169	-1.6885162801	-0.7987293934	-0.187132
C	 2.6085729526	-1.9070655744	 0.713744949	-0.187129
C	 1.1776291837	-1.7674634339	 1.2387764972	-0.075952
O	 0.7359775695	-0.4153496395	 1.1607163058	-0.277582
H	 1.034669573	 1.9088460762	 0.0530915854	 0.119073
H	-0.5083007696	 1.9044259867	-0.831954793	 0.118324
H	-0.4866960779	 1.854688545	 0.9477511947	 0.12319
H	-1.919843777	-0.2348882579	-0.9220439534	 0.123206
H	-1.3803030489	-1.6762610089	-0.0564829943	 0.119072
H	-1.9392452765	-0.2568071507	 0.8582471911	 0.11833
H	 2.2688523277	-0.2604564223	-2.3578120169	 0.099557
H	 2.4382118141	 0.466232104	-0.7536986692	 0.100245
H	 2.2829466119	-2.5314925907	-1.3369780745	 0.102652
H	 3.7935565944	-1.6613309562	-1.0828832991	 0.090509
H	 2.987775064	-2.9024975742	 0.97730438	 0.090509
H	 3.2302211308	-1.1789002154	 1.2495597156	 0.102652
H	 0.5005255055	-2.4440859009	 0.703065095	 0.100249
H	 1.1414212729	-2.0347631091	 2.3004487879	 0.099559
112.8745	156.5952	185.6034	204.9286	245.9815	304.6147	306.9768	316.025	383.1747	399.7564	441.2423	508.2019	526.5652	602.8969	726.9339	810.1052	823.543	857.8221	911.3783	928.3597	936.3132	942.3038	1000.3583	1004.823	1055.4125	1087.1524	1112.0333	1150.0383	1175.2016	1217.2021	1236.621	1254.7129	1265.2761	1307.855	1320.3644	1376.8677	1390.1907	1395.8387	1404.2268	1406.2517	1414.026	1470.1924	1473.1131	1474.2835	1476.8976	1489.2864	1492.3166	1498.2112	1504.1957	3019.0097	3023.0007	3024.1497	3026.7632	3052.2089	3056.912	3058.5082	3067.0743	3073.6153	3078.6483	3127.5007	3130.1363	3134.477	3138.5564
CC1(C)OCCCCO1	CC1(C)OCCCCO1	
InChI=1S/C7H14O2/c1-7(2)8-5-3-4-6-9-7/h3-6H2,1-2H3	InChI=1S/C7H14O2/c1-7(2)8-5-3-4-6-9-7/h3-6H2,1-2H3
