16
gdb 7060	6.15213	0.91186	0.85077	3.4106	69.37	-0.3299	0.0022	0.3321	1283.7866	0.129903	-342.82413	-342.815404	-342.814459	-342.8579	30.37	
C	 0.0020001694	 1.5821222615	-0.0263651681	-0.408723
C	 0.007548269	 0.0509320174	-0.0087285742	 0.017371
C	 0.7581741337	-0.5107458542	 1.2225743462	-0.351331
C	 2.1638623055	-0.1143878058	 1.255485787	 0.266376
N	 3.2743880086	 0.2043936613	 1.2655601982	-0.301662
C	-1.4257096472	-0.5328535284	-0.0101493736	-0.35133
C	-2.1861503133	-0.1584693454	-1.1999836671	 0.266377
N	-2.7733655461	 0.1430896336	-2.1482615721	-0.301661
H	 1.0224125905	 1.9734955132	-0.0398380897	 0.152119
H	-0.5197120936	 1.9578837487	-0.9102292586	 0.152118
H	-0.5029084475	 1.9817718941	 0.8610493897	 0.121238
H	 0.5183579177	-0.3127609946	-0.9071539147	 0.122016
H	 0.2774136792	-0.1631477513	 2.1457467963	 0.154636
H	 0.7107827484	-1.6059697876	 1.232897855	 0.15391
H	-1.3932507626	-1.6272667734	 0.04529252	 0.15391
H	-1.9729947315	-0.1858924691	 0.8754571857	 0.154636
61.9285	99.0742	110.4407	188.5805	247.5137	303.1979	354.6151	393.855	399.2366	409.8744	487.6803	608.0186	837.5164	877.5404	897.5351	909.4803	972.1893	984.5874	1099.5755	1120.258	1136.9272	1219.6692	1273.7792	1291.139	1347.1085	1375.9765	1378.0783	1422.6602	1461.1294	1471.0856	1497.8878	1504.1065	2364.0821	2364.4617	3033.0338	3033.5634	3035.9631	3052.977	3073.0734	3080.5158	3110.6769	3130.3277
CC(CC#N)CC#N	CC(CC#N)CC#N	
InChI=1S/C6H8N2/c1-6(2-4-7)3-5-8/h6H,2-3H2,1H3	InChI=1S/C6H8N2/c1-6(2-4-7)3-5-8/h6H,2-3H2,1H3
