15
gdb 45866	2.05364	1.87165	1.29522	4.7402	72.66	-0.2583	-0.0344	0.2239	999.5301	0.115455	-413.02146	-413.013782	-413.012838	-413.053937	28.453	
N	-0.1139650027	 1.274199387	 0.3035584325	-0.503401
C	-0.0032806301	 0.0423057137	 0.0204002317	 0.384302
N	 1.1631477795	-0.6626601736	-0.249336334	-0.340341
C	 1.1681125695	-1.9639043511	-0.7478585119	 0.093054
N	 0.1602294336	-2.602961965	-1.1771057542	-0.225918
C	-1.1092372104	-1.8919659383	-1.1634835507	-0.181251
C	-1.2384526538	-0.8547667955	-0.0175331261	-0.224725
C	-1.3981133364	-1.5190530074	 1.2805248705	 0.28536
N	-1.5266479401	-2.0513236507	 2.2980231347	-0.319096
H	 0.7892771018	 1.7533345948	 0.3026693197	 0.214753
H	 2.0467373792	-0.2143939258	-0.059357468	 0.258324
H	 2.1545915361	-2.4242607175	-0.7614803301	 0.132179
H	-1.2296792678	-1.3641715199	-2.1197216393	 0.129661
H	-1.9232326465	-2.6175725877	-1.0932018144	 0.139195
H	-2.104239452	-0.2076650829	-0.1772487306	 0.157904
87.6326	136.8841	143.8749	238.1126	386.3014	425.3552	460.6236	470.9262	538.9055	551.2743	650.1892	700.0669	800.5048	863.8873	881.9881	911.8007	948.6844	992.9194	1009.1714	1068.9078	1088.1314	1165.7341	1226.1359	1250.7493	1316.1892	1326.2455	1388.6295	1427.9524	1460.9221	1483.0617	1737.1328	1750.3979	2358.9773	3019.2871	3095.0379	3095.7836	3151.5177	3448.9106	3619.981
N=C1NC=NCC1C#N	[NH][C]1NC=NC[C@H]1C#N	
InChI=1S/C5H6N4/c6-1-4-2-8-3-9-5(4)7/h3-4H,2H2,(H2,7,8,9)	InChI=1S/C5H6N4/c6-1-4-2-8-3-9-5(4)7/h3-4H,2H2,(H2,7,8,9)/t4-/m1/s1
