20
gdb 110513	2.68444	1.50468	1.24002	1.4292	78.77	-0.2454	0.0748	0.3202	1109.8074	0.170563	-403.088505	-403.079954	-403.07901	-403.121686	32.429	
C	 0.0985141832	 1.2683813188	-0.2778068917	-0.240757
O	-0.0060864298	 0.0069895398	 0.3452961789	-0.253177
C	-1.2489621258	-0.6118032285	 0.1540950244	 0.129833
C	-1.612591048	-1.2944866495	-1.1548700847	-0.102387
C	-1.0468197275	-2.6733812177	-1.126972088	-0.035046
C	-0.275021926	-2.859657164	 0.1656359656	-0.276791
C	-1.4052854877	-2.0068556493	 0.7838719574	 0.283227
C	-1.8702591274	-2.187944172	 2.1985444532	-0.505537
N	-2.342828071	-2.3949591957	-0.4196108613	-0.19668
H	 1.0830766648	 1.6730239023	-0.0320458063	 0.128817
H	 0.0099489817	 1.194514795	-1.3719408471	 0.110203
H	-0.6729425816	 1.9654859873	 0.0849703797	 0.106087
H	-2.0704777241	 0.0492034888	 0.4718379272	 0.071705
H	-2.0379084219	-0.8578525035	-2.0511074253	 0.090335
H	-1.0227874255	-3.2917843269	-2.0172990757	 0.094357
H	-0.3359968226	-3.8947078666	 0.513127151	 0.103484
H	 0.7497367252	-2.488273743	 0.2414565444	 0.112543
H	-1.1020248561	-1.8355249467	 2.8961372406	 0.130271
H	-2.7883040482	-1.6215896549	 2.3849510443	 0.124503
H	-2.0709930116	-3.2420301137	 2.4139060134	 0.125012
71.6823	164.1019	168.214	199.321	224.6168	277.2941	319.4662	371.6514	514.303	570.7254	631.0676	738.4295	770.3935	801.2041	824.3264	844.6386	941.2862	966.3212	1000.3739	1007.734	1032.0587	1040.1887	1059.1441	1102.6993	1119.165	1139.1013	1157.9844	1183.3048	1201.9682	1240.6486	1242.6398	1254.43	1330.6831	1338.8434	1379.4698	1398.1421	1415.8199	1481.0608	1481.6255	1487.8202	1490.4862	1493.4225	1509.0909	2975.4157	2988.549	3025.3339	3031.7535	3059.1035	3101.6306	3106.9737	3116.0145	3116.442	3173.8653	3186.4209
COC1C2C3CC1(C)N23	CO[C@H]1[C@H]2[C@H]3C[C@]1(C)N23	
InChI=1S/C7H11NO/c1-7-3-4-5(8(4)7)6(7)9-2/h4-6H,3H2,1-2H3	InChI=1S/C7H11NO/c1-7-3-4-5(8(4)7)6(7)9-2/h4-6H,3H2,1-2H3/t4-,5-,6+,7+,8?/m1/s1
