19
gdb 91250	3.59049	1.18266	0.96652	4.2615	84.24	-0.2316	-0.0365	0.1951	1238.9943	0.159901	-385.909346	-385.901318	-385.900374	-385.941982	31.184	
C	-0.0172962977	 1.5418247584	 0.2100991331	-0.411578
C	 0.0236363443	 0.0358038766	 0.0076824172	-0.059417
C	 0.7580560028	-0.5862759418	-1.2517342744	-0.265002
C	 1.2604557634	-1.7572473376	-0.3357157667	-0.049404
C	 2.6997829315	-2.2270955761	-0.1132343265	-0.371635
C	 3.0425378235	-1.7099772683	 1.3176328719	 0.39068
O	 4.0373372348	-1.993848454	 1.9403632728	-0.330716
C	 1.9797995182	-0.7349912533	 1.7021406357	-0.355037
C	 0.9987286515	-0.8032487567	 0.7964540856	 0.301686
H	 0.9890970016	 1.9693352013	 0.1604520195	 0.123938
H	-0.6306042773	 2.0218643958	-0.5593715034	 0.122511
H	-0.4449401067	 1.797462408	 1.1850396296	 0.12635
H	-0.9861097387	-0.3893635676	 0.060250861	 0.096971
H	 0.1349273091	-0.8470053627	-2.1100941715	 0.107504
H	 1.581036658	 0.0582152275	-1.573008456	 0.113851
H	 0.5465952053	-2.5864992989	-0.3741048584	 0.093416
H	 2.8542633665	-3.3062214555	-0.1836562362	 0.124235
H	 3.4011695711	-1.7519798153	-0.8087926305	 0.131942
H	 2.1024226089	-0.0424153798	 2.5244701772	 0.109707
94.1487	124.5104	197.3816	209.3471	311.3971	357.5988	428.5292	512.763	544.8879	576.4622	637.8503	677.625	784.6268	803.74	859.1339	864.8321	878.1528	917.5765	938.6711	1008.264	1053.1347	1065.1305	1084.4099	1129.8704	1141.4315	1147.5234	1186.2356	1211.1429	1223.2849	1241.332	1251.6531	1288.7019	1333.8425	1370.5687	1410.3253	1450.7862	1480.3381	1492.2316	1496.6457	1685.9358	1815.216	3033.1683	3034.7029	3052.0287	3052.6659	3059.0311	3103.3616	3108.4091	3111.2989	3123.7075	3222.6478
CC1CC2CC(=O)C=C12	C[C@H]1C[C@H]2CC(=O)[CH][C]12	
InChI=1S/C8H10O/c1-5-2-6-3-7(9)4-8(5)6/h4-6H,2-3H2,1H3	InChI=1S/C8H10O/c1-5-2-6-3-7(9)4-8(5)6/h4-6H,2-3H2,1H3/t5-,6-/m0/s1
