15
gdb 129851	7.18225	0.83537	0.75177	5.5468	72.57	-0.215	0.0135	0.2285	1430.9439	0.113969	-450.136309	-450.127749	-450.126805	-450.170125	30.625	
N	 0.0952222303	 1.3681398226	 0.0623802631	-0.604215
C	-0.0449860451	-0.0163439928	 0.0481299341	 0.435463
C	-1.1640051516	-0.8287772957	 0.0365558971	-0.433736
C	-0.6271945461	-2.1310655356	 0.1298379226	 0.487098
O	-1.4013112123	-3.2492220622	 0.155215611	-0.223257
C	-0.8152089107	-4.4529534413	-0.0988288585	 0.112344
N	-1.5011565383	-5.4982002751	 0.0582228218	-0.435761
N	 0.6904398194	-2.1612077876	 0.1956341914	-0.331936
N	 1.0319899068	-0.8367302061	 0.1226056968	-0.266798
H	 0.8189690075	 1.7124569382	-0.5564724755	 0.253809
H	-0.7750914117	 1.8428492393	-0.1338060695	 0.261691
H	-2.1975069957	-0.5418623142	-0.052743073	 0.110405
H	 0.2205217488	-4.3637536872	-0.432062243	 0.132162
H	-0.9428252502	-6.3117678979	-0.1939785336	 0.231569
H	 1.9859344689	-0.5751685644	 0.3003542051	 0.271162
54.9796	89.3209	166.9838	183.9791	234.56	316.4581	337.2459	441.4737	451.9746	520.2863	651.0577	695.5338	711.4139	736.5501	769.1739	821.8747	841.2287	993.7011	1042.5612	1057.4955	1066.4755	1104.8035	1169.6011	1211.8919	1281.4238	1339.2042	1403.5363	1446.4044	1514.609	1566.7894	1620.6124	1663.2753	1744.1058	3117.4982	3281.4962	3512.4578	3542.2646	3639.2955	3683.1155
NC1=CC(OC=N)=NN1	Nc1cc(O[CH][NH])n[nH]1	
InChI=1S/C4H6N4O/c5-2-9-4-1-3(6)7-8-4/h1-2,5H,(H3,6,7,8)	InChI=1S/C4H6N4O/c5-2-9-4-1-3(6)7-8-4/h1-2,5H,(H3,6,7,8)
