20
gdb 52455	5.80451	0.46515	0.44981	3.229	78.55	-0.2497	-0.0227	0.227	2328.0267	0.168897	-440.323854	-440.313173	-440.312229	-440.362609	35.639	
O	-0.0602414857	 0.1096024888	 0.3267052954	-0.23623
C	-0.0151228332	 1.2843531831	 0.0679849504	 0.158624
C	 1.2483468512	 2.1101816543	-0.0084291659	-0.273944
C	 1.4059298397	 2.7879681571	-1.380951304	-0.191907
C	 2.6285553911	 3.7081955545	-1.4487362588	-0.178701
C	 2.7777315699	 4.3806144138	-2.819930038	-0.169228
N	 3.9264846439	 5.2701676946	-2.9026499776	-0.269488
C	 3.857244334	 6.5792364886	-2.5430186433	 0.153282
O	 2.8515724235	 7.1413353303	-2.162495057	-0.325261
H	-0.9476959531	 1.8579044313	-0.1497738354	 0.07149
H	 1.185477303	 2.8867138175	 0.7678997373	 0.122403
H	 2.1016207024	 1.4657689104	 0.2231947618	 0.120747
H	 1.4793715556	 2.0155103113	-2.1577009258	 0.110109
H	 0.5011245724	 3.3676112096	-1.60749428	 0.11173
H	 2.5482368486	 4.4925113809	-0.6874060221	 0.125647
H	 3.5372323639	 3.1358674613	-1.220965295	 0.094955
H	 2.8673441027	 3.6264718974	-3.6095588543	 0.107655
H	 1.8917066082	 4.9853454774	-3.0328200164	 0.143776
H	 4.8265637313	 4.8894453226	-3.1463934214	 0.24867
H	 4.8351107508	 7.0902061552	-2.6484891999	 0.075672
21.9084	43.4822	54.0191	106.9919	120.4324	132.9841	204.5618	275.4765	315.4287	339.0123	467.9334	521.7813	525.783	723.0042	748.5179	802.2494	852.338	960.3494	969.6156	1003.8164	1026.7084	1035.1217	1056.1499	1108.8982	1156.6211	1191.1333	1223.9053	1250.5743	1283.8815	1324.3722	1332.7609	1343.0318	1388.9595	1412.7209	1429.7372	1430.6056	1464.1635	1472.6627	1487.7111	1505.9732	1529.8003	1803.7688	1837.2241	2848.5384	2935.6505	3010.2867	3016.295	3026.7383	3044.4709	3048.2692	3075.2208	3097.9442	3108.7544	3638.9709
O=CCCCCNC=O	O=CCCCCNC=O	
InChI=1S/C6H11NO2/c8-5-3-1-2-4-7-6-9/h5-6H,1-4H2,(H,7,9)	InChI=1S/C6H11NO2/c8-5-3-1-2-4-7-6-9/h5-6H,1-4H2,(H,7,9)
