20
gdb 57678	2.37861	1.02013	0.85725	4.3206	78.27	-0.2489	-0.0252	0.2237	1422.838	0.166631	-440.296527	-440.285851	-440.284907	-440.333116	37.541	
C	 0.0479201661	 1.6099480462	 0.151535839	-0.417086
C	 0.0569798175	 0.0762661212	 0.0931129018	 0.314374
C	 0.7926573561	-0.5340928219	 1.2918087131	-0.416162
O	-1.2956194429	-0.4477085003	 0.0091463289	-0.229425
C	-2.1773854106	-0.1996228469	 0.995596397	 0.120851
N	-3.3512701974	-0.6581236497	 0.9082974379	-0.441225
C	 0.7021734528	-0.4161195633	-1.2188149796	-0.288531
C	 0.02002431	 0.0964581851	-2.4731445285	 0.144134
O	 0.600718393	 0.6480501838	-3.3738225937	-0.245467
H	 1.0683974088	 1.9918473159	 0.0548353407	 0.133935
H	-0.5503456729	 2.0278506422	-0.6627813433	 0.142781
H	-0.3550358271	 1.9786150095	 1.0986377861	 0.119981
H	 0.3652717683	-0.1990789072	 2.2411340835	 0.11968
H	 0.7408399971	-1.6256050103	 1.2553473905	 0.135151
H	 1.8449003783	-0.2353571115	 1.279468657	 0.128715
H	-1.7833483351	 0.4018689792	 1.8218538418	 0.090276
H	-3.8903313267	-0.3857839728	 1.7277740251	 0.228484
H	 1.7564681502	-0.1306127618	-1.2562779535	 0.119488
H	 0.6354520015	-1.5119553232	-1.233375487	 0.131585
H	-1.0733762069	-0.0864874041	-2.5145235868	 0.108459
49.1961	66.1228	86.6564	121.6977	176.9777	224.5478	245.4964	254.623	328.2441	340.3664	376.4553	424.5145	478.6476	531.1684	589.1864	753.3059	821.1043	838.3048	918.3199	925.6026	940.5471	993.2877	1044.3372	1050.3173	1063.7662	1110.4104	1169.4663	1198.2951	1241.2309	1268.4161	1304.4453	1329.5135	1403.2192	1412.4734	1421.3086	1430.5449	1448.2362	1479.9305	1488.7157	1501.2799	1506.4249	1736.9833	1826.6028	2929.0722	3031.6678	3043.3654	3046.0934	3060.3253	3110.4262	3114.6195	3121.5654	3123.2951	3126.1764	3515.6791
CC(C)(OC=N)CC=O	CC(C)(O[CH][NH])CC=O	
InChI=1S/C6H11NO2/c1-6(2,3-4-8)9-5-7/h4-5,7H,3H2,1-2H3	InChI=1S/C6H11NO2/c1-6(2,3-4-8)9-5-7/h4-5,7H,3H2,1-2H3
