23
gdb 111135	2.97112	1.17145	0.95235	1.4177	86.82	-0.2595	0.0783	0.3378	1325.7466	0.205196	-388.220199	-388.210685	-388.209741	-388.254304	36.939	
C	 0.0010797734	 1.4656560219	-0.4006425401	-0.470516
C	 0.0553228061	-0.0293888523	-0.0457568525	 0.386406
C	-1.3629216155	-0.5705127022	-0.2892758977	-0.476593
C	 1.3266593502	-0.8418829756	-0.5206382049	-0.11116
C	 2.1468883957	-0.0699680464	 0.5599351748	-0.238133
C	 0.8175437711	-0.4885634655	 1.2552752346	-0.121574
C	 1.0783161084	-1.8940081219	 0.6052477187	 0.087805
C	 0.1033285899	-3.0706563928	 0.505031742	-0.162689
O	 0.9018534092	-4.2487356322	 0.5958080799	-0.433367
H	 0.9671819808	 1.9679282297	-0.4428028179	 0.114131
H	-0.4692973277	 1.5905021473	-1.3830963459	 0.112342
H	-0.6236302892	 2.0052150862	 0.3209359322	 0.113917
H	-1.5369599107	-0.753293855	-1.3564814537	 0.113791
H	-1.60275418	-1.4818607654	 0.2535896957	 0.119184
H	-2.0971689369	 0.1792674558	 0.025464975	 0.108956
H	 1.6272795123	-1.0463722721	-1.5515683454	 0.061978
H	 3.0492331924	-0.5719482034	 0.9156471359	 0.091187
H	 2.3334320359	 0.9906027466	 0.4119515024	 0.090826
H	 0.5279062167	-0.2892208433	 2.2905951678	 0.060188
H	 2.0075132918	-2.3381695208	 0.9745571193	 0.086147
H	-0.6321341043	-3.0416783338	 1.3256267747	 0.090633
H	-0.4526237475	-3.0647420522	-0.4410732836	 0.094743
H	 0.3230300178	-5.0081704727	 0.4797689988	 0.281797
58.8854	135.4408	173.1365	187.3526	232.3986	268.7007	314.4017	365.4572	370.4709	378.6915	451.9056	565.4065	613.3062	662.1414	750.22	768.5855	858.1161	884.9441	887.8423	956.5667	964.128	1003.5931	1006.3469	1020.6546	1032.6869	1064.9195	1080.7044	1087.1597	1125.3109	1134.4258	1171.9946	1193.2946	1203.3687	1217.6507	1234.3864	1243.4203	1260.8993	1282.2228	1301.7896	1404.8072	1409.3106	1425.3642	1458.3668	1483.808	1491.1013	1505.4077	1512.6003	1532.6763	1545.8356	2961.3307	3024.0015	3028.0182	3034.7215	3058.0567	3070.138	3072.8817	3079.0495	3082.6975	3087.9718	3133.2899	3164.0692	3166.292	3825.9123
CC1(C)C2CC1C2CO	CC1(C)[C@H]2C[C@@H]1[C@H]2CO	
InChI=1S/C8H14O/c1-8(2)6-3-7(8)5(6)4-9/h5-7,9H,3-4H2,1-2H3	InChI=1S/C8H14O/c1-8(2)6-3-7(8)5(6)4-9/h5-7,9H,3-4H2,1-2H3/t5-,6-,7+
