21
gdb 76171	2.03043	1.42751	1.18319	3.3641	84.6	-0.2626	0.0334	0.296	1203.2606	0.180641	-383.281675	-383.27105	-383.270106	-383.316401	39.233	
C	-0.0651843059	 1.5242115928	 0.1183061333	-0.426935
C	 0.0450692543	 0.0227796649	-0.0312362283	-0.072219
C	 0.6741781508	-0.6699112033	-1.2129390532	 0.279122
C	 0.0247943671	-1.9551851583	-1.6945748513	-0.45845
C	 1.3075708352	 0.1403030686	-2.3294000754	-0.457513
C	 1.3922038907	-0.6904926281	 0.1523707049	 0.079732
N	 2.564256439	 0.136748865	 0.3137830255	-0.558511
C	 1.3923087815	-1.9270826043	 0.9060346308	 0.244317
N	 1.437307753	-2.9032400387	 1.5281144707	-0.363872
H	 0.8474017236	 2.0342181257	-0.1916977736	 0.141823
H	-0.8970344067	 1.9065543182	-0.4830221884	 0.123582
H	-0.2631965645	 1.7928097469	 1.1615254009	 0.121817
H	-0.7894728658	-0.5210137208	 0.4044575505	 0.100934
H	-0.7783947505	-1.7249976524	-2.4035942884	 0.118624
H	 0.7507197451	-2.5944491891	-2.2092652705	 0.122694
H	-0.4051954327	-2.5341504077	-0.8738801786	 0.137756
H	 1.871777057	 0.9940472961	-1.9561819096	 0.142216
H	 1.9907848667	-0.4864415582	-2.9136839815	 0.116849
H	 0.5325726312	 0.5039223034	-3.0135870486	 0.119607
H	 2.6901217324	 0.3852002378	 1.2905605238	 0.244247
H	 3.3979826082	-0.3662863185	 0.025183127	 0.244182
118.1595	136.9171	150.5822	156.5568	198.684	211.1714	220.2895	271.4941	298.8414	306.3645	362.5719	422.196	437.9729	511.2312	576.5891	594.1124	676.0971	708.1331	786.2904	854.6847	964.0757	973.4738	984.905	1025.8973	1062.5003	1075.8105	1135.1654	1148.6394	1168.6434	1214.5396	1257.4873	1292.8223	1342.1439	1400.9619	1412.1584	1424.8178	1437.3399	1480.1448	1486.6659	1491.6667	1500.5602	1508.1908	1516.1792	1662.6008	2329.0905	3030.2134	3034.4523	3038.8574	3086.1848	3091.6603	3093.0302	3121.4442	3133.6981	3148.1318	3155.7405	3493.8656	3569.4711
CC1C(C)(C)C1(N)C#N	C[C@H]1C(C)(C)[C@]1(N)C#N	
InChI=1S/C7H12N2/c1-5-6(2,3)7(5,9)4-8/h5H,9H2,1-3H3	InChI=1S/C7H12N2/c1-5-6(2,3)7(5,9)4-8/h5H,9H2,1-3H3/t5-,7-/m0/s1
