15
gdb 28853	3.40716	1.33162	0.99629	4.5914	82.2	-0.2248	-0.0701	0.1547	1127.7928	0.114775	-416.830989	-416.823649	-416.822705	-416.863118	28.334	
O	-0.1036721493	 1.3075003815	-0.3085354139	-0.411905
C	 0.0381169121	-0.0209965268	-0.0892105962	 0.373147
C	 1.2602825111	-0.6224055251	-0.0788640451	-0.257048
C	 1.5312008012	-1.9907671436	 0.2721850211	 0.014508
N	 0.7832272608	-3.0368387688	 0.3319408641	-0.296289
C	-0.5655140572	-3.0892305225	-0.0438980392	 0.285596
N	-1.0792125956	-4.1438713061	-0.5564279934	-0.497313
C	-1.4859732173	-1.9726997482	 0.2376678986	-0.06411
C	-1.231708993	-0.6539356568	 0.1911104673	-0.121891
H	 0.7614978519	 1.7047803309	-0.4637985192	 0.307241
H	 2.1365543466	 0.0061207669	-0.2253259058	 0.084133
H	 2.5753125633	-2.167954949	 0.5474128314	 0.11214
H	-0.3418065968	-4.8450812552	-0.6697102793	 0.217849
H	-2.5038052398	-2.2924259764	 0.4391783055	 0.132781
H	-2.049110328	 0.0439032092	 0.3446416243	 0.121164
57.8917	184.2851	295.3218	356.9751	370.2545	397.6232	439.3216	484.4402	532.0536	603.4244	708.2972	733.4617	774.6395	813.9118	837.5086	869.8788	919.0483	927.1556	992.3112	1017.065	1034.7329	1135.1572	1214.5508	1225.7229	1294.1787	1351.1262	1407.768	1449.3303	1491.8771	1589.1287	1655.2978	1684.2973	1705.8405	3076.845	3140.9012	3174.2667	3192.0819	3441.3259	3800.9145
OC1=CC=NC(=N)C=C1	OC1=CC=N[C]([NH])C=C1	
InChI=1S/C6H6N2O/c7-6-2-1-5(9)3-4-8-6/h1-4,7,9H	InChI=1S/C6H6N2O/c7-6-2-1-5(9)3-4-8-6/h1-4,7,9H
