14
gdb 18154	3.35485	2.17313	1.71934	3.9006	57.48	-0.2417	-0.0427	0.1991	768.0597	0.105816	-419.622788	-419.615821	-419.614876	-419.654123	25.767	
O	 0.0524405027	 1.4352546561	 0.0803400114	-0.433637
C	-0.0592922808	 0.0592404901	 0.022450494	 0.137966
C	-0.4594294391	-0.7956740604	 1.1705899949	 0.032756
O	-1.4160139391	-0.0945430397	 1.9819135762	-0.288258
C	-2.3834161246	-0.1287043964	 0.915766094	 0.013523
C	-2.9997093868	 1.2068570032	 0.564549958	 0.160118
O	-2.6287214352	 2.2678632485	 0.9965749614	-0.248675
C	-1.3640335015	-0.7267137815	-0.0673179707	-0.22136
H	-0.4933728575	 1.7570480355	 0.8135872907	 0.307025
H	 0.715396267	-0.3710724319	-0.6068215958	 0.117868
H	 0.093605696	-1.6005529972	 1.6416654141	 0.111863
H	-3.1907238532	-0.8372041566	 1.152352449	 0.10979
H	-3.8498694016	 1.1314976518	-0.1506078649	 0.091556
H	-1.5869678663	-1.4584780616	-0.8319736822	 0.109465
90.6838	161.1908	200.6657	276.4381	316.6766	503.6109	527.925	659.6141	710.8358	727.3781	747.5288	811.1028	872.848	926.4659	986.929	1003.0326	1028.1566	1051.7554	1070.4122	1080.6169	1125.5468	1188.3304	1232.4582	1253.6164	1311.0875	1354.2643	1371.3317	1415.1046	1464.7891	1828.5176	2881.937	3005.6192	3157.0596	3177.0311	3205.1279	3722.3745
OC1C2OC(C=O)C12	O[C@H]1[C@H]2O[C@@H](C=O)[C@@H]12	
InChI=1S/C5H6O3/c6-1-2-3-4(7)5(3)8-2/h1-5,7H	InChI=1S/C5H6O3/c6-1-2-3-4(7)5(3)8-2/h1-5,7H/t2-,3-,4+,5-/m0/s1
