17
gdb 7247	4.59416	1.08278	0.99556	5.7182	69.37	-0.2672	-0.0343	0.233	1204.9469	0.139508	-363.901917	-363.892565	-363.89162	-363.936884	32.213	
C	 0.1234868263	 1.5206303544	 0.0144531901	-0.388196
C	-0.032602244	-0.0030411065	 0.0431371139	-0.07347
C	 0.6158154947	-0.6152431903	 1.3041773213	-0.390221
C	-1.5072801381	-0.4011137483	 0.0214219495	 0.394302
O	-2.3753703271	 0.2537686071	 0.5360020289	-0.280441
C	-1.8126215385	-1.7290211665	-0.7042913749	-0.46419
C	-3.1704844145	-2.21627749	-0.5026083447	 0.287746
N	-4.2404945951	-2.6214147376	-0.3486466505	-0.294662
H	 1.1803068221	 1.7958921069	 0.0759376666	 0.115802
H	-0.2882933346	 1.9465603286	-0.9050594791	 0.122145
H	-0.4067088169	 1.9718484111	 0.8564868339	 0.145212
H	 0.4543822547	-0.4431224977	-0.8370030616	 0.084493
H	 0.1515159891	-0.206666523	 2.2067087793	 0.14387
H	 0.5174766821	-1.7051634867	 1.3356584878	 0.119818
H	 1.6828222335	-0.3763387738	 1.3287893891	 0.12983
H	-1.6355376768	-1.5694561177	-1.7761502193	 0.177788
H	-1.0918224468	-2.49429282	-0.3938739803	 0.170176
35.2069	59.8732	130.3311	202.2343	224.3584	229.8691	283.1146	303.1758	374.3592	404.5758	449.0162	577.069	656.3486	814.3636	871.4815	916.1422	938.1381	954.0968	973.8938	1045.971	1107.2272	1124.36	1197.8603	1217.3894	1311.9145	1326.605	1375.4579	1397.3676	1417.7168	1435.2072	1485.5033	1487.7914	1501.0155	1510.3615	1830.595	2374.9048	3020.5162	3037.1403	3038.3004	3046.633	3076.1521	3106.4209	3114.9718	3119.5864	3132.1913
CC(C)C(=O)CC#N	CC(C)C(=O)CC#N	
InChI=1S/C6H9NO/c1-5(2)6(8)3-4-7/h5H,3H2,1-2H3	InChI=1S/C6H9NO/c1-5(2)6(8)3-4-7/h5H,3H2,1-2H3
