14
gdb 127184	4.44897	1.12793	0.90491	2.8719	66.09	-0.2525	-0.0426	0.2099	1183.255	0.10253	-466.191153	-466.18322	-466.182276	-466.224613	27.396	
C	-0.010204799	 1.438715402	-0.0640162592	-0.347394
N	-0.0062255229	-0.0234390486	-0.0203560618	-0.19181
C	-0.0136659788	-0.6833848071	 1.1983915116	 0.157746
O	-0.0244282748	-0.1216617492	 2.267439423	-0.319938
C	 0.0048932314	-0.7200355018	-1.2115580923	 0.547229
N	 0.009730057	-2.0475339697	-1.3230676271	-0.311387
N	 0.0202307727	-2.1725725008	-2.6487843619	-0.062707
N	 0.0218809009	-1.0408397941	-3.3191627429	-0.093692
N	 0.0121309606	-0.0901795947	-2.4160699572	-0.285779
H	 0.8793345501	 1.8071270071	-0.5801762547	 0.150246
H	-0.8941909202	 1.801946185	-0.5932338393	 0.150246
H	-0.0188253254	 1.783790916	 0.968166461	 0.170608
H	-0.0104082261	-1.7769017639	 1.0774722487	 0.128456
H	 0.0264493044	-3.0721304903	-3.1064360879	 0.308176
48.6413	125.3975	136.6335	193.7313	288.2512	320.0623	386.2547	463.2489	500.8283	564.5553	723.7151	785.7805	817.448	977.6524	1038.5333	1045.843	1070.3038	1158.2146	1161.7906	1170.2078	1216.0567	1268.1061	1304.414	1393.4159	1432.0245	1441.5203	1494.2642	1497.0217	1525.5298	1598.6333	1806.3094	3034.8331	3061.1737	3126.0711	3180.6813	3648.4368
CN(C=O)C1=NNN=N1	CN(C=O)c1n[nH]nn1	
InChI=1S/C3H5N5O/c1-8(2-9)3-4-6-7-5-3/h2H,1H3,(H,4,5,6,7)	InChI=1S/C3H5N5O/c1-8(2-9)3-4-6-7-5-3/h2H,1H3,(H,4,5,6,7)
