17
gdb 45066	2.50067	1.65036	1.13653	2.9791	77.35	-0.2406	-0.0237	0.2169	1075.5038	0.135371	-384.672458	-384.664481	-384.663537	-384.705204	30.911	
O	 0.001617681	-0.010833316	-0.2082751957	-0.291386
C	-0.0339971662	 1.1618636657	 0.0342434407	 0.376064
C	-1.2920914724	 1.9887434623	 0.3262633897	-0.330872
C	-0.7976120343	 3.2613514788	 0.9820045238	-0.049444
C	 0.0854998242	 3.1031181895	 2.1951602116	-0.288863
C	 0.7138047141	 3.3363734614	 0.8472964662	-0.036259
C	 1.2082643531	 2.1090468058	 0.0899230071	-0.317255
C	 2.3984229914	 1.4680824431	 0.6229984723	 0.352319
C	 3.3782724606	 0.9428470199	 1.0782966429	-0.449356
H	-1.7889761242	 2.1966204997	-0.6307084487	 0.132451
H	-1.9893024974	 1.3974435814	 0.9273309872	 0.135777
H	-1.3967297751	 4.1595568114	 0.8909333692	 0.093221
H	 0.1151669757	 3.9208179142	 2.9060946	 0.119457
H	 0.1817064058	 2.1202198107	 2.6485376694	 0.126938
H	 1.2115973094	 4.2794882659	 0.6583783635	 0.098654
H	 1.3943611501	 2.3922371568	-0.9583173676	 0.131355
H	 4.2436374041	 0.4729635493	 1.4753964881	 0.197199
63.0547	130.7765	150.2156	299.9899	359.368	389.1974	457.6771	500.4718	569.5438	597.9633	629.4678	638.6347	655.9842	748.4549	807.9894	827.4319	895.3646	924.9435	946.952	993.9294	1033.2779	1060.4891	1083.3943	1099.7618	1108.3678	1128.1699	1185.418	1205.3445	1232.7681	1286.5693	1306.8715	1352.1112	1390.1806	1453.4369	1492.2837	1859.9416	2241.5335	2986.6151	3031.4924	3088.6542	3125.0429	3175.5453	3185.566	3215.3289	3505.4454
O=C1CC2CC2C1C#C	O=C1C[C@H]2C[C@H]2[C@H]1C#C	
InChI=1S/C8H8O/c1-2-6-7-3-5(7)4-8(6)9/h1,5-7H,3-4H2	InChI=1S/C8H8O/c1-2-6-7-3-5(7)4-8(6)9/h1,5-7H,3-4H2/t5-,6-,7-/m1/s1
