23
gdb 122108	3.03527	0.65444	0.56526	3.9177	83.52	-0.2455	-0.0191	0.2264	1997.6798	0.202326	-425.437877	-425.426264	-425.425319	-425.476468	39.762	
C	-0.0042704213	 1.5685811215	 0.0885866425	-0.3915
C	-0.0040255266	 0.0418656275	-0.0346912546	-0.197533
C	 0.7175024722	-0.4836976765	-1.2961943421	-0.052301
C	 0.8621747527	-2.0177872824	-1.2631176936	-0.218474
C	 1.7006554495	-2.5840124748	-2.4139518885	-0.179566
C	 1.831679719	-4.1003373968	-2.3555023547	-0.073366
O	 2.6308832927	-4.5114313779	-3.4530046321	-0.419236
C	-0.075615331	-0.0707996394	-2.5206220997	 0.173597
O	 0.2750538296	 0.7178421463	-3.3592357867	-0.255055
H	 1.0176042595	 1.9584528395	 0.1428104426	 0.122664
H	-0.4898225173	 2.044896542	-0.7689385111	 0.131978
H	-0.5327402296	 1.8864107466	 0.9923231675	 0.115427
H	 0.4802690848	-0.4006195077	 0.8439721235	 0.102971
H	-1.0365847353	-0.333983045	-0.0312274618	 0.100269
H	 1.7061709492	-0.0162090635	-1.3738519282	 0.091126
H	 1.3115845716	-2.3013846312	-0.3030929404	 0.100859
H	-0.1397076867	-2.4712798568	-1.2730393755	 0.09847
H	 1.2637765424	-2.3114968412	-3.3822241201	 0.118455
H	 2.7059411781	-2.1463518092	-2.396874514	 0.112937
H	 2.2872049974	-4.3973111391	-1.3958401071	 0.083287
H	 0.8308701411	-4.562009183	-2.3944489133	 0.083728
H	 2.7115538966	-5.4691648809	-3.4262800519	 0.286115
H	-1.0761741584	-0.567876618	-2.5850037909	 0.065148
44.6916	53.4139	70.89	91.2779	108.9083	138.2661	218.1262	241.1191	260.9747	280.8666	312.0758	345.6902	449.3996	470.5682	563.4464	747.9531	771.7586	839.7077	890.8468	947.858	985.4669	1013.5549	1018.4453	1042.2255	1057.3801	1081.3461	1120.8091	1138.3448	1175.3949	1211.24	1232.9944	1269.0956	1284.6529	1298.2961	1317.5701	1333.7805	1359.8867	1370.3202	1388.6816	1416.9871	1425.4164	1464.3588	1479.9572	1490.9323	1499.0544	1499.5666	1505.2777	1528.3043	1834.197	2819.1773	2954.1775	2978.6101	3004.2242	3015.3586	3034.6073	3037.6694	3041.7075	3046.9839	3059.1852	3079.9227	3106.1284	3110.4844	3831.2186
CCC(CCCO)C=O	CC[C@@H](CCCO)C=O	
InChI=1S/C7H14O2/c1-2-7(6-9)4-3-5-8/h6-8H,2-5H2,1H3	InChI=1S/C7H14O2/c1-2-7(6-9)4-3-5-8/h6-8H,2-5H2,1H3/t7-/m0/s1
