15
gdb 27569	3.68819	1.20705	0.91455	2.4707	84.74	-0.2553	-0.0607	0.1946	1221.4387	0.112901	-379.700354	-379.692304	-379.69136	-379.733535	29.408	
C	 0.0170987069	 1.508185622	 0.0337402171	-0.471124
C	-0.0234360652	 0.006630606	-0.0138262204	 0.33824
C	 0.0818216412	-0.7023740397	-1.2077692277	-0.22764
C	 0.0326217026	-2.0980742165	-1.1430421495	 0.179212
N	-0.1112651417	-2.7433732009	 0.0277477595	-0.308045
C	-0.2019816761	-1.965457253	 1.1042036846	 0.057597
N	-0.1671345328	-0.6347253052	 1.1561474543	-0.300078
C	 0.1351113758	-2.8839904645	-2.3327129741	 0.225253
C	 0.2240006638	-3.5183450901	-3.3509671704	-0.356428
H	 0.1355971501	 1.943957421	-0.9606439367	 0.124636
H	-0.903206497	 1.8935174485	 0.4836825374	 0.150189
H	 0.8442692127	 1.8405932091	 0.6687048653	 0.150189
H	 0.1981369751	-0.1980939943	-2.1591743648	 0.114107
H	-0.3186003831	-2.4805507665	 2.0552577183	 0.120612
H	 0.3011388077	-4.0926260861	-4.241400313	 0.203278
54.9966	127.1021	143.8697	200.393	340.3045	342.6993	470.2027	484.7183	549.6605	559.3493	631.9927	653.1396	654.0204	796.4377	805.2438	903.0407	929.2333	997.8443	1000.9322	1021.8307	1062.073	1171.4308	1238.5843	1276.4013	1347.7416	1367.3254	1409.5572	1473.5648	1481.5836	1493.7503	1565.1679	1616.2897	2234.2426	3045.2833	3107.5461	3133.2419	3160.1578	3206.3352	3500.4094
CC1=CC(=NC=N1)C#C	Cc1cc(ncn1)C#C	
InChI=1S/C7H6N2/c1-3-7-4-6(2)8-5-9-7/h1,4-5H,2H3	InChI=1S/C7H6N2/c1-3-7-4-6(2)8-5-9-7/h1,4-5H,2H3
