18
gdb 89049	3.18543	0.99026	0.91387	5.2161	68.16	-0.2382	0.0262	0.2645	1312.7645	0.146981	-476.22231	-476.213165	-476.212221	-476.257509	33.375	
O	-0.5257711339	 1.4353137877	-0.0567508703	-0.411412
C	-0.3092194542	 0.1145942824	 0.3403641719	 0.090084
C	-1.2629841598	-0.5241768233	 1.3167963002	-0.339617
C	-1.3085474043	-0.9036369654	-0.1511338901	-0.01024
N	-2.409006685	-0.4363466933	-0.945012196	-0.310985
H	-3.2001859959	 1.1200731935	-0.179810475	 0.308609
H	-2.1754151139	-0.425780352	-1.928126557	 0.240885
C	-3.7242510038	-1.0150566277	-0.6846031915	-0.313845
C	-4.6036518442	-0.0570449977	 0.14254532	 0.422492
O	-4.0663999901	 1.1627171856	 0.2891131663	-0.368226
O	-5.6709232204	-0.3711012285	 0.5949559129	-0.335641
H	-0.3215478201	 2.0078994728	 0.6899337834	 0.296235
H	 0.7357138409	-0.1925484458	 0.3663091398	 0.095366
H	-0.8884529885	-1.2561363961	 2.0231141589	 0.122944
H	-2.0646733331	 0.1046933749	 1.6870892147	 0.142798
H	-0.9074561668	-1.8880912259	-0.3980105233	 0.091556
H	-4.2525253327	-1.1944396307	-1.6264638969	 0.14017
H	-3.6797585542	-1.9740164403	-0.157086678	 0.138828
37.4253	55.6076	104.851	196.0906	257.1497	303.8278	325.8896	362.4167	473.7915	502.5087	545.1945	600.2681	653.9078	714.7379	770.8297	831.6992	857.9044	877.0256	914.6743	981.1003	1005.3839	1059.7136	1075.3215	1099.85	1137.2823	1168.9679	1184.2249	1203.1758	1250.0101	1280.2872	1298.0865	1334.8945	1383.0761	1420.4339	1426.0491	1457.3542	1470.8634	1498.5742	1874.4401	3047.436	3077.8084	3095.6641	3108.2224	3143.4627	3235.217	3426.5143	3576.7795	3811.1793
OC1CC1[NH2+]CC([O-])=O	O[C@H]1C[C@H]1NCC(=O)O	
InChI=1S/C5H9NO3/c7-4-1-3(4)6-2-5(8)9/h3-4,6-7H,1-2H2,(H,8,9)	InChI=1S/C5H9NO3/c7-4-1-3(4)6-2-5(8)9/h3-4,6-7H,1-2H2,(H,8,9)/t3-,4+/m1/s1
