19
gdb 111022	1.92641	1.68382	1.06383	2.3697	80.64	-0.2569	0.0155	0.2724	1184.0981	0.160321	-382.008535	-382.000085	-381.999141	-382.042016	31.862	
C	-0.8638985033	 0.8773765928	-0.2474004567	-0.38845
C	 0.5396011319	 0.3526860126	 0.0858456942	-0.24453
C	 1.1384980714	-0.4131197433	-1.0787232033	 0.053261
N	 2.5330128605	-1.0711081904	-0.9224777764	-0.16914
C	 1.8033791281	-2.2121276764	-0.1920216801	-0.212645
C	 0.8485244839	-1.9202962369	-1.3751882049	 0.18674
C	 2.1579475503	-1.843783985	-2.1980638879	-0.201579
C	-0.4083510008	-2.5571302294	-1.714565666	 0.147892
N	-1.4173512706	-3.0558247693	-1.9809112394	-0.34766
H	-0.8464118495	 1.5284712989	-1.1278557755	 0.121355
H	-1.5574856191	 0.0561630163	-0.4542536795	 0.140314
H	-1.2694696771	 1.4561663861	 0.5870098437	 0.122447
H	 1.2125456057	 1.1914000838	 0.3038249363	 0.120893
H	 0.4957318439	-0.2502254118	 0.997199771	 0.107156
H	 1.1141733568	 0.2176778425	-1.974556492	 0.085802
H	 2.3464941428	-3.1591328105	-0.2154140828	 0.119083
H	 1.4751091458	-1.973500798	 0.8177848934	 0.121823
H	 2.1543890237	-1.232350563	-3.102894532	 0.118802
H	 2.7220751757	-2.7688340091	-2.3315743923	 0.118436
63.8786	105.5448	173.1966	207.9384	224.681	337.5194	378.2132	496.0372	521.9533	540.0328	593.1855	620.6227	773.7225	780.8338	816.6114	878.5551	897.2983	963.1401	983.3771	996.2853	1041.6273	1058.3892	1088.1983	1115.2319	1148.222	1164.3288	1184.091	1199.2566	1201.0817	1244.7805	1274.3309	1304.1061	1345.8193	1414.3833	1442.9318	1484.6138	1501.1295	1506.8327	1518.3946	1554.354	2344.6791	3036.7144	3039.2371	3043.7182	3067.3414	3080.53	3087.0643	3110.0031	3115.3076	3140.5305	3162.8396
CCC1N2CC1(C2)C#N	CC[C@H]1N2C[C@@]1(C2)C#N	
InChI=1S/C7H10N2/c1-2-6-7(3-8)4-9(6)5-7/h6H,2,4-5H2,1H3	InChI=1S/C7H10N2/c1-2-6-7(3-8)4-9(6)5-7/h6H,2,4-5H2,1H3/t6-/m1/s1
