17
gdb 54330	2.49542	1.3525	0.99805	1.1926	71.17	-0.2506	0.0059	0.2565	1189.9599	0.134916	-455.162397	-455.153282	-455.152337	-455.196724	33.42	
N	 0.2676934005	 0.8739792415	 0.3995624047	-0.543054
C	 0.1235840436	-0.1973378826	-0.4276217285	 0.356136
O	 1.0141324029	-0.6402886361	-1.1299365661	-0.376004
C	-1.2536012595	-0.8159470585	-0.4241501636	 0.295197
C	-1.6878906597	-1.5726545022	-1.6598609231	-0.308659
C	-1.3168951935	-2.3216720582	-0.4125256601	-0.291251
O	-2.219845884	-0.1534750776	 0.3626309033	-0.24988
C	-2.8685041781	 0.889113726	-0.2200058328	 0.106006
N	-3.5828082717	 1.6443499873	 0.4920602897	-0.440663
H	 1.195672334	 1.2475662198	 0.51525395	 0.265459
H	-0.4353746052	 1.0884922766	 1.0871702413	 0.283316
H	-2.7381324223	-1.5200161486	-1.9223379963	 0.126755
H	-0.9851533773	-1.5739759733	-2.4838994096	 0.152397
H	-0.3679013711	-2.8428440309	-0.3923171812	 0.144634
H	-2.1169809062	-2.7525225676	 0.177681565	 0.135925
H	-2.6966082494	 0.9571629838	-1.3001987864	 0.108687
H	-4.0196811929	 2.3583159106	-0.0874403165	 0.235
63.9132	76.4355	137.1719	193.7962	245.4252	257.1583	347.4582	384.5509	446.6919	468.2641	481.2644	609.0359	617.1248	737.1905	766.5003	783.561	832.7076	895.8256	940.1794	967.3363	1004.7499	1052.3158	1067.0774	1085.6206	1094.7443	1096.3984	1205.1334	1231.7121	1275.4178	1301.4256	1401.0501	1409.0654	1436.2636	1473.7157	1605.8641	1743.9633	1790.6328	3061.1537	3146.4727	3150.2054	3240.7276	3253.236	3518.3687	3595.3552	3729.1258
NC(=O)C1(CC1)OC=N	NC(=O)C1(CC1)O[CH][NH]	
InChI=1S/C5H8N2O2/c6-3-9-5(1-2-5)4(7)8/h3,6H,1-2H2,(H2,7,8)	InChI=1S/C5H8N2O2/c6-3-9-5(1-2-5)4(7)8/h3,6H,1-2H2,(H2,7,8)
