14
gdb 44127	2.61851	1.62144	1.33566	6.2927	65.17	-0.2886	-0.0121	0.2765	960.2615	0.101981	-436.724982	-436.717859	-436.716915	-436.757002	26.651	
O	 0.0411478851	 0.2294089219	-0.5891940125	-0.302447
C	-0.0484923328	 1.3058456243	-0.0926227218	 0.435878
C	-1.3107050224	 2.1146264793	 0.232642792	-0.391919
C	-0.79676911	 3.3940112398	 0.8533314259	-0.099407
C	 0.6942211932	 3.2491036306	 0.8708093501	 0.087566
O	 1.0647414442	 2.0346724511	 0.2828782401	-0.20873
C	 0.0688554388	 4.3075740451	-0.0254233967	-0.237309
C	 0.0652459572	 4.1674406269	-1.4525069392	 0.312635
N	 0.0394049413	 4.043485167	-2.6022085437	-0.331496
H	-1.8842616151	 2.2529570976	-0.6879531623	 0.172452
H	-1.9308214975	 1.543276811	 0.9283128769	 0.154363
H	-1.3372214215	 3.8590476332	 1.6672370737	 0.125026
H	 1.3430470511	 3.5456355931	 1.6846967285	 0.136523
H	 0.1689825185	 5.3290140391	 0.3272129388	 0.146864
84.0046	133.9192	167.4022	337.2556	386.4192	480.6779	540.2894	590.7314	634.1806	678.1357	735.7302	772.5417	789.2607	825.7691	936.4196	947.2133	1016.3922	1029.1598	1047.9683	1092.0949	1123.2168	1137.6623	1190.7634	1203.2839	1288.6532	1337.7247	1357.4079	1406.5559	1456.5332	1912.6821	2356.897	3074.1005	3117.3825	3169.7776	3198.6827	3207.7069
O=C1CC2C(O1)C2C#N	O=C1C[C@H]2[C@@H](O1)[C@H]2C#N	
InChI=1S/C6H5NO2/c7-2-4-3-1-5(8)9-6(3)4/h3-4,6H,1H2	InChI=1S/C6H5NO2/c7-2-4-3-1-5(8)9-6(3)4/h3-4,6H,1H2/t3-,4+,6-/m1/s1
