18
gdb 45587	3.00638	1.51348	1.14193	2.5058	73.12	-0.2347	0.0268	0.2615	1067.6597	0.150523	-439.109726	-439.102411	-439.101467	-439.141612	28.583	
O	 0.0719737431	 0.0996837548	 0.5193367842	-0.362001
C	-0.0170561173	 1.229222826	 0.1193302278	 0.400276
C	-1.1576795387	 2.2425189888	-0.1618215547	-0.410476
C	-0.0173580918	 3.273341149	-0.3936065068	 0.022518
C	 0.2491890305	 4.3137005892	 0.6931429865	-0.094277
O	 1.6403686548	 4.6050298145	 0.7497540649	-0.245852
C	 2.4087914133	 3.479583778	 1.1528979095	-0.077381
C	 2.3247014121	 2.3430342679	 0.1205360222	-0.191221
N	 0.936286172	 2.1622392694	-0.2416459296	-0.076075
H	-1.7678316724	 2.0143610376	-1.0370430186	 0.135371
H	-1.8049977725	 2.4315096856	 0.6971393061	 0.131716
H	 0.0170887089	 3.7307998562	-1.3882297081	 0.08783
H	-0.2608355317	 5.2593634096	 0.4901084075	 0.11493
H	-0.0940785215	 3.9307004389	 1.6692372407	 0.091159
H	 3.4383330093	 3.8306463577	 1.2624849927	 0.115483
H	 2.0542192525	 3.1153723283	 2.1306835715	 0.101224
H	 2.9126353012	 2.6001733444	-0.7692936051	 0.117875
H	 2.7063540582	 1.4035294043	 0.5297248794	 0.138901
94.5811	163.395	237.6015	309.49	367.1224	432.4714	475.7763	489.5789	551.9654	617.8138	719.8508	750.819	830.4153	868.8871	908.1648	952.1178	996.887	1013.6483	1058.2896	1061.9452	1097.1523	1125.9048	1152.9608	1169.6795	1211.7015	1247.9101	1257.3332	1301.8791	1324.6712	1349.0272	1379.2299	1388.733	1402.5609	1418.359	1459.5075	1480.9819	1484.2721	1493.8426	1878.924	2964.2612	2979.1447	3029.0931	3048.931	3085.4626	3092.9034	3096.6253	3106.5764	3143.4409
O=C1CC2COCCN12	O=C1C[C@H]2COCCN12	
InChI=1S/C6H9NO2/c8-6-3-5-4-9-2-1-7(5)6/h5H,1-4H2	InChI=1S/C6H9NO2/c8-6-3-5-4-9-2-1-7(5)6/h5H,1-4H2/t5-/m0/s1
