16
gdb 128231	2.64328	1.3065	0.88075	6.0366	76.59	-0.2094	-0.0415	0.1679	1259.8138	0.125413	-434.082606	-434.074103	-434.073159	-434.116036	30.662	
C	 0.0200667932	 1.43077429	 0.0495114505	-0.328692
N	-0.1404842878	-0.0070353561	-0.064548994	-0.393933
C	 0.5487490214	-0.6685103531	-1.0678047458	 0.182468
C	 1.1949419871	-0.115801336	-2.1602521573	-0.114162
N	 1.6678604531	-1.1754776947	-2.8836762428	-0.173442
N	 1.3982066725	-2.3578206389	-2.3587363906	-0.255638
C	 0.704186403	-2.0819277833	-1.2399492556	 0.172529
C	 0.1937936085	-3.1371360362	-0.3665926812	 0.091592
O	 0.35197137	-4.3268918129	-0.5152958833	-0.271524
H	 1.0695581979	 1.7469023884	 0.1643048098	 0.114425
H	-0.385390018	 1.921100196	-0.8426316102	 0.13439
H	-0.5481459503	 1.7876710026	 0.9110305682	 0.131262
H	-0.1366643084	-0.4880855843	 0.8215193517	 0.244961
H	 1.3498506688	 0.9023943495	-2.4731911507	 0.135982
H	 2.1869361158	-1.1348494342	-3.745735457	 0.282316
H	-0.3949419968	-2.7496400067	 0.4985982281	 0.047466
88.9947	140.996	157.2736	187.4077	236.6673	245.1271	355.449	380.4153	500.9405	556.6839	563.8504	666.3558	703.6577	715.5807	750.5633	829.7523	951.8985	1027.4379	1065.973	1092.0628	1135.9903	1162.6249	1195.2405	1278.5688	1346.5827	1366.5841	1413.311	1454.0655	1462.9504	1484.5148	1490.8458	1518.508	1551.2644	1621.0604	1798.1539	2839.9514	2973.9507	3061.2249	3124.4212	3282.3842	3613.2459	3657.4885
CNC1=CNN=C1C=O	CNc1c[nH]nc1C=O	
InChI=1S/C5H7N3O/c1-6-4-2-7-8-5(4)3-9/h2-3,6H,1H3,(H,7,8)	InChI=1S/C5H7N3O/c1-6-4-2-7-8-5(4)3-9/h2-3,6H,1H3,(H,7,8)
