20
gdb 36526	3.74786	0.97637	0.82368	5.0766	79.74	-0.2617	0.0383	0.3001	1399.7552	0.172792	-403.182416	-403.173905	-403.17296	-403.21596	32.213	
N	-0.0197781303	-1.1891178408	 0.0944329384	-0.308946
C	-0.0084663648	-0.0340087708	 0.0981948948	 0.271332
C	-0.0003421989	 1.4273024148	 0.0766535859	-0.363733
C	 1.4174959782	 2.0132844936	 0.0244171952	 0.141526
C	 1.4091963665	 3.5367850044	-0.1497603678	-0.206156
C	 2.8414215816	 4.0858631861	-0.059033254	-0.217177
C	 3.5277826982	 3.5775060973	 1.2163434041	-0.195496
C	 3.4036459713	 2.0560730498	 1.3073838768	-0.067482
O	 2.0460069623	 1.6403507321	 1.2370628804	-0.256412
H	-0.574838331	 1.7700140354	-0.7904632711	 0.148384
H	-0.5034953267	 1.7992780402	 0.975774813	 0.157718
H	 1.9590476313	 1.5596874949	-0.8242262631	 0.081666
H	 0.9509791757	 3.8001797281	-1.1100064842	 0.097949
H	 0.7893091764	 3.9767023031	 0.6423303622	 0.103664
H	 3.4116341401	 3.7522227696	-0.9366550973	 0.100883
H	 2.8328002938	 5.1800885301	-0.0885314565	 0.101843
H	 4.5850729846	 3.864414254	 1.2333193316	 0.099271
H	 3.0533862299	 4.0244084977	 2.0985347902	 0.105865
H	 3.9812721017	 1.5802712341	 0.4965926695	 0.09178
H	 3.78477098	 1.6754847962	 2.258664002	 0.113521
66.5514	97.3091	167.8231	241.6368	296.5574	329.4403	387.6907	397.5722	454.4474	477.771	528.6343	607.6859	809.7274	832.7382	860.9644	874.8069	916.6122	946.3956	966.7849	991.6897	1060.5756	1082.1571	1089.2229	1114.862	1144.3571	1197.9277	1223.5438	1244.7291	1287.0916	1301.9038	1312.8613	1352.1357	1370.132	1378.9644	1385.6872	1398.9478	1418.2998	1451.4955	1473.1864	1482.5609	1492.3719	1503.484	2366.8206	2952.5938	2965.9119	3018.8179	3023.3433	3032.2252	3051.843	3069.6579	3074.2668	3081.4466	3093.9598	3096.8084
N#CCC1CCCCO1	N#CC[C@H]1CCCCO1	
InChI=1S/C7H11NO/c8-5-4-7-3-1-2-6-9-7/h7H,1-4,6H2	InChI=1S/C7H11NO/c8-5-4-7-3-1-2-6-9-7/h7H,1-4,6H2/t7-/m1/s1
