19
gdb 6046	2.97072	1.64607	1.38731	3.2067	67.77	-0.2392	0.0388	0.2779	992.9727	0.162527	-402.233631	-402.223648	-402.222704	-402.268516	35.81	
C	-0.5141426193	 0.9698678262	 0.1847874856	-0.250487
O	-0.1331273838	-0.3474355976	 0.5186405852	-0.297395
C	 0.9587318935	-0.5125491355	 1.4330994187	 0.275409
C	 2.2687598739	 0.056085152	 0.866718118	-0.422018
C	 0.6409061473	 0.0795753519	 2.8146465309	-0.422028
C	 1.1531530468	-2.0396579749	 1.6140310233	 0.37984
N	 0.3009026715	-2.8208876992	 0.9113694309	-0.521916
O	 2.025330071	-2.4695372074	 2.3480129142	-0.392546
H	 0.2930151235	 1.5264859809	-0.3091941268	 0.11438
H	-1.3503594799	 0.8827102411	-0.5135184273	 0.12814
H	-0.8511068259	 1.5423075741	 1.0589244989	 0.114381
H	 2.2647232321	 1.1497073522	 0.8648343379	 0.110338
H	 3.0998363436	-0.2870983998	 1.4855361619	 0.150147
H	 2.4263588484	-0.2970777456	-0.1568353071	 0.121167
H	-0.3424451463	-0.2571678064	 3.1564698658	 0.121158
H	 1.3934639045	-0.2623792759	 3.527477888	 0.150148
H	 0.6512785158	 1.1729891553	 2.7954502909	 0.110343
H	-0.3960058729	-2.3968537752	 0.3243315764	 0.272663
H	 0.3822350763	-3.8201351461	 0.9919796548	 0.258275
40.3122	59.2494	183.4007	219.5178	223.7818	268.4877	273.1532	284.5701	329.5319	334.4608	411.4704	425.4474	482.3205	579.6474	638.5311	707.0858	777.7734	834.8367	929.0554	955.616	1015.6205	1096.6921	1116.0662	1180.5596	1187.4409	1197.4124	1210.2928	1246.9889	1375.4484	1382.7698	1403.5169	1476.4505	1477.9713	1484.1536	1498.8616	1502.6992	1506.8621	1517.1098	1585.3755	1790.9366	3003.2866	3041.6565	3046.8735	3059.0521	3110.9807	3113.0876	3116.5016	3139.6759	3143.886	3605.4686	3749.2075
COC(C)(C)C(N)=O	COC(C)(C)C(=O)N	
InChI=1S/C5H11NO2/c1-5(2,8-3)4(6)7/h1-3H3,(H2,6,7)	InChI=1S/C5H11NO2/c1-5(2,8-3)4(6)7/h1-3H3,(H2,6,7)
