20
gdb 113304	2.10183	1.20469	0.99463	3.5696	80.95	-0.257	0.0338	0.2908	1324.6879	0.169028	-403.145425	-403.135313	-403.134369	-403.180723	36.108	
C	 0.181481804	 1.2961518886	-0.1700760558	-0.386661
C	-0.0538717008	-0.1478772936	 0.2842357157	-0.260937
C	-1.4926470433	-0.6133324907	 0.0857593778	 0.125627
C	-1.9404765127	-1.02618286	-1.3215925416	-0.35205
C	-1.7819638353	-2.0808781038	-0.2877547152	 0.08244
O	-0.7260619261	-2.9594683042	-0.4369772112	-0.230012
C	-0.417901785	-3.6701742333	 0.7529327731	-0.245356
C	-2.4751549327	 0.0284002391	 0.9184728644	 0.242255
N	-3.2616926529	 0.5361016525	 1.5999950768	-0.353278
H	 1.2230437602	 1.5876501502	-0.0060414123	 0.118599
H	-0.0389474282	 1.4162675386	-1.235703518	 0.119775
H	-0.4549387676	 1.992949023	 0.3841485435	 0.139152
H	 0.5950586125	-0.8341878953	-0.2675871806	 0.12041
H	 0.208832309	-0.2478861001	 1.343849487	 0.112422
H	-2.938136815	-0.761761696	-1.6499461828	 0.140147
H	-1.170818202	-0.9739675023	-2.0838695755	 0.138503
H	-2.6824321569	-2.514719328	 0.1478384759	 0.110708
H	 0.3945769526	-4.3574332302	 0.5097413978	 0.136465
H	-0.0946538239	-2.9950963236	 1.556061892	 0.121392
H	-1.2840801758	-4.2473459811	 1.105796309	 0.120398
83.2437	94.224	110.5161	155.0181	161.0239	209.448	220.6392	270.0378	336.1318	362.1309	476.1322	505.036	574.1506	610.1171	665.8664	790.3078	812.1974	877.8121	922.118	982.5723	1007.8946	1043.991	1080.9585	1092.1641	1101.7754	1138.5434	1179.3598	1183.0065	1239.0406	1258.631	1284.723	1324.9821	1362.0887	1408.4183	1414.3598	1467.3073	1486.9874	1488.4544	1493.1137	1497.4249	1505.694	1509.0222	2340.2278	2999.0049	3037.63	3039.6547	3057.1943	3087.6961	3103.4534	3110.5608	3115.4208	3132.0264	3145.5459	3239.7955
CCC1(CC1OC)C#N	CC[C@]1(C[C@H]1OC)C#N	
InChI=1S/C7H11NO/c1-3-7(5-8)4-6(7)9-2/h6H,3-4H2,1-2H3	InChI=1S/C7H11NO/c1-3-7(5-8)4-6(7)9-2/h6H,3-4H2,1-2H3/t6-,7+/m1/s1
