16
gdb 21162	3.35043	1.82733	1.20088	3.4073	67.77	-0.1854	0.035	0.2204	976.0925	0.132947	-376.101693	-376.093588	-376.092643	-376.134576	29.354	
C	-0.0203294815	 1.440167779	 0.0529984014	-0.322677
N	 0.039007682	-0.0024176691	-0.1193846789	-0.401515
C	-1.175418632	-0.6996357983	-0.0337658452	 0.199878
C	-1.3205857863	-2.0810332919	-0.0253948901	 0.215653
N	-0.4011363606	-3.1468888455	-0.0871468836	-0.619382
N	-2.6634821268	-2.3109640107	 0.0137222864	-0.198728
N	-3.3990630593	-1.193499938	 0.0342435082	-0.238636
C	-2.499769571	-0.2054668164	 0.0029845097	-0.079355
H	 0.9917341124	 1.8492167961	-0.0006905539	 0.118852
H	-0.6023725895	 1.8824477808	-0.7622781	 0.135149
H	-0.4773799195	 1.759554904	 1.0042228962	 0.108747
H	 0.7519193118	-0.4205884948	 0.4650479505	 0.220581
H	 0.353994977	-2.9378274332	-0.7317407805	 0.248674
H	 0.0116432845	-3.3680795346	 0.8143506336	 0.24309
H	-3.1085847742	-3.2134576462	 0.0118382338	 0.269272
H	-2.834652667	 0.8208170986	 0.0081533224	 0.100399
43.9213	168.4135	184.4006	209.3487	262.1391	306.7565	336.7521	495.1582	512.1213	592.8864	664.5118	678.6761	718.6751	782.306	796.0476	849.8942	950.9424	1076.2834	1130.9088	1149.784	1161.1694	1185.1934	1232.7747	1272.183	1311.2417	1397.8218	1424.5597	1464.0505	1475.963	1489.0477	1520.6893	1551.7269	1633.6164	1664.2931	2967.0014	3066.5254	3114.7218	3248.9672	3487.7627	3544.0952	3564.3722	3669.0707
CNC1=C(N)NN=C1	CNc1c(N)[nH]nc1	
InChI=1S/C4H8N4/c1-6-3-2-7-8-4(3)5/h2,6H,1H3,(H3,5,7,8)	InChI=1S/C4H8N4/c1-6-3-2-7-8-4(3)5/h2,6H,1H3,(H3,5,7,8)
