17
gdb 76584	3.34849	0.81061	0.77155	4.5077	90.05	-0.2441	-0.0472	0.1968	1514.301	0.134475	-380.829776	-380.820263	-380.819319	-380.86461	33.696	
C	 2.0340909847	-0.8299904843	 2.6178677499	-0.42531
C	 1.1194592068	-1.1163825266	 1.4491922554	 0.013514
C	 0.2055685138	-0.0626172139	 0.8560677189	-0.248736
C	 0.2307970524	 1.2753240383	 1.3571428741	 0.163662
C	 0.2225873748	 2.4212206298	 1.7492511558	 0.00412
C	 0.2177450247	 3.7079704656	 2.2004779659	 0.20324
N	 0.2166198974	 4.804633736	 2.5860790711	-0.337606
N	 1.3430285872	-0.6269369564	 0.1010365499	-0.092682
C	 2.4940108591	 0.2163779156	-0.2025552216	-0.321071
H	 2.9424932383	-1.4373968904	 2.5472462351	 0.13329
H	 2.3247183023	 0.2196720777	 2.683886739	 0.139381
H	 1.5297684218	-1.0947031477	 3.5522667499	 0.136402
H	 0.6990988164	-2.1218336295	 1.4584257575	 0.108142
H	-0.7682507813	-0.3717194001	 0.4810419615	 0.130164
H	 2.2910726661	 0.7543742045	-1.1326802087	 0.138514
H	 2.7511756291	 0.9535138892	 0.5683082144	 0.121673
H	 3.3579055866	-0.434094488	-0.3667509983	 0.133303
72.7283	76.9766	160.2446	169.664	185.9544	204.1924	268.972	340.2003	370.9895	477.0263	497.7048	554.9683	577.4676	609.3617	698.9004	768.9156	784.793	915.911	990.2028	1040.6051	1075.6509	1129.7418	1150.8628	1161.6056	1189.4011	1215.5348	1332.2692	1365.7319	1397.8984	1419.0881	1456.7659	1485.4625	1487.0336	1498.0538	1510.0188	2255.1977	2383.8663	3018.8772	3046.0747	3090.5986	3104.0066	3106.506	3117.597	3123.3879	3140.5427
CC1C(C#CC#N)N1C	C[C@H]1[C@@H](C#CC#N)N1C	
InChI=1S/C7H8N2/c1-6-7(9(6)2)4-3-5-8/h6-7H,1-2H3	InChI=1S/C7H8N2/c1-6-7(9(6)2)4-3-5-8/h6-7H,1-2H3/t6-,7+,9?/m0/s1
