15
gdb 51308	3.14531	1.23556	0.89688	2.9071	71.2	-0.2495	-0.0748	0.1747	1220.4458	0.113238	-454.004486	-453.996423	-453.995479	-454.038015	28.593	
O	-0.4330639928	 0.1269610973	 0.0024211722	-0.260832
C	-0.0993803833	 1.2808814417	 0.0071980011	 0.156421
N	 1.2021764169	 1.7523782395	-0.0013611995	-0.381548
C	 2.3825312823	 1.0410721962	-0.016390818	 0.318827
N	 2.5594515822	-0.2225221764	-0.028074713	-0.244255
C	 4.0063330744	-0.5017003951	-0.0420230532	-0.17256
C	 4.7676054958	 0.8412222898	-0.0375056841	-0.357302
C	 3.6455153302	 1.8628812431	-0.0193924949	 0.348448
O	 3.6839425397	 3.0691679614	-0.0110975378	-0.326821
H	-0.8130149445	 2.1285164637	 0.0206878535	 0.088393
H	 1.3445998886	 2.7559020826	 0.0056371163	 0.26867
H	 4.2449620585	-1.1217534281	 0.8283967737	 0.131319
H	 4.2306547481	-1.1076840376	-0.9260564294	 0.13133
H	 5.4089015755	 0.9791807433	 0.8379580079	 0.149918
H	 5.3940129885	 0.9936093986	-0.9213115751	 0.149992
62.8832	102.9446	146.8436	190.7353	256.7762	277.88	429.1916	512.2414	592.0223	646.6949	688.1171	688.2877	754.132	820.5655	873.7417	970.0018	1014.1877	1022.6856	1028.8045	1051.0579	1170.5439	1179.4002	1232.1851	1248.2303	1293.6856	1337.0542	1440.4265	1441.4527	1492.6395	1553.0168	1708.1176	1829.3311	1843.4202	2938.941	3049.7357	3067.6565	3078.3029	3109.5122	3562.3065
O=CNC1=NCCC1=O	O=CNC1=NCCC1=O	
InChI=1S/C5H6N2O2/c8-3-7-5-4(9)1-2-6-5/h3H,1-2H2,(H,6,7,8)	InChI=1S/C5H6N2O2/c8-3-7-5-4(9)1-2-6-5/h3H,1-2H2,(H,6,7,8)
