22
gdb 40292	2.45973	1.54619	1.17238	1.2689	81.65	-0.2437	0.071	0.3148	1144.8822	0.19707	-404.324872	-404.316464	-404.31552	-404.358031	32.921	
C	-0.0366025257	 1.5389977672	-0.058026314	-0.297377
N	 1.2322296323	 0.7963212937	 0.0141015881	-0.344782
C	-0.0408774426	 0.05299396	 0.0250429763	 0.344376
C	-0.3772107601	-0.6423690232	 1.3347592902	-0.27873
C	 0.6070122488	-1.756206151	 1.7581176688	-0.184995
C	 1.2363739426	-2.5893164859	 0.6222328425	-0.199009
C	 0.3575489035	-2.8691282309	-0.6035715171	-0.0706
O	 0.3749393785	-1.8095501685	-1.5504084975	-0.240748
C	-0.4391929525	-0.6981244742	-1.2374554691	-0.161461
H	-0.2737359596	 2.1271198049	 0.8246626495	 0.115157
H	-0.3176662545	 2.007656159	-0.9982920989	 0.108277
H	 1.6580813822	 0.7342591611	-0.9083216528	 0.233107
H	-0.4258090026	 0.0986256353	 2.1390079229	 0.099688
H	-1.3902523782	-1.054157968	 1.2422168818	 0.094377
H	 1.4232367121	-1.3054126684	 2.3310217953	 0.112453
H	 0.0805825145	-2.4218124895	 2.452587248	 0.092228
H	 2.1332858453	-2.085381547	 0.2459236628	 0.117506
H	 1.5718091544	-3.5476998791	 1.036685061	 0.090421
H	 0.7529086757	-3.7350821491	-1.1442023706	 0.10506
H	-0.6796747014	-3.1078130204	-0.3137537012	 0.08307
H	-1.4940033508	-1.0119196915	-1.1501790483	 0.087288
H	-0.359669012	-0.0343372344	-2.1054353378	 0.094696
60.9638	122.5225	171.1138	275.5405	302.7744	339.9986	375.0957	416.5166	439.6928	553.5402	564.8805	720.5661	772.6912	798.593	862.4738	899.5108	913.5262	932.7228	955.6257	975.2912	993.0846	1015.6632	1042.084	1081.3575	1101.4255	1115.4984	1134.6446	1154.1357	1215.5609	1224.4984	1265.0656	1267.2646	1299.5932	1326.416	1341.6198	1367.2029	1375.2975	1387.0743	1395.6734	1414.4263	1429.0425	1474.478	1479.0341	1486.8391	1493.6534	1504.2408	1516.6344	2954.1052	2966.7465	3023.2342	3028.9669	3038.8695	3061.9422	3063.9544	3071.6634	3075.9493	3089.2763	3101.0316	3184.3203	3488.56
C1NC11CCCCOC1	C1N[C@]21CCCCOC2	
InChI=1S/C7H13NO/c1-2-4-9-6-7(3-1)5-8-7/h8H,1-6H2	InChI=1S/C7H13NO/c1-2-4-9-6-7(3-1)5-8-7/h8H,1-6H2/t7-/m0/s1
