16
gdb 26628	3.26838	1.25776	0.9186	4.4549	79.05	-0.2367	-0.0252	0.2115	1221.8377	0.12391	-400.812213	-400.803351	-400.802407	-400.846249	31.296	
C	 0.1141571674	 1.4919850718	-0.0046172077	-0.491973
C	-0.0557391397	 0.0162433462	-0.0359127803	 0.291072
C	-1.1331174145	-0.8125082793	 0.0329115498	 0.038579
C	-2.5805082666	-0.4628487377	 0.1711355955	-0.512769
C	-0.5920399984	-2.1541380972	-0.0566422692	 0.095471
C	 0.7612179274	-2.020315833	-0.1714743791	-0.122434
O	 1.0993620544	-0.7190636354	-0.160495111	-0.17359
C	-1.3233008651	-3.3661191317	-0.0302657662	 0.2036
N	-1.9441311689	-4.3438338453	-0.0063115932	-0.348846
H	 0.7423261393	 1.8031916587	 0.837358344	 0.146298
H	 0.5879945098	 1.858271855	-0.9220445759	 0.146297
H	-0.8564327532	 1.9810613441	 0.0958337388	 0.141992
H	-3.163670923	-0.8458275244	-0.6732916323	 0.146859
H	-3.0093405265	-0.8997327158	 1.0794588814	 0.14685
H	-2.7274521408	 0.6186807674	 0.2173409437	 0.12845
H	 1.5628705984	-2.7337390536	-0.2643125983	 0.164144
76.2166	105.2226	122.9002	131.8326	252.9226	267.3205	282.5058	380.5582	507.1113	525.7522	575.3928	628.4219	686.0343	690.154	735.7287	785.2287	927.2221	973.4779	1058.9484	1069.9714	1115.7778	1168.1656	1202.1765	1240.2127	1303.0563	1390.5593	1425.3818	1428.6617	1471.3851	1480.2694	1488.0006	1492.1691	1583.3365	1674.1125	2346.6119	3035.9028	3037.8933	3087.617	3089.8184	3123.2362	3137.8785	3284.9332
CC1=C(C)C(=CO1)C#N	Cc1c(C)c(co1)C#N	
InChI=1S/C7H7NO/c1-5-6(2)9-4-7(5)3-8/h4H,1-2H3	InChI=1S/C7H7NO/c1-5-6(2)9-4-7(5)3-8/h4H,1-2H3
