19
gdb 38229	3.14546	2.03688	1.71629	1.568	79.5	-0.215	0.0586	0.2737	859.6778	0.161884	-385.75613	-385.750046	-385.749102	-385.785965	27.543	
C	-0.015287442	 1.7631683786	 0.0005637393	-0.191324
C	 1.4786080735	 1.5251627613	 0.0804969843	-0.049258
C	 1.0890264641	 0.2888894865	 1.0276758699	-0.32714
C	-0.0639538261	 0.185018897	-0.0636452235	 0.226445
C	-1.3798016609	-0.1736968643	-0.7490403145	-0.186985
O	-1.1002850483	 0.4964378653	-2.0361251669	-0.276644
C	 0.3034633853	 0.3909734837	-2.2760394974	 0.047853
C	 1.6404992851	 0.9141562646	-1.3505334487	-0.109797
C	 0.9005492956	-0.3474499266	-1.2015196746	-0.076774
H	-0.4673757199	 2.0728089964	 0.9480847728	 0.082056
H	-0.4051912166	 2.3536059521	-0.8240983002	 0.120355
H	 2.1868411444	 2.2877181882	 0.4075958164	 0.062904
H	 1.7726022044	-0.5596148723	 1.1036290333	 0.100354
H	 0.7782302615	 0.6237936656	 2.0192614424	 0.104167
H	-1.5593821379	-1.2405184068	-0.9245046371	 0.103432
H	-2.2718144139	 0.2989566198	-0.3344877755	 0.115538
H	 0.5270943445	 0.296434224	-3.3328853527	 0.10198
H	 2.5581344975	 0.9982664354	-1.9261439477	 0.077647
H	 1.2486103898	-1.3758074386	-1.1335770493	 0.075192
281.4769	340.0519	384.4432	471.0487	526.3497	530.062	593.9771	643.0093	692.6574	753.1353	782.7619	814.8211	839.3063	847.325	872.0711	889.9541	927.2157	941.7245	968.1842	984.4003	1003.9977	1034.6938	1041.5767	1075.2832	1090.3402	1133.2617	1150.4871	1161.2236	1182.5121	1201.8059	1215.4951	1216.806	1234.9208	1270.0419	1281.3158	1293.4947	1318.2656	1415.4816	1491.1839	1506.8652	1535.7708	3035.6494	3052.417	3066.0462	3104.0013	3112.9005	3122.3181	3133.2505	3152.3548	3163.0577	3178.1684
C1C2CC11COC3C2C13	C1[C@H]2C[C@]31CO[C@H]1[C@@H]2[C@@H]31	
InChI=1S/C8H10O/c1-4-2-8(1)3-9-7-5(4)6(7)8/h4-7H,1-3H2	InChI=1S/C8H10O/c1-4-2-8(1)3-9-7-5(4)6(7)8/h4-7H,1-3H2/t4-,5-,6+,7-,8+/m0/s1
