17
gdb 38510	3.76899	1.42989	1.13348	2.0054	73.16	-0.2277	0.0028	0.2305	1054.7684	0.137825	-421.807699	-421.80074	-421.799796	-421.839192	27.081	
C	-0.0665204151	 1.4777471293	 0.0370830113	-0.180181
O	 1.2660062879	 1.8992899032	-0.2814521814	-0.273959
C	 2.1031172895	 0.7746392383	-0.5856968597	-0.190501
C	 1.2418836321	-0.409389877	-0.282772378	 0.25297
C	 0.0215865687	-0.0142814753	 0.0813689385	 0.222335
C	-0.9194999016	-1.1631440103	 0.3424925228	-0.386122
C	-0.0385691689	-2.371206375	-0.0095487988	 0.060215
O	 0.392874507	-2.4221185771	-1.3688942655	-0.251446
C	 1.3109993205	-1.8914449613	-0.3824213508	-0.134075
H	-0.3666532109	 1.9300007335	 0.9942280959	 0.10817
H	-0.7741062093	 1.8376244514	-0.7282727444	 0.107177
H	 2.4171557304	 0.8099488838	-1.6413938367	 0.111078
H	 3.0140581217	 0.8318789865	 0.027971731	 0.108204
H	-1.256638927	-1.208474021	 1.3858187917	 0.116482
H	-1.8185465302	-1.1300374135	-0.2845686643	 0.130744
H	-0.2202484518	-3.3363403198	 0.4561694932	 0.099611
H	 2.220715027	-2.4667423558	-0.2425411847	 0.099299
128.3152	156.8219	197.9475	337.5159	382.5582	417.5849	531.5306	601.4554	696.2118	749.0039	829.4813	851.9254	868.5098	892.5358	913.279	965.6176	975.9996	1024.9868	1049.8156	1069.6141	1085.9364	1102.3992	1158.7116	1186.7677	1213.7234	1220.2138	1230.4987	1257.8907	1310.2597	1320.8561	1392.132	1397.489	1415.4929	1462.4889	1515.9868	1525.8128	1711.7582	2964.169	2973.6124	2997.3429	3003.412	3029.2958	3065.6813	3146.772	3168.7093
C1OCC2=C1CC1OC21	C1OCC2=C1C[C@H]1O[C@@H]21	
InChI=1S/C7H8O2/c1-4-2-8-3-5(4)7-6(1)9-7/h6-7H,1-3H2	InChI=1S/C7H8O2/c1-4-2-8-3-5(4)7-6(1)9-7/h6-7H,1-3H2/t6-,7+/m1/s1
