21
gdb 116153	2.48235	1.26601	0.88877	1.6657	75.34	-0.2595	0.0871	0.3466	1330.8567	0.182883	-461.374141	-461.365099	-461.364155	-461.407781	34.474	
C	-0.0013750518	 1.457272903	 0.143551634	-0.409257
C	 0.0481656072	-0.0527589387	 0.0691319995	 0.223026
O	 0.6957976909	-0.4199124781	-1.1242984045	-0.245394
C	 0.7906324699	-1.8309307283	-1.2628317634	-0.092307
C	 1.5212111221	-2.4427135437	-0.0645622666	-0.219505
C	 0.8493443607	-1.9601986589	 1.2216642198	 0.102798
C	 1.6085697114	-2.2977659785	 2.498196821	-0.07062
O	 0.9487679938	-1.7932905455	 3.6399612678	-0.425489
O	 0.7428050123	-0.5327682156	 1.2020842799	-0.282683
H	 1.0158601119	 1.8562030404	 0.1429185897	 0.135819
H	-0.5399552653	 1.8545138473	-0.7195167644	 0.128838
H	-0.5080267065	 1.7707183259	 1.0591452673	 0.123624
H	-0.9692128329	-0.4923232789	 0.0719374075	 0.054962
H	-0.2189891997	-2.2671327715	-1.3511701666	 0.090225
H	 1.3217401356	-2.0156448201	-2.1999560609	 0.113081
H	 1.4997918593	-3.5367134705	-0.1230249494	 0.101687
H	 2.5676749746	-2.1181677477	-0.0720642844	 0.112519
H	-0.1662733037	-2.3864951723	 1.2928222867	 0.072363
H	 1.6735244512	-3.3849267865	 2.6131864489	 0.105958
H	 2.6345706193	-1.9035837962	 2.414794134	 0.09077
H	 0.7536241396	-0.8699323655	 3.439582884	 0.289586
106.4504	133.3433	162.5995	201.6768	208.7595	289.4703	322.553	390.1286	436.9766	466.5362	485.4928	515.2352	553.0971	655.7618	816.8255	856.8211	902.8043	928.2558	954.0618	969.2869	1048.6448	1082.6875	1083.7928	1102.2163	1127.1699	1148.4777	1172.1347	1177.1163	1228.2679	1255.7524	1268.6071	1316.7002	1356.429	1381.0252	1385.4966	1394.9462	1405.0669	1421.4693	1437.8681	1444.2237	1467.9452	1482.1296	1489.0022	1498.8838	1504.5089	2906.1063	2956.5154	2967.061	2978.159	3039.5494	3058.6014	3075.5368	3089.1709	3096.2093	3139.9888	3141.7852	3790.9679
CC1OCCC(CO)O1	C[C@H]1OCC[C@@H](CO)O1	
InChI=1S/C6H12O3/c1-5-8-3-2-6(4-7)9-5/h5-7H,2-4H2,1H3	InChI=1S/C6H12O3/c1-5-8-3-2-6(4-7)9-5/h5-7H,2-4H2,1H3/t5-,6-/m0/s1
