18
gdb 70128	2.35281	1.96957	1.24528	2.8858	77.97	-0.2093	0.0015	0.2108	1021.2828	0.149466	-401.996079	-401.988219	-401.987275	-402.028077	31.122	
C	-0.0407976319	 1.4988831705	 0.0014502114	-0.457866
C	 0.016468531	-0.0141270391	 0.0041848606	 0.187773
C	-0.8207423022	-0.7629388089	 1.0216162964	-0.315441
C	 0.6828005853	-0.7593840271	 1.1730769979	-0.131057
C	 1.4376757238	-1.9878496581	 0.8529887354	-0.11068
C	 1.3947481897	-2.5069909733	-0.3769352402	-0.009117
N	 0.7052950362	-1.8841219254	-1.4199917898	-0.356134
C	 0.1513156791	-0.6171936692	-1.3619620269	 0.379831
O	-0.1876809574	-0.0379670593	-2.3778243047	-0.37287
H	 0.8773351874	 1.9304146345	-0.4093038624	 0.125665
H	-0.8734420968	 1.8461621358	-0.6153818471	 0.141853
H	-0.17355494	 1.8797991315	 1.0183264468	 0.1064
H	-1.4034985687	-0.1497267981	 1.7001048578	 0.120952
H	-1.2927004589	-1.6940398839	 0.7285325264	 0.126445
H	 1.0845113152	-0.133574912	 1.9643471586	 0.093575
H	 2.0090540628	-2.4820054154	 1.6285861413	 0.099157
H	 1.8917082638	-3.4296369619	-0.650236949	 0.118469
H	 0.7982947815	-2.2444172106	-2.3579107326	 0.253045
110.9938	180.1316	212.9161	266.0192	303.8924	365.7558	445.4713	493.8898	541.5246	558.2727	617.3745	659.1579	729.5578	758.1908	808.5779	834.5493	885.9572	907.4117	929.7616	972.1143	1017.6906	1055.7069	1061.2661	1102.5532	1115.8715	1123.6838	1180.2144	1237.4534	1275.8191	1355.6237	1406.7024	1414.1335	1429.764	1466.1209	1478.9122	1485.9272	1499.2571	1718.3494	1778.3013	3041.3358	3108.2638	3123.2352	3133.2995	3149.8058	3199.3159	3218.9629	3224.5715	3624.3561
CC12CC1C=CNC2=O	C[C@]12C[C@H]1C=CNC2=O	
InChI=1S/C7H9NO/c1-7-4-5(7)2-3-8-6(7)9/h2-3,5H,4H2,1H3,(H,8,9)	InChI=1S/C7H9NO/c1-7-4-5(7)2-3-8-6(7)9/h2-3,5H,4H2,1H3,(H,8,9)/t5-,7+/m1/s1
