21
gdb 110030	2.09567	1.66093	1.07265	3.8534	79.22	-0.2253	0.0634	0.2887	1197.1593	0.183883	-420.467801	-420.458327	-420.457383	-420.502365	34.9	
C	 0.0584728295	 1.4728434951	 0.2135268509	-0.381845
C	 0.001752198	-0.0371469272	-0.0468160757	-0.149695
N	 0.6577927754	-0.4650406162	-1.2686235945	-0.091987
C	 0.0012964561	-0.7062065435	-2.5475628206	 0.026811
C	-0.5215498665	 0.5656840066	-3.2274322921	-0.39396
C	 1.1451026898	-1.3870423574	-3.3478268705	-0.183963
N	 2.3331795744	-0.8765707415	-2.6780400224	-0.363094
C	 2.0291018221	-0.545610092	-1.3569771502	 0.449384
O	 2.8230419678	-0.3491224603	-0.4588026944	-0.434996
H	 1.1000711133	 1.7985744957	 0.2693430719	 0.149696
H	-0.443384203	 2.0426892819	-0.5738157591	 0.1133
H	-0.4268905924	 1.708843255	 1.1664177577	 0.111605
H	 0.4893279896	-0.5575060043	 0.7840884389	 0.130883
H	-1.0362783019	-0.3858378513	-0.0878018255	 0.098166
H	-0.8335821195	-1.4047325405	-2.4122017046	 0.083617
H	 0.2954571313	 1.2711940118	-3.4068682056	 0.134279
H	-0.9860282402	 0.3180565155	-4.1880749429	 0.115097
H	-1.2765007525	 1.060666472	-2.6100073756	 0.122563
H	 1.0672365898	-2.4817378092	-3.2822045546	 0.103894
H	 1.1199778607	-1.1037663873	-4.4043007366	 0.111718
H	 3.2221602081	-1.332147833	-2.8137407845	 0.248527
67.8737	87.2329	104.8478	199.6776	212.6776	270.456	290.548	337.9087	358.4177	446.648	520.3598	531.0913	650.1963	727.9709	761.5489	767.2107	784.2556	860.0706	951.6436	959.0818	990.4848	1058.5917	1082.1929	1101.931	1126.1324	1144.874	1182.1086	1238.2548	1260.768	1273.5564	1321.1119	1367.6849	1380.2495	1392.7199	1404.6575	1406.8715	1427.0317	1452.297	1480.1203	1487.3737	1493.0027	1500.9102	1508.1627	1530.4077	1821.2056	2993.1713	3023.5823	3035.3423	3038.6321	3042.2708	3072.5405	3081.4389	3105.9524	3111.9746	3119.6184	3132.975	3635.3929
CCN1C(C)CNC1=O	CCN1[C@@H](C)CNC1=O	
InChI=1S/C6H12N2O/c1-3-8-5(2)4-7-6(8)9/h5H,3-4H2,1-2H3,(H,7,9)	InChI=1S/C6H12N2O/c1-3-8-5(2)4-7-6(8)9/h5H,3-4H2,1-2H3,(H,7,9)/t5-/m0/s1
