22
gdb 31657	2.65463	1.16886	0.87562	1.7836	91.74	-0.1933	0.05	0.2433	1423.7039	0.193676	-367.261886	-367.251593	-367.250649	-367.297609	37.044	
C	 0.0422383931	 1.578090368	-0.0383683219	-0.363236
C	-0.0118909051	 0.0424226686	 0.0535046089	-0.294779
C	-1.4070682085	-0.5146800463	 0.0331550216	 0.182411
C	-2.1311654359	-0.9407920706	 1.1253813677	-0.197243
N	-3.3600508746	-1.3824887251	 0.7020432977	 0.018384
C	-4.4408408595	-1.8152241306	 1.5587244297	-0.332482
C	-3.4313095096	-1.2319638255	-0.6612250122	-0.188127
C	-2.244008734	-0.702580933	-1.1154961355	 0.178109
C	-1.8936942779	-0.4152052794	-2.544876567	-0.506309
H	 1.0764549747	 1.9387590268	-0.0230561696	 0.103138
H	-0.4253010264	 1.9377427205	-0.960481625	 0.118044
H	-0.4916926717	 2.0350443176	 0.8008555444	 0.113565
H	 0.5704563452	-0.3832762583	-0.7742550055	 0.096049
H	 0.4930313692	-0.2773719808	 0.9728622732	 0.093798
H	-1.8667315599	-0.9740775045	 2.1716782385	 0.107094
H	-5.0725178595	-0.9782111238	 1.8813636752	 0.133644
H	-5.0666287942	-2.5367064195	 1.0270880804	 0.13694
H	-4.0338341643	-2.3048066924	 2.4472163852	 0.136996
H	-4.3203876048	-1.5228996735	-1.2001834554	 0.106757
H	-1.741156635	 0.6553157613	-2.7293541357	 0.121966
H	-0.9695997903	-0.9222318046	-2.8489032651	 0.120427
H	-2.6876793207	-0.7516968949	-3.2184484995	 0.114852
53.0826	84.6173	121.8133	127.2536	176.7706	192.4213	256.241	260.9265	284.7616	392.5338	458.7004	595.7038	606.9149	616.7609	665.8617	722.5942	756.8479	758.866	798.7177	963.9251	1006.0629	1037.0401	1059.2148	1062.4652	1084.6416	1092.1643	1147.3776	1177.7037	1189.4868	1242.4478	1290.8149	1350.0064	1399.0729	1402.293	1406.579	1414.8596	1432.094	1461.025	1479.4053	1483.9506	1489.3092	1496.5396	1499.6603	1506.6835	1515.0238	1575.9813	1612.6779	3015.1151	3017.3402	3021.5605	3031.2487	3051.473	3061.0716	3090.5403	3098.3364	3099.9037	3107.4613	3124.6234	3240.6712	3244.8518
CCC1=CN(C)C=C1C	CCc1cn(C)cc1C	
InChI=1S/C8H13N/c1-4-8-6-9(3)5-7(8)2/h5-6H,4H2,1-3H3	InChI=1S/C8H13N/c1-4-8-6-9(3)5-7(8)2/h5-6H,4H2,1-3H3
