23
gdb 96153	2.46423	1.49869	1.02793	1.1671	85.89	-0.2322	0.0837	0.3159	1241.9692	0.207455	-388.2928	-388.284268	-388.283324	-388.325424	34.467	
C	 0.0075474038	 1.5371870798	 0.0927540034	-0.393394
C	-0.0135342599	 0.0139966209	 0.0114119816	 0.137027
C	 0.6566696226	-0.4989335201	-1.2712485089	-0.170231
C	 0.6514874912	-2.0211529088	-1.4882154419	-0.205208
C	 1.3876803977	-2.8130859042	-0.3925434152	-0.213922
C	 0.5751434347	-2.9473964788	 0.8840096057	-0.032773
C	 1.1896449517	-2.6348199064	 2.23611007	-0.336617
C	 0.1868852449	-1.699175461	 1.6343917717	 0.121065
O	 0.6590995298	-0.4681448987	 1.1832724188	-0.264122
H	 1.0399885567	 1.9014836126	 0.1011642591	 0.122602
H	-0.5086263951	 1.9826863842	-0.7629454261	 0.110148
H	-0.4792788996	 1.8768651472	 1.0106648486	 0.118179
H	-1.0586351978	-0.3341911894	 0.0364124538	 0.063071
H	 0.1636551739	-0.0162141563	-2.1251450748	 0.088509
H	 1.6952561731	-0.1408502306	-1.2685230086	 0.097362
H	-0.3824782643	-2.383838906	-1.5684462009	 0.090066
H	 1.1208618159	-2.2254169749	-2.4584595985	 0.089403
H	 1.6368616903	-3.8145208941	-0.7626431302	 0.092483
H	 2.3422999882	-2.319322182	-0.1786910311	 0.100154
H	-0.1735877318	-3.7357854427	 0.864500893	 0.080069
H	 0.8989568104	-3.2198261046	 3.1016393599	 0.108882
H	 2.2202082698	-2.2963784471	 2.2407134625	 0.120999
H	-0.8085406762	-1.6562635692	 2.080198218	 0.076249
120.9767	165.0377	217.4424	247.8762	276.7884	317.4588	354.202	382.9787	454.6169	464.9605	518.5744	632.1984	749.2011	788.0724	811.5248	847.4985	863.8616	889.0394	944.0324	952.0841	973.249	1027.6977	1036.8549	1046.7239	1072.1228	1095.8242	1114.015	1130.211	1153.4198	1169.8202	1187.0238	1232.0554	1242.4618	1253.5818	1295.5837	1336.6685	1345.15	1373.1669	1382.9558	1399.6799	1404.562	1407.8175	1423.3862	1469.3871	1477.9802	1486.476	1490.1131	1493.9718	1499.0928	2972.9984	3010.2486	3012.9587	3029.1471	3040.5377	3050.1467	3056.8334	3069.5791	3078.2341	3112.3083	3120.7225	3131.4346	3135.2484	3222.4791
CC1CCCC2CC2O1	C[C@H]1CCC[C@H]2C[C@H]2O1	
InChI=1S/C8H14O/c1-6-3-2-4-7-5-8(7)9-6/h6-8H,2-5H2,1H3	InChI=1S/C8H14O/c1-6-3-2-4-7-5-8(7)9-6/h6-8H,2-5H2,1H3/t6-,7-,8+/m0/s1
