17
gdb 113484	4.56636	0.93959	0.93015	1.7955	68.46	-0.2599	0.0662	0.326	1285.4536	0.134346	-458.886118	-458.87795	-458.877006	-458.919364	30.658	
O	 0.048572503	 1.2990506013	-0.5171704264	-0.416131
C	 0.0462449015	 0.1385739056	 0.2963111215	-0.080126
C	-1.3258830542	-0.4811052886	 0.3661384135	-0.076151
O	-1.7439891357	-1.151653964	-0.8527012297	-0.304036
C	-1.5431072098	-1.9248577113	 0.315474173	 0.435025
C	-0.5868924517	-3.146403896	 0.3329200875	-0.35037
C	-1.7473540195	-3.9438513634	 0.9570707168	 0.033583
O	-2.1162676853	-3.2691667288	 2.1641129164	-0.238456
C	-2.6487550706	-2.7778446182	 0.9248589534	-0.09098
H	-0.2707561567	 1.0290967604	-1.385748293	 0.293121
H	 0.7684705948	-0.6099297922	-0.062100004	 0.093899
H	 0.3605690056	 0.4598688188	 1.2951491868	 0.118557
H	-2.1012450805	 0.1491849893	 0.8029138258	 0.104133
H	-0.3430226437	-3.4557395943	-0.6866602197	 0.126591
H	 0.3199111054	-3.0839601964	 0.9382317983	 0.119815
H	-1.9657428507	-5.0022260086	 0.8857346271	 0.114533
H	-3.7237772519	-2.6914876738	 0.8214268626	 0.116993
66.9383	112.5917	148.6718	205.2032	332.024	383.4921	406.3122	443.9652	479.8771	516.4209	643.5646	786.3462	818.0712	850.9557	864.4176	885.7809	945.4151	961.1606	991.6133	1012.8671	1046.5622	1069.8698	1083.4378	1103.6773	1158.6491	1167.5788	1212.1982	1222.5924	1226.749	1263.2979	1325.7712	1371.4358	1385.0307	1423.1548	1460.4416	1490.4824	1519.8825	2997.4326	3068.9763	3076.3212	3113.9675	3130.0236	3190.6502	3205.1964	3801.8128
OCC1OC11CC2OC12	OC[C@H]1O[C@]21C[C@H]1O[C@@H]21	
InChI=1S/C6H8O3/c7-2-4-6(9-4)1-3-5(6)8-3/h3-5,7H,1-2H2	InChI=1S/C6H8O3/c7-2-4-6(9-4)1-3-5(6)8-3/h3-5,7H,1-2H2/t3-,4-,5-,6+/m1/s1
