18
gdb 46535	4.09093	1.17881	1.09016	4.3161	73.38	-0.2508	0.055	0.3057	1153.7146	0.149056	-439.101222	-439.093537	-439.092593	-439.13383	29.496	
N	-0.1512946776	 1.2844271947	 0.0607909976	-0.579881
C	 0.0032237	 0.0383814894	 0.1101696676	 0.473304
O	 0.9996535901	-0.6426377947	 0.7503803266	-0.250725
C	 0.9044234875	-2.0245575739	 0.3989086185	-0.162042
C	-0.5397408388	-2.1649550998	-0.0935809672	 0.403643
C	-0.8326904634	-3.2629692981	-1.1345943277	-0.294297
C	-1.4475003379	-4.1246785681	 0.0052788613	-0.218252
C	-1.5510913784	-2.8382390117	 0.871454996	-0.283585
O	-0.8455440653	-0.8277674415	-0.4921554874	-0.25896
H	 0.6146141848	 1.7484721728	 0.5433378777	 0.230213
H	 1.6285036165	-2.2494970781	-0.3944088886	 0.117161
H	 1.1311289333	-2.6291951736	 1.2794674548	 0.128738
H	-1.5898819938	-2.9165552266	-1.8416792597	 0.131035
H	 0.0180948732	-3.663452407	-1.6919343235	 0.104899
H	-2.3782640621	-4.6477337921	-0.2170281723	 0.114172
H	-0.7329823312	-4.8451816985	 0.4114214587	 0.109507
H	-1.2805841301	-2.8952957528	 1.9285742937	 0.107337
H	-2.5284700867	-2.3595384805	 0.7770682438	 0.127734
80.2834	110.2684	150.5233	271.7556	348.2176	416.249	436.6589	509.8494	685.9202	720.9403	724.9139	786.2578	805.3281	810.3193	873.7424	916.1276	927.4564	931.3309	964.1708	980.4607	1041.7227	1043.8299	1088.4505	1146.5343	1166.0047	1191.5039	1205.7307	1234.6726	1248.9973	1258.8747	1276.2156	1302.0724	1336.4242	1408.2249	1469.7706	1484.8156	1505.3661	1520.2766	1801.835	3024.9335	3062.7592	3066.2878	3072.7097	3108.1533	3115.4075	3123.3935	3135.9495	3536.483
N=C1OCC2(CCC2)O1	[NH][C]1OCC2(CCC2)O1	
InChI=1S/C6H9NO2/c7-5-8-4-6(9-5)2-1-3-6/h7H,1-4H2	InChI=1S/C6H9NO2/c7-5-8-4-6(9-5)2-1-3-6/h7H,1-4H2
