19
gdb 92385	2.11844	1.65331	1.2653	4.7613	79.46	-0.2353	0.0047	0.24	1094.1351	0.160086	-382.042977	-382.034572	-382.033628	-382.076182	31.849	
C	 0.2276347869	 1.6127938388	-0.1198145784	-0.422309
C	 0.0450558152	 0.1181166233	 0.0820551579	-0.032862
C	 0.8038992152	-0.8823224127	-0.8299110148	-0.197026
N	 1.2582574661	-1.6935617982	 0.3477317772	-0.149848
C	 2.6627482808	-1.3731270773	 0.7580793324	-0.163849
C	 2.1954036993	-0.2064306982	 1.6659638237	-0.314197
C	 0.7391028861	-0.6035323181	 1.2798257406	 0.196634
C	-0.1229776294	-0.9879960198	 2.3863611474	 0.237343
N	-0.8155243042	-1.2641151801	 3.2705647503	-0.342733
H	 1.2836363347	 1.8963698916	-0.1743888703	 0.11957
H	-0.2435902372	 1.9265930554	-1.0571768693	 0.129031
H	-0.2362170586	 2.1831266622	 0.6916658795	 0.13317
H	-1.0216868263	-0.119326922	 0.1060104525	 0.105456
H	 0.1882155297	-1.4571670598	-1.5263034384	 0.117528
H	 1.6338955927	-0.4329368064	-1.3892947846	 0.100389
H	 3.1143235874	-2.2076754919	 1.301191195	 0.121858
H	 3.3156638906	-1.1085492619	-0.079360601	 0.109623
H	 2.4230031016	-0.3159234162	 2.7267881458	 0.133036
H	 2.4880604094	 0.7956463513	 1.3480381945	 0.119187
63.0515	130.2149	173.3935	206.1446	252.0091	321.5948	383.9853	440.4354	535.5316	555.7818	571.4062	640.015	749.3932	801.0539	848.6014	895.743	902.7858	941.1634	956.1501	972.2531	1031.9535	1035.661	1120.6059	1140.9612	1166.479	1185.5359	1190.8103	1218.4388	1235.4973	1261.5339	1297.4904	1302.2874	1318.2827	1376.8963	1413.1754	1479.4507	1493.8629	1497.3761	1501.035	1519.2941	2345.9325	3023.8601	3033.6163	3048.9103	3068.8455	3084.1406	3091.0356	3096.2183	3102.3305	3106.0262	3141.3774
CC1CN2CCC12C#N	C[C@H]1CN2CC[C@@]12C#N	
InChI=1S/C7H10N2/c1-6-4-9-3-2-7(6,9)5-8/h6H,2-4H2,1H3	InChI=1S/C7H10N2/c1-6-4-9-3-2-7(6,9)5-8/h6H,2-4H2,1H3/t6-,7+/m0/s1
