18
gdb 69243	2.66229	1.69808	1.24399	3.6661	78.08	-0.2366	-0.0016	0.235	1040.0622	0.148293	-401.968878	-401.960974	-401.96003	-402.001034	30.842	
C	-0.2180728454	 1.4642324238	 0.0309857108	-0.454666
C	 0.0651576872	-0.0232313822	-0.0776162187	 0.270096
C	 1.4991289379	-0.494244553	-0.0432519597	-0.276112
N	 0.6250758613	-0.6609449182	 1.1100241996	-0.125001
C	 0.1982518077	-1.9412471538	 1.4933871575	 0.366612
O	 0.951386601	-2.7824025369	 1.9194270314	-0.330525
C	-1.296716175	-2.1551406098	 1.2817880723	-0.362127
C	-1.621922973	-1.798174966	-0.1560078043	-0.076015
C	-0.9669489827	-0.8262916036	-0.791916332	-0.127228
H	 0.5616626462	 1.9646216004	 0.6106914944	 0.131126
H	-0.2581380489	 1.9197131995	-0.9642737593	 0.123047
H	-1.180267435	 1.6411270902	 0.5218730874	 0.127906
H	 1.7635029688	-1.3946145351	-0.590887689	 0.13397
H	 2.2981560253	 0.2351391866	 0.0635237346	 0.122093
H	-1.5275178512	-3.1977470572	 1.5071942812	 0.134407
H	-1.8734104909	-1.5300701716	 1.9764191535	 0.136648
H	-2.3891793526	-2.3766561703	-0.6621925174	 0.106148
H	-1.2031902407	-0.5583176328	-1.8178370922	 0.099622
111.1386	151.8916	209.8138	243.8632	323.2316	361.9359	422.2756	470.1565	513.4819	558.7454	624.6712	696.3588	712.7267	745.2125	900.8859	907.736	931.7494	947.5522	962.0034	983.585	996.4744	1041.3276	1112.981	1122.4328	1137.2761	1168.4364	1192.6338	1220.5595	1290.2852	1306.8756	1370.4527	1408.1781	1417.55	1463.6257	1484.256	1496.5759	1508.2865	1701.2657	1816.4142	3025.603	3037.0105	3103.8154	3107.4716	3118.1247	3123.1871	3160.7609	3182.4681	3199.8683
CC12CN1C(=O)CC=C2	C[C@@]12CN1C(=O)CC=C2	
InChI=1S/C7H9NO/c1-7-4-2-3-6(9)8(7)5-7/h2,4H,3,5H2,1H3	InChI=1S/C7H9NO/c1-7-4-2-3-6(9)8(7)5-7/h2,4H,3,5H2,1H3/t7-,8?/m1/s1
