14
gdb 31467	6.99279	0.87923	0.78492	5.5357	72.67	-0.2239	-0.0258	0.1981	1361.8137	0.100989	-436.717739	-436.709568	-436.708624	-436.751572	28.723	
C	 0.0312854057	 1.4206034699	-0.0738271223	-0.250889
O	 0.0150183212	-0.0083959746	-0.0212543451	-0.266829
C	 0.5860783536	-0.6699897952	-1.0223530018	 0.507048
C	 0.7143833943	-2.0063727376	-1.231970614	-0.470633
C	 1.4236350696	-2.119259474	-2.4828808442	 0.177117
C	 1.662674398	-0.850650323	-2.9225971649	-0.11905
O	 1.1518963252	 0.0452085451	-2.0313994565	-0.182916
C	 1.8070326883	-3.3127814605	-3.1443721856	 0.207056
N	 2.1162723901	-4.2927850571	-3.6777890296	-0.338456
H	 1.0567883044	 1.8021567217	-0.0812164046	 0.142032
H	-0.4971984823	 1.7875406935	-0.958915929	 0.141988
H	-0.4818217881	 1.750052251	 0.8291580079	 0.148515
H	 0.3623837867	-2.8023631294	-0.5999285688	 0.139769
H	 2.1505094432	-0.4434651699	-3.7903574015	 0.16525
32.1447	130.4424	138.9318	175.8478	248.9286	312.5985	441.8037	516.0514	553.8808	596.7557	634.0608	686.0809	710.6737	711.9275	779.3206	948.3528	995.3921	1049.7155	1155.3178	1176.524	1188.6329	1195.666	1250.4545	1325.2861	1393.3996	1480.418	1487.1113	1500.3687	1588.4038	1668.5138	2352.4022	3039.3575	3110.2214	3160.1548	3292.7643	3301.2029
COC1=CC(=CO1)C#N	COc1cc(co1)C#N	
InChI=1S/C6H5NO2/c1-8-6-2-5(3-7)4-9-6/h2,4H,1H3	InChI=1S/C6H5NO2/c1-8-6-2-5(3-7)4-9-6/h2,4H,1H3
