20
gdb 57998	3.94127	0.71869	0.64531	1.1929	77.8	-0.2721	-0.0422	0.2299	1747.9347	0.167071	-440.301894	-440.291126	-440.290182	-440.339592	36.904	
C	-0.1749873582	 1.4045345857	-0.1801446185	-0.388449
C	-0.0319488685	-0.1180548266	 0.0186010731	-0.041839
C	 0.9127235606	-0.452268476	 1.1745029712	-0.380162
C	-1.3994756836	-0.7420536399	 0.2034654994	 0.423833
N	-1.8030946055	-1.2061840807	 1.3096935891	-0.524794
O	-2.0861187798	-0.6946972883	-0.981914492	-0.250767
C	-3.4094553951	-1.1895014377	-1.0154324828	-0.183481
C	-3.9326745154	-1.0098174402	-2.432274693	 0.138171
O	-5.0386696417	-1.3356429416	-2.7669809348	-0.229426
H	 0.802129575	 1.8517364479	-0.3851882042	 0.118293
H	-0.8402699747	 1.6360382867	-1.0155675048	 0.12189
H	-0.578723498	 1.8737998401	 0.7232559057	 0.12548
H	 0.3712066796	-0.5365402343	-0.912744168	 0.094064
H	 0.5270846132	-0.0572016263	 2.1175795077	 0.134476
H	 1.0283691858	-1.5321609106	 1.2948060971	 0.121725
H	 1.8987000689	-0.0147860284	 0.9891162984	 0.105015
H	-2.7519709654	-1.5745210477	 1.2780252703	 0.220862
H	-3.451634664	-2.2562453586	-0.7529639232	 0.145347
H	-4.0655375882	-0.6466237847	-0.3203335907	 0.145527
H	-3.2000751151	-0.5503155888	-3.1301322399	 0.104234
35.6543	42.258	70.1688	113.0808	134.4093	213.1424	236.9725	256.1345	301.3904	319.3243	363.8229	431.8011	576.9009	615.9035	702.6353	742.2159	818.4698	870.8201	917.399	934.925	971.6016	1010.1262	1060.9946	1113.1285	1121.5246	1129.2379	1145.267	1195.6073	1237.7683	1267.6526	1330.6373	1345.6578	1385.0913	1398.3628	1409.141	1421.3598	1478.7413	1484.9274	1487.9079	1499.2246	1512.9129	1736.3921	1847.6157	2910.7698	3001.3412	3025.2031	3038.5951	3042.8766	3046.2159	3108.0676	3117.0694	3122.8457	3129.0632	3505.285
CC(C)C(=N)OCC=O	CC(C)[C]([NH])OCC=O	
InChI=1S/C6H11NO2/c1-5(2)6(7)9-4-3-8/h3,5,7H,4H2,1-2H3	InChI=1S/C6H11NO2/c1-5(2)6(7)9-4-3-8/h3,5,7H,4H2,1-2H3
