15
gdb 73878	2.18431	1.74242	0.97532	8.1986	75.13	-0.231	-0.0461	0.1849	1129.8658	0.112353	-453.981004	-453.972459	-453.971515	-454.014298	30.771	
N	 0.0290509228	 1.288283638	-0.0485133498	-0.586253
C	-0.0480556863	-0.0569341684	-0.0169883672	 0.272247
C	-1.1284868722	-0.8928849572	-0.0089763826	 0.046755
C	-2.5186894785	-0.4622457297	 0.0044130626	 0.059618
O	-3.5020807893	-1.1643780655	 0.0102601235	-0.255451
C	-0.6305536631	-2.27634426	-0.0080645892	 0.337557
N	-1.2869657677	-3.3522010509	-0.0018539144	-0.520364
O	 0.7639583448	-2.2309849217	-0.013160832	-0.255611
C	 1.2084888007	-0.8894475157	-0.0233091549	-0.164544
H	 0.9119873979	 1.7497490743	 0.0851083306	 0.273792
H	-0.7964886743	 1.8553268598	 0.0428501866	 0.27974
H	-2.6338323851	 0.6525284265	 0.0109264435	 0.025642
H	-0.6544872053	-4.1535709282	-0.0011652506	 0.221175
H	 1.8159692286	-0.6964859641	-0.9187066786	 0.135314
H	 1.8320484568	-0.6899072772	 0.8601290724	 0.130382
96.6149	148.3043	181.3787	187.9328	191.1405	264.7121	312.3922	435.132	439.9417	536.273	587.0779	610.6535	724.338	725.8149	740.3137	858.5604	954.9593	976.9421	1015.5626	1030.6378	1098.7272	1171.0007	1203.4382	1205.7158	1287.58	1381.2218	1440.2156	1480.9721	1501.958	1632.5192	1690.0037	1761.4129	1811.6314	2776.6151	2999.482	3030.1536	3483.8672	3613.6192	3728.4177
NC1=C(C=O)C(=N)OC1	N[C]1C(=C([NH])OC1)C=O	
InChI=1S/C5H6N2O2/c6-4-2-9-5(7)3(4)1-8/h1,7H,2,6H2	InChI=1S/C5H6N2O2/c6-4-2-9-5(7)3(4)1-8/h1,7H,2,6H2
