22
gdb 59413	2.54233	1.03361	0.94704	2.2635	84.47	-0.2543	-0.0323	0.222	1403.6481	0.191449	-404.351766	-404.341152	-404.340207	-404.38746	38.393	
C	 1.2270337829	 0.8570518235	-0.9170905333	-0.391039
C	 1.7644880132	-0.5106269912	-0.4671278303	 0.019869
C	 3.2941920653	-0.5798458875	-0.5684544754	-0.391305
C	 1.3054623985	-0.7903627599	 0.9501140771	-0.01579
N	-0.0559051028	-1.2599166172	 1.1618172936	-0.37006
C	 1.0467112922	-2.1765037828	 1.503406433	 0.206481
C	 1.1966798121	-3.4493400682	 0.7004192167	-0.478277
C	 1.3458097752	-2.290135758	 2.9628695057	 0.102725
O	 0.9333310407	-1.5149349514	 3.7949507048	-0.275896
H	 1.6286069135	 1.6625055844	-0.2908180762	 0.112332
H	 1.5131336542	 1.0669510508	-1.9526669932	 0.111701
H	 0.1358544071	 0.8855443341	-0.8493965166	 0.130505
H	 1.3289331967	-1.2706750828	-1.1247664173	 0.081226
H	 3.7648341335	 0.1610193207	 0.0885594173	 0.116256
H	 3.6724043795	-1.5664842548	-0.2821089921	 0.113064
H	 3.6277424015	-0.3738162067	-1.5903105702	 0.116033
H	 1.6918722812	-0.0850152103	 1.6876202829	 0.09635
H	-0.4145665964	-0.8756449053	 2.0369927747	 0.243983
H	 0.4613602652	-4.1955979889	 1.0202883473	 0.130141
H	 1.040167555	-3.2701746888	-0.3635521693	 0.139765
H	 2.1949877963	-3.8807974926	 0.8343883555	 0.121369
H	 1.9864182154	-3.1521536372	 3.2503399853	 0.080568
58.8516	106.6593	120.1875	140.7895	189.9195	217.0193	248.5323	250.251	304.7356	335.6189	373.6109	382.3925	473.9775	498.9709	652.1054	760.231	786.9625	858.0722	907.0253	927.3279	953.1615	969.3215	1002.5021	1037.6354	1080.5337	1090.431	1129.6801	1143.9528	1150.8183	1193.8469	1261.3853	1280.1186	1326.7962	1339.8525	1347.9679	1393.4666	1412.4657	1419.9572	1428.4876	1459.5704	1484.3502	1488.5264	1490.1781	1498.8514	1503.1101	1513.0803	1798.2271	2897.5824	3026.6901	3030.1363	3036.643	3049.4848	3091.9082	3094.0522	3095.4548	3102.3838	3105.1016	3114.5434	3144.3372	3456.7035
CC(C)C1NC1(C)C=O	CC(C)[C@H]1N[C@]1(C)C=O	
InChI=1S/C7H13NO/c1-5(2)6-7(3,4-9)8-6/h4-6,8H,1-3H3	InChI=1S/C7H13NO/c1-5(2)6-7(3,4-9)8-6/h4-6,8H,1-3H3/t6-,7-/m1/s1
