21
gdb 78744	2.8002	1.55353	1.20416	1.8006	81.42	-0.2421	0.0894	0.3315	1102.7141	0.183962	-387.075815	-387.067797	-387.066853	-387.107737	32.754	
C	 0.0692287231	 1.4270950148	 0.0369265957	-0.490572
C	-0.0000180541	-0.0827487859	 0.0334091596	 0.357421
C	-1.3215826334	-0.7516409156	-0.3674930217	-0.289358
C	-1.3252838795	-2.1016034315	 0.3974359863	-0.218471
C	 0.1452061282	-2.3003452606	 0.7841206411	-0.084853
C	 0.6892265421	-0.8769817004	 1.1086846375	-0.139722
C	 1.2930794915	-0.8201262102	-0.2960118275	-0.147614
C	 1.0702014027	-2.3206641145	-0.4789232331	 0.141338
O	 2.2500516098	-3.08438854	-0.3265475467	-0.442532
H	 1.0442154895	 1.7835138523	 0.3847336262	 0.115215
H	-0.0926118528	 1.833906731	-0.9680067161	 0.119486
H	-0.6977720449	 1.853445553	 0.693777829	 0.115929
H	-2.1696314708	-0.1222204873	-0.0777748618	 0.094543
H	-1.3902342758	-0.8924366678	-1.4520451558	 0.100335
H	-1.9460279038	-2.030094375	 1.2973809244	 0.096754
H	-1.7114863003	-2.9310658801	-0.2039009886	 0.097708
H	 0.3435189659	-3.1131609109	 1.4839746472	 0.065866
H	 1.0459845546	-0.4807972401	 2.051200812	 0.079051
H	 2.1655671081	-0.2792889221	-0.6501074906	 0.078532
H	 0.6191528042	-2.6722230319	-1.4136865002	 0.075947
H	 2.7167544558	-2.7415438569	 0.4447970831	 0.274998
152.6209	206.2307	219.1918	263.2897	295.5989	331.0328	384.8238	389.55	473.3546	566.8527	642.3586	745.3136	792.1701	843.9079	852.382	862.462	887.0565	918.3568	924.2255	968.672	976.6754	1015.3626	1022.5458	1051.0815	1063.0833	1083.3183	1100.4576	1139.0379	1167.2255	1214.5763	1217.2594	1241.1719	1253.3598	1274.5392	1285.1705	1295.7124	1328.8215	1344.7213	1405.9222	1416.217	1434.074	1486.3311	1490.5214	1501.0597	1509.0017	3022.4143	3033.2594	3040.0764	3047.1538	3066.7937	3082.1219	3087.8321	3096.752	3107.9921	3154.7823	3187.4887	3786.5783
CC12CCC3C1C2C3O	C[C@]12CC[C@@H]3[C@H]1[C@H]2[C@H]3O	
InChI=1S/C8H12O/c1-8-3-2-4-5(8)6(8)7(4)9/h4-7,9H,2-3H2,1H3	InChI=1S/C8H12O/c1-8-3-2-4-5(8)6(8)7(4)9/h4-7,9H,2-3H2,1H3/t4-,5+,6+,7+,8+/m1/s1
