17
gdb 97520	4.93588	0.61543	0.55146	5.8571	85.63	-0.2454	-0.0394	0.206	1976.846	0.134497	-418.008921	-417.998702	-417.997758	-418.046641	34.297	
C	 0.0380452193	 1.6325490424	-0.01510297	-0.370864
C	-0.0902934533	 0.1001016235	-0.0851068363	-0.323797
C	 0.6018976306	-0.4888411535	-1.2236060845	 0.178594
C	 1.178737032	-0.9723705348	-2.1665984902	-0.092073
C	 1.862384435	-1.6237961026	-3.2737807093	 0.283998
O	 2.0089213183	-2.8186065777	-3.3534748725	-0.301278
N	 2.3168019692	-0.6947737931	-4.2131918179	-0.31947
C	 3.0118558917	-0.9133798903	-5.3995708182	 0.083402
N	 3.3589577212	-2.0523410979	-5.8318316732	-0.397196
H	 1.0863079778	 1.9320864604	 0.0655993746	 0.132197
H	-0.3816902447	 2.1001745574	-0.9097930425	 0.129597
H	-0.4977761486	 2.0164718056	 0.8573316758	 0.124357
H	 0.2996273861	-0.350111306	 0.8365271877	 0.145693
H	-1.1494425396	-0.1836014472	-0.132526588	 0.144814
H	 2.108451617	 0.2671736467	-3.9957293182	 0.25947
H	 3.2100343351	 0.0445004672	-5.8982198778	 0.093093
H	 3.852741173	-1.9440634702	-6.7166418394	 0.229462
17.7511	52.7374	62.682	131.2147	173.1516	184.8206	234.1323	243.3162	350.587	390.9385	512.0377	574.3425	575.0077	616.4233	753.8897	781.1438	824.0214	880.6414	939.033	1005.2501	1063.7564	1080.3815	1100.5803	1125.7929	1218.3763	1260.5333	1283.4467	1347.9806	1410.596	1431.6761	1466.0664	1496.1672	1504.5069	1528.4233	1733.1886	1803.103	2341.9971	3026.4189	3027.637	3048.0285	3055.533	3123.4429	3126.0562	3495.4028	3635.0056
CCC#CC(=O)NC=N	CCC#CC(=O)NC=N	
InChI=1S/C6H8N2O/c1-2-3-4-6(9)8-5-7/h5H,2H2,1H3,(H2,7,8,9)	InChI=1S/C6H8N2O/c1-2-3-4-6(9)8-5-7/h5H,2H2,1H3,(H2,7,8,9)
