19
gdb 73693	2.11729	1.96566	1.47273	3.8524	69.15	-0.2536	0.067	0.3206	980.9725	0.161041	-460.176141	-460.168255	-460.167311	-460.210646	30.463	
O	 0.0360936169	 1.4544650918	-0.2123122171	-0.480879
C	 0.0605033675	 0.0493038288	-0.0089888733	 0.335909
C	 0.7001430155	-0.7130053791	-1.1929553195	-0.29176
C	-0.2691224492	-1.8752025372	-1.4436700276	-0.096498
O	-1.549319408	-1.365143812	-1.0838497001	-0.249725
C	-1.4110369767	-0.4764830062	 4.0881*^-6	 0.187486
O	-1.6336769851	-1.0874847344	 1.2512318227	-0.252963
C	-0.3863609445	-1.4387769922	 1.843074742	-0.097039
C	 0.5846217806	-0.342344461	 1.3904941482	-0.290806
H	 0.9456838119	 1.7699194933	-0.2199733635	 0.278624
H	 0.7058794496	-0.0417614878	-2.0561310315	 0.117651
H	 1.723710159	-1.0442391755	-0.9985081089	 0.097501
H	-0.3140818158	-2.1854839416	-2.49095299	 0.11321
H	-0.0123612207	-2.7588570123	-0.8408634161	 0.099346
H	-2.1612130967	 0.3064361113	-0.1221135883	 0.103208
H	-0.5271695351	-1.4741454482	 2.9267036093	 0.113451
H	-0.0591451676	-2.4360834499	 1.5132212961	 0.098318
H	 1.6288401848	-0.6662830375	 1.393024848	 0.09735
H	 0.4859901036	 0.5321937197	 2.0396643313	 0.117615
5.7871	191.2815	211.7408	264.6628	298.7602	396.0441	410.8876	511.2234	556.2521	617.1568	639.6377	679.0567	804.0029	881.0889	891.2261	937.0428	966.4485	971.6919	972.83	986.7861	1044.7654	1049.3177	1055.981	1130.2783	1169.3706	1174.0129	1229.4319	1234.1219	1238.4157	1249.2798	1289.895	1300.601	1322.1454	1367.8497	1393.5451	1396.1713	1405.9766	1477.7291	1492.2163	1520.7693	1536.0434	2986.9148	2998.5116	3055.1743	3059.1001	3085.9932	3088.1247	3108.2276	3108.4956	3114.113	3812.5746
OC12CCOC1OCC2	O[C@]12CCO[C@H]1OCC2	
InChI=1S/C6H10O3/c7-6-1-3-8-5(6)9-4-2-6/h5,7H,1-4H2	InChI=1S/C6H10O3/c7-6-1-3-8-5(6)9-4-2-6/h5,7H,1-4H2/t5-,6-
