16
gdb 31164	2.00594	1.82468	1.01375	1.569	67.4	-0.1749	0.0522	0.2272	1130.581	0.122944	-475.025912	-475.016492	-475.015547	-475.059988	33.998	
C	-0.1165216751	 1.4853108889	-0.0840725379	-0.254775
O	-0.0218908138	 0.0657621097	 0.0562836251	-0.296049
C	-1.240797758	-0.5729152044	 0.0426337999	 0.032158
C	-1.9453468765	-1.0080428631	 1.1418444747	 0.315888
O	-1.6750621887	-0.9377684683	 2.4686584714	-0.442214
N	-3.0858109537	-1.6064327007	 0.7095016732	-0.309845
C	-3.1284227399	-1.5926189621	-0.6867314482	-0.195351
C	-1.99433908	-0.9530003592	-1.1118576444	 0.247017
O	-1.6419165677	-0.6911738074	-2.4047588072	-0.459429
H	 0.9052105365	 1.8732070838	-0.0773692525	 0.125228
H	-0.6057380492	 1.7592125083	-1.026852471	 0.124126
H	-0.6833371331	 1.9288733758	 0.7442182233	 0.117028
H	-0.7659452909	-0.6274779857	 2.5524674593	 0.309782
H	-3.7374948957	-2.0765383842	 1.3112527251	 0.267262
H	-3.9528482876	-2.0172199845	-1.2307738051	 0.120703
H	-0.6962496467	-0.5049185369	-2.4062315754	 0.298471
69.5814	143.1315	163.6269	197.5835	228.1015	240.4036	282.2043	322.2776	343.8195	399.4299	457.2364	568.8446	575.4739	590.3734	648.8372	706.1196	744.501	777.7277	1024.5935	1057.9932	1086.0802	1177.2819	1178.4975	1191.534	1216.6262	1255.6974	1330.8192	1379.1384	1449.5799	1476.2605	1485.3702	1508.0066	1573.2245	1623.9331	1683.1894	3007.4666	3070.855	3119.9863	3292.3127	3699.1986	3805.6012	3813.751
COC1=C(O)NC=C1O	COc1c(O)[nH]cc1O	
InChI=1S/C5H7NO3/c1-9-4-3(7)2-6-5(4)8/h2,6-8H,1H3	InChI=1S/C5H7NO3/c1-9-4-3(7)2-6-5(4)8/h2,6-8H,1H3
