19
gdb 115984	2.07301	1.59469	0.99606	0.5807	87.67	-0.2284	-0.0216	0.2068	1223.7939	0.158044	-385.864585	-385.855353	-385.854409	-385.898902	34.031	
C	-0.4024061983	 1.0152439448	 0.2868956871	-0.240593
O	 0.2066005999	-0.2391288308	 0.064424268	-0.247514
C	 0.7583380392	-0.4161946682	-1.2329858654	 0.001438
C	 1.6177154563	-1.6943789414	-1.214249689	-0.236345
C	 0.7107765701	-2.8201093071	-1.7626796512	-0.251215
C	-0.3361843703	-2.0641181702	-2.5330101466	-0.165925
C	-0.3081580677	-0.7443224008	-2.2880236556	 0.192038
C	-1.1444367945	 0.2355438437	-2.8741090452	 0.212102
C	-1.8220786654	 1.0972056852	-3.3770560055	-0.424803
H	 0.2875893981	 1.8435431657	 0.0603841911	 0.100721
H	-1.311438578	 1.1520770721	-0.3117681641	 0.125285
H	-0.6653488615	 1.0564608904	 1.3471983808	 0.121796
H	 1.3358010731	 0.4805940564	-1.502758904	 0.065785
H	 2.4771077744	-1.5594426126	-1.8773155248	 0.107412
H	 1.9915779843	-1.8817968637	-0.2061150064	 0.113857
H	 1.2569277432	-3.5320528121	-2.3915966223	 0.108646
H	 0.2488300824	-3.4103975442	-0.9596010166	 0.123924
H	-1.042185069	-2.5447480139	-3.2010374585	 0.103156
H	-2.4290155163	 1.8469756966	-3.8204761218	 0.190237
58.6145	100.6399	148.0608	162.3801	198.3194	277.4646	295.8399	388.529	412.6356	523.4486	561.058	584.0477	625.6076	664.676	696.2689	804.7414	863.1087	889.0266	932.3712	936.7626	978.687	1048.9707	1064.9477	1132.5888	1148.6035	1173.7358	1186.0222	1223.6159	1238.8996	1277.8906	1300.9327	1325.0795	1343.1511	1379.5441	1469.8458	1477.0169	1487.363	1492.4213	1512.2334	1667.4374	2215.1651	2980.0803	2990.9142	3019.7595	3053.3702	3055.1623	3070.496	3110.3473	3124.1058	3198.0505	3503.1638
COC1CCC=C1C#C	CO[C@H]1CCC=C1C#C	
InChI=1S/C8H10O/c1-3-7-5-4-6-8(7)9-2/h1,5,8H,4,6H2,2H3	InChI=1S/C8H10O/c1-3-7-5-4-6-8(7)9-2/h1,5,8H,4,6H2,2H3/t8-/m0/s1
