14
gdb 22034	2.49994	1.56224	0.96143	4.5644	73.57	-0.1765	-0.0037	0.1728	1114.3912	0.10135	-477.952456	-477.944717	-477.943772	-477.984588	29.462	
O	-0.0852250834	 1.3371233771	 0.1381493809	-0.409781
N	 0.0634284318	-0.0698999474	 0.1336965825	-0.280714
C	-1.0897125818	-0.6391304334	-0.0200850438	 0.257057
C	-2.3848913188	 0.008566465	-0.1717057704	-0.22305
C	-3.5173620888	-0.7125326542	-0.3254054116	 0.018983
N	-3.5020138661	-2.0822512692	-0.3460174248	-0.342998
C	-2.3079548728	-2.7648502407	-0.2075635651	-0.107287
C	-1.152206539	-2.089956307	-0.0517039363	 0.183391
F	-0.0145711313	-2.7694623746	 0.079668399	-0.062874
H	 0.8241571158	 1.6272364758	 0.2568075424	 0.302125
H	-2.4247906339	 1.0869974397	-0.1590183813	 0.129539
H	-4.4920439775	-0.2543756857	-0.4399826962	 0.130313
H	-4.3558749301	-2.5977941412	-0.4611361048	 0.266949
H	-2.3410770441	-3.8449449644	-0.2294350905	 0.138347
118.7067	215.4883	221.9135	295.746	312.735	337.067	362.9124	485.8644	495.3899	547.4687	564.4101	605.3351	715.4315	797.1941	811.4629	840.9807	875.9396	941.9013	991.9646	1033.3843	1145.9424	1216.0672	1245.7394	1294.8747	1346.4633	1423.829	1456.7856	1531.8725	1639.3716	1663.784	1725.6693	3209.7305	3236.6336	3257.9875	3687.6722	3833.888
ON=C1C=CNC=C1F	ON=c1cc[nH]cc1F	
InChI=1S/C5H5FN2O/c6-4-3-7-2-1-5(4)8-9/h1-3,9H,(H,7,8)	InChI=1S/C5H5FN2O/c6-4-3-7-2-1-5(4)8-9/h1-3,9H,(H,7,8)
