20
gdb 7560	3.10839	1.64127	1.45557	2.6304	74.82	-0.2361	-0.0073	0.2288	989.1582	0.175387	-349.022094	-349.013139	-349.012195	-349.055742	33.003	
C	-0.0866840838	 1.6037709176	-0.102712783	-0.484404
C	-0.1470000512	 0.094537	 0.0863936537	 0.325244
O	-0.3399847187	-0.3881747113	 1.179937541	-0.306606
C	 0.0804398167	-0.7687316936	-1.1490878054	 0.253314
C	-0.8655651766	-0.3936072155	-2.2949606945	-0.467518
C	 1.5867866404	-0.8131660118	-1.604194277	-0.260688
C	 1.484632559	-2.3598431252	-1.6864924781	-0.211232
C	 0.1562743271	-2.2997126739	-0.8872354642	-0.262071
H	 0.7149138095	 1.8961382901	-0.7879991285	 0.133559
H	-1.0282443953	 1.9588712441	-0.5371185342	 0.145992
H	 0.050786458	 2.0847401353	 0.866633983	 0.141082
H	-0.7348177753	 0.6460466616	-2.6110872425	 0.117715
H	-0.6745927358	-1.0282063111	-3.1665259347	 0.122069
H	-1.9129489127	-0.5347419945	-2.0057389732	 0.124236
H	 1.8271633001	-0.2722868579	-2.5236635609	 0.097771
H	 2.2701552551	-0.4820118128	-0.8168862681	 0.107739
H	 1.3465574012	-2.7116805964	-2.71198599	 0.102581
H	 2.3041370514	-2.9265788914	-1.2396537108	 0.10242
H	 0.2829760488	-2.504347297	 0.1768951982	 0.125056
H	-0.6795834082	-2.8952247062	-1.2629567307	 0.093739
48.5714	111.8964	145.551	193.8608	239.3888	270.9434	317.5265	337.3903	406.7393	522.7977	589.7777	621.4089	705.086	795.8458	846.715	878.3658	908.5817	933.0488	949.7311	964.5552	993.1325	1017.0031	1064.7331	1134.0651	1162.029	1193.302	1214.7554	1242.855	1261.2784	1276.1726	1281.7966	1315.3436	1378.2788	1409.044	1464.3408	1474.4041	1476.3241	1484.5444	1498.5752	1500.2073	1507.2119	1799.6131	3029.0607	3039.641	3049.3989	3062.9436	3070.2761	3095.7218	3097.2027	3101.576	3104.7605	3114.4719	3134.6928	3149.432
CC(=O)C1(C)CCC1	CC(=O)C1(C)CCC1	
InChI=1S/C7H12O/c1-6(8)7(2)4-3-5-7/h3-5H2,1-2H3	InChI=1S/C7H12O/c1-6(8)7(2)4-3-5-7/h3-5H2,1-2H3
