19
gdb 15890	2.66489	1.81596	1.17388	2.6139	72.5	-0.2198	-0.0209	0.1989	1054.4141	0.163694	-365.053962	-365.045165	-365.044221	-365.087305	31.919	
C	-0.5777769172	 1.2417365777	 0.1349025119	-0.393041
C	-0.1217411621	-0.2205189696	 0.0898437101	-0.189162
C	 0.6532400838	-0.6083003542	-1.1807340588	-0.086132
N	 2.1184003687	-0.3354916884	-1.2904013236	-0.08272
C	 2.7753638099	 0.6835060322	-0.5036847322	-0.326807
C	 2.4998390253	-1.743876676	-1.0745843717	-0.29176
C	 1.0167797133	-2.1032009166	-1.2208536147	 0.391656
O	 0.3884372382	-3.1161867104	-1.2952502029	-0.294258
H	 0.266746414	 1.936333631	 0.1487574119	 0.122203
H	-1.1937413584	 1.484676309	-0.7376326644	 0.121417
H	-1.1773685812	 1.4327158849	 1.0303376597	 0.118623
H	 0.4721688919	-0.4618114728	 0.9799485024	 0.101828
H	-1.0010617934	-0.8753504093	 0.1253481321	 0.12252
H	 0.0990611764	-0.254780566	-2.0615462608	 0.097448
H	 2.6551361772	 0.5658505725	 0.5889584405	 0.095881
H	 3.8487464501	 0.6614713461	-0.7198288535	 0.125182
H	 2.4057592169	 1.6746925794	-0.7838044112	 0.127373
H	 3.198640729	-2.1624902744	-1.8079068316	 0.127976
H	 2.8707724676	-1.9800013452	-0.0613856534	 0.111772
79.5787	117.5766	156.735	193.7174	250.6447	251.6702	288.4976	327.4632	411.3319	521.9456	566.3678	616.1763	725.0413	781.1503	839.6577	950.8793	961.9221	991.5244	1057.9672	1085.3795	1089.7471	1108.6482	1128.0848	1160.5127	1198.0593	1225.4392	1271.2506	1280.8557	1303.3261	1340.8991	1373.8802	1413.1707	1452.1655	1474.7897	1476.7043	1493.7333	1502.5696	1504.5286	1506.752	1914.3165	2935.0806	2953.5431	3004.7116	3028.5347	3038.4581	3053.8596	3058.6519	3063.733	3100.509	3104.0644	3117.4329
CCC1N(C)CC1=O	CC[C@H]1N(C)CC1=O	
InChI=1S/C6H11NO/c1-3-5-6(8)4-7(5)2/h5H,3-4H2,1-2H3	InChI=1S/C6H11NO/c1-3-5-6(8)4-7(5)2/h5H,3-4H2,1-2H3/t5-/m1/s1
