21
gdb 108509	2.45291	1.50612	1.14603	1.7649	77.15	-0.2501	0.0669	0.317	1156.4005	0.183526	-424.211662	-424.203112	-424.202168	-424.245008	32.365	
C	 0.1372261558	 1.5760254071	-0.1529574487	-0.388252
C	-0.0219840995	 0.0634719067	 0.0424543187	-0.283199
C	 0.6801762949	-0.4699641813	 1.2852187946	 0.297395
C	 2.2248166107	-0.4446094663	 1.3375280123	-0.134114
O	 2.2752975836	-1.8337721012	 1.726590348	-0.295984
C	 0.863102236	-1.999409512	 1.4564690004	 0.047815
C	 0.0175560921	-2.3968400078	 2.6737132729	-0.099756
O	-0.7702266162	-1.2519919223	 2.9848058058	-0.250311
C	-0.0115585971	-0.1075843383	 2.6198622113	-0.145984
H	 1.1923679982	 1.8559087828	-0.2458716239	 0.11994
H	-0.3741123101	 1.9082888045	-1.0611533854	 0.119186
H	-0.2825786516	 2.140295504	 0.6862991639	 0.120649
H	-1.0872324714	-0.1942277637	 0.1029906217	 0.109456
H	 0.3711534497	-0.456906614	-0.840004722	 0.09819
H	 2.7011439166	-0.2838454727	 0.360861749	 0.095977
H	 2.695916551	 0.211533116	 2.0789424004	 0.102987
H	 0.6969161795	-2.6285180571	 0.5743425903	 0.075994
H	-0.6675587993	-3.2277100667	 2.4844290804	 0.10747
H	 0.6904423966	-2.6640315015	 3.5024335785	 0.102881
H	 0.7350276841	 0.1275007633	 3.3954437356	 0.091348
H	-0.7056479035	 0.7333275007	 2.5423890063	 0.108312
91.2666	110.8582	167.4501	179.9277	225.5568	312.3672	348.7947	377.7832	455.4364	605.6599	679.0958	680.8301	793.0571	834.371	878.8436	933.9672	948.9845	951.5578	989.5122	1013.8196	1017.6833	1042.6788	1052.2895	1082.7916	1104.964	1140.7472	1160.587	1199.8424	1214.9428	1230.3202	1268.688	1295.0626	1321.4006	1335.3769	1354.5839	1363.8934	1376.3297	1401.4971	1415.2711	1485.5512	1499.2482	1501.8334	1506.3362	1512.6228	1525.5034	2974.5043	2997.258	3004.4415	3019.473	3034.3071	3038.0965	3052.6434	3056.3617	3090.1226	3093.1494	3101.0022	3107.902
CCC12COC1COC2	CC[C@]12CO[C@H]1COC2	
InChI=1S/C7H12O2/c1-2-7-4-8-3-6(7)9-5-7/h6H,2-5H2,1H3	InChI=1S/C7H12O2/c1-2-7-4-8-3-6(7)9-5-7/h6H,2-5H2,1H3/t6-,7-/m0/s1
