17
gdb 52897	1.86109	1.30925	0.87547	2.3153	80.44	-0.2461	-0.0221	0.224	1359.2148	0.132095	-421.795125	-421.785057	-421.784113	-421.831272	34.969	
C	-0.1545041428	 1.42300835	 0.0245311172	-0.504947
C	-0.0867855853	-0.0310515954	 0.0093511599	 0.140613
C	 0.0190991789	-1.2326347904	-0.0056249504	-0.043219
C	 0.0582564887	-2.6645362054	-0.0312814147	-0.028055
C	-0.402788946	-3.4307098223	 1.2326414925	-0.352174
C	-1.3261724516	-3.3712060616	 0.0749644673	 0.122315
O	-2.4711106252	-2.5998574272	 0.0742282755	-0.415219
C	 1.0678013322	-3.3386547113	-0.8927909392	 0.118741
O	 1.8661417075	-2.7841482317	-1.6015799382	-0.254975
H	 0.850159181	 1.8562159778	-0.0259088179	 0.162177
H	-0.7259968346	 1.8068509878	-0.8272998249	 0.155223
H	-0.6293673504	 1.790230557	 0.9407405124	 0.151825
H	 0.1080635361	-4.3637415153	 1.4488190539	 0.130406
H	-0.6219837098	-2.8096510807	 2.0925527756	 0.141966
H	-1.4450558414	-4.2684072692	-0.5263101302	 0.119941
H	-2.2041539724	-1.6688772133	 0.100432871	 0.289393
H	 1.0173366052	-4.4514982089	-0.8312532599	 0.065988
34.7437	79.2299	99.2276	115.6038	209.8257	243.1886	276.0049	280.2272	323.6461	399.0801	434.8993	466.8077	547.1038	597.7697	688.3774	735.2669	851.2887	929.2639	983.0644	1034.4342	1050.1874	1054.1658	1058.6974	1077.0736	1100.8113	1154.2423	1239.5527	1347.1778	1374.1702	1414.8352	1430.1484	1439.4932	1471.9818	1474.6412	1477.7709	1823.0424	2358.9726	2852.6734	3030.9395	3093.1283	3095.8973	3135.3916	3153.7195	3236.8102	3708.5025
CC#CC1(CC1O)C=O	CC#C[C@]1(C[C@H]1O)C=O	
InChI=1S/C7H8O2/c1-2-3-7(5-8)4-6(7)9/h5-6,9H,4H2,1H3	InChI=1S/C7H8O2/c1-2-3-7(5-8)4-6(7)9/h5-6,9H,4H2,1H3/t6-,7+/m1/s1
