17
gdb 40037	3.62749	1.5429	1.43182	0.9688	70.3	-0.2333	0.0807	0.314	941.9679	0.137096	-421.765482	-421.758951	-421.758007	-421.796323	27.005	
C	 0.0773963485	 1.5281134524	 0.0044643599	-0.250182
O	 1.2046132738	 0.6409717754	 0.0026702436	-0.290363
C	-0.1072626908	 0.0745462026	 0.0179157823	 0.480132
C	-0.5203092358	-0.7403884138	 1.2510304388	-0.310322
C	-1.4561221032	-1.785096899	 0.6525507537	 0.074255
O	-2.5935028712	-1.0702687148	 0.0576075844	-0.307841
C	-1.9762720611	-1.2063830219	-1.2213609767	 0.099484
C	-0.9077980123	-2.1359022716	-0.7554059336	-0.167083
C	-0.530505375	-0.7288684177	-1.1873945195	-0.186762
H	-0.0653519484	 2.1009832946	 0.9200054208	 0.112709
H	-0.0787679333	 2.0866944063	-0.9180655	 0.110977
H	 0.3663200493	-1.2121732152	 1.6904301146	 0.118178
H	-1.0168585806	-0.1405850493	 2.0178020379	 0.116596
H	-1.7874116744	-2.5858160508	 1.3139570144	 0.087974
H	-2.6095677987	-1.1856355552	-2.1002431201	 0.108715
H	-0.5190531458	-3.072849012	-1.1275433972	 0.103083
H	-0.0299640009	-0.5647511602	-2.1342067233	 0.10045
104.8779	272.0605	338.1125	370.3206	388.0749	530.2321	573.6202	670.5417	766.46	786.6652	813.0039	830.6641	842.9397	859.2514	896.8989	928.2931	960.2497	991.2136	995.3889	1025.929	1036.1655	1051.7797	1068.0822	1103.9488	1125.8256	1156.4221	1164.0414	1216.9401	1224.0398	1252.3544	1285.9969	1298.8201	1328.0605	1378.3548	1435.6326	1467.3487	1533.9239	3046.6635	3076.9896	3107.7567	3116.4976	3162.5748	3184.2932	3193.854	3217.1183
C1OC11CC2OC3C2C13	C1O[C@]21C[C@H]1O[C@@H]3[C@H]1[C@H]23	
InChI=1S/C7H8O2/c1-3-4-5(6(4)9-3)7(1)2-8-7/h3-6H,1-2H2	InChI=1S/C7H8O2/c1-3-4-5(6(4)9-3)7(1)2-8-7/h3-6H,1-2H2/t3-,4-,5+,6-,7+/m1/s1
