18
gdb 41654	3.20621	1.9805	1.62524	1.1351	72.93	-0.236	0.0742	0.3103	865.1695	0.151814	-401.892478	-401.886441	-401.885497	-401.922565	25.687	
C	-0.007828338	 1.5918165249	-0.0065049369	-0.112312
O	 1.2550320507	 2.2306019725	-0.0876584255	-0.240753
C	 2.049956918	 1.7797650013	-1.1713081094	-0.112313
C	 2.2128073895	 0.2631798185	-1.1746665426	-0.026909
C	 2.4881920434	-0.4659630089	 0.1353535429	-0.046567
C	 1.1927544499	-0.5843294239	 0.8686118605	-0.046567
C	 0.1155235482	 0.0716188218	 0.0124941144	-0.026912
C	 0.9054867885	-0.5595283075	-1.1553733531	-0.037267
N	 1.5472536545	-1.5950713738	-0.1887628207	-0.175929
H	-0.4714243097	 1.9650648474	 0.9123012286	 0.111395
H	-0.651068772	 1.8934459271	-0.8524197803	 0.086248
H	 1.6127421526	 2.1002278887	-2.133831894	 0.086248
H	 3.0156724908	 2.283534028	-1.061528921	 0.111394
H	 2.888884796	-0.0690392734	-1.9674375779	 0.082422
H	 3.4424172737	-0.6487743321	 0.6160846853	 0.094008
H	 1.1453891627	-0.8586719731	 1.9162573057	 0.09401
H	-0.8557827046	-0.4110570922	 0.1522125161	 0.082419
H	 0.4188877957	-0.8954832254	-2.0692337922	 0.077384
230.617	245.597	370.5141	379.2543	458.0372	617.9971	712.9445	745.6729	788.1259	814.2089	815.0793	816.2371	875.0866	892.4592	925.6521	928.8012	1003.1904	1019.7084	1033.402	1053.0857	1068.9445	1080.189	1099.217	1135.3827	1141.0395	1189.5199	1193.5679	1246.8399	1252.0777	1279.7506	1311.411	1333.0874	1350.0249	1353.9942	1375.8568	1397.1401	1423.6881	1486.5465	1496.4737	2947.8061	2953.6466	3071.1142	3071.8811	3078.0365	3079.3842	3133.406	3175.515	3187.3283
C1OCC2C3C4C1C2N34	C1OC[C@H]2[C@H]3[C@H]4[C@@H]1[C@@H]2N34	
InChI=1S/C7H9NO/c1-3-5-4(2-9-1)7-6(3)8(5)7/h3-7H,1-2H2	InChI=1S/C7H9NO/c1-3-5-4(2-9-1)7-6(3)8(5)7/h3-7H,1-2H2/t3-,4+,5-,6+,7-,8?
