16
gdb 131404	5.7846	0.95517	0.87637	1.977	73.55	-0.2364	0.	0.2364	1299.6998	0.125184	-437.875127	-437.867479	-437.866535	-437.907814	29.076	
O	-0.1363668834	 1.332922501	 0.0402518107	-0.419466
C	 0.0234663504	 0.0004240033	 0.0595998824	 0.476578
N	 0.3459825674	-0.6715726164	-1.0190569345	-0.264039
O	 0.4156535182	-2.0075643842	-0.5921301246	-0.236437
C	 0.1312470338	-2.0725343691	 0.7235983354	 0.49776
C	-0.1294085821	-0.8254316867	 1.2051877392	-0.473143
C	 0.1535834685	-3.3941166018	 1.3557010257	-0.11352
C	-0.2959600378	-4.622451317	 0.5827680947	-0.262111
C	 1.1558780426	-4.4434832138	 0.9056175746	-0.262108
H	 0.0277264392	 1.6325244196	-0.8641627957	 0.310817
H	-0.3884139663	-0.5305856714	 2.2071590246	 0.122534
H	-0.0849616596	-3.3654208258	 2.4125412199	 0.101059
H	-0.8645811745	-5.3677307583	 1.1269720906	 0.121254
H	-0.6083472357	-4.4653380588	-0.4427566778	 0.139786
H	 1.8223481241	-4.1657011422	 0.0977647568	 0.139782
H	 1.6006960752	-5.0638328185	 1.6751840679	 0.121255
55.0073	141.7706	163.6152	301.5745	335.1357	425.8876	457.2763	478.0635	606.2314	682.5608	732.7723	742.1218	790.1478	793.9236	825.8974	900.2974	910.4939	957.2298	1005.2994	1040.1233	1066.2538	1075.2314	1089.9505	1125.1318	1154.5953	1205.7375	1220.1275	1236.792	1327.6425	1372.6883	1465.1848	1495.6192	1545.7142	1560.2421	1657.9644	3142.4952	3145.4556	3179.4424	3228.2373	3243.086	3287.3928	3778.8516
OC1=NOC(=C1)C1CC1	Oc1noc(c1)C1CC1	
InChI=1S/C6H7NO2/c8-6-3-5(9-7-6)4-1-2-4/h3-4H,1-2H2,(H,7,8)	InChI=1S/C6H7NO2/c8-6-3-5(9-7-6)4-1-2-4/h3-4H,1-2H2,(H,7,8)
