15
gdb 71542	2.61556	1.56475	1.4667	4.3358	70.92	-0.2586	0.0011	0.2598	955.2708	0.113218	-416.723784	-416.716565	-416.715621	-416.755328	28.315	
O	 0.1188815442	 1.3220818261	-0.1315022116	-0.45238
C	 0.0998886147	-0.0371757806	-0.1105259489	 0.406014
C	 0.6056057008	-0.9611892135	-1.2190402096	-0.312311
C	 0.0696097237	-1.9341271664	-0.1418999119	-0.107125
C	 0.5300215956	-1.0177713188	 1.0402909912	-0.111866
N	-0.8116739082	-0.916272674	 1.7048656304	-0.390465
C	-1.1296960299	-0.9958896236	 0.2413773484	 0.186466
C	-2.4580673182	-0.9898715192	-0.3009123334	 0.154169
N	-3.5228387197	-0.9824403698	-0.7538440455	-0.344191
H	-0.2446077141	 1.6413318374	 0.7053751657	 0.30553
H	 0.0627836367	-0.9306584488	-2.1664795382	 0.126281
H	 1.685910019	-0.9685859938	-1.3833110426	 0.11415
H	 0.0363526034	-3.0213956153	-0.1456642434	 0.102582
H	 1.4697859649	-1.0449850755	 1.5895726906	 0.100666
H	-1.055884333	-1.7952410241	 2.1691068189	 0.222481
123.3437	145.8844	272.3466	326.4016	384.6197	412.8394	499.8868	536.5728	546.6934	605.8602	691.6715	718.131	792.8157	848.5911	896.0842	927.9439	939.5741	994.8913	1009.5088	1032.3909	1065.1766	1121.925	1141.4123	1146.8314	1198.0688	1220.1443	1255.1495	1269.8582	1289.0247	1342.2217	1413.1369	1517.2334	2343.5434	3066.047	3128.883	3135.4964	3153.0271	3411.4676	3772.2349
OC12CC3C1NC23C#N	O[C@@]12C[C@H]3[C@@H]1N[C@@]23C#N	
InChI=1S/C6H6N2O/c7-2-5-3-1-6(5,9)4(3)8-5/h3-4,8-9H,1H2	InChI=1S/C6H6N2O/c7-2-5-3-1-6(5,9)4(3)8-5/h3-4,8-9H,1H2/t3-,4-,5+,6-/m0/s1
