16
gdb 42712	2.58588	2.08767	1.68533	1.4022	74.1	-0.2375	-0.005	0.2325	863.1793	0.125147	-400.673809	-400.667091	-400.666147	-400.704686	27.288	
O	 0.0955836702	 0.0003266902	 0.1460009046	-0.307408
C	 0.019902536	 1.1821834572	 0.1531751963	 0.369038
C	-1.0548403156	 2.3280845177	-0.019517942	-0.188216
C	-0.7108187866	 3.0623803358	 1.2797142653	-0.066109
C	 0.6387478275	 3.1454505503	 1.3037025413	-0.187338
C	 0.9911820106	 2.478842332	 0.0068088959	 0.195252
C	 1.9952313456	 2.3583166884	-1.1379632346	-0.341503
C	 0.7131035181	 2.3257280149	-2.0446383669	-0.196935
N	-0.0571147819	 2.9958885261	-0.9229812375	-0.097264
H	-2.0959820855	 2.1983281386	-0.310687459	 0.087981
H	-1.4243380823	 3.3245925349	 2.0468551941	 0.118836
H	 1.2908469978	 3.5009149531	 2.0872829698	 0.120819
H	 2.6016853664	 3.2532911379	-1.2899909411	 0.125772
H	 2.6265725957	 1.4692600496	-1.1434050009	 0.124879
H	 0.7169755176	 2.9324564353	-2.9505235706	 0.115482
H	 0.4031674464	 1.3032485781	-2.2885215348	 0.126713
113.5262	219.1718	290.5222	390.5351	418.3832	511.4095	549.9318	609.9407	665.598	715.0872	755.4843	802.5812	821.6138	847.0268	880.8399	903.9881	910.8857	926.0809	985.3415	1025.5456	1042.9189	1092.1816	1122.964	1139.9447	1159.7272	1201.5121	1225.1321	1240.4967	1269.8945	1290.0668	1353.0183	1475.5327	1506.5121	1547.4635	1897.9989	3043.3774	3081.7523	3123.3513	3139.0078	3144.6257	3234.7672	3257.3073
O=C1C2C=CC11CCN21	O=C1[C@H]2C=C[C@]31CCN23	
InChI=1S/C7H7NO/c9-6-5-1-2-7(6)3-4-8(5)7/h1-2,5H,3-4H2	InChI=1S/C7H7NO/c9-6-5-1-2-7(6)3-4-8(5)7/h1-2,5H,3-4H2/t5-,7-/m1/s1
