16
gdb 127454	3.6539	1.14118	0.87919	6.5019	75.41	-0.2491	-0.0477	0.2013	1275.8466	0.123953	-434.112729	-434.103758	-434.102814	-434.14784	30.412	
C	 0.0081861864	 1.431400071	-0.0365140369	-0.332797
N	 0.0133039722	-0.0171939377	 0.0361278377	 0.00734
N	-0.0027508517	-0.7655164395	-1.0814339933	-0.275649
C	 0.0076951888	-2.0069062807	-0.6004495313	 0.22325
C	-0.0047085026	-3.1490984574	-1.5319704778	 0.096797
O	 0.0031003426	-4.3089324535	-1.2021867431	-0.255887
N	 0.0300093467	-2.0869801894	 0.7610273704	-0.32558
C	 0.0329451798	-0.8235663882	 1.1365706899	 0.347517
C	 0.0546348398	-0.3147817426	 2.5367931008	-0.507518
H	 0.903790335	 1.8453668905	 0.4357184066	 0.150767
H	-0.0058577406	 1.7051397706	-1.0902372375	 0.174954
H	-0.8776087056	 1.8404111532	 0.458088603	 0.150804
H	-0.0227283377	-2.8324234589	-2.5962411892	 0.087417
H	 0.944285531	 0.294346236	 2.7313724231	 0.143694
H	-0.8233195591	 0.3028127768	 2.755912731	 0.143366
H	 0.060260155	-1.1668525901	 3.2165369365	 0.171524
28.2314	100.982	108.4068	171.5476	202.3825	228.5205	258.334	357.0469	409.7888	518.9684	651.0351	682.0201	736.4229	743.7445	830.5565	1014.5398	1038.3397	1045.6908	1058.1951	1064.1004	1151.1678	1224.2937	1316.3547	1379.9739	1404.5109	1410.8668	1428.5502	1458.7029	1479.0164	1484.7408	1490.0178	1500.8478	1505.0876	1574.3204	1816.7006	2913.9551	3037.9067	3048.9641	3090.4998	3112.0079	3157.8022	3173.8946
CN1N=C(C=O)N=C1C	Cn1nc(C=O)nc1C	
InChI=1S/C5H7N3O/c1-4-6-5(3-9)7-8(4)2/h3H,1-2H3	InChI=1S/C5H7N3O/c1-4-6-5(3-9)7-8(4)2/h3H,1-2H3
