12
gdb 21691	3.49395	2.37972	1.41607	0.8246	60.44	-0.2374	-0.0552	0.1823	789.3527	0.084809	-414.66239	-414.655798	-414.654854	-414.692986	24.838	
N	 0.0401488906	 1.3240660504	 0.082506871	-0.539061
C	-0.0341116996	-0.0226481847	 0.0275812254	 0.313558
N	-1.2014642228	-0.6044912294	 0.0087736795	-0.198037
O	-1.1915023843	-2.0055039641	-0.0029888898	-0.215373
C	-0.052263229	-2.684187065	-0.0047427252	 0.124342
C	 1.1853188895	-2.1361131929	-0.0041194094	-0.290304
C	 1.3000749643	-0.7086360664	 0.0022027257	 0.356325
O	 2.3258933922	-0.0392814027	-0.0184247905	-0.38465
H	 0.9617980385	 1.7088956886	-0.057784029	 0.280925
H	-0.7805050891	 1.8856716025	-0.0611710446	 0.270607
H	-0.2486333934	-3.7517759044	-0.0102927462	 0.152032
H	 2.0696589633	-2.7590024219	-0.0136973669	 0.129636
128.4999	248.3296	274.0265	333.5179	438.6076	477.0799	510.4674	536.2682	582.7257	594.9807	728.4282	789.3843	858.9976	888.6393	933.6746	966.6764	1056.3609	1132.2513	1235.399	1297.5555	1415.5041	1464.9803	1575.2251	1627.6275	1635.1052	1750.0209	3191.9181	3229.8087	3589.9924	3734.7451
NC1=NOC=CC1=O	Nc1noccc1=O	
InChI=1S/C4H4N2O2/c5-4-3(7)1-2-8-6-4/h1-2H,(H2,5,6)	InChI=1S/C4H4N2O2/c5-4-3(7)1-2-8-6-4/h1-2H,(H2,5,6)
