19
gdb 100247	2.00437	1.29508	1.09294	1.7479	77.44	-0.2425	-0.0336	0.2089	1243.4597	0.153617	-422.988667	-422.977868	-422.976924	-423.024921	38.058	
C	-0.1216542803	 1.2843773713	 0.4390058704	-0.252167
O	-0.0415671269	-0.0933255319	 0.1243862076	-0.266553
C	 0.568941253	-0.4235729052	-1.1156633482	 0.24383
C	 1.9965152403	 0.1055061879	-1.2656930201	-0.435838
C	 0.578525837	-1.9763357547	-1.1490126612	-0.39015
C	-0.7424620827	-2.5933503104	-1.1151163823	 0.310028
C	-1.8225917215	-3.1193672868	-1.1031980738	-0.441077
C	-0.3326176147	 0.0713579573	-2.259391969	 0.13535
O	 0.067201579	 0.4412625138	-3.3320365372	-0.252362
H	 0.8553158503	 1.7081264261	 0.7061911042	 0.117757
H	-0.5440578463	 1.8810713745	-0.38283953	 0.115457
H	-0.7856985495	 1.366032381	 1.3024836952	 0.136381
H	 2.6302996454	-0.2808130802	-0.462490022	 0.121391
H	 2.4065792142	-0.2018954664	-2.2297143817	 0.140834
H	 2.0228147358	 1.197143112	-1.2398959383	 0.12706
H	 1.115509869	-2.2988897302	-2.0481282314	 0.143374
H	 1.1637857509	-2.3074837537	-0.2829969557	 0.143507
H	-2.778439428	-3.58146353	-1.0872883104	 0.198353
H	-1.413907155	 0.0401161355	-2.0063926163	 0.104826
48.1969	69.4804	106.7136	150.4137	165.1737	203.767	254.8713	282.1641	307.3499	341.9728	348.2521	401.0631	434.8886	561.1254	595.2882	619.792	650.378	760.4386	844.4641	889.062	955.4553	993.9	1012.6853	1096.6061	1140.1408	1172.6702	1178.316	1197.001	1231.4002	1283.5489	1342.3463	1388.4648	1409.0347	1450.7978	1475.0705	1483.0871	1485.7315	1502.9792	1511.2224	1833.0009	2241.05	2913.0855	2990.7674	3033.579	3046.3403	3055.5405	3077.0415	3119.4058	3129.537	3139.5051	3505.8605
COC(C)(CC#C)C=O	CO[C@@](C)(CC#C)C=O	
InChI=1S/C7H10O2/c1-4-5-7(2,6-8)9-3/h1,6H,5H2,2-3H3	InChI=1S/C7H10O2/c1-4-5-7(2,6-8)9-3/h1,6H,5H2,2-3H3/t7-/m0/s1
