16
gdb 6748	7.1491	0.66614	0.61634	2.3081	72.7	-0.2546	-0.0459	0.2087	1740.2368	0.127284	-383.727345	-383.717606	-383.716662	-383.763558	32.142	
C	-0.0714303428	 1.5017072126	 0.0113707562	-0.47689
C	 0.0613412005	-0.0081502593	 0.0015625526	 0.248776
O	 1.1339405214	-0.5747167987	-0.0119973717	-0.278099
C	-1.1889279169	-0.7436076641	 0.0094513177	 0.056352
C	-2.2323150528	-1.351646786	 0.0161255231	 0.025359
C	-3.4647722235	-2.1222085259	 0.0238010219	-0.333256
C	-3.2222263219	-3.6364594241	 0.0133889104	-0.064703
O	-4.4989240785	-4.2485187603	 0.0223552795	-0.413916
H	 0.9203209398	 1.9562038112	 0.0043948451	 0.141938
H	-0.6437902764	 1.8342108492	-0.8613524598	 0.145517
H	-0.6268588208	 1.8242709721	 0.8986428937	 0.145515
H	-4.0616413891	-1.8672185384	 0.9082375653	 0.148974
H	-4.0783895275	-1.8578314048	-0.8463025382	 0.148972
H	-2.6425314316	-3.906802118	-0.8812136759	 0.106363
H	-2.6255369596	-3.9162662734	 0.8937988134	 0.10636
H	-4.3782431102	-5.2023876521	 0.0157973667	 0.292739
34.6364	66.8357	79.1054	119.3572	166.3545	166.6461	240.9466	324.1923	396.3991	430.5685	464.5204	604.1479	617.6629	696.4654	788.0108	960.2241	996.1293	1042.9783	1058.0733	1082.9622	1084.2563	1220.5143	1237.65	1249.7197	1304.7489	1331.2007	1381.0178	1457.9307	1460.735	1465.1276	1468.7669	1527.9911	1767.1732	2332.3855	2990.0498	3022.1555	3032.9591	3039.2964	3070.5487	3103.5665	3151.6919	3835.4801
CC(=O)C#CCCO	CC(=O)C#CCCO	
InChI=1S/C6H8O2/c1-6(8)4-2-3-5-7/h7H,3,5H2,1H3	InChI=1S/C6H8O2/c1-6(8)4-2-3-5-7/h7H,3,5H2,1H3
