18
gdb 54409	3.27522	1.42144	1.20407	9.6664	72.14	-0.1992	0.0253	0.2245	1050.826	0.150034	-439.065409	-439.057975	-439.057031	-439.097678	29.087	
O	 0.3204811725	 0.1372376036	 0.3918442737	-0.440546
C	 0.049024774	 1.2281328897	-0.0929702186	 0.301248
O	 0.6951848115	 2.0379763832	-0.8231564936	-0.514833
C	-1.3867928103	 1.7885000727	 0.1367502652	 0.17291
C	-2.5471861962	 1.5122687047	-0.8570012642	-0.240068
C	-3.3652711952	 2.3571587088	 0.1575718346	-0.048048
C	-2.4524591215	 1.7161341958	 1.2569880473	-0.285942
C	-2.7207909011	 3.7412016806	-0.0576372711	-0.199308
N	-1.2719033783	 3.3061890001	-0.0203154614	-0.229565
H	-0.7649099544	 3.6934081636	 0.7733058568	 0.293569
H	-0.5903027366	 3.3411366478	-0.8214235047	 0.30331
H	-2.4416890134	 1.8691782664	-1.8851364223	 0.113539
H	-2.8060604924	 0.4544124942	-0.8449006044	 0.144341
H	-4.4535882101	 2.3396093631	 0.2050529931	 0.091968
H	-2.7235688676	 0.6852363364	 1.4777802844	 0.148538
H	-2.2721746425	 2.2670209117	 2.1855987111	 0.100124
H	-2.9562944345	 4.1953880651	-1.0212460483	 0.150038
H	-2.906057294	 4.4628329425	 0.7400201326	 0.138726
75.0247	115.011	205.4246	326.1435	368.2777	432.1279	486.1017	544.8215	644.7083	724.4341	749.9118	790.8263	802.2257	828.2606	883.8775	902.2187	930.1647	950.2648	960.095	975.4977	994.984	1078.1605	1084.7494	1123.353	1152.7474	1173.2815	1194.3952	1205.1863	1265.7279	1269.4107	1288.1736	1326.4429	1330.1482	1345.9041	1483.4819	1503.0322	1521.8646	1658.4044	1799.6753	3055.0416	3058.6024	3071.5015	3084.8092	3123.9887	3141.7819	3154.5058	3161.9577	3510.6505
[O-]C(=O)C12CC(C1)C[NH2+]2	[O]C(=O)[C@@]12C[C@@H](C1)C[NH2]2	
InChI=1S/C6H9NO2/c8-5(9)6-1-4(2-6)3-7-6/h4,7H,1-3H2,(H,8,9)	InChI=1S/C6H9NO2/c8-5(9)6-1-4(2-6)3-7-6/h4H,1-3,7H2/t4-,6+
