20
gdb 6967	2.42483	2.21363	1.55216	1.4261	76.49	-0.2314	0.0308	0.2622	938.3548	0.176118	-349.029916	-349.021187	-349.020243	-349.062452	33.407	
C	-0.4127792533	 1.4721867124	 0.0083822186	-0.516964
C	-0.0972250826	 0.0099778568	-0.0223054681	 0.313573
C	 0.1297055768	-0.7534299831	-1.0913757214	-0.17493
C	 0.4063082381	-2.1931818589	-0.7340314982	-0.259545
C	-0.0206412602	-2.2623474959	 0.7501337723	-0.245624
C	 0.0071096707	-0.8051730481	 1.2678572626	 0.314746
C	 1.2901021047	-0.4796800996	 2.0460825833	-0.448885
O	-1.1320831089	-0.6255326131	 2.118711926	-0.4735
H	 0.3473393863	 2.0442093109	 0.5566615529	 0.120354
H	-0.4801949149	 1.8899142323	-0.9994889108	 0.124905
H	-1.3699440689	 1.6490524819	 0.5140626871	 0.128664
H	 0.1396458372	-0.3925410207	-2.115491606	 0.082412
H	-0.1452835836	-2.9013605358	-1.3628654483	 0.101946
H	 1.4705286046	-2.4362854398	-0.8646015128	 0.102037
H	-1.0549605185	-2.6083346224	 0.8266085975	 0.117359
H	 0.5998314751	-2.9318918056	 1.3518305239	 0.090773
H	 2.1794532766	-0.6961127654	 1.4462223849	 0.122292
H	 1.3314864427	 0.5801856259	 2.3257710986	 0.104243
H	 1.3322825996	-1.0766266257	 2.9625927162	 0.121739
H	-1.0094419817	 0.1902523639	 2.6150363618	 0.274406
88.4034	174.5546	212.4929	255.8703	258.8096	269.9918	277.9437	341.7344	398.5477	458.5648	571.7012	595.2754	662.0885	709.3878	803.9819	865.5127	920.8822	929.3048	948.4856	976.3822	1006.695	1035.6591	1063.3602	1093.8996	1120.3262	1125.4222	1209.8468	1232.5331	1246.5064	1304.8283	1316.3629	1350.0091	1370.2028	1398.0509	1410.2151	1478.896	1482.7547	1488.9824	1494.2505	1497.8149	1502.0313	1726.3073	3004.8948	3016.152	3024.6877	3049.0761	3063.3925	3064.4569	3090.5535	3109.2023	3111.2744	3111.8211	3174.446	3811.8514
CC1=CCCC1(C)O	CC1=CCC[C@]1(C)O	
InChI=1S/C7H12O/c1-6-4-3-5-7(6,2)8/h4,8H,3,5H2,1-2H3	InChI=1S/C7H12O/c1-6-4-3-5-7(6,2)8/h4,8H,3,5H2,1-2H3/t7-/m0/s1
