22
gdb 104001	2.6024	1.32232	1.18352	2.3852	81.58	-0.2232	0.0622	0.2854	1200.1508	0.192333	-404.310646	-404.300864	-404.29992	-404.344657	37.468	
C	 0.056943409	 1.5952577482	 0.1296386127	-0.407616
C	-0.0762767602	 0.0725515975	 0.0045593214	-0.226146
C	 0.6701861507	-0.5108862369	-1.1964206407	 0.339297
O	 0.1503560312	 0.0032429778	-2.4160650447	-0.482429
C	 2.2292861866	-0.543332025	-1.1993498463	-0.222243
N	 2.2630335078	-2.0248894155	-1.4615725495	-0.164691
C	 1.598293799	-2.6266452035	-0.2888999155	-0.29579
C	 0.742730218	-2.0414785564	-1.3426253248	 0.311702
C	-0.1424616627	-2.8462933005	-2.246786545	-0.492728
H	 1.1063193468	 1.9029520562	 0.2034415131	 0.120096
H	-0.3888876683	 2.1118687912	-0.7274534854	 0.113134
H	-0.4568106161	 1.9602895312	 1.0234251057	 0.122225
H	 0.2921877146	-0.3985465529	 0.9218093406	 0.095473
H	-1.1348123114	-0.1991118905	-0.0889445136	 0.10494
H	 0.3390946732	 0.946482228	-2.448435576	 0.280425
H	 2.6502920342	-0.0013570092	-2.0487307022	 0.105925
H	 2.7476892651	-0.2490311386	-0.2793245727	 0.092746
H	 1.6768809355	-3.7097882198	-0.2653666176	 0.118141
H	 1.7114057888	-2.1514741308	 0.683571428	 0.104424
H	-1.1245143258	-3.0120692852	-1.7884009047	 0.116655
H	-0.2923307004	-2.3302146564	-3.1976431054	 0.142978
H	 0.3091506844	-3.8229370788	-2.4438393673	 0.123482
85.2391	141.8893	162.7622	185.218	220.9404	248.9942	278.8015	302.2149	347.4356	408.2206	468.5396	486.4011	500.3913	616.7911	689.771	744.7751	781.1069	844.4444	885.5577	909.6089	956.2681	973.4323	989.2786	1024.3332	1036.3058	1087.4136	1097.8078	1107.3965	1128.8513	1177.2014	1198.2393	1231.9684	1258.5791	1286.4464	1314.2974	1345.3373	1362.7605	1397.5607	1408.7424	1417.3395	1476.0335	1477.1836	1482.0458	1498.17	1499.614	1511.0193	1513.7287	3028.5818	3032.4639	3034.0609	3036.7174	3074.0907	3097.0851	3099.1669	3100.8642	3107.0083	3109.7888	3130.9889	3187.5196	3819.5415
CCC1(O)CN2CC12C	CC[C@@]1(O)CN2C[C@@]12C	
InChI=1S/C7H13NO/c1-3-7(9)5-8-4-6(7,8)2/h9H,3-5H2,1-2H3	InChI=1S/C7H13NO/c1-3-7(9)5-8-4-6(7,8)2/h9H,3-5H2,1-2H3/t6-,7+,8?/m0/s1
