17
gdb 47456	2.80348	1.28721	1.04379	3.2929	75.19	-0.2278	0.0363	0.2641	1171.6287	0.13661	-417.988116	-417.979574	-417.97863	-418.021964	31.279	
N	-0.0444350224	 1.305537571	 0.2472399298	-0.602319
C	-0.0053445168	 0.0745520459	-0.045115402	 0.478623
O	 1.1204054084	-0.6594937561	-0.2913038132	-0.250297
C	 0.7442432023	-1.9905276792	-0.675736533	-0.096331
C	-0.6972028119	-2.1389164276	-0.1753963391	-0.187275
N	-1.1134704301	-0.7470979287	-0.1816247905	-0.107016
C	-2.3906297737	-0.3273248054	 0.3711178852	-0.31258
C	-2.6143671005	-0.7725819295	 1.7504028337	 0.316799
C	-2.788753813	-1.1674781806	 2.8720653865	-0.466921
H	 0.8900366653	 1.7053591824	 0.2376263333	 0.22538
H	 0.8053784455	-2.0771473378	-1.7666323597	 0.120256
H	 1.4423163337	-2.6937161982	-0.2181294096	 0.126917
H	-1.3119122914	-2.7484021075	-0.8451192452	 0.11717
H	-0.7442383337	-2.5745294378	 0.8331335439	 0.120993
H	-2.401328506	 0.7654669691	 0.3228867755	 0.182075
H	-3.1988267206	-0.7010737863	-0.2695875265	 0.13231
H	-2.9468486052	-1.4927976337	 3.8706127109	 0.202216
52.9747	90.0673	163.6227	188.3264	256.4594	291.582	334.602	440.4443	532.4126	618.6949	665.6312	687.8871	699.9695	725.671	776.1635	794.0168	895.0122	931.593	953.6301	981.0982	1014.2882	1083.1755	1144.9014	1153.2531	1215.877	1235.5763	1250.7364	1296.7795	1331.6486	1377.943	1403.4112	1445.4732	1464.3959	1521.8072	1531.4075	1774.4635	2234.1466	3001.8117	3030.3747	3040.1818	3073.6649	3097.3711	3117.4252	3504.8004	3540.1035
N=C1OCCN1CC#C	[NH][C]1OCCN1CC#C	
InChI=1S/C6H8N2O/c1-2-3-8-4-5-9-6(8)7/h1,7H,3-5H2	InChI=1S/C6H8N2O/c1-2-3-8-4-5-9-6(8)7/h1,7H,3-5H2
