18
gdb 123865	3.37385	1.54625	1.10792	0.8733	76.64	-0.2453	0.0009	0.2462	1073.9984	0.152968	-398.164995	-398.158061	-398.157117	-398.196291	27.689	
C	-0.019423934	 1.5215676361	-0.0392915636	-0.200507
C	 1.4029439806	 2.1098573449	 0.0231406451	-0.200524
C	 2.1015042993	 1.7990287718	 1.3638569636	-0.320436
C	 1.8884254142	 0.3579714711	 1.7055285167	 0.280253
N	 2.551149278	-0.3554206867	 2.6178359966	-0.29546
N	 1.9725308638	-1.5491395493	 2.5344835816	-0.09017
N	 0.9896966814	-1.6814938514	 1.6494825181	-0.295451
C	 0.9178302541	-0.4656838081	 1.1044290428	 0.280252
C	-0.0132774902	-0.0206700778	 0.0210034519	-0.320443
H	-0.6065289247	 1.9141085213	 0.801227135	 0.103161
H	-0.5224977194	 1.8514125566	-0.9539661748	 0.098093
H	 1.9988138404	 1.6945329573	-0.8000794799	 0.103163
H	 1.3683691384	 3.193225165	-0.1305866663	 0.09809
H	 3.1693904759	 2.0348507641	 1.3139374844	 0.118542
H	 1.6814186559	 2.4346163264	 2.1549344982	 0.117168
H	 2.2651908417	-2.317660129	 3.1149977468	 0.288533
H	-1.022357535	-0.4107837219	 0.1885341883	 0.11855
H	 0.3185314497	-0.4265291905	-0.9440954947	 0.117184
109.9038	219.6054	311.5204	317.3438	385.2813	442.7114	490.8859	501.6834	668.1831	694.6201	716.2851	726.9832	834.2364	852.2787	920.3427	942.3348	970.6109	1004.9655	1066.9623	1102.4351	1155.0491	1167.5677	1184.34	1186.7924	1232.8053	1261.8258	1278.3228	1335.255	1347.4867	1367.6059	1375.5801	1402.2573	1452.3127	1477.6417	1481.4479	1491.2955	1500.3946	1534.4605	1567.0772	3017.6853	3017.828	3023.1479	3029.2538	3072.0608	3074.3151	3077.3088	3080.7723	3674.2345
C1CCC2=NNN=C2C1	C1CCc2n[nH]nc2C1	
InChI=1S/C6H9N3/c1-2-4-6-5(3-1)7-9-8-6/h1-4H2,(H,7,8,9)	InChI=1S/C6H9N3/c1-2-4-6-5(3-1)7-9-8-6/h1-4H2,(H,7,8,9)
