13
gdb 44710	3.50115	1.4113	1.18772	4.8404	58.37	-0.2699	-0.0671	0.2028	988.1377	0.089171	-493.746392	-493.739532	-493.738587	-493.778599	25.217	
O	 0.0110557267	-0.0096447358	-0.3519345184	-0.256007
C	-0.0045508382	 1.144182522	-0.0599760009	 0.377496
C	-1.1051561656	 2.1479525819	 0.3509193191	-0.381096
C	-0.0060136425	 3.2231229544	 0.5423786303	 0.064563
O	 0.3423445049	 3.4514265484	 1.9028168755	-0.248542
C	 1.4873176732	 2.789329743	 2.2338922434	 0.49898
O	 1.9953087207	 2.8080469822	 3.3044741811	-0.351735
O	 1.9749588476	 2.1024497616	 1.1567773207	-0.241377
C	 1.101220039	 2.2462920867	 0.050717188	-0.029098
H	-1.8132774807	 2.3572345657	-0.4567570388	 0.152757
H	-1.6647012818	 1.8919641231	 1.2542719488	 0.16413
H	-0.141967379	 4.1791192279	 0.0389085909	 0.118939
H	 1.6713834156	 2.465730499	-0.8536511796	 0.130991
52.9746	122.5492	218.6759	373.388	418.9835	504.2981	523.8908	618.3369	705.2401	765.7821	768.0075	790.7058	868.2796	892.2424	943.236	971.9814	1045.0313	1079.9132	1106.7681	1124.1883	1143.1657	1184.0155	1249.5119	1271.5837	1330.0315	1370.267	1418.8336	1912.4143	1940.2496	3066.1685	3105.5535	3123.2259	3132.01
O=C1CC2OC(=O)OC12	O=C1C[C@H]2OC(=O)O[C@@H]12	
InChI=1S/C5H4O4/c6-2-1-3-4(2)9-5(7)8-3/h3-4H,1H2	InChI=1S/C5H4O4/c6-2-1-3-4(2)9-5(7)8-3/h3-4H,1H2/t3-,4+/m1/s1
