17
gdb 77551	3.02878	1.30938	1.09919	2.7986	70.71	-0.2537	-0.0433	0.2104	1127.3844	0.132892	-458.908313	-458.899605	-458.898661	-458.941845	32.353	
C	-0.057408628	 1.4500263806	 0.1675262487	-0.513632
C	-0.0468349072	-0.0259524455	-0.0624894552	 0.337536
C	 0.6956841012	-0.8823980739	-1.1121098889	-0.294525
C	 0.1174723733	-1.8364075589	-0.052294734	 0.263286
O	 0.5432892951	-0.8970995968	 1.0180310837	-0.403004
C	 0.3365408501	-3.2949796973	 0.1571604524	 0.035169
O	 0.3566859134	-4.0951950119	-0.7437434846	-0.248986
C	-1.2401275003	-1.0302519659	-0.1134041143	 0.121605
O	-2.0871492443	-1.0843208203	 0.9745470809	-0.436967
H	 0.9535407317	 1.8196565418	 0.361587955	 0.141044
H	-0.4530902261	 1.9631464892	-0.7144294365	 0.135816
H	-0.6930212865	 1.6978172165	 1.0231529389	 0.137889
H	 0.2849301488	-0.9317983719	-2.1225001325	 0.11465
H	 1.7817057259	-0.7950791659	-1.0916848077	 0.121422
H	 0.4588729342	-3.5924546858	 1.2217109566	 0.094181
H	-1.8239549355	-1.1021146579	-1.0328118136	 0.105115
H	-1.5093899658	-1.0061135561	 1.749314911	 0.2894
62.046	149.2743	178.5433	181.8919	204.594	296.1374	327.6092	425.3305	482.7541	507.3652	605.5777	635.899	679.9633	722.4913	727.4575	773.5086	869.1214	932.1021	952.7351	1011.6696	1020.7886	1107.3339	1125.4919	1141.0875	1158.5064	1168.1673	1185.2322	1246.7102	1302.2567	1361.2669	1406.1375	1414.3783	1442.7881	1476.7006	1485.6192	1502.768	1817.4834	2895.4805	3041.5951	3078.6613	3111.2266	3115.5449	3119.8828	3161.9988	3719.8463
CC12CC(O1)(C=O)C2O	C[C@@]12C[C@](O1)(C=O)[C@H]2O	
InChI=1S/C6H8O3/c1-5-2-6(3-7,9-5)4(5)8/h3-4,8H,2H2,1H3	InChI=1S/C6H8O3/c1-5-2-6(3-7,9-5)4(5)8/h3-4,8H,2H2,1H3/t4-,5-,6-/m0/s1
