19
gdb 36645	5.69201	0.75123	0.73255	4.5384	81.79	-0.2332	0.0389	0.2722	1551.863	0.160129	-382.005496	-381.997285	-381.996341	-382.039276	30.898	
N	 2.298416088	-1.2878920101	 1.3132999659	-0.30698
C	 2.2732540511	-0.1326607707	 1.2946225054	 0.25276
C	 2.232230954	 1.3260994093	 1.2458206676	-0.33024
C	 1.770870679	 1.8558622096	-0.1270334446	-0.157027
N	 1.7114517775	 3.311666254	-0.0559788562	-0.108766
C	 1.3001205264	 4.0842887565	-1.2996532353	-0.010316
C	 1.9490012793	 5.3179505426	-0.6207147481	-0.206415
C	 2.9319322467	 4.1282411806	-0.4769472912	-0.017922
C	 2.6715071031	 3.7967392412	-1.975351266	-0.239601
H	 1.558766009	 1.7005335308	 2.0229126266	 0.160594
H	 3.2310600148	 1.7126654509	 1.4785406684	 0.149951
H	 2.4251738156	 1.4387663166	-0.9062049151	 0.105836
H	 0.7586132715	 1.4879289319	-0.3277348335	 0.123415
H	 0.2967327642	 3.9901245712	-1.7186763391	 0.086039
H	 2.2571139564	 6.1350544282	-1.27404076	 0.09928
H	 1.4745765963	 5.6512487505	 0.3021451653	 0.1076
H	 3.8698960897	 4.0922189485	 0.0799295043	 0.083904
H	 2.8652523162	 2.7788592874	-2.3123132541	 0.107278
H	 3.0260457212	 4.521499181	-2.7129110502	 0.10061
63.608	71.6647	108.2256	224.8941	322.226	363.3515	404.2632	500.7449	557.1802	623.6527	737.6442	784.1914	789.8207	811.1416	876.0893	898.0796	906.6937	963.2317	994.9415	1000.7052	1042.477	1059.951	1074.2793	1092.8058	1119.0666	1121.9656	1181.6718	1186.9071	1192.8531	1220.5166	1230.9369	1265.4915	1274.8082	1295.8399	1320.624	1394.0454	1467.5805	1481.7348	1499.5218	1529.7815	2362.5044	2997.1189	3049.1921	3065.9434	3069.1028	3081.3954	3097.42	3098.938	3106.9456	3141.704	3163.2364
N#CCCN1C2CC1C2	N#CCCN1[C@H]2C[C@@H]1C2	
InChI=1S/C7H10N2/c8-2-1-3-9-6-4-7(9)5-6/h6-7H,1,3-5H2	InChI=1S/C7H10N2/c8-2-1-3-9-6-4-7(9)5-6/h6-7H,1,3-5H2/t6-,7+
