19
gdb 91451	2.42266	1.70982	1.32619	2.7936	75.27	-0.2249	-0.0162	0.2087	1038.9385	0.158337	-423.024931	-423.016437	-423.015493	-423.057581	32.673	
C	-0.0660377662	 1.5222594287	-0.0310982142	-0.417396
C	 0.0778028351	 0.0130453372	 0.0624332074	 0.120598
O	 0.9546808827	-0.4839345695	-0.9937476616	-0.297005
C	 1.920895501	-1.2632301005	-0.2766711981	-0.020599
C	 2.2905711037	-0.3494344016	 0.9230699484	-0.301731
C	 0.7801111467	-0.566585676	 1.3179752371	 0.137805
C	 0.1951044272	-0.3093927573	 2.6819539081	-0.505845
C	 1.0437291358	-1.9937654978	 0.765983602	 0.41367
O	 0.8087103399	-3.1083950407	 1.1210293351	-0.319719
H	 0.8747308667	 2.0386252108	 0.1776258561	 0.120184
H	-0.384260993	 1.7951883158	-1.041713212	 0.135149
H	-0.82498333	 1.8792513541	 0.6726705389	 0.120058
H	-0.9116883401	-0.4504240202	-0.059110438	 0.08698
H	 2.6315320048	-1.7280676532	-0.9545619364	 0.100288
H	 2.9846203686	-0.8058358321	 1.6322284259	 0.119812
H	 2.5992852055	 0.6635027316	 0.6610146217	 0.118098
H	 0.2155008735	 0.7552488113	 2.9361228181	 0.125471
H	-0.8466199135	-0.6453844064	 2.7239407655	 0.132215
H	 0.7486857915	-0.8538091042	 3.4526897459	 0.131966
127.5559	168.1975	195.284	212.5196	221.7598	258.2888	320.2402	448.6417	468.2708	505.7613	596.5628	671.7326	692.6218	771.3818	817.0119	845.9429	858.8204	884.8021	961.7839	995.3976	1012.0194	1054.8302	1061.0975	1075.5874	1123.0982	1140.9769	1192.3361	1203.7011	1218.8964	1259.7921	1298.5376	1353.7492	1397.0573	1411.8022	1415.7803	1476.2424	1487.8822	1489.819	1493.2738	1497.2873	1904.7517	2998.9936	3035.0542	3041.9437	3076.6603	3100.3511	3108.6203	3113.2115	3121.4969	3145.6493	3168.8877
CC1OC2CC1(C)C2=O	C[C@H]1O[C@H]2C[C@]1(C)C2=O	
InChI=1S/C7H10O2/c1-4-7(2)3-5(9-4)6(7)8/h4-5H,3H2,1-2H3	InChI=1S/C7H10O2/c1-4-7(2)3-5(9-4)6(7)8/h4-5H,3H2,1-2H3/t4-,5+,7+/m1/s1
