17
gdb 111574	3.52565	1.40571	1.24548	1.2937	65.93	-0.2483	0.0515	0.2997	1016.0242	0.137027	-458.892003	-458.884908	-458.883963	-458.923991	27.936	
O	 0.0274110851	 1.3931260922	-0.0985240659	-0.420589
C	 0.0207623239	-0.01701554	 0.080949676	-0.104323
C	-1.3888976331	-0.600347732	 0.0398266521	 0.014934
C	-2.1047058462	-0.5041232809	-1.3266333753	-0.003155
O	-1.1671044516	-1.1872017857	-2.2147807083	-0.293553
C	-1.5727509537	-2.3790366146	-1.5421911563	 0.056586
C	-2.9712669719	-1.8489188459	-1.2267532005	 0.060775
O	-2.9549260469	-2.3199195211	 0.1175703421	-0.287227
C	-1.508321037	-2.1413209393	 0.0434312821	-0.002527
H	-0.0995012864	 1.5660794558	-1.0363915408	 0.288717
H	 0.6575894278	-0.5167835791	-0.6588456005	 0.107048
H	 0.4543786714	-0.1965132641	 1.0708134047	 0.108608
H	-1.9988577518	-0.1902303367	 0.8488687891	 0.096158
H	-2.4663842	 0.447388812	-1.7108312674	 0.087924
H	-1.2787227992	-3.3216793504	-1.9988015565	 0.101256
H	-3.8980792765	-1.9804678363	-1.7812210671	 0.100458
H	-0.9475625738	-2.7504374239	 0.7496753524	 0.08891
59.1119	168.8939	244.9065	307.6431	375.6723	485.8307	538.3883	600.9546	714.0191	742.98	770.025	821.7918	848.1293	873.7885	902.864	943.7266	954.9119	985.3879	999.3322	1034.4832	1064.713	1082.0616	1091.4616	1124.0428	1146.4647	1163.3673	1194.3135	1201.489	1229.9129	1256.6472	1280.5673	1302.6705	1344.0093	1359.0829	1407.1241	1413.7468	1500.7739	3029.7544	3072.708	3091.5409	3141.5365	3144.7314	3148.3662	3158.7529	3825.045
OCC1C2OC3C2OC13	OC[C@H]1[C@H]2O[C@@H]3[C@H]2O[C@H]13	
InChI=1S/C6H8O3/c7-1-2-3-5-6(8-3)4(2)9-5/h2-7H,1H2	InChI=1S/C6H8O3/c7-1-2-3-5-6(8-3)4(2)9-5/h2-7H,1H2/t3-,4-,5+,6+/m1/s1
