15
gdb 28679	3.60299	1.05432	0.87858	3.8802	72.57	-0.2467	-0.0133	0.2334	1292.147	0.11297	-416.864262	-416.855969	-416.855025	-416.898292	29.1	
C	 0.1914199209	 1.3902826825	-0.2613880778	-0.496144
C	-0.0371977101	-0.053971612	-0.0149872125	 0.327884
C	-1.0775029645	-0.8041707462	 0.4240962524	-0.193029
N	-0.7120148722	-2.1462795945	 0.4473367811	-0.295499
C	 0.5110210906	-2.1461945258	 0.0323515079	 0.387061
C	 1.4201352632	-3.3244541658	-0.1238553585	-0.435846
C	 1.9227281411	-3.4904212223	-1.4905751164	 0.266159
N	 2.3252482878	-3.622699386	-2.5646785817	-0.298377
O	 1.0005711269	-0.9190816763	-0.2686395275	-0.198385
H	 1.0121554809	 1.777215817	 0.3523681183	 0.146646
H	 0.4442242388	 1.5814384697	-1.3098864514	 0.151817
H	-0.7132769627	 1.9515921494	-0.0181819246	 0.145489
H	-2.0615891445	-0.4794203176	 0.7220815296	 0.128099
H	 2.2800794956	-3.2391820736	 0.5519835083	 0.174343
H	 0.8563395484	-4.2136965484	 0.169093743	 0.189781
41.0111	92.1018	140.686	204.1974	254.2546	318.329	376.0903	391.4841	482.4803	640.8679	652.6744	698.2409	793.9968	850.6844	919.2186	941.4036	982.2928	998.9086	1038.9389	1067.7713	1143.3335	1214.2855	1229.5639	1267.8552	1327.4357	1372.8778	1419.6795	1446.7079	1471.8716	1489.5036	1611.5154	1650.0488	2370.9831	3037.0499	3042.0081	3091.2417	3115.1768	3133.245	3268.0054
CC1=CN=C(CC#N)O1	Cc1cnc(CC#N)o1	
InChI=1S/C6H6N2O/c1-5-4-8-6(9-5)2-3-7/h4H,2H2,1H3	InChI=1S/C6H6N2O/c1-5-4-8-6(9-5)2-3-7/h4H,2H2,1H3
