16
gdb 74470	2.943	1.51323	1.086	3.6086	73.08	-0.22	0.0035	0.2235	1085.997	0.126129	-434.118041	-434.110191	-434.109247	-434.150139	30.525	
N	 0.0075951491	 1.3471589304	 0.1428856077	-0.586146
C	-0.0396729493	-0.0250719087	 0.0316148054	 0.407815
N	-1.1071928633	-0.7401675742	 0.0197805766	-0.371634
C	-0.6496501069	-2.1021954093	-0.0036521003	 0.223971
C	-1.3892274404	-3.2051684747	 0.7305389836	-0.299809
C	-1.4030640857	-3.1773085379	-0.7634905555	-0.298638
C	 0.8512973841	-2.1077806927	-0.0130754624	 0.386794
O	 1.6367890298	-3.0260299079	-0.0116023767	-0.382191
N	 1.1554814838	-0.7452535005	-0.0173645982	-0.39903
H	 0.7196035298	 1.8030221049	-0.4111914821	 0.254826
H	-0.9046865907	 1.7642314382	 0.0149152316	 0.267537
H	-0.7725534271	-3.9477340758	 1.2246363119	 0.136735
H	-2.2819205783	-2.8951240882	 1.2601696912	 0.130564
H	-2.3058089209	-2.8491336034	-1.2645049967	 0.129752
H	-0.7969476053	-3.9018641441	-1.2960775313	 0.135661
H	 2.0846237813	-0.3791780661	 0.1128545253	 0.263793
125.2237	166.9625	227.7091	231.0016	324.4339	353.7595	429.6082	476.6205	502.574	592.4372	634.0386	651.7169	732.1493	761.0813	767.7864	788.4078	899.5973	923.5065	957.6216	987.7224	1012.2042	1060.7409	1085.2671	1133.446	1165.974	1205.0582	1283.98	1303.8814	1354.9855	1445.5806	1478.9374	1487.1101	1625.7343	1720.4336	1845.057	3140.599	3141.8605	3231.8392	3246.1128	3553.4696	3651.9206	3656.101
NC1=NC2(CC2)C(=O)N1	NC1=NC2(CC2)C(=O)N1	
InChI=1S/C5H7N3O/c6-4-7-3(9)5(8-4)1-2-5/h1-2H2,(H3,6,7,8,9)	InChI=1S/C5H7N3O/c6-4-7-3(9)5(8-4)1-2-5/h1-2H2,(H3,6,7,8,9)
