16
gdb 25822	4.02166	1.07372	0.85656	5.588	78.45	-0.193	-0.0091	0.1839	1283.8268	0.126663	-434.136447	-434.128032	-434.127087	-434.169394	32.007	
N	-0.1148410374	 1.3690462629	 0.0893327384	-0.5617
C	 0.0517458438	-0.0127778537	-0.034045605	 0.283397
O	 1.1496190809	-0.5135917168	-0.2018623447	-0.359179
C	-1.1847679995	-0.789209549	 0.0024857725	 0.220662
C	-1.3555373981	-2.1467054993	 0.1675595573	-0.177546
C	-2.7456299578	-2.4198693591	 0.1771776142	-0.223222
C	-3.3994334301	-1.2135644988	-0.0046827007	 0.322472
N	-4.7514712592	-0.9090570658	-0.1889553303	-0.605284
N	-2.458633184	-0.2244608846	-0.0836271824	-0.375023
H	 0.7652537096	 1.8528715237	 0.204633313	 0.253516
H	-0.8355710059	 1.6847205643	 0.7227123228	 0.24315
H	-0.5484592266	-2.8482263439	 0.3088996173	 0.121159
H	-3.2221965413	-3.3778933566	 0.3183769878	 0.091633
H	-5.3297430451	-1.7363114472	-0.1259720576	 0.25504
H	-5.0999305162	-0.2125044334	 0.4606847537	 0.248674
H	-2.6423085931	 0.6827544473	-0.4798168263	 0.262251
98.5801	143.313	159.9077	196.758	297.7431	369.1906	398.7665	418.2957	523.5335	537.702	576.6316	641.9247	656.7423	666.6627	705.7975	754.6151	780.9441	794.0683	881.932	975.0205	1013.6429	1054.8848	1087.0598	1123.5196	1160.8109	1264.7636	1296.2779	1365.821	1420.2198	1477.7718	1549.5169	1610.1518	1630.0477	1658.6418	1774.1982	3245.2468	3267.5015	3518.4203	3552.5929	3623.2096	3659.2889	3666.7825
NC(=O)C1=CC=C(N)N1	NC(=O)c1ccc(N)[nH]1	
InChI=1S/C5H7N3O/c6-4-2-1-3(8-4)5(7)9/h1-2,8H,6H2,(H2,7,9)	InChI=1S/C5H7N3O/c6-4-2-1-3(8-4)5(7)9/h1-2,8H,6H2,(H2,7,9)
