22
gdb 120147	2.95724	0.98788	0.87979	2.6469	83.17	-0.2269	0.0725	0.2993	1447.6849	0.193579	-404.283244	-404.273661	-404.272716	-404.318307	35.174	
C	 0.4263223612	 0.6358583041	 0.769032839	-0.224742
O	 0.0851059087	-0.7199405149	 0.615762402	-0.22902
C	-1.2726773021	-0.9794817811	 0.9075833223	-0.099574
C	-1.4883229025	-2.4664274383	 0.7809313419	 0.01342
C	-2.7685324513	-3.2023311948	 0.7045466761	-0.091185
C	-3.8667713539	-2.5473838494	-0.1377477196	 0.031882
C	-4.6642867133	-1.3588198608	 0.3881244982	-0.421564
C	-2.7896959897	-2.4041861515	-1.2495073004	-0.195744
N	-1.7805848223	-3.2045057723	-0.4648318126	-0.145447
H	 1.48637281	 0.7360857793	 0.5240117588	 0.129539
H	-0.1562036022	 1.2853216242	 0.0956782824	 0.101633
H	 0.265361052	 0.9852321346	 1.8019293141	 0.101972
H	-1.5093850634	-0.6710344611	 1.9415155974	 0.089253
H	-1.9221176141	-0.3917744427	 0.2445875913	 0.088652
H	-0.7212062039	-3.0038440225	 1.3370522695	 0.103735
H	-2.9254314865	-4.0930961477	 1.307618808	 0.089039
H	-4.5708333138	-3.3287210454	-0.4412499365	 0.086857
H	-5.2727713052	-1.6529097647	 1.2506186377	 0.118737
H	-4.0255737001	-0.5295094457	 0.7029604292	 0.119757
H	-5.3458034593	-0.9796751154	-0.3814871941	 0.117241
H	-3.0317016371	-2.9310199713	-2.1742295835	 0.110413
H	-2.4637307812	-1.3916932526	-1.506412011	 0.105146
53.7454	81.676	115.2159	190.6951	202.0714	224.9247	272.779	333.1034	367.9661	408.1231	497.9323	601.239	690.6546	732.8487	766.9728	875.8852	878.47	931.4817	959.1433	982.8784	1003.5099	1031.7219	1080.0815	1105.7579	1117.36	1134.7661	1156.152	1172.3341	1184.913	1199.0003	1226.4064	1258.1177	1264.1066	1279.0924	1299.5092	1353.1105	1385.7802	1393.9076	1412.9419	1466.2962	1483.1788	1485.8042	1493.2189	1498.1669	1499.8998	1510.6648	1530.537	2947.989	2965.909	3006.5375	3016.3903	3033.4117	3049.9247	3056.6898	3092.4542	3111.5542	3114.9987	3119.3994	3121.3998	3140.5945
COCC1C2C(C)CN12	COC[C@H]1[C@H]2[C@@H](C)CN12	
InChI=1S/C7H13NO/c1-5-3-8-6(4-9-2)7(5)8/h5-7H,3-4H2,1-2H3	InChI=1S/C7H13NO/c1-5-3-8-6(4-9-2)7(5)8/h5-7H,3-4H2,1-2H3/t5-,6-,7+,8?/m0/s1
