25
gdb 95065	2.62507	1.42475	1.13777	0.0653	91.53	-0.2778	0.0787	0.3566	1221.892	0.232585	-352.368575	-352.360267	-352.359323	-352.400728	34.713	
C	 0.1479020934	 1.6325223517	 0.0373300996	-0.40048
C	-0.0051975814	 0.105406846	-0.0146617089	 0.044394
C	 0.5530680257	-0.4492103773	-1.3378291208	-0.183359
C	 0.1303717537	-1.8851614964	-1.7011538626	-0.222437
C	 0.3554141655	-2.9616541773	-0.6289739564	 0.020603
C	-0.5020978949	-2.7880272499	 0.6593620685	-0.230744
C	 0.701091262	-2.0530119064	 1.3190353707	-0.00168
C	 1.6142169985	-2.7345195153	 0.2569344973	-0.231275
C	 0.6408271701	-0.5202010909	 1.2405831842	-0.196361
H	 1.202762985	 1.9233806612	-0.0380657661	 0.110626
H	-0.388919215	 2.1145258009	-0.7864746255	 0.106686
H	-0.2405696153	 2.0414127175	 0.9762780365	 0.107095
H	-1.0819246536	-0.1136355209	 0.0105595559	 0.0702
H	 0.2333096026	 0.2075633155	-2.156676676	 0.08551
H	 1.6488583613	-0.3762209222	-1.3166493358	 0.092516
H	-0.934422705	-1.8879610243	-1.9732799888	 0.091028
H	 0.6737493453	-2.1745151592	-2.6099496899	 0.090121
H	 0.2800453847	-3.946684816	-1.0996834589	 0.057536
H	-1.4517306366	-2.2520036426	 0.5733079377	 0.088696
H	-0.6944598688	-3.7511270148	 1.1408205236	 0.089136
H	 0.915330737	-2.3378859441	 2.3536603723	 0.058006
H	 2.0173241311	-3.6804735946	 0.629690703	 0.089594
H	 2.4402995602	-2.1502623496	-0.1591155249	 0.088028
H	 1.6647057874	-0.1300223013	 1.3397158046	 0.087813
H	 0.093194807	-0.1477209497	 2.1164566207	 0.088746
136.5494	207.6113	238.1227	296.0162	303.8195	308.2251	355.211	385.0518	417.6124	502.4346	561.3807	738.8392	784.827	801.9689	810.5697	839.3041	874.8154	889.1914	915.1063	932.5497	958.8419	1003.3539	1012.0348	1021.2885	1044.4479	1059.429	1097.0801	1126.3037	1146.3061	1166.7412	1183.2748	1190.6199	1194.1521	1258.6714	1265.1491	1280.1336	1293.1478	1308.6337	1326.1904	1346.6717	1357.4222	1367.5095	1387.3148	1395.4112	1400.4218	1415.9771	1472.8172	1479.3255	1485.5244	1493.8209	1498.1623	1500.9413	1511.1174	2994.6232	3001.6729	3004.9524	3012.8674	3023.0968	3035.0798	3037.3094	3043.9374	3046.0642	3050.3277	3053.4916	3062.0951	3088.0441	3096.2719	3097.2383	3098.692
CC1CCC2CC(C2)C1	C[C@H]1CC[C@@H]2C[C@@H](C2)C1	
InChI=1S/C9H16/c1-7-2-3-8-5-9(4-7)6-8/h7-9H,2-6H2,1H3	InChI=1S/C9H16/c1-7-2-3-8-5-9(4-7)6-8/h7-9H,2-6H2,1H3/t7-,8-,9+/m0/s1
