17
gdb 29651	2.44564	1.62168	0.98871	4.1243	72.63	-0.1688	0.0609	0.2297	1154.4397	0.137029	-451.374166	-451.364574	-451.363629	-451.408329	34.535	
C	-0.0780868948	 1.4517896985	 0.0092162726	-0.349621
N	-0.0124947148	 0.0096843581	 0.0458970653	-0.133878
C	-0.0627906788	-0.77588272	-1.1100774801	 0.443806
O	-0.1176281032	-0.381822353	-2.2630096532	-0.451457
N	-0.0412389745	-2.0685242904	-0.6328170553	-0.419894
C	 0.023267028	-2.0916556101	 0.7843312432	 0.17764
N	 0.0475012648	-3.2377554962	 1.5922911102	-0.608764
C	 0.0329269354	-0.7985728929	 1.1810021667	 0.283842
N	-0.0213434392	-0.248914959	 2.4648366961	-0.607452
H	 0.873418163	 1.913541682	 0.3006124117	 0.120482
H	-0.2986854627	 1.7322011614	-1.0221450447	 0.169655
H	-0.8655398935	 1.8195018964	 0.6736134445	 0.140231
H	-0.099336017	-2.8641210926	-1.2426878445	 0.254247
H	 0.8485637076	-3.8369140746	 1.4166109219	 0.239284
H	-0.7922183629	-3.804340351	 1.5160890214	 0.240325
H	-0.0167288347	-1.0015241557	 3.1451134257	 0.256544
H	 0.7601860572	 0.3701054991	 2.6602221985	 0.245009
106.1499	116.7853	123.0659	183.1781	233.0227	257.4558	274.1109	277.5123	327.0444	358.7725	442.0847	569.1339	633.6807	640.3098	657.4272	745.9005	753.3348	783.3517	841.1094	928.9787	1016.2805	1156.9636	1159.2207	1210.9544	1228.0363	1239.7953	1259.9649	1349.1804	1419.3847	1431.3187	1487.17	1502.3745	1515.9231	1635.4658	1656.2772	1764.6181	1822.5338	3021.698	3086.767	3146.9881	3476.457	3489.0567	3535.425	3587.1586	3697.1453
CN1C(=O)NC(N)=C1N	Cn1c(=O)[nH]c(N)c1N	
InChI=1S/C4H8N4O/c1-8-3(6)2(5)7-4(8)9/h5-6H2,1H3,(H,7,9)	InChI=1S/C4H8N4O/c1-8-3(6)2(5)7-4(8)9/h5-6H2,1H3,(H,7,9)
