15
gdb 30631	4.54025	0.97017	0.80338	3.6699	68.9	-0.244	-0.0414	0.2026	1329.7407	0.112046	-457.793056	-457.78474	-457.783796	-457.82696	29.454	
O	 0.003024569	 1.4124054346	 0.0098990325	-0.393841
C	-0.0127157206	 0.0102857177	 0.0034517814	-0.188649
C	-1.4608507183	-0.4812710406	 0.0124776588	 0.288566
O	-2.3983715624	 0.2835309243	 0.0230556823	-0.298245
C	-1.6587337766	-1.9447653145	 0.0076055766	 0.143623
C	-0.7293713598	-2.9484442718	-0.0036347725	-0.08629
O	-1.3301015335	-4.1562827063	-0.0043375061	-0.144893
C	-2.6797919416	-3.9311722528	 0.0066217288	 0.009645
C	-2.9387571271	-2.6040251255	 0.0142298672	-0.274525
H	 0.9207864075	 1.6990170981	 0.0037369332	 0.292506
H	 0.4794855012	-0.4158639141	-0.8880243565	 0.10807
H	 0.4934129187	-0.424153132	 0.8830493179	 0.108045
H	 0.3483939812	-2.9637930963	-0.0116837087	 0.147474
H	-3.2947037394	-4.8153764146	 0.0073780678	 0.147596
H	-3.8984011583	-2.1142199163	 0.0234479772	 0.140919
62.3729	75.9031	146.259	185.1623	230.2488	289.8493	364.7152	492.6478	541.8925	620.6213	673.5169	749.9945	754.5429	804.5247	874.0504	891.5207	927.3075	1009.79	1022.1074	1052.6195	1109.5836	1148.5845	1194.0312	1228.2344	1252.9614	1265.4774	1319.4036	1401.491	1445.6691	1501.5508	1544.1708	1602.737	1794.1486	2951.0423	2974.7476	3272.1795	3274.3579	3295.458	3836.9363
OCC(=O)C1=COC=C1	OCC(=O)c1cocc1	
InChI=1S/C6H6O3/c7-3-6(8)5-1-2-9-4-5/h1-2,4,7H,3H2	InChI=1S/C6H6O3/c7-3-6(8)5-1-2-9-4-5/h1-2,4,7H,3H2
