19
gdb 67070	2.61245	1.56039	1.32589	0.8769	86.78	-0.2373	0.0391	0.2764	1059.4165	0.158694	-348.680993	-348.67279	-348.671846	-348.713278	32.7	
C	-0.0858103458	 1.5577432976	-0.0685402254	-0.524842
C	-0.0098556421	 0.0698166373	-0.0170724106	 0.306318
C	 0.0158287646	-1.0159377946	-1.0647548437	-0.125982
C	 1.2882000627	-1.6355901952	-0.5025441959	-0.274073
C	 0.9191249326	-0.9290354637	 0.8411123249	 0.179942
C	-0.3886948789	-1.6594404512	 1.284916545	-0.274066
C	-1.0392021329	-1.0309469558	 0.0598382667	-0.125987
C	 1.9233907905	-0.5500314078	 1.7883350942	 0.056939
C	 2.7644135505	-0.2141043428	 2.5817250282	-0.345602
H	 0.867117637	 1.998897407	-0.3821262938	 0.126504
H	-0.8529717565	 1.8776671783	-0.7824369771	 0.122719
H	-0.3416053512	 1.9817887769	 0.9090978314	 0.126527
H	-0.2815953994	-0.9315081336	-2.1022819872	 0.08603
H	 1.3877180902	-2.7264515263	-0.4695949925	 0.092686
H	 2.1836732014	-1.1944692014	-0.9467793979	 0.108306
H	-0.3349260036	-2.7509521875	 1.3666323555	 0.092685
H	-0.7806747789	-1.2366400226	 2.2130302861	 0.108306
H	-2.0946356739	-0.9572969596	-0.1697037283	 0.086028
H	 3.5074445637	 0.074757575	 3.2826598504	 0.177561
116.1659	146.6885	200.0512	214.5967	275.1291	397.2884	461.3275	501.6715	518.8184	528.8806	613.2086	629.8837	650.9606	712.9299	734.0402	843.1809	872.0027	902.1512	914.7701	970.8256	972.2834	1009.8292	1014.7694	1068.0178	1069.6937	1121.0551	1126.0062	1151.5572	1160.6265	1220.6782	1243.3949	1246.7069	1290.2011	1311.8619	1409.4227	1455.4841	1481.2276	1489.7193	1496.4359	1509.4283	2228.8519	3022.2111	3033.0679	3039.7757	3083.1874	3091.614	3104.4859	3107.2818	3190.766	3200.6393	3503.8078
CC12C3CC1(CC23)C#C	C[C@@]12[C@H]3C[C@@]1(C[C@@H]23)C#C	
InChI=1S/C9H10/c1-3-9-4-6-7(5-9)8(6,9)2/h1,6-7H,4-5H2,2H3	InChI=1S/C9H10/c1-3-9-4-6-7(5-9)8(6,9)2/h1,6-7H,4-5H2,2H3/t6-,7+,8-,9+
