19
gdb 65228	2.75199	1.27232	1.12834	1.0617	76.24	-0.2504	-0.0317	0.2187	1172.3133	0.157309	-423.010747	-423.001842	-423.000898	-423.044732	33.118	
C	-0.1627996038	 1.5155366777	 0.2973210093	-0.491367
C	-0.0168218723	 0.0255042782	 0.0566787262	 0.369033
C	 1.3372491592	-0.5294940604	-0.3266085868	-0.298752
C	 0.7803329511	-0.7963753202	 1.0470418486	-0.307669
C	-1.2061092959	-0.6452474172	-0.5777267087	-0.053666
O	-2.4660308158	-0.4347955705	 0.1222952331	-0.294764
C	-3.1463946308	 0.0975589857	-1.0304986453	-0.189321
C	-1.8448868691	-0.0125431489	-1.8333011572	 0.330455
O	-1.4782321328	 0.2795686483	-2.9292491314	-0.274643
H	 0.7245578173	 1.9192682553	 0.7928469037	 0.116482
H	-0.2927281801	 2.0609660322	-0.6446504258	 0.127488
H	-1.0288335139	 1.7188468832	 0.9346544695	 0.133721
H	 1.3788129624	-1.3506889945	-1.0342060653	 0.118766
H	 2.1525112399	 0.178579583	-0.4255156636	 0.118107
H	 1.2180389525	-0.2726918664	 1.8898321551	 0.116644
H	 0.4378327873	-1.7992513682	 1.2778689654	 0.117616
H	-1.0115136034	-1.7192709862	-0.7160459901	 0.097681
H	-3.9622387234	-0.545329548	-1.3863757614	 0.130409
H	-3.5262589783	 1.1148398169	-0.8743383951	 0.133779
57.4563	104.6068	128.6116	218.8716	234.3811	290.41	316.0551	375.1428	427.9832	474.6564	570.4919	710.2693	723.4659	779.477	831.5628	869.7853	905.8656	957.6013	964.0251	986.9021	1000.1231	1033.9501	1049.259	1078.3569	1081.0522	1086.497	1126.5434	1140.3756	1187.0075	1238.4724	1270.0451	1299.2577	1333.2979	1381.8662	1417.8739	1470.4126	1480.5336	1491.0264	1503.336	1511.1883	1921.3727	2995.88	3016.4122	3031.1689	3063.2797	3096.4467	3112.9963	3132.804	3136.7243	3210.9008	3224.643
CC1(CC1)C1OCC1=O	CC1(CC1)[C@H]1OCC1=O	
InChI=1S/C7H10O2/c1-7(2-3-7)6-5(8)4-9-6/h6H,2-4H2,1H3	InChI=1S/C7H10O2/c1-7(2-3-7)6-5(8)4-9-6/h6H,2-4H2,1H3/t6-/m0/s1
