15
gdb 44652	2.49731	1.84808	1.20482	5.1762	72.31	-0.2442	-0.062	0.1822	989.5626	0.113014	-420.665797	-420.658708	-420.657763	-420.697823	27.138	
O	 0.1063098414	 0.0683651445	-0.5843549485	-0.270768
C	 0.0204549874	 1.1798179418	-0.1602683471	 0.406555
C	-1.1469478962	 2.0505185356	 0.3330450371	-0.363079
C	-0.1041979494	 3.1868033413	 0.6275612344	-0.087393
C	 0.2556244524	 3.3487751643	 2.08011871	-0.061354
C	 1.4123693232	 2.760686642	 2.408113315	-0.173638
C	 2.0292213713	 2.0987309641	 1.2282757488	 0.382008
O	 3.0724917872	 1.4979478761	 1.1834465129	-0.313743
C	 1.0507155044	 2.3187566926	 0.0574199848	-0.27025
H	-1.8501983028	 2.2788830852	-0.4734492087	 0.141453
H	-1.7079337757	 1.6607941829	 1.1865089414	 0.136786
H	-0.3165640099	 4.1350788154	 0.1307579497	 0.099083
H	-0.39787439	 3.8684177036	 2.7737581333	 0.123042
H	 1.8736118715	 2.7263356964	 3.3867833982	 0.124918
H	 1.5738862252	 2.6257883942	-0.8492642113	 0.126381
64.7169	132.8211	231.5929	358.9	420.8555	453.0885	512.3621	571.1601	661.375	712.1963	740.6492	772.539	818.7603	844.7165	910.7086	923.9735	979.2273	1002.6164	1013.7998	1043.8117	1096.9072	1110.8273	1150.8967	1165.3151	1182.8482	1215.0685	1246.7618	1306.3407	1361.4559	1436.6298	1642.9945	1817.3029	1898.9382	3061.3213	3094.9371	3116.9872	3117.6614	3185.8163	3228.4986
O=C1CC2C=CC(=O)C12	O=C1C[C@H]2C=CC(=O)[C@@H]12	
InChI=1S/C7H6O2/c8-5-2-1-4-3-6(9)7(4)5/h1-2,4,7H,3H2	InChI=1S/C7H6O2/c8-5-2-1-4-3-6(9)7(4)5/h1-2,4,7H,3H2/t4-,7+/m1/s1
