13
gdb 125805	3.48814	1.80887	1.20006	3.1012	64.51	-0.2733	-0.0354	0.2379	940.8429	0.091684	-448.918965	-448.912395	-448.911451	-448.950086	24.359	
C	-0.0173363091	 1.4868419851	 0.0320552039	-0.49092
C	-0.0105898736	 0.0035775201	 0.0375653534	 0.390556
N	-0.042275561	-0.742445773	-1.0317910641	-0.174568
O	-0.0215577261	-2.1066725981	-0.5924121046	-0.244678
C	 0.0218452328	-2.0770323171	 0.7386441164	 0.532776
N	 0.0583207171	-2.9250186121	 1.7359401331	-0.394421
C	 0.0888302818	-2.0461834552	 2.7945649128	 0.046601
N	 0.0739834512	-0.7431460578	 2.5202175323	-0.278568
N	 0.0296166483	-0.792167131	 1.1553760997	-0.039382
H	 0.882923473	 1.8713348941	 0.5207239616	 0.168553
H	-0.0561520969	 1.8458879153	-0.996510528	 0.171393
H	-0.8831019997	 1.8634818769	 0.5848924711	 0.168549
H	 0.1239017422	-2.390141857	 3.8180183425	 0.14411
142.6222	172.0209	243.3094	265.2033	391.2773	546.4794	625.463	634.631	655.6124	719.0945	771.4902	801.4537	888.5078	920.4241	976.4834	1030.3851	1068.5265	1146.6347	1199.1224	1255.6954	1269.0641	1399.3111	1414.4458	1436.6652	1468.6753	1471.578	1504.4531	1593.724	1637.5328	3054.3445	3116.4438	3162.963	3261.0506
CC1=NOC2=NC=NN12	Cc1noc2ncnn12	
InChI=1S/C4H4N4O/c1-3-7-9-4-5-2-6-8(3)4/h2H,1H3	InChI=1S/C4H4N4O/c1-3-7-9-4-5-2-6-8(3)4/h2H,1H3
