20
gdb 50717	2.78631	1.30031	0.9986	3.9901	82.14	-0.2383	0.0068	0.2451	1224.3845	0.173338	-403.184184	-403.175805	-403.174861	-403.217869	31.694	
O	-0.2600151545	 0.0221595169	-0.0351497951	-0.345219
C	-0.0891170806	 1.2235283693	-0.0513360118	 0.15115
N	 1.1183777551	 1.8570047254	-0.0519291055	-0.026028
C	 1.2115254335	 3.3049271174	-0.0549555177	-0.17863
C	 1.6977658699	 3.9128674064	 1.2672399882	-0.181906
C	 3.1568967427	 3.5906519921	 1.6330436616	-0.251513
C	 3.4602363548	 2.1459574668	 1.9617169268	-0.04873
C	 3.1152827292	 1.071557524	 1.2528692131	-0.050084
C	 2.3411169181	 1.0617043333	-0.0488473928	-0.23436
H	-0.927913756	 1.947606402	-0.0766642759	 0.069535
H	 1.8801236772	 3.6165877834	-0.8710195041	 0.104
H	 0.2179095593	 3.7004439772	-0.2913210813	 0.114309
H	 1.5926517553	 5.0020888068	 1.1877959386	 0.09864
H	 1.0340165476	 3.5836227623	 2.0747814918	 0.10984
H	 3.8067173247	 3.918199855	 0.8063618758	 0.110894
H	 3.4404385744	 4.2116279383	 2.4888989964	 0.106157
H	 4.0409592264	 1.9841823665	 2.8671959972	 0.092055
H	 3.4341264253	 0.0943020967	 1.6065025674	 0.097975
H	 2.0350177185	 0.0432080919	-0.2915319801	 0.149793
H	 2.985530449	 1.4210409184	-0.8660116227	 0.112123
55.0676	63.6611	212.7692	278.7552	310.2899	321.1173	370.8231	393.6954	462.3002	510.7518	634.6899	698.6997	723.0273	791.5626	861.4322	891.7602	914.2546	963.016	999.0792	1003.2462	1026.1139	1032.7009	1083.4497	1087.2491	1184.0564	1222.048	1242.1408	1263.89	1291.4638	1309.2209	1370.0844	1378.6068	1391.7024	1412.7187	1421.481	1434.5308	1460.1999	1471.245	1476.8132	1479.7361	1490.2417	1727.7265	1791.9184	2929.0115	2986.574	2990.2858	2998.6949	3026.601	3067.1894	3069.6379	3077.3482	3123.1342	3141.9548	3166.9368
O=CN1CCCC=CC1	O=CN1CCCC=CC1	
InChI=1S/C7H11NO/c9-7-8-5-3-1-2-4-6-8/h1,3,7H,2,4-6H2	InChI=1S/C7H11NO/c9-7-8-5-3-1-2-4-6-8/h1,3,7H,2,4-6H2
