16
gdb 116987	5.20214	0.59636	0.55796	3.6588	92.98	-0.2538	-0.0559	0.1978	1948.127	0.121733	-400.726366	-400.716268	-400.715323	-400.76358	34.885	
C	 0.2164373934	 1.3966214387	-0.0872188768	-0.371172
C	-0.3812323807	 0.0205326767	 0.2176712945	-0.154739
N	 0.2580553873	-0.6417485686	 1.3451652553	-0.311196
C	 1.1925440502	-1.6218640363	 1.1855657511	 0.195977
O	 1.5457812739	-2.0682939091	 0.1079101565	-0.355589
C	 1.7422527891	-2.1133615063	 2.4419774339	 0.276467
C	 2.2433667173	-2.5681831431	 3.4468997491	-0.10678
C	 2.7992659117	-3.0700067833	 4.5806433429	 0.277686
C	 3.2918303873	-3.5145856648	 5.5894797257	-0.545621
H	 1.276438968	 1.3076427848	-0.3403968082	 0.139062
H	-0.3030654312	 1.8560638631	-0.934000435	 0.1228
H	 0.123758091	 2.0706945367	 0.7709392226	 0.114131
H	-1.4532524532	 0.1064794843	 0.4278680808	 0.109528
H	-0.2596076623	-0.646085473	-0.6384202998	 0.153078
H	 0.0766367973	-0.3110149447	 2.2796701429	 0.255217
H	 3.7267538809	-3.9075677652	 6.4751813145	 0.20115
16.0945	54.4123	71.8078	134.7122	203.3339	237.8339	299.5711	315.7346	383.7542	451.5991	472.4611	500.6746	556.4734	564.8017	601.4063	618.6943	753.1545	762.0481	852.6961	901.1107	1026.5735	1098.1104	1148.7606	1171.7558	1256.6523	1325.831	1392.9022	1410.1591	1478.2731	1491.9261	1501.6206	1539.1837	1749.2174	2177.5535	2346.1341	3036.9903	3043.5327	3100.9098	3118.9246	3130.0444	3501.9787	3635.0693
CCNC(=O)C#CC#C	CCNC(=O)C#CC#C	
InChI=1S/C7H7NO/c1-3-5-6-7(9)8-4-2/h1H,4H2,2H3,(H,8,9)	InChI=1S/C7H7NO/c1-3-5-6-7(9)8-4-2/h1H,4H2,2H3,(H,8,9)
