21
gdb 101170	2.48484	1.07818	0.90459	2.3183	75.04	-0.2335	0.0498	0.2833	1386.7828	0.180113	-461.331584	-461.321167	-461.320223	-461.367171	38.436	
C	 0.1458065215	 1.5539107675	 0.0260712319	-0.381134
C	 0.3500466075	 0.0374499971	 0.0416951246	-0.188286
C	 0.6052992162	-0.5198091033	 1.4487652746	 0.13035
O	-0.4346760259	-0.170103577	 2.3619698197	-0.435979
C	 0.8169298673	-2.0233243825	 1.4163365675	-0.122081
C	 2.1140621323	-2.6380248485	 0.9176762106	 0.08761
O	 3.1871682337	-1.8127735611	 0.5743334424	-0.430226
C	 1.7438123285	-2.7238362251	 2.380104056	 0.003713
O	 2.4907135529	-1.8901092597	 3.2330369432	-0.418779
H	 1.0454618626	 2.07334849	 0.3744460981	 0.113895
H	-0.0767994372	 1.9130730432	-0.9832536814	 0.106032
H	-0.6765680617	 1.8422496153	 0.6860001571	 0.122587
H	-0.5321159157	-0.4653347792	-0.3830065251	 0.07561
H	 1.201473937	-0.2418329624	-0.5887387543	 0.118772
H	 1.4947093293	-0.0374879152	 1.863172403	 0.093254
H	-1.2517425166	-0.563110683	 2.0349454234	 0.271092
H	-0.0839648952	-2.5825459082	 1.1662081422	 0.078161
H	 2.0702946641	-3.5228567071	 0.2898519811	 0.099858
H	 3.4813763182	-1.4020644527	 1.4000365376	 0.285024
H	 1.4300128072	-3.6668734813	 2.8224189595	 0.092872
H	 3.2163450339	-2.4132566567	 3.5912035185	 0.297656
50.1872	102.4961	109.2418	171.9657	218.3329	232.911	263.292	293.1741	296.8509	316.5428	419.4788	457.265	515.2137	572.1898	624.2154	670.0146	771.4264	785.0205	804.0841	882.4218	951.0408	986.4459	1035.9782	1053.3259	1064.6161	1096.6481	1110.6253	1123.8651	1143.5908	1157.0443	1220.7152	1245.7592	1264.6167	1294.1885	1317.9244	1337.0713	1371.115	1394.8574	1406.6528	1412.1548	1429.8413	1471.2007	1483.7329	1494.8711	1508.2469	2996.8917	3036.851	3069.9701	3083.8509	3100.8458	3110.6826	3120.9614	3123.2959	3154.7201	3730.2765	3794.7732	3804.7177
CCC(O)C1C(O)C1O	CC[C@@H](O)[C@H]1[C@@H](O)[C@H]1O	
InChI=1S/C6H12O3/c1-2-3(7)4-5(8)6(4)9/h3-9H,2H2,1H3	InChI=1S/C6H12O3/c1-2-3(7)4-5(8)6(4)9/h3-9H,2H2,1H3/t3-,4-,5+,6-/m1/s1
