22
gdb 122987	3.71062	0.74152	0.67792	2.1436	80.06	-0.2469	0.0702	0.317	1724.226	0.192731	-441.445298	-441.434897	-441.433952	-441.481947	37.408	
C	-0.0905092802	 1.589806638	-0.1104311929	-0.466417
C	-0.0750663435	 0.0802931338	 0.0109287157	 0.314413
C	-1.3498327566	-0.5464528634	 0.5276605601	-0.088872
O	-1.7159463859	 0.0714430249	 1.7466649065	-0.267597
C	-2.8792476109	-0.4796114519	 2.3360015049	-0.063972
C	-3.2269026142	 0.3958522758	 3.5291060169	-0.060888
O	-3.4817053709	 1.7293913554	 3.1332292411	-0.422537
C	 0.7536459505	-0.7134449948	-0.9325301411	-0.283974
N	 1.1532149976	-0.5859308354	 0.4814824207	-0.337477
H	 0.8416221591	 1.9561601191	-0.5523878086	 0.110489
H	-0.9182060404	 1.9274773549	-0.7441910766	 0.122571
H	-0.2124966359	 2.0534813606	 0.8726443838	 0.134527
H	-2.1584209868	-0.423697613	-0.2140047801	 0.085884
H	-1.1870137496	-1.6236931953	 0.6776211954	 0.097484
H	-3.7116992796	-0.4754147169	 1.6135655276	 0.093063
H	-2.7028270657	-1.5209518901	 2.6513994805	 0.090745
H	-4.1354564044	 0.0203419539	 4.0112136052	 0.107173
H	-2.4070280552	 0.3423739588	 4.2629819986	 0.095198
H	-2.742134599	 1.9757823558	 2.5656679101	 0.287497
H	 0.447542686	-1.7129029355	-1.2314355865	 0.114901
H	 1.3127932598	-0.1704837711	-1.6903281297	 0.110232
H	 1.9043689758	 0.0947072565	 0.5684752185	 0.227557
34.8361	54.3979	101.4246	137.9449	178.7354	218.8856	276.7537	301.7192	358.2072	373.1028	404.3988	425.9189	488.6284	558.2281	740.5406	838.4253	878.5092	900.4665	918.3539	932.6969	958.6957	1005.8422	1030.829	1062.0894	1081.9522	1090.9936	1116.0593	1139.6836	1151.6068	1160.8071	1236.9672	1256.2464	1267.2119	1274.1417	1348.4521	1366.9859	1384.8757	1395.3646	1413.2297	1437.6341	1453.1646	1481.5266	1494.8975	1499.4836	1503.9875	1517.8937	1520.1115	2953.3875	2967.4056	2979.8025	3007.4938	3016.1019	3032.1018	3079.3959	3096.9983	3103.1505	3112.0675	3185.8444	3495.0013	3797.474
CC1(COCCO)CN1	C[C@@]1(COCCO)CN1	
InChI=1S/C6H13NO2/c1-6(4-7-6)5-9-3-2-8/h7-8H,2-5H2,1H3	InChI=1S/C6H13NO2/c1-6(4-7-6)5-9-3-2-8/h7-8H,2-5H2,1H3/t6-/m0/s1
