17
gdb 74804	2.78904	1.6005	1.14357	2.9561	74.43	-0.24	-0.0649	0.1752	1086.2793	0.134201	-421.84432	-421.835669	-421.834725	-421.877486	31.863	
C	 0.0598408572	 1.5191588403	 0.0146543171	-0.488754
C	-0.0223084531	 0.0315690874	-0.0616282446	 0.194782
C	-0.029772774	-0.7748533796	-1.1350998137	-0.186865
C	-0.026284485	-2.2199212944	-0.7301024962	-0.075323
O	 1.148056299	-2.5808593032	 0.0338669152	-0.289224
C	-0.0805519924	-2.2764613061	 0.7328811725	 0.290118
C	-0.685270323	-3.3373996351	 1.6005193367	-0.493198
C	-0.088136697	-0.8095316506	 1.1792480717	 0.309896
O	-0.1640460709	-0.4123573984	 2.3172536996	-0.317448
H	 0.9852960421	 1.8279855735	 0.5141880225	 0.148201
H	 0.0312742699	 1.9770320734	-0.9769568878	 0.125127
H	-0.7627565066	 1.920035763	 0.6161501838	 0.145942
H	 0.0121182082	-0.4508845206	-2.1688409699	 0.118683
H	-0.4253844557	-2.998892407	-1.3720196338	 0.10625
H	-0.5581543895	-4.3216360382	 1.1441952238	 0.13132
H	-0.2040268102	-3.3358414871	 2.5830555021	 0.148499
H	-1.7525482891	-3.1496557274	 1.7540936911	 0.131993
104.1365	122.9362	155.9785	201.428	249.3994	269.0736	292.8291	378.7327	476.9657	511.2725	561.2864	662.3186	690.4252	769.7817	808.7277	871.6072	886.7353	927.0071	959.4211	1014.3156	1042.4398	1057.8432	1074.389	1105.7645	1205.5495	1264.4843	1289.1748	1337.1674	1404.6058	1413.4646	1453.1244	1472.2142	1480.0611	1482.6224	1492.9309	1684.538	1820.5665	3036.5293	3045.5862	3090.7264	3112.3495	3125.0348	3133.0159	3169.0623	3199.9091
CC1=CC2OC2(C)C1=O	CC1=C[C@H]2O[C@@]2(C)C1=O	
InChI=1S/C7H8O2/c1-4-3-5-7(2,9-5)6(4)8/h3,5H,1-2H3	InChI=1S/C7H8O2/c1-4-3-5-7(2,9-5)6(4)8/h3,5H,1-2H3/t5-,7-/m1/s1
