21
gdb 38143	2.85584	1.76409	1.28057	0.338	86.65	-0.223	0.0241	0.2471	1042.7961	0.186217	-349.971261	-349.96412	-349.963175	-350.002506	30.135	
C	-0.1612502026	 1.3919429362	 0.1398508435	-0.357516
C	 1.2823924523	 0.9265030921	 0.0268563152	-0.122661
C	 1.9893605602	 0.6304125431	 1.3051826357	-0.07693
C	 1.4135066362	-0.3762241069	 1.9717210225	-0.116148
C	 0.2478943146	-0.9603703932	 1.2087567944	-0.083984
C	 0.4299710031	-2.3742328	 0.6064203141	-0.222557
C	-0.4618521918	-2.3398954778	-0.6485000103	-0.199742
C	-0.2537310524	-0.9246294376	-1.2454811702	-0.318565
C	 0.1286937369	-0.0669412897	-0.0398936663	 0.376502
H	-0.510789503	 1.7497128245	 1.1044830945	 0.104965
H	-0.57085791	 1.9222146596	-0.7153595415	 0.105171
H	 1.8433990691	 1.2151586266	-0.8567810743	 0.080663
H	 2.8551575657	 1.1907211197	 1.6419297276	 0.090367
H	 1.71629051	-0.7357609248	 2.949186616	 0.089176
H	-0.6721488173	-0.9446697431	 1.8098088358	 0.073023
H	 1.4794292379	-2.5133230801	 0.3203837617	 0.098993
H	 0.1660750271	-3.1776292973	 1.3002151028	 0.09086
H	-0.2292218468	-3.1376613897	-1.3594066622	 0.093502
H	-1.5106812596	-2.4650673113	-0.3539241522	 0.098434
H	 0.5513076291	-0.9374718355	-1.9893465456	 0.099697
H	-1.1521222188	-0.5609371851	-1.7539179712	 0.09675
115.3377	197.5506	292.7438	339.5403	368.8925	470.0864	532.3273	571.343	625.5657	725.6526	762.9544	774.0192	812.	846.8654	868.9176	884.3598	918.0542	941.396	958.6857	968.4022	997.8626	1013.6098	1044.1883	1048.227	1073.8672	1079.6554	1096.5825	1141.8256	1161.4549	1181.131	1233.0923	1242.4848	1260.3479	1284.0082	1305.4251	1323.0669	1339.1335	1342.3209	1373.3396	1392.4448	1480.5302	1490.0878	1491.2722	1508.2728	1656.2216	3003.9896	3032.7189	3033.4314	3037.7299	3073.6209	3088.0668	3096.3111	3108.5358	3153.6927	3177.5466	3196.5033	3202.4393
C1C2C=CC3CCCC123	C1[C@H]2C=C[C@@H]3CCC[C@]123	
InChI=1S/C9H12/c1-2-7-3-4-8-6-9(7,8)5-1/h3-4,7-8H,1-2,5-6H2	InChI=1S/C9H12/c1-2-7-3-4-8-6-9(7,8)5-1/h3-4,7-8H,1-2,5-6H2/t7-,8+,9+/m0/s1
