17
gdb 46664	3.05177	1.74591	1.34942	1.5795	73.99	-0.236	0.0137	0.2497	954.9348	0.139044	-417.905444	-417.898861	-417.897917	-417.936313	26.969	
N	-0.0365418374	 1.2917952033	 0.1432599927	-0.548777
C	-0.0394985217	 0.0384112778	 0.0155020737	 0.295405
O	 1.0991298113	-0.7548022231	-0.0221784624	-0.269605
C	 0.8190191229	-2.1704028857	-0.292915473	-0.143976
C	-0.6109482499	-2.1369929676	-0.8261464955	 0.019102
N	-1.9556929002	-2.6989543941	-0.2349910059	-0.177138
C	-1.5724747979	-1.9143130869	 1.0291981568	-0.200007
C	-1.168460538	-0.9263727767	-0.0987185656	 0.227687
C	-2.5267692156	-1.3337707361	-0.7205619016	-0.244073
H	 0.9206273585	 1.6464804919	 0.2014587712	 0.225443
H	 1.5476290814	-2.496004426	-1.0376597052	 0.125987
H	 0.974953137	-2.7424946428	 0.6244721769	 0.130287
H	-0.6431203022	-2.1305290948	-1.9182325497	 0.093336
H	-2.4295662348	-1.6372849379	 1.646038701	 0.113707
H	-0.7992675131	-2.3869683022	 1.6345856883	 0.11502
H	-2.6305390782	-1.2608899789	-1.8050183166	 0.118713
H	-3.442916532	-1.0503705304	-0.1997512451	 0.118889
142.6175	191.1313	302.4632	371.3122	474.8632	539.9116	607.0888	625.2649	666.1519	692.3873	749.3538	817.5472	842.7932	898.1784	909.7984	927.1267	971.8469	990.3469	999.3192	1036.0565	1063.612	1068.1967	1118.9745	1146.2764	1158.5911	1189.6969	1193.3287	1203.7312	1215.4271	1267.1183	1331.2872	1373.4999	1400.2911	1502.0978	1521.2318	1558.6348	1789.3086	3068.9007	3070.8613	3077.4445	3083.8962	3121.2015	3145.6788	3148.4028	3460.2035
N=C1OCC2N3CC12C3	[NH][C]1OC[C@H]2N3C[C@@]12C3	
InChI=1S/C6H8N2O/c7-5-6-2-8(3-6)4(6)1-9-5/h4,7H,1-3H2	InChI=1S/C6H8N2O/c7-5-6-2-8(3-6)4(6)1-9-5/h4,7H,1-3H2/t4-/m1/s1
