17
gdb 98707	2.25675	1.28593	1.05811	3.0108	75.8	-0.2408	0.0112	0.252	1214.2295	0.134802	-417.975821	-417.966323	-417.965379	-418.010873	33.83	
C	 0.5419141044	 1.5855407694	-0.3919997528	-0.332317
N	 1.0345827304	 0.287553677	-0.7982645872	-0.30876
C	 0.218710817	-0.773850536	-1.001706325	 0.413499
O	-0.9985393443	-0.7532782131	-0.9273855826	-0.389685
C	 0.9385323135	-2.0588236267	-1.3442760852	-0.120954
N	 2.391943098	-2.0237437995	-1.510857248	-0.347473
C	 1.8351725725	-2.7668704664	-0.3619825936	-0.228423
C	 2.1076125219	-2.2694355723	 0.9579039747	 0.380273
C	 2.330279797	-1.8942369738	 2.0776478783	-0.436355
H	 0.8174455528	 2.360134725	-1.1163158645	 0.124062
H	-0.5457240093	 1.5211384373	-0.33617795	 0.167143
H	 0.9342623846	 1.8714294415	 0.5905954999	 0.126123
H	 2.0241687452	 0.1248249994	-0.9112655255	 0.262962
H	 0.3406901141	-2.7051105133	-1.9807810432	 0.115172
H	 2.6986602709	-2.6633967842	-2.2382413244	 0.247428
H	 1.8234308249	-3.8523448385	-0.4375286298	 0.122874
H	 2.5222506263	-1.553472466	 3.065017669	 0.204433
62.7037	78.3161	91.8345	153.9088	184.7654	235.6832	281.5114	329.4505	474.3155	519.0592	546.6749	610.3206	622.028	634.1697	667.4426	775.1309	810.185	850.6863	887.912	951.1517	992.8174	1044.5561	1124.2442	1152.3111	1166.1633	1178.8861	1194.3285	1227.6092	1286.6537	1386.0807	1432.604	1442.8823	1496.3623	1499.8509	1577.7126	1783.8528	2244.0129	3026.3728	3077.5082	3127.6444	3148.7425	3159.6968	3503.4103	3515.7058	3614.0119
CNC(=O)C1NC1C#C	CNC(=O)[C@H]1N[C@H]1C#C	
InChI=1S/C6H8N2O/c1-3-4-5(8-4)6(9)7-2/h1,4-5,8H,2H3,(H,7,9)	InChI=1S/C6H8N2O/c1-3-4-5(8-4)6(9)7-2/h1,4-5,8H,2H3,(H,7,9)/t4-,5-/m0/s1
