14
gdb 66404	2.34308	1.56408	1.29205	3.1639	68.26	-0.251	-0.0121	0.2389	1015.5683	0.099474	-436.633401	-436.625305	-436.624361	-436.666005	30.425	
N	-0.097717358	 1.5096890632	 0.109691543	-0.599583
C	-0.0474255132	 0.10877692	-0.042008764	 0.081985
C	-1.1337633183	-0.9421831015	-0.1138171995	 0.051831
O	-0.3801887789	-1.7258236238	-1.0672196603	-0.255465
C	 0.6133860751	-0.7474776077	-1.115408591	 0.411525
O	 1.5413700325	-0.688915844	-1.8503784134	-0.320134
C	-0.3619006587	-0.819023979	 1.1640975595	-0.279201
C	 0.5311973968	-1.8243316701	 1.6616117227	 0.329392
C	 1.2810735535	-2.6586866203	 2.092159575	-0.411221
H	 0.7351788607	 1.8626585846	 0.5697523917	 0.253459
H	-0.1828122273	 1.9795008563	-0.7857992556	 0.251007
H	-2.2036882616	-0.874838113	-0.2485884314	 0.140367
H	-0.8931184748	-0.243595054	 1.920556373	 0.14053
H	 1.9434683921	-3.4017795209	 2.4622876105	 0.205508
95.7747	129.0972	192.376	261.0695	278.303	332.1029	369.1223	486.9684	512.9659	618.2525	636.3655	667.3455	677.5876	737.9501	750.1056	793.764	850.3173	905.6331	926.2377	947.4477	1012.9469	1045.4909	1090.2607	1204.	1248.0667	1280.8546	1333.3706	1471.2873	1663.4114	1945.3525	2244.3971	3134.2864	3231.5464	3503.0148	3505.268	3581.7905
NC12C(OC1=O)C2C#C	N[C@@]12[C@@H](OC1=O)[C@H]2C#C	
InChI=1S/C6H5NO2/c1-2-3-4-6(3,7)5(8)9-4/h1,3-4H,7H2	InChI=1S/C6H5NO2/c1-2-3-4-6(3,7)5(8)9-4/h1,3-4H,7H2/t3-,4+,6+/m1/s1
