24
gdb 122513	4.30603	0.66458	0.64021	0.7998	88.12	-0.2178	0.0941	0.3119	1904.09	0.215449	-405.50753	-405.496601	-405.495657	-405.544821	38.665	
C	 0.3624166122	-2.8452749733	 0.2443536846	-0.379897
C	-0.0378440015	-1.5042438677	 0.8715463254	-0.197586
C	-1.5032467637	-1.193787384	 0.6326749259	 0.023304
C	-2.5517039699	-1.5817488677	 1.619254017	-0.237617
N	-2.2557476316	-0.1747400366	 1.3697404611	-0.093926
C	-1.615607771	 0.5874810056	 2.4326432571	-0.15583
C	-2.6608452685	 1.2310958427	 3.3314578351	-0.047683
O	-3.2768622321	 0.2249117016	 4.1080508475	-0.228447
C	-4.3170514581	 0.7165167009	 4.9159785511	-0.223636
H	 1.42649737	-3.0507872414	 0.3951523336	 0.111992
H	-0.2078002192	-3.6699150939	 0.6842535407	 0.120489
H	 0.1718459959	-2.8497821851	-0.8344947173	 0.116727
H	 0.1792815173	-1.5263145833	 1.9440702557	 0.10041
H	 0.57972582	-0.7030130609	 0.4438112836	 0.09839
H	-1.7759072438	-1.2184893102	-0.4234486636	 0.08197
H	-3.5312473589	-1.9276416439	 1.2991752998	 0.10727
H	-2.2112571185	-2.0053188272	 2.5628106475	 0.110988
H	-0.9426423708	-0.0090333724	 3.0691563074	 0.092461
H	-1.0176025085	 1.3836418842	 1.9727097037	 0.099356
H	-2.1798038	 1.9786106498	 3.9862147936	 0.077328
H	-3.4073648642	 1.7539169974	 2.7124548248	 0.09474
H	-4.7266645654	-0.1282378196	 5.4756064336	 0.12415
H	-3.957488992	 1.474228834	 5.6312977439	 0.100037
H	-5.1224286377	 1.1696443508	 4.316308698	 0.105011
35.5955	68.9643	81.7645	109.1739	142.7179	216.4211	228.9279	259.3163	272.2861	305.9304	349.5709	434.8606	478.9159	608.8854	730.199	782.089	816.2866	862.7872	916.9764	952.5042	960.9017	1022.5873	1034.7394	1071.1501	1078.8672	1108.7608	1117.7929	1150.5256	1166.0562	1169.6028	1186.4646	1196.6522	1229.1091	1264.391	1287.079	1308.9351	1340.4562	1346.7385	1388.862	1407.8534	1421.8605	1430.4806	1477.6512	1478.2081	1485.0475	1485.6635	1498.2837	1499.3172	1507.5996	1516.3484	1522.7094	2949.9841	2967.3025	2974.8766	3000.6861	3009.2392	3019.0133	3032.7612	3053.2513	3069.0683	3089.5805	3093.036	3104.2522	3107.2375	3110.3719	3175.807
CCC1CN1CCOC	CC[C@H]1CN1CCOC	
InChI=1S/C7H15NO/c1-3-7-6-8(7)4-5-9-2/h7H,3-6H2,1-2H3	InChI=1S/C7H15NO/c1-3-7-6-8(7)4-5-9-2/h7H,3-6H2,1-2H3/t7-,8?/m0/s1
