19
gdb 75346	3.31912	1.33083	1.03509	2.0319	83.72	-0.2266	-0.0267	0.1999	1177.5683	0.160185	-385.886005	-385.878042	-385.877098	-385.918218	31.343	
C	 0.1359944053	 1.5112075476	 0.481554727	-0.480714
C	-0.0768876185	 0.0906622999	 0.0152863713	 0.295354
C	-1.2623354469	-0.5240653441	 0.1611236987	-0.164239
C	-1.5641939418	-1.9134520181	-0.3394877938	-0.295623
C	-0.6808483735	-2.9801587907	 0.28978677	 0.052286
O	-0.0238412799	-3.8770529479	-0.6114386847	-0.262862
C	 0.7717848095	-2.9140877864	 0.111341133	 0.013902
C	 1.4329944722	-1.8270020546	-0.6558362829	-0.107433
C	 1.076007777	-0.5342644913	-0.6519377	-0.116218
H	 0.9370144988	 1.5709393742	 1.2284393803	 0.128027
H	 0.4374390404	 2.1575207594	-0.3525883243	 0.125207
H	-0.7725543828	 1.9285074436	 0.9227141132	 0.121958
H	-2.069798368	 0.0197475636	 0.6453960119	 0.084324
H	-2.6184847587	-2.1577589911	-0.1805560219	 0.101872
H	-1.3800774877	-1.9650510689	-1.4199264532	 0.131571
H	-1.0655249158	-3.4572585974	 1.1913859069	 0.090816
H	 1.4060878668	-3.3811215509	 0.8682696878	 0.094643
H	 2.334235151	-2.1159425312	-1.1928636859	 0.098306
H	 1.7262494427	 0.1614583843	-1.1826957433	 0.088823
108.597	176.1182	214.1062	253.2232	327.4334	361.8941	373.5503	412.5131	463.282	585.1226	673.5552	709.8082	762.6113	794.3803	831.904	857.1601	895.1464	928.9353	995.4073	1005.6772	1019.2883	1032.3549	1069.8786	1078.6963	1111.0015	1152.1688	1175.016	1231.5126	1243.7155	1293.5828	1337.7069	1350.911	1382.947	1412.9525	1444.4543	1471.602	1478.2603	1483.6465	1494.2733	1675.1306	1711.7849	3019.6308	3031.8948	3068.0753	3076.4819	3084.0525	3111.046	3115.6447	3119.7888	3151.5556	3153.5929
CC1=CCC2OC2C=C1	CC1=CC[C@H]2O[C@H]2C=C1	
InChI=1S/C8H10O/c1-6-2-4-7-8(9-7)5-3-6/h2-4,7-8H,5H2,1H3	InChI=1S/C8H10O/c1-6-2-4-7-8(9-7)5-3-6/h2-4,7-8H,5H2,1H3/t7-,8+/m0/s1
