16
gdb 52027	2.38959	0.85297	0.65756	1.8125	71.03	-0.2636	-0.061	0.2026	1600.8972	0.120811	-437.912202	-437.902371	-437.901427	-437.948943	32.485	
O	 0.0127611824	-0.1205673815	-0.1969968716	-0.229033
C	 0.0470758457	 1.0807998735	-0.2317776837	 0.161873
C	 1.3023872163	 1.9132928622	-0.071692585	-0.298606
C	 1.489425267	 2.8820907343	-1.2483387588	-0.201596
C	 2.7029611562	 3.8144880098	-1.0760259276	-0.244428
C	 2.9788585705	 4.6627889101	-2.3346445489	 0.156976
O	 2.4481121202	 4.4579295218	-3.3891751884	-0.217597
C	 2.5874794654	 4.6958876496	 0.0865884214	 0.268629
N	 2.4819210733	 5.4087242	 0.9902694912	-0.30844
H	-0.8812603116	 1.6788407662	-0.3882820783	 0.080296
H	 1.198130349	 2.4870320947	 0.860575048	 0.145792
H	 2.155054675	 1.2364677071	 0.0381626282	 0.126953
H	 1.6324564868	 2.3326881495	-2.1825772071	 0.144603
H	 0.5924848251	 3.4960438457	-1.3832474979	 0.134609
H	 3.6136419198	 3.211307873	-0.9295975529	 0.159131
H	 3.7276811289	 5.468463534	-2.1914221486	 0.120838
49.102	68.1577	75.1294	99.4381	130.3879	176.8053	258.9287	284.727	337.158	507.8607	509.4196	566.2691	640.9443	764.3807	777.8641	853.6941	952.172	1003.0141	1019.1182	1080.5261	1103.7807	1124.5259	1196.482	1240.545	1285.0468	1299.7381	1335.0847	1378.1939	1416.5095	1430.9534	1464.5675	1490.8943	1840.79	1844.7002	2356.1589	2860.3908	2929.6185	2995.5899	3017.2406	3058.3326	3092.4084	3113.338
O=CCCC(C=O)C#N	O=CCC[C@@H](C=O)C#N	
InChI=1S/C6H7NO2/c7-4-6(5-9)2-1-3-8/h3,5-6H,1-2H2	InChI=1S/C6H7NO2/c7-4-6(5-9)2-1-3-8/h3,5-6H,1-2H2/t6-/m1/s1
