18
gdb 88034	2.37638	1.35249	1.0723	1.9259	78.29	-0.2506	0.0118	0.2623	1192.7355	0.145713	-401.863101	-401.854111	-401.853166	-401.896985	33.361	
C	 0.0119982576	 1.5860935163	-0.0085810671	-0.396154
C	-0.0973420403	 0.0938388796	 0.1820504453	-0.064312
N	 1.0818998467	-0.7164814927	-0.2083696674	-0.382569
C	 0.6941120067	-0.6400853998	 1.1870478704	 0.263495
C	 1.5611911431	-0.1628281003	 2.3432164999	-0.133842
O	 0.9984014509	-1.1829246076	 3.2056708297	-0.286821
C	 0.242335447	-1.7794897881	 2.1209027174	-0.129633
C	-1.1770313928	-1.9247024292	 2.3909544876	 0.332154
C	-2.3571448426	-2.0475956037	 2.5857300763	-0.44368
H	 1.0241715321	 1.9320072224	 0.2182782538	 0.126963
H	-0.2124748886	 1.8626045808	-1.0439058447	 0.124901
H	-0.6919592705	 2.1138672748	 0.6436318139	 0.123226
H	-1.0769556076	-0.3323771866	-0.0309954672	 0.098006
H	 0.7975445242	-1.6051325982	-0.6149969109	 0.233943
H	 2.6388532569	-0.2981937908	 2.1914984651	 0.112377
H	 1.3653154035	 0.8457143468	 2.7248231934	 0.113861
H	 0.6722664916	-2.754126356	 1.8437024742	 0.104054
H	-3.3973686581	-2.1573049376	 2.7708929602	 0.204031
75.0405	98.9726	167.7867	187.1164	198.2273	251.866	336.7931	426.2919	450.9364	506.3513	551.615	592.2286	619.2924	677.8695	781.4546	837.1638	867.4567	932.6913	957.7724	1000.8332	1014.2255	1038.8478	1063.7113	1081.3975	1095.3243	1130.4711	1150.3237	1223.0779	1240.614	1264.8209	1317.9383	1352.8511	1376.1324	1413.7119	1478.4047	1491.378	1514.5913	1519.1099	2232.4919	2984.1724	3023.1318	3036.471	3071.1855	3101.4815	3109.694	3127.0515	3489.6995	3500.4416
CC1NC11COC1C#C	C[C@H]1N[C@]21CO[C@H]2C#C	
InChI=1S/C7H9NO/c1-3-6-7(4-9-6)5(2)8-7/h1,5-6,8H,4H2,2H3	InChI=1S/C7H9NO/c1-3-6-7(4-9-6)5(2)8-7/h1,5-6,8H,4H2,2H3/t5-,6+,7+/m1/s1
