15
gdb 68106	3.31594	1.2847	1.08036	1.5519	74.23	-0.2398	-0.0026	0.2372	1101.6916	0.110176	-420.558703	-420.550205	-420.549261	-420.592014	31.546	
O	 0.0010062183	 1.3627462881	 0.1375795361	-0.463058
C	 0.0488422418	-0.0015599935	 0.0686779974	 0.264183
C	 0.6817259609	-1.0139640154	 1.1007433004	-0.321508
C	 0.0547298419	-1.9487944506	 0.0009768875	 0.097379
C	-1.1810608763	-0.9695753779	 0.02115675	-0.308924
C	 0.0493309915	-3.3713728072	-0.0434322569	 0.049729
C	 0.0543848277	-4.5727685909	-0.0995194767	-0.331739
C	 0.656526836	-0.9163323955	-0.9975397571	 0.357328
O	 1.2683852813	-0.8549923128	-2.0160383959	-0.323287
H	 0.6409383327	 1.7238778484	-0.4869309142	 0.305487
H	 1.7670370836	-1.0312946129	 1.209932085	 0.121598
H	 0.1630549134	-1.0538059298	 2.0603307269	 0.121983
H	-1.7579311777	-1.010767497	 0.9469270789	 0.122009
H	-1.8152580898	-0.9476116775	-0.8659830402	 0.124468
H	 0.0606953047	-5.6333276056	-0.1514562211	 0.184351
68.5372	124.3989	143.7742	194.3344	231.6569	376.366	387.1934	508.4471	518.9873	530.1443	598.1023	617.6175	642.469	674.5277	768.8138	783.7567	804.899	845.0698	980.5231	990.6584	1029.0766	1049.2319	1112.5442	1122.376	1131.512	1136.9764	1305.0851	1320.9867	1422.8997	1489.6327	1536.9708	1917.964	2240.0215	3074.0732	3075.4115	3152.3131	3153.2637	3501.6446	3799.2058
OC12CC(C1)(C#C)C2=O	O[C@@]12C[C@](C1)(C#C)C2=O	
InChI=1S/C7H6O2/c1-2-6-3-7(9,4-6)5(6)8/h1,9H,3-4H2	InChI=1S/C7H6O2/c1-2-6-3-7(9,4-6)5(6)8/h1,9H,3-4H2/t6-,7-
