18
gdb 62659	2.68599	1.60917	1.46641	3.2675	71.4	-0.2203	0.0642	0.2846	983.7929	0.146159	-438.985373	-438.977078	-438.976133	-439.017463	32.883	
C	-0.1237464271	 1.6049257126	-0.0493114904	-0.469554
C	-0.0264802917	 0.089563509	-0.0060180875	 0.322749
O	-1.2948703414	-0.5224774317	-0.1859185469	-0.490683
C	 1.1715004224	-0.6122039808	-0.6904856105	-0.139334
C	 2.1253307742	-0.3266656307	 0.5259072662	-0.086578
N	 2.5472474559	-1.7529714562	 0.7180845305	-0.349951
C	 1.1136881039	-1.8356405889	 0.283937819	-0.103564
C	 0.7281283994	-0.5776863879	 1.1572000665	 0.403534
O	 0.4525996644	-0.5054702045	 2.4996393245	-0.471572
H	 0.8478783966	 2.0779673508	 0.1185381777	 0.126896
H	-0.4923500679	 1.9456789416	-1.0251901976	 0.106465
H	-0.8178144327	 1.9626268741	 0.7174780524	 0.129784
H	-1.711347796	-0.1398529839	-0.9649425189	 0.278208
H	 1.458943203	-0.6374535545	-1.7408528492	 0.072581
H	 2.7900259328	 0.5228130951	 0.6831778547	 0.084492
H	 3.1580906349	-2.037803915	-0.0529831466	 0.203298
H	 0.5709917634	-2.7713295951	 0.1625994999	 0.088997
H	-0.4428776142	-0.8368139841	 2.6345524462	 0.294232
183.5121	195.4576	208.8654	228.1287	274.7031	301.6535	346.3256	374.5207	389.7354	576.9595	600.352	625.7979	688.8305	759.4448	823.1197	874.3803	893.7002	903.5234	926.683	940.6217	984.5134	1023.8941	1065.3905	1088.4165	1101.4226	1111.5333	1145.3227	1160.4266	1199.27	1204.5849	1253.6828	1271.6244	1290.2543	1309.923	1382.1984	1410.9796	1435.0786	1488.9157	1496.9846	3024.3978	3090.0492	3113.1301	3117.8129	3127.0039	3139.1229	3392.6614	3799.822	3811.647
CC1(O)C2C3NC2C13O	C[C@@]1(O)[C@H]2[C@@H]3N[C@H]2[C@]13O	
InChI=1S/C6H9NO2/c1-5(8)2-3-6(5,9)4(2)7-3/h2-4,7-9H,1H3	InChI=1S/C6H9NO2/c1-5(8)2-3-6(5,9)4(2)7-3/h2-4,7-9H,1H3/t2-,3-,4+,5-,6-/m1/s1
