12
gdb 27866	2.10526	2.0127	1.02897	4.4869	60.53	-0.2651	-0.036	0.2291	1035.8717	0.078904	-506.040938	-506.033498	-506.032554	-506.073059	27.306	
N	 0.0126322135	 1.3017985569	 0.0076457029	-0.553436
C	-0.0485261181	-0.0349421193	 0.0009948336	 0.536919
N	-1.2107958897	-0.6454118616	 0.0040106004	-0.386692
C	-1.1018295443	-1.9859845241	-0.0036419531	 0.455264
O	-2.2670588226	-2.6238595613	-0.0006366954	-0.369444
N	-0.0127084248	-2.7267516692	-0.0132977289	-0.443526
C	 1.185243458	-2.1112798593	-0.0164107718	 0.445312
O	 2.2861243857	-2.5598912782	-0.024735667	-0.325812
O	 1.1311913099	-0.6288299572	-0.0084242692	-0.251741
H	 0.9027810067	 1.7677231771	 0.0053146038	 0.287748
H	-0.84579776	 1.8246198817	 0.0149721287	 0.2897
H	-2.0563981746	-3.5697225656	-0.006685984	 0.315707
123.6998	168.5356	195.4264	213.4389	319.2466	395.7895	526.1065	553.0081	568.4329	611.2	632.9726	640.9329	756.7841	766.5999	783.4249	816.7047	967.4652	1052.8623	1114.8727	1204.5607	1296.7525	1446.6815	1527.7368	1571.8118	1629.9211	1675.6897	1930.2013	3624.7867	3756.3252	3763.0784
NC1=NC(O)=NC(=O)O1	Nc1nc(O)nc(=O)o1	
InChI=1S/C3H3N3O3/c4-1-5-2(7)6-3(8)9-1/h(H3,4,5,6,7,8)	InChI=1S/C3H3N3O3/c4-1-5-2(7)6-3(8)9-1/h(H3,4,5,6,7,8)
