18
gdb 58371	2.66764	1.03327	0.88519	3.0678	77.83	-0.2709	0.023	0.294	1366.784	0.144613	-401.932001	-401.921787	-401.920842	-401.967458	36.645	
C	 0.0637165907	 1.5521582883	-0.0038512263	-0.428548
C	 0.0029660509	 0.028766827	 0.0790510975	 0.123517
O	 0.7064763203	-0.4771194777	 1.1993462576	-0.427996
C	-1.4548790604	-0.5195187097	 0.0515390894	-0.153696
C	-1.4605303368	-2.0695434326	-0.0364840458	-0.365558
C	-2.7966501261	-2.638605357	-0.1270618505	 0.287865
C	-3.9092174014	-3.0842940662	-0.2086526901	-0.41924
C	-2.1642461553	-0.0570505844	 1.2477218824	 0.282683
N	-2.6551619076	 0.3306900539	 2.220037889	-0.330105
H	 1.1063968437	 1.8785822484	 0.0156285233	 0.135095
H	-0.3980627222	 1.9178599359	-0.9265760629	 0.122967
H	-0.4597268207	 2.0123124849	 0.8413996292	 0.14052
H	 0.5118112855	-0.4024145318	-0.790956755	 0.099573
H	 0.3491122187	-0.0555808768	 1.9911055579	 0.296202
H	-1.9702902846	-0.1146839645	-0.8268538771	 0.134439
H	-0.8743147258	-2.3517014465	-0.9195477696	 0.138097
H	-0.9245692056	-2.4651962499	 0.8318879036	 0.161577
H	-4.8895584535	-3.4879729815	-0.2695928826	 0.202608
60.7059	78.9687	109.4237	152.1517	210.3581	237.997	242.9005	336.7083	341.3494	379.5886	409.105	468.4354	484.7875	596.4299	630.2496	657.164	674.4039	808.9086	859.9952	932.3472	964.6657	992.7424	1040.8233	1067.9883	1098.8846	1147.7966	1206.8686	1247.7179	1299.2793	1333.4069	1345.2395	1377.0306	1410.3627	1426.6576	1475.0577	1491.3651	1497.1861	2244.6049	2352.0602	3035.5436	3037.3123	3047.1498	3055.2363	3089.521	3108.2679	3126.3605	3506.2348	3780.2633
CC(O)C(CC#C)C#N	C[C@@H](O)[C@@H](CC#C)C#N	
InChI=1S/C7H9NO/c1-3-4-7(5-8)6(2)9/h1,6-7,9H,4H2,2H3	InChI=1S/C7H9NO/c1-3-4-7(5-8)6(2)9/h1,6-7,9H,4H2,2H3/t6-,7+/m1/s1
