23
gdb 71592	2.01458	1.91561	1.6357	0.2136	89.27	-0.2677	0.0855	0.3533	1040.5292	0.206864	-351.139872	-351.13148	-351.130536	-351.172033	34.244	
C	 0.0240374833	 1.5098750504	-0.0543043923	-0.524029
C	 0.0330148582	 0.0030772653	-0.0437698318	 0.307586
C	 0.669754848	-0.9522071485	-1.0869668098	-0.29874
C	 0.0426344217	-1.8833540421	-0.0245792034	-0.097172
C	 0.5883212057	-0.9338044967	 1.0856704657	-0.030818
C	-0.3735011526	-0.9257840199	 2.2707278705	-0.256522
C	-1.7194405823	-0.9438544799	 1.5022203095	-0.279804
C	-1.2221520579	-0.9564113944	 0.0482163408	 0.343226
C	-2.294365757	-0.9727812834	-1.021198936	-0.503985
H	 1.0438204894	 1.9104782007	-0.0743227684	 0.117606
H	-0.5022399007	 1.8973834927	-0.9341624009	 0.117624
H	-0.4742067127	 1.912980759	 0.835010874	 0.116223
H	 0.2404353008	-0.96417592	-2.0920558695	 0.085174
H	 1.763093635	-0.9460413915	-1.1412041444	 0.081856
H	 0.0484913403	-2.9758487244	-0.0056532915	 0.056924
H	 1.6635126336	-0.9262190028	 1.2799519	 0.053392
H	-0.2413631386	-1.7992366099	 2.9173636907	 0.093739
H	-0.2528087902	-0.0359747407	 2.897662376	 0.0931
H	-2.3270011702	-1.827212206	 1.7282113408	 0.091219
H	-2.3413171809	-0.0656149158	 1.7101642525	 0.090501
H	-2.940127043	-0.0905045788	-0.9370613982	 0.113442
H	-1.8850287177	-0.9876283062	-2.0351184733	 0.11511
H	-2.9369911624	-1.8542740171	-0.9112399709	 0.114349
180.1494	184.5527	189.7986	205.7362	218.0316	330.7301	381.9336	415.11	450.414	615.448	628.1458	676.0389	709.4653	727.1194	817.4752	834.3896	889.2293	908.3168	928.9314	943.5949	961.4324	997.8579	1005.7483	1014.1035	1052.1584	1067.5111	1118.1348	1127.0983	1135.895	1175.5772	1186.3229	1215.5984	1217.4831	1241.9789	1250.5702	1253.5597	1288.4384	1310.7527	1330.0819	1369.974	1404.8729	1414.4255	1483.164	1488.4269	1490.0995	1492.6712	1497.0805	1509.9164	1526.9746	3020.8795	3023.9736	3031.5184	3043.9797	3044.723	3062.4934	3078.4169	3078.6082	3084.4512	3086.675	3088.0171	3091.0539	3098.1688	3107.1722
CC12CC3C1CCC23C	C[C@@]12C[C@H]3[C@@H]1CC[C@@]23C	
InChI=1S/C9H14/c1-8-4-3-6-7(8)5-9(6,8)2/h6-7H,3-5H2,1-2H3	InChI=1S/C9H14/c1-8-4-3-6-7(8)5-9(6,8)2/h6-7H,3-5H2,1-2H3/t6-,7-,8+,9+/m0/s1
