14
gdb 131689	2.7085	1.25208	0.86085	5.7013	65.75	-0.2687	-0.075	0.1937	1235.5441	0.099714	-473.806537	-473.798184	-473.79724	-473.840536	28.716	
O	-0.051171658	 1.4244904525	 0.0075094984	-0.416533
C	 0.0234249201	 0.0106581069	 0.001865564	-0.205148
C	-1.3767023048	-0.5159895331	 0.011848298	 0.083108
C	-2.5268626358	 0.2037164808	 0.0233020143	 0.020625
O	-3.5921818435	-0.620478154	 0.0296866708	-0.153429
N	-3.1674108288	-1.9237216934	 0.0224994414	-0.168244
C	-1.8484167588	-1.8671946655	 0.0119266611	 0.196253
C	-1.0286826754	-3.1026446661	 0.0017208774	 0.097418
O	-1.4623301612	-4.2254633849	 0.0029869807	-0.234218
H	 0.843564233	 1.7765004717	 0.0015243307	 0.2985
H	 0.5566749849	-0.3605821746	-0.8885472064	 0.114115
H	 0.5716864491	-0.3669094294	 0.8804076454	 0.114106
H	-2.7352675412	 1.2601358447	 0.0280733823	 0.177503
H	 0.0668313403	-2.9062439355	-0.0080456079	 0.075945
58.604	98.5337	141.342	214.9396	235.1342	235.2345	302.5206	376.7694	546.6109	621.9657	683.7178	695.1759	800.4253	846.8007	949.5185	992.7949	1026.0706	1053.1	1082.8981	1132.7009	1180.8784	1224.4414	1252.3493	1286.8882	1386.1351	1443.1817	1471.269	1493.1118	1517.7764	1636.9414	1821.8794	2878.3891	2964.0056	2982.2736	3295.7284	3839.214
OCC1=CON=C1C=O	OCc1conc1C=O	
InChI=1S/C5H5NO3/c7-1-4-3-9-6-5(4)2-8/h2-3,7H,1H2	InChI=1S/C5H5NO3/c7-1-4-3-9-6-5(4)2-8/h2-3,7H,1H2
