16
gdb 50255	2.68383	1.45334	1.075	4.8804	69.8	-0.2465	-0.0418	0.2047	1096.6439	0.123179	-437.862563	-437.854627	-437.853683	-437.895887	29.302	
O	-0.3924452754	 1.2347558007	 1.4986884796	-0.245018
C	 0.0410777627	 1.0529498294	 0.3912557314	 0.173686
C	 1.3573250672	 1.6214426808	-0.1042128903	-0.068381
N	 2.0701095604	 0.7786290584	-1.0894870733	-0.331894
C	 2.3226512728	 1.9272585365	-1.9963953465	-0.004868
C	 1.3844752459	 1.8999219905	-3.2272237119	-0.33447
C	 0.2959454868	 2.5362888314	-2.3349264181	 0.408602
O	-0.8624752211	 2.7878992116	-2.481825093	-0.290063
C	 1.2913956686	 2.7644949555	-1.1684119972	-0.192782
H	-0.4993184573	 0.4464078923	-0.3683219818	 0.089975
H	 1.9505859694	 1.9368176711	 0.7627092664	 0.096336
H	 2.8898363414	 0.3003058675	-0.7379583118	 0.232499
H	 3.3614033118	 2.2288421396	-2.1352409477	 0.083753
H	 1.6861694166	 2.5993452485	-4.0166006643	 0.131653
H	 1.1606505162	 0.9262541236	-3.667172455	 0.137832
H	 1.4153597441	 3.7888821927	-0.8211873564	 0.113138
63.6414	80.6122	124.3574	286.0568	344.9518	375.3404	428.3436	455.5432	549.0633	613.3785	665.3044	758.0087	783.778	845.9501	917.9034	937.3772	984.8441	1001.8142	1024.9305	1046.743	1065.831	1092.2308	1122.4856	1134.6741	1178.5809	1197.432	1236.864	1262.7115	1289.9075	1348.7596	1384.2603	1411.6089	1422.8754	1833.0215	1893.1447	2900.2611	3033.3153	3044.781	3104.9756	3125.905	3135.8469	3561.7354
O=CC1NC2CC(=O)C12	O=C[C@H]1N[C@H]2CC(=O)[C@@H]12	
InChI=1S/C6H7NO2/c8-2-4-6-3(7-4)1-5(6)9/h2-4,6-7H,1H2	InChI=1S/C6H7NO2/c8-2-4-6-3(7-4)1-5(6)9/h2-4,6-7H,1H2/t3-,4+,6+/m0/s1
