15
gdb 27498	2.02842	1.8672	0.97339	4.3964	73.61	-0.2154	-0.0085	0.2069	1129.328	0.115716	-450.204759	-450.196896	-450.195952	-450.237016	30.538	
N	 0.0546709452	 1.3856312157	 0.0425137475	-0.581132
C	-0.0452389829	 0.0097420604	 0.0767200307	 0.463017
C	-1.2073867429	-0.6837932187	-0.0725345013	-0.362641
C	-1.2203536208	-2.1199081592	 0.0544949558	 0.440787
O	-2.1839728499	-2.85436919	-0.0571841625	-0.393511
N	 0.0498745095	-2.6863707427	 0.3224199282	-0.42857
C	 1.2472000536	-2.023340647	 0.4978884608	 0.464723
N	 2.3960641601	-2.4995932231	 0.786375147	-0.579842
N	 1.1337994331	-0.6443951823	 0.3278190618	-0.393379
H	 0.905450747	 1.7574849873	-0.3563903458	 0.260017
H	-0.7673119297	 1.8528590726	-0.3094412066	 0.269614
H	-2.1371950113	-0.1855811392	-0.3041658325	 0.102711
H	 0.0461694591	-3.691138782	 0.417634989	 0.256311
H	 2.3669118958	-3.5101466976	 0.8949328831	 0.213866
H	 1.967710524	-0.1326671342	 0.5709584249	 0.268028
118.4747	160.1442	187.0884	315.5733	334.6895	374.5141	488.8864	507.4712	526.2126	566.5903	590.7936	591.9068	649.0955	688.9067	719.4508	725.7234	766.904	795.7497	960.8664	993.7198	1058.3803	1119.8702	1144.3927	1240.0217	1265.2341	1360.0604	1394.7528	1456.35	1544.6886	1646.1738	1690.2325	1747.5145	1789.9027	3240.2988	3525.9101	3566.8773	3626.9834	3641.1839	3671.7865
NC1=CC(=O)NC(=N)N1	NC1=CC(=O)N[C]([NH])N1	
InChI=1S/C4H6N4O/c5-2-1-3(9)8-4(6)7-2/h1H,(H5,5,6,7,8,9)	InChI=1S/C4H6N4O/c5-2-1-3(9)8-4(6)7-2/h1H,(H5,5,6,7,8,9)
