16
gdb 122784	5.42103	0.56625	0.51766	5.1156	68.5	-0.2839	-0.0689	0.215	1984.5684	0.122095	-475.044772	-475.034803	-475.033859	-475.081552	32.981	
O	-0.2291761455	 1.4368420167	 0.0126680728	-0.416083
C	-0.0365532438	 0.0340875479	 0.0025800793	-0.0739
C	-1.4193189313	-0.609620727	 0.0122492496	-0.195227
C	-1.3371068377	-2.1246045674	 0.0023751038	-0.080038
O	-2.6966080146	-2.6309019175	 0.0127564388	-0.22494
C	-2.8157741911	-3.9554470141	 0.0072342766	 0.361339
O	-1.9271088086	-4.7626662896	-0.0052823858	-0.329838
C	-4.2363099875	-4.3319396173	 0.0189635882	 0.254383
N	-5.3352432406	-4.6863067327	 0.0272444274	-0.303913
H	 0.6335346231	 1.861591946	 0.0072442447	 0.291141
H	 0.5211723112	-0.289291326	-0.8918068888	 0.092984
H	 0.5384113821	-0.2996983081	 0.8820975054	 0.092991
H	-1.9631612308	-0.2736989509	 0.9009680472	 0.129093
H	-1.9803920832	-0.263122263	-0.861571912	 0.129105
H	-0.8325194202	-2.5107762135	-0.8890238815	 0.136438
H	-0.8149909012	-2.5213872136	 0.8788810845	 0.136466
37.9069	66.0902	82.118	116.4797	160.4404	181.6704	256.4948	268.9902	341.211	349.2294	459.1584	562.2461	615.352	770.5228	780.8194	882.0523	908.1246	988.635	1030.8341	1077.8512	1102.2623	1171.4646	1231.3528	1245.6248	1270.5578	1302.2197	1309.4478	1321.9004	1422.7618	1469.673	1497.7037	1512.6865	1531.4971	1818.7085	2361.7927	2959.5586	2984.8673	3049.6521	3058.8276	3088.5143	3112.9749	3833.328
OCCCOC(=O)C#N	OCCCOC(=O)C#N	
InChI=1S/C5H7NO3/c6-4-5(8)9-3-1-2-7/h7H,1-3H2	InChI=1S/C5H7NO3/c6-4-5(8)9-3-1-2-7/h7H,1-3H2
