19
gdb 119537	3.08575	1.05551	0.87045	4.0844	75.57	-0.2719	0.0036	0.2755	1374.9166	0.158291	-423.032065	-423.023177	-423.022233	-423.066373	32.647	
C	-0.1027014937	 1.6060053878	 0.0367264849	-0.386103
C	-0.0988123454	 0.0770055036	 0.0933660116	-0.162534
C	 0.8325440496	-0.4735058087	 1.1858531019	-0.312609
C	 0.8598683205	-1.9754149724	 1.2138288372	 0.131611
C	-0.1397531299	-2.8675037763	 1.9786655944	-0.331435
C	 1.3183063234	-3.0182513854	 2.2046720078	 0.028464
O	 1.8737688733	-3.8492860366	 1.1455098112	-0.267367
C	 1.5471125951	-2.8724956101	 0.2102309116	 0.44094
O	 1.8333760492	-2.8503762987	-0.9427386307	-0.330518
H	 0.8992065789	 1.9971993235	-0.1715725818	 0.118928
H	-0.7714657392	 1.9711041299	-0.7483668387	 0.117324
H	-0.4360740857	 2.0391659542	 0.9866838935	 0.112223
H	-1.1164509467	-0.2926697751	 0.2706831366	 0.098802
H	 0.2143234802	-0.3335673856	-0.8733215253	 0.128404
H	 1.8495287531	-0.0952685562	 1.0207287185	 0.11326
H	 0.517615537	-0.0988742273	 2.168265512	 0.100364
H	-0.6972965445	-2.3317509477	 2.742311926	 0.129476
H	-0.6847626281	-3.659830298	 1.4754068455	 0.137967
H	 1.8828346433	-2.9444075507	 3.1230621338	 0.132802
62.1245	88.5457	116.9094	192.3448	239.8634	265.9639	318.2985	357.9879	468.2668	505.6874	679.6144	738.2664	749.5338	787.0354	836.9856	864.4003	898.6721	915.9174	930.2811	941.0254	1013.097	1036.5003	1049.5319	1067.3859	1083.5741	1120.7949	1142.3169	1229.8974	1259.2	1294.0886	1312.9443	1338.1412	1382.2602	1408.1093	1414.0092	1480.8803	1485.4895	1494.2985	1499.9843	1510.6364	1934.144	3016.8557	3029.1037	3032.85	3049.9269	3072.7645	3099.005	3106.4742	3119.9601	3211.7576	3228.0446
CCCC12CC1OC2=O	CCC[C@]12C[C@H]1OC2=O	
InChI=1S/C7H10O2/c1-2-3-7-4-5(7)9-6(7)8/h5H,2-4H2,1H3	InChI=1S/C7H10O2/c1-2-3-7-4-5(7)9-6(7)8/h5H,2-4H2,1H3/t5-,7+/m1/s1
