21
gdb 80174	2.16327	1.62725	1.36773	2.7151	81.33	-0.2367	-0.0133	0.2234	1088.3812	0.182626	-387.11915	-387.110336	-387.109392	-387.152265	34.096	
C	-0.3613440976	 1.434650378	-0.1447639626	-0.431763
C	-0.0205945663	-0.0359059663	-0.0058232109	-0.006926
C	 1.330884016	-0.624484267	-0.3461079821	-0.076708
C	 2.524275197	 0.3107532816	-0.4155015015	-0.329557
C	 2.5790297596	 1.0066164551	 0.9529750452	 0.374499
O	 3.1836141998	 2.017550333	 1.2045184547	-0.324529
C	 1.7281779554	 0.2085639505	 1.9567670271	-0.087538
C	 1.0864901853	 1.0788438471	 3.0387792619	-0.400689
C	 0.8216390144	-0.6531888725	 1.0926584154	-0.079923
H	 0.4534794125	 2.0995950418	 0.1512523915	 0.139247
H	-0.6092987082	 1.6712656606	-1.1857403849	 0.118756
H	-1.2320425723	 1.6928377733	 0.4674470087	 0.121978
H	-0.8457931552	-0.6802810461	-0.3012232261	 0.086329
H	 1.3615393447	-1.5324695566	-0.9375580673	 0.084435
H	 3.4562502637	-0.2539246844	-0.5480494886	 0.128053
H	 2.4911165959	 1.0578704452	-1.2141887108	 0.128195
H	 2.4481785665	-0.468445754	 2.4460325577	 0.103355
H	 0.3051208608	 1.7192017371	 2.6213429269	 0.123695
H	 0.6346990263	 0.4619322756	 3.8209834826	 0.111063
H	 1.8430472749	 1.7235594078	 3.4942077942	 0.135379
H	 0.4670389367	-1.58394404	 1.522246149	 0.082649
93.2962	158.8533	173.1208	207.8805	224.2374	251.1958	304.9394	429.3935	472.3189	525.8382	555.9067	625.8016	675.4094	734.5135	757.0021	794.2764	855.0031	911.6013	942.6423	965.4103	1003.0121	1025.6817	1058.0167	1081.6204	1088.1724	1112.1462	1138.8298	1148.9025	1166.4124	1192.1761	1235.2402	1281.9175	1284.0876	1319.4235	1355.3271	1373.0611	1408.0079	1424.1558	1436.8513	1456.6606	1490.5069	1496.7588	1502.2208	1507.1983	1837.849	2973.8332	3032.542	3034.4664	3047.4687	3086.3762	3088.0611	3112.538	3117.2111	3127.0097	3132.0143	3158.0069	3171.1672
CC1C2CC(=O)C(C)C12	C[C@H]1[C@H]2CC(=O)[C@@H](C)[C@@H]12	
InChI=1S/C8H12O/c1-4-6-3-7(9)5(2)8(4)6/h4-6,8H,3H2,1-2H3	InChI=1S/C8H12O/c1-4-6-3-7(9)5(2)8(4)6/h4-6,8H,3H2,1-2H3/t4-,5+,6+,8+/m0/s1
