19
gdb 73254	2.5483	1.78269	1.32315	1.6656	75.15	-0.2211	0.0198	0.2408	1012.9695	0.161711	-419.193979	-419.186195	-419.18525	-419.226095	30.566	
C	-0.2569921521	 1.3960910227	-0.0724894804	-0.425798
C	-0.0021878715	-0.1093579277	-0.0219138556	 0.325949
C	-1.1535133982	-0.8881838321	 0.6808331537	-0.211126
N	-0.3143142827	-1.0642215089	 1.9118856738	-0.326065
C	 0.8803833343	-0.5446633842	 1.1831068811	-0.080968
C	 1.8162688018	-1.6872077411	 0.788025262	-0.078872
O	 2.3914659563	-1.492812656	-0.515880965	-0.223031
C	 1.5131338213	-1.1158977954	-1.47606883	 0.111606
N	 0.3876196548	-0.5501036375	-1.3483306076	-0.314592
H	 0.6562262771	 1.9331623707	-0.3480268231	 0.119645
H	-1.0225782385	 1.6198956863	-0.8208606388	 0.129124
H	-0.5963569679	 1.7678065646	 0.9003183871	 0.10285
H	-2.0887538481	-0.3385453272	 0.8248711302	 0.102526
H	-1.380127642	-1.8497435853	 0.2105872912	 0.111796
H	-0.6014635611	-0.4177076899	 2.6385195616	 0.222201
H	 1.424869834	 0.2588670138	 1.6882259586	 0.071463
H	 2.6605556646	-1.8006984127	 1.4706012643	 0.119229
H	 1.2467699182	-2.6233636104	 0.7793301037	 0.122766
H	 1.9050285395	-1.3595377796	-2.4627612967	 0.121295
96.4464	151.8633	252.4348	269.2329	318.1888	332.0066	417.506	487.5317	527.5896	558.761	629.0869	752.7034	814.1545	843.5551	918.7042	925.9939	929.9656	960.0965	974.1645	978.4001	996.4884	1028.8248	1074.8593	1135.2856	1155.5224	1191.9411	1209.7237	1244.2432	1268.6244	1279.0601	1327.0832	1344.5868	1378.4871	1400.0801	1409.7928	1415.6401	1483.6755	1493.1921	1501.8106	1510.3975	1712.0654	3030.6788	3042.3162	3045.9239	3055.9356	3093.1255	3102.3462	3115.6372	3116.4134	3148.6673	3532.13
CC12CNC1COC=N2	C[C@]12CN[C@H]1COC=N2	
InChI=1S/C6H10N2O/c1-6-3-7-5(6)2-9-4-8-6/h4-5,7H,2-3H2,1H3	InChI=1S/C6H10N2O/c1-6-3-7-5(6)2-9-4-8-6/h4-5,7H,2-3H2,1H3/t5-,6-/m0/s1
