14
gdb 9939	3.4717	1.53617	1.46406	2.755	59.2	-0.2624	0.0046	0.267	891.4673	0.106946	-415.837648	-415.829805	-415.828861	-415.869524	29.161	
N	-0.2311806625	 1.3880074525	-0.0233367405	-0.579507
C	-0.0348677407	-0.0411944666	-0.0246936934	 0.06878
C	 1.0402125725	-0.5879748551	-0.8011280243	 0.232198
N	 1.9039402726	-1.0275171811	-1.4355498083	-0.33952
C	-0.4434953888	-0.7736968378	 1.2777869013	 0.066584
O	-0.8247942469	-0.0026643927	 2.3573206692	-0.425179
C	-1.3611588629	-0.8294642059	 0.0951744817	 0.027422
O	-2.4924108604	-0.0332394107	 0.1883314439	-0.432714
H	 0.2107822871	 1.8168319059	 0.7836797151	 0.263399
H	 0.1293546946	 1.8130729558	-0.8690232895	 0.2602
H	 0.1545691262	-1.640566809	 1.5401859072	 0.131327
H	-1.7539829533	 0.2302484457	 2.2013123541	 0.297892
H	-1.4915890252	-1.7447268566	-0.4722697839	 0.129494
H	-2.1740015123	 0.8739684655	 0.0030932274	 0.299624
134.9679	160.6122	191.6368	241.1302	269.845	326.6352	448.182	461.2963	473.2822	572.8131	610.6502	671.813	719.2732	742.7488	806.3402	856.3305	892.1813	1035.7697	1071.1134	1110.3448	1157.5874	1201.439	1268.6106	1292.5143	1337.1636	1361.8962	1413.8099	1451.8536	1636.1711	2335.5039	3164.8105	3175.3696	3510.9379	3537.9792	3606.7484	3694.4182
NC1(C#N)C(O)C1O	N[C@@]1(C#N)[C@@H](O)[C@H]1O	
InChI=1S/C4H6N2O2/c5-1-4(6)2(7)3(4)8/h2-3,7-8H,6H2	InChI=1S/C4H6N2O2/c5-1-4(6)2(7)3(4)8/h2-3,7-8H,6H2/t2-,3+,4-
