17
gdb 35687	2.51384	1.49655	1.11083	2.5033	74.14	-0.2479	0.0142	0.2621	1112.1635	0.134333	-421.746791	-421.738404	-421.73746	-421.780431	30.924	
C	-0.2045424675	-1.2120537319	-0.3174075938	-0.439123
C	-0.1231778434	-0.0478229051	-0.0270525812	 0.321384
C	 0.0070619298	 1.3591247205	 0.292683727	-0.099092
O	 0.1694143229	 1.631622558	 1.7069453604	-0.288304
C	 1.3121954757	 2.4795209368	 1.4653224158	-0.125675
C	 1.3562667598	 2.0845420654	-0.0186491239	 0.350569
C	 2.5497704893	 1.3882648496	-0.6894903629	-0.351663
C	 2.4326214357	 2.5153845314	-1.733666607	-0.075375
O	 1.3331156222	 3.1149550616	-1.0048706505	-0.30424
H	-0.2949625391	-2.2415624891	-0.5631311484	 0.203935
H	-0.8324846165	 1.931585326	-0.126035327	 0.112683
H	 1.0852348306	 3.5426169318	 1.6156593476	 0.113422
H	 2.1741303822	 2.1920742242	 2.0782868742	 0.109251
H	 3.4670755663	 1.3912807171	-0.0980449601	 0.116208
H	 2.3490805919	 0.3774668402	-1.0464670337	 0.13254
H	 3.2858090661	 3.1978221709	-1.80910087	 0.110607
H	 2.1283170141	 2.2050825524	-2.7391909065	 0.112873
60.6967	90.5007	134.8379	192.9953	267.8882	353.4689	361.7204	471.0454	540.9543	570.324	620.7843	675.5523	783.0472	797.9057	872.7519	897.7747	918.7559	960.5254	972.3398	1014.5359	1021.2497	1062.0641	1118.2363	1152.8287	1162.49	1181.8205	1222.4013	1223.5619	1237.2537	1281.6191	1338.8627	1351.0235	1364.9073	1483.8422	1507.8794	1531.6627	2231.0827	3008.2283	3019.034	3033.6766	3070.2055	3077.7619	3083.3988	3140.8872	3501.1224
C#CC1OCC11CCO1	C#C[C@H]1OC[C@]21CCO2	
InChI=1S/C7H8O2/c1-2-6-7(5-8-6)3-4-9-7/h1,6H,3-5H2	InChI=1S/C7H8O2/c1-2-6-7(5-8-6)3-4-9-7/h1,6H,3-5H2/t6-,7+/m1/s1
