13
gdb 25447	6.6415	0.89756	0.7907	2.7132	76.24	-0.2583	-0.0693	0.189	1310.689	0.090836	-415.680565	-415.673226	-415.672281	-415.712747	26.659	
O	-0.0855498227	-0.0428260385	-0.0020824672	-0.27147
C	-0.0369064027	 1.1551631316	 0.0078445885	 0.189643
N	 1.1593596265	 1.8824695442	 0.0007786581	-0.04986
C	 2.4372804524	 1.3334415779	-0.0183906012	-0.041883
C	 3.3335596235	 2.35624921	-0.0194685126	-0.277358
C	 2.5825921784	 3.5888259704	-0.0003003134	 0.150838
C	 1.2500912495	 3.2585865193	 0.011783734	-0.169139
C	 3.1138687251	 4.9028039759	 0.0052163075	 0.21063
N	 3.5593704796	 5.9717133622	 0.009557962	-0.33563
H	-0.9181473509	 1.8194937476	 0.0235538718	 0.114327
H	 2.5552007359	 0.2636393023	-0.0290801993	 0.171254
H	 4.4084476684	 2.2731646019	-0.0322399028	 0.14024
H	 0.3703747371	 3.8806554051	 0.0271007046	 0.168407
92.0688	135.6896	206.8153	251.3187	275.0541	449.3205	509.2232	564.18	617.5676	632.9838	664.1916	732.7723	800.6814	818.3437	877.1249	979.1436	1003.7659	1030.4093	1098.0786	1179.4345	1249.8857	1334.5795	1350.6265	1412.8787	1446.4531	1533.3191	1599.3851	1836.8535	2349.4608	2994.8596	3269.0237	3276.755	3300.3072
O=CN1C=CC(=C1)C#N	O=Cn1ccc(c1)C#N	
InChI=1S/C6H4N2O/c7-3-6-1-2-8(4-6)5-9/h1-2,4-5H	InChI=1S/C6H4N2O/c7-3-6-1-2-8(4-6)5-9/h1-2,4-5H
