21
gdb 92132	2.81018	1.68485	1.49539	1.3777	79.99	-0.2199	0.0819	0.3018	1002.7894	0.186224	-387.102223	-387.095024	-387.09408	-387.133701	30.056	
C	 0.2645148313	 1.5772614124	 0.0275954637	-0.397923
C	-0.0263047818	 0.071411616	 0.0036440499	 0.021444
C	 0.5065710888	-0.5976157977	-1.299336531	-0.225234
C	 1.2877254133	-1.8730992475	-0.9688536548	 0.06523
C	 0.449193238	-2.8137910061	-0.0760491194	-0.235294
C	 0.6179739079	-2.1450241652	 1.279270924	-0.131567
C	 1.8808882001	-1.3336919967	 1.1407944354	 0.099961
O	 2.4117035632	-1.5038434439	-0.1526508499	-0.265548
C	 0.5543060304	-0.6225704583	 1.2338705589	-0.071061
H	 1.3442560182	 1.7619446876	 0.0185772962	 0.124027
H	-0.1698792429	 2.0758972312	-0.8455318047	 0.109492
H	-0.1513895855	 2.0492211948	 0.9245501091	 0.107028
H	-1.1159238989	-0.0574020396	 0.0421227968	 0.072532
H	-0.3153265074	-0.8248782086	-1.987297989	 0.091872
H	 1.1855470289	 0.0837629298	-1.8225630797	 0.102118
H	 1.6817710013	-2.3505642548	-1.8686868571	 0.076336
H	-0.5880160036	-2.8774563037	-0.4201780341	 0.09925
H	 0.8687776402	-3.8248116534	-0.0574686602	 0.103464
H	 0.3624797126	-2.6778961771	 2.187184998	 0.082589
H	 2.649696576	-1.2452376502	 1.898291022	 0.094935
H	 0.3435762998	-0.1335183391	 2.1814935057	 0.076349
77.6787	248.8247	285.7919	328.0175	375.2994	427.9761	497.3345	539.5521	656.152	693.4594	735.9237	783.1065	820.2459	829.2612	889.2182	891.3069	924.9776	955.9814	983.8831	997.0747	1001.2877	1039.0819	1064.4891	1073.2786	1091.2874	1108.0363	1126.4343	1141.2532	1179.2195	1198.2968	1233.9835	1264.0974	1292.4855	1322.1182	1324.798	1343.8831	1359.353	1367.8812	1387.9045	1408.0445	1428.0943	1482.1831	1496.211	1497.8055	1499.4503	3004.1574	3025.1163	3036.7182	3045.6033	3078.1957	3087.0217	3091.6175	3094.3761	3099.8385	3136.6815	3178.5372	3193.0262
CC1CC2CC3C(O2)C13	C[C@H]1C[C@@H]2C[C@H]3[C@@H](O2)[C@@H]13	
InChI=1S/C8H12O/c1-4-2-5-3-6-7(4)8(6)9-5/h4-8H,2-3H2,1H3	InChI=1S/C8H12O/c1-4-2-5-3-6-7(4)8(6)9-5/h4-8H,2-3H2,1H3/t4-,5+,6+,7-,8+/m0/s1
