21
gdb 105514	2.02357	1.34943	1.13595	2.8182	73.8	-0.244	0.0568	0.3008	1217.3667	0.180471	-461.3286	-461.318395	-461.31745	-461.363781	37.232	
C	-0.1845548659	 1.5447616248	-0.050637442	-0.426848
C	 0.0741259094	 0.036011382	-0.0364109528	 0.061813
O	 0.9206732378	-0.3579189642	-1.1171830889	-0.445647
C	 0.7462110757	-0.4895290933	 1.23734536	 0.293215
C	 2.1185075998	 0.146284766	 1.4878840959	-0.162658
O	 2.7330513526	-0.3008822719	 2.6872998324	-0.418837
C	-0.1946441462	-0.5556875064	 2.46534001	-0.12967
O	-0.268918235	-1.9947588753	 2.3913216421	-0.274021
C	 0.6891775605	-2.0360009608	 1.3190150591	-0.120486
H	 0.7511768745	 2.1098244617	-0.059726931	 0.132442
H	-0.7524916825	 1.8216405339	-0.9460846633	 0.110039
H	-0.773961773	 1.8561805675	 0.8177396395	 0.125583
H	-0.8971898459	-0.4793865142	-0.120817275	 0.07368
H	 0.5153948967	-0.0656024309	-1.9394984714	 0.284747
H	 2.7620437357	-0.0203740039	 0.6143198139	 0.113644
H	 2.007797075	 1.2282513561	 1.6122686176	 0.108371
H	 3.0153892499	-1.2115540758	 2.5606819189	 0.286958
H	 0.2682097181	-0.2192958915	 3.3992742913	 0.114799
H	-1.1809904894	-0.0883201018	 2.3513727925	 0.091014
H	 0.3053613555	-2.5419260451	 0.4262324426	 0.108953
H	 1.6211806666	-2.5351109067	 1.6229377387	 0.072911
67.351	91.821	112.5576	198.849	204.9222	243.1994	276.689	289.9161	314.3819	322.1279	336.5685	468.4426	488.8619	566.2347	667.5587	823.1734	874.2714	881.5097	921.3231	981.7371	990.5285	1025.9017	1040.7613	1066.6772	1088.7523	1103.104	1130.4023	1148.8673	1169.9796	1192.3067	1217.2499	1253.4262	1308.4197	1318.2479	1370.4709	1381.8927	1396.9062	1405.8501	1419.2679	1427.2205	1491.1298	1501.8532	1502.9333	1505.1976	1534.7552	2956.911	2985.5704	3016.7417	3022.9636	3033.9464	3057.2851	3072.4291	3079.5918	3096.6513	3122.1841	3821.738	3827.8529
CC(O)C1(CO)COC1	C[C@@H](O)C1(CO)COC1	
InChI=1S/C6H12O3/c1-5(8)6(2-7)3-9-4-6/h5,7-8H,2-4H2,1H3	InChI=1S/C6H12O3/c1-5(8)6(2-7)3-9-4-6/h5,7-8H,2-4H2,1H3/t5-/m1/s1
