21
gdb 79292	2.61744	1.70582	1.46441	1.4437	79.99	-0.2269	0.0918	0.3187	1024.9824	0.184708	-387.096476	-387.08882	-387.087876	-387.128074	31.449	
C	 0.0089933871	 1.6219358109	-0.0054288925	-0.413051
C	 0.0149740435	 0.0946884119	-0.0463598146	 0.01957
C	 0.9258956489	-0.508627446	-1.1147986017	-0.115676
C	 2.262393992	-0.647427672	-0.4221882992	 0.078861
O	 2.1260185232	-0.1962075311	 0.9157922249	-0.262107
C	 0.75491385	-0.5767613346	 1.1396542072	 0.026103
C	 0.7702926489	-2.0845805056	 0.7756958133	 0.026358
C	-0.563566504	-2.8275585207	 0.8052519718	-0.420626
C	 1.4018790378	-1.8725045041	-0.6005529079	-0.130013
H	 1.0196722559	 2.0069821948	 0.1517509937	 0.133755
H	-0.3754222994	 2.0380173321	-0.9425796486	 0.108377
H	-0.6275723417	 1.9911083953	 0.8061768173	 0.107768
H	-1.0099942496	-0.2793514981	-0.1250315892	 0.072048
H	 0.8340559515	-0.2801719788	-2.1684725579	 0.082933
H	 3.2340303241	-0.4760158831	-0.8625478741	 0.100118
H	 0.4575030185	-0.2994057648	 2.1498640374	 0.072717
H	 1.4812444397	-2.5880215551	 1.4418234576	 0.076911
H	-1.2872096406	-2.413489192	 0.0978623834	 0.121492
H	-0.4189677398	-3.8804360323	 0.5419105293	 0.11706
H	-1.0106654383	-2.7986248675	 1.8053741689	 0.113446
H	 1.6688551424	-2.6853367794	-1.2631906492	 0.083958
178.2645	204.946	215.4119	239.1272	273.1322	303.2509	508.4713	534.2976	593.8557	681.1898	713.541	748.8588	804.4369	813.0801	858.6825	889.5285	913.6032	950.7863	968.6873	983.9639	993.5529	1028.5082	1045.4014	1054.5219	1067.8645	1081.0274	1101.8953	1114.2463	1125.9835	1141.9083	1212.6751	1241.3738	1265.0177	1276.7649	1301.3174	1329.1151	1373.3136	1377.1409	1383.7465	1404.684	1419.1002	1495.4472	1497.1546	1503.5308	1506.6113	3032.8007	3033.9023	3036.8796	3065.4826	3093.3366	3093.7471	3114.1865	3124.8333	3136.8783	3196.6443	3203.5051	3226.0075
CC1C2C3OC1C(C)C23	C[C@H]1[C@H]2[C@H]3O[C@@H]1[C@@H](C)[C@@H]23	
InChI=1S/C8H12O/c1-3-5-6-4(2)7(3)9-8(5)6/h3-8H,1-2H3	InChI=1S/C8H12O/c1-3-5-6-4(2)7(3)9-8(5)6/h3-8H,1-2H3/t3-,4-,5-,6+,7+,8-/m0/s1
