16
gdb 21182	3.49674	1.88639	1.24672	5.6396	67.99	-0.2112	0.019	0.2302	953.0854	0.131703	-376.093014	-376.085001	-376.084057	-376.12559	28.305	
C	-0.0895279188	 1.4222393896	 0.001029782	-0.32768
N	-0.1216033662	-0.0333097557	 0.0454502512	-0.396024
C	 0.6162169336	-0.6439139359	 1.0444864263	 0.387067
C	 1.2955331874	-0.1623580005	 2.1480405374	-0.153254
N	 1.7836627306	-1.2242562864	 2.8483526316	-0.186984
N	 1.4613482821	-2.327698663	 2.2522497603	-0.163288
N	 0.7346135672	-1.9918541663	 1.1441036687	-0.022538
C	 0.1999494966	-3.0106987424	 0.2734228024	-0.346089
H	 0.9227489506	 1.8340610258	-0.1262313479	 0.123658
H	-0.7164608417	 1.7652827712	-0.8246317904	 0.13106
H	-0.5055731165	 1.8207557062	 0.9310219866	 0.146783
H	-0.001761327	-0.4590806028	-0.8640404518	 0.241786
H	 1.4514442982	 0.8539876727	 2.4679479559	 0.111864
H	-0.8749215546	-2.8639738682	 0.1287934547	 0.147152
H	 0.6964948207	-3.0069512098	-0.7041459912	 0.134203
H	 0.3772245277	-3.9725373845	 0.7546277543	 0.172286
85.6162	137.3833	176.6075	188.4141	208.4702	298.0177	320.8264	478.8417	570.2941	657.7445	689.2091	721.7401	784.3052	787.0785	971.8146	1014.307	1081.2422	1132.0629	1149.475	1152.8882	1171.1747	1236.4889	1266.3062	1315.7491	1372.7587	1431.2399	1456.7177	1460.1764	1484.635	1488.2775	1508.3926	1518.4787	1538.3277	1625.5195	2993.9487	3028.4654	3083.2464	3091.5604	3129.226	3159.652	3277.3601	3566.8539
CNC1=CN=NN1C	CNc1cnnn1C	
InChI=1S/C4H8N4/c1-5-4-3-6-7-8(4)2/h3,5H,1-2H3	InChI=1S/C4H8N4/c1-5-4-3-6-7-8(4)2/h3,5H,1-2H3
