19
gdb 75379	3.01683	1.52266	1.05987	1.7411	86.04	-0.2115	-0.0144	0.197	1143.6384	0.160655	-385.907742	-385.899936	-385.898991	-385.939922	30.378	
C	 0.025278088	 1.4976056255	 0.0684138228	-0.503045
C	-0.0735606741	 0.0057579418	 0.0131250718	 0.215573
C	-0.048565546	-0.7813121247	-1.082920532	-0.165279
C	-0.0666658396	-2.2680113965	-0.7613481914	-0.308832
C	-0.539385307	-2.2428342226	 0.7062053084	 0.084305
O	 0.0335964492	-3.146609759	 1.6350343393	-0.280885
C	 0.2465081188	-2.4148094775	 2.8510407465	-0.111146
C	 0.3061134856	-0.9550375511	 2.438484962	-0.300294
C	-0.120440023	-0.87285226	 1.1791436383	 0.279567
H	 0.9038113842	 1.8093589575	 0.6464702716	 0.131451
H	 0.104995626	 1.9312580645	-0.931889624	 0.124951
H	-0.8488783368	 1.9348483388	 0.564600754	 0.132229
H	 0.0431032166	-0.4068846952	-2.0977687027	 0.093241
H	-0.7120748914	-2.8503735544	-1.4256666746	 0.104738
H	 0.9438151015	-2.6945901217	-0.8249545213	 0.121981
H	-1.6410162103	-2.3334095058	 0.7207641054	 0.073813
H	-0.5681791541	-2.6182189974	 3.5686988801	 0.097605
H	 1.1796409133	-2.7660449677	 3.3094525492	 0.111898
H	 0.7072409893	-0.1743420745	 3.0712868766	 0.098127
128.2765	157.6305	186.88	238.751	258.5402	335.9011	426.1571	537.5425	559.5136	641.9391	695.1191	747.7805	796.8443	821.4701	841.2558	927.2357	944.4195	963.2815	996.9205	1017.8481	1032.1597	1044.5606	1067.6952	1096.9159	1120.0899	1162.5433	1200.4049	1221.9279	1258.9381	1288.0386	1328.4349	1335.3574	1368.708	1383.3838	1415.3343	1478.2313	1482.7946	1489.8009	1513.194	1659.584	1722.5017	2927.2795	2944.4166	3020.972	3025.4585	3036.0273	3075.6427	3079.9587	3114.639	3182.2973	3218.6519
CC1=CCC2OCC=C12	CC1=CC[C@H]2OC[CH][C]12	
InChI=1S/C8H10O/c1-6-2-3-8-7(6)4-5-9-8/h2,4,8H,3,5H2,1H3	InChI=1S/C8H10O/c1-6-2-3-8-7(6)4-5-9-8/h2,4,8H,3,5H2,1H3/t8-/m1/s1
