19
gdb 87504	2.96095	1.38683	1.13585	1.804	75.93	-0.2521	0.0629	0.315	1111.0427	0.158902	-422.940921	-422.932793	-422.931849	-422.973211	32.561	
O	-0.0004463915	 1.4009476525	 0.221983028	-0.421713
C	-0.0125435281	 0.0054078541	 0.0932577547	-0.041865
C	-0.453817493	-0.7557443926	 1.3283034318	-0.438318
C	-1.3078738722	-0.7243050279	 0.0879151504	 0.406373
C	-2.7470427754	-0.2321009324	-0.175287819	-0.182166
C	-2.5081485878	-0.6395832264	-1.6607575339	-0.225543
C	-1.9052822582	-1.8126477122	-0.8321669382	-0.1878
C	-3.2011241176	-1.7169257585	 0.045553854	 0.196662
O	-3.2548603475	-2.2748307852	 1.3204678749	-0.448336
H	-0.2954558581	 1.7779395849	-0.6134987075	 0.287604
H	 0.8244076538	-0.4119816183	-0.4688566171	 0.087018
H	 0.0914172422	-1.6580505327	 1.589770881	 0.119492
H	-0.7504545866	-0.1386597854	 2.1715403102	 0.131775
H	-3.2166908195	 0.6762484863	 0.2026124785	 0.081395
H	-3.3972863681	-0.8660627612	-2.25580085	 0.094348
H	-1.7933168566	-0.0328892656	-2.219437004	 0.090037
H	-1.4133565265	-2.7107864827	-1.207594963	 0.076147
H	-4.1277957639	-1.9998422669	-0.4607957805	 0.080894
H	-2.4529258153	-2.0191105199	 1.7900295398	 0.293996
132.6238	142.4486	204.8498	263.6593	317.3878	350.9079	416.202	434.0852	464.5292	494.5538	614.6097	679.4231	762.1741	817.5238	844.7821	863.3271	883.5815	893.6431	955.2663	990.7353	1008.7434	1021.7972	1046.7702	1069.6597	1086.4846	1112.7724	1129.4207	1148.7468	1162.8335	1174.4535	1186.8491	1221.6755	1243.988	1253.1759	1300.2425	1304.7225	1360.5271	1423.9002	1451.8087	1490.9358	1518.0517	3056.7791	3081.5576	3084.4227	3109.4152	3115.7008	3117.3928	3126.8246	3204.7318	3802.5986	3806.7921
OC1CC11C2CC1C2O	O[C@H]1C[C@]21[C@H]1C[C@@H]2[C@H]1O	
InChI=1S/C7H10O2/c8-5-2-7(5)3-1-4(7)6(3)9/h3-6,8-9H,1-2H2	InChI=1S/C7H10O2/c8-5-2-7(5)3-1-4(7)6(3)9/h3-6,8-9H,1-2H2/t3-,4+,5-,6-,7-/m0/s1
