17
gdb 125861	3.25412	1.598	1.13624	2.2849	81.06	-0.2123	-0.0053	0.207	1054.9129	0.139449	-380.900846	-380.893697	-380.892753	-380.93221	28.467	
C	-0.1016771059	 1.598775802	-0.0381275343	-0.385451
C	-0.0090598382	 0.06309757	 0.0100266275	-0.213262
C	 0.8314890178	-0.5225494638	-1.1273145345	-0.075484
C	 1.8573504736	-1.2740540478	-0.6852741106	-0.200172
C	 1.8118929681	-1.2784780811	 0.7726129707	 0.330138
N	 2.508798607	-1.8064893739	 1.7701801485	-0.34435
N	 1.8468822265	-1.3489511252	 2.8632667908	-0.188228
C	 0.76637236	-0.5592064207	 2.5740201584	-0.22678
C	 0.7155678046	-0.4937654016	 1.2052036951	 0.243175
H	 0.8941109345	 2.0470758898	 0.0223599194	 0.126391
H	-0.5726784657	 1.9320339378	-0.968572413	 0.113883
H	-0.6989471395	 1.9783273252	 0.7967138795	 0.115188
H	-1.029401017	-0.342398777	-0.0563549364	 0.098721
H	 0.597423073	-0.3223610077	-2.1663212248	 0.097222
H	 2.589192932	-1.7880828333	-1.2940860588	 0.107241
H	 2.1815439296	-1.611592231	 3.7743682484	 0.270744
H	 0.1618505895	-0.1384182118	 3.3623152539	 0.131023
136.4494	177.7643	255.2947	304.9055	365.4095	446.8587	485.6719	552.3132	645.7237	661.5752	692.9342	731.2237	782.1105	794.1609	819.1404	903.3928	955.0159	967.975	1013.3054	1050.3463	1072.1686	1083.1999	1097.1662	1157.7776	1185.3173	1245.7885	1293.2138	1322.6051	1342.875	1406.3101	1421.2629	1466.3366	1496.5319	1497.0457	1518.466	1598.5181	1643.1448	3001.4352	3035.1148	3103.6665	3116.138	3200.3455	3230.6816	3255.2831	3679.2501
CC1C=CC2=NNC=C12	C[C@H]1C=Cc2n[nH]cc12	
InChI=1S/C7H8N2/c1-5-2-3-7-6(5)4-8-9-7/h2-5H,1H3,(H,8,9)	InChI=1S/C7H8N2/c1-5-2-3-7-6(5)4-8-9-7/h2-5H,1H3,(H,8,9)/t5-/m0/s1
