18
gdb 50211	3.51352	1.48698	1.27779	1.3657	74.64	-0.2396	-0.0243	0.2153	1002.4559	0.149283	-401.917158	-401.910039	-401.909094	-401.948935	27.982	
O	-0.656753341	 0.8111834348	 0.625899161	-0.24647
C	 0.134781376	 1.0261482088	-0.2586092327	 0.137554
C	 1.3052207818	 1.9709207308	-0.1640246486	-0.087528
C	 1.2508707114	 3.131249252	-1.2171876903	-0.189063
N	 1.8638774661	 4.3026401419	-0.5616286725	-0.093579
C	 1.180296143	 4.826065873	 0.6350575984	-0.038509
C	 0.2825727815	 3.7801856878	 1.3053212586	-0.247715
C	 1.4485249828	 2.7485294719	 1.1450688997	-0.054409
C	 2.3751645097	 3.9352873784	 0.7528846422	-0.0751
H	 0.0358805651	 0.5141115529	-1.2446029725	 0.078018
H	 2.2085558878	 1.3734240631	-0.3573106975	 0.09649
H	 1.8206567561	 2.8932061312	-2.1187911958	 0.115893
H	 0.2258620347	 3.3649720214	-1.5235099372	 0.116049
H	 1.0987610566	 5.9043971848	 0.7182566395	 0.093369
H	 0.1150810071	 4.0284731282	 2.3557301262	 0.111262
H	-0.6785767447	 3.538557842	 0.8442590204	 0.107704
H	 1.6870720699	 2.1463559151	 2.0194313365	 0.083509
H	 3.4067394662	 4.1236920021	 1.0251777046	 0.092527
87.0794	141.5917	205.0459	328.9127	366.533	430.4564	568.874	692.1665	720.2845	739.37	794.2318	810.6498	841.9446	886.6633	923.1914	933.2733	954.3349	961.146	994.9555	1017.4154	1040.3969	1065.2583	1100.9472	1123.4802	1129.2269	1183.6378	1199.0384	1221.0994	1250.1406	1268.3147	1282.7026	1297.53	1325.4181	1332.892	1378.856	1430.275	1492.6558	1511.5529	1818.106	2855.6485	3002.5022	3049.8553	3065.6212	3097.2484	3115.3752	3137.3151	3167.4132	3186.9486
O=CC1CN2C3CC1C23	O=C[C@H]1CN2[C@H]3C[C@@H]1[C@@H]23	
InChI=1S/C7H9NO/c9-3-4-2-8-6-1-5(4)7(6)8/h3-7H,1-2H2	InChI=1S/C7H9NO/c9-3-4-2-8-6-1-5(4)7(6)8/h3-7H,1-2H2/t4-,5+,6+,7-,8?/m1/s1
