20
gdb 110538	3.8325	1.17532	1.1225	2.6815	79.31	-0.2331	0.0831	0.3162	1193.4739	0.170681	-403.077519	-403.068996	-403.068052	-403.110652	32.278	
C	 0.1127381749	 1.2327422708	-0.2502140684	-0.242587
O	-0.1973284146	-0.1038285023	 0.0801110058	-0.252948
C	 0.5565225724	-0.600909104	 1.151715158	 0.183113
C	 0.2637677154	-2.0203797759	 1.5909627501	-0.161082
N	 1.0869328839	-2.9923200726	 0.7842811157	-0.186396
C	 1.8527538905	-2.1310378553	-0.1789737887	-0.149206
C	 2.0256688333	-1.0752418044	 0.9195204669	-0.198335
C	 1.696007635	-2.251998984	 1.9248161109	 0.362449
C	 2.394411457	-2.8582860856	 3.0930795177	-0.531798
H	 1.1528131547	 1.3447639182	-0.5909356006	 0.107858
H	-0.5559835313	 1.5315618553	-1.0606367686	 0.129736
H	-0.0430227598	 1.9074797219	 0.6062007632	 0.105093
H	 0.5074552298	 0.0823427081	 2.0137974265	 0.067887
H	-0.6300757064	-2.4145548583	 2.0561929234	 0.096471
H	 2.780224864	-2.6475340061	-0.4377512916	 0.10261
H	 1.3066362688	-1.843941057	-1.0825882882	 0.109934
H	 2.8586884604	-0.375514917	 0.958613747	 0.069491
H	 2.4812768744	-2.1438086996	 3.9190375896	 0.123375
H	 1.8356481616	-3.7287468312	 3.4502559423	 0.137744
H	 3.4041463761	-3.1908054909	 2.8279075493	 0.126591
82.1821	138.518	168.3444	201.9868	226.2248	300.467	307.4276	381.0268	534.8028	543.7149	637.9912	725.0915	756.728	823.2439	846.2828	906.7217	952.0391	964.7844	1007.3145	1013.2397	1027.7285	1047.8838	1070.7445	1097.0238	1131.1875	1149.372	1165.571	1183.5102	1189.5944	1219.4116	1223.8204	1248.33	1305.0404	1313.8716	1387.8679	1402.4753	1449.5849	1480.3289	1481.9854	1488.6965	1492.4867	1501.9568	1508.733	2974.5582	2988.3252	3023.8933	3028.6715	3054.4893	3089.6242	3108.644	3113.9431	3117.7174	3129.3759	3205.7858
COC1C2N3CC1C23C	CO[C@H]1[C@H]2N3C[C@@H]1[C@@]23C	
InChI=1S/C7H11NO/c1-7-4-3-8(7)6(7)5(4)9-2/h4-6H,3H2,1-2H3	InChI=1S/C7H11NO/c1-7-4-3-8(7)6(7)5(4)9-2/h4-6H,3H2,1-2H3/t4-,5+,6+,7-,8?/m0/s1
