15
gdb 29674	2.42906	2.00989	1.10743	5.4817	70.38	-0.2513	-0.0423	0.2091	1018.5625	0.115233	-450.195049	-450.187234	-450.18629	-450.227681	28.757	
C	-0.056226482	 1.4145558349	 0.2109917423	-0.333308
N	-0.0197610112	-0.036524436	 0.0242839871	-0.186087
C	-1.239640283	-0.6889906429	-0.0264886674	 0.48513
N	-2.3386292069	-0.0529898764	 0.0841523898	-0.567566
N	-1.105514363	-2.0726299684	-0.2068423516	-0.363648
C	 0.1108302398	-2.6712078547	-0.3167442854	 0.107099
N	 1.2402789456	-2.069104518	-0.2708673892	-0.316532
C	 1.2383771076	-0.6769361348	-0.0930084176	 0.449784
O	 2.2626536241	-0.0402672165	-0.0404353449	-0.359862
H	 0.9737538008	 1.7607038827	 0.2325691168	 0.16857
H	-0.607208107	 1.8819626613	-0.6083752597	 0.145642
H	-0.5691173049	 1.6567395015	 1.1445207227	 0.145893
H	-3.144254751	-0.6716124806	 0.026939652	 0.212594
H	-1.9485378129	-2.6222864165	-0.2544519919	 0.26908
H	 0.079906754	-3.7513161755	-0.4538953928	 0.143211
85.3571	127.0101	148.5866	224.0304	359.3725	410.5828	413.8993	526.5022	544.7139	547.4924	594.9293	718.4433	723.8809	764.7953	801.9892	897.2645	983.1057	991.0658	1073.3865	1080.6049	1160.8181	1191.3199	1205.6378	1295.855	1409.5955	1420.5327	1463.6088	1482.9356	1491.2455	1506.012	1697.0585	1736.3508	1811.1429	3064.3657	3125.8975	3147.629	3195.9099	3515.1948	3643.2776
CN1C(=N)NC=NC1=O	CN1[C]([NH])NC=NC1=O	
InChI=1S/C4H6N4O/c1-8-3(5)6-2-7-4(8)9/h2H,1H3,(H2,5,6,7,9)	InChI=1S/C4H6N4O/c1-8-3(5)6-2-7-4(8)9/h2H,1H3,(H2,5,6,7,9)
