21
gdb 122542	4.4613	0.57871	0.5598	1.9697	76.91	-0.2576	0.0766	0.3342	2029.0847	0.180077	-461.321309	-461.310705	-461.309761	-461.35866	36.56	
C	-0.1014484926	 1.2947476873	-0.5054422452	-0.229885
O	-0.0869362908	 0.0364382689	 0.1247245011	-0.232178
C	-1.2841772664	-0.6837116908	-0.0608852467	-0.043138
C	-1.1434344873	-2.0319839138	 0.6405168003	-0.25006
C	-2.4079615298	-2.8476133546	 0.5256077463	 0.058261
O	-2.7005756852	-3.4461424342	-0.7458706885	-0.273119
C	-2.4781055617	-4.3111580452	 0.381969266	 0.028445
C	-1.2943274645	-5.2384733507	 0.2634440709	-0.085173
O	-1.5619471841	-6.2754269453	-0.6666532333	-0.418423
H	 0.862622832	 1.7703684174	-0.309673709	 0.127552
H	-0.2395201733	 1.2054912186	-1.5946898305	 0.105504
H	-0.9027512699	 1.9404104778	-0.1117336202	 0.103407
H	-2.1412481925	-0.1222309714	 0.3519847427	 0.083065
H	-1.4858461137	-0.8384115552	-1.1336814085	 0.103298
H	-0.2909224698	-2.5622156887	 0.2101093774	 0.117123
H	-0.9213051992	-1.8577941506	 1.7003742154	 0.113991
H	-3.2818118111	-2.374668255	 0.981607032	 0.090934
H	-3.3861655114	-4.8057917276	 0.7324213034	 0.097609
H	-0.3901432139	-4.6792172882	-0.0104696213	 0.095994
H	-1.1087791071	-5.7293022395	 1.2251926766	 0.113822
H	-1.7807462575	-5.8474232791	-1.5022770889	 0.292973
38.9433	69.2251	79.2215	106.0858	119.1885	184.953	231.6437	255.7381	296.1076	395.6973	423.3349	477.5621	494.2358	580.2379	762.969	819.2721	848.6863	918.5501	990.0593	1005.3572	1045.1359	1068.1292	1090.8094	1104.3053	1158.5081	1166.8136	1170.5634	1187.5548	1227.4616	1231.2217	1241.2528	1293.8814	1309.846	1315.9875	1358.408	1400.811	1425.0711	1434.1116	1474.7592	1481.8259	1485.11	1493.181	1498.0637	1504.7007	1533.0753	2945.1464	2970.0554	2985.9073	3012.9461	3017.0832	3045.3452	3069.6376	3074.4844	3098.5417	3112.3068	3114.3291	3801.0721
COCCC1OC1CO	COCC[C@H]1O[C@H]1CO	
InChI=1S/C6H12O3/c1-8-3-2-5-6(4-7)9-5/h5-7H,2-4H2,1H3	InChI=1S/C6H12O3/c1-8-3-2-5-6(4-7)9-5/h5-7H,2-4H2,1H3/t5-,6+/m1/s1
