23
gdb 88455	2.95878	1.12805	1.06671	1.3531	85.25	-0.243	0.0647	0.3078	1280.6172	0.205396	-388.260478	-388.251093	-388.250149	-388.294557	36.845	
C	 0.0595889905	 1.6336831382	 0.2071204045	-0.471195
C	-0.0123667719	 0.111728546	 0.0516502175	 0.368611
C	 0.9367421265	-0.3988485869	-1.0890292179	-0.255037
C	 2.0295711565	-0.6980726798	-0.0301250357	-0.21436
C	 0.9444546295	-0.5937877945	 1.0742012448	-0.257135
C	-1.4240680408	-0.4532186474	-0.0027332594	-0.121149
C	-2.6784261986	 0.3143406193	 0.3767829217	-0.325109
C	-2.4414846273	-0.058547133	-1.0532002901	 0.099567
O	-2.1849395308	 0.9947337542	-1.9423008287	-0.415936
H	 1.1017171539	 1.9704255384	 0.2002284578	 0.104179
H	-0.4719796239	 2.1423889577	-0.6002910999	 0.133009
H	-0.3789192605	 1.9493233639	 1.1599110404	 0.112103
H	 0.5544595264	-1.3145615906	-1.5510671206	 0.090089
H	 1.1830213545	 0.3149480551	-1.8815844261	 0.087259
H	 2.5570114864	-1.6504697408	-0.1186226377	 0.095022
H	 2.7764462306	 0.0969780891	 0.0384759501	 0.103333
H	 1.1947991496	-0.029684933	 1.977153847	 0.09316
H	 0.569943076	-1.5765906757	 1.3754150749	 0.092534
H	-1.4523802752	-1.514297978	 0.2383526199	 0.076149
H	-3.4606094171	-0.1933368944	 0.9303654036	 0.108368
H	-2.5703308387	 1.3663351697	 0.6130310213	 0.125173
H	-3.0543868781	-0.8557446309	-1.4745517588	 0.082033
H	-1.5560993176	 0.6779918035	-2.5992780385	 0.289331
46.1889	131.842	156.5813	240.8271	272.1388	298.1266	331.2742	351.523	367.5276	386.6219	444.3655	553.9003	662.5244	702.6011	787.9975	802.5906	840.5595	864.1831	883.0324	919.9875	923.1751	945.6881	987.115	993.7445	1013.385	1050.5789	1065.8565	1091.0154	1137.9623	1162.1933	1174.0524	1182.4542	1208.7581	1214.6145	1244.3112	1256.6673	1274.0831	1286.7072	1298.332	1327.0962	1390.3632	1413.6914	1421.051	1476.1496	1483.8765	1485.2252	1499.3244	1508.068	1515.9388	3032.9151	3038.027	3047.3685	3063.652	3085.2759	3090.2202	3092.9131	3095.0921	3114.563	3119.1174	3127.6482	3140.5922	3229.1662	3806.042
CC1(CCC1)C1CC1O	CC1(CCC1)[C@H]1C[C@H]1O	
InChI=1S/C8H14O/c1-8(3-2-4-8)6-5-7(6)9/h6-7,9H,2-5H2,1H3	InChI=1S/C8H14O/c1-8(3-2-4-8)6-5-7(6)9/h6-7,9H,2-5H2,1H3/t6-,7+/m0/s1
