20
gdb 108877	5.12738	0.82661	0.75688	3.36	89.68	-0.2255	-0.0189	0.2066	1575.8741	0.170353	-403.179738	-403.170089	-403.169145	-403.215503	34.086	
C	 0.0880935532	 1.5322267068	-0.1314326877	-0.378009
C	-0.010451117	 0.0066217178	 0.0569757669	-0.29537
C	 0.6744423136	-0.4878056903	 1.2918777148	 0.312215
C	 0.1534915908	-1.0721174117	 2.3752923884	-0.320969
C	 1.2176080385	-1.3934051171	 3.3281633462	 0.460568
O	 2.4154558381	-0.9732009011	 2.7767221559	-0.263278
C	 2.1672292404	-0.3951625475	 1.4973892206	-0.173211
N	 1.0854717265	-1.9545684545	 4.4521261168	-0.339821
C	 2.2566727428	-2.205188484	 5.2730428617	-0.333305
H	 1.1277161077	 1.8610336307	-0.2248693941	 0.122484
H	-0.44001291	 1.8400621734	-1.0383900258	 0.122527
H	-0.3561057712	 2.0599545136	 0.7177755987	 0.129577
H	-1.063113426	-0.2924236163	 0.0883994357	 0.116318
H	 0.428745501	-0.4872363968	-0.8210233375	 0.112924
H	-0.8827796811	-1.306420775	 2.5715057218	 0.119434
H	 2.7285260904	-0.949948224	 0.7314361489	 0.120878
H	 2.5374499954	 0.639084642	 1.4939621855	 0.123523
H	 2.2615762328	-3.2588537489	 5.5755174989	 0.120726
H	 3.2114533675	-1.97315314	 4.7878834888	 0.120953
H	 2.1841586166	-1.616034977	 6.1958973354	 0.121838
42.5537	49.3837	95.3207	171.9483	188.8606	233.3372	246.8466	325.4691	341.8733	463.2609	542.9399	614.1333	697.7141	708.8346	788.14	878.0602	899.2264	901.5764	963.584	1013.656	1035.0018	1048.1642	1083.2956	1099.8073	1129.8156	1140.0736	1191.3961	1204.5589	1216.2532	1274.5234	1347.8764	1355.6463	1381.6271	1409.9647	1437.7546	1481.2851	1493.8125	1496.4644	1499.1755	1501.21	1508.2165	1699.6786	1780.2212	2999.9185	3011.572	3014.2928	3029.1681	3041.3541	3065.4731	3072.639	3084.4435	3112.7431	3117.0312	3245.2852
CCC1=CC(OC1)=NC	CCC1=CC(=NC)OC1	
InChI=1S/C7H11NO/c1-3-6-4-7(8-2)9-5-6/h4H,3,5H2,1-2H3	InChI=1S/C7H11NO/c1-3-6-4-7(8-2)9-5-6/h4H,3,5H2,1-2H3
