18
gdb 17311	2.589	2.43939	1.66086	1.1588	70.86	-0.2052	0.0796	0.2848	856.0262	0.153017	-347.718005	-347.710363	-347.709418	-347.749429	30.19	
C	-0.2204745658	 1.592717448	-0.0573055669	-0.438377
C	 0.0953459507	 0.1023735168	 0.0723221474	-0.077163
C	 1.3462305827	-0.6893207487	-0.297712703	-0.149719
C	 2.7087732565	-0.1300193727	 0.2003646539	-0.04517
C	 2.6503784047	 1.1546539632	 0.9843554124	-0.307503
C	 2.1939926182	-0.1245223617	 1.6308969495	-0.124873
C	 0.8306792637	-0.6903301327	 1.1233071537	 0.355888
O	 0.2487367632	-1.7596332662	 1.7864185284	-0.454328
H	 0.4499974985	 2.1003362225	-0.7560488544	 0.131907
H	-1.2377630358	 1.7200744062	-0.4404247121	 0.110762
H	-0.1715102261	 2.1169236927	 0.9018560287	 0.124649
H	-0.7536456036	-0.5138934144	-0.2239220257	 0.096038
H	 1.297783072	-1.4845920848	-1.0309860197	 0.092812
H	 3.6472089703	-0.5314181463	-0.1597018519	 0.089214
H	 3.6232768292	 1.4914279643	 1.3345874007	 0.110112
H	 1.9814332112	 1.9663856512	 0.7410864465	 0.112934
H	 2.6694595287	-0.5450794095	 2.507688769	 0.09082
H	-0.3238229082	-1.407540698	 2.4779676537	 0.282
104.7573	214.9859	234.6088	263.1845	297.9692	346.1776	396.6133	497.034	568.4305	654.376	686.2326	727.1677	762.0346	839.3914	866.0778	910.9541	934.4518	961.3704	976.3165	1021.9089	1056.8948	1062.7986	1079.7019	1090.811	1103.2813	1124.6236	1176.2725	1210.2782	1228.7896	1293.4669	1307.6858	1330.7957	1356.0591	1413.3772	1477.4802	1491.1078	1503.2806	1511.5682	3036.564	3091.7031	3107.8319	3114.5484	3132.5863	3184.364	3192.2141	3199.9627	3249.5014	3775.1588
CC1C2C3CC3C12O	C[C@H]1[C@H]2[C@H]3C[C@H]3[C@@]12O	
InChI=1S/C7H10O/c1-3-6-4-2-5(4)7(3,6)8/h3-6,8H,2H2,1H3	InChI=1S/C7H10O/c1-3-6-4-2-5(4)7(3,6)8/h3-6,8H,2H2,1H3/t3-,4-,5+,6-,7-/m0/s1
