20
gdb 55018	3.00329	1.16181	1.03462	2.2649	80.79	-0.2217	-0.0086	0.2132	1259.8758	0.169259	-403.119162	-403.109811	-403.108867	-403.154251	34.231	
C	-0.0235517304	 1.3177240144	 0.3829999343	-0.482857
C	 0.1195881435	-0.1820952768	 0.2032370915	 0.403117
O	 0.2744221128	-0.9269128083	 1.1485746053	-0.324769
C	 0.0412575322	-0.6750782841	-1.2060673184	-0.15563
C	 0.4872606687	-2.101065639	-1.4966385532	-0.321985
C	-0.9714525416	-1.7656914697	-1.5601877832	 0.056248
N	-1.9959220897	-2.1753727455	-0.6392543874	-0.084652
C	-2.4991397623	-3.5445641787	-0.7885602421	-0.228544
C	-1.7106687462	-3.1497187355	 0.4071955755	-0.199224
H	 0.7715313083	 1.8438455576	-0.1580436442	 0.135898
H	-0.9757405175	 1.6568241471	-0.0407116721	 0.1447
H	 0.0220610732	 1.5718994113	 1.4423902307	 0.139023
H	 0.1923348196	 0.0805666005	-1.9699532674	 0.086356
H	 1.023613568	-2.2909454645	-2.4197876728	 0.113867
H	 0.8586465329	-2.6278070694	-0.6251378871	 0.141903
H	-1.3858347127	-1.6522325501	-2.558593759	 0.103334
H	-3.5789215133	-3.6529213028	-0.7396385805	 0.115423
H	-2.0043792811	-4.1903205584	-1.5118519242	 0.110128
H	-0.703887086	-3.5442195385	 0.4943709853	 0.124937
H	-2.1999275984	-2.9552334497	 1.3562726991	 0.122728
46.2885	60.5115	122.3559	138.4359	204.1312	259.6431	299.805	362.4132	452.2011	502.2616	593.9436	638.0723	709.2442	753.8067	804.8329	831.8023	878.2887	896.9977	923.717	952.6797	1021.8165	1035.2941	1051.8154	1068.8425	1099.015	1104.4683	1125.3391	1133.3161	1156.8659	1175.3645	1186.3288	1188.6358	1216.7642	1342.8952	1374.0581	1400.057	1405.6006	1463.2099	1468.2083	1476.0247	1489.3527	1516.8625	1791.6015	3033.7011	3094.3402	3097.5467	3128.2383	3136.2143	3140.2647	3152.7803	3161.6642	3183.6596	3213.8651	3230.6692
CC(=O)C1CC1N1CC1	CC(=O)[C@H]1C[C@H]1N1CC1	
InChI=1S/C7H11NO/c1-5(9)6-4-7(6)8-2-3-8/h6-7H,2-4H2,1H3	InChI=1S/C7H11NO/c1-5(9)6-4-7(6)8-2-3-8/h6-7H,2-4H2,1H3/t6-,7-/m1/s1
