15
gdb 67399	2.81654	1.61508	1.4329	3.9351	64.61	-0.2368	-0.0161	0.2207	934.7738	0.11246	-457.737301	-457.730349	-457.729405	-457.768529	27.766	
O	-0.1151216103	 1.4127234918	 0.0633117668	-0.445288
C	 0.0055141983	 0.0489369924	 0.0124439486	 0.291054
C	-0.0850530605	-1.0091868593	-1.0228123746	 0.009616
O	 1.0525832986	-1.7282843763	-0.5771626014	-0.295445
C	 1.1089783911	-0.8840940446	 0.6224763132	 0.001783
C	 0.4624636417	-1.6513973356	 1.7629797561	-0.335066
C	-0.9981389561	-1.8043056027	 1.2892890394	 0.431536
O	-1.8430188096	-2.491828251	 1.8013122759	-0.324965
C	-1.1638644977	-0.9018171181	 0.1035785145	-0.247844
H	 0.5940716753	 1.8060527726	-0.4588081677	 0.29734
H	-0.3592348336	-1.0498907891	-2.0694819236	 0.129385
H	 2.1090283037	-0.482043703	 0.7882538853	 0.094013
H	 0.9211592407	-2.6244932599	 1.9512423292	 0.141457
H	 0.4795382885	-1.0715144085	 2.6941598507	 0.135053
H	-2.1481188401	-0.5900760788	-0.2226067626	 0.117371
115.725	221.7226	314.5556	335.7577	399.0074	421.5212	470.9491	577.2968	596.3204	653.0277	694.5156	722.1312	823.6698	859.4828	898.112	911.8706	944.797	980.5851	998.8752	1030.705	1072.886	1126.6599	1142.6272	1165.7655	1210.2989	1222.2563	1264.9531	1289.5154	1322.1999	1327.8122	1434.4223	1490.2218	1843.4229	3046.4807	3113.6365	3120.5493	3199.7474	3211.7282	3788.2834
OC12C3OC1CC(=O)C23	O[C@@]12[C@H]3O[C@@H]1CC(=O)[C@@H]23	
InChI=1S/C6H6O3/c7-2-1-3-6(8)4(2)5(6)9-3/h3-5,8H,1H2	InChI=1S/C6H6O3/c7-2-1-3-6(8)4(2)5(6)9-3/h3-5,8H,1H2/t3-,4-,5+,6+/m1/s1
