21
gdb 113539	2.32288	1.1801	1.12683	2.921	79.07	-0.2351	0.0666	0.3017	1255.254	0.181042	-424.187147	-424.17754	-424.176596	-424.22183	35.463	
C	-0.4158397667	 1.2185060045	-0.076094851	-0.403571
C	 0.0587309373	-0.2168486939	 0.0392700595	 0.091503
O	 1.2658957345	-0.4557243794	-0.7342195119	-0.301894
C	 1.9893209615	-0.9299655139	 0.4206989686	-0.14299
C	 0.7854243773	-0.6627767019	 1.3137338884	 0.291193
C	 0.7485293377	-0.0660857315	 2.6878691587	-0.37614
C	 0.2641580076	-1.4818015539	 2.4528474212	-0.061696
C	-1.206964307	-1.7907874936	 2.5327580128	-0.099908
O	-1.4837325319	-2.8613308393	 1.6375739238	-0.416724
H	 0.355838966	 1.9144918677	 0.2657465981	 0.11906
H	-0.6543432196	 1.4501161288	-1.1190500581	 0.12638
H	-1.3215796922	 1.3782292976	 0.5200425585	 0.109511
H	-0.7341423091	-0.9140594008	-0.2638176242	 0.088359
H	 2.2788588487	-1.9848305458	 0.3210722883	 0.101637
H	 2.8868977383	-0.3288142024	 0.6190168263	 0.096997
H	 1.68772968	 0.0743809563	 3.2137845234	 0.114123
H	 0.005441081	 0.6984081259	 2.8966816979	 0.113196
H	 0.9080492569	-2.2858120387	 2.8014313214	 0.090803
H	-1.4794091094	-2.0576314624	 3.5660856832	 0.090852
H	-1.786210739	-0.8913871117	 2.2664016412	 0.082369
H	-2.4046478319	-3.1162363816	 1.7493249841	 0.28694
73.3501	81.6545	143.1434	162.1437	214.1913	231.4715	274.4116	342.2609	376.1689	400.457	472.7257	510.1189	591.0028	775.2404	808.453	870.1313	879.8903	900.664	979.0151	994.2077	1021.3412	1035.4596	1050.045	1072.9419	1079.5611	1092.6042	1120.3059	1141.8444	1156.316	1167.9389	1221.3157	1251.8627	1277.466	1287.766	1313.3731	1364.0499	1382.0457	1402.3919	1425.1849	1467.2951	1483.4066	1490.1869	1505.9839	1519.2672	1524.5168	2962.9206	2991.9708	2996.6002	3013.7535	3031.707	3036.8661	3100.877	3115.8719	3118.6119	3137.7548	3201.8283	3824.1534
CC1OCC11CC1CO	C[C@H]1OC[C@]21C[C@H]2CO	
InChI=1S/C7H12O2/c1-5-7(4-9-5)2-6(7)3-8/h5-6,8H,2-4H2,1H3	InChI=1S/C7H12O2/c1-5-7(4-9-5)2-6(7)3-8/h5-6,8H,2-4H2,1H3/t5-,6+,7+/m1/s1
