18
gdb 78868	2.76555	1.81759	1.36463	0.1547	74.84	-0.2507	0.0681	0.3188	979.0284	0.148256	-401.865867	-401.858551	-401.857606	-401.897338	29.205	
C	 0.0728590228	 1.6304294536	 0.1701544485	-0.430834
C	 0.1475847546	 0.1123099963	 0.0819543388	 0.023853
C	 1.1951204628	-0.6009725461	-0.7667119284	-0.0602
C	 2.4431616746	-0.8015181454	 0.0348802174	-0.166644
N	 1.28115342	-1.7675620058	 0.1706117559	-0.165364
C	 0.7442574928	-0.7402664556	 1.2298926725	-0.147254
C	 2.1803758188	-0.2733716854	 1.4099581167	 0.51956
C	 3.0293749886	-0.3284242363	 2.5931303146	-0.281946
O	 2.6364503932	 0.9276287889	 2.0002981196	-0.285972
H	 1.0390070339	 2.0699583324	 0.4269446522	 0.146331
H	-0.2552859731	 2.0530854936	-0.7856788961	 0.115153
H	-0.6504951366	 1.9397207315	 0.9323145901	 0.117919
H	-0.8303467574	-0.3084605564	-0.1772534272	 0.086441
H	 1.1923319223	-0.7515621516	-1.8411955436	 0.096959
H	 3.3847320629	-1.1061091463	-0.4060121269	 0.103061
H	 0.143259977	-1.0850085822	 2.0690177555	 0.086681
H	 2.5929281378	-0.5383723215	 3.568620208	 0.120825
H	 4.085415875	-0.5752345938	 2.4935894825	 0.121431
147.0527	186.2627	211.1073	281.4292	316.0888	362.6368	496.2764	574.7502	630.2189	709.0218	763.7494	786.344	806.3153	865.3273	910.588	915.4676	923.8028	954.9607	993.6869	1029.1413	1035.281	1073.4675	1106.54	1116.0634	1125.573	1148.5726	1165.2796	1184.6663	1195.6618	1216.0809	1281.497	1306.6584	1357.7642	1387.8876	1418.7036	1468.7568	1497.6607	1500.5567	1551.0563	3036.4901	3049.1026	3083.4983	3095.8795	3133.05	3141.2527	3170.6503	3170.8515	3194.0649
CC1C2C3N2C1C31CO1	C[C@H]1[C@H]2[C@@H]3N2[C@H]1[C@]13CO1	
InChI=1S/C7H9NO/c1-3-4-6-7(2-9-7)5(3)8(4)6/h3-6H,2H2,1H3	InChI=1S/C7H9NO/c1-3-4-6-7(2-9-7)5(3)8(4)6/h3-6H,2H2,1H3/t3-,4-,5+,6-,7-,8?/m0/s1
