18
gdb 66458	2.96217	1.73599	1.52152	0.2703	74.22	-0.2392	0.0668	0.3061	958.517	0.14727	-401.867671	-401.860167	-401.859222	-401.89918	29.847	
C	-0.0841750788	 1.4166731682	-0.0234003379	-0.523444
C	 0.0569839033	-0.0671616926	 0.0809577515	 0.351661
C	 0.9948699307	-0.9355911601	-0.683753262	-0.118506
C	 1.052269669	-2.148020865	 0.2720153881	 0.007254
O	 1.0706168413	-1.6377571585	 1.6251827483	-0.294821
C	-0.1884359486	-1.0120221002	 1.2891751189	-0.050728
C	-0.5034234938	-2.0705534132	 0.1927105989	 0.354778
C	-1.5015034345	-3.1795328027	 0.2133827324	-0.534781
N	-0.4856068525	-1.0286306519	-0.9424501828	-0.248134
H	 0.6401981948	 1.9214337408	 0.625327103	 0.12954
H	 0.0873792109	 1.7469998505	-1.0521552592	 0.134094
H	-1.0885263982	 1.7409768237	 0.2691047302	 0.125975
H	 1.6935307262	-0.5895751327	-1.4351847198	 0.097329
H	 1.7032397033	-3.0023299012	 0.0959223091	 0.087296
H	-0.7936931107	-0.7120951302	 2.1434784985	 0.083672
H	-2.5215868517	-2.7819127821	 0.2371080859	 0.13235
H	-1.4052126746	-3.8040355236	-0.6809037832	 0.133177
H	-1.3535093361	-3.810280909	 1.09621671	 0.133289
177.4769	185.3901	213.8306	234.7914	270.6599	317.9412	537.1737	565.955	592.55	668.1862	757.2794	767.2854	822.5423	831.2706	847.605	868.6621	893.6406	926.7574	938.6899	985.0218	1008.723	1062.2358	1094.515	1118.9199	1140.9895	1151.8003	1156.366	1204.2263	1235.777	1265.2465	1292.3428	1360.302	1401.245	1413.0367	1444.2628	1478.3312	1483.0382	1488.9925	1492.5217	3031.3641	3031.9489	3095.3282	3101.7967	3107.0408	3110.7028	3134.0899	3141.3087	3194.7237
CC12C3C4OC1C4(C)N23	C[C@@]12[C@H]3[C@H]4O[C@@H]1[C@@]4(C)N23	
InChI=1S/C7H9NO/c1-6-3-4-7(2,8(3)6)5(6)9-4/h3-5H,1-2H3	InChI=1S/C7H9NO/c1-6-3-4-7(2,8(3)6)5(6)9-4/h3-5H,1-2H3/t3-,4-,5+,6-,7+,8?/m1/s1
