19
gdb 109219	3.93185	1.02541	0.9148	1.4476	77.61	-0.2183	0.0289	0.2472	1302.3003	0.15841	-423.012561	-423.00371	-423.002766	-423.045945	33.832	
O	 0.0259953632	 1.3886214246	-0.0201018299	-0.413925
C	-0.0154611376	-0.0260164327	 0.0196473226	-0.183788
C	-1.4346181172	-0.4919877055	 0.0387426241	 0.32659
C	-2.5362280408	 0.2644856691	-0.00658421	-0.174236
C	-3.8001142427	-0.5645794972	 0.0568717146	-0.340977
C	-3.28611644	-2.0075853435	 0.050166512	 0.403654
O	-3.943165487	-2.9501230722	 0.8439055171	-0.470189
C	-2.510125705	-2.4812347094	-1.1503303004	-0.34158
C	-1.7773672485	-1.9466390687	 0.0788800982	-0.196984
H	 0.9478836843	 1.6602044161	-0.0258864666	 0.28917
H	 0.4999480735	-0.4695007039	-0.8511955588	 0.096998
H	 0.5034902025	-0.4188438773	 0.9127270072	 0.094904
H	-2.5356058111	 1.3437477879	-0.0834412976	 0.107324
H	-4.3623776647	-0.3811420042	 0.9826996222	 0.113269
H	-4.4843032132	-0.3556846311	-0.7759016605	 0.100829
H	-4.7127879508	-3.2634417516	 0.3565152256	 0.280917
H	-2.4827834886	-3.5567809667	-1.2933953298	 0.108464
H	-2.4969050812	-1.8861529222	-2.0583906206	 0.109255
H	-1.1961508651	-2.6449241217	 0.6719155905	 0.090307
74.6419	150.4518	182.6397	229.4056	248.3763	274.7068	321.7741	360.2869	408.1385	461.3387	566.8691	586.5382	664.463	744.7964	817.0285	834.0413	892.3187	918.8584	957.184	983.2772	1000.3758	1014.364	1038.7887	1056.6454	1078.4125	1089.3397	1150.7361	1170.2634	1210.7182	1242.7429	1247.7927	1253.1756	1293.603	1319.434	1356.9418	1401.0939	1462.569	1469.4468	1483.9481	1507.2666	1708.2534	2937.4772	2949.3711	3012.7825	3042.8381	3117.7758	3168.1679	3213.0518	3224.5317	3795.4967	3839.2413
OCC1=CCC2(O)CC12	OCC1=CC[C@@]2(O)C[C@@H]12	
InChI=1S/C7H10O2/c8-4-5-1-2-7(9)3-6(5)7/h1,6,8-9H,2-4H2	InChI=1S/C7H10O2/c8-4-5-1-2-7(9)3-6(5)7/h1,6,8-9H,2-4H2/t6-,7+/m0/s1
