20
gdb 78507	2.51966	1.57657	1.30446	0.5807	79.58	-0.2011	0.0746	0.2757	1083.8469	0.169874	-403.074568	-403.065868	-403.064924	-403.107186	34.091	
C	-0.0834715841	 1.5330002396	 0.0652244201	-0.326498
N	 0.0862244196	 0.087082246	 0.0301304496	-0.07242
C	 0.7694274829	-0.5212273429	-1.1030949509	-0.174345
C	 2.3270424163	-0.5746928873	-0.8192290776	 0.270908
C	 3.3363691427	-0.7254540081	-1.916469034	-0.507832
C	 2.4930988524	 0.0700665544	 0.55601635	-0.296931
C	 1.106127965	-0.5503394629	 0.9096792727	-0.111026
C	 1.3720737885	-1.6006164585	-0.2650165592	 0.333484
O	 1.4068904098	-2.9656612199	-0.3403229287	-0.459157
H	 0.8272525724	 2.1130812802	-0.1512102291	 0.100498
H	-0.8420074166	 1.8170096425	-0.6723457332	 0.117486
H	-0.45319784	 1.826837575	 1.0534863853	 0.116971
H	 0.3718495419	-0.5423684095	-2.1113824628	 0.090418
H	 3.6202564284	 0.2476018724	-2.3336013158	 0.118058
H	 4.2495690985	-1.2141490435	-1.5575464916	 0.121794
H	 2.939882275	-1.3359135992	-2.7349569763	 0.121568
H	 3.286314945	-0.4259454203	 1.1230950169	 0.102924
H	 2.6124002905	 1.1557255093	 0.637533519	 0.087972
H	 0.8149225538	-0.7423990567	 1.9418996232	 0.072594
H	 0.500644728	-3.2954599006	-0.3216852777	 0.293535
157.8816	178.3805	183.3464	199.0261	249.9913	280.0141	329.1254	376.9618	394.8174	496.9606	573.1635	600.6769	658.8329	697.6367	720.3609	832.3837	894.582	915.1133	927.65	962.1174	985.533	993.8847	1064.6961	1097.1007	1107.9864	1143.2734	1148.8331	1163.3304	1191.174	1225.8141	1231.0648	1247.0637	1291.2553	1306.1263	1354.6266	1416.0455	1443.8302	1473.885	1484.5722	1488.073	1495.0811	1510.4585	1526.2342	2977.7224	3021.2218	3042.7124	3059.7653	3079.8867	3091.7784	3095.4764	3096.3105	3119.6831	3181.9272	3780.6353
CN1C2C3(C)CC1C23O	CN1[C@H]2[C@@]3(C)C[C@@H]1[C@@]23O	
InChI=1S/C7H11NO/c1-6-3-4-7(6,9)5(6)8(4)2/h4-5,9H,3H2,1-2H3	InChI=1S/C7H11NO/c1-6-3-4-7(6,9)5(6)8(4)2/h4-5,9H,3H2,1-2H3/t4-,5+,6-,7-/m1/s1
