19
gdb 32762	2.96254	1.07882	0.84139	1.1884	80.69	-0.2168	0.0159	0.2327	1406.8482	0.158213	-423.047137	-423.037732	-423.036788	-423.082439	33.205	
C	 0.1518564008	 1.3959072319	 0.21598181	-0.220721
O	 0.0119281578	-0.0024032328	 0.1404321913	-0.232352
C	 0.5859465133	-0.5375631147	-1.042679167	-0.186178
C	 0.4717569433	-2.0162914178	-1.0453543758	 0.271382
C	-0.4170300026	-2.8894695095	-1.6038266265	 0.171343
C	-1.6172060659	-2.5693622627	-2.4399011583	-0.506811
C	 0.0285510791	-4.1996316005	-1.2152092102	-0.262957
C	 1.1395625689	-4.0176567802	-0.4575854021	-0.013829
O	 1.4280989773	-2.6995908441	-0.3433601002	-0.176616
H	 1.2101171175	 1.7036529092	 0.2156549809	 0.103225
H	-0.3504282747	 1.9063690878	-0.6222669541	 0.099532
H	-0.3094520195	 1.719681286	 1.151982615	 0.128059
H	 0.079579851	-0.1282806886	-1.9315061993	 0.096489
H	 1.6477793296	-0.2492178972	-1.1096436941	 0.100929
H	-1.5761507255	-3.078689327	-3.4093468025	 0.128276
H	-2.5417275444	-2.8907304729	-1.9468031492	 0.134271
H	-1.7031537829	-1.4962947039	-2.6287235461	 0.126779
H	-0.4272010796	-5.1433753458	-1.4734567535	 0.107125
H	 1.8131428062	-4.6911256972	 0.0468955815	 0.132054
44.0234	88.7353	104.6909	119.9687	226.368	248.6978	267.1617	339.0276	363.334	424.6033	624.2715	639.4849	680.4524	757.4595	801.1809	824.2622	911.8569	957.9614	974.2204	988.2001	1062.3082	1075.8987	1135.9246	1147.6136	1185.1078	1194.379	1218.7143	1238.5307	1276.6958	1292.9724	1399.4465	1420.4355	1446.0765	1478.3667	1482.1111	1485.0127	1491.6809	1500.6125	1516.6441	1542.7554	1669.354	2958.7464	2971.0667	2997.3106	3005.3614	3030.6894	3080.1993	3115.1641	3115.491	3247.3641	3279.4065
COCC1=C(C)C=CO1	COCc1c(C)cco1	
InChI=1S/C7H10O2/c1-6-3-4-9-7(6)5-8-2/h3-4H,5H2,1-2H3	InChI=1S/C7H10O2/c1-6-3-4-9-7(6)5-8-2/h3-4H,5H2,1-2H3
