15
gdb 24186	3.27273	2.35008	1.55116	3.0736	75.	-0.2123	-0.036	0.1763	812.8312	0.116311	-379.616733	-379.610938	-379.609994	-379.646575	24.1	
C	-0.1064876383	 1.5115468216	-0.1475457907	-0.175218
C	 1.4537009247	 1.7525613003	 0.035875837	-0.142789
C	 2.0527424483	 2.2611602194	 1.3270278848	-0.101781
C	 2.0929552379	 1.2776635278	 2.2670759975	-0.147509
C	 1.4527491683	 0.0913848464	 1.70061562	 0.15828
C	 1.3317881977	 0.2937801524	 0.3522159774	 0.074507
N	 0.0003728165	-0.0439123824	-0.0283524369	-0.1433
C	-0.4531487488	-0.6988673616	 1.1396373514	-0.006926
N	 0.3807669929	-0.6916281003	 2.1485103612	-0.257186
H	-0.6959888417	 1.9101025236	 0.6737708089	 0.154247
H	-0.4994916979	 1.7919006352	-1.1228277395	 0.142955
H	 1.9378910552	 2.1130584487	-0.8716374709	 0.100306
H	 2.5190976096	 3.2359734545	 1.4209738164	 0.102305
H	 2.4760221149	 1.3828249094	 3.2743303654	 0.113987
H	-1.3933849293	-1.2367816849	 1.145051908	 0.128123
199.5643	326.3037	330.492	479.4623	535.7702	641.9934	699.8767	718.44	731.7386	737.8884	818.6523	840.5523	858.2025	888.4286	939.7973	950.1322	988.3282	1007.24	1071.6409	1078.4591	1124.7391	1132.1085	1175.6952	1210.1457	1246.1755	1283.9382	1295.714	1322.9976	1384.8196	1449.2682	1476.4003	1500.6637	1569.2237	3104.0398	3113.5088	3188.4306	3195.5955	3218.6612	3219.4648
C1C2C=CC3=C2N1C=N3	C1[C@H]2C=C[C]3[C]2N1[CH][N]3	
InChI=1S/C7H6N2/c1-2-6-7-5(1)3-9(7)4-8-6/h1-2,4-5H,3H2	InChI=1S/C7H6N2/c1-2-6-7-5(1)3-9(7)4-8-6/h1-2,4-5H,3H2/t5-/m1/s1
