13
gdb 46338	4.37232	0.75193	0.67727	5.0455	78.62	-0.289	-0.0544	0.2346	1547.6954	0.0895	-415.584519	-415.576506	-415.575561	-415.618223	28.097	
N	 0.0214803189	 1.227131052	-0.2552093044	-0.52429
C	 0.0225561061	 0.0049101481	-0.0084705064	 0.451893
O	 1.0299602188	-0.8692743952	 0.3306250787	-0.240609
C	 0.1042717677	-1.985533194	 0.4705431076	-0.089278
C	-1.0723227992	-1.0718452332	 0.0204667607	-0.346693
C	-2.1777376532	-0.8830447298	 0.9268355525	 0.163086
C	-3.0978870562	-0.735785997	 1.6950477441	 0.014216
C	-4.1374161197	-0.5725681862	 2.5647321228	 0.216055
N	-5.021933451	-0.4395320499	 3.305793328	-0.330817
H	 0.9534947012	 1.6374985365	-0.1840469135	 0.243495
H	 0.3580617225	-2.8014517621	-0.2081583311	 0.139429
H	 0.05476311	-2.3321630912	 1.5038724151	 0.145398
H	-1.4334947959	-1.3038466081	-0.9860730342	 0.158114
71.6783	76.3233	147.236	193.5821	251.0247	383.3429	443.1915	478.0294	565.2221	574.0946	599.797	712.0243	775.1039	863.3179	920.9992	931.254	980.0857	1003.4735	1057.0143	1158.0799	1181.4212	1198.7125	1213.208	1331.6503	1361.5918	1514.126	1837.1706	2269.8191	2402.8424	3072.5008	3079.981	3147.3529	3490.6883
N=C1OCC1C#CC#N	[NH][C]1OC[C@H]1C#CC#N	
InChI=1S/C6H4N2O/c7-3-1-2-5-4-9-6(5)8/h5,8H,4H2	InChI=1S/C6H4N2O/c7-3-1-2-5-4-9-6(5)8/h5,8H,4H2/t5-/m1/s1
