16
gdb 28890	2.38868	1.81955	1.03954	2.4696	74.98	-0.2243	-0.0019	0.2224	1092.8817	0.124752	-437.956982	-437.948682	-437.947737	-437.989602	31.3	
C	 0.0313255756	 1.4894726227	-0.0245542379	-0.52245
C	 0.025695871	-0.019005314	-0.0114574454	 0.238193
C	 0.112396154	-0.7367391779	-1.2027223772	 0.170784
O	 0.2075706147	-0.17116784	-2.4511058977	-0.468898
C	 0.1058197769	-2.1358142473	-1.1740785447	 0.351062
O	 0.1888111407	-2.8530619116	-2.3169892367	-0.435607
C	 0.0116914703	-2.7645119634	 0.0609712909	-0.224665
C	-0.070673087	-1.9659633994	 1.1965152398	-0.011739
N	-0.0650610644	-0.6319056706	 1.1774831377	-0.337387
H	 0.9553559117	 1.8945255652	-0.4585251063	 0.127138
H	-0.8122406914	 1.9001329401	-0.5955483284	 0.126886
H	-0.0470861921	 1.8509201499	 1.0012399026	 0.155934
H	 0.2037637409	 0.7874556456	-2.3757124135	 0.305704
H	 0.2459174727	-2.2282222536	-3.0519459079	 0.312298
H	 0.0040087215	-3.8462380487	 0.1193762123	 0.10797
H	-0.1451797151	-2.4292065969	 2.1769985524	 0.104777
121.8969	140.9012	185.7395	250.4815	289.9923	309.0415	312.6769	481.0409	493.624	531.7025	547.2337	563.8991	610.1095	706.9538	774.3374	852.8385	856.9115	944.8453	963.2797	1025.2526	1055.2969	1103.4789	1204.0005	1224.8712	1281.0309	1316.5459	1340.1482	1399.6609	1400.4594	1476.8031	1483.4321	1489.7766	1531.4896	1637.2284	1653.5995	3008.7797	3056.0235	3145.6938	3158.9851	3208.283	3776.3667	3845.0598
CC1=C(O)C(O)=CC=N1	Cc1c(O)c(O)ccn1	
InChI=1S/C6H7NO2/c1-4-6(9)5(8)2-3-7-4/h2-3,9H,1H3,(H,7,8)	InChI=1S/C6H7NO2/c1-4-6(9)5(8)2-3-7-4/h2-3,9H,1H3,(H,7,8)
