17
gdb 85030	2.49506	1.5946	1.01047	2.0615	71.46	-0.2617	-0.0133	0.2484	1133.8969	0.136635	-455.203692	-455.195052	-455.194108	-455.237238	31.718	
C	-0.0173610557	 1.4652276899	 0.0850094437	-0.371138
N	-0.0128980508	 0.0171495963	 0.0410823503	-0.124995
C	-1.1491379778	-0.7659964332	-0.0917415974	 0.350461
N	-2.356803012	-0.440933175	-0.3069263397	-0.564107
C	-0.7326755668	-2.2264044194	 0.0497128512	 0.081923
O	-1.3950551369	-3.0506897609	-0.8741529717	-0.434669
C	 0.7854193409	-2.1918704203	-0.1565466155	-0.362857
C	 1.1706951138	-0.7310602096	 0.0416428662	 0.40011
O	 2.2731291512	-0.2566740899	 0.1558167897	-0.356232
H	 1.0112256111	 1.7892657526	 0.2464693274	 0.175773
H	-0.3850648448	 1.8857375228	-0.8574968776	 0.141878
H	-0.6496646628	 1.8224393216	 0.9037238556	 0.143106
H	-2.496155397	 0.5643929919	-0.4020101599	 0.223273
H	-0.9616438505	-2.5326538399	 1.0839694556	 0.099804
H	-2.2728605997	-2.6598143137	-0.9911046493	 0.298788
H	 1.3574709003	-2.8348545524	 0.5130127007	 0.141981
H	 1.0208984275	-2.4776637107	-1.1871199693	 0.156901
70.0986	123.741	144.4288	194.7402	272.8603	293.153	361.3032	418.7691	422.7734	536.4228	555.0345	613.5981	617.6286	708.1988	777.3667	859.1516	884.2006	976.8117	1022.7988	1037.2201	1117.3655	1129.2824	1156.0254	1183.1932	1228.3618	1256.7336	1288.424	1301.4435	1368.9028	1416.2889	1430.4509	1458.556	1461.281	1494.5142	1511.4514	1746.5237	1847.6354	2964.8635	3034.9646	3069.9621	3096.1216	3135.419	3156.2762	3489.6032	3742.0055
CN1C(=N)C(O)CC1=O	CN1[C]([NH])[C@@H](O)CC1=O	
InChI=1S/C5H8N2O2/c1-7-4(9)2-3(8)5(7)6/h3,6,8H,2H2,1H3	InChI=1S/C5H8N2O2/c1-7-4(9)2-3(8)5(7)6/h3,6,8H,2H2,1H3/t3-/m0/s1
