13
gdb 20623	3.33033	1.95627	1.24186	5.1307	63.9	-0.2701	-0.08	0.19	905.7458	0.094884	-398.60535	-398.598122	-398.597177	-398.637413	25.019	
C	-0.0136732926	 1.5357233528	 0.0627617545	-0.514978
C	 0.0124325095	 0.041647331	 0.0019246896	 0.084224
C	 0.001148256	-0.797942931	-1.0831930203	 0.260328
O	 0.036946365	-2.0858974385	-0.6753247718	-0.192731
N	 0.0727051868	-2.1207308575	 0.6984886696	-0.11195
C	 0.0582868552	-0.8700799495	 1.0936851056	-0.0211
C	-0.0416178895	-0.5249949242	-2.5229286291	 0.077835
O	-0.0458375913	-1.3695518107	-3.3853227952	-0.254118
H	 0.8883005546	 1.9237458313	 0.5481527398	 0.150452
H	-0.0768525497	 1.9839901149	-0.9306140493	 0.142567
H	-0.8718498923	 1.8884729594	 0.6444899016	 0.149919
H	 0.0807959237	-0.6520020722	 2.1524035899	 0.14213
H	-0.0703906954	 0.5583178741	-2.763709235	 0.087421
76.2766	132.1523	186.0252	225.4936	302.9123	308.1965	531.4014	632.5334	653.3892	673.8704	783.1716	907.4913	958.4561	980.8446	1007.2869	1014.8754	1063.9498	1155.4647	1207.1831	1272.6491	1403.195	1420.4813	1428.0278	1479.313	1481.4551	1501.8146	1644.4825	1797.48	2909.9954	3040.7726	3093.7694	3131.8233	3243.2284
CC1=C(ON=C1)C=O	Cc1c(onc1)C=O	
InChI=1S/C5H5NO2/c1-4-2-6-8-5(4)3-7/h2-3H,1H3	InChI=1S/C5H5NO2/c1-4-2-6-8-5(4)3-7/h2-3H,1H3
