18
gdb 10190	2.1406	1.59104	0.96479	3.2958	69.5	-0.2511	0.0187	0.2698	1217.3125	0.152823	-381.120203	-381.110651	-381.109707	-381.155028	33.008	
C	-0.0052975028	 1.4998393741	 0.0016532252	-0.387408
C	 0.154310324	-0.0080451424	 0.065675779	-0.051436
O	 0.535322395	-0.4692869333	-1.2280555387	-0.250554
C	 0.6872612003	-1.8662305588	-1.3325206428	 0.001954
C	 0.7837869827	-2.2077725753	-2.8231247274	-0.168974
N	-0.4822193517	-1.8608414458	-3.4592123417	-0.516412
C	 1.8869221651	-2.3346516033	-0.6011954811	 0.268376
N	 2.8226347251	-2.6951089292	-0.0268688998	-0.325602
H	 0.9357997954	 1.9735798763	-0.2905908522	 0.13431
H	-0.7728727875	 1.7772890056	-0.7264249472	 0.126823
H	-0.2997305964	 1.8882281867	 0.9808468177	 0.123806
H	 0.9212072107	-0.2883231257	 0.8022854329	 0.116646
H	-0.7884466932	-0.4918313139	 0.3655593657	 0.098725
H	-0.1906781713	-2.3823125646	-0.913602332	 0.121533
H	 1.6695291688	-1.6930707074	-3.2288101073	 0.109822
H	 0.9535168414	-3.284831194	-2.9210570474	 0.12433
H	-0.6091709668	-0.8549709685	-3.4069969076	 0.240131
H	-0.4539833788	-2.1059182907	-4.4432533254	 0.23393
68.0013	87.5337	119.6962	147.2052	179.4285	234.5824	264.5558	277.4394	351.5605	403.3786	466.1165	545.0189	613.5045	823.3132	832.4454	865.1601	924.0491	966.9475	1041.6331	1065.311	1112.1976	1121.5155	1157.5677	1187.9643	1218.7355	1275.4029	1302.4954	1342.6356	1358.3736	1404.0108	1429.5056	1438.8142	1483.7883	1498.1969	1499.7438	1526.7168	1648.3958	2353.4007	2975.6114	2982.5097	2996.5789	3022.8245	3047.3565	3079.495	3122.2203	3125.4856	3506.4472	3586.616
CCOC(CN)C#N	CCO[C@@H](CN)C#N	
InChI=1S/C5H10N2O/c1-2-8-5(3-6)4-7/h5H,2-3,6H2,1H3	InChI=1S/C5H10N2O/c1-2-8-5(3-6)4-7/h5H,2-3,6H2,1H3/t5-/m0/s1
