16
gdb 13644	5.40367	0.92797	0.84237	1.5768	89.61	-0.2276	-0.0109	0.2167	1350.5081	0.128596	-309.409234	-309.400719	-309.399774	-309.442354	31.304	
C	-0.1196935189	 1.5060221204	-0.1213486907	-0.409578
C	 0.0120839226	 0.0063073154	-0.0029340851	 0.017155
C	 1.3286716733	-0.6757736428	-0.215121189	-0.285047
C	 0.7284594378	-0.6341080937	 1.1888744404	-0.233952
C	 1.3304289421	 0.1643105877	 2.2071255181	 0.454665
C	 1.8319728717	 0.8276816462	 3.0896234128	-0.301133
C	 2.4002715813	 1.5757173823	 4.0722097642	 0.303465
C	 2.9049264435	 2.2398910401	 4.9464647467	-0.573508
H	 0.7711609368	 2.0134188052	 0.2588608765	 0.132946
H	-0.2575504291	 1.7993055918	-1.1675355444	 0.119605
H	-0.9791152165	 1.873947617	 0.4486312385	 0.125472
H	-0.8620791543	-0.5522222018	-0.3269563705	 0.09521
H	 1.3563720574	-1.639276623	-0.7114327138	 0.120774
H	 2.1982342783	-0.0510817158	-0.3868319081	 0.129191
H	 0.3007286363	-1.5673134846	 1.5449465686	 0.1173
H	 3.3491675178	 2.8230936257	 5.7140255159	 0.187435
76.5246	95.6685	182.5651	199.8709	246.5604	334.6703	367.5995	465.4175	498.4435	536.3452	544.5436	597.6108	605.6646	690.6164	758.4508	848.0587	872.7581	927.7718	977.6287	1064.0062	1068.9386	1096.8244	1140.8749	1188.1207	1198.5665	1245.7356	1379.1352	1401.9684	1424.8523	1482.4333	1492.1513	1501.0303	2178.6179	2350.0485	3036.0259	3098.1186	3113.6944	3137.2878	3138.4099	3148.6113	3228.3056	3506.4071
CC1CC1C#CC#C	C[C@H]1C[C@H]1C#CC#C	
InChI=1S/C8H8/c1-3-4-5-8-6-7(8)2/h1,7-8H,6H2,2H3	InChI=1S/C8H8/c1-3-4-5-8-6-7(8)2/h1,7-8H,6H2,2H3/t7-,8+/m0/s1
