20
gdb 58650	1.81833	1.51593	1.15929	4.5346	79.75	-0.278	0.0318	0.3098	1198.554	0.168781	-403.154814	-403.144702	-403.143758	-403.189443	37.258	
C	 0.2097814735	 1.4409758124	 0.2533904656	-0.405085
C	-0.1404882904	-0.0241718336	-0.0371315001	-0.033156
C	-1.6510448122	-0.2283775561	-0.2172518704	-0.408226
C	 0.6325338192	-0.5459415605	-1.2552286176	 0.15434
C	 2.0678941454	-1.0450567339	-1.0695619272	-0.370215
C	 0.9678703462	-2.0251960136	-1.3561195663	 0.060496
O	 0.4626646479	-2.8331169487	-0.3401999862	-0.414568
C	 0.3423902677	 0.1181295607	-2.5029061133	 0.260387
N	 0.1058071672	 0.6562144541	-3.4999310766	-0.359616
H	 1.2847844438	 1.5724979491	 0.4130714638	 0.113314
H	-0.0881007604	 2.0895927216	-0.5773066968	 0.136797
H	-0.3107303927	 1.7869074838	 1.1517362327	 0.115762
H	 0.1837678688	-0.6390798771	 0.8078515713	 0.091523
H	-2.0246336221	 0.3300067278	-1.0823912685	 0.13374
H	-1.8855095812	-1.2862737611	-0.3630296301	 0.132622
H	-2.1917938638	 0.1233519065	 0.6667903994	 0.11271
H	 2.7960553406	-0.8338562954	-1.8437231247	 0.137657
H	 2.4416173391	-1.0023823149	-0.052085035	 0.12885
H	 0.9319159532	-2.4605497513	-2.3535934405	 0.11537
H	 1.1152486004	-3.5135497297	-0.1433304397	 0.297298
74.0893	139.1143	157.1838	161.1805	220.8742	229.5398	249.6398	254.2191	330.2501	354.9069	401.8324	467.2433	512.1397	582.238	612.9665	651.4065	823.4849	870.5416	908.1249	933.1357	937.8839	971.657	1009.4141	1052.6497	1064.5545	1108.8792	1142.1482	1178.2606	1195.5087	1261.8332	1263.5997	1309.1195	1343.5266	1371.1512	1401.8702	1422.3483	1427.2204	1477.3122	1489.5023	1492.0208	1503.918	1511.3053	2344.8984	3033.5619	3038.002	3062.8178	3103.0381	3105.3979	3110.3993	3117.7064	3119.9962	3138.7339	3234.4968	3807.4115
CC(C)C1(CC1O)C#N	CC(C)[C@]1(C[C@H]1O)C#N	
InChI=1S/C7H11NO/c1-5(2)7(4-8)3-6(7)9/h5-6,9H,3H2,1-2H3	InChI=1S/C7H11NO/c1-5(2)7(4-8)3-6(7)9/h5-6,9H,3H2,1-2H3/t6-,7+/m1/s1
