21
gdb 63730	2.68502	1.27832	1.17216	2.6916	84.63	-0.2289	-0.015	0.2139	1203.4521	0.180546	-387.099993	-387.090392	-387.089448	-387.134565	35.988	
C	-0.5069229585	 1.5241021613	 0.1546322102	-0.437438
C	-0.0332959851	 0.0808904099	-0.0307958039	 0.20651
C	-1.1803216647	-0.9177217446	 0.1386701514	-0.437416
C	 0.8828061083	-0.1635840312	-1.2900480822	-0.398805
C	 2.0595800291	-0.4946846658	-0.3576891087	 0.248439
C	 3.1259224951	-1.5637732123	-0.4704832245	-0.309706
C	 3.5238734529	-0.1233932639	-0.461151526	-0.309728
C	 1.1982479382	-0.2645948158	 0.8458331925	 0.322009
O	 1.3819572874	-0.3229400892	 2.0316122975	-0.332366
H	 0.3140622507	 2.2373845331	 0.0280720751	 0.116716
H	-1.2852326667	 1.7721078119	-0.5757744149	 0.115595
H	-0.9217243854	 1.6653892507	 1.1577055309	 0.131462
H	-1.9733922851	-0.7227306606	-0.5919349767	 0.115597
H	-0.8405846499	-1.9493658919	 0.000488398	 0.116721
H	-1.6121111999	-0.8387509247	 1.1414165752	 0.131465
H	 0.5549536272	-0.991228256	-1.9245540063	 0.103686
H	 1.0281913753	 0.722932054	-1.9129733691	 0.10369
H	 3.3134221465	-2.1567550988	 0.4185665142	 0.134726
H	 3.176278527	-2.1080580353	-1.4076887702	 0.122059
H	 3.8496299922	 0.3290775279	-1.391897338	 0.122057
H	 3.9862286952	 0.2784784714	 0.4343483154	 0.134726
32.8131	161.102	191.1065	203.6349	214.9869	224.9539	258.3616	280.3109	319.4149	383.4351	499.2367	557.327	714.7691	728.352	753.0664	793.3773	824.4076	875.8511	916.3109	927.4264	949.3329	964.6976	1001.1963	1032.6624	1034.1993	1059.8655	1076.0825	1132.8431	1183.0789	1198.783	1207.3022	1242.4989	1242.5653	1295.794	1363.528	1395.1209	1416.6397	1456.585	1482.8025	1484.6733	1486.1276	1489.076	1501.7789	1506.3695	1869.2446	3025.7294	3028.8359	3055.7686	3093.908	3096.3339	3102.0075	3107.3638	3107.6765	3128.9749	3130.9105	3212.5087	3227.4172
CC1(C)CC2(CC2)C1=O	CC1(C)CC2(CC2)C1=O	
InChI=1S/C8H12O/c1-7(2)5-8(3-4-8)6(7)9/h3-5H2,1-2H3	InChI=1S/C8H12O/c1-7(2)5-8(3-4-8)6(7)9/h3-5H2,1-2H3
