22
gdb 100890	1.76965	1.27475	0.90151	3.5476	83.42	-0.2346	0.0309	0.2655	1418.1514	0.193439	-400.521411	-400.510382	-400.509437	-400.558002	39.118	
C	 0.1478788322	 1.6092906224	-0.0156414449	-0.395793
C	 0.0848458004	 0.083253286	 0.0322464936	-0.121967
N	 0.56606102	-0.4755511779	 1.3023662724	-0.060022
C	-0.3025383998	-0.1396499746	 2.4295829842	-0.347241
C	 0.878411057	-1.9028556956	 1.2028868371	-0.108747
C	 1.8801077078	-2.3570497727	 2.2821732554	-0.170645
N	 3.1182661643	-1.6101608669	 2.0934625902	-0.513382
C	-0.3279030218	-2.7658409911	 1.208309812	 0.273823
N	-1.2952041817	-3.3992457296	 1.2231453841	-0.333831
H	 1.1514814781	 1.9608366358	 0.2420529945	 0.12405
H	-0.0904218255	 1.9546915911	-1.0260555364	 0.122006
H	-0.5672325207	 2.0798045437	 0.6646631223	 0.124086
H	-0.9434709459	-0.2548227098	-0.1906033161	 0.099953
H	 0.7266260065	-0.3170603242	-0.7597619601	 0.10837
H	-1.3332910921	-0.5105222953	 2.3018658815	 0.124034
H	 0.0973329593	-0.5605455495	 3.3546796459	 0.126687
H	-0.3376080505	 0.9442110397	 2.5542964679	 0.128503
H	 1.3819546608	-2.0525262879	 0.2419247806	 0.135428
H	 1.4191553274	-2.2575036049	 3.2782235404	 0.098379
H	 2.0743701989	-3.424880251	 2.1337404941	 0.122491
H	 2.903801937	-0.6183324481	 2.1384784547	 0.23357
H	 3.7718509683	-1.8167959496	 2.8411178667	 0.230251
54.1745	65.3094	119.0045	135.6949	164.8408	186.6499	242.2648	246.1159	277.0504	334.9963	370.4556	379.9417	428.3858	471.3741	554.8791	638.16	763.5023	810.1528	865.4891	901.7575	955.1893	993.5347	1049.0956	1061.8627	1080.9201	1119.22	1126.0518	1160.1881	1178.5368	1240.0135	1252.5473	1265.6624	1326.4255	1339.801	1372.0765	1403.3494	1420.9603	1429.0055	1458.8802	1487.0894	1490.4663	1503.1862	1504.6193	1514.6863	1522.471	1637.1347	2342.424	2943.5047	2968.9811	2974.3613	3044.0033	3056.535	3061.8581	3068.5408	3095.789	3114.7037	3118.7041	3133.2627	3499.7075	3584.1517
CCN(C)C(CN)C#N	CCN(C)[C@@H](CN)C#N	
InChI=1S/C6H13N3/c1-3-9(2)6(4-7)5-8/h6H,3-4,7H2,1-2H3	InChI=1S/C6H13N3/c1-3-9(2)6(4-7)5-8/h6H,3-4,7H2,1-2H3/t6-/m0/s1
