18
gdb 72026	2.83913	2.04772	1.84938	2.3485	72.76	-0.2313	0.0694	0.3007	839.9058	0.150753	-401.911247	-401.905037	-401.904093	-401.94128	27.242	
O	-0.0667946467	 1.3881428345	-0.0033801497	-0.501429
C	 0.0193391905	 0.0008313906	-0.0510208194	 0.404763
C	 0.8244767786	-0.7029938792	-1.1583660827	-0.281356
C	 0.638935745	-2.1007180786	-0.5438020894	-0.004033
C	 1.3305963042	-1.9342630612	 0.8255785821	-0.220844
C	 0.3675726834	-0.8336875532	 1.2909248325	-0.141502
C	-1.0012561244	-1.5114208228	 1.132531654	-0.041388
C	-1.3177488158	-0.7504725105	-0.0948386299	-0.081875
N	-0.846285676	-2.1529263014	-0.1995749395	-0.128698
H	 0.8245364865	 1.7474086706	 0.0564987265	 0.280441
H	 0.3548942316	-0.5822402568	-2.1387988532	 0.106843
H	 1.8768765615	-0.404236927	-1.2199787539	 0.087403
H	 0.9185125834	-2.9600915399	-1.1508668751	 0.075695
H	 1.2811461372	-2.8307634114	 1.4509366062	 0.103413
H	 2.3755057987	-1.6227501801	 0.731175801	 0.09237
H	 0.5807779981	-0.2529118177	 2.1862573978	 0.070623
H	-1.6339295127	-1.9760875323	 1.8805780184	 0.089407
H	-2.250067343	-0.4438798838	-0.5562221957	 0.090167
257.6087	278.5914	347.8305	435.9667	469.9896	550.0928	591.4227	655.5133	678.0073	757.6727	809.0439	819.4165	864.2079	884.9166	905.6155	917.7189	922.9158	947.2093	971.5681	994.6034	1009.8127	1035.2658	1063.2806	1083.1867	1100.5136	1145.6552	1162.2501	1190.5499	1201.3023	1235.5483	1247.9756	1269.7269	1277.4008	1301.4423	1320.1468	1360.4734	1403.0049	1479.5267	1503.8069	3042.5689	3051.6956	3098.7347	3104.0196	3131.3539	3139.2073	3164.7504	3179.3078	3810.6546
OC12CC3CC1C1C2N31	O[C@@]12C[C@H]3C[C@@H]1[C@H]1[C@@H]2N31	
InChI=1S/C7H9NO/c9-7-2-3-1-4(7)5-6(7)8(3)5/h3-6,9H,1-2H2	InChI=1S/C7H9NO/c9-7-2-3-1-4(7)5-6(7)8(3)5/h3-6,9H,1-2H2/t3-,4-,5+,6+,7+,8?/m1/s1
