16
gdb 22865	3.23101	1.23312	0.92473	1.741	70.12	-0.2339	-0.0105	0.2234	1201.8122	0.12417	-471.174234	-471.165363	-471.164419	-471.207998	32.821	
N	-0.0303375819	 1.3056769387	-0.081980135	-0.569507
C	-0.0588529739	-0.0588725146	 0.0043453651	 0.379942
N	-1.1223269178	-0.7685101869	 0.0791440011	-0.298234
C	-0.751432033	-2.1820069158	 0.1848652992	-0.249076
C	 0.7542626354	-2.2222175643	 0.0244018566	 0.356012
N	 1.5511082658	-3.178471317	-0.219442164	-0.237129
O	 0.880916114	-4.4063319232	-0.300689502	-0.38535
C	 1.2657875178	-0.8012263231	 0.0973823718	-0.054189
O	 2.1467512494	-0.4097925273	-0.9399205441	-0.443637
H	 0.7855158833	 1.687611431	-0.5373108796	 0.268638
H	-0.9038775321	 1.7358498091	-0.3492942555	 0.258183
H	-1.0632153122	-2.6072759879	 1.14907432	 0.127936
H	-1.2493730164	-2.7814542469	-0.5865526267	 0.135384
H	 1.5936929771	-5.0216337205	-0.5044877649	 0.309342
H	 1.7284709269	-0.6057293335	 1.080348626	 0.103587
H	 2.7297535276	-1.1599374577	-1.1070049779	 0.298099
46.1659	160.7534	202.1743	211.0126	247.4685	265.2624	348.2343	379.6087	432.5398	465.9314	524.424	528.523	589.1713	665.8472	700.2966	739.0273	854.9404	893.9288	985.1175	994.4647	1017.6361	1096.9227	1170.1252	1184.9126	1216.8258	1235.4134	1297.9148	1337.9229	1358.5287	1410.1926	1451.8731	1481.2007	1628.6657	1729.1816	1774.5633	2952.1134	3014.5041	3052.0992	3568.6269	3680.8329	3793.9287	3815.6331
NC1=NCC(=NO)C1O	N[C]1[N]CC(=NO)[C@H]1O	
InChI=1S/C4H7N3O2/c5-4-3(8)2(7-9)1-6-4/h3,8-9H,1H2,(H2,5,6)	InChI=1S/C4H7N3O2/c5-4-3(8)2(7-9)1-6-4/h3,8-9H,1H2,(H2,5,6)/t3-/m1/s1
