12
gdb 27517	2.11443	1.88943	0.9978	2.8177	59.71	-0.2621	-0.0343	0.2278	1055.7916	0.078546	-509.860101	-509.852985	-509.85204	-509.891937	26.588	
O	 0.0730736141	 1.3062232635	 0.007581106	-0.386072
C	-0.0471193958	-0.0175208252	 0.0009355478	 0.517434
C	-1.2258424706	-0.6662010712	 0.0036225817	-0.420574
C	-1.2307889797	-2.1108540466	-0.0041761549	 0.463774
O	-2.1941833045	-2.8432630802	-0.0026468846	-0.363808
N	 0.0744841213	-2.672990234	-0.0140364316	-0.447165
C	 1.2729864026	-2.0232137605	-0.0173046202	 0.498903
O	 2.3605823645	-2.5153413922	-0.0246261181	-0.346499
O	 1.1596080873	-0.629925685	-0.0088355468	-0.266151
H	 1.01347954	 1.5320009857	 0.0038499426	 0.322929
H	-2.158661548	-0.1248858667	 0.0115941556	 0.143602
H	 0.1196262987	-3.6830845376	-0.0191883276	 0.283627
134.153	162.4393	182.9466	355.2504	389.4891	414.7478	498.5207	514.5821	616.3295	651.7556	652.5507	699.4599	733.5323	760.9823	824.401	908.5806	972.2755	1019.3531	1174.305	1221.673	1282.0546	1359.1709	1402.7598	1428.7919	1735.4909	1815.9906	1902.0859	3264.8408	3615.0687	3783.9452
OC1=CC(=O)NC(=O)O1	Oc1cc(=O)[nH]c(=O)o1	
InChI=1S/C4H3NO4/c6-2-1-3(7)9-4(8)5-2/h1,7H,(H,5,6,8)	InChI=1S/C4H3NO4/c6-2-1-3(7)9-4(8)5-2/h1,7H,(H,5,6,8)
