20
gdb 6604	4.86825	1.30427	1.25651	1.4238	75.47	-0.2547	0.0826	0.3373	1060.3653	0.17682	-348.966476	-348.958347	-348.957403	-348.998661	31.772	
C	-0.0188456269	 1.5213213345	 0.0360639735	-0.380172
C	 0.0418235661	-0.006957697	-0.0667051549	-0.304301
C	 0.7359959537	-0.5002705585	-1.3108107116	 0.359021
C	 2.2129490232	-0.2233847963	-1.7513003519	-0.287706
C	 1.6053684847	-1.1238932919	-2.8461555172	 0.397022
O	 2.3183330328	-1.5417925771	-3.9546039136	-0.469317
C	 0.9760915389	-1.9889882247	-1.7117962299	-0.33591
C	 0.3256106607	-0.2347485473	-2.7954808896	-0.32219
H	 0.9856422944	 1.9568522889	 0.0455996536	 0.119684
H	-0.5608246108	 1.9535055208	-0.8114537811	 0.118642
H	-0.5276093902	 1.833559784	 0.9531113798	 0.111659
H	 0.5582012783	-0.4149408468	 0.8121059116	 0.098476
H	-0.9756013436	-0.4189984343	-0.0412792394	 0.097042
H	 2.4577540894	 0.8012438605	-2.0437765496	 0.09058
H	 2.9983219558	-0.6678121203	-1.133293141	 0.088827
H	 1.7402441757	-2.0861551902	-4.4998306849	 0.280513
H	 1.6698035213	-2.5589758725	-1.0871100055	 0.088881
H	 0.0860007651	-2.5731630054	-1.9674632981	 0.079289
H	-0.6108644955	-0.693230321	-3.1299041893	 0.079242
H	 0.428697457	 0.7899395546	-3.1626990909	 0.090715
85.9021	153.7654	190.1142	256.8208	282.5984	338.0695	409.2153	438.0687	549.8395	553.3897	600.4948	650.8102	744.9913	782.1908	808.2638	931.5269	958.1862	969.3452	981.4332	999.7602	1025.8357	1081.3412	1087.3477	1109.4724	1117.6802	1130.2815	1138.4508	1157.4061	1181.9536	1197.1449	1292.6792	1306.7219	1322.3562	1370.9648	1388.2843	1410.6103	1480.9912	1492.8294	1495.3852	1498.3996	1507.1303	1563.7129	3015.0269	3034.7427	3035.7505	3040.1977	3046.1454	3051.831	3103.28	3105.4635	3106.1114	3109.8033	3115.2379	3809.5632
CCC12CC(O)(C1)C2	CC[C@@]12C[C@@](O)(C1)C2	
InChI=1S/C7H12O/c1-2-6-3-7(8,4-6)5-6/h8H,2-5H2,1H3	InChI=1S/C7H12O/c1-2-6-3-7(8,4-6)5-6/h8H,2-5H2,1H3/t6-,7-
