20
gdb 26350	2.4225	1.39958	0.94885	2.4055	81.8	-0.2001	0.0501	0.2502	1263.124	0.170897	-403.189215	-403.179714	-403.17877	-403.22352	35.848	
C	 0.1447247267	 1.4244356609	-0.2911976833	-0.398677
C	 0.0117350845	-0.037499632	 0.1528241726	 0.006809
O	 0.5394054172	-0.2014391231	 1.469490803	-0.422633
C	-1.3984040227	-0.5688879746	 0.0605092186	 0.17607
C	-2.0913456627	-1.1192960947	 1.1160214328	-0.179627
N	-3.3259190273	-1.5054674443	 0.6633186119	-0.254383
C	-3.4311228124	-1.2224567377	-0.674061112	-0.153717
C	-2.2557622313	-0.6384933566	-1.0902046051	 0.170506
C	-1.9593742584	-0.1963040142	-2.4936222147	-0.508445
H	 1.1780066216	 1.7579361476	-0.1582553855	 0.117323
H	-0.1308826605	 1.5562135523	-1.3405253178	 0.120512
H	-0.5124217438	 2.0658479044	 0.3081909801	 0.105721
H	 0.6733985836	-0.6490308697	-0.4759556126	 0.093966
H	 0.0466811214	 0.3960107833	 2.0437271823	 0.273444
H	-1.784156373	-1.2969049047	 2.1329316408	 0.119658
H	-4.0333582128	-1.9505211759	 1.2198232506	 0.25848
H	-4.326837916	-1.4581169797	-1.2276251224	 0.113335
H	-1.9436066695	 0.8954035844	-2.5978011679	 0.124821
H	-0.9867648191	-0.5639962394	-2.8413937642	 0.121532
H	-2.7171822055	-0.5748376063	-3.1863581872	 0.115304
44.3991	147.6229	165.7011	200.6146	247.6397	259.1339	303.6227	329.4402	353.6703	442.7602	475.3748	506.167	607.5538	639.7995	670.6013	708.6532	738.7027	773.4022	897.4617	916.5374	1004.7247	1024.5862	1057.095	1063.5372	1089.4753	1091.2861	1135.4445	1194.1445	1251.2822	1288.5853	1325.5222	1350.0994	1384.1613	1399.0709	1417.749	1422.4569	1474.7539	1483.3158	1489.2529	1497.2924	1502.4537	1553.1996	1616.5055	3011.4114	3019.591	3031.9536	3066.6198	3097.794	3104.2425	3127.1301	3252.3364	3275.1127	3691.239	3792.7199
CC(O)C1=CNC=C1C	C[C@@H](O)c1c[nH]cc1C	
InChI=1S/C7H11NO/c1-5-3-8-4-7(5)6(2)9/h3-4,6,8-9H,1-2H3	InChI=1S/C7H11NO/c1-5-3-8-4-7(5)6(2)9/h3-4,6,8-9H,1-2H3/t6-/m1/s1
