19
gdb 85998	2.49343	1.30226	1.21441	3.1165	72.1	-0.248	-0.0297	0.2182	1132.6866	0.15651	-460.159334	-460.149805	-460.148861	-460.193482	35.518	
C	-0.7502628418	 0.9786967403	-0.0765690587	-0.411172
C	 0.1248784782	-0.2602831771	-0.1215964785	-0.022641
C	 1.4190948436	-0.2762221095	-0.9724702749	 0.063587
O	 1.9824922556	 1.0364967011	-0.945997741	-0.4342
C	 2.0602139173	-1.189186459	 0.1014774004	-0.301538
C	 1.0136274447	-0.6375014752	 1.1244535168	 0.31362
O	 1.463981774	 0.4611373515	 1.8812445844	-0.500324
C	 0.4184742186	-1.635725803	 2.0884710891	 0.121948
O	-0.0393336371	-2.6969267845	 1.7449241399	-0.268474
H	-0.179174683	 1.8656845509	 0.2038265776	 0.127835
H	-1.2014016435	 1.166417627	-1.0564506314	 0.118849
H	-1.5604538605	 0.8527649409	 0.6485758265	 0.121788
H	-0.4599536536	-1.1501955766	-0.3740914554	 0.101933
H	 1.3520176669	-0.6484958331	-2.0015248471	 0.071195
H	 2.8725267815	 0.9855907593	-1.3102272753	 0.290652
H	 1.8916389256	-2.2505054369	-0.0959029773	 0.126711
H	 3.1095901744	-1.0100818067	 0.3507973997	 0.099868
H	 1.8444054808	 1.0910599392	 1.2547445539	 0.28623
H	 0.4332709785	-1.3102295986	 3.1511378012	 0.094133
70.1609	125.7195	157.3316	198.5741	217.9783	231.7872	268.7638	355.8899	380.6651	428.0207	465.4757	523.4341	575.8375	604.3613	713.3976	730.1028	835.2876	866.4914	876.6885	961.0007	983.7717	1011.1056	1063.2843	1077.7405	1110.0579	1152.8644	1168.6814	1174.9723	1226.1186	1237.4589	1275.4175	1302.9239	1363.3649	1387.6582	1403.9311	1413.1211	1437.7125	1460.6371	1489.7025	1494.702	1825.6919	2906.3716	3029.9787	3042.338	3059.6667	3071.8475	3103.3437	3128.5291	3134.2791	3762.6839	3812.8121
CC1C(O)CC1(O)C=O	C[C@H]1[C@@H](O)C[C@]1(O)C=O	
InChI=1S/C6H10O3/c1-4-5(8)2-6(4,9)3-7/h3-5,8-9H,2H2,1H3	InChI=1S/C6H10O3/c1-4-5(8)2-6(4,9)3-7/h3-5,8-9H,2H2,1H3/t4-,5-,6-/m0/s1
