19
gdb 41700	3.37507	1.77644	1.7723	1.4179	77.62	-0.2337	0.0108	0.2445	880.1374	0.163875	-385.901048	-385.894961	-385.894017	-385.931034	26.8	
C	-0.0278673308	 1.5774715457	 0.0293847561	-0.214327
C	 1.4880067003	 1.9472128677	-0.0099228629	-0.232037
C	 2.1863869335	 0.590503903	 0.1866740866	-0.024258
C	 2.0638130987	-0.3334575201	-1.0457230439	 0.059167
O	 0.621205462	-0.2654819604	-1.3159587936	-0.297986
C	 0.0382345241	 0.0493082904	-0.0427431687	 0.10853
C	 1.18344044	-0.3040758289	 0.9820879983	-0.092938
C	 1.7207109599	-1.6905215334	 0.7534598927	-0.087701
C	 2.2928826652	-1.7108333318	-0.456635932	-0.088133
H	-0.5051091949	 1.9138544962	 0.9569981498	 0.089808
H	-0.5917232739	 1.9880118049	-0.810978805	 0.105173
H	 1.7721372946	 2.4130534671	-0.9582206568	 0.104631
H	 1.7578179631	 2.6452741848	 0.7873278973	 0.097033
H	 3.1940024969	 0.6256283189	 0.6013740585	 0.070873
H	 2.5946277482	-0.0619098299	-1.9577893708	 0.069958
H	-0.9043660125	-0.4886896161	 0.0720176399	 0.069292
H	 0.9549798672	-0.0126687466	 2.0075792553	 0.065688
H	 1.578844194	-2.524852511	 1.4290609938	 0.098486
H	 2.6959379844	-2.5618260006	-0.9898955447	 0.098741
223.0195	321.2559	342.8818	432.3883	488.0203	578.302	668.2104	721.141	760.8708	780.8375	799.6837	841.9099	862.6904	896.8753	913.1195	922.4423	937.3648	957.9779	962.4636	975.437	980.4585	1017.0242	1040.7021	1069.9811	1126.333	1134.8544	1172.6373	1212.6256	1232.5288	1252.6119	1261.3473	1271.6114	1286.457	1308.483	1324.3274	1341.535	1353.9875	1363.8334	1478.6339	1500.7376	1635.9482	3039.9563	3055.8739	3090.1425	3100.3077	3110.8029	3111.6717	3117.4737	3126.4768	3199.8018	3226.6217
C1CC2C3OC1C2C=C3	C1C[C@@H]2[C@@H]3O[C@H]1[C@H]2C=C3	
InChI=1S/C8H10O/c1-3-7-6-2-4-8(9-7)5(1)6/h1,3,5-8H,2,4H2	InChI=1S/C8H10O/c1-3-7-6-2-4-8(9-7)5(1)6/h1,3,5-8H,2,4H2/t5-,6-,7+,8+/m0/s1
