16
gdb 62342	3.6514	1.11863	1.09321	2.7685	74.92	-0.2633	-0.0399	0.2234	1139.3822	0.123328	-400.753047	-400.744826	-400.743881	-400.785828	30.708	
C	-0.009964986	 1.5328821453	 0.014686562	-0.468404
C	 0.0725613822	 0.0129499734	-0.05865217	 0.136357
C	-1.0886941357	-0.6386718301	 0.5120996332	 0.242478
N	-2.0274114583	-1.1382765142	 0.9667227913	-0.331882
C	 0.6979986133	-0.7734260471	-1.1839633065	-0.082364
C	 1.8862531458	-0.0162122147	-1.7935270833	-0.382193
C	 2.5376359853	-0.0505572965	-0.3844125186	 0.401382
O	 3.6202559867	 0.2425277489	 0.02827901	-0.296193
C	 1.3622770089	-0.789970521	 0.2089884572	-0.202737
H	 0.8901090902	 2.0074917872	-0.378212273	 0.142269
H	-0.8702556822	 1.8954970943	-0.555298517	 0.144388
H	-0.1307873128	 1.8522265188	 1.0532350773	 0.150621
H	 0.1688980988	-1.5890318358	-1.6574237422	 0.130177
H	 2.471618818	-0.6412521313	-2.4745228327	 0.147141
H	 1.7033718522	 0.9505991735	-2.2676404638	 0.133418
H	 1.3854930835	-1.5502657508	 0.979079396	 0.135542
107.4672	136.0526	164.6578	176.8932	280.1631	331.6371	404.5027	439.6486	533.251	567.0853	578.3624	644.248	663.0929	814.3256	838.5522	881.7176	936.8655	984.2228	993.9401	1000.4578	1029.0072	1069.5654	1105.2809	1119.6542	1177.9393	1224.4595	1258.5523	1274.186	1355.3228	1422.9779	1458.0989	1486.699	1499.7562	1892.6482	2353.0899	3053.2289	3067.7152	3120.8055	3121.2325	3142.7521	3206.2902	3218.4682
CC1(C#N)C2CC(=O)C12	C[C@@]1(C#N)[C@H]2CC(=O)[C@@H]12	
InChI=1S/C7H7NO/c1-7(3-8)4-2-5(9)6(4)7/h4,6H,2H2,1H3	InChI=1S/C7H7NO/c1-7(3-8)4-2-5(9)6(4)7/h4,6H,2H2,1H3/t4-,6-,7+/m0/s1
