18
gdb 112447	2.23169	1.58529	1.03997	4.5223	70.23	-0.2532	0.0549	0.3081	1175.8571	0.14711	-476.245938	-476.237047	-476.236103	-476.279926	32.135	
C	-0.3050555436	 1.3428384593	 0.3231781921	-0.247549
O	-0.2658481556	-0.0772413259	 0.3261227724	-0.229689
C	 0.8305077993	-0.6116745263	 0.9792815187	 0.178649
O	 0.7807504852	-0.3659548529	 2.3873998291	-0.255168
C	 0.256420243	-1.4679701377	 3.0166340133	 0.478143
N	-0.0883424196	-1.5534649814	 4.2212516201	-0.577534
O	 0.1665009809	-2.500077084	 2.152662829	-0.237741
C	 0.8028393099	-2.1482195312	 0.9134691266	 0.082516
C	 0.053469851	-2.7645380209	-0.2500348257	-0.407029
H	 0.6034674919	 1.761028295	-0.1340750598	 0.113849
H	-1.172415544	 1.6325146873	-0.2719930815	 0.138655
H	-0.4081930405	 1.7407021371	 1.3384095187	 0.136772
H	 1.7654693227	-0.1657231872	 0.6152180764	 0.08608
H	 0.0287284941	-0.6545016044	 4.6822758654	 0.229696
H	 1.8359927229	-2.5177654894	 0.9487387106	 0.099796
H	-0.9692468144	-2.3884717623	-0.2889309406	 0.150294
H	 0.5536721477	-2.5178193466	-1.1909558783	 0.124691
H	 0.0361311288	-3.8516589983	-0.1418960666	 0.135569
81.1909	112.1492	129.4273	186.7687	209.0617	225.5095	291.2694	374.8535	476.8806	505.6499	560.2887	701.2343	719.7148	771.3747	805.4824	874.5528	928.7795	954.6489	979.296	1020.575	1044.074	1098.22	1126.7307	1147.5316	1181.4082	1183.7701	1225.6505	1281.5138	1354.0139	1383.5341	1398.181	1404.7377	1418.5704	1481.5241	1485.7739	1486.4771	1495.1971	1510.8767	1806.4584	3000.9871	3017.592	3033.056	3058.1613	3078.5052	3127.8549	3139.1794	3157.3651	3538.0197
COC1OC(=N)OC1C	CO[C@H]1O[C]([NH])O[C@H]1C	
InChI=1S/C5H9NO3/c1-3-4(7-2)9-5(6)8-3/h3-4,6H,1-2H3	InChI=1S/C5H9NO3/c1-3-4(7-2)9-5(6)8-3/h3-4,6H,1-2H3/t3-,4-/m0/s1
