18
gdb 17356	4.52873	1.22287	1.06159	0.0026	69.38	-0.2604	0.0734	0.3338	1152.1325	0.151606	-384.902855	-384.894226	-384.893281	-384.936785	30.931	
C	-0.1272090856	 1.5909765815	-0.0772985959	-0.422412
C	-0.0946335943	 0.0958184268	 0.1053856331	 0.080235
O	 1.1363315002	-0.5838289268	-0.1667697235	-0.262159
C	 0.6284803846	-0.6203584798	 1.1732583235	 0.029316
C	 1.4593298656	 0.0626387637	 2.2086134159	 0.02923
O	 0.9522436777	 0.0243923909	 3.5488718336	-0.262145
C	 2.1837084806	-0.6538503736	 3.2754378331	 0.080276
C	 2.2178305813	-2.149113871	 3.4569124692	-0.422391
H	 0.763112261	 2.0750936423	 0.3281357253	 0.130066
H	-0.1874443091	 1.8358071198	-1.1427979588	 0.131171
H	-1.0096053828	 2.0138134805	 0.4145914677	 0.129463
H	-0.967649374	-0.4218158122	-0.2987700254	 0.091454
H	 0.225743806	-1.5858329818	 1.4780021726	 0.092909
H	 1.8609624113	 1.0287982644	 1.9045925941	 0.092863
H	 3.0564339309	-0.1357295801	 3.679600535	 0.091449
H	 1.3290131454	-2.6341908196	 3.0493463633	 0.130038
H	 3.1017555497	-2.570307568	 2.9663671867	 0.129446
H	 2.2763830514	-2.3947144571	 4.5223332306	 0.131192
30.8228	129.1778	165.168	178.6303	226.36	237.7599	381.7577	402.476	442.3222	473.5286	586.2622	771.0501	781.6543	848.2664	865.2476	957.2004	977.4927	998.3894	1011.5351	1077.8488	1102.486	1121.1204	1160.1503	1167.2551	1168.8465	1206.2418	1294.9625	1299.9123	1335.2623	1408.0731	1414.8742	1428.1083	1448.1549	1476.9408	1486.9202	1492.3087	1503.4892	1530.2545	3041.8907	3041.9673	3080.0412	3080.5631	3102.9293	3102.9932	3113.2225	3118.3617	3137.5365	3139.6491
CC1OC1C1OC1C	C[C@H]1O[C@H]1[C@H]1O[C@H]1C	
InChI=1S/C6H10O2/c1-3-5(7-3)6-4(2)8-6/h3-6H,1-2H3	InChI=1S/C6H10O2/c1-3-5(7-3)6-4(2)8-6/h3-6H,1-2H3/t3-,4+,5-,6+
