16
gdb 50386	4.80618	0.84639	0.74346	2.7662	78.88	-0.2655	-0.053	0.2125	1431.5304	0.124371	-400.789768	-400.781445	-400.780501	-400.823769	29.691	
O	 0.7875913709	-0.3143537837	-0.0865074464	-0.24067
C	 0.3495994592	 0.8027883045	-0.0191657449	 0.154242
C	 1.1812461	 2.062615112	 0.0794099787	-0.067567
C	 0.9301250884	 3.0254804785	-1.1209563862	-0.288978
C	 0.9305455318	 4.3915333391	-0.4922836788	-0.148064
C	 0.8816430895	 4.3292116364	 0.8436932234	 0.205885
C	 0.8377048778	 2.8964774378	 1.3475927059	-0.346128
C	 0.8287622378	 5.4426509426	 1.7253245365	 0.203832
N	 0.7874008749	 6.326665599	 2.4728256426	-0.328451
H	-0.751179838	 0.9937817199	-0.0293234014	 0.076621
H	 2.2323002443	 1.7671524861	 0.1018450056	 0.110647
H	 1.6887738897	 2.9110936811	-1.9012593451	 0.136944
H	-0.0390930637	 2.8345122232	-1.6062781019	 0.128719
H	 0.9341802425	 5.3090064728	-1.0682954907	 0.129727
H	-0.1635536026	 2.6649134288	 1.7363576783	 0.131097
H	 1.5408294376	 2.710478632	 2.1635595746	 0.142145
59.1891	62.9775	156.9924	169.0899	311.7053	339.3431	374.5981	392.3952	553.2943	565.2662	570.7022	687.0389	843.1079	872.9361	877.4941	927.7497	945.7453	1002.7099	1008.3061	1088.5443	1098.3458	1154.955	1182.6919	1209.5164	1273.5972	1289.0226	1312.7332	1331.6294	1341.8496	1426.1786	1475.6608	1488.2597	1683.3441	1840.2286	2339.484	2839.0234	2999.1318	3018.829	3074.6259	3087.8289	3101.5285	3215.1229
O=CC1CC=C(C1)C#N	O=C[C@H]1CC=C(C1)C#N	
InChI=1S/C7H7NO/c8-4-6-1-2-7(3-6)5-9/h1,5,7H,2-3H2	InChI=1S/C7H7NO/c8-4-6-1-2-7(3-6)5-9/h1,5,7H,2-3H2/t7-/m0/s1
