20
gdb 14092	2.99036	1.66321	1.43054	1.5003	75.29	-0.2495	0.0776	0.3271	994.5815	0.176601	-348.9829	-348.974502	-348.973557	-349.015406	32.262	
C	-0.1481150464	 1.4603130463	-0.0024905549	-0.405673
C	 0.0286584811	-0.0406086973	 0.0460672207	-0.052932
C	 1.3847210246	-0.6662900799	-0.196009401	-0.36658
C	 0.7714605349	-0.7183438759	 1.1700144612	 0.314568
C	 1.2205145387	-0.0819576744	 2.492870447	-0.308138
C	 0.3187274955	-1.109298354	 3.2396041761	-0.253872
C	 0.2331040033	-1.9438940728	 1.9292523383	 0.089593
O	-0.9906336216	-2.5188286475	 1.5441162597	-0.42822
H	 0.7323464767	 1.976995408	 0.3927722198	 0.117019
H	-0.2968117097	 1.804361282	-1.0319400076	 0.119407
H	-1.014624481	 1.7873955685	 0.584301966	 0.110656
H	-0.8114625645	-0.6105844095	-0.347039648	 0.082575
H	 1.4355109437	-1.5870538158	-0.7696729997	 0.112004
H	 2.2267908071	 0.0034121646	-0.3491354608	 0.10534
H	 2.2854631725	-0.2331830601	 2.6938186572	 0.103851
H	 0.9881060916	 0.9749135132	 2.6454650429	 0.101325
H	 0.7243762369	-1.600861693	 4.1264407533	 0.100228
H	-0.6577738774	-0.6822807252	 3.491433502	 0.093676
H	 0.9533418229	-2.7691298532	 1.9278959563	 0.08901
H	-1.6522566187	-1.8182860639	 1.5402419714	 0.276162
94.0494	142.463	193.9511	199.8821	240.056	338.2278	372.6221	421.1578	457.3105	531.6549	552.4747	701.8799	779.3245	787.783	865.7752	897.6363	901.3664	939.8718	951.1635	1012.5931	1047.3859	1064.5717	1098.867	1111.006	1125.9802	1143.1757	1181.3163	1188.8956	1224.5907	1235.8864	1263.4951	1276.1959	1309.763	1333.153	1408.5291	1426.1043	1431.6773	1477.1132	1487.7321	1492.2401	1500.0132	1504.7768	3024.5632	3047.5484	3053.0056	3054.8543	3083.7583	3094.4765	3098.2943	3112.21	3115.7629	3123.4081	3196.191	3800.9411
CC1CC11CCC1O	C[C@H]1C[C@]21CC[C@H]2O	
InChI=1S/C7H12O/c1-5-4-7(5)3-2-6(7)8/h5-6,8H,2-4H2,1H3	InChI=1S/C7H12O/c1-5-4-7(5)3-2-6(7)8/h5-6,8H,2-4H2,1H3/t5-,6+,7-/m0/s1
