19
gdb 88708	3.3444	0.98989	0.83329	2.2072	83.33	-0.2453	0.0434	0.2887	1410.1342	0.156815	-385.825119	-385.81575	-385.814805	-385.859855	34.78	
C	-0.2234173676	 1.490137218	-0.0851908719	-0.418806
C	-0.0985486209	 0.0012344178	 0.1150504871	 0.069889
O	 1.1870226226	-0.5936614369	-0.0987685587	-0.265171
C	 0.6303107166	-0.6453629374	 1.2208961759	 0.05086
C	 1.3538379958	 0.0996092638	 2.2907436502	-0.038212
C	 0.8539842804	 0.0580975381	 3.7084248639	-0.303748
C	 2.1473101499	-0.6576800133	 3.3579514637	-0.196391
C	 2.2015612698	-2.0900965709	 3.3689855946	 0.333918
C	 2.2543253751	-3.2919710038	 3.385981959	-0.463929
H	 0.5974374003	 2.037545439	 0.3822050348	 0.124909
H	-0.2222106283	 1.7278196434	-1.1541118702	 0.130344
H	-1.167663815	 1.8517804944	 0.3364176274	 0.122352
H	-0.9175620336	-0.5755420518	-0.3217977177	 0.086296
H	 0.2998383217	-1.640933037	 1.5211675422	 0.099565
H	 1.8183029055	 1.0227399519	 1.9637317338	 0.101248
H	 0.9189546869	 0.9577240732	 4.3094989165	 0.122288
H	-0.0039297888	-0.5696784326	 3.9222715009	 0.129735
H	 3.0624331332	-0.1689761823	 3.6790089186	 0.117411
H	 2.3060593164	-4.3522862136	 3.3963838699	 0.197442
41.4609	98.2042	143.6054	175.4014	200.6561	240.8762	313.5148	388.2558	439.2507	495.8787	533.9875	583.8813	628.2561	655.7759	768.3414	776.8501	811.9092	846.5105	881.6833	954.8196	979.7555	1002.4224	1008.8156	1075.0278	1094.9151	1121.0367	1128.7703	1152.972	1171.9514	1195.6602	1227.7149	1303.3014	1326.3322	1380.5525	1406.524	1427.4725	1472.6114	1483.9844	1490.6221	1517.4479	2235.9716	3039.0959	3074.0608	3099.6313	3102.3473	3132.1217	3139.8445	3149.0531	3179.355	3229.9758	3505.1641
CC1OC1C1CC1C#C	C[C@H]1O[C@H]1[C@H]1C[C@H]1C#C	
InChI=1S/C8H10O/c1-3-6-4-7(6)8-5(2)9-8/h1,5-8H,4H2,2H3	InChI=1S/C8H10O/c1-3-6-4-7(6)8-5(2)9-8/h1,5-8H,4H2,2H3/t5-,6-,7+,8-/m1/s1
