21
gdb 100667	1.94002	1.4447	1.10073	1.7579	75.3	-0.2415	-0.0242	0.2173	1238.2981	0.177635	-461.366797	-461.355663	-461.354718	-461.403378	39.52	
C	 0.7840716212	 0.5919401372	 0.9813290877	-0.243233
O	 1.0086055742	-0.5625837641	 0.200574777	-0.281596
C	 0.3463786351	-0.5734027467	-1.0700281154	 0.10457
C	 1.2229116805	 0.0792291444	-2.1348586813	-0.416686
C	 0.0555071108	-2.0671020509	-1.3121988047	 0.265693
C	-0.4891108204	-2.381782906	-2.7069111793	-0.436952
O	 1.2349818764	-2.8361306618	-1.1347232626	-0.474718
C	-0.9947363653	-2.5362243948	-0.2900789231	 0.13775
O	-1.9168246834	-1.8743384894	 0.1093485782	-0.266188
H	 1.1307264185	 1.5057410469	 0.4780312941	 0.109954
H	-0.2810654934	 0.7051198039	 1.2261115782	 0.127497
H	 1.3517049039	 0.4699012141	 1.9071275503	 0.129222
H	-0.6175498597	-0.0565634622	-0.9819093378	 0.092437
H	 2.1269287965	-0.5142008323	-2.2961629406	 0.132946
H	 0.6893566677	 0.1739336221	-3.084756562	 0.121627
H	 1.5185258783	 1.0843909465	-1.8207846182	 0.118157
H	 0.2735916023	-2.1752799961	-3.4612284719	 0.135622
H	-0.7491745963	-3.4425092924	-2.7758976294	 0.130769
H	-1.3837496238	-1.7898026903	-2.9183440253	 0.131374
H	 1.6700770911	-2.471748232	-0.3518011052	 0.29441
H	-0.8288263341	-3.5873174561	 0.0398361213	 0.087345
37.4601	84.651	93.1589	163.662	201.4749	207.8487	224.2562	252.0277	284.9812	301.3507	349.848	370.984	434.5375	460.9187	509.8581	560.8053	640.4324	763.0459	864.651	908.9347	952.2659	983.5212	1022.8089	1053.3222	1126.4821	1130.7882	1139.5329	1182.1646	1197.4041	1218.0679	1244.2257	1343.1586	1372.1476	1381.2031	1398.0068	1407.6642	1409.2925	1477.8927	1481.5108	1486.3997	1491.5124	1496.296	1506.4191	1510.2034	1829.6782	2879.3276	2992.2482	3035.3287	3044.7931	3046.2553	3049.0588	3113.7216	3115.9613	3117.7269	3127.8293	3133.819	3759.6351
COC(C)C(C)(O)C=O	CO[C@@H](C)[C@@](C)(O)C=O	
InChI=1S/C6H12O3/c1-5(9-3)6(2,8)4-7/h4-5,8H,1-3H3	InChI=1S/C6H12O3/c1-5(9-3)6(2,8)4-7/h4-5,8H,1-3H3/t5-,6-/m0/s1
