18
gdb 34008	3.07925	1.3691	1.14569	1.3145	84.81	-0.2319	0.0025	0.2344	1117.5273	0.148674	-364.765418	-364.757449	-364.756505	-364.797713	31.546	
C	-0.0069533545	-1.1976847068	-0.1530394527	-0.440951
C	 0.0118823006	 0.0016707305	-0.0551879429	 0.245166
C	-0.0005668864	 1.4370577461	 0.0477405968	 0.162435
N	 0.4260269069	 2.2191429059	-1.1556151843	-0.371664
C	 1.3039437233	 2.1740084459	 0.0248002606	-0.090822
C	 1.4228760435	 3.464487471	 0.8282904062	-0.212515
C	 0.5300428538	 3.467967553	 2.0848220561	-0.267568
C	-0.8550171449	 2.9396142418	 1.8014218304	-0.049904
C	-1.1028773284	 2.02751459	 0.8631716042	-0.133408
H	-0.0139707218	-2.2564930663	-0.2329199015	 0.194858
H	 0.76180735	 1.5639265921	-1.8598139272	 0.234952
H	 2.1965540427	 1.5587752756	-0.0456715366	 0.096507
H	 2.4671974218	 3.6322718324	 1.1108728842	 0.097406
H	 1.1246319195	 4.2920941188	 0.1775421837	 0.122317
H	 0.9916387675	 2.8646767044	 2.8802387639	 0.115988
H	 0.4677000877	 4.4851810714	 2.4859071102	 0.106772
H	-1.6745730841	 3.3305886679	 2.3987211115	 0.094407
H	-2.1079099174	 1.6633281864	 0.6745354174	 0.096024
100.2486	141.267	175.0745	248.8997	381.1216	417.1833	491.439	505.0469	518.972	575.897	596.822	621.4511	648.9674	726.1148	765.0716	816.6565	857.5545	908.2319	941.9712	967.3423	997.6577	1013.4033	1063.9305	1073.8354	1096.4821	1170.6104	1194.0594	1223.3473	1270.7513	1276.7918	1313.6488	1346.5144	1377.1732	1420.1005	1431.2557	1475.9755	1486.0838	1714.9553	2230.1213	3004.0325	3044.729	3064.4186	3092.4274	3147.1054	3156.9492	3183.9007	3482.4959	3502.2114
C#CC12NC1CCC=C2	C#C[C@]12N[C@H]1CCC=C2	
InChI=1S/C8H9N/c1-2-8-6-4-3-5-7(8)9-8/h1,4,6-7,9H,3,5H2	InChI=1S/C8H9N/c1-2-8-6-4-3-5-7(8)9-8/h1,4,6-7,9H,3,5H2/t7-,8+/m0/s1
