19
gdb 90990	2.69327	1.88148	1.36719	2.2295	74.68	-0.248	0.066	0.3141	973.1316	0.160713	-422.988139	-422.980675	-422.979731	-423.019562	30.867	
O	-0.074559483	 1.3765204491	-0.1063532406	-0.45394
C	 0.0264405101	-0.0406425063	 0.0134414829	 0.02354
C	 0.5252711982	-0.5678867256	 1.3819082335	-0.286041
C	-0.7380997074	-1.3028705722	 1.8418292085	-0.007838
C	-1.4026390676	-2.0180890114	 0.615590963	-0.115675
C	-2.7954638537	-1.7399888724	 1.2371490618	-0.252989
C	-1.9852079546	-0.4436491109	 1.4837272463	-0.118524
C	-1.3982575017	-0.5830991109	 0.0248873257	 0.490101
O	-2.1664045429	-0.3074850824	-1.099253529	-0.51062
H	 0.8037374427	 1.7365283662	-0.2595326375	 0.287901
H	 0.5969819301	-0.4502238367	-0.8317835212	 0.067702
H	 1.3931153249	-1.2292835094	 1.2932579888	 0.094677
H	 0.7906782518	 0.2620205392	 2.0447172361	 0.100131
H	-0.7264489177	-1.8291027782	 2.7965775364	 0.066737
H	-1.0538126543	-2.9248396666	 0.1168184474	 0.065117
H	-3.6309232071	-1.6666523576	 0.539191169	 0.108823
H	-3.060057698	-2.3266942822	 2.1214071398	 0.083191
H	-2.3077045883	 0.4754827696	 1.9747934496	 0.069858
H	-2.0063017815	 0.6210669788	-1.3095220907	 0.287849
120.1433	239.7532	283.8413	318.7251	338.6646	383.234	425.1873	492.4708	507.9425	645.2621	682.6322	702.021	773.5994	839.578	876.6247	912.2727	914.5235	919.6617	976.7261	1015.4619	1022.9944	1038.582	1066.856	1071.4378	1109.195	1122.243	1140.0767	1177.2718	1197.9248	1210.1828	1212.4592	1243.8424	1255.2899	1268.0826	1284.5996	1329.2183	1345.5905	1406.6054	1428.4797	1483.7629	1512.5691	3003.0667	3044.8624	3056.8238	3089.2975	3090.7982	3102.9333	3117.5558	3129.078	3782.3398	3832.3325
OC1CC2C3CC2C13O	O[C@H]1C[C@@H]2[C@H]3C[C@@H]2[C@@]13O	
InChI=1S/C7H10O2/c8-6-1-3-4-2-5(3)7(4,6)9/h3-6,8-9H,1-2H2	InChI=1S/C7H10O2/c8-6-1-3-4-2-5(3)7(4,6)9/h3-6,8-9H,1-2H2/t3-,4-,5+,6-,7-/m0/s1
