15
gdb 78585	5.29702	1.08256	1.03426	5.1898	70.34	-0.2605	0.0021	0.2626	1125.2188	0.11292	-416.707178	-416.69994	-416.698996	-416.738935	27.656	
O	 0.0386292445	 1.4860084239	-0.1167587527	-0.436355
C	 0.0653605679	 0.0886583984	-0.0371475023	 0.118155
C	 0.0025724258	-0.5730801445	 1.3500978656	-0.061763
C	-1.5021606594	-0.2262995537	 1.5514904533	-0.065293
C	-1.767392932	-1.708757296	 1.8354265413	-0.132789
C	-3.0679115442	-2.2747308473	 1.5025108011	 0.289966
N	-4.1086041391	-2.7065528088	 1.2437948746	-0.322015
N	-0.7016714723	-1.8158445949	 0.733586116	-0.17138
C	-1.3125734557	-0.5595033086	 0.0405318085	-0.034169
H	 0.9425887199	 1.8141533279	-0.0874213547	 0.29378
H	 0.7634088147	-0.3766728173	-0.7445631397	 0.09364
H	 0.7656089442	-0.702370601	 2.1197695027	 0.091548
H	-1.9515853921	 0.6569316655	 2.0072341794	 0.098923
H	-1.42028138	-2.1070559986	 2.7940526501	 0.123255
H	-2.0825638923	-0.667374495	-0.7224579131	 0.114496
114.8627	145.6859	223.1196	275.0141	314.1692	426.8397	484.6468	542.4115	620.3657	728.0447	811.8926	821.5731	853.2319	875.7255	897.3306	931.5584	941.9157	1012.3573	1034.1718	1070.7175	1114.3848	1134.182	1151.7796	1167.3375	1169.4701	1194.7237	1221.2648	1245.5225	1288.0806	1319.5471	1367.6769	1442.6515	2353.9468	3034.3652	3067.3597	3098.9059	3108.5017	3134.2253	3826.7117
OC1C2C3C(C#N)N2C13	O[C@H]1[C@H]2[C@@H]3[C@@H](C#N)N2[C@H]13	
InChI=1S/C6H6N2O/c7-1-2-3-4-6(9)5(3)8(2)4/h2-6,9H	InChI=1S/C6H6N2O/c7-1-2-3-4-6(9)5(3)8(2)4/h2-6,9H/t2-,3-,4+,5-,6-/m1/s1
