21
gdb 97443	3.10746	0.93192	0.89071	1.9484	82.18	-0.2321	0.0193	0.2515	1460.5613	0.18116	-420.381171	-420.371052	-420.370108	-420.417288	36.368	
C	 0.0636982326	 0.4283934249	-0.7221202379	-0.318646
N	-0.625769431	-0.7157167819	-0.1588027317	-0.229099
C	-1.8823909292	-0.6597041646	-0.071113571	 0.125161
O	-2.6637035033	-1.6229297583	 0.4452063937	-0.227102
C	-2.0383549937	-2.7485913672	 1.0869734607	-0.143713
C	-1.872485962	-3.9640364051	 0.1874817353	 0.310218
C	-1.4881493763	-5.2090919415	 0.9611325003	-0.44316
C	-2.6776952304	-4.0663052532	-1.0562480079	-0.275961
N	-1.223351008	-3.8189691984	-1.120377797	-0.348746
H	 0.6571775666	 0.1126312096	-1.5871559552	 0.132407
H	-0.6097298499	 1.239622645	-1.040717639	 0.101366
H	 0.7654495628	 0.8350080625	 0.0146383105	 0.131193
H	-2.50749246	 0.1779571631	-0.4037009462	 0.107374
H	-1.0687130952	-2.4385311785	 1.4877355177	 0.136174
H	-2.7066116069	-3.0006988929	 1.9165440638	 0.114137
H	-2.2760328818	-5.5013934292	 1.6645999339	 0.111895
H	-1.3123056471	-6.0358290725	 0.2697468492	 0.132376
H	-0.565843275	-5.0486736164	 1.5317787791	 0.119487
H	-2.991294843	-5.0433913547	-1.4153174691	 0.108177
H	-3.3569158415	-3.2528536083	-1.2911466767	 0.116047
H	-1.0306486878	-2.8378956722	-1.3051272525	 0.240415
22.5919	80.1862	127.5354	192.7275	205.0549	223.6612	239.4589	303.8164	354.6217	362.8757	385.8956	411.5611	532.3405	683.2703	711.5742	831.0834	902.3449	915.584	956.2569	976.3248	992.151	1018.3325	1033.9968	1069.7463	1085.1295	1126.9661	1142.3903	1145.9846	1160.9678	1240.2917	1266.992	1316.4583	1332.3543	1375.4525	1389.7238	1413.4832	1430.786	1451.1831	1477.1487	1481.2735	1486.2713	1496.0391	1505.2113	1515.5161	1747.8247	2978.5993	3027.7436	3048.0617	3057.5488	3064.2999	3082.5978	3087.3588	3101.8843	3109.8968	3128.1072	3199.3835	3514.1592
CN=COCC1(C)CN1	CN=COC[C@@]1(C)CN1	
InChI=1S/C6H12N2O/c1-6(3-8-6)4-9-5-7-2/h5,8H,3-4H2,1-2H3	InChI=1S/C6H12N2O/c1-6(3-8-6)4-9-5-7-2/h5,8H,3-4H2,1-2H3/t6-/m1/s1
