18
gdb 55730	2.99725	1.08073	0.96884	4.8005	73.82	-0.2443	-0.0246	0.2197	1288.206	0.144779	-439.118733	-439.108845	-439.107901	-439.155097	34.52	
C	-0.3477438368	 1.6026946819	-0.0607920607	-0.494094
C	-0.4033457123	 0.0846150307	 0.005288809	 0.391743
O	-0.8771388021	-0.5213270294	 0.9454939965	-0.360412
N	 0.1405132899	-0.5621506954	-1.0806928347	-0.402202
C	 0.2560317083	-1.9861905511	-1.1282846839	 0.256444
C	-0.9976331496	-2.8177992292	-1.3673295902	-0.24996
C	 0.0033439751	-2.6794491112	-2.4604838291	-0.310413
C	 1.2861673091	-2.5978021997	-0.23470258	 0.134087
O	 1.5133661111	-3.7812327455	-0.179396871	-0.271169
H	 0.5448353077	 1.9549972066	 0.4669677714	 0.15257
H	-0.3158927978	 1.9867751707	-1.0841788757	 0.119386
H	-1.2204914688	 2.0057160707	 0.4544144612	 0.156945
H	 0.6041607654	-0.018251836	-1.7907142021	 0.247584
H	-1.03948569	-3.7572113996	-0.8296396474	 0.148121
H	-1.9243133223	-2.2623038254	-1.433014002	 0.134921
H	-0.2318351709	-2.0371311348	-3.3020583799	 0.120808
H	 0.6477156722	-3.524264692	-2.6744297145	 0.145143
H	 1.8444116418	-1.8615086714	 0.382887863	 0.080498
38.9355	41.8044	85.9527	120.4164	161.9213	242.5224	296.2485	357.2435	390.5354	411.6232	435.6618	559.1803	631.1249	681.5011	762.5149	785.6087	836.1682	915.7674	951.6473	991.8764	1024.7322	1042.412	1050.9574	1056.1161	1072.2018	1101.5139	1203.2102	1254.4793	1298.7172	1316.8445	1391.9123	1419.7685	1446.7576	1466.9693	1479.591	1485.6266	1507.7349	1790.3808	1815.5097	2903.7038	3046.7841	3113.3102	3138.7761	3151.7199	3156.1293	3232.691	3255.9765	3628.0604
CC(=O)NC1(CC1)C=O	CC(=O)NC1(CC1)C=O	
InChI=1S/C6H9NO2/c1-5(9)7-6(4-8)2-3-6/h4H,2-3H2,1H3,(H,7,9)	InChI=1S/C6H9NO2/c1-5(9)7-6(4-8)2-3-6/h4H,2-3H2,1H3,(H,7,9)
