16
gdb 77273	2.40871	1.22571	1.01113	3.3401	73.35	-0.2393	0.0177	0.257	1205.6735	0.122087	-437.852794	-437.843539	-437.842594	-437.88765	33.33	
O	 0.0746214308	 1.4660757758	-0.1003578118	-0.425046
C	 0.1043184876	 0.0751542802	-0.0195454728	 0.042572
C	-1.2018914702	-0.6043855231	 0.2542067702	 0.019021
N	-2.3252856709	 0.2360045404	 0.4578476927	-0.276879
C	-3.5793462536	-0.2499500726	 0.6636709832	 0.155081
O	-3.8701487371	-1.4261150739	 0.687999878	-0.32169
C	-0.5518357917	-0.7318716367	-1.1411197598	-0.288975
C	-1.0646831576	-0.0013793123	-2.2552594233	 0.303
C	-1.458339194	 0.6734367731	-3.1719456603	-0.427315
H	 0.0859682983	 1.7151575641	-1.0347049805	 0.298656
H	 1.0118329931	-0.3232726042	 0.4271211252	 0.114913
H	-1.2202966172	-1.5142938482	 0.8422382583	 0.136667
H	-2.1526042283	 1.230614865	 0.4509781551	 0.259396
H	-4.3122894182	 0.5650401255	 0.8231004777	 0.077279
H	-0.1110014637	-1.6985031133	-1.3637811479	 0.127404
H	-1.8360198572	 1.2280893502	-3.995292294	 0.205915
33.2736	119.6532	127.3314	157.7746	228.4263	243.4556	308.1847	362.1886	393.4765	570.4813	587.5607	598.8718	642.2593	659.0221	670.3646	727.682	776.4953	828.4832	930.3651	987.5881	1025.8757	1034.5785	1093.5411	1115.0285	1151.4819	1204.3798	1266.5279	1346.0865	1349.4967	1366.4892	1406.8908	1428.8548	1527.5496	1806.3408	2227.6204	2943.407	3136.3188	3159.5147	3190.3297	3501.0786	3612.9461	3742.772
OC1C(NC=O)C1C#C	O[C@H]1[C@@H](NC=O)[C@H]1C#C	
InChI=1S/C6H7NO2/c1-2-4-5(6(4)9)7-3-8/h1,3-6,9H,(H,7,8)	InChI=1S/C6H7NO2/c1-2-4-5(6(4)9)7-3-8/h1,3-6,9H,(H,7,8)/t4-,5+,6-/m1/s1
