18
gdb 61953	6.51072	0.58777	0.55862	3.4857	79.35	-0.2711	0.0324	0.3035	1885.221	0.144814	-401.93058	-401.920327	-401.919382	-401.966658	36.19	
O	-0.1548103166	 1.3759030424	-0.0408578096	-0.419045
C	-0.0267816777	-0.036480435	-0.0020975396	 0.124569
C	 0.6727527436	-0.5717592987	-1.2595047112	-0.200448
C	-0.0488994102	-0.1109533384	-2.5398825849	-0.344427
C	 0.6479366426	-0.5218975776	-3.7552088688	 0.255112
N	 1.2147322383	-0.8549162814	-4.7056899836	-0.305839
C	 0.6908070631	-0.5197134878	 1.2763883506	-0.401463
C	 0.0364830689	-0.0909328878	 2.5050115132	 0.307287
C	-0.5112555069	 0.2578666859	 3.5155940128	-0.426701
H	 0.7112743554	 1.7649651628	 0.1268328518	 0.285077
H	-1.0589904626	-0.4062672395	 0.0212911926	 0.106747
H	 1.7108584693	-0.2164896944	-1.2800879381	 0.113847
H	 0.7132259045	-1.6659055628	-1.2282987216	 0.121981
H	-1.0679557977	-0.5144065439	-2.5672614067	 0.152117
H	-0.1437074515	 0.9791729012	-2.5265670617	 0.167277
H	 0.7586235731	-1.6147824891	 1.2528420351	 0.138874
H	 1.7284075725	-0.1542842743	 1.2579536993	 0.125069
H	-0.994359098	 0.5683771485	 4.4087515604	 0.199966
45.2594	74.8072	93.819	128.7532	154.3492	256.7507	287.8234	314.5167	344.7831	392.02	396.1998	459.2818	529.5068	608.4842	626.6499	647.3447	772.3977	861.9682	921.1544	937.7168	967.9874	1029.8291	1048.0258	1081.0364	1116.7322	1178.3967	1193.4106	1256.5489	1294.2704	1318.4813	1359.0035	1367.8724	1389.6284	1421.6152	1464.3014	1471.5599	1489.5954	2244.0773	2362.6109	3001.1667	3028.9991	3042.4072	3049.6724	3053.0098	3079.5758	3101.0696	3506.5562	3795.0949
OC(CCC#N)CC#C	O[C@@H](CCC#N)CC#C	
InChI=1S/C7H9NO/c1-2-4-7(9)5-3-6-8/h1,7,9H,3-5H2	InChI=1S/C7H9NO/c1-2-4-7(9)5-3-6-8/h1,7,9H,3-5H2/t7-/m1/s1
