14
gdb 12610	3.24434	2.26439	1.35712	2.0122	59.17	-0.2628	-0.0066	0.2562	846.8964	0.108388	-415.950929	-415.943269	-415.942324	-415.983455	26.524	
C	-0.0347230568	 1.4651415241	 0.0324866694	-0.34544
N	-0.0056614936	 0.0162556976	 0.0161323813	-0.156913
C	-1.1244277241	-0.7850628489	 0.0569962524	 0.408779
O	-2.2713689063	-0.4146716792	 0.1173416982	-0.361538
C	-0.6112605238	-2.2293738935	 0.0059353428	-0.290856
N	 0.8239857322	-2.0474873419	 0.0196585348	-0.363971
C	 1.1923238509	-0.7285561539	-0.0539793904	 0.478432
O	 2.3034028162	-0.2665109246	-0.150364913	-0.395455
H	 0.99198007	 1.8122090805	-0.0872919739	 0.166513
H	-0.6568954627	 1.8397305982	-0.7841302227	 0.148587
H	-0.4441685463	 1.8319901859	 0.9778148675	 0.146521
H	-0.984089745	-2.7886807657	 0.8706975573	 0.149968
H	-0.9809540782	-2.7174226585	-0.9040112226	 0.147693
H	 1.4942569374	-2.76351924	-0.2007621511	 0.267681
64.9216	122.0556	149.7797	195.2027	268.2776	377.9881	396.2326	589.5717	596.4759	602.7381	715.2239	755.1191	768.1674	967.5156	1016.3207	1072.0966	1108.3006	1161.4172	1195.0892	1199.821	1289.1427	1325.1965	1415.8326	1424.1877	1472.6899	1489.4823	1501.5948	1513.2663	1823.7507	1879.2961	3035.3911	3052.8246	3075.4511	3117.4256	3161.4463	3677.4077
CN1C(=O)CNC1=O	CN1C(=O)CNC1=O	
InChI=1S/C4H6N2O2/c1-6-3(7)2-5-4(6)8/h2H2,1H3,(H,5,8)	InChI=1S/C4H6N2O2/c1-6-3(7)2-5-4(6)8/h2H2,1H3,(H,5,8)
