17
gdb 51809	4.22368	1.03442	0.91932	4.9328	69.78	-0.2734	0.0061	0.2795	1258.0119	0.136357	-458.977905	-458.969991	-458.969046	-459.011321	28.874	
O	-0.0301277638	 0.0208680059	-0.0344869896	-0.271986
C	 0.0132377004	 1.2085832792	-0.1355293396	 0.177042
O	 1.1541700201	 1.9117129967	 0.0427459705	-0.185743
C	 1.0473248311	 3.3262325531	-0.0261666746	 0.209754
O	 0.548245937	 3.7821275782	 1.2133932729	-0.269485
C	 1.1406407697	 5.041756221	 1.5399621713	-0.094358
C	 2.474094461	 5.0704287098	 0.8152617006	-0.055623
C	 3.3317069336	 3.8443979459	 0.9632357366	-0.280043
C	 2.400338138	 3.9688521803	-0.2156250109	-0.084901
H	-0.8518833308	 1.8487227702	-0.392145144	 0.08679
H	 0.3551424575	 3.5859059408	-0.8434674225	 0.081651
H	 0.5004211659	 5.8695648166	 1.201577514	 0.103573
H	 1.2192413524	 5.0886951491	 2.6309126497	 0.121356
H	 2.9250495939	 6.02915472	 0.5909450682	 0.099336
H	 4.3912024379	 3.9482094368	 0.761392301	 0.119919
H	 3.0805966567	 3.1223298869	 1.7327137761	 0.140649
H	 2.7867075592	 4.0752051194	-1.2208968097	 0.102071
59.2934	93.7136	139.0784	206.1153	290.1877	361.0736	424.6942	454.0224	660.9974	723.4757	739.6706	793.3778	837.5178	916.4993	938.0861	968.3707	992.3968	1040.733	1043.8585	1070.7887	1078.2389	1082.69	1104.0276	1128.9554	1136.9682	1175.513	1199.7543	1236.4528	1328.5017	1354.6091	1369.5334	1395.5586	1410.2736	1445.6169	1485.7577	1522.41	1873.6878	2958.2823	2976.355	2999.4076	3074.4611	3141.1709	3189.049	3200.9793	3231.4933
O=COC1OCC2CC12	O=CO[C@H]1OC[C@H]2C[C@@H]12	
InChI=1S/C6H8O3/c7-3-9-6-5-1-4(5)2-8-6/h3-6H,1-2H2	InChI=1S/C6H8O3/c7-3-9-6-5-1-4(5)2-8-6/h3-6H,1-2H2/t4-,5-,6-/m1/s1
