22
gdb 93100	2.12007	1.74566	1.24264	2.4378	81.81	-0.2413	0.0343	0.2756	1123.8205	0.194066	-404.379997	-404.370663	-404.369719	-404.413357	36.2	
C	-0.0473628257	 1.5750841971	-0.1076936775	-0.418734
C	 0.0567293444	 0.0501368224	-0.0010827165	-0.021083
C	 0.7042519782	-0.5555577367	-1.2555536649	-0.173056
N	 0.9698412707	-1.9843840962	-1.1615289029	-0.274739
C	 0.9851739172	-2.4986690119	-0.0065333354	 0.1177
O	 0.8286326373	-1.9164646271	 1.2038653882	-0.262905
C	 0.7959764507	-0.4586324277	 1.2583977355	 0.359689
C	 2.2491719518	 0.0221557559	 1.3606580923	-0.422348
C	 0.0317277277	-0.1514263479	 2.5451473433	-0.424726
H	 0.9383475042	 2.044035731	-0.192320843	 0.121068
H	-0.6159049786	 1.8486174104	-1.0025780409	 0.120947
H	-0.5592377488	 2.016057486	 0.7522769918	 0.11834
H	-0.9609131692	-0.3578793108	 0.0680865821	 0.083967
H	 0.0504512583	-0.3894425891	-2.120173284	 0.107897
H	 1.6432703485	-0.0352510082	-1.4933014988	 0.106457
H	 1.1333910829	-3.5705382475	 0.1195703282	 0.117841
H	 2.8258590342	-0.2443395124	 0.4712551458	 0.131248
H	 2.2962670844	 1.10680205	 1.490053776	 0.120495
H	 2.7287450473	-0.4452790186	 2.2249452483	 0.125615
H	 0.4995221624	-0.6692598518	 3.3871231903	 0.125471
H	 0.0354280042	 0.9204634805	 2.7583568517	 0.119656
H	-1.005490072	-0.4901654976	 2.4696828804	 0.1212
91.8562	158.2637	201.1898	229.0034	249.2504	272.2194	280.0272	343.4416	374.328	423.388	482.0822	492.9651	522.4382	544.7798	689.2687	815.0467	856.2916	905.5852	932.2564	943.1755	966.2173	976.5605	995.0679	1009.1979	1066.9742	1104.7451	1154.0935	1161.8928	1200.3457	1215.184	1268.5498	1275.8869	1330.1042	1371.3292	1382.8651	1401.0381	1410.0836	1412.3994	1423.1179	1475.9937	1480.9213	1493.2399	1497.3832	1502.7356	1506.4554	1512.1937	1733.9112	3002.6402	3014.7982	3037.6676	3044.5156	3046.5283	3051.1134	3101.3651	3109.7797	3118.2592	3121.8725	3125.4275	3128.2436	3147.7628
CC1CN=COC1(C)C	C[C@H]1CN=COC1(C)C	
InChI=1S/C7H13NO/c1-6-4-8-5-9-7(6,2)3/h5-6H,4H2,1-3H3	InChI=1S/C7H13NO/c1-6-4-8-5-9-7(6,2)3/h5-6H,4H2,1-3H3/t6-/m0/s1
