20
gdb 108940	3.23773	1.05401	0.85961	2.5284	84.17	-0.2129	0.0229	0.2358	1375.0447	0.171512	-403.13113	-403.12221	-403.121266	-403.165162	33.44	
O	 0.0066563124	 1.4108669694	 0.2051862068	-0.413807
C	-0.0093593121	 0.0199206323	-0.0600135455	-0.174329
C	-1.409941636	-0.493468314	-0.0083106806	 0.291921
C	-2.5118170964	 0.2056520898	 0.2725814271	-0.243527
C	-3.7320245063	-0.6353684798	 0.190942834	 0.346349
C	-5.0071013116	-0.2668016926	 0.8552989084	-0.296086
N	-4.8989115133	-0.1948445323	-0.612697396	-0.357722
C	-3.2343075113	-2.0757036303	 0.0223519413	-0.294594
C	-1.7266586242	-1.9421420291	-0.3219282058	-0.320204
H	 0.9207844951	 1.7074966525	 0.1926174542	 0.289776
H	 0.4202110929	-0.2065828928	-1.0530041393	 0.095377
H	 0.6066385633	-0.5358111044	 0.6700490893	 0.095468
H	-2.5344509453	 1.2641859196	 0.5018686683	 0.105015
H	-5.6672076653	-1.048802304	 1.2239321252	 0.112172
H	-5.0418161656	 0.6570837235	 1.4285185636	 0.1073
H	-4.7694552208	 0.7726406794	-0.9026365458	 0.226171
H	-3.3579176576	-2.6261870352	 0.9604128002	 0.104656
H	-3.8061368324	-2.5984243508	-0.7469365863	 0.116117
H	-1.5203537937	-2.1616531309	-1.3786450904	 0.10864
H	-1.1077403918	-2.6379941603	 0.2577555714	 0.101307
74.7737	90.5615	142.6021	165.7725	232.7883	309.4155	363.3352	386.0207	424.2341	494.1866	523.3267	645.2419	750.5622	831.0688	847.8036	875.4128	913.8324	915.9852	952.3242	973.4439	985.6184	1007.9241	1061.6244	1075.0403	1082.3078	1132.7823	1155.793	1176.7746	1213.1498	1229.4058	1252.3051	1265.8485	1273.5432	1292.6337	1331.3325	1342.1889	1405.1893	1466.0797	1480.3524	1498.3645	1506.5671	1510.5279	1719.6608	2934.9272	2945.9747	3010.8807	3039.6749	3057.6535	3094.2726	3113.6315	3177.583	3210.5598	3482.542	3839.4612
OCC1=CC2(CN2)CC1	OCC1=C[C@]2(CN2)CC1	
InChI=1S/C7H11NO/c9-4-6-1-2-7(3-6)5-8-7/h3,8-9H,1-2,4-5H2	InChI=1S/C7H11NO/c9-4-6-1-2-7(3-6)5-8-7/h3,8-9H,1-2,4-5H2/t7-/m0/s1
