23
gdb 72657	1.96868	1.84942	1.50689	1.6622	84.09	-0.2391	0.0786	0.3178	1074.3158	0.206198	-388.307764	-388.298926	-388.297982	-388.340435	35.429	
C	-0.2830520898	 1.5318236642	 0.0989092121	-0.486339
C	-0.0662054426	 0.0290884992	 0.0261058769	 0.251812
C	 1.1326446284	-0.4509835843	-0.8213827636	-0.1165
O	 1.690897133	-1.1992194392	 0.2743451573	-0.337982
C	 0.6689236716	-0.7235998113	 1.1998712018	 0.415587
C	 1.2907794768	 0.0550046478	 2.3424032618	-0.463947
C	-0.2449327309	-1.8781962172	 1.6217069852	-0.2402
C	-1.0893244405	-2.1737863448	 0.3705765357	-0.224299
C	-1.356573617	-0.7765929123	-0.2209377689	-0.265307
H	 0.6481225562	 2.0707879399	 0.3001299489	 0.116472
H	-0.6832161333	 1.9104119467	-0.8491828854	 0.116755
H	-1.0010167917	 1.7942112522	 0.8838915096	 0.114337
H	 0.8946628424	-1.0917113194	-1.6808910177	 0.092135
H	 1.8087558478	 0.3480301032	-1.156028213	 0.089967
H	 1.9422808561	 0.850762552	 1.9709531344	 0.117659
H	 0.5219030907	 0.5032493248	 2.9805144186	 0.111906
H	 1.8992804814	-0.6123835477	 2.962054543	 0.123697
H	 0.3377566004	-2.7362753063	 1.9698956747	 0.10332
H	-0.8869481221	-1.5502819981	 2.4494473253	 0.090446
H	-0.5057944636	-2.7794895076	-0.3304860457	 0.112573
H	-2.0082365222	-2.7236207039	 0.5907036266	 0.092127
H	-2.1861453443	-0.2984728147	 0.3158188915	 0.092421
H	-1.6336392966	-0.8027205432	-1.2804318193	 0.09336
110.4032	202.1549	212.625	232.5169	257.9657	283.5385	329.3462	359.2441	378.2621	457.6506	553.8222	581.8057	617.1025	669.1028	808.0883	840.3255	895.3264	902.7184	913.6134	930.9208	960.953	979.0306	1008.7977	1018.124	1029.758	1075.0566	1107.7224	1157.6634	1175.3207	1195.3899	1208.9759	1231.9551	1254.3876	1260.1599	1283.2973	1333.2606	1342.6721	1348.9198	1374.1565	1405.4618	1415.8169	1469.8469	1479.3585	1485.9225	1490.1639	1496.2734	1501.6661	1503.9976	1528.0964	2993.2298	3020.9091	3025.9393	3027.2777	3034.3042	3035.4486	3051.5888	3071.9338	3085.4086	3088.6989	3099.034	3100.5904	3103.1712	3114.1821
CC12COC1(C)CCC2	C[C@@]12CO[C@]1(C)CCC2	
InChI=1S/C8H14O/c1-7-4-3-5-8(7,2)9-6-7/h3-6H2,1-2H3	InChI=1S/C8H14O/c1-7-4-3-5-8(7,2)9-6-7/h3-6H2,1-2H3/t7-,8-/m1/s1
