19
gdb 106019	2.60643	1.57273	1.22684	3.2834	79.16	-0.2316	0.0117	0.2432	1091.4133	0.159395	-385.868656	-385.860529	-385.859585	-385.901584	31.221	
C	-0.2676737075	 1.4939971161	-0.033091263	-0.378407
C	 0.1451150357	 0.0158676725	 0.0160330014	-0.312006
C	 0.8047411864	-0.4344587495	-1.254748589	 0.229065
C	 0.0396338009	-0.9001857043	-2.5066576845	-0.109485
C	 0.9578622868	-0.7392861126	-3.7228341678	-0.243286
C	 2.0938755243	-1.2575979714	-2.7957586893	-0.190356
C	 0.9770772619	-1.8595173535	-1.8465431552	-0.138786
C	 2.2040930092	-0.16356798	-1.7162230731	 0.394689
O	 3.1176127362	 0.4617936866	-1.2500883864	-0.352487
H	 0.6053357598	 2.1301985785	-0.2053048629	 0.140938
H	-0.9840377108	 1.6774327173	-0.8405077591	 0.114823
H	-0.7320531591	 1.8017438918	 0.9084633041	 0.113157
H	 0.8395540581	-0.1412773414	 0.8499616737	 0.116673
H	-0.7314381963	-0.6129868628	 0.2161223892	 0.099657
H	-1.0436630763	-0.9051505271	-2.4820489404	 0.096991
H	 0.7088476571	-1.4627556658	-4.5038269913	 0.109501
H	 1.0848930539	 0.2565171665	-4.1619920613	 0.104117
H	 2.9780102098	-1.7614484518	-3.1756906099	 0.092462
H	 0.8710322898	-2.8039331591	-1.3352572553	 0.112742
63.9721	142.9476	165.7534	192.0143	277.1052	350.5011	436.9096	451.2922	597.0516	654.5143	724.5102	769.4833	788.874	806.6557	833.5979	853.1209	889.1078	933.2859	941.6329	979.7639	994.8952	1006.0642	1053.9736	1095.4224	1097.3538	1109.4229	1141.4491	1169.9971	1198.7852	1231.8087	1279.6016	1285.6072	1331.1791	1352.8225	1407.6069	1422.1386	1480.0757	1498.6245	1499.7517	1509.0726	1865.8587	3024.8886	3038.7133	3039.6669	3060.4481	3101.1547	3108.6723	3118.1522	3165.901	3184.373	3240.6861
CCC12C3CC(C13)C2=O	CC[C@]12[C@H]3C[C@H]([C@@H]13)C2=O	
InChI=1S/C8H10O/c1-2-8-5-3-4(6(5)8)7(8)9/h4-6H,2-3H2,1H3	InChI=1S/C8H10O/c1-2-8-5-3-4(6(5)8)7(8)9/h4-6H,2-3H2,1H3/t4-,5+,6-,8+/m1/s1
