16
gdb 53403	2.2252	1.22248	0.86313	2.0336	77.7	-0.2623	0.0057	0.268	1343.0557	0.122832	-400.71263	-400.703229	-400.702285	-400.749005	31.637	
C	 0.0913711662	 1.5334243608	-0.116669237	-0.501287
C	 0.0839388	 0.0836976747	-0.007779235	 0.070775
C	 0.0708386674	-1.1168493072	 0.0838503609	 0.134519
C	 0.0393346968	-2.5602512484	 0.1820991262	-0.089743
O	 0.0356166496	-3.06452649	 1.543184215	-0.262961
C	-1.2916151346	-3.6001330206	 1.419633581	-0.075728
C	-1.3366730017	-3.2743670769	-0.0955972963	-0.229923
C	-2.4453130881	-2.481057937	-0.5878181609	 0.296058
N	-3.3383746962	-1.857395761	-0.9743191105	-0.323691
H	 0.917702506	 1.8812903739	-0.7455311969	 0.154219
H	-0.8440687572	 1.8967971403	-0.5548783481	 0.164511
H	 0.2017742396	 1.9976496785	 0.8691799341	 0.158431
H	 0.8642317726	-3.0057907347	-0.3858882556	 0.11595
H	-1.3369568549	-4.663911712	 1.6724980695	 0.121396
H	-2.0222547141	-3.045984644	 2.018946858	 0.129037
H	-1.2111269714	-4.1568509565	-0.7255859544	 0.138439
34.8013	45.2902	64.8626	133.9398	173.7545	227.5639	312.9867	330.7903	439.8073	484.5661	541.4166	595.8525	699.5325	795.0759	877.7501	940.9505	963.6088	1017.9336	1049.7603	1052.9723	1062.8906	1092.0997	1163.6189	1192.8595	1203.242	1255.0528	1333.7904	1350.7487	1372.6149	1412.0413	1473.692	1475.4895	1525.1034	2360.634	2369.7577	3032.894	3033.6402	3038.9079	3085.559	3096.6813	3099.0753	3103.25
CC#CC1OCC1C#N	CC#C[C@H]1OC[C@H]1C#N	
InChI=1S/C7H7NO/c1-2-3-7-6(4-8)5-9-7/h6-7H,5H2,1H3	InChI=1S/C7H7NO/c1-2-3-7-6(4-8)5-9-7/h6-7H,5H2,1H3/t6-,7-/m1/s1
