19
gdb 103518	3.03344	1.30844	1.2424	2.2863	76.1	-0.2305	0.0187	0.2492	1098.3096	0.159459	-423.012518	-423.004185	-423.003241	-423.04496	33.131	
O	-0.1096992364	 1.4927674828	 0.1497092412	-0.437076
C	 0.042141596	 0.0759260262	 0.0533011772	-0.128234
C	-1.3744479638	-0.5003784971	-0.0459281699	 0.372476
O	-2.10872121	-0.0543375388	 1.0952506904	-0.489112
C	-2.0816620672	-0.1355270646	-1.3456057358	-0.14034
C	-2.6011461803	-1.207521701	-1.9477025803	-0.085284
C	-2.2640946656	-2.4685963085	-1.22605118	-0.08273
C	-0.7821625056	-2.7931723175	-1.1791170308	-0.297757
C	-1.4203844172	-2.0274925103	-0.0476297497	-0.080977
H	 0.7282400372	 1.8759952021	 0.4222168098	 0.294789
H	 0.6399626404	-0.1987439297	-0.8254004827	 0.093411
H	 0.5280342223	-0.3286123226	 0.9523756768	 0.095429
H	-1.8813853371	 0.8793104125	 1.1970997872	 0.281739
H	-2.1279896695	 0.887003304	-1.7001413743	 0.10086
H	-3.1651229104	-1.1964030301	-2.8740861295	 0.096203
H	-2.9838222452	-3.2761691464	-1.156759175	 0.089302
H	-0.4954223258	-3.8187586751	-0.9678044328	 0.109539
H	-0.1339483236	-2.2797107079	-1.8812055152	 0.111976
H	-1.5108627482	-2.5015607781	 0.9217501833	 0.095787
123.7323	154.2755	186.1504	246.6573	300.2776	372.7673	383.9228	404.2332	445.4479	464.4061	601.2419	671.9781	734.1877	779.269	794.5304	816.2149	860.2101	914.5803	945.3021	966.7706	995.6468	1017.2586	1047.1293	1070.7572	1076.4236	1085.547	1102.2112	1117.361	1140.2805	1169.1542	1191.8594	1242.7164	1274.9543	1304.0126	1361.5952	1368.3403	1415.2587	1442.1308	1481.2325	1505.3292	1662.7769	2997.5781	3044.0883	3123.695	3173.1917	3186.6631	3191.8291	3212.3526	3216.7054	3766.6544	3843.3992
OCC1(O)C=CC2CC12	OC[C@@]1(O)C=C[C@H]2C[C@@H]12	
InChI=1S/C7H10O2/c8-4-7(9)2-1-5-3-6(5)7/h1-2,5-6,8-9H,3-4H2	InChI=1S/C7H10O2/c8-4-7(9)2-1-5-3-6(5)7/h1-2,5-6,8-9H,3-4H2/t5-,6+,7-/m0/s1
