20
gdb 8207	2.70307	2.28187	1.59914	1.2031	74.41	-0.2476	0.0801	0.3277	896.5637	0.177717	-349.013657	-349.005739	-349.004795	-349.045059	31.692	
C	-0.0146901223	 1.5074120371	 0.0423832189	-0.476917
C	-0.010904425	-0.0012700592	 0.0368132078	 0.316912
C	 1.2938477712	-0.7378137114	-0.2416291534	-0.407667
C	 0.6567865083	-0.805666899	 1.1271648671	 0.382427
O	 1.261427414	-0.1340767754	 2.1935410884	-0.474959
C	-0.2078827078	-2.0168842924	 1.4451876492	-0.26875
C	-1.122761712	-2.1736639059	 0.2108525248	-0.228713
C	-1.2863535925	-0.7417370486	-0.3538735307	-0.260434
H	 0.8884115558	 1.8958757705	 0.5204112795	 0.125506
H	-0.0665665581	 1.9114000824	-0.9753098494	 0.110062
H	-0.8767052404	 1.8950350391	 0.5978951985	 0.112282
H	 1.3082046222	-1.6122780655	-0.8853340417	 0.102252
H	 2.1769295041	-0.1114030989	-0.3161962188	 0.105704
H	 2.062629042	-0.612314849	 2.4317157595	 0.280833
H	 0.3709904779	-2.9239146317	 1.6561807059	 0.085826
H	-0.7914049333	-1.7839550605	 2.3439096542	 0.105086
H	-0.645789869	-2.8211042192	-0.5318380466	 0.103435
H	-2.0818362463	-2.6358293009	 0.4582200371	 0.098183
H	-2.1411024952	-0.2395899454	 0.1176488819	 0.096139
H	-1.4715015936	-0.7403543061	-1.434107682	 0.092792
187.0601	199.0616	221.496	242.104	277.0676	339.551	372.4284	446.599	505.6602	514.526	600.3443	685.8234	710.168	809.6414	890.4737	901.4186	911.0307	934.6621	946.846	976.856	1024.0769	1037.1712	1057.5693	1101.2524	1127.3646	1180.4207	1225.8148	1234.3567	1258.9401	1271.7181	1310.1769	1314.9711	1341.1902	1361.8904	1408.7782	1419.8697	1483.9502	1488.0771	1493.5887	1494.1819	1502.6616	1521.6543	3020.2351	3025.5286	3028.2197	3048.7669	3063.2111	3068.6598	3080.6048	3099.7947	3114.4882	3119.6893	3206.5079	3800.6368
CC12CC1(O)CCC2	C[C@@]12C[C@]1(O)CCC2	
InChI=1S/C7H12O/c1-6-3-2-4-7(6,8)5-6/h8H,2-5H2,1H3	InChI=1S/C7H12O/c1-6-3-2-4-7(6,8)5-6/h8H,2-5H2,1H3/t6-,7-/m1/s1
