17
gdb 76470	3.0101	1.41973	1.18839	1.8665	69.08	-0.2225	0.0431	0.2656	1058.8277	0.134613	-458.842495	-458.834538	-458.833594	-458.874926	30.885	
O	 0.1335550568	 1.3935792779	 0.0196318044	-0.438104
C	 0.0786112266	-0.001622027	-0.0156665416	-0.016242
C	-0.4482741064	-0.7189176985	 1.2321303486	-0.089142
O	-0.918378961	 0.1312185514	 2.2508516184	-0.426552
C	-1.2436050432	-0.7021509924	-0.0224245493	 0.384874
C	-2.6890181242	-0.2630660422	-0.2903882241	-0.026351
C	-2.517603557	-0.6938183419	-1.7692298882	-0.219181
C	-1.9383586405	-1.7967043273	-0.8468876241	-0.061998
O	-3.129268431	-1.6486067542	 0.0250341445	-0.309295
H	-0.3327919615	 1.6522640714	 0.8276410157	 0.283348
H	 0.9185563371	-0.4254923119	-0.5595573918	 0.103297
H	 0.0115921227	-1.6458347419	 1.5713523892	 0.09649
H	-0.1885188885	 0.290320504	 2.8605056332	 0.297254
H	-3.2538777094	 0.5602997111	 0.142895623	 0.106669
H	-3.4441272962	-0.964533226	-2.2767035416	 0.107107
H	-1.8245145339	-0.1229341215	-2.3908900845	 0.110095
H	-1.6042777803	-2.806989701	-1.083347712	 0.097733
116.318	148.5761	149.9731	248.1376	287.5853	370.4243	407.5477	507.4018	545.4152	619.7312	648.7653	702.3923	748.3935	811.4991	819.7162	872.8122	920.2877	933.7764	973.8896	1028.431	1048.002	1074.2011	1090.1501	1104.8632	1127.1275	1150.6461	1160.9112	1172.0986	1207.2577	1230.4912	1256.9777	1263.3094	1310.4842	1355.1845	1415.7916	1478.0523	1508.4985	3070.1949	3113.1072	3121.0335	3141.2208	3146.5855	3154.5119	3732.3642	3794.0444
OC1C(O)C11C2CC1O2	O[C@H]1[C@@H](O)[C@]21[C@H]1C[C@@H]2O1	
InChI=1S/C6H8O3/c7-4-5(8)6(4)2-1-3(6)9-2/h2-5,7-8H,1H2	InChI=1S/C6H8O3/c7-4-5(8)6(4)2-1-3(6)9-2/h2-5,7-8H,1H2/t2-,3+,4-,5+,6-/m0/s1
