15
gdb 29668	3.20362	1.40331	0.98184	2.6004	73.94	-0.2116	-0.0655	0.1462	1122.5623	0.112478	-453.979688	-453.971351	-453.970407	-454.013174	29.694	
C	 0.069303774	 1.4616351173	-0.052889665	-0.345938
N	 0.0593153725	 0.0091970121	 0.0091573983	-0.17983
C	 0.0973783724	-0.7700442749	-1.1247201782	 0.46786
N	 0.1439490328	-0.3666125536	-2.321054249	-0.600714
O	 0.0741287035	-2.1020096192	-0.6868561237	-0.205666
C	 0.0238487004	-2.092411044	 0.6681242918	-0.086193
C	 0.0133064835	-0.8215497295	 1.1313273611	 0.191888
C	-0.0366909176	-0.4392473565	 2.5311447535	 0.083736
O	-0.0468435936	 0.6949475885	 2.9637489893	-0.293913
H	 0.9762355771	 1.8054653791	-0.558827665	 0.147548
H	-0.7933590318	 1.8147539481	-0.6254583103	 0.147577
H	 0.0330972932	 1.8483478094	 0.9629187623	 0.178128
H	 0.1642538336	-1.1420969831	-2.9766138698	 0.233106
H	 0.0001010286	-3.04289813	 1.1742591928	 0.173625
H	-0.0664733688	-1.3182275037	 3.2091422718	 0.088785
67.8496	104.825	166.4326	193.7589	206.5096	296.0434	377.6426	439.574	518.5392	593.9353	679.3309	714.6923	723.4086	735.9508	754.9306	823.6823	944.0337	1002.2046	1019.9511	1118.9596	1166.3425	1194.1346	1231.6197	1261.153	1365.1248	1423.5411	1443.477	1483.3089	1490.3426	1525.5624	1647.2557	1770.0979	1796.9506	2907.6167	3048.5631	3105.6205	3187.816	3286.6355	3554.6348
CN1C(=N)OC=C1C=O	CN1[C@H]([NH])OC=C1C=O	
InChI=1S/C5H6N2O2/c1-7-4(2-8)3-9-5(7)6/h2-3,6H,1H3	InChI=1S/C5H7N2O2/c1-7-4(2-8)3-9-5(7)6/h2-3,5-6H,1H3/t5-/m0/s1
