14
gdb 24475	4.02188	1.67112	1.18058	3.0096	80.26	-0.216	-0.055	0.161	953.9705	0.105157	-399.601415	-399.595511	-399.594567	-399.631559	23.983	
O	-0.0330878252	 1.3150013645	 0.0096111882	-0.176986
C	 1.0910176363	 2.0759870558	 0.0027973441	 0.053379
C	 2.3414578691	 1.5564010025	-0.0120647606	-0.28403
C	 2.4877151561	 0.1448445881	-0.0210038916	 0.306722
C	 3.5073971895	-0.7815291419	-0.0358199137	-0.33398
C	 2.8503934185	-2.0548646353	-0.0362100037	-0.023363
N	 1.5234358161	-1.9987868888	-0.0231020929	-0.346824
C	 1.2575826379	-0.6508722064	-0.0133515257	 0.190632
C	 0.0551167082	-0.026043911	 0.001607897	-0.012151
H	 0.8458346408	 3.1283697966	 0.0107738419	 0.14399
H	 3.1878393542	 2.2335191311	-0.0166466928	 0.119505
H	 4.572469227	-0.6036363046	-0.0451923799	 0.099712
H	 3.3531400053	-3.0168090801	-0.0462022145	 0.105691
H	-0.913339844	-0.5083457606	 0.0084072142	 0.157704
211.7545	245.4874	407.4844	410.6595	555.1697	559.1454	608.4766	635.7461	767.1152	783.2354	783.567	822.9655	874.1061	894.7112	912.6264	932.3379	949.3722	999.9769	1034.8453	1150.0825	1206.8959	1237.2438	1285.8795	1325.0148	1334.2258	1397.1141	1406.8261	1444.3026	1573.1485	1622.7365	1675.755	3188.6148	3198.9245	3232.9388	3243.3979	3246.7094
O1C=CC2=CC=NC2=C1	o1ccc2ccnc2c1	
InChI=1S/C7H5NO/c1-3-8-7-5-9-4-2-6(1)7/h1-5H	InChI=1S/C7H5NO/c1-3-8-7-5-9-4-2-6(1)7/h1-5H
