23
gdb 100814	3.57019	0.80016	0.68904	1.506	88.87	-0.2525	0.0556	0.308	1685.0017	0.201573	-388.25485	-388.243393	-388.242449	-388.291816	41.216	
C	 0.0120343882	 1.38433006	 0.0893376013	-0.238901
O	-0.035481031	-0.0164393724	-0.0374207195	-0.248512
C	 0.6635469518	-0.5444898034	-1.1615763449	 0.145222
C	 2.1636030571	-0.6315300221	-0.8600540296	-0.415113
C	 0.0017735441	-1.9013876782	-1.4746775902	 0.020132
C	-1.4917588	-1.7261347444	-1.7733576537	-0.40293
C	 0.7236948278	-2.6274665292	-2.6378780455	-0.37797
C	 0.1709763401	-3.9443294203	-2.9337870765	 0.299039
C	-0.2803969775	-5.0348929644	-3.1625642349	-0.435114
H	 1.0287781878	 1.7629772321	 0.2719469836	 0.10474
H	-0.3851401312	 1.8876404881	-0.8062007502	 0.103996
H	-0.6112003614	 1.6503489368	 0.947038778	 0.127135
H	 0.5074893946	 0.1258391656	-2.0260408509	 0.059092
H	 2.5405534832	 0.3307013941	-0.5022749043	 0.117
H	 2.3563418605	-1.3796282147	-0.0843245275	 0.124336
H	 2.743950541	-0.891143608	-1.7496243871	 0.119444
H	 0.1091882997	-2.5213433491	-0.5750649134	 0.09124
H	-1.9890478648	-1.2241247089	-0.9425089805	 0.129851
H	-1.6387895143	-1.1201369575	-2.6763890775	 0.102548
H	-1.9689281234	-2.6945884099	-1.9413886506	 0.126849
H	 0.6723642924	-2.002227502	-3.5408508582	 0.124548
H	 1.7877135294	-2.7447910739	-2.406575181	 0.131076
H	-0.6755649141	-5.9974559984	-3.3732455169	 0.192291
53.8574	67.2232	82.3254	126.9756	186.7251	203.7223	224.6657	248.686	296.8706	319.1253	351.7641	381.8012	394.8452	438.2857	502.5433	578.9223	612.8604	634.2431	820.891	856.0971	889.6277	915.0168	967.9069	989.657	1042.2258	1102.1348	1114.8786	1131.032	1145.8982	1180.8238	1190.6374	1213.8131	1253.4232	1292.2675	1337.9004	1356.4922	1372.3716	1391.5412	1403.3829	1408.4082	1470.4592	1478.4858	1485.6363	1492.6285	1497.3848	1503.2513	1506.8758	1512.1062	2236.7794	2940.0088	2975.6668	3007.9697	3021.5268	3026.1216	3036.	3041.1847	3068.2435	3108.3287	3109.092	3112.5846	3115.7921	3145.3039	3506.9049
COC(C)C(C)CC#C	CO[C@@H](C)[C@@H](C)CC#C	
InChI=1S/C8H14O/c1-5-6-7(2)8(3)9-4/h1,7-8H,6H2,2-4H3	InChI=1S/C8H14O/c1-5-6-7(2)8(3)9-4/h1,7-8H,6H2,2-4H3/t7-,8-/m0/s1
