21
gdb 120167	3.13911	1.05097	0.91832	2.5917	80.1	-0.231	0.0799	0.3109	1367.3999	0.180578	-424.14874	-424.139343	-424.138399	-424.183445	34.686	
C	 0.8817722337	 1.3025333727	-0.0596582327	-0.223381
O	 0.9858393134	-0.0737430367	-0.3340858369	-0.23162
C	-0.1299934601	-0.5808636917	-1.0422812041	-0.119281
C	 0.068829673	-2.075247845	-1.192543322	-0.009815
C	-0.5936415801	-2.9237795743	-2.3095613768	 0.017024
C	 0.3464116223	-2.314696912	-3.3726534301	-0.27483
C	 1.1775737111	-2.6790380065	-2.1104431524	 0.415404
C	 2.6582188851	-2.7060317307	-1.9040875288	-0.510488
O	 0.4226723469	-3.9680906619	-2.0600603954	-0.34466
H	 0.8180513157	 1.901338381	-0.9825186095	 0.102701
H	-0.0027921624	 1.5304761303	 0.5561842038	 0.104728
H	 1.7794625813	 1.5963369252	 0.4898378547	 0.128141
H	-1.0607236773	-0.3823467425	-0.4827214205	 0.088042
H	-0.2278447392	-0.0685949725	-2.0121195693	 0.086624
H	 0.0384253553	-2.5761097737	-0.221658172	 0.08611
H	-1.629688361	-3.2495956082	-2.4054394043	 0.090059
H	 0.5306039539	-2.9586607387	-4.2336384036	 0.105033
H	 0.2347527062	-1.2652377787	-3.6523309904	 0.09392
H	 3.0454700974	-1.683385082	-1.8847178257	 0.136192
H	 2.8972973647	-3.1795452875	-0.9472494477	 0.134393
H	 3.1548097901	-3.2622042366	-2.704913166	 0.125705
59.5586	90.5405	108.7182	176.714	228.1914	258.3757	305.2582	326.0135	379.5577	412.9799	561.6176	625.7489	659.2864	704.4611	795.6106	864.7221	878.7631	917.6595	967.4728	994.209	1011.0106	1021.0244	1068.1982	1103.4035	1132.2772	1142.569	1162.4858	1185.1367	1186.8783	1207.5689	1227.9202	1233.4283	1253.3921	1272.4529	1312.6276	1379.4486	1409.9922	1437.8575	1473.9929	1480.7951	1485.2486	1487.9187	1493.5731	1507.5517	1529.6776	2952.3279	2969.2555	2992.5247	3011.2464	3042.0626	3072.0704	3089.0909	3113.6362	3115.7761	3116.1104	3123.125	3145.2652
COCC1C2CC1(C)O2	COC[C@H]1[C@H]2C[C@]1(C)O2	
InChI=1S/C7H12O2/c1-7-3-6(9-7)5(7)4-8-2/h5-6H,3-4H2,1-2H3	InChI=1S/C7H12O2/c1-7-3-6(9-7)5(7)4-8-2/h5-6H,3-4H2,1-2H3/t5-,6+,7-/m0/s1
