14
gdb 13576	4.13099	1.30273	1.23226	4.515	65.31	-0.2795	-0.0898	0.1897	1005.787	0.106217	-378.712966	-378.704987	-378.704043	-378.745868	27.918	
C	-0.0639176393	 1.5666550183	-0.292889782	-0.407394
C	-0.0463035854	 0.0907129253	 0.0095715968	 0.012418
N	 1.2323420598	-0.5951515089	-0.0560937393	-0.305625
C	 0.5806021719	-0.4983858384	 1.2595697481	-0.165205
C	 1.2353615599	 0.3704178722	 2.2756346587	 0.339651
O	 2.0237925403	 1.2561058918	 2.0572792571	-0.276248
C	 0.7985787775	 0.0890557031	 3.6643190051	 0.210071
N	 0.456091188	-0.140354497	 4.7447986221	-0.299508
H	 0.8331806598	 2.0531643498	 0.0920432999	 0.166193
H	-0.0994972902	 1.7168739053	-1.3769183449	 0.131274
H	-0.9481572706	 2.0416428102	 0.1437820252	 0.125575
H	-0.9270435657	-0.4595672219	-0.3215166321	 0.105446
H	 1.1354450601	-1.5430191275	-0.410605788	 0.247982
H	 0.090030674	-1.3761094623	 1.6728179632	 0.11537
50.4736	143.9626	167.3788	216.1613	250.5289	296.4411	368.7028	443.2236	485.5594	598.0439	715.2915	796.1468	826.296	857.2117	927.7754	994.7309	1020.0594	1072.09	1090.2597	1147.8419	1192.257	1231.7209	1256.4639	1399.5086	1429.864	1460.6872	1493.1541	1500.4723	1788.9556	2335.843	3043.9497	3105.7486	3108.0074	3145.235	3153.392	3510.653
CC1NC1C(=O)C#N	C[C@H]1N[C@H]1C(=O)C#N	
InChI=1S/C5H6N2O/c1-3-5(7-3)4(8)2-6/h3,5,7H,1H3	InChI=1S/C5H6N2O/c1-3-5(7-3)4(8)2-6/h3,5,7H,1H3/t3-,5-/m1/s1
