19
gdb 107692	3.42806	1.25101	1.08536	1.3111	75.65	-0.2316	0.0684	0.2999	1167.0784	0.157662	-422.93204	-422.923493	-422.922548	-422.965073	32.745	
C	 0.0363622491	 1.4524199966	 0.005448207	-0.523405
C	 0.0586700251	-0.0453624319	-0.0894965524	 0.300811
C	 0.5431161852	-0.976227524	-1.2273948105	-0.359184
C	 0.0606919072	-1.9804377685	-0.1569922899	 0.286345
C	 0.0429210611	-3.4822780543	-0.1586891208	-0.212305
O	 1.3426309838	-4.0467292715	-0.2844183164	-0.412451
C	 0.5357792214	-1.0504273935	 1.0122308108	-0.000541
O	-0.7400839004	-1.0802890772	 1.7190484991	-0.331499
C	-1.0938462448	-1.0326607409	 0.3025927503	-0.004357
H	 1.0451336133	 1.8708033516	-0.0790512248	 0.122284
H	-0.5742802187	 1.8918600677	-0.7905945922	 0.122499
H	-0.3830583994	 1.7603100951	 0.9689139925	 0.135442
H	-0.0295097198	-0.9463467593	-2.1598233828	 0.096012
H	 1.6154139417	-0.972647023	-1.4422125661	 0.102367
H	-0.4682611335	-3.8329015007	 0.7512040203	 0.104577
H	-0.524656801	-3.8524987451	-1.0195971857	 0.112984
H	 1.8401215667	-3.8050914893	 0.5033916923	 0.282897
H	 1.4581380966	-1.0614547523	 1.595959824	 0.086332
H	-2.1490100434	-1.0285603695	 0.0258586353	 0.091192
86.5245	130.582	208.1967	228.8103	251.1147	273.388	314.9788	391.7333	435.8903	554.4131	635.3956	714.3242	732.5546	779.4687	825.1954	843.5967	884.4226	910.5362	936.0095	1010.8969	1021.5712	1044.3195	1078.3445	1082.9408	1104.9578	1121.008	1150.9182	1162.959	1173.6438	1197.4615	1254.2566	1293.9023	1316.653	1373.0483	1391.2507	1409.1519	1422.1898	1489.7677	1490.9719	1492.9401	1521.0698	2989.8628	3029.6524	3046.1883	3067.8312	3095.0545	3099.6946	3102.6094	3103.9905	3112.7409	3816.844
CC12CC3(CO)C1OC23	C[C@@]12C[C@@]3(CO)[C@@H]1O[C@@H]23	
InChI=1S/C7H10O2/c1-6-2-7(3-8)4(6)9-5(6)7/h4-5,8H,2-3H2,1H3	InChI=1S/C7H10O2/c1-6-2-7(3-8)4(6)9-5(6)7/h4-5,8H,2-3H2,1H3/t4-,5+,6-,7-
