18
gdb 121340	3.05815	0.98532	0.81599	2.4264	69.37	-0.2692	0.0188	0.288	1396.4891	0.147654	-476.226039	-476.216978	-476.216034	-476.260849	32.001	
O	-0.0832407927	 1.3562193899	 0.3354016671	-0.420761
C	 0.015831134	-0.0314454572	 0.0583751055	-0.081741
C	-1.3978448093	-0.5991441889	 0.0497925531	-0.186487
C	-1.4176378802	-2.1044953725	-0.2210708607	-0.000481
O	-0.7640353304	-2.8677544964	 0.7997811619	-0.255712
C	-1.7668090225	-3.3539870692	 1.6493589611	 0.014685
O	-2.95575251	-3.47247734	 0.8690849147	-0.234065
C	-2.8231415064	-2.677411512	-0.2322183452	 0.391094
N	-3.7029988424	-2.4530646341	-1.1042756371	-0.536664
H	 0.8065961977	 1.717524903	 0.3816379457	 0.287329
H	 0.4910670712	-0.2127955951	-0.9202713039	 0.086699
H	 0.6164342782	-0.554294451	 0.817105588	 0.101595
H	-1.8773258239	-0.3820445444	 1.0115019944	 0.10888
H	-1.9935682477	-0.1053293232	-0.7246082626	 0.138302
H	-0.9129733187	-2.3261639288	-1.1665250042	 0.118919
H	-1.4818006214	-4.342144102	 2.0211121656	 0.130796
H	-1.9660277846	-2.6716808982	 2.490534402	 0.108416
H	-4.5750820608	-2.9350566197	-0.8826870752	 0.229197
63.6415	95.6183	118.3062	136.2749	176.225	260.4283	275.2784	350.2467	422.838	519.2149	657.0726	677.7144	753.0897	794.9538	885.9208	898.0286	920.2323	997.1321	1025.8636	1031.6969	1078.1566	1086.4891	1124.526	1139.9801	1177.9747	1218.8128	1228.1881	1228.6053	1284.4321	1304.7766	1314.1503	1347.0716	1381.228	1445.0475	1464.2139	1482.4718	1530.4518	1547.2353	1796.3919	2962.6728	2981.4934	3010.3553	3044.1234	3067.973	3090.3917	3100.015	3483.3082	3832.1585
OCCC1OCOC1=N	OCC[C@H]1OCO[C]1[NH]	
InChI=1S/C5H9NO3/c6-5-4(1-2-7)8-3-9-5/h4,6-7H,1-3H2	InChI=1S/C5H9NO3/c6-5-4(1-2-7)8-3-9-5/h4,6-7H,1-3H2/t4-/m1/s1
