20
gdb 16018	3.671	1.78761	1.44824	1.2883	74.75	-0.2432	0.085	0.3282	937.0436	0.179542	-349.003359	-348.996181	-348.995237	-349.034393	28.981	
C	 0.0148454728	 1.5266231245	-0.0104104853	-0.331977
C	 1.3205088995	 0.7638902661	-0.0144176997	-0.296662
C	 0.0072054708	 0.0230413426	 0.0194647463	 0.385392
C	-0.393603389	-0.7189605606	 1.284461206	-0.284924
C	 0.0700307966	-2.1822274988	 1.1945601447	-0.202238
C	-0.3958391443	-2.7990483592	-0.1272699011	-0.060944
O	 0.0576202227	-2.0548230773	-1.2456761074	-0.243531
C	-0.4282960346	-0.7221485398	-1.2277952546	-0.146969
H	-0.2677837644	 2.0560499677	 0.8939368124	 0.108289
H	-0.2876133985	 2.0251396542	-0.9263385737	 0.108847
H	 1.8993695824	 0.7439744667	-0.9319036552	 0.113292
H	 1.9224492443	 0.7808482961	 0.8884864147	 0.108393
H	 0.0224425594	-0.2275178446	 2.1709336995	 0.09125
H	-1.4878354463	-0.6912150048	 1.3915465978	 0.093472
H	 1.1645360896	-2.226788687	 1.2384849714	 0.106112
H	-0.3187669057	-2.7696851	 2.0343248242	 0.090676
H	-0.0016086441	-3.8115053083	-0.2545988682	 0.103265
H	-1.499121619	-2.8619562547	-0.1396527155	 0.079827
H	-1.5319737435	-0.7270803125	-1.2902474077	 0.080216
H	-0.0427948385	-0.2407673404	-2.1320329988	 0.098213
127.4785	202.6278	274.86	304.4481	367.6305	400.7955	456.8728	468.0885	576.9101	721.5939	781.892	845.2613	872.8553	890.4554	900.1563	942.5539	955.8653	971.959	1010.291	1040.36	1046.6807	1057.049	1080.6178	1118.4015	1136.0022	1185.8575	1204.2197	1228.8354	1261.2394	1316.6873	1330.1509	1353.7298	1365.6064	1374.3877	1406.7591	1423.248	1468.7018	1475.8323	1485.2428	1488.8567	1500.6691	1511.7771	2937.4278	2945.8848	3003.2146	3031.5745	3060.1275	3073.5559	3077.2848	3083.7501	3121.6717	3128.1778	3199.1598	3214.4481
C1CC11CCCOC1	C1CC21CCCOC2	
InChI=1S/C7H12O/c1-2-7(3-4-7)6-8-5-1/h1-6H2	InChI=1S/C7H12O/c1-2-7(3-4-7)6-8-5-1/h1-6H2
