18
gdb 96972	3.60591	1.36253	1.29566	2.4664	78.99	-0.2374	-0.0109	0.2265	1058.1169	0.149628	-401.956092	-401.948618	-401.947674	-401.988539	29.046	
C	-0.0466116522	 1.4185678896	 0.0605363634	-0.333552
N	-0.0294524546	-0.0365517961	 0.0934602469	-0.357353
C	-1.1173823441	-0.6661943119	 0.0471839148	 0.477458
O	-2.3816792432	-0.1252039024	-0.0292581686	-0.278379
C	-3.3009141547	-1.2765435563	-0.0937149956	 0.059369
C	-2.6154921538	-2.245513253	 0.8821856937	-0.231893
C	-1.2957841824	-2.1839455131	 0.059657205	-0.170215
C	-1.8348408565	-2.5106536321	-1.3346228853	-0.080169
C	-3.0532886686	-1.9699159695	-1.4271162144	-0.081358
H	 0.6343949907	 1.7630299001	-0.7257115317	 0.121736
H	-1.0366461259	 1.8557531867	-0.1114669441	 0.121973
H	 0.3459436704	 1.8045876916	 1.008822713	 0.122252
H	-4.2998503816	-0.9078807295	 0.1264831311	 0.086959
H	-2.5306350509	-1.8390039868	 1.8936274008	 0.113821
H	-3.0613998918	-3.2405286596	 0.8976089807	 0.112476
H	-0.4214728991	-2.7280454777	 0.4047803463	 0.091959
H	-1.2590735944	-3.0021902212	-2.1072369291	 0.115784
H	-3.7042459172	-1.918379469	-2.288862887	 0.109132
53.9045	110.2683	226.7179	275.0007	388.5488	460.9884	490.5187	521.1557	669.36	704.0651	742.0207	775.3396	827.7209	856.7044	892.0845	907.349	927.1751	946.7288	971.243	977.2286	1019.8027	1037.9563	1088.3898	1124.4137	1130.2209	1148.1487	1181.0775	1201.9142	1257.6958	1273.5829	1285.735	1333.1699	1345.2163	1437.0092	1488.9616	1493.7115	1496.9866	1634.5394	1808.3344	3015.5821	3070.6758	3074.8513	3087.6139	3140.7365	3154.2058	3167.8908	3215.8882	3240.7581
CN=C1OC2CC1C=C2	CN=C1O[C@@H]2C[C@H]1C=C2	
InChI=1S/C7H9NO/c1-8-7-5-2-3-6(4-5)9-7/h2-3,5-6H,4H2,1H3	InChI=1S/C7H9NO/c1-8-7-5-2-3-6(4-5)9-7/h2-3,5-6H,4H2,1H3/t5-,6+/m1/s1
