15
gdb 45243	3.57932	1.68949	1.51415	2.8155	62.9	-0.257	-0.0053	0.2517	868.0242	0.11572	-457.775183	-457.769383	-457.768438	-457.805322	24.079	
O	-0.0737203614	-0.0428111068	-0.296764867	-0.339782
C	-0.0165006847	 1.1247335264	-0.0489305014	 0.434257
O	-1.1318098721	 1.9055914873	 0.132606144	-0.236119
C	-0.684888257	 3.2069160254	 0.5689662138	 0.05536
C	-0.0414351355	 3.0361303406	 1.9687513375	-0.235949
C	 1.3841918194	 2.8140043555	 1.435928906	 0.059243
O	 1.5720331564	 4.0530799183	 0.6807987351	-0.292732
C	 0.6386251929	 3.459229189	-0.240271359	 0.07708
C	 1.1729773227	 2.0480343784	 0.0706480084	-0.203904
H	-1.508632398	 3.90731231	 0.4621162247	 0.103771
H	-0.0715707608	 3.9406544435	 2.5781276034	 0.125758
H	-0.4858164865	 2.2002664304	 2.512279586	 0.12793
H	 2.197641512	 2.5695651853	 2.115574774	 0.102925
H	 0.5936742697	 3.9138240376	-1.2281220695	 0.106454
H	 2.085360033	 1.717241099	-0.4158041461	 0.115709
158.8059	316.3484	421.6954	462.8721	542.7779	582.608	656.7156	679.6104	795.1979	833.6778	856.0366	877.9736	896.4487	915.4181	928.9809	958.4919	974.2206	1007.4539	1031.1545	1049.1718	1119.5362	1136.5809	1163.2871	1177.2414	1209.4983	1239.851	1277.089	1298.1536	1309.8123	1323.2185	1359.317	1476.4842	1892.9711	3083.5561	3142.4027	3145.5896	3151.3346	3164.0334	3179.5979
O=C1OC2CC3OC2C13	O=C1O[C@H]2C[C@@H]3O[C@H]2[C@H]13	
InChI=1S/C6H6O3/c7-6-4-2-1-3(9-6)5(4)8-2/h2-5H,1H2	InChI=1S/C6H6O3/c7-6-4-2-1-3(9-6)5(4)8-2/h2-5H,1H2/t2-,3-,4+,5+/m0/s1
