15
gdb 132572	3.18268	1.39288	0.97556	2.7355	73.07	-0.2239	-0.0286	0.1953	1142.5631	0.112927	-458.160496	-458.152389	-458.151445	-458.193541	29.971	
C	-0.0004900881	 1.4899985928	 0.0270006304	-0.460639
C	 0.0022188389	-0.0115368703	-0.0122186938	 0.334875
N	-0.1010579856	-0.61924329	-1.1919384981	-0.278255
C	-0.1030619536	-1.9562112327	-1.1971917506	-0.053799
C	-0.0057439738	-2.7267477063	-0.041077114	 0.130591
N	-0.0702342088	-4.1126374153	 0.0001824906	-0.601473
C	 0.1069297083	-1.9565569774	 1.1253509083	 0.297984
F	 0.2265268619	-2.6150853079	 2.2823496134	-0.078717
N	 0.1130271559	-0.6567868146	 1.1661650139	-0.329615
H	 0.9114780126	 1.8636228402	 0.5036176906	 0.137868
H	-0.0719630755	 1.8901378832	-0.9845236066	 0.136577
H	-0.8436065393	 1.8567092737	 0.6217470223	 0.138782
H	-0.1866264615	-2.4428110223	-2.1676692858	 0.108402
H	 0.23070631	-4.5813572802	-0.8418871898	 0.255732
H	 0.3299573887	-4.5214933529	 0.8318453893	 0.261687
55.0513	125.4057	228.6569	280.6914	304.6665	308.7147	376.7196	458.1852	491.2265	547.8242	569.9129	605.733	669.0587	753.6933	789.6518	813.351	942.9486	958.7136	1035.041	1063.7216	1103.2363	1246.0719	1275.1764	1304.4663	1378.7677	1400.5929	1441.4031	1476.921	1479.2075	1513.1632	1593.2791	1635.6377	1665.7979	3044.5205	3099.5196	3141.1289	3154.7724	3566.9533	3669.5615
CC1=NC=C(N)C(F)=N1	Cc1ncc(N)c(F)n1	
InChI=1S/C5H6FN3/c1-3-8-2-4(7)5(6)9-3/h2H,7H2,1H3	InChI=1S/C5H6FN3/c1-3-8-2-4(7)5(6)9-3/h2H,7H2,1H3
