18
gdb 117401	7.2314	0.55647	0.5217	1.4472	74.98	-0.2625	-0.0192	0.2433	2072.6372	0.144176	-476.247457	-476.236917	-476.235973	-476.284514	35.262	
C	 0.167945287	 1.3160682088	-0.0434411075	-0.318585
N	 0.0562139971	-0.1246208229	-0.1640367992	-0.189965
C	-1.0813405574	-0.6252283115	-0.0035928401	 0.111644
O	-1.2157240678	-1.9899967592	-0.1125703581	-0.225029
C	-2.4634424556	-2.531567709	 0.0640734358	 0.457314
O	-3.4477733348	-1.8862890526	 0.3085182684	-0.339908
C	-2.4006112602	-4.027522452	-0.094148244	-0.316425
C	-3.7589253984	-4.6899604963	 0.0914859772	-0.071889
O	-3.559987333	-6.0831003119	-0.0817544079	-0.420917
H	 0.8880019843	 1.556061323	 0.7463111732	 0.135902
H	 0.5707011119	 1.7248476915	-0.9764294941	 0.135903
H	-0.78254398	 1.8238441151	 0.181370629	 0.106302
H	-2.0163991416	-0.107188408	 0.2193894557	 0.132802
H	-1.9924629966	-4.2603236092	-1.0841643573	 0.151129
H	-1.6771283348	-4.4278924049	 0.6250028707	 0.151127
H	-4.1520004733	-4.4530369034	 1.0905234525	 0.105053
H	-4.4713298166	-4.2833607	-0.6405392586	 0.105066
H	-4.4074234901	-6.5229711078	 0.0309612744	 0.290477
46.202	65.4838	87.6789	97.755	119.5511	208.635	214.5393	267.8001	313.5761	331.813	376.3632	405.4384	576.2654	578.9152	732.7663	805.4243	939.6281	991.3152	1028.9793	1063.9495	1070.9619	1090.4035	1118.2981	1141.5599	1173.2868	1189.8418	1210.3011	1258.2715	1300.8029	1352.5143	1376.6563	1447.0972	1454.9956	1471.574	1480.77	1501.4427	1525.4393	1778.5824	1832.0798	2984.2899	2995.2688	3025.0271	3054.2017	3071.0821	3089.1548	3090.5566	3114.3257	3834.8729
CN=COC(=O)CCO	CN=COC(=O)CCO	
InChI=1S/C5H9NO3/c1-6-4-9-5(8)2-3-7/h4,7H,2-3H2,1H3	InChI=1S/C5H9NO3/c1-6-4-9-5(8)2-3-7/h4,7H,2-3H2,1H3
