20
gdb 39131	3.43474	1.38441	1.25584	2.7249	77.83	-0.2321	0.0769	0.309	1078.8187	0.172939	-403.113383	-403.105762	-403.104818	-403.145742	30.137	
C	-0.100550288	 1.4961649579	-0.026005041	-0.261655
C	 1.1651887527	 0.716133152	 0.0222181885	-0.074988
N	-0.1416407163	 0.0300700394	-0.0234978869	-0.09491
C	-0.2568764287	-0.5558789143	-1.37727414	-0.159336
C	 0.8204981064	 0.0973588984	-2.270988662	-0.315947
C	 1.9180897241	 0.5117579169	-1.2756764521	 0.467137
C	 2.9881787164	 1.5406155415	-1.7113470879	-0.355617
C	 3.9869070741	 0.3830304164	-1.5309220235	-0.069958
O	 2.9401548504	-0.5162172751	-1.1149882096	-0.325175
H	-0.4743960768	 1.9594245346	 0.882439395	 0.117419
H	-0.349640749	 2.0354866007	-0.9371045403	 0.107415
H	 1.7377209834	 0.6378157109	 0.9417107586	 0.094663
H	-0.0702584243	-1.6294810663	-1.2765955751	 0.120155
H	-1.274102309	-0.4251308566	-1.7585401111	 0.103824
H	 1.2215743036	-0.5865966041	-3.0213206527	 0.114426
H	 0.4371282104	 0.9782326753	-2.7962287882	 0.10469
H	 2.8779746022	 1.9161285528	-2.7304053941	 0.109553
H	 3.1182432269	 2.3837992225	-1.0305848904	 0.113112
H	 4.4857416575	 0.037375835	-2.4447670362	 0.101674
H	 4.742807334	 0.5206274918	-0.7483631711	 0.103516
73.3528	110.642	210.2394	299.0941	366.8314	401.6713	433.5042	493.4642	658.2529	714.3916	776.7168	795.1812	817.185	858.0257	867.0307	923.8638	936.6282	956.3118	981.9682	1000.5998	1017.4274	1030.0455	1089.8385	1107.3112	1113.0711	1149.5118	1161.3437	1175.5801	1202.059	1211.1734	1238.7785	1262.4334	1264.1883	1273.0378	1312.3267	1346.2564	1355.7458	1385.7077	1470.9128	1488.7814	1497.2522	1511.9523	1533.2264	3015.9536	3050.6783	3052.056	3053.7326	3075.0721	3093.877	3105.437	3118.4939	3129.5092	3155.2524	3188.3367
C1C2N1CCC21CCO1	C1[C@H]2N1CC[C@]12CCO1	
InChI=1S/C7H11NO/c1-3-8-5-6(8)7(1)2-4-9-7/h6H,1-5H2	InChI=1S/C7H11NO/c1-3-8-5-6(8)7(1)2-4-9-7/h6H,1-5H2/t6-,7-,8?/m1/s1
