18
gdb 98698	2.76563	1.08465	0.91104	5.7439	77.77	-0.2599	-0.0317	0.2282	1342.4703	0.146044	-401.976747	-401.967258	-401.966314	-402.012147	33.572	
C	 0.3767410405	 1.5314839281	 0.1459402683	-0.381025
C	 0.4137616873	 0.0165198317	-0.0316887111	-0.291327
C	 0.7719864691	-0.4222118176	-1.4401715342	 0.392082
O	 0.9882705598	 0.3606551532	-2.3378403625	-0.309205
C	 0.8520094009	-1.9072773209	-1.6695628256	-0.122355
C	 0.7673594163	-2.4070521233	-3.0860437845	-0.285172
C	 2.0939018778	-2.4770100508	-2.3785491825	-0.165509
C	 3.1920147428	-1.6317632666	-2.7611300497	 0.308199
N	 4.1156643629	-1.0031401854	-3.0589004829	-0.335317
H	 1.3495884369	 1.973372112	-0.082798906	 0.141022
H	-0.352795262	 1.9847298248	-0.5297816909	 0.134422
H	 0.1085917112	 1.7926341462	 1.173148276	 0.11274
H	 1.1345677114	-0.4518248262	 0.6538842761	 0.129439
H	-0.5537770963	-0.440936384	 0.2218090675	 0.124604
H	 0.4655675029	-2.5373731413	-0.875950978	 0.105198
H	 0.2544030611	-3.3414508704	-3.2781400405	 0.133964
H	 0.6621383638	-1.6336034679	-3.8376563168	 0.166016
H	 2.4103095138	-3.4526981515	-2.0244775924	 0.142224
39.3751	70.9405	111.334	171.5651	192.6196	224.2781	276.1378	310.5999	373.5915	512.8988	554.3671	592.5071	662.4881	766.5608	774.1725	821.1035	847.07	904.3286	961.841	1003.3558	1038.8457	1065.4097	1093.4766	1107.003	1126.6896	1132.82	1150.3408	1216.5114	1276.3321	1354.7874	1380.0707	1409.1818	1415.4747	1448.8129	1468.4792	1492.1314	1497.8737	1799.71	2360.005	3010.2879	3036.6745	3053.9037	3126.0465	3130.6177	3150.0181	3166.0557	3176.6305	3250.3774
CCC(=O)C1CC1C#N	CCC(=O)[C@H]1C[C@H]1C#N	
InChI=1S/C7H9NO/c1-2-7(9)6-3-5(6)4-8/h5-6H,2-3H2,1H3	InChI=1S/C7H9NO/c1-2-7(9)6-3-5(6)4-8/h5-6H,2-3H2,1H3/t5-,6-/m0/s1
