16
gdb 126678	6.78432	0.72669	0.66453	3.8175	67.74	-0.2844	-0.0659	0.2185	1638.2695	0.123019	-471.146514	-471.137979	-471.137035	-471.180967	29.618	
C	-0.0671963744	 1.4838462076	 0.0969435278	-0.387721
C	 0.0198428602	-0.0402354142	-0.0262284943	-0.194281
C	 0.7399573963	-0.4582574884	-1.2952465311	-0.05496
O	 0.7741217468	-1.904489904	-1.3261518707	-0.243533
C	 1.3672592913	-2.4446426994	-2.3675225252	 0.520927
N	 1.9275121189	-1.8283421205	-3.374177181	-0.196521
O	 2.3803855375	-2.8528419057	-4.1569984015	-0.156197
N	 2.0571757378	-4.0583768828	-3.5579531923	 0.059414
N	 1.4488297117	-3.8209431775	-2.4840403493	-0.228126
H	 0.9278329462	 1.9406146074	 0.1236036518	 0.124784
H	-0.6130428423	 1.9228119613	-0.7449549631	 0.124784
H	-0.5879923955	 1.7676250027	 1.0150485562	 0.12801
H	 0.5488763143	-0.4630658444	 0.8348989033	 0.119698
H	-0.9832135558	-0.4807737787	-0.0286605762	 0.119698
H	 0.2258835461	-0.1013973503	-2.1952818356	 0.132012
H	 1.769696551	-0.0835182532	-1.3251193588	 0.13201
55.0993	78.2093	109.8981	154.1174	233.7425	289.1168	336.3397	359.6896	523.8384	652.8103	756.2494	765.4604	777.1639	784.9674	896.515	914.6485	938.3589	1027.228	1054.1306	1062.5109	1107.7675	1153.1313	1187.7765	1270.706	1318.8901	1323.5322	1344.8928	1415.6704	1427.0374	1492.2315	1501.9639	1503.4399	1515.6531	1525.4256	1638.1386	3032.4922	3037.8002	3047.3242	3068.9934	3088.532	3109.3594	3118.0753
CCCOC1=NON=N1	CCCOc1nonn1	
InChI=1S/C4H7N3O2/c1-2-3-8-4-5-7-9-6-4/h2-3H2,1H3	InChI=1S/C4H7N3O2/c1-2-3-8-4-5-7-9-6-4/h2-3H2,1H3
