18
gdb 67990	2.9801	1.66865	1.27858	1.561	74.82	-0.2341	-0.0177	0.2164	1008.1927	0.148429	-401.934438	-401.927039	-401.926095	-401.966018	29.646	
C	-0.0250199767	 1.4842098869	 0.0751546952	-0.472136
C	-0.0139387834	-0.0144923401	-0.0747205004	 0.337624
C	 0.9240626874	-0.6512130341	-1.0891694787	-0.418521
C	 0.277676702	-2.0122369356	-1.4091482303	 0.426286
O	 0.5669342553	-2.7482048911	-2.3139496535	-0.320725
C	-0.7738944027	-2.2333682724	-0.331770054	-0.179208
C	-0.0157691335	-2.1871317282	 1.0299123359	-0.169368
N	-0.3021609428	-0.7267217853	 1.2146135799	-0.182139
C	-1.2577426654	-0.8147313268	 0.0508465974	-0.098177
H	 0.946757926	 1.8468646855	 0.4269364513	 0.126451
H	-0.2430123233	 1.9709850987	-0.8815463927	 0.118168
H	-0.7795593963	 1.7897757782	 0.8042563342	 0.133101
H	 0.9872307158	-0.048222872	-2.0009069929	 0.134231
H	 1.9497016967	-0.7903700102	-0.7286542813	 0.135204
H	-1.4679686688	-3.0483497167	-0.5201068179	 0.093661
H	-0.5427142764	-2.7419625122	 1.8085646406	 0.125935
H	 1.0434017763	-2.4683532026	 1.0443807798	 0.11096
H	-2.2738886001	-0.4383557119	 0.0830458176	 0.098651
109.9778	202.5624	257.6014	294.2537	321.6788	412.9947	456.8808	512.8697	562.7142	642.329	683.3252	758.6597	783.4058	847.2784	876.3651	902.2413	939.8296	950.222	963.4197	1018.5342	1026.9225	1044.4982	1080.3034	1144.2799	1168.4984	1180.0612	1197.6207	1215.205	1241.5461	1252.9195	1305.6604	1322.5626	1389.3887	1418.7018	1451.7298	1486.852	1494.8648	1507.9325	1855.0212	3034.0444	3038.7977	3048.6003	3087.912	3096.9789	3110.7671	3122.088	3153.7914	3178.0782
CC12CC(=O)C3CN1C23	C[C@@]12CC(=O)[C@H]3CN1[C@@H]23	
InChI=1S/C7H9NO/c1-7-2-5(9)4-3-8(7)6(4)7/h4,6H,2-3H2,1H3	InChI=1S/C7H9NO/c1-7-2-5(9)4-3-8(7)6(4)7/h4,6H,2-3H2,1H3/t4-,6-,7+,8?/m1/s1
