19
gdb 110326	2.22794	1.58032	1.10154	2.1874	71.43	-0.2449	0.0716	0.3166	1142.3678	0.15764	-460.110431	-460.101273	-460.100328	-460.144084	34.503	
C	 0.2348313344	 1.0682034862	 0.3325399453	-0.252903
O	-0.3911680404	-0.0916166181	-0.1982281616	-0.263899
C	 0.349368951	-0.6615855228	-1.2459191953	 0.048707
C	 1.4462553505	-1.6738700808	-1.0229341664	-0.20485
C	 1.0821562087	-2.5953048529	 0.1555887353	 0.148304
O	 1.0223531467	-2.0428889386	 1.4470823472	-0.44129
C	-0.2610592428	-2.9854065809	-0.5533189412	-0.34657
C	 0.114194795	-2.0559617326	-1.7088841056	 0.323108
O	-0.0623949243	-2.3668117756	-3.0461148233	-0.457213
H	 1.2133663134	 0.8285362427	 0.7702017304	 0.128239
H	 0.3715939118	 1.8358592245	-0.4420694723	 0.115662
H	-0.424843427	 1.4621587036	 1.1091586656	 0.130904
H	 0.5551316839	 0.0325194968	-2.0625437199	 0.094105
H	 2.4365085502	-1.5436032079	-1.4438765334	 0.090999
H	 1.7614139051	-3.4480173718	 0.2195254	 0.095388
H	 0.3437981397	-1.3582129509	 1.4094471668	 0.290216
H	-0.2804867998	-4.0324012023	-0.863160847	 0.111308
H	-1.1787170596	-2.7474689039	-0.0079301435	 0.101654
H	-0.9588274665	-2.1179465948	-3.2989446611	 0.288133
92.1069	138.2906	172.4723	180.0538	217.7344	266.6952	316.5998	328.0284	435.8978	437.8452	515.6291	530.2486	585.4843	666.8051	774.6226	829.729	872.9659	913.41	963.6841	973.2173	982.9307	1038.2432	1076.6489	1091.5467	1121.8181	1135.8971	1184.221	1205.9455	1221.9299	1240.3651	1246.7783	1303.8466	1315.0404	1315.9795	1339.8448	1443.3704	1454.4175	1478.1048	1488.6467	1500.0434	1510.2095	2994.9281	3053.2168	3057.7121	3086.2868	3097.4651	3120.1962	3120.4754	3180.3701	3788.8523	3789.3079
COC1C2C(O)CC12O	CO[C@H]1[C@H]2[C@@H](O)C[C@@]12O	
InChI=1S/C6H10O3/c1-9-5-4-3(7)2-6(4,5)8/h3-5,7-8H,2H2,1H3	InChI=1S/C6H10O3/c1-9-5-4-3(7)2-6(4,5)8/h3-5,7-8H,2H2,1H3/t3-,4+,5-,6-/m0/s1
