15
gdb 26896	3.14148	1.43052	0.9885	4.9298	76.3	-0.1966	-0.0423	0.1543	1117.8565	0.1152	-450.184834	-450.176911	-450.175967	-450.217025	30.481	
N	 0.0501985196	 1.4127274633	 0.075116259	-0.576216
C	-0.0046959656	 0.0389119806	 0.0221776592	 0.40411
C	-1.1946526249	-0.6650770075	-0.0017072251	 0.204194
N	-2.4128062273	 0.0796656183	-0.0317202392	-0.598504
N	-1.2000721618	-2.0138971598	-0.0436201392	-0.254217
C	-0.0828353963	-2.6914054793	-0.0504823316	-0.154175
C	 1.2359278547	-2.0840545341	 0.0145653157	 0.380961
O	 2.3196007047	-2.6418624086	 0.0406187034	-0.398428
N	 1.1549723729	-0.6738702659	 0.0482056609	-0.405964
H	 0.8321797551	 1.847935946	-0.3953488987	 0.254335
H	-0.846775896	 1.8173924476	-0.1701454715	 0.271947
H	-2.8013665356	 0.1881290615	 0.9027069384	 0.243984
H	-3.103502502	-0.4349377204	-0.5695389976	 0.24648
H	-0.1226738822	-3.7749019423	-0.1040787876	 0.123518
H	 2.0470954146	-0.2014590294	 0.1174945739	 0.257976
121.3895	157.9125	218.5195	303.6665	323.842	356.7438	390.7668	463.8358	496.9427	506.6279	594.4709	635.9536	685.4885	726.143	747.1583	781.4945	809.6369	887.1321	893.7437	949.3899	1109.4043	1148.3583	1204.1815	1267.5719	1308.6027	1334.5595	1416.6039	1486.7798	1567.6206	1620.7312	1640.6159	1676.3711	1781.56	3179.8674	3472.3418	3520.2636	3556.9454	3589.8966	3633.6736
NC1=C(N)N=CC(=O)N1	Nc1c(N)ncc(=O)[nH]1	
InChI=1S/C4H6N4O/c5-3-4(6)8-2(9)1-7-3/h1H,(H2,5,7)(H3,6,8,9)	InChI=1S/C4H6N4O/c5-3-4(6)8-2(9)1-7-3/h1H,(H2,5,7)(H3,6,8,9)
