17
gdb 99811	2.02897	1.47313	1.11152	1.6232	69.11	-0.2681	0.0072	0.2753	1144.8238	0.134198	-455.191249	-455.181144	-455.180199	-455.226449	36.12	
C	 0.1673749016	 1.7130976424	 0.2122802096	-0.414797
C	 0.0159902361	 0.1960967679	-0.0312055877	-0.073043
C	 0.6796076681	-0.6023454	 1.1406185324	-0.078268
O	 0.1119282849	-0.3007544558	 2.3914105811	-0.416035
C	-1.4005213534	-0.1741391655	-0.080414294	 0.273735
N	-2.510105789	-0.5020472622	-0.1103820407	-0.359253
C	 0.77754308	-0.1975257003	-1.3268557289	 0.442315
N	 0.0765966361	-0.8658944854	-2.2735076895	-0.554409
O	 1.9563210926	 0.0778652757	-1.4268555216	-0.369797
H	 1.2241217335	 1.9682138062	 0.1146250344	 0.155168
H	-0.4056418619	 2.2920873603	-0.5158053871	 0.132668
H	-0.1777597393	 1.9566251223	 1.2182185553	 0.147604
H	 0.6351848779	-1.6770787208	 0.9161056559	 0.110395
H	 1.728552353	-0.3019399483	 1.1755937546	 0.14888
H	-0.7665600448	-0.6954282052	 2.4323974439	 0.299706
H	-0.9064911724	-1.0601033076	-2.1837746251	 0.284865
H	 0.5576812369	-1.1309127735	-3.1177472926	 0.270266
41.0801	107.6859	158.5452	163.4802	208.0338	236.3629	271.1929	310.1511	317.408	374.1436	397.8232	446.04	514.5016	569.4832	605.2487	629.9537	707.9981	763.3152	872.5974	936.9362	961.8986	1082.2329	1106.0851	1122.4539	1149.4817	1166.8302	1282.0226	1347.5551	1382.2735	1402.9586	1409.6517	1490.4749	1497.4709	1503.5954	1620.2338	1797.6571	2336.583	3010.7467	3060.1701	3122.8812	3140.4087	3156.098	3594.6994	3727.4288	3802.0646
CC(CO)(C#N)C(N)=O	C[C@@](CO)(C#N)C(=O)N	
InChI=1S/C5H8N2O2/c1-5(2-6,3-8)4(7)9/h8H,3H2,1H3,(H2,7,9)	InChI=1S/C5H8N2O2/c1-5(2-6,3-8)4(7)9/h8H,3H2,1H3,(H2,7,9)/t5-/m0/s1
