15
gdb 98729	2.87808	1.08198	0.9093	2.9238	69.16	-0.2723	-0.0491	0.2232	1273.9102	0.108692	-457.704815	-457.695724	-457.69478	-457.739505	32.265	
O	 0.2042430984	 1.4807269749	 0.4067635906	-0.417802
C	 0.0618950856	 0.1065246407	 0.5843323684	-0.136027
C	-1.0958594572	-0.4379592267	-0.2379592263	 0.345082
O	-1.7831666646	 0.3128962231	-0.8918188332	-0.316176
C	-1.3109397516	-1.9232142374	-0.1983602093	-0.044821
O	-2.5663747746	-2.4160938653	-0.6339639878	-0.211855
C	-1.4446756514	-2.7075810288	-1.464021121	-0.163199
C	-1.3802413303	-2.1106409572	-2.7678561538	 0.359875
C	-1.2996021374	-1.6683094486	-3.8816178443	-0.408528
H	-0.5230466449	 1.7376611769	-0.1832073342	 0.29756
H	 0.9796893045	-0.4344442669	 0.2957165073	 0.121084
H	-0.1228314125	-0.1501686486	 1.6426782975	 0.119455
H	-0.8774718721	-2.4416203538	 0.6582558356	 0.113011
H	-1.1138767516	-3.7452836167	-1.4145346148	 0.130061
H	-1.2403400702	-1.2574607156	-4.8596457347	 0.21228
45.1226	92.1879	122.2156	177.8285	225.3044	255.2337	326.3756	385.1464	419.4779	496.7549	539.8556	600.1897	651.6241	678.8769	714.5024	807.3269	855.021	929.4138	966.2799	1026.6394	1056.8889	1096.431	1127.9044	1155.9284	1241.0495	1269.249	1311.2476	1383.6574	1426.2808	1455.7062	1490.098	1805.8797	2246.2044	2957.1768	2974.7031	3101.2443	3113.4038	3501.1974	3680.7183
OCC(=O)C1OC1C#C	OCC(=O)[C@H]1O[C@H]1C#C	
InChI=1S/C6H6O3/c1-2-5-6(9-5)4(8)3-7/h1,5-7H,3H2	InChI=1S/C6H6O3/c1-2-5-6(9-5)4(8)3-7/h1,5-7H,3H2/t5-,6+/m0/s1
