21
gdb 52612	2.58283	0.97493	0.85491	2.441	83.89	-0.2487	0.0377	0.2863	1495.3838	0.177882	-424.206304	-424.194704	-424.19376	-424.245227	41.337	
C	-0.0175268407	 1.4728417684	 0.0211004566	-0.500574
C	 0.0237339901	 0.0177247257	 0.012337758	 0.052022
C	 0.0744816568	-1.1857599924	 0.0258216926	 0.080254
C	 0.0962197429	-2.6529809326	-0.0144339677	 0.124083
C	-1.3297661052	-3.1937797691	-0.2045988283	-0.424244
O	 0.9379192165	-3.0999310105	-1.1006426636	-0.467414
C	 0.7939254392	-3.2116503245	 1.261265985	 0.160601
C	 0.7636252853	-4.7409666451	 1.348446741	-0.423268
O	 2.1247183182	-2.7323945365	 1.3056813202	-0.441669
H	 0.684496344	 1.8922697872	-0.707908981	 0.150412
H	-1.0167754868	 1.8482347565	-0.2251926373	 0.148012
H	 0.254990731	 1.8677929263	 1.0058077302	 0.15566
H	-1.7982004908	-2.7170978416	-1.0700539278	 0.116652
H	-1.3042134074	-4.2721371118	-0.3734041991	 0.128739
H	-1.9470608574	-2.9812242354	 0.6736875423	 0.123445
H	 0.8386597721	-2.4705047565	-1.8216477112	 0.287572
H	 0.2851949036	-2.7828825968	 2.1316156702	 0.087853
H	 1.1646269442	-5.1891014197	 0.4344428277	 0.128107
H	 1.3885610611	-5.05270383	 2.1890766661	 0.122081
H	-0.2469649222	-5.1267654425	 1.511224042	 0.110502
H	 2.4689034854	-2.8588612091	 0.4114073742	 0.281173
4.6178	76.9257	85.7041	129.925	220.3021	231.346	248.2113	271.4124	288.7047	314.412	324.0725	356.1488	382.9635	426.6632	458.6142	498.3597	565.9504	607.685	693.9861	819.413	899.9874	929.4903	1020.3205	1043.5477	1051.0366	1054.3561	1099.2096	1111.9842	1119.8713	1144.279	1226.5114	1285.691	1339.3071	1375.1861	1397.7395	1402.1027	1413.6833	1434.4927	1476.5257	1478.2501	1483.0216	1490.5601	1497.9677	1503.1584	2364.5335	3028.2145	3042.4292	3044.9138	3053.1048	3089.1922	3091.2282	3114.6399	3117.6346	3124.7248	3136.4449	3761.464	3829.0804	4.6077	76.926	85.7042	129.925	220.3014	231.3458	248.2112	271.412	288.7046	314.4116	324.0721	356.1488	382.9634	426.663	458.6148	498.3596	565.9501	607.6849	693.9862	819.413	899.9874	929.4903	1020.3205	1043.5477	1051.0365	1054.356	1099.2096	1111.9842	1119.8714	1144.2791	1226.5114	1285.6908	1339.307	1375.186	1397.7396	1402.1029	1413.6833	1434.4925	1476.5258	1478.2501	1483.0219	1490.5604	1497.9679	1503.1587	2364.5333	3028.2146	3042.4292	3044.9138	3053.1049	3089.1922	3091.2282	3114.6399	3117.6346	3124.7248	3136.4449	3761.4644	3829.0804
CC#CC(C)(O)C(C)O	CC#C[C@@](C)(O)[C@@H](C)O	
InChI=1S/C7H12O2/c1-4-5-7(3,9)6(2)8/h6,8-9H,1-3H3	InChI=1S/C7H12O2/c1-4-5-7(3,9)6(2)8/h6,8-9H,1-3H3/t6-,7-/m1/s1
