25
gdb 100294	1.6084	1.41351	1.0782	1.9993	84.33	-0.2502	0.0655	0.3157	1347.8187	0.225949	-426.625422	-426.613686	-426.612742	-426.661491	43.777	
C	 0.760407943	-0.5341042163	 1.3937268804	-0.40356
C	 0.0515886599	-0.281038029	 0.0581332112	-0.204239
C	 0.8481789761	-0.6242862359	-1.2327592535	 0.255619
C	 0.9947293993	-2.1504466895	-1.3664890077	-0.439353
C	 0.0499093459	-0.0869475588	-2.4470324078	-0.098004
O	-1.2830718566	-0.5804051461	-2.5144981982	-0.430772
C	 2.2431483709	 0.0506585236	-1.1835328799	 0.117784
C	 3.096642425	-0.0778108038	-2.4496680159	-0.42771
O	 2.0252892825	 1.4309639744	-0.8753115972	-0.445664
H	 1.1095536194	-1.5670197888	 1.4915113941	 0.113226
H	 1.6177756741	 0.1324360297	 1.5195225611	 0.126028
H	 0.0739335759	-0.3445668416	 2.2251407929	 0.10834
H	-0.8757224214	-0.8657843005	 0.0366492971	 0.088089
H	-0.2337257687	 0.7762636946	 0.0196012923	 0.103244
H	 0.0038809828	-2.6064353147	-1.4375857978	 0.130865
H	 1.5450578957	-2.4287104438	-2.2703780462	 0.109272
H	 1.5170296245	-2.5905676391	-0.5113525108	 0.108067
H	 0.0676468013	 1.0107843606	-2.4337694996	 0.102084
H	 0.5194821627	-0.4174313477	-3.3786294104	 0.098694
H	-1.7956911113	-0.1354722092	-1.8336941478	 0.284469
H	 2.7992777716	-0.4235453019	-0.3590869544	 0.064688
H	 2.6323955393	 0.4262270463	-3.3013870658	 0.130615
H	 4.075938807	 0.3866636169	-2.2815062556	 0.103227
H	 3.279362429	-1.1220114902	-2.7163989068	 0.124394
H	 2.8772806819	 1.8772145207	-0.8960686937	 0.280597
78.5397	99.2635	118.3822	194.3031	206.6612	219.6616	234.7621	249.634	283.0092	290.1473	320.4643	332.2452	358.5566	364.3033	437.7291	461.6698	530.8656	587.9683	695.8477	786.0846	861.1627	904.897	923.8898	947.2852	1015.2151	1022.5924	1032.276	1059.9275	1073.3591	1103.3756	1119.2037	1155.3102	1189.5381	1218.5189	1269.5631	1294.4346	1331.2423	1367.7196	1380.4131	1388.5824	1404.0744	1405.9953	1410.2228	1417.399	1425.6833	1487.0261	1492.3653	1494.7024	1499.2502	1501.554	1508.3467	1513.2127	1516.2576	2967.3861	3018.3134	3025.4459	3031.7581	3037.5966	3042.9115	3065.5494	3081.4257	3095.8532	3098.989	3105.7368	3118.0825	3120.3703	3129.6011	3822.1466	3834.1987
CCC(C)(CO)C(C)O	CC[C@@](C)(CO)[C@@H](C)O	
InChI=1S/C7H16O2/c1-4-7(3,5-8)6(2)9/h6,8-9H,4-5H2,1-3H3	InChI=1S/C7H16O2/c1-4-7(3,5-8)6(2)9/h6,8-9H,4-5H2,1-3H3/t6-,7+/m1/s1
