19
gdb 65242	2.62743	1.42095	1.06951	1.8525	75.38	-0.2408	-0.022	0.2188	1158.8511	0.156866	-423.014193	-423.005045	-423.004101	-423.048537	34.047	
O	-0.0735939219	 1.3120751939	 0.5445541098	-0.478416
C	 0.0578187301	 0.0122209401	 0.0198777255	 0.416405
C	 1.1274758194	-0.2716844824	-1.0022003681	-0.34084
C	 1.2347759446	-0.8391370039	 0.4074012755	-0.329913
C	-1.3169322995	-0.5890375182	-0.0969773972	-0.135753
C	-2.3237100016	-0.0405512462	-1.1592992347	-0.24128
C	-2.7168239156	-1.4970377138	-1.5521535516	-0.336077
C	-1.5043267676	-1.9760494939	-0.7421316403	 0.384325
O	-0.8765694721	-2.996575782	-0.7079740069	-0.305555
H	 0.7956961176	 1.7246200959	 0.5677378666	 0.280887
H	 0.9272107865	-0.9639827314	-1.8127876854	 0.124744
H	 1.7854632076	 0.5485952774	-1.2735092574	 0.103881
H	 1.966587742	-0.3988162752	 1.0780039212	 0.103976
H	 1.0818105407	-1.905273168	 0.5277034891	 0.146154
H	-1.7819476552	-0.5970446745	 0.8980252694	 0.112476
H	-3.1233620907	 0.5932132092	-0.7772287436	 0.113695
H	-1.8089157371	 0.4821669532	-1.9679405128	 0.118153
H	-3.6580367627	-1.8341126689	-1.1053024513	 0.133414
H	-2.7201710446	-1.7694843316	-2.6104051578	 0.129722
59.8131	82.0098	138.5462	152.9928	205.8612	314.8203	319.005	370.902	445.6888	509.357	572.4589	625.0814	691.4629	753.279	772.2506	832.5834	874.6632	917.5098	931.8166	947.0574	977.2372	1004.1263	1050.1513	1054.6855	1073.8506	1081.8935	1088.8544	1165.1942	1189.3335	1197.6768	1220.0182	1233.5749	1258.2727	1280.4569	1339.5355	1429.6239	1440.7581	1453.214	1491.5031	1499.6619	1876.356	3026.2452	3057.6343	3084.8171	3113.1855	3122.8153	3128.7052	3145.6449	3207.4921	3227.1964	3819.4886
OC1(CC1)C1CCC1=O	OC1(CC1)[C@H]1CCC1=O	
InChI=1S/C7H10O2/c8-6-2-1-5(6)7(9)3-4-7/h5,9H,1-4H2	InChI=1S/C7H10O2/c8-6-2-1-5(6)7(9)3-4-7/h5,9H,1-4H2/t5-/m0/s1
