18
gdb 65970	2.07068	1.73464	1.37316	2.0203	71.76	-0.2482	-0.0396	0.2086	1034.9579	0.145326	-439.045859	-439.036905	-439.03596	-439.079623	32.767	
C	-0.0878310936	 1.6601892912	 0.0555160828	-0.44379
C	 0.0782855215	 0.1469508388	-0.0023269966	 0.253298
O	 1.2084243788	-0.2636486455	-0.8076588911	-0.335615
C	 1.8246748172	-0.9793341059	 0.2943929305	-0.135755
C	 0.690935215	-0.5645345079	 1.2223969699	 0.236434
C	 0.6516013128	-0.1653926936	 2.6418063499	-0.304929
N	 0.0291226643	-1.4237701141	 2.1815366109	-0.359555
C	-1.1966993904	-0.5123437071	-0.4994889402	 0.115636
O	-2.1884484824	-0.6213335948	 0.1797582543	-0.2633
H	 0.8165982389	 2.1222189682	 0.4588851699	 0.130333
H	-0.2650412704	 2.0625716893	-0.9471973155	 0.134157
H	-0.9417132697	 1.9217127225	 0.6875166296	 0.138208
H	 1.8908598783	-2.0567627658	 0.1041760694	 0.119326
H	 2.8187834392	-0.5822621196	 0.5283923082	 0.112395
H	 1.5313698587	-0.2917841838	 3.2675560601	 0.123441
H	 0.0101516103	 0.6669322666	 2.9209263525	 0.121453
H	-0.9807946746	-1.3166731352	 2.0992474799	 0.254118
H	-1.1373587538	-0.9026404934	-1.5391288745	 0.104146
77.941	88.2754	170.4604	209.7195	228.5514	266.2095	298.1076	351.9146	393.0581	456.1814	516.6179	603.4585	716.7094	837.5588	884.7618	891.0452	934.275	949.5545	978.1154	987.2889	1005.8097	1061.2956	1080.4854	1122.997	1139.7064	1149.8027	1203.5824	1209.6206	1274.8155	1292.0276	1321.7691	1378.7607	1394.6051	1435.8407	1481.3524	1488.4759	1517.7754	1518.649	1809.6709	2900.9903	3026.4099	3039.3525	3076.4333	3103.4822	3113.1968	3128.3158	3188.6713	3487.1577
CC1(OCC11CN1)C=O	C[C@]1(OC[C@]21CN2)C=O	
InChI=1S/C6H9NO2/c1-5(3-8)6(2-7-6)4-9-5/h3,7H,2,4H2,1H3	InChI=1S/C6H9NO2/c1-5(3-8)6(2-7-6)4-9-5/h3,7H,2,4H2,1H3/t5-,6-/m0/s1
