20
gdb 56277	2.95959	1.00493	0.82538	6.9967	75.7	-0.2393	0.0386	0.2779	1408.673	0.171221	-440.29781	-440.288654	-440.287709	-440.332847	33.551	
O	-1.4698735554	 0.1021319461	-1.1483420133	-0.386765
C	-0.7291422894	 1.0338073105	-0.5342831994	 0.382023
O	 0.3976161184	 1.2494773795	-0.9023774551	-0.331104
C	-1.3019167223	 1.8230382518	 0.6551948916	-0.317477
C	-2.7342128258	 1.5567005707	 1.1290046623	-0.223841
C	-3.8252733231	 1.9831610484	 0.1131835813	-0.223904
C	-4.8297591151	 0.877429481	-0.1336928641	 0.00908
C	-5.2166056371	 0.4601813505	-1.5034360785	-0.244015
N	-4.2285099059	-0.3262411839	-0.7390729017	-0.310588
H	-2.4036747283	-0.0126974829	-0.853026314	 0.326399
H	-4.6381083775	-1.1830348204	-0.3814568906	 0.246038
H	-0.5983741568	 1.6443899004	 1.4757750676	 0.135262
H	-1.1766767499	 2.8801779423	 0.3939327639	 0.134101
H	-2.8438731221	 0.4903502226	 1.3573159381	 0.107797
H	-2.8827188659	 2.080969554	 2.0785712434	 0.105843
H	-4.3440880736	 2.886322406	 0.4505167806	 0.109894
H	-3.3582035698	 2.2401643095	-0.8442579334	 0.117118
H	-5.5589910995	 0.7084632777	 0.6561206137	 0.098825
H	-6.1974562422	 0.0220586268	-1.661943486	 0.126313
H	-4.8099964586	 0.9894105895	-2.3599912066	 0.139001
40.8525	91.5927	100.0759	164.4153	203.7443	277.3086	317.6872	374.6448	461.239	536.0972	568.0758	608.2236	760.0798	814.0237	836.9044	847.713	877.2559	893.4297	927.8333	953.7636	996.962	1022.5187	1050.7151	1088.0316	1121.0273	1132.962	1167.5305	1209.9908	1239.9962	1258.1044	1272.1074	1280.104	1310.0545	1312.1416	1334.9904	1364.6711	1388.2301	1437.3818	1455.7859	1491.7436	1500.2329	1511.4369	1833.1925	3038.989	3042.364	3045.3919	3069.4102	3084.1625	3086.9318	3119.2736	3132.4351	3208.3533	3366.1989	3528.9972
[O-]C(=O)CCCC1C[NH2+]1	OC(=O)CCC[C@H]1CN1	
InChI=1S/C6H11NO2/c8-6(9)3-1-2-5-4-7-5/h5,7H,1-4H2,(H,8,9)	InChI=1S/C6H11NO2/c8-6(9)3-1-2-5-4-7-5/h5,7H,1-4H2,(H,8,9)/t5-/m0/s1
