20
gdb 78988	2.9047	1.77705	1.43921	1.8976	81.31	-0.2196	0.0849	0.3045	996.5649	0.171501	-365.936328	-365.928707	-365.927763	-365.967897	30.909	
C	 0.0191524411	 1.633672889	 0.0153190628	-0.426268
C	 0.0502550896	 0.1143152605	-0.0088886636	 0.023598
C	 0.7576522345	-0.6514794682	-1.1593391201	-0.142486
C	 2.2515305103	-0.2921370576	-1.0434174704	-0.046704
C	 2.6212609746	-1.5325947023	-0.3257908541	-0.131249
N	 2.4491532352	-0.266616274	 0.4496916796	-0.151238
C	 1.0406888599	-0.6651838322	 0.8778536478	-0.064208
C	 1.1048984027	-1.8365116826	-0.1568468459	 0.361777
C	 0.4000621352	-3.1570844209	-0.0936428142	-0.538929
H	 1.0274815326	 2.0460888012	-0.0831357641	 0.133855
H	-0.5934927196	 2.0301892178	-0.8019529939	 0.111528
H	-0.4025705374	 2.004455585	 0.9559707471	 0.115012
H	-0.9534641693	-0.3052557452	 0.1350895008	 0.072609
H	 0.3183076069	-0.800172558	-2.1450949888	 0.065359
H	 2.852881618	 0.3822679238	-1.6398840924	 0.092807
H	 3.5272428488	-2.1276743877	-0.3004357211	 0.090729
H	 0.9383249106	-0.7689114773	 1.9583771053	 0.066418
H	-0.6804534531	-3.0245023183	 0.0323190291	 0.122704
H	 0.5581953741	-3.7363501686	-1.01081018	 0.121705
H	 0.7613438554	-3.7603143547	 0.7474698662	 0.122981
164.114	201.9366	216.4881	227.5546	271.5234	287.8308	531.9312	581.6378	610.6743	705.0766	732.2397	772.4686	800.7047	826.2615	858.6966	869.9465	882.9892	924.2027	934.6881	986.9509	1002.5612	1014.3396	1035.6166	1071.4335	1095.0461	1106.6435	1142.9522	1159.2866	1177.6355	1188.5096	1195.9223	1233.9687	1264.249	1284.8042	1331.7091	1361.3557	1377.5625	1408.8587	1413.8603	1484.7286	1492.8941	1493.9791	1499.9311	3019.1684	3029.8741	3034.3642	3082.0074	3087.5715	3092.0414	3110.8663	3112.9674	3123.9136	3169.6003	3192.0949
CC1C2C3C4N3C1C24C	C[C@H]1[C@H]2[C@@H]3[C@H]4N3[C@@H]1[C@@]24C	
InChI=1S/C8H11N/c1-3-4-5-7-8(4,2)6(3)9(5)7/h3-7H,1-2H3	InChI=1S/C8H11N/c1-3-4-5-7-8(4,2)6(3)9(5)7/h3-7H,1-2H3/t3-,4-,5+,6-,7+,8+,9?/m0/s1
