18
gdb 18323	3.16383	2.18627	1.54362	2.9172	70.49	-0.2316	-0.0156	0.216	860.8032	0.155638	-347.829227	-347.822261	-347.821317	-347.860972	26.938	
O	-0.1493917853	 0.1370646964	 0.3418887405	-0.320488
C	-0.0919733298	 1.3127258349	 0.0849433025	 0.400092
C	-1.2913943011	 2.2655802566	-0.0227301758	-0.321201
C	-0.7977520943	 3.4391728536	-0.8861764367	-0.233776
C	 0.7194336184	 3.5209892645	-0.6252795554	-0.001284
C	 1.1705857532	 4.0817240377	 0.7587272312	-0.229436
C	 1.8267286081	 2.7144377359	 1.0991164646	-0.224132
C	 1.1879842071	 2.1006389289	-0.1885093613	-0.122029
H	-2.1687809	 1.7435158998	-0.4096742831	 0.126345
H	-1.5403897176	 2.5922292	 0.9960082725	 0.129293
H	-0.9768844431	 3.2182732563	-1.9448784475	 0.105754
H	-1.3075241322	 4.3814304903	-0.6626256568	 0.10268
H	 1.2612279647	 3.9613172257	-1.4641155166	 0.070704
H	 1.8499226185	 4.9360605475	 0.7232109547	 0.103702
H	 0.3347973716	 4.3462505897	 1.4134252331	 0.10009
H	 2.9170348966	 2.7351047575	 1.0406524364	 0.111858
H	 1.5456258533	 2.2471908394	 2.0463886381	 0.111439
H	 1.8577923419	 1.5228949053	-0.8277147304	 0.090388
44.6468	152.4026	217.6639	331.0707	438.7349	508.2146	580.2479	658.213	708.7017	720.5385	789.9848	811.2051	858.478	894.7305	944.8561	954.7144	976.6653	983.8665	997.7601	1060.5292	1123.0827	1157.8347	1166.4478	1177.8331	1202.0316	1236.1425	1257.6953	1260.8131	1270.6834	1286.8135	1311.9691	1323.7663	1350.6482	1454.9444	1480.7505	1493.8657	1498.7616	1837.8057	3029.4223	3037.1233	3055.2466	3064.319	3081.9024	3085.0246	3098.9392	3103.7298	3114.0842	3122.351
O=C1CCC2CCC12	O=C1CC[C@H]2CC[C@@H]12	
InChI=1S/C7H10O/c8-7-4-2-5-1-3-6(5)7/h5-6H,1-4H2	InChI=1S/C7H10O/c8-7-4-2-5-1-3-6(5)7/h5-6H,1-4H2/t5-,6-/m1/s1
