17
gdb 37778	3.00911	1.99874	1.47965	2.9753	77.47	-0.2178	-0.029	0.1888	898.6524	0.138208	-380.786761	-380.780179	-380.779235	-380.817243	27.672	
C	-0.0442211432	 1.447046919	 0.0621188081	-0.235212
C	 1.3679282703	 2.0515725125	 0.0384941285	-0.061653
C	 2.3101281536	 1.79410835	-0.8783955226	-0.048712
C	 2.096754321	 1.0704114096	-2.1760023966	-0.048098
C	 1.9958031054	-0.4342815635	-2.5581185444	-0.027869
N	 1.6113134847	-1.3290763429	-1.4223695845	-0.360949
C	 0.5496747769	-0.360597931	-1.1540425875	 0.259321
N	 0.142754166	-0.010520308	-0.0192812967	-0.19434
C	 0.7730053707	 0.4248121355	-2.4573322475	-0.234765
H	-0.5465357886	 1.6984642447	 0.9981654255	 0.109459
H	-0.6518967602	 1.855665153	-0.7591620475	 0.113181
H	 1.6312624415	 2.6796470051	 0.884933152	 0.097594
H	 3.2966800374	 2.2299744507	-0.7387631191	 0.089903
H	 2.5128505759	 1.6175566768	-3.023410139	 0.099543
H	 2.5240269413	-0.8199315817	-3.4207829039	 0.104972
H	 1.266465936	-2.214371325	-1.7921637193	 0.233727
H	 0.0294226513	 0.7393541251	-3.1794999454	 0.103898
186.3297	260.4745	290.5518	357.1089	474.5585	507.3184	514.7471	653.9513	680.3522	704.267	762.2615	779.9899	788.0447	830.1441	876.7791	890.1276	933.6397	977.7888	992.8142	1010.1384	1017.4191	1042.6093	1062.1243	1068.9404	1110.3795	1147.7124	1217.1361	1224.5303	1254.5398	1269.0002	1327.9263	1338.2695	1398.3272	1414.4671	1496.7022	1679.1141	1772.8472	2991.8168	3095.3005	3100.8459	3146.5701	3173.4461	3175.4572	3200.7804	3468.5027
C1C=CC2C3NC(=N1)C23	C1C=C[C@H]2[C@H]3N[C]([N]1)[C@@H]23	
InChI=1S/C7H8N2/c1-2-4-5-6(4)9-7(5)8-3-1/h1-2,4-6H,3H2,(H,8,9)	InChI=1S/C7H8N2/c1-2-4-5-6(4)9-7(5)8-3-1/h1-2,4-6H,3H2,(H,8,9)/t4-,5+,6-/m1/s1
