18
gdb 18992	4.2043	2.19362	2.02144	1.6418	69.94	-0.2435	0.0884	0.3319	753.4161	0.157034	-347.770318	-347.76446	-347.763516	-347.799973	24.74	
C	-0.0639353755	 1.5289781033	-0.185719593	-0.224721
C	 1.4544397581	 1.6157009792	 0.1544908262	-0.224721
C	 1.4882388437	 0.0869860765	 0.428295132	-0.01917
C	 1.3798662712	-0.3468368286	 1.9016372377	 0.064138
C	 0.4615861562	-1.5913764645	 1.8337243478	-0.229206
C	-0.5273238669	-0.4557668104	 1.4743121487	 0.064138
O	 0.2246848948	 0.4176682838	 2.3789093774	-0.297069
C	-0.0450120613	-0.0005854747	 0.0847553526	-0.01917
H	-0.7160197032	 2.0973937228	 0.481225624	 0.105678
H	-0.3038455411	 1.7889608374	-1.2194099327	 0.092968
H	 2.0815214208	 1.9252113761	-0.6849347165	 0.092968
H	 1.6949878844	 2.2350932562	 1.0214488295	 0.105678
H	 2.2000019293	-0.5074054907	-0.1473738378	 0.066185
H	 2.2529734199	-0.2718415553	 2.5507680234	 0.076822
H	 0.6715070566	-2.3707704189	 1.0955055791	 0.09281
H	 0.2645400293	-2.0117187162	 2.8203093294	 0.109667
H	-1.5960648419	-0.4916814471	 1.6883541314	 0.076822
H	-0.3752025743	-0.6544894588	-0.7243718295	 0.066185
165.726	273.9659	362.6193	456.4727	612.7636	632.0772	733.7166	752.7498	809.6065	847.6346	858.3333	861.2438	869.5954	911.2612	941.1718	959.0982	997.1876	1005.998	1036.0215	1044.5438	1053.7001	1090.5775	1143.1852	1161.6924	1184.3571	1211.4229	1233.2132	1248.5101	1255.769	1260.9714	1281.7686	1286.4354	1321.0065	1324.0505	1327.4204	1463.4417	1482.4593	1485.9038	3060.0511	3060.7386	3066.0602	3086.8104	3096.7141	3107.8767	3115.2175	3119.2948	3126.4231	3143.2421
C1CC2C3CC(O3)C12	C1C[C@H]2[C@@H]3C[C@@H](O3)[C@@H]12	
InChI=1S/C7H10O/c1-2-5-4(1)6-3-7(5)8-6/h4-7H,1-3H2	InChI=1S/C7H10O/c1-2-5-4(1)6-3-7(5)8-6/h4-7H,1-3H2/t4-,5+,6+,7-
