13
gdb 62352	4.19911	1.14452	1.10168	1.1305	64.01	-0.2918	-0.0357	0.256	1068.3903	0.088897	-452.733858	-452.726186	-452.725242	-452.766104	28.355	
N	-0.1796510359	 1.4260618237	 0.0455995575	-0.543985
C	-0.0682890456	 0.0018453929	 0.0385712212	 0.112377
C	 1.0481257645	-0.5933533092	-0.6781992278	 0.241836
N	 1.9576018999	-1.0224553029	-1.2504083126	-0.321374
C	-0.5270406805	-0.8155453075	 1.2293375897	 0.077548
O	-1.5476677129	-0.1045200514	 1.9486799592	-0.247696
C	-2.3848556397	-0.1611275224	 0.8365223937	 0.485674
O	-3.5094278593	 0.1919927507	 0.7517330953	-0.303939
C	-1.3480521658	-0.8640818408	-0.02485265	-0.323308
H	 0.6320378268	 1.8607748769	 0.4716703536	 0.255685
H	-0.2842171313	 1.7911667977	-0.8949703155	 0.256487
H	 0.0556310472	-1.555801037	 1.757984708	 0.156024
H	-1.5093713773	-1.6240605308	-0.7745946523	 0.154674
117.3162	133.736	178.2991	241.5985	307.3546	367.0649	453.9086	471.7166	555.8179	594.7942	671.3947	744.0241	772.1607	798.5608	851.347	882.8422	933.6318	965.3398	1020.1112	1081.3425	1090.8806	1107.2527	1227.1447	1259.1601	1273.5684	1368.382	1658.4185	1966.8299	2341.6754	3233.1853	3244.2923	3512.2595	3596.0234
NC1(C#N)C2OC(=O)C12	N[C@@]1(C#N)[C@H]2OC(=O)[C@@H]12	
InChI=1S/C5H4N2O2/c6-1-5(7)2-3(5)9-4(2)8/h2-3H,7H2	InChI=1S/C5H4N2O2/c6-1-5(7)2-3(5)9-4(2)8/h2-3H,7H2/t2-,3-,5+/m0/s1
