23
gdb 90913	3.20854	1.41189	1.34046	0.1683	90.1	-0.2279	0.087	0.3149	1105.4552	0.208393	-351.077751	-351.070103	-351.069159	-351.109187	32.625	
C	-0.4225098387	 1.4646242888	-0.0752872854	-0.402042
C	-0.0051771042	-0.0006962621	-0.0560772424	-0.085852
C	 1.1864865778	-0.3642902368	-1.0685309046	-0.315542
C	 2.1409025348	-0.1396163548	 0.155662407	 0.04081
C	 3.0111944909	-0.7851788189	 1.2989511929	-0.079088
C	 1.9345831793	-0.0739941456	 2.2559566847	-0.330954
C	 0.9858363924	-0.4706498642	 1.068556094	 0.3214
C	 1.0302605235	-2.0209286599	 1.2052136463	-0.2385
C	 2.5624318271	-2.2479927561	 1.3594397635	-0.206351
H	 0.434251114	 2.1384493064	 0.0265794231	 0.114166
H	-0.9274812203	 1.7117859043	-1.0155152571	 0.113302
H	-1.1164509968	 1.6832548206	 0.7433164455	 0.116271
H	-0.8957130364	-0.6305194855	-0.1557503106	 0.065502
H	 1.1165958533	-1.387110527	-1.4414003869	 0.107555
H	 1.3254317005	 0.3110282371	-1.9173366236	 0.093105
H	 2.3360596728	 0.9368381717	 0.1919858889	 0.074915
H	 4.0773598523	-0.5741286283	 1.4059951175	 0.057667
H	 1.7759552345	-0.5240865427	 3.2426311161	 0.084886
H	 2.1063741526	 0.9997426773	 2.3488812601	 0.099628
H	 0.4633802524	-2.342909707	 2.0845357898	 0.090654
H	 0.6106990704	-2.5435697395	 0.3428150899	 0.091435
H	 2.9852480328	-2.8470663557	 0.5475820908	 0.094497
H	 2.8349429051	-2.7271863421	 2.3045368803	 0.092534
173.7761	196.9504	228.6243	282.9377	355.8226	415.1627	427.9036	477.399	575.847	633.8129	665.5342	741.4563	791.9135	813.8453	829.5097	842.8522	897.7409	922.9082	942.7206	953.8607	971.3729	1013.6109	1023.3538	1029.0869	1048.495	1064.9819	1085.4265	1131.0501	1144.4432	1160.5407	1178.6802	1191.9109	1205.384	1215.228	1232.2193	1253.1517	1259.6712	1262.493	1313.535	1326.0855	1362.8294	1404.2125	1414.2289	1475.2239	1489.3346	1495.5834	1497.443	1498.3027	1521.7954	3030.0005	3035.5087	3037.9379	3041.2959	3046.3266	3054.942	3062.4064	3083.8163	3092.1735	3093.9712	3102.6614	3102.9773	3122.3042	3127.5797
CC1CC2C3CC12CC3	C[C@H]1C[C@@H]2[C@H]3C[C@@]12CC3	
InChI=1S/C9H14/c1-6-4-8-7-2-3-9(6,8)5-7/h6-8H,2-5H2,1H3	InChI=1S/C9H14/c1-6-4-8-7-2-3-9(6,8)5-7/h6-8H,2-5H2,1H3/t6-,7+,8+,9-/m0/s1
