20
gdb 13461	3.53293	1.15706	1.05603	1.7685	72.44	-0.2433	0.0706	0.3139	1227.0524	0.174967	-386.107272	-386.097618	-386.096674	-386.142068	34.094	
C	 0.0159686977	 1.395034265	 0.1258623192	-0.223333
O	 0.1030256973	-0.0064516551	 0.076120751	-0.232664
C	 0.508724948	-0.4819530918	-1.1937673768	-0.071985
C	 0.5767855862	-1.9858476145	-1.1211777075	-0.060279
C	 1.2161307609	-2.8273806184	-2.2141305181	-0.071779
C	 1.8473352257	-2.2185623562	-3.4491193979	-0.417057
C	 1.8755927781	-2.6958290352	-0.8552433528	 0.079713
O	 3.0076137181	-1.8843226665	-0.7187784537	-0.413782
H	 0.9870409682	 1.8748251249	-0.0771545137	 0.102743
H	-0.7152722402	 1.7881811628	-0.5999512684	 0.09713
H	-0.3076386119	 1.6688878884	 1.1333294683	 0.123126
H	-0.2196180358	-0.1668930649	-1.9621885333	 0.078042
H	 1.484137732	-0.0557228327	-1.4658190768	 0.102285
H	-0.3016934141	-2.4132940184	-0.6463728988	 0.092843
H	 0.7216552445	-3.7785176084	-2.396499536	 0.082854
H	 2.475726907	-1.3609155781	-3.1990751288	 0.128328
H	 2.4782354631	-2.9537927756	-3.9617717342	 0.111244
H	 1.0883178267	-1.8853432531	-4.1648764504	 0.120048
H	 1.8555608951	-3.55601802	-0.1865888563	 0.083571
H	 3.7586444734	-2.3546851921	-1.0954964648	 0.288952
58.9105	87.3629	115.8961	165.8774	198.8965	228.4558	260.3924	281.7687	313.5012	401.7924	474.3863	571.2495	598.1997	762.8738	804.1395	909.649	946.6004	966.381	1016.3047	1028.4083	1079.7075	1119.1303	1150.517	1158.0861	1169.535	1179.1703	1191.3489	1228.9789	1251.0448	1271.0549	1295.7466	1355.0863	1382.3183	1413.1553	1433.2365	1464.4286	1479.4937	1484.4356	1499.3426	1502.5467	1506.2173	1527.5806	2942.8382	2962.7908	3003.1857	3022.8763	3032.1489	3085.2491	3098.2164	3109.1577	3118.7919	3134.4877	3152.91	3805.5738
COCC1C(C)C1O	COC[C@H]1[C@@H](C)[C@H]1O	
InChI=1S/C6H12O2/c1-4-5(3-8-2)6(4)7/h4-7H,3H2,1-2H3	InChI=1S/C6H12O2/c1-4-5(3-8-2)6(4)7/h4-7H,3H2,1-2H3/t4-,5+,6-/m1/s1
