15
gdb 133824	3.59188	2.06679	1.80954	1.9951	74.23	-0.202	-0.0477	0.1543	780.4107	0.112028	-383.278788	-383.272589	-383.271645	-383.308872	26.146	
O	 1.0864448803	-0.1445172703	 1.7113985631	-0.468919
C	 1.968870335	 0.0083465734	 0.6578260765	 0.391162
C	 1.9070974698	 1.1058876175	-0.4077978662	-0.177696
C	 1.8350936302	-0.4006072769	-0.7694309368	-0.216934
C	 3.3725184454	-0.3027670816	-0.9646816951	 0.083676
C	 4.4358884132	-0.6506467254	 0.0035403918	-0.142142
C	 3.4444817909	-0.1632815263	 0.9526397872	-0.02615
C	 4.354562633	 0.8809603301	 0.3701736176	-0.10069
C	 3.4100204645	 1.2195546911	-0.8110131647	-0.076405
H	 0.2202803598	 0.1802072375	 1.4436723787	 0.286486
H	 1.1016651421	 1.8298786419	-0.4903577474	 0.083796
H	 1.0861133782	-0.9909738094	-1.2822341933	 0.100208
H	 5.1559627345	-1.457454808	 0.0598175778	 0.107435
H	 5.0728063629	 1.4738097989	 0.9305124375	 0.085279
H	 3.6808286601	 1.8511537075	-1.6618299966	 0.070894
151.7886	297.615	337.2182	474.0245	521.6633	562.077	583.8215	640.6894	733.7933	773.7621	780.5446	802.7037	858.6941	862.9739	890.2609	941.0953	958.7324	965.2991	979.203	995.1329	1015.9913	1040.8509	1074.5397	1113.7952	1133.2767	1155.7829	1191.6462	1202.7692	1222.0236	1246.2942	1343.5672	1377.2665	1405.2117	3063.4398	3137.8733	3155.049	3179.2707	3188.5396	3816.2713
OC12C3C1C1=CC2=CC31	O[C@]12[C@@H]3[C@H]1[C@]14[C@@H]5[C@]21[C@@H]5[C@H]34	
InChI=1S/C8H6O/c9-8-3-1-4-5(2-3)7(8)6(4)8/h1-2,4,6-7,9H	InChI=1S/C8H6O/c9-8-3-1-2-4-6(1,5(3)8)7(2,4)8/h1-5,9H/t1-,2-,3+,4-,5+,6+,7+,8-/m1/s1
