19
gdb 65049	2.32112	1.52594	1.20297	2.6118	81.23	-0.2391	0.0399	0.279	1117.2761	0.158207	-381.982728	-381.973628	-381.972684	-382.016246	35.02	
C	 0.2543992553	 0.51874524	-1.4463865015	-0.476895
C	 0.0113791284	-0.0525756598	-0.0639014882	 0.208236
C	 1.1674377802	-0.508678126	 0.7477693956	-0.267088
N	 0.4434416103	 0.7292265938	 1.1061400311	-0.356202
C	-1.3389900912	-0.7254439208	 0.1188629339	 0.088087
C	-1.9337638266	-0.8229644455	 1.4846066344	-0.27506
N	-2.4927570683	 0.127502931	 0.5152514543	-0.353566
C	-1.6328358396	-1.7590892041	-0.8450600753	 0.318703
C	-1.8426737817	-2.6358600814	-1.6407093377	-0.434979
H	 1.252803712	 0.9622708173	-1.5144005331	 0.109491
H	 0.1714938474	-0.2599549059	-2.209225098	 0.146405
H	-0.4837852297	 1.2935348477	-1.6824951612	 0.128726
H	 1.0451861493	-1.3251113228	 1.4533016165	 0.123711
H	 2.1623076651	-0.420562045	 0.3191717294	 0.115218
H	 0.9712932461	 1.5421653475	 0.7992625339	 0.232144
H	-2.5714675368	-1.6716930289	 1.7107085187	 0.122811
H	-1.3427647945	-0.4288448949	 2.3047931465	 0.138934
H	-2.1167750705	 1.049633002	 0.7362241259	 0.2388
H	-2.044446185	-3.406353574	-2.342951285	 0.192525
62.2251	143.943	188.5566	218.9416	242.7001	272.6039	332.4026	378.243	414.01	489.4822	528.0299	585.0766	589.2888	608.4435	652.0412	801.9644	851.6743	877.1966	910.1405	934.0714	937.9483	979.0969	1000.3182	1004.8277	1047.0581	1091.7427	1121.7746	1139.9532	1153.3644	1242.4544	1265.7137	1285.2018	1339.8129	1354.2623	1386.5084	1418.2602	1482.3067	1484.1136	1502.6129	1512.5539	2237.0739	3032.9013	3098.3023	3110.7489	3118.9093	3122.864	3198.6184	3220.8689	3468.4057	3502.3634	3503.0702
CC1(CN1)C1(CN1)C#C	C[C@]1(CN1)[C@]1(CN1)C#C	
InChI=1S/C7H10N2/c1-3-7(5-9-7)6(2)4-8-6/h1,8-9H,4-5H2,2H3	InChI=1S/C7H10N2/c1-3-7(5-9-7)6(2)4-8-6/h1,8-9H,4-5H2,2H3/t6-,7+/m0/s1
