17
gdb 69788	2.58378	1.90882	1.30881	3.0353	71.29	-0.2402	-0.0367	0.2035	976.4306	0.135956	-421.817517	-421.809941	-421.808997	-421.849346	29.593	
C	-0.0181698801	 1.5402622771	-0.006805368	-0.468715
C	 0.0598662004	 0.032830354	 0.035405958	 0.190322
C	-0.8287565105	-0.7487823371	 0.9934528577	-0.322317
C	 0.6616487785	-0.7789525434	 1.1756793888	-0.11275
C	 1.3701989169	-1.9785389447	 0.5586538034	 0.030673
O	 0.4951512761	-2.8775144192	-0.1258396996	-0.243546
C	 1.246347069	-1.9298070951	-0.9077404603	-0.087588
C	 0.4893076916	-0.6515811083	-1.2459798517	 0.36212
O	 0.4028072414	-0.1779228344	-2.3520954829	-0.319856
H	 0.9340467555	 1.9815693731	-0.3180792486	 0.125952
H	-0.7791032487	 1.8621508698	-0.7240350144	 0.141304
H	-0.2787864009	 1.9440693612	 0.9758813496	 0.113859
H	-1.4017182409	-0.1373764736	 1.6828327326	 0.118471
H	-1.3185131369	-1.6524056304	 0.6571923435	 0.147983
H	 1.1217559504	-0.2931134162	 2.0278666435	 0.097108
H	 2.2148237166	-2.4380487155	 1.0629184195	 0.109778
H	 1.9446752616	-2.3439233676	-1.628708581	 0.117201
121.5767	166.92	216.9214	259.3077	293.3275	371.2399	452.7769	526.2107	590.3713	628.9598	690.4065	783.3636	810.7279	824.7876	852.4072	861.0564	908.4343	972.9264	985.0033	1012.1848	1054.0294	1072.2238	1094.2936	1098.9935	1118.8542	1138.2924	1241.2329	1256.0053	1304.1856	1318.8163	1380.8119	1399.8725	1415.2646	1480.3889	1483.2706	1497.9271	1827.4694	3038.2139	3105.0461	3114.4923	3144.104	3160.0638	3171.6775	3187.1957	3246.194
CC12CC1C1OC1C2=O	C[C@]12C[C@H]1[C@H]1O[C@H]1C2=O	
InChI=1S/C7H8O2/c1-7-2-3(7)4-5(9-4)6(7)8/h3-5H,2H2,1H3	InChI=1S/C7H8O2/c1-7-2-3(7)4-5(9-4)6(7)8/h3-5H,2H2,1H3/t3-,4+,5+,7-/m0/s1
