17
gdb 113343	2.60421	1.05049	0.8459	4.7249	70.26	-0.2592	0.0048	0.264	1364.0773	0.134605	-455.112478	-455.102713	-455.101769	-455.147738	34.396	
N	-0.163256998	 1.3423801919	-0.6516882106	-0.498735
C	-0.0032243716	 0.1704787036	 0.2008571042	-0.245073
C	-1.3349419558	-0.5529364572	 0.2951527954	 0.22481
O	-1.7273893342	-1.3149598032	-0.858356819	-0.281942
C	-1.4938761855	-2.0251541693	 0.3660011047	-0.011708
C	-0.3672273558	-3.0320805146	 0.370433838	-0.09815
O	-0.7918130284	-4.2527678588	-0.2071511095	-0.40926
C	-2.4108602858	 0.2447851055	 0.8713753204	 0.28637
N	-3.2572972119	 0.8513877656	 1.3716065699	-0.332108
H	 0.670215856	 1.9187185394	-0.625719536	 0.239838
H	-0.3030480345	 1.0549706927	-1.6151667618	 0.243397
H	 0.7605562652	-0.5445369224	-0.1354741813	 0.10092
H	 0.2792800936	 0.5060134915	 1.205120716	 0.130395
H	-2.4077594898	-2.3924237469	 0.8342183633	 0.1246
H	 0.5172502616	-2.6290164078	-0.1387636487	 0.10161
H	-0.0895887709	-3.2632922957	 1.4043716785	 0.128594
H	-1.0208331142	-4.0758067644	-1.1263843835	 0.296442
59.8993	84.9976	133.4823	150.8341	169.4446	220.368	283.4118	324.8883	373.4046	387.0115	437.3062	495.0225	585.4585	665.1112	682.8349	806.3404	838.7976	913.1878	941.0234	996.2522	1066.8038	1079.3282	1085.8457	1115.7088	1182.43	1225.0727	1243.0668	1309.5957	1339.971	1369.6057	1415.5515	1424.5191	1472.2094	1484.293	1494.1678	1658.9669	2361.7283	2999.0764	3027.4135	3069.4809	3082.9037	3118.4766	3509.1666	3593.9646	3806.3705
NCC1(OC1CO)C#N	NC[C@]1(O[C@H]1CO)C#N	
InChI=1S/C5H8N2O2/c6-2-5(3-7)4(1-8)9-5/h4,8H,1-2,6H2	InChI=1S/C5H8N2O2/c6-2-5(3-7)4(1-8)9-5/h4,8H,1-2,6H2/t4-,5-/m0/s1
