19
gdb 60845	2.36121	1.22685	1.07155	4.2972	72.	-0.2386	-0.0116	0.227	1219.7062	0.155172	-460.149113	-460.138956	-460.138011	-460.184175	36.992	
C	 0.190548071	 1.2278185239	 0.4626899331	-0.418868
C	-0.0565702973	-0.2247009126	 0.0509906857	-0.121265
C	-1.541979252	-0.5494170379	-0.0436878088	 0.155862
O	-2.426329684	 0.2028575313	 0.2749615453	-0.249416
C	 0.6116721047	-0.6022660654	-1.2643986253	 0.375167
O	 0.0886004064	 0.046476567	-2.3938821622	-0.470686
C	 2.0849672818	-0.9734824775	-1.2902918499	-0.399056
C	 1.0112059374	-2.0188192638	-1.526282619	 0.054494
O	 0.719721989	-2.9577256029	-0.5331785405	-0.421687
H	 1.2603310298	 1.4230114385	 0.5809351577	 0.111077
H	-0.2133560166	 1.9212004826	-0.2818795338	 0.119474
H	-0.3145049197	 1.4515817355	 1.4044777475	 0.136417
H	 0.3394979439	-0.9091297555	 0.8134030009	 0.111365
H	-1.7580007273	-1.5710269438	-0.4249079398	 0.094345
H	 0.3667143625	 0.9686909941	-2.3664154144	 0.287974
H	 2.670076689	-0.6516613934	-2.1446787552	 0.11817
H	 2.6127236647	-1.004786404	-0.3427967921	 0.116872
H	 0.873612322	-2.3587965531	-2.5515646795	 0.106424
H	 1.4349506146	-3.6020655332	-0.5092072795	 0.293336
58.4369	95.0528	148.4161	190.8095	217.8612	244.6294	263.5631	285.2948	293.5034	324.0509	410.591	459.6196	477.3001	579.9385	638.5883	725.4478	825.0761	857.8863	917.141	928.1359	948.5564	990.0554	1025.4526	1039.0711	1089.841	1110.902	1139.1783	1167.0698	1228.7422	1256.6172	1298.8388	1310.4961	1328.5833	1365.3691	1403.0997	1418.3504	1427.7814	1487.4912	1495.3187	1501.7246	1830.7056	2903.5945	3032.572	3045.2998	3111.0001	3119.9615	3131.3421	3132.2398	3226.7384	3798.7998	3806.3837
CC(C=O)C1(O)CC1O	C[C@@H](C=O)[C@@]1(O)C[C@H]1O	
InChI=1S/C6H10O3/c1-4(3-7)6(9)2-5(6)8/h3-5,8-9H,2H2,1H3	InChI=1S/C6H10O3/c1-4(3-7)6(9)2-5(6)8/h3-5,8-9H,2H2,1H3/t4-,5+,6-/m0/s1
