23
gdb 59651	3.36767	0.94164	0.78088	1.6122	82.17	-0.2409	0.0692	0.3101	1527.2831	0.20468	-425.44095	-425.430735	-425.429791	-425.476613	37.658	
C	 0.0448204641	 1.5891522415	 0.0545971272	-0.410194
C	 0.0397720373	 0.0603661629	 0.0998483394	 0.114098
O	 0.660288747	-0.4171985276	 1.2919393294	-0.431842
C	-1.3600264806	-0.5377292597	-0.0732051959	-0.017963
C	-2.0135791695	-0.2395872057	-1.4429990873	-0.082413
O	-2.7449847884	-1.397769464	-1.8307206012	-0.276056
C	-2.6960007888	-2.3820896932	-0.7926854478	 0.148918
C	-2.7782319643	-3.7619437555	-1.4240028605	-0.397916
C	-1.4093221956	-2.0727744247	-0.0244573987	-0.233461
H	 1.0599740186	 1.9663156231	 0.2044430121	 0.126048
H	-0.3270215123	 1.9673720492	-0.9030680374	 0.12414
H	-0.5940339417	 2.0021613294	 0.8458787065	 0.106055
H	 0.6765518282	-0.3247310685	-0.7077317031	 0.08885
H	 0.1756261262	-0.0505003252	 2.0400679296	 0.274918
H	-2.0034200873	-0.1357046823	 0.7232952902	 0.060735
H	-2.6823417038	 0.6299149536	-1.400168098	 0.095617
H	-1.253552588	-0.0352460432	-2.211751801	 0.094252
H	-3.5617404837	-2.2408439684	-0.1213646518	 0.058698
H	-1.9237482396	-3.9307203882	-2.0867154722	 0.118331
H	-2.7821750626	-4.5377843832	-0.6517190321	 0.112077
H	-3.6940934212	-3.8600592745	-2.0136337353	 0.123942
H	-0.5469672845	-2.4965693711	-0.5540013979	 0.101004
H	-1.4068304996	-2.4712060749	 0.9918091555	 0.102161
44.1731	84.9442	106.6954	162.9936	227.1658	236.9966	268.2391	295.2252	327.3665	350.5064	446.026	461.9226	495.9832	577.6462	673.8661	835.1371	853.8799	901.8876	910.6293	914.3654	971.1648	983.577	1039.4522	1050.7538	1065.7404	1105.3857	1128.4091	1141.2809	1156.9684	1184.5825	1203.4328	1233.9448	1262.7627	1288.6858	1328.2913	1338.0622	1359.0981	1381.2218	1395.5104	1403.6737	1405.2415	1413.6951	1419.3259	1483.4995	1486.3111	1490.3363	1494.9845	1497.6195	1528.4654	2937.4508	2989.3495	2991.0409	3021.5826	3026.0019	3032.5421	3037.6694	3040.9842	3093.0132	3110.803	3115.3046	3117.5261	3118.7821	3794.8788
CC(O)C1COC(C)C1	C[C@@H](O)[C@H]1CO[C@@H](C)C1	
InChI=1S/C7H14O2/c1-5-3-7(4-9-5)6(2)8/h5-8H,3-4H2,1-2H3	InChI=1S/C7H14O2/c1-5-3-7(4-9-5)6(2)8/h5-8H,3-4H2,1-2H3/t5-,6+,7+/m0/s1
