16
gdb 25637	3.67672	0.96575	0.76852	1.0244	85.44	-0.1795	0.0362	0.2157	1446.9783	0.124221	-400.768745	-400.759683	-400.758739	-400.803796	32.625	
C	 0.0694425899	 1.454936671	 0.0181382797	-0.509442
C	 0.0283070807	 0.0002818388	-0.0003521226	 0.177747
C	-0.0282640481	-1.2076880163	-0.0193456358	-0.164789
C	-0.0431255708	-2.619032105	-0.033207199	 0.076236
C	 1.0872947189	-3.4007733191	 0.1439386597	 0.27833
O	 2.3746775152	-3.0609454457	 0.3556158686	-0.432291
N	 0.7407418542	-4.7108533187	 0.0770953915	-0.29757
C	-0.627364392	-4.8103141441	-0.1457573249	-0.087551
C	-1.1322866904	-3.5433644807	-0.2174676197	-0.273254
H	 0.7192753124	 1.8547591356	-0.7694331234	 0.142553
H	-0.9309029232	 1.8732467203	-0.1411483174	 0.150345
H	 0.4352752456	 1.8406417094	 0.977204671	 0.142551
H	 2.4081157694	-2.095264887	 0.3691185177	 0.308792
H	 1.3882544487	-5.4729833348	 0.1760755691	 0.269505
H	-1.1007513456	-5.7737171386	-0.2304007139	 0.120735
H	-2.1629757748	-3.2730109353	-0.3825771604	 0.098103
25.782	78.8028	105.7965	247.0352	260.973	288.704	381.4474	391.5562	443.9776	464.5354	476.1212	573.5194	621.7396	646.1796	717.1908	721.4085	819.6203	902.5179	980.9612	1050.1661	1053.7945	1079.5834	1098.4637	1168.2259	1213.1666	1302.5265	1390.4897	1392.5081	1415.8188	1475.0794	1481.0784	1538.1615	1576.6962	1623.8637	2341.6638	3017.7578	3071.1255	3082.0654	3258.3677	3284.0378	3686.7139	3777.5889
CC#CC1=C(O)NC=C1	CC#Cc1c(O)[nH]cc1	
InChI=1S/C7H7NO/c1-2-3-6-4-5-8-7(6)9/h4-5,8-9H,1H3	InChI=1S/C7H7NO/c1-2-3-6-4-5-8-7(6)9/h4-5,8-9H,1H3
