19
gdb 26117	2.56996	1.28822	1.05673	1.795	78.62	-0.196	0.0134	0.2094	1227.0547	0.159615	-419.248749	-419.239408	-419.238464	-419.283293	34.205	
C	-0.0930872664	 1.5927350405	-0.0665380331	-0.381493
C	-0.0585014599	 0.0518501008	-0.0295158121	-0.097667
C	-1.484828998	-0.5324207439	-0.0008380758	-0.380048
C	 0.7520685642	-0.5085704242	-1.1494537384	 0.310075
C	 1.8858362815	-1.2580663081	-1.2498492282	 0.147594
N	 2.740927153	-1.7409513662	-0.2584335763	-0.60035
N	 2.1904503621	-1.4692984982	-2.5888135013	-0.301994
C	 1.248303066	-0.8537851673	-3.2275160617	 0.064605
O	 0.3367672159	-0.2512247278	-2.4487084581	-0.193878
H	 0.9170924388	 2.0099879194	-0.0295926884	 0.121962
H	-0.5700693318	 1.9436955153	-0.9869222845	 0.12681
H	-0.6615907977	 1.987305159	 0.7817868216	 0.109378
H	 0.4540795401	-0.2500012684	 0.8933755324	 0.08099
H	-2.0233494961	-0.2745180089	-0.9181491888	 0.127803
H	-1.465171264	-1.6232456738	 0.0808729411	 0.112808
H	-2.0502183555	-0.1333663472	 0.84754062	 0.110481
H	 2.2627705949	-2.0553761585	 0.5749695908	 0.245432
H	 3.3310888584	-2.4771400858	-0.6235765313	 0.25323
H	 1.1133145946	-0.7736331469	-4.294841108	 0.144262
38.7126	122.8983	163.6365	189.9	222.1169	248.879	282.7316	297.4051	390.2289	430.7352	525.6179	617.4574	664.6741	692.9526	733.3654	781.5158	825.0715	883.2281	928.0847	958.2632	958.8477	1025.9034	1051.3567	1120.8097	1157.7987	1170.522	1202.1711	1265.3943	1311.0314	1326.2375	1368.2811	1394.5424	1411.0831	1425.4647	1485.7529	1491.5631	1500.3713	1511.8356	1555.9737	1638.7586	1696.3612	3021.528	3033.3969	3037.8877	3104.0656	3109.154	3111.6629	3116.929	3272.6378	3546.6199	3641.6152
CC(C)C1=C(N)N=CO1	CC(C)c1c(N)nco1	
InChI=1S/C6H10N2O/c1-4(2)5-6(7)8-3-9-5/h3-4H,7H2,1-2H3	InChI=1S/C6H10N2O/c1-4(2)5-6(7)8-3-9-5/h3-4H,7H2,1-2H3
