13
gdb 25130	3.73384	1.29955	0.96403	2.3025	78.87	-0.2382	-0.0765	0.1617	1124.6446	0.091195	-411.79445	-411.787148	-411.786203	-411.826453	27.324	
N	-0.1306732471	 1.327534497	 0.0082437577	-0.561671
C	 0.0142938359	 0.0636144739	 0.0009786737	 0.409098
N	-1.1542767805	-0.7327325543	 0.0029263683	-0.281644
C	-1.0919125903	-2.0738770896	-0.0043348355	 0.107794
N	 0.0169059792	-2.7477990666	-0.0135442104	-0.314395
C	 1.1529341655	-1.9499540255	-0.0152639012	 0.153854
N	 1.2070664287	-0.6477725183	-0.0088217586	-0.326764
C	 2.391370821	-2.6702829276	-0.0253780628	 0.267283
C	 3.4242440408	-3.2853468893	-0.0338931328	-0.321635
H	 0.7894795526	 1.7644286165	 0.0057602683	 0.231487
H	-2.035764614	-0.2388972434	 0.0100226578	 0.281276
H	-2.043112053	-2.6016678007	-0.0021529466	 0.149302
H	 4.3405052311	-3.8232408118	-0.0414046578	 0.206016
112.1977	138.6342	151.7266	329.9162	418.8497	429.5607	500.0137	566.1864	575.8284	647.824	665.9766	678.7447	745.3858	775.8401	805.3622	860.4797	923.6727	974.7141	996.0493	1098.0903	1175.3798	1259.1125	1339.3614	1402.9446	1474.2448	1557.0859	1654.2433	1739.1635	2240.2303	3166.0971	3499.9173	3515.974	3611.273
N=C1NC=NC(=N1)C#C	[NH]C1=N[C@@H](N=CN1)C#C	
InChI=1S/C5H4N4/c1-2-4-7-3-8-5(6)9-4/h1,3H,(H2,6,7,8,9)	InChI=1S/C5H5N4/c1-2-4-7-3-8-5(6)9-4/h1,3-4,6H,(H,7,8,9)/t4-/m1/s1
