14
gdb 53924	1.79547	1.63253	1.29346	2.888	67.12	-0.2922	-0.0263	0.2659	1056.0131	0.09924	-432.917692	-432.908208	-432.907264	-432.952602	33.149	
C	 0.2736471563	 1.5529647496	 0.3505636091	-0.404643
C	 0.0574120437	 0.0475463449	 0.0585922115	-0.193739
C	 0.6144190321	-0.7690787652	 1.1496956078	 0.309981
N	 1.0718433611	-1.399720793	 2.0021664707	-0.313599
C	-1.3740006558	-0.2538062649	-0.0817542499	 0.301038
N	-2.4927126014	-0.4926880238	-0.245662669	-0.329271
C	 0.8584940006	-0.3389743139	-1.257761437	 0.442128
N	 0.3072073396	-1.3257977085	-1.9934947265	-0.532801
O	 1.8967673761	 0.2240276695	-1.5055324776	-0.335748
H	 1.3453007259	 1.7490164796	 0.3558037096	 0.177126
H	-0.1945654617	 2.1472510502	-0.4364644304	 0.152161
H	-0.1644932485	 1.817276986	 1.3139160063	 0.153011
H	-0.5940115338	-1.7219823918	-1.7846638462	 0.292162
H	 0.7884521458	-1.6172765186	-2.8292620685	 0.282196
28.9994	130.5312	142.764	167.9344	224.4848	235.9946	282.444	331.5593	407.6151	430.8911	484.6847	513.1743	572.2554	587.4438	608.1219	671.836	759.9664	871.4479	955.6288	1076.5489	1109.3293	1154.6358	1204.7149	1328.5308	1407.0727	1484.6202	1487.4321	1626.0159	1835.6995	2354.6752	2364.168	3070.1129	3154.0291	3175.1044	3595.5595	3725.1691
CC(C#N)(C#N)C(N)=O	CC(C#N)(C#N)C(=O)N	
InChI=1S/C5H5N3O/c1-5(2-6,3-7)4(8)9/h1H3,(H2,8,9)	InChI=1S/C5H5N3O/c1-5(2-6,3-7)4(8)9/h1H3,(H2,8,9)
