17
gdb 94254	1.91109	1.6173	1.26034	3.1521	74.13	-0.2449	-0.0509	0.194	1094.4914	0.134057	-417.997123	-417.987849	-417.986904	-418.031587	32.528	
C	-0.4269234585	 1.4646662236	-0.1876841543	-0.341503
N	-0.1734377253	 0.0584876574	 0.0617877801	-0.113011
C	-1.27175996	-0.8032776484	 0.5536850659	-0.160872
C	-0.2691533716	-1.5431221763	 1.4693707992	-0.291464
C	 0.7183756247	-0.3815814357	 1.1676002072	 0.094701
C	 2.0788909446	-0.7773399584	 0.5743659982	 0.134329
O	 2.5043637406	-1.8981314844	 0.5724981713	-0.230755
C	 0.8998486504	 0.577290498	 2.2622859937	 0.230447
N	 1.0593973586	 1.3629176101	 3.0963975194	-0.330116
H	 0.5004896763	 1.9691753586	-0.4742578862	 0.134803
H	-1.1259314209	 1.5482218987	-1.0253670879	 0.135023
H	-0.8544772762	 1.9929200011	 0.6803619705	 0.123541
H	-2.0285781189	-0.2470065088	 1.1255475099	 0.108399
H	-1.7695873331	-1.3804829969	-0.230817078	 0.119185
H	-0.5550334899	-1.6669520592	 2.5117917106	 0.134807
H	 0.1112252831	-2.4832504379	 1.0711674879	 0.149016
H	 2.614638346	 0.0649312185	 0.0882363024	 0.103469
72.9133	88.4802	132.5	169.6387	188.7268	219.4407	272.2107	320.5748	375.3883	483.5071	522.7049	593.0443	633.8223	742.1537	802.9432	904.6856	950.6905	965.8845	985.1759	1031.2551	1116.1252	1159.2872	1163.2581	1184.2827	1209.4738	1232.6264	1247.1467	1268.7939	1328.4151	1409.4909	1451.5535	1485.8849	1489.5491	1498.9934	1523.9838	1841.4928	2336.6036	2915.5707	2973.4708	2999.4499	3075.4107	3079.1538	3110.9098	3113.9248	3173.5326
CN1CCC1(C=O)C#N	CN1CC[C@]1(C=O)C#N	
InChI=1S/C6H8N2O/c1-8-3-2-6(8,4-7)5-9/h5H,2-3H2,1H3	InChI=1S/C6H8N2O/c1-8-3-2-6(8,4-7)5-9/h5H,2-3H2,1H3/t6-/m1/s1
