16
gdb 67347	2.91695	1.94277	1.34508	1.1159	69.24	-0.252	0.0064	0.2583	926.6685	0.124625	-437.833201	-437.826224	-437.82528	-437.864329	27.913	
C	-0.0536043635	 1.5475839491	 0.0284449548	-0.507786
C	-0.049638827	 0.0453486022	 0.0231222038	 0.221015
C	 1.0826083326	-0.7959684914	-0.684063123	-0.002419
O	 2.0248645339	-0.5396322104	 0.407219219	-0.318138
C	 0.753212016	-0.8030256	 1.0840096214	-0.002392
C	 0.4537527881	-1.9701503506	 0.1088218914	 0.054378
O	-0.9425244077	-2.0552269232	-0.151646177	-0.25467
C	-1.3177563304	-0.7239589124	-0.2162431909	 0.381459
N	-2.4755198631	-0.2809040893	-0.4302384222	-0.545287
H	 0.9562912039	 1.9207438393	 0.2170490686	 0.1352
H	-0.4055118214	 1.9355473138	-0.9315608096	 0.137619
H	-0.7265125791	 1.928561583	 0.8017704561	 0.137576
H	 1.4453002794	-0.7383698434	-1.710096685	 0.108604
H	 0.7220484426	-0.753875377	 2.1722294415	 0.108602
H	 0.9267372838	-2.9439967633	 0.193055563	 0.117051
H	-3.1423915979	-1.0447685366	-0.5575927319	 0.22919
149.0318	206.839	238.6968	308.5756	372.9542	418.2928	539.9469	624.2699	651.6746	679.9252	717.5316	780.6584	841.2344	865.6449	893.2763	898.9353	906.9487	939.6529	997.2796	1032.2998	1047.3051	1101.0051	1137.3352	1151.5889	1171.5217	1186.2251	1201.2046	1234.6183	1288.5471	1333.7991	1387.3424	1414.4251	1488.4461	1489.6003	1804.5271	3048.5634	3118.0633	3125.5344	3128.998	3129.1641	3182.8373	3469.6215
CC12C3OC1C3OC2=N	C[C@@]12[C@H]3O[C@@H]1[C@H]3O[C]2[NH]	
InChI=1S/C6H7NO2/c1-6-3-2(4(6)9-3)8-5(6)7/h2-4,7H,1H3	InChI=1S/C6H7NO2/c1-6-3-2(4(6)9-3)8-5(6)7/h2-4,7H,1H3/t2-,3-,4+,6+
