19
gdb 64922	2.10642	1.51592	1.06091	3.9764	78.07	-0.2442	-0.0439	0.2004	1185.4695	0.155241	-423.043095	-423.032982	-423.032038	-423.078173	35.968	
C	-0.09472984	 1.4900589926	-0.0328405452	-0.462054
C	 0.0575932233	-0.0171344184	 0.0186894647	 0.177691
C	 1.41427256	-0.664187134	-0.1611687195	-0.361678
C	 0.8269847586	-0.6705402155	 1.2193940367	 0.193609
C	 1.368174138	 0.2276159406	 2.3184251961	-0.481699
C	 0.3350730928	-1.9877221534	 1.7373456981	 0.101818
O	 0.2016460567	-2.9973155411	 1.088524185	-0.262105
C	-1.1086708236	-0.7563950286	-0.5583544906	 0.096692
O	-2.0914695981	-0.1965595263	-0.9842690314	-0.267683
H	 0.8409877046	 2.0087396194	 0.1805745022	 0.114224
H	-0.4283978265	 1.7799949983	-1.0324743677	 0.146279
H	-0.8565293294	 1.8381012768	 0.6707283121	 0.134778
H	 1.4514508412	-1.623841251	-0.6673136748	 0.146096
H	 2.2524528719	-0.0027121809	-0.3518823231	 0.126983
H	 1.8129179393	 1.1406197405	 1.9222308279	 0.132926
H	 0.5816379861	 0.5147595363	 3.0247827602	 0.133867
H	 2.1472535847	-0.2962174479	 2.8833138957	 0.133299
H	 0.1056876427	-1.9816967779	 2.8266690408	 0.082299
H	-1.0090126024	-1.8564771896	-0.5956994371	 0.114658
89.4488	97.4939	112.3029	136.5719	161.714	225.7043	271.3063	304.0384	315.1386	351.1165	415.9688	441.7261	516.9793	615.0617	703.6626	751.5966	839.1935	911.5162	930.8678	951.2772	1007.7955	1022.2864	1047.6005	1087.1548	1094.093	1114.3228	1174.3163	1239.2689	1318.205	1343.6878	1410.1723	1421.4706	1436.8059	1443.7123	1471.5614	1477.137	1485.9747	1496.309	1505.763	1800.4263	1809.1754	2879.5592	2976.7637	3036.9041	3054.0158	3093.1743	3118.2735	3129.2179	3133.9315	3148.5961	3222.407
CC1(CC1(C)C=O)C=O	C[C@]1(C[C@]1(C)C=O)C=O	
InChI=1S/C7H10O2/c1-6(4-8)3-7(6,2)5-9/h4-5H,3H2,1-2H3	InChI=1S/C7H10O2/c1-6(4-8)3-7(6,2)5-9/h4-5H,3H2,1-2H3/t6-,7+
