21
gdb 58114	2.54074	1.20145	1.11755	1.7943	73.97	-0.2477	0.0681	0.3158	1230.5129	0.179419	-461.341964	-461.331743	-461.330799	-461.376517	38.569	
C	 0.0977993798	 1.4528419345	-0.1965765438	-0.428367
C	-0.0568613826	-0.0438590788	 0.0532456114	 0.10783
O	 0.6979852843	-0.4768836655	 1.1851961429	-0.438932
C	-1.5407684055	-0.5119228235	 0.1598013932	 0.315456
C	-2.2672125069	 0.0931434789	 1.360697359	-0.430498
O	-2.2399445361	-0.1154464959	-1.0124688013	-0.477899
C	-1.544567609	-2.037605444	 0.2524667268	 0.047221
C	-2.6915611335	-2.8285209134	-0.1976101952	-0.191876
O	-1.5196582015	-2.7012907761	-1.0226327431	-0.264469
H	 1.147076216	 1.6941797788	-0.3868294944	 0.121468
H	-0.5032318632	 1.7604017679	-1.0546127397	 0.140447
H	-0.2311320182	 2.0379915549	 0.6709807636	 0.10598
H	 0.3748913873	-0.5889395174	-0.7960906254	 0.094297
H	 0.575355541	 0.1719343303	 1.8857721599	 0.281583
H	-2.3282469837	 1.1806102693	 1.2693712099	 0.128949
H	-3.2868348558	-0.2962197279	 1.4161382069	 0.125669
H	-1.7540663407	-0.1554974574	 2.2943611747	 0.112617
H	-2.0083881849	-0.7731556226	-1.6855196516	 0.289035
H	-0.8627456466	-2.4553448897	 0.9890598525	 0.114699
H	-2.8575395221	-3.8229401858	 0.2116093476	 0.120503
H	-3.572423438	-2.3159578467	-0.5767316537	 0.126288
83.1371	103.1656	181.4258	198.1171	230.5375	260.6605	275.178	299.0793	305.6452	326.165	383.9181	445.4335	483.6729	526.2436	551.3048	634.3443	720.5593	830.469	865.5819	915.0221	930.707	940.644	1012.0564	1019.2958	1068.4383	1098.4771	1107.9157	1140.0692	1161.4607	1179.8729	1205.0217	1224.9049	1283.2629	1297.4315	1341.9396	1378.165	1397.4071	1414.2908	1416.7106	1445.8601	1486.0494	1491.6703	1498.4178	1502.154	1518.038	3026.0382	3033.6911	3048.3151	3099.439	3101.9721	3121.2164	3125.5457	3139.3378	3153.9089	3192.773	3718.8689	3814.7328
CC(O)C(C)(O)C1CO1	C[C@@H](O)[C@@](C)(O)[C@H]1CO1	
InChI=1S/C6H12O3/c1-4(7)6(2,8)5-3-9-5/h4-5,7-8H,3H2,1-2H3	InChI=1S/C6H12O3/c1-4(7)6(2,8)5-3-9-5/h4-5,7-8H,3H2,1-2H3/t4-,5-,6-/m1/s1
