16
gdb 45713	3.33201	1.50479	1.0938	3.337	71.08	-0.2189	-0.0147	0.2042	1047.926	0.126761	-437.917566	-437.910339	-437.909395	-437.949474	27.532	
O	-0.1107976632	-0.0418953363	-0.1729788731	-0.364167
C	-0.0340865656	 1.1560783693	-0.0421040568	 0.399857
N	-1.1076767298	 2.0396408796	 0.0310326665	-0.324736
C	-0.6849124234	 3.3543087745	 0.3066399589	-0.142765
C	 0.6468619425	 3.4341870156	 0.2507223772	 0.186237
C	 1.7294719668	 4.287390268	 0.8304448597	-0.154262
O	 2.7384785364	 3.3399339538	 1.2303480009	-0.270651
C	 2.2226411298	 2.0063010798	 1.1546058665	-0.083272
C	 1.2076728425	 2.0588750719	 0.0006338454	-0.214866
H	-2.0630583131	 1.7213662899	 0.0420736292	 0.261788
H	-1.4178545759	 4.1016656682	 0.5771387518	 0.133682
H	 2.1925067111	 4.9770376243	 0.112902346	 0.113975
H	 1.3881690273	 4.8756865058	 1.6933981313	 0.109105
H	 3.067491966	 1.3371178451	 0.9795856473	 0.123653
H	 1.7282966677	 1.7158354901	 2.0936143637	 0.102367
H	 1.7293987909	 1.9640047105	-0.9597295246	 0.124053
97.5441	148.5044	227.8867	259.5498	321.2988	479.346	509.312	580.8099	630.1564	639.8787	713.4679	781.0769	847.1528	870.2093	908.1127	932.3996	1009.4954	1017.4441	1057.4808	1079.2515	1085.8336	1159.1438	1184.8909	1201.9746	1221.2366	1265.475	1283.0322	1327.7321	1350.8379	1392.0907	1398.9122	1513.3835	1522.4436	1723.147	1837.931	2993.0962	3003.5119	3030.6829	3039.661	3108.4392	3231.795	3655.8082
O=C1NC=C2COCC12	O=C1N[CH][C]2COC[C@@H]12	
InChI=1S/C6H7NO2/c8-6-5-3-9-2-4(5)1-7-6/h1,5H,2-3H2,(H,7,8)	InChI=1S/C6H7NO2/c8-6-5-3-9-2-4(5)1-7-6/h1,5H,2-3H2,(H,7,8)/t5-/m1/s1
