20
gdb 113271	4.00056	0.87227	0.83682	3.3974	77.49	-0.2403	0.0291	0.2695	1452.615	0.168282	-440.284669	-440.27441	-440.273466	-440.320535	36.418	
C	 0.3674223069	 1.1930015356	 0.2691581436	-0.232706
O	-0.3617944836	 0.161179255	-0.3677368159	-0.244208
C	 0.3706156248	-0.4936410863	-1.3495224981	 0.072134
C	 1.3532806915	-1.5759333883	-0.9710292316	-0.323116
C	 0.0288265663	-1.9344359352	-1.6167202452	 0.290526
C	-1.0345535572	-2.6317791839	-0.7926623436	-0.444093
N	 0.0821557648	-2.3199034227	-3.0053507732	-0.333028
C	 0.6615056646	-3.4734269179	-3.4441063143	 0.148864
O	 1.2691391077	-4.2610502489	-2.7528627175	-0.321616
H	 1.274819908	 0.8073799231	 0.7545131795	 0.113915
H	 0.662261514	 1.9777316441	-0.4436270389	 0.107916
H	-0.28890039	 1.6297000015	 1.0251347627	 0.130005
H	 0.6221229834	 0.1246770337	-2.2142149688	 0.083157
H	 2.2572925768	-1.6936768031	-1.5550331098	 0.127861
H	 1.4489779476	-1.8143598848	 0.0824315841	 0.124096
H	-1.0675700617	-2.224406239	 0.2190718765	 0.130347
H	-2.0240621774	-2.4949931722	-1.2423638276	 0.11057
H	-0.8202828031	-3.7029841215	-0.7432732258	 0.141992
H	-0.4892324808	-1.8077964949	-3.6611252617	 0.244871
H	 0.5256322473	-3.6045975844	-4.5377035745	 0.072512
36.5	84.2481	138.5585	160.7798	188.8198	209.6101	227.6472	247.6259	317.4992	366.4151	442.6685	466.3252	531.942	532.634	700.5064	792.8452	860.1033	905.8688	955.7353	986.53	1019.0182	1032.6733	1043.8062	1064.2997	1119.7872	1125.156	1173.722	1180.4307	1187.6081	1242.3319	1283.2028	1318.9319	1401.5971	1409.9311	1432.1503	1469.319	1481.4476	1485.0236	1490.0388	1502.9003	1508.1781	1509.5586	1809.2838	2918.2135	2986.4324	3040.1108	3040.4702	3074.8281	3107.4797	3122.1526	3141.6616	3147.1969	3239.9484	3605.2999
COC1CC1(C)NC=O	CO[C@H]1C[C@]1(C)NC=O	
InChI=1S/C6H11NO2/c1-6(7-4-8)3-5(6)9-2/h4-5H,3H2,1-2H3,(H,7,8)	InChI=1S/C6H11NO2/c1-6(7-4-8)3-5(6)9-2/h4-5H,3H2,1-2H3,(H,7,8)/t5-,6-/m0/s1
