19
gdb 104752	2.70792	1.15823	0.94069	1.4374	78.05	-0.2575	0.0147	0.2722	1290.9763	0.155967	-422.968011	-422.957941	-422.956997	-423.003224	36.691	
C	 1.0370729582	-0.4462101512	-0.714977158	-0.380533
C	 0.0279619135	-0.1347577869	 0.3948103614	-0.282938
C	-1.42769793	-0.443393599	 0.0585759331	 0.359323
C	-2.441937743	 0.5539311233	 0.5922019075	-0.125548
O	-2.2484323287	 1.8375201014	 0.0263362366	-0.412804
O	-1.7238051715	-0.8594828398	-1.2876992267	-0.27718
C	-1.9154302836	-1.813968154	-0.2269452621	-0.228014
C	-1.0735017763	-2.9789445045	-0.1837377164	 0.329989
C	-0.4215965477	-3.9864570393	-0.107774692	-0.402297
H	 2.0432967831	-0.1675201419	-0.3874838501	 0.107846
H	 1.0438774851	-1.5066293404	-0.9733068181	 0.13505
H	 0.8054385119	 0.1168962369	-1.6227271497	 0.123533
H	 0.2919562044	-0.679125233	 1.3100911204	 0.111127
H	 0.0796182958	 0.9319695281	 0.6357718669	 0.122145
H	-3.4593729935	 0.1812104518	 0.4035092926	 0.093738
H	-2.3183615666	 0.6729657073	 1.6741996096	 0.116653
H	-2.3496959605	 1.7396645118	-0.9275357794	 0.294649
H	-2.9656506383	-2.0238365948	-0.0195257629	 0.111611
H	 0.1648638678	-4.8702190758	-0.0496667326	 0.203647
59.4009	80.6087	127.9424	143.9245	211.9066	240.4535	257.111	319.1154	349.2458	414.592	434.5307	496.5852	558.6341	619.011	645.1406	672.1209	699.4207	780.5208	830.0246	925.9004	960.167	995.7161	1019.7893	1067.5601	1075.9569	1117.6798	1124.3222	1185.7781	1246.5454	1305.503	1327.0283	1377.25	1398.0305	1415.1507	1422.6002	1451.6141	1483.0049	1491.4515	1497.3188	1507.8391	2237.116	2996.9875	3032.368	3050.6131	3074.8417	3078.109	3097.22	3117.2782	3140.7269	3500.9666	3798.8424
CCC1(CO)OC1C#C	CC[C@@]1(CO)O[C@H]1C#C	
InChI=1S/C7H10O2/c1-3-6-7(4-2,5-8)9-6/h1,6,8H,4-5H2,2H3	InChI=1S/C7H10O2/c1-3-6-7(4-2,5-8)9-6/h1,6,8H,4-5H2,2H3/t6-,7-/m0/s1
