16
gdb 22054	4.31113	0.65296	0.57035	8.6127	108.26	-0.1749	-0.0654	0.1095	1853.0281	0.121478	-433.987326	-433.977043	-433.976098	-434.023371	36.027	
C	 0.0073666458	 1.5588038147	 0.0365678589	-0.471633
C	 0.0160012124	 0.0616420823	-0.0899826762	 0.051097
N	 0.0432395289	-0.7515961379	 1.0576227465	-0.069296
O	 0.0605165151	-0.1141933535	 2.1145187434	-0.3106
C	 0.0007693324	-0.6007707017	-1.2611958396	 0.088493
C	-0.0146101596	-1.2406226891	-2.3292291002	 0.207206
C	-0.0206531875	-1.9714898892	-3.4584079734	 0.100338
N	 0.1859252259	-3.3348451313	-3.4587326668	-0.531329
N	-0.2358454302	-1.425891418	-4.7069812611	-0.531058
H	-0.2477461765	-0.4178915041	-4.7327618758	 0.272667
H	 0.2943994412	-1.841888164	-5.4608989721	 0.263738
H	 0.8912290115	 1.8976215216	 0.5877281522	 0.139869
H	-0.0142119812	 2.0399823963	-0.9429121511	 0.107559
H	-0.86041679	 1.8848217231	 0.6199751866	 0.139786
H	 0.2095087811	-3.7570026971	-2.5426523186	 0.279834
H	-0.3585367892	-3.8585953521	-4.1310643528	 0.26333
61.3945	78.9707	101.5703	102.9995	165.0537	218.6533	272.5955	370.1965	382.3345	395.9658	406.3094	533.0283	547.4203	553.8197	570.9738	600.0323	608.4243	682.1958	767.7042	887.3458	997.2755	1042.658	1111.2334	1115.945	1188.3954	1375.1946	1397.052	1424.7179	1464.8501	1481.7892	1504.6123	1633.7196	1634.2236	1698.4121	2221.1714	3036.7013	3089.3764	3133.9463	3554.2373	3558.3335	3673.8028	3678.0049
CC(=N[O-])C#CC(N)=[NH2+]	C[C]([N][O])C#CC(=[NH2])N	
InChI=1S/C5H7N3O/c1-4(8-9)2-3-5(6)7/h9H,1H3,(H3,6,7)	InChI=1S/C5H7N3O/c1-4(8-9)2-3-5(6)7/h6-7H2,1H3
