21
gdb 108945	3.13185	1.07335	1.03074	1.501	84.51	-0.2134	0.0288	0.2422	1291.1993	0.182661	-387.086026	-387.076959	-387.076014	-387.119873	34.412	
C	-0.0848290124	 1.5615414808	 0.0600755468	-0.414013
C	 0.0468516774	 0.059889323	-0.0482191462	 0.004464
C	 0.7215554905	-0.6547241424	-1.1959522373	-0.069709
C	 1.6987135612	 0.110314676	-2.0918130766	-0.328809
C	 2.8229864142	 0.5110001337	-1.1522241254	 0.299265
C	 3.9644541661	 1.3509172886	-1.6247128024	-0.175812
O	 4.8626242462	 1.5903028746	-0.5556996824	-0.413822
C	 2.6232612358	 0.0381032938	 0.0822956488	-0.16588
C	 1.3407994367	-0.7111210368	 0.1960164381	-0.100207
H	 0.8442837237	 2.0732499521	-0.2007618591	 0.123103
H	-0.8747543087	 1.9329961378	-0.6031264073	 0.110112
H	-0.3465435802	 1.8549770275	 1.0827005271	 0.113317
H	-0.8310347528	-0.4718530802	 0.3141009809	 0.079308
H	 0.2182640362	-1.5176995005	-1.6167832646	 0.078321
H	 2.0671506964	-0.5233216022	-2.9106143074	 0.101738
H	 1.2352352255	 0.9847954584	-2.57031788	 0.103643
H	 4.4682014707	 0.8365671426	-2.463775549	 0.091292
H	 3.5756231378	 2.2980486801	-2.0409338155	 0.092092
H	 5.597871044	 2.1084833904	-0.8942499927	 0.288451
H	 3.2968932586	 0.2020395184	 0.9135494441	 0.104608
H	 1.2954682631	-1.6003491156	 0.8165304301	 0.078538
66.3976	128.8445	172.188	198.2411	210.0792	233.9922	289.2945	403.0147	412.3825	484.5624	554.7763	655.8352	714.4417	741.8476	786.9329	864.1069	877.564	906.9556	950.9385	965.4288	988.7261	1014.6021	1051.0946	1057.2959	1082.4611	1089.9071	1113.7628	1135.2796	1182.7331	1191.0124	1215.6472	1226.8727	1250.3441	1286.5973	1320.5644	1352.1762	1360.9135	1411.4002	1429.4652	1467.0593	1477.3805	1497.6907	1501.3019	1509.2278	1709.9554	2931.2399	2941.1604	3002.6822	3025.2645	3029.4759	3083.5011	3112.2926	3127.5261	3154.1868	3171.1002	3220.1688	3838.9439
CC1C2CC(CO)=CC12	C[C@H]1[C@H]2CC(=C[C@@H]12)CO	
InChI=1S/C8H12O/c1-5-7-2-6(4-9)3-8(5)7/h2,5,7-9H,3-4H2,1H3	InChI=1S/C8H12O/c1-5-7-2-6(4-9)3-8(5)7/h2,5,7-9H,3-4H2,1H3/t5-,7+,8-/m1/s1
