19
gdb 114824	2.62317	1.28725	1.14906	2.6869	70.74	-0.2475	0.0485	0.296	1153.6377	0.158194	-460.11781	-460.108894	-460.10795	-460.151734	33.404	
O	-0.0585917739	 1.3412914182	-0.4893517532	-0.420819
C	 0.0850034876	-0.029857603	-0.1638390121	-0.081485
C	-1.2611388746	-0.6247829942	 0.2027851966	 0.065936
O	-2.1977913803	-0.4893324739	-0.9057886078	-0.32899
C	-2.5582815249	-1.8862711988	-0.8469927711	 0.086658
C	-1.7361266352	-2.7616423323	-1.8230136233	-0.230381
C	-0.7127452038	-3.0655087561	-0.6811331308	-0.312041
C	-1.5268222251	-2.1532265688	 0.2807636121	 0.314722
O	-1.9179151797	-2.6724365937	 1.5149551634	-0.476054
H	-0.7564564803	 1.3841010001	-1.1544735083	 0.294921
H	 0.5346667845	-0.5883900726	-0.9987127409	 0.085447
H	 0.7720111755	-0.0862977893	 0.6886648276	 0.103992
H	-1.6611297011	-0.1212365671	 1.0928343744	 0.089699
H	-3.6352632464	-2.0418171708	-0.7576148287	 0.087638
H	-2.2628286438	-3.6462686129	-2.1879374009	 0.109294
H	-1.3497709087	-2.1991560195	-2.6747584649	 0.113623
H	-0.7617532026	-4.1042601562	-0.3457945102	 0.110582
H	 0.3321367865	-2.8050680296	-0.8620829924	 0.104278
H	-1.1280527836	-2.9154403795	 2.0106877205	 0.28298
63.7121	100.1718	158.0621	180.0589	227.9078	301.2284	362.8202	400.7752	436.6673	486.9757	501.4955	635.8743	672.0645	738.6517	842.5071	862.0418	882.7014	927.331	948.2187	1003.4541	1029.6868	1054.3626	1083.4449	1104.1925	1119.455	1170.0007	1189.7689	1201.1089	1219.8726	1235.0399	1241.1892	1266.3742	1302.6282	1315.9246	1351.5637	1384.4888	1405.8263	1435.5779	1462.9183	1486.0663	1497.5372	2990.1464	3023.9367	3064.6812	3065.7822	3071.9613	3094.6938	3115.6617	3134.8663	3788.4557	3799.0207
OCC1OC2CCC12O	OC[C@H]1O[C@H]2CC[C@@]12O	
InChI=1S/C6H10O3/c7-3-5-6(8)2-1-4(6)9-5/h4-5,7-8H,1-3H2	InChI=1S/C6H10O3/c7-3-5-6(8)2-1-4(6)9-5/h4-5,7-8H,1-3H2/t4-,5+,6-/m0/s1
