17
gdb 8127	4.28194	1.72831	1.44815	3.0745	69.2	-0.2455	0.0262	0.2718	899.443	0.142977	-363.874716	-363.86754	-363.866596	-363.90594	27.976	
C	-0.3145773856	 1.5344864205	 0.083864903	-0.482379
C	 0.0695585957	 0.0778416206	-0.0036514207	 0.311155
C	-0.6854205464	-0.9654738764	 0.8077994464	-0.358169
C	 0.7555276108	-0.6631438571	 1.1104931103	 0.05951
O	 1.7084884991	-1.5644020399	 0.5811289695	-0.235448
C	 1.6766888207	-1.5376577673	-0.7919095439	 0.400481
N	 2.3383643949	-2.3121052666	-1.5350107054	-0.534092
C	 0.7357131302	-0.4416905656	-1.2687333135	-0.375023
H	 0.5344387388	 2.1834119518	-0.1593577855	 0.12248
H	-1.1268370658	 1.7722077421	-0.6123583849	 0.126166
H	-0.6581295367	 1.7946453437	 1.0899934147	 0.118913
H	-1.4318129282	-0.6013034879	 1.5060998294	 0.118197
H	-0.9137040797	-1.9273896404	 0.3588656069	 0.125485
H	 1.0782751552	-0.2194990441	 2.0444630958	 0.108874
H	 2.8942413056	-2.9595822021	-0.973766543	 0.223203
H	 0.0428074546	-0.8364364908	-2.0164122536	 0.137681
H	 1.320570597	 0.3469757294	-1.7551256053	 0.132965
92.3195	208.8962	227.5822	301.5496	359.6335	447.8649	455.3787	524.279	572.3533	676.2711	745.7966	832.4891	860.7441	887.5892	897.1518	923.5849	972.0831	996.6995	1032.7555	1043.8792	1051.7158	1102.5017	1110.5208	1152.6146	1192.6002	1241.1145	1261.6209	1319.8835	1341.7226	1407.6673	1424.9496	1466.2622	1486.369	1492.0536	1502.7977	1778.7248	3026.1826	3051.3183	3087.5864	3098.1359	3101.1801	3124.6264	3189.2929	3215.18	3474.2507
CC12CC1OC(=N)C2	C[C@]12C[C@H]1O[C]([NH])C2	
InChI=1S/C6H9NO/c1-6-2-4(6)8-5(7)3-6/h4,7H,2-3H2,1H3	InChI=1S/C6H9NO/c1-6-2-4(6)8-5(7)3-6/h4,7H,2-3H2,1H3/t4-,6-/m1/s1
