15
gdb 9200	7.9578	0.78885	0.72731	4.4192	62.8	-0.2664	-0.0302	0.2361	1441.3174	0.116116	-399.821987	-399.812786	-399.811842	-399.858049	30.303	
O	 0.0543707301	 1.4080866156	 0.008985514	-0.391766
C	-0.0088785029	 0.0090261841	 0.0022104044	-0.167548
C	-1.4672732894	-0.4365455658	 0.0137038715	 0.371289
O	-2.386492523	 0.342329956	 0.0264893001	-0.270646
C	-1.6842076321	-1.947460191	 0.007866312	-0.311916
C	-3.180216484	-2.2981953942	 0.0203133175	-0.335765
C	-3.4036750864	-3.7409276705	 0.0147385291	 0.254052
N	-3.5623368944	-4.885523325	 0.0100931454	-0.303359
H	 0.9806239176	 1.6669842027	 0.0014270467	 0.297218
H	 0.4674278909	-0.4390653958	-0.8877924375	 0.113102
H	 0.4841620504	-0.4483720207	 0.8782594893	 0.113098
H	-1.1939461043	-2.3791833172	-0.8730598447	 0.14608
H	-1.1772491187	-2.3883507177	 0.8746864606	 0.146075
H	-3.6596302278	-1.8602165806	 0.9011132423	 0.170039
H	-3.6763487561	-1.8508823497	-0.8464260607	 0.170048
18.9516	58.6663	84.6433	108.0841	221.1899	231.4377	289.6396	378.933	390.5847	467.5351	538.2471	674.088	737.4073	846.9608	907.4387	950.9856	1010.6219	1068.509	1084.0001	1151.6418	1175.5298	1238.8372	1257.4875	1295.1242	1309.4464	1382.0747	1444.605	1453.4333	1464.0829	1495.0809	1829.3485	2364.3527	2948.7996	2969.4657	3040.0985	3067.6232	3072.6622	3106.527	3834.8025
OCC(=O)CCC#N	OCC(=O)CCC#N	
InChI=1S/C5H7NO2/c6-3-1-2-5(8)4-7/h7H,1-2,4H2	InChI=1S/C5H7NO2/c6-3-1-2-5(8)4-7/h7H,1-2,4H2
