22
gdb 17917	2.90563	2.05675	1.98283	0.1017	79.83	-0.2827	0.0761	0.3588	873.2983	0.204491	-313.101309	-313.094204	-313.09326	-313.132049	29.505	
C	-0.1385409635	 1.5334299568	 0.001057593	-0.433343
C	 0.062761846	 0.0196824354	 0.012604733	 0.055077
C	 1.0497546553	-0.5731311668	-1.026299335	 0.001225
C	 2.417995842	-0.047884581	-0.5315310752	-0.208746
C	 2.2584366404	-0.0572286977	 1.0229635589	-0.208744
C	 0.818882364	-0.5866930315	 1.2231805279	 0.001223
C	 0.8059909197	-2.0895473624	 0.863090069	-0.212219
C	 0.965764341	-2.0801470049	-0.6943056387	-0.21222
H	 0.7991464687	 2.087907094	 0.1003839894	 0.116619
H	-0.611931857	 1.855453045	-0.9330579995	 0.111125
H	-0.7918061833	 1.8449502547	 0.8235964795	 0.111124
H	-0.9205202396	-0.4572725078	-0.0911941578	 0.057679
H	 0.8388421406	-0.3393567092	-2.0727957877	 0.048066
H	 3.2403477782	-0.6828017494	-0.8746055195	 0.09022
H	 2.6183668073	 0.9601828861	-0.9057906994	 0.092177
H	 2.9947635752	-0.6971264886	 1.5183772551	 0.09022
H	 2.3772907709	 0.9460881542	 1.442071932	 0.092174
H	 0.3995011839	-0.3651818444	 2.2077310063	 0.048065
H	 1.6068160848	-2.6395437519	 1.3666225392	 0.089665
H	-0.1397702446	-2.553804689	 1.1592852163	 0.090476
H	 0.1003419179	-2.5395704279	-1.1818642651	 0.090476
H	 1.8527421622	-2.6251778137	-1.0313038916	 0.089663
168.7242	205.0785	244.2095	276.8705	359.0898	398.585	525.2307	569.2563	722.1438	746.8089	797.5179	812.8988	828.344	880.7126	890.0476	896.1608	947.6292	956.4915	982.5164	992.0119	1008.3007	1055.6815	1087.5656	1089.0086	1108.3144	1129.5535	1177.1844	1185.5634	1227.8967	1238.6453	1257.3871	1284.5223	1284.5988	1306.1509	1319.0757	1331.4254	1349.7566	1350.5426	1399.4207	1415.3849	1483.2426	1492.8229	1496.3262	1506.4288	1508.9763	1522.3717	3018.1028	3032.0791	3039.7313	3045.6317	3050.2941	3054.8217	3072.7826	3075.4449	3080.7451	3084.6919	3089.7628	3092.6457	3099.5427	3108.6255
CC1C2CCC1CC2	C[C@H]1[C@H]2CC[C@@H]1CC2	
InChI=1S/C8H14/c1-6-7-2-3-8(6)5-4-7/h6-8H,2-5H2,1H3	InChI=1S/C8H14/c1-6-7-2-3-8(6)5-4-7/h6-8H,2-5H2,1H3/t6-,7-,8+
