18
gdb 102216	3.12931	0.77554	0.64567	3.7389	82.2	-0.2563	0.0133	0.2696	1725.7003	0.144276	-401.925996	-401.915103	-401.914159	-401.964853	36.022	
C	 0.2084948584	 1.4000761087	-0.2466255994	-0.249109
O	-0.0997191391	 0.0382358454	-0.0028094336	-0.221212
C	 0.5969734878	-0.5252202482	 1.0770949195	-0.014687
C	-0.0345305139	-1.8983371592	 1.390762446	-0.372128
C	-1.3926005649	-1.7753060175	 1.9014129903	 0.037844
C	-2.5091924784	-1.6668599049	 2.3367110405	 0.106244
C	-3.8638754139	-1.5448631305	 2.8550919302	-0.49776
C	 2.0391982268	-0.6798955872	 0.7657236346	 0.268872
N	 3.1619560237	-0.7925941402	 0.5167847246	-0.322602
H	 1.2640832114	 1.5348858902	-0.5185214726	 0.133815
H	-0.4195953212	 1.7174830405	-1.0807070712	 0.14085
H	-0.0153710404	 2.0229598767	 0.6316133399	 0.115423
H	 0.5207797582	 0.1161521779	 1.9694459133	 0.121053
H	-0.0145475246	-2.4901122426	 0.4684801826	 0.154507
H	 0.6057173658	-2.4150511722	 2.1152186627	 0.146738
H	-4.5061996812	-2.3465250868	 2.4745597792	 0.152203
H	-3.8802943025	-1.5971409744	 3.9491865362	 0.149057
H	-4.3159643819	-0.5914437356	 2.5606546273	 0.150893
10.1602	51.8902	67.1196	106.8508	157.4993	190.6413	207.7373	253.356	277.8683	303.2163	383.0178	413.105	477.4593	563.2169	595.9534	774.4945	836.1794	943.0231	1028.9196	1045.8052	1053.5658	1058.6986	1151.2235	1173.5167	1183.5853	1201.5108	1260.9285	1297.4167	1363.5478	1371.8363	1414.9371	1460.1395	1477.4825	1478.4017	1480.942	1488.5251	1506.9785	2352.6304	2379.3253	2984.6412	2993.5376	3028.2906	3037.5046	3052.4253	3076.4296	3089.5689	3090.2964	3134.2532
COC(CC#CC)C#N	CO[C@@H](CC#CC)C#N	
InChI=1S/C7H9NO/c1-3-4-5-7(6-8)9-2/h7H,5H2,1-2H3	InChI=1S/C7H9NO/c1-3-4-5-7(6-8)9-2/h7H,5H2,1-2H3/t7-/m0/s1
