25
gdb 58863	2.37938	1.35516	1.04069	0.3587	92.37	-0.2413	0.0794	0.3206	1311.3454	0.228191	-352.341674	-352.331658	-352.330714	-352.376218	38.891	
C	-0.3232555131	 1.5740985519	-0.2084581916	-0.385792
C	-0.0209540115	 0.0743989094	-0.0425835636	-0.080654
C	-1.2999187044	-0.6993998839	 0.3064048668	-0.401231
C	 0.7064187274	-0.4746671896	-1.2530262173	 0.395492
C	 0.0273824318	-0.9542451275	-2.5102501596	-0.335803
C	 0.8938817504	-1.9164679251	-1.7426060633	-0.11859
C	 2.3673404718	-1.6551484388	-2.0608093906	-0.247841
C	 2.2004283995	-0.1852970749	-1.543117937	-0.034419
C	 2.5935431172	 0.9626948232	-2.4672736722	-0.412714
H	 0.5889887281	 2.1524468506	-0.382911886	 0.115328
H	-0.9930572626	 1.7426341497	-1.0591975418	 0.11445
H	-0.8078059041	 1.9780401514	 0.6870536993	 0.105483
H	 0.6654783122	-0.0316119938	 0.8112694816	 0.06733
H	-2.0724858619	-0.5672532223	-0.4588311536	 0.115336
H	-1.1073054393	-1.7716092317	 0.4129197493	 0.113511
H	-1.7160926396	-0.3389268053	 1.2526538031	 0.110746
H	-1.0403460018	-1.1277263618	-2.4283622407	 0.10735
H	 0.3359994944	-0.600790388	-3.49184758	 0.098548
H	 0.4905403992	-2.8337830777	-1.3291711198	 0.079902
H	 3.0642287722	-2.2387058302	-1.4547405207	 0.097161
H	 2.6487344067	-1.7655892753	-3.1147287821	 0.089203
H	 2.7309235172	-0.0758446276	-0.5903045253	 0.066652
H	 2.0677839846	 0.910432766	-3.4262933571	 0.114143
H	 2.3708045618	 1.9369912935	-2.0191275882	 0.114997
H	 3.6683314136	 0.9351823978	-2.6803724096	 0.111413
47.773	133.5057	197.7099	213.4544	216.6073	249.1807	269.1128	274.3307	308.3299	398.5005	411.8258	475.822	521.3969	642.7152	672.9992	806.6722	837.4655	859.978	875.0909	903.3363	925.8808	935.7171	964.7835	974.8606	1018.3475	1026.6978	1072.2843	1082.2366	1095.7376	1106.4609	1129.7101	1151.5356	1168.2952	1195.7641	1217.282	1244.1805	1265.8267	1287.7046	1346.7702	1362.5236	1373.4588	1394.	1395.7722	1409.6789	1422.3143	1482.6596	1486.1972	1491.1992	1495.4709	1496.9122	1503.1228	1509.8546	1512.8452	2983.6017	3026.3112	3027.747	3032.2107	3032.9555	3033.6341	3089.6483	3093.1731	3096.0742	3098.9353	3100.138	3103.7397	3104.9698	3108.3395	3170.8362	3199.9194
CC(C)C12CC1CC2C	CC(C)[C@]12C[C@H]1C[C@H]2C	
InChI=1S/C9H16/c1-6(2)9-5-8(9)4-7(9)3/h6-8H,4-5H2,1-3H3	InChI=1S/C9H16/c1-6(2)9-5-8(9)4-7(9)3/h6-8H,4-5H2,1-3H3/t7-,8-,9+/m1/s1
