16
gdb 43165	2.25138	1.94099	1.83738	2.8939	67.85	-0.2317	-0.0349	0.1968	874.7252	0.127266	-437.913862	-437.907042	-437.906098	-437.945197	26.514	
O	-0.0070646545	 0.0366102825	 0.0806113545	-0.32154
C	-0.0062037215	 1.2355704524	 0.0172868627	 0.402528
C	-1.2162902923	 2.1829763878	 0.0147419604	 0.010767
C	-0.8174262345	 3.21226982	 1.0804624508	-0.241646
C	 0.7564625013	 3.20475897	 1.0955870653	-0.227594
C	 1.1509691573	 2.2206387771	-0.0234735384	-0.084768
N	 1.0871200898	 2.9065116253	-1.3383806862	-0.268939
C	-0.0640512767	 3.1218197663	-1.8200717972	 0.132064
O	-1.2762093552	 2.8114261552	-1.300403808	-0.242906
H	-2.1760508699	 1.6910422577	 0.1569823329	 0.111713
H	-1.2346254861	 4.1915497299	 0.8358958362	 0.126879
H	-1.2195541169	 2.9158969003	 2.0531492319	 0.122335
H	 1.1774203468	 4.1932186271	 0.9013796738	 0.125135
H	 1.1364232011	 2.8594158544	 2.0613966779	 0.116272
H	 2.1313582914	 1.7618705078	 0.095921199	 0.100092
H	-0.1827871901	 3.6214569661	-2.7792375057	 0.139607
110.1519	136.2374	291.924	332.5761	406.5216	456.9178	557.0845	598.275	715.9556	759.4199	773.233	808.1851	836.8857	877.1269	904.4788	954.3003	970.9635	1015.706	1035.0567	1058.2557	1126.863	1170.1763	1183.2129	1223.5567	1231.5474	1261.6688	1308.5164	1327.8049	1330.5575	1347.3432	1387.7701	1473.7845	1494.6945	1715.9913	1871.199	3059.9022	3070.0993	3106.744	3124.5314	3128.37	3149.3923	3170.2436
O=C1C2CCC1N=CO2	O=C1[C@H]2CC[C@@H]1N=CO2	
InChI=1S/C6H7NO2/c8-6-4-1-2-5(6)9-3-7-4/h3-5H,1-2H2	InChI=1S/C6H7NO2/c8-6-4-1-2-5(6)9-3-7-4/h3-5H,1-2H2/t4-,5+/m0/s1
