23
gdb 122980	2.78522	0.73323	0.66128	2.8018	80.36	-0.2516	0.0805	0.3322	1830.1571	0.202553	-462.539166	-462.527748	-462.526803	-462.57769	39.498	
C	-0.2619538652	 1.3964743106	-0.2181736291	-0.225187
O	-0.2029385083	 0.0012738555	-0.0488481472	-0.22647
C	 0.5757220548	-0.6368594403	-1.0332971249	-0.05874
C	 0.5426803087	-2.1337955706	-0.7973692367	-0.070165
O	-0.7443078975	-2.614182425	-1.1139688547	-0.273366
C	-0.9238729232	-4.0285369294	-1.0657395209	 0.122614
C	-0.9045377562	-4.5754842378	 0.3628096014	-0.397603
C	-2.2742147819	-4.2505291566	-1.7527935387	-0.057173
O	-3.3112341474	-3.5505436552	-1.0937826946	-0.424011
H	 0.7371601209	 1.8588935517	-0.1654365974	 0.101536
H	-0.7150165953	 1.6732915896	-1.1834774199	 0.10501
H	-0.8788994026	 1.7984366766	 0.5890922054	 0.128589
H	 0.1902873745	-0.4173107454	-2.042748966	 0.09372
H	 1.6225754586	-0.2885924863	-0.9913751931	 0.083396
H	 1.3021105673	-2.6157456268	-1.4355539227	 0.084703
H	 0.8046997754	-2.333668378	 0.2513047192	 0.104991
H	-0.1359875179	-4.5167016735	-1.6647046489	 0.059993
H	-1.7274318156	-4.1431308338	 0.936789184	 0.137891
H	-1.0276981444	-5.663266687	 0.3468215833	 0.114745
H	 0.0375979601	-4.3576343655	 0.8725617747	 0.113725
H	-2.1874868045	-3.9393937155	-2.8055093469	 0.086237
H	-2.537361944	-5.3131954261	-1.7325899393	 0.102186
H	-2.9868304064	-2.6472823512	-0.9896462971	 0.29338
23.1105	50.3606	78.7638	114.1165	134.6634	198.1817	207.8509	234.0147	275.7643	303.5766	307.5344	381.056	430.641	476.3898	563.8098	652.3498	810.4594	873.21	884.2782	922.5859	978.7618	1010.8524	1054.8588	1094.3834	1124.3411	1133.0945	1139.4341	1161.6317	1176.8661	1187.7023	1226.5942	1244.5853	1261.5752	1305.2524	1338.7829	1361.1056	1385.1351	1405.2657	1413.3513	1437.6559	1442.3048	1478.8275	1485.43	1488.1972	1493.6891	1497.8408	1501.5853	1509.1854	1521.8087	2949.2494	2956.9287	2966.4938	2973.4637	2986.6152	2989.2445	3010.0654	3025.0954	3046.7632	3077.797	3111.6013	3114.7834	3135.3013	3784.4652
COCCOC(C)CO	COCCO[C@@H](C)CO	
InChI=1S/C6H14O3/c1-6(5-7)9-4-3-8-2/h6-7H,3-5H2,1-2H3	InChI=1S/C6H14O3/c1-6(5-7)9-4-3-8-2/h6-7H,3-5H2,1-2H3/t6-/m0/s1
