15
gdb 124939	2.34453	1.84874	1.04691	4.8107	71.86	-0.2711	-0.0942	0.1769	1082.438	0.109847	-453.941466	-453.932732	-453.931788	-453.975542	30.716	
C	 0.0925636689	 1.5355121281	 0.1667783307	-0.467127
C	-0.0522272264	 0.0462400734	 0.0876650569	 0.260619
C	-1.195026073	-0.6636386131	-0.0563475544	 0.034698
C	-2.5845738359	-0.1168429896	-0.1697643994	-0.486544
C	-1.0998788357	-2.1283290225	-0.1109431798	 0.447027
O	-2.0362700547	-2.8739342367	-0.2361699366	-0.329651
O	 0.1624704236	-2.6577197848	-0.0092674474	-0.261426
N	 1.3339354432	-1.8292144575	 0.1432270825	 0.048089
N	 1.1875940155	-0.6095643437	 0.1820188386	-0.15843
H	 0.7485281782	 1.8871977324	-0.6364335337	 0.158577
H	-0.8613103138	 2.0552646437	 0.0943977208	 0.139038
H	 0.5746955466	 1.8114668162	 1.1104471368	 0.158576
H	-3.0391499317	-0.451434189	-1.1079017971	 0.163148
H	-3.2106855433	-0.5272441295	 0.629162542	 0.163149
H	-2.6179721815	 0.9708465925	-0.12552709	 0.130256
77.5714	79.9534	103.5935	143.3997	278.8226	307.5337	331.506	433.9024	466.9207	511.7939	530.4191	617.4313	645.8167	773.0341	785.7307	877.6626	909.9856	986.126	1039.7987	1068.5251	1092.2052	1155.6136	1196.0793	1336.9042	1412.3722	1420.4817	1465.3537	1469.9799	1473.1914	1482.5208	1605.9063	1687.3559	1823.5316	3048.1601	3051.4121	3100.9364	3101.3293	3154.9877	3169.307
CC1=C(C)C(=O)ON=N1	CC1=N[N]OC(=O)[C]1C	
InChI=1S/C5H6N2O2/c1-3-4(2)6-7-9-5(3)8/h1-2H3	InChI=1S/C5H6N2O2/c1-3-4(2)6-7-9-5(3)8/h1-2H3
