20
gdb 37966	2.64367	1.86883	1.38992	2.1937	77.35	-0.2272	0.0749	0.302	985.5834	0.174665	-403.098079	-403.091099	-403.090155	-403.129115	29.018	
C	 0.0629439472	 1.5993548796	-0.0953983526	-0.301056
C	 1.5810710662	 1.4298830388	-0.0859146591	-0.037902
C	 2.0498083993	 0.752906727	 1.1441613116	-0.014443
C	 1.4387971322	 0.9510916883	 2.5332667123	-0.123443
O	 0.6720198491	-0.1303804575	 3.0228704029	-0.230978
C	-0.6564862783	-0.1554244712	 2.5383207046	-0.081053
C	-0.7813804364	-0.6906511311	 1.1124070569	-0.221101
C	-0.0076481529	 0.0479613523	 0.0266755131	 0.066667
N	 1.4979754922	-0.0833155314	 0.0551108348	-0.15807
H	-0.3588247067	 2.204162554	 0.7133508479	 0.101854
H	-0.3353142627	 1.9679283297	-1.0418746756	 0.110867
H	 2.2633740396	 1.8981522425	-0.7885862121	 0.092311
H	 3.125767538	 0.5953053625	 1.1747607335	 0.098366
H	 2.2612940665	 1.0793231643	 3.2438553777	 0.110078
H	 0.8399587953	 1.8748219546	 2.5649138497	 0.093188
H	-1.2144494028	-0.8074433783	 3.2187188759	 0.106304
H	-1.1023217728	 0.8507266539	 2.6136727356	 0.085142
H	-0.4404762032	-1.7335371474	 1.0975267709	 0.118987
H	-1.847589392	-0.700991064	 0.846115658	 0.095132
H	-0.3121794877	-0.3695899266	-0.9377572359	 0.08915
164.9336	204.1791	275.2147	365.239	375.2268	417.3813	483.2907	583.0422	626.1816	699.5832	732.0156	765.5303	828.9684	860.9856	906.569	912.8551	950.6966	966.3941	1011.9382	1014.4308	1058.092	1074.0168	1110.5348	1120.2276	1138.5807	1155.0053	1176.7173	1237.3826	1253.8081	1268.4398	1288.336	1311.6981	1330.7715	1348.7281	1371.2169	1396.1648	1410.6079	1424.7662	1431.4864	1458.3815	1485.5448	1493.6449	1511.1019	2963.6558	2977.1454	3012.7493	3052.7206	3055.7747	3059.6164	3069.4173	3072.2808	3118.3112	3129.4	3158.2369
C1C2C3COCCC1N23	C1[C@H]2[C@H]3COCC[C@@H]1N23	
InChI=1S/C7H11NO/c1-2-9-4-7-6-3-5(1)8(6)7/h5-7H,1-4H2	InChI=1S/C7H11NO/c1-2-9-4-7-6-3-5(1)8(6)7/h5-7H,1-4H2/t5-,6-,7+,8?/m0/s1
