15
gdb 27691	2.8554	1.32041	0.90873	5.6752	79.57	-0.2126	-0.0235	0.1891	1223.5321	0.113153	-416.861294	-416.852795	-416.851851	-416.89447	31.104	
C	 0.1208449957	 1.449632757	 0.0049127755	-0.496999
C	-0.0571930279	-0.0254057689	 0.0126647958	 0.362337
C	-1.162403603	-0.821307342	-0.074623871	-0.320294
C	-0.7027890442	-2.1740598087	-0.0077409967	 0.176556
N	-1.4817681141	-3.3108634894	 0.0096690315	-0.614292
C	 0.6689508729	-2.0958889475	 0.1121129748	 0.191879
O	 1.0619799656	-0.7706612512	 0.1297565249	-0.215226
C	 1.633436233	-3.1065925534	 0.2033535458	 0.195962
N	 2.3862734536	-3.9895029203	 0.2686742634	-0.363885
H	 0.758474461	 1.765567013	-0.8277879011	 0.150659
H	-0.8474594697	 1.9441482943	-0.0920829088	 0.140408
H	 0.5962244715	 1.7933126747	 0.9298812618	 0.151889
H	-2.1848088657	-0.4887499699	-0.1654134693	 0.115372
H	-2.3505858493	-3.2483815741	-0.498951591	 0.258239
H	-0.9897591296	-4.1738171036	-0.1741471156	 0.267394
109.6805	129.2623	133.7492	203.3115	265.8372	320.537	348.7787	402.5284	519.6826	538.2488	569.9433	597.7253	636.3455	640.0041	711.6138	788.9697	803.4865	992.8653	1019.1114	1054.109	1062.2118	1185.826	1198.8671	1280.1076	1321.75	1414.7899	1471.5082	1473.0858	1496.0046	1583.8185	1643.9852	1675.2465	2312.4277	3039.1121	3093.5611	3138.5019	3254.5355	3567.6468	3669.5892
CC1=CC(N)=C(O1)C#N	Cc1cc(N)c(o1)C#N	
InChI=1S/C6H6N2O/c1-4-2-5(8)6(3-7)9-4/h2H,8H2,1H3	InChI=1S/C6H6N2O/c1-4-2-5(8)6(3-7)9-4/h2H,8H2,1H3
