18
gdb 84668	2.37277	1.82332	1.53412	3.5401	77.87	-0.2372	-0.0013	0.2359	958.3835	0.150762	-401.921194	-401.913989	-401.913045	-401.952347	29.703	
O	-0.0299391115	 1.5359496903	 0.198591444	-0.435916
C	 0.0139247033	 0.1270343821	 0.0234193173	 0.027331
C	 0.8854378066	-0.5838731138	 1.0477799588	-0.112597
C	 0.6010257242	-0.7772828809	 2.3408220544	-0.013004
C	-0.6137961837	-0.3380025616	 3.0548716338	-0.083505
N	-1.2424531979	 0.9415584873	 2.6783938444	-0.338165
C	-1.9874613787	-0.2984252173	 2.3926833503	-0.083504
C	-2.2051018881	-0.6964481407	 0.9881048984	-0.013006
C	-1.3620166648	-0.5191354115	-0.0356244667	-0.112596
H	-0.4459908127	 1.6697658937	 1.0696414229	 0.288571
H	 0.4817868772	-0.0142644111	-0.9555689678	 0.081087
H	 1.8315524205	-0.9711875548	 0.6782179568	 0.095269
H	 1.3119635153	-1.3282308809	 2.9518203117	 0.089165
H	-0.6273023891	-0.5791265935	 4.1146753033	 0.091562
H	-1.6227684759	 1.4095486145	 3.4953222976	 0.243309
H	-2.8188765284	-0.5159831383	 3.0582092055	 0.091562
H	-3.1505653625	-1.1996822049	 0.8006232135	 0.089166
H	-1.6794674238	-0.8700521487	-1.0142992484	 0.095269
176.2374	212.6392	251.348	314.6283	334.0309	392.2046	531.5619	594.4582	616.7335	667.5424	703.2236	716.0042	768.6105	802.3886	810.4004	834.8084	903.5083	912.6427	959.8863	966.3565	989.9179	990.1462	1061.3746	1070.5955	1122.689	1154.2542	1192.5671	1219.2482	1252.8637	1272.4053	1330.7366	1366.6552	1391.4351	1425.5135	1444.341	1453.1319	1508.3797	1696.467	1708.3891	3058.0087	3130.0016	3136.8419	3145.8655	3149.5516	3166.751	3169.8358	3516.5668	3583.001
OC1C=CC2NC2C=C1	O[C@H]1C=C[C@H]2N[C@H]2C=C1	
InChI=1S/C7H9NO/c9-5-1-3-6-7(8-6)4-2-5/h1-9H	InChI=1S/C7H9NO/c9-5-1-3-6-7(8-6)4-2-5/h1-9H/t5-,6+,7-
