20
gdb 109210	3.99881	1.02093	0.91084	1.5276	81.06	-0.2181	0.0189	0.2371	1337.1321	0.170874	-403.13402	-403.125029	-403.124085	-403.167582	34.073	
C	 0.056393893	 1.4948520954	-0.0217577874	-0.463991
C	-0.0472114763	-0.0049050273	 0.0889359053	 0.338985
C	-1.3800537196	-0.6898654071	-0.2416676019	-0.336749
C	-1.3860782803	-1.9284471663	 0.6273486106	-0.183783
C	-0.3186832126	-1.9764695244	 1.4318512576	 0.318161
C	 0.0102296332	-3.0199485777	 2.4491354032	-0.184233
O	-1.0288387495	-3.9793327393	 2.5035706164	-0.413496
C	 0.5978908582	-0.8243559597	 1.1636029515	-0.181596
N	 1.1820128019	-0.7592772618	-0.2008878575	-0.369179
H	 1.0509458658	 1.8333302801	 0.2786964878	 0.127254
H	-0.1098101617	 1.8221640378	-1.0548841233	 0.11777
H	-0.6897950411	 1.9884816019	 0.6104344098	 0.113261
H	-2.225415443	-0.0294288339	-0.0035387448	 0.109742
H	-1.4682142513	-0.9207637256	-1.3121442274	 0.108988
H	-2.156027721	-2.6875470279	 0.5808533297	 0.110786
H	 0.9779665384	-3.4869498325	 2.1925880259	 0.100706
H	 0.1595089816	-2.5309293046	 3.4288383876	 0.096723
H	-0.7868212576	-4.646160163	 3.1520937747	 0.290461
H	 1.220591359	-0.4072259362	 1.9505888038	 0.079842
H	 0.965019943	-1.6243725077	-0.6939083714	 0.220347
75.6321	150.9355	176.2341	195.9616	237.2105	249.5186	304.2319	361.1217	403.8951	435.9638	582.562	602.2778	667.5998	752.2189	802.4945	819.244	890.3927	931.182	955.9183	980.2083	1014.1302	1028.0896	1043.4306	1082.6972	1093.8731	1121.6519	1173.7658	1175.1983	1192.9069	1217.9301	1249.1899	1269.418	1283.7092	1319.0789	1344.1786	1404.0247	1434.0637	1468.2074	1474.8073	1486.8019	1495.8378	1507.2551	1705.7831	2938.2928	2950.8231	3009.3572	3028.7806	3035.7283	3087.8622	3121.418	3143.414	3221.7785	3467.4667	3839.1894
CC12CC=C(CO)C1N2	C[C@]12CC=C(CO)[C@H]1N2	
InChI=1S/C7H11NO/c1-7-3-2-5(4-9)6(7)8-7/h2,6,8-9H,3-4H2,1H3	InChI=1S/C7H11NO/c1-7-3-2-5(4-9)6(7)8-7/h2,6,8-9H,3-4H2,1H3/t6-,7+/m1/s1
