23
gdb 118486	2.12729	1.09195	0.79994	1.4037	82.82	-0.2499	0.0823	0.3323	1537.1725	0.203634	-425.393633	-425.382901	-425.381957	-425.430315	37.896	
C	 0.0686665528	 1.4634837117	-0.0468361244	-0.397141
C	-0.0839693833	-0.0548658153	 0.0919407447	-0.178586
C	-1.5393281534	-0.5714447625	 0.0221001812	-0.034092
C	-1.5431783374	-2.1004533234	-0.0354419787	-0.088811
O	-2.8003869261	-2.5610081766	-0.4973385668	-0.236803
C	-2.8472334163	-3.9616064619	-0.6337659236	-0.230945
C	-2.3608165275	-0.0077391131	 1.1712542571	 0.097107
C	-3.4197818603	-0.727229721	 1.886559077	-0.184616
O	-2.1223815295	-0.5589924629	 2.4729430293	-0.247878
H	 1.1265714797	 1.7416642165	-0.0772623278	 0.115401
H	-0.3963404072	 1.8266864306	-0.9704177177	 0.113738
H	-0.3836643683	 2.0033015711	 0.7900897027	 0.125399
H	 0.4911770231	-0.5403420209	-0.7056631903	 0.094114
H	 0.3603211036	-0.3845997517	 1.039330187	 0.114866
H	-1.9936350851	-0.2114625435	-0.9117653028	 0.085899
H	-0.7504510385	-2.4422917271	-0.7205166171	 0.083605
H	-1.3203474528	-2.5146924192	 0.9607642547	 0.107652
H	-2.0992663096	-4.3246631624	-1.356597558	 0.10447
H	-2.6710542156	-4.47447491	 0.3250184865	 0.105867
H	-3.8443428018	-4.2230698005	-0.9965830575	 0.126146
H	-2.4307157545	 1.0808579693	 1.1734109906	 0.088375
H	-4.2183688813	-0.1615061695	 2.365644033	 0.106842
H	-3.6735836208	-1.7385795677	 1.5853982809	 0.12939
54.39	72.5021	93.8311	112.255	161.2282	215.947	226.7675	250.3509	260.0591	321.5369	356.3258	423.4018	525.6338	595.2711	741.7976	805.6069	855.2886	902.0769	939.2337	974.7888	992.8515	1020.3967	1053.8464	1082.8484	1105.5959	1139.2737	1147.886	1157.575	1167.523	1184.6257	1188.8846	1228.8499	1261.757	1281.396	1298.8323	1312.9959	1371.0394	1392.5028	1407.8018	1416.5393	1447.5538	1479.1484	1485.4586	1488.0809	1500.5527	1502.8999	1510.0744	1529.1923	1533.7868	2961.8104	2973.2479	2999.5823	3013.4449	3019.0564	3025.7638	3034.5638	3061.5882	3090.4779	3099.6834	3100.5551	3112.5573	3112.7677	3202.0432
CCC(COC)C1CO1	CC[C@@H](COC)[C@H]1CO1	
InChI=1S/C7H14O2/c1-3-6(4-8-2)7-5-9-7/h6-7H,3-5H2,1-2H3	InChI=1S/C7H14O2/c1-3-6(4-8-2)7-5-9-7/h6-7H,3-5H2,1-2H3/t6-,7+/m0/s1
