19
gdb 126258	1.91532	1.7839	0.99841	3.731	79.22	-0.2019	0.0253	0.2273	1210.502	0.159004	-419.228249	-419.218542	-419.217598	-419.263426	34.417	
C	 0.0576929769	 1.6266802306	 0.0755979184	-0.368969
C	-0.0153658919	 0.0927100079	-0.0490284207	-0.321196
C	 0.6437516971	-0.4576230934	-1.2740062737	 0.22992
C	 0.113273925	-0.7734618843	-2.515166291	 0.162888
O	-1.1768066429	-0.6879353786	-2.9504107314	-0.445102
C	 1.194682547	-1.2274566612	-3.2907012401	-0.066457
N	 2.3275611448	-1.1987007179	-2.5901003481	-0.271558
N	 1.9831334358	-0.7299191714	-1.3779063677	-0.008271
C	 2.9959142121	-0.6074897217	-0.35389988	-0.332113
H	 1.0950938003	 1.9709771997	 0.1258408852	 0.125779
H	-0.4064360202	 2.1107129952	-0.7889555099	 0.126052
H	-0.4562750695	 1.9699783393	 0.9790230351	 0.116366
H	 0.4151585136	-0.3686663882	 0.8480479545	 0.115385
H	-1.069063765	-0.2175692543	-0.0525665445	 0.099301
H	-1.7293271212	-0.359655864	-2.2344227065	 0.293444
H	 1.1873668085	-1.5682278583	-4.3145321744	 0.112778
H	 3.1005344877	 0.4284510075	-0.0144993396	 0.134275
H	 2.7673305017	-1.2398200312	 0.5110668009	 0.134502
H	 3.9351907603	-0.9358324956	-0.7975685864	 0.162974
47.6904	82.4532	129.7196	175.02	188.5925	195.9135	283.6165	293.6023	326.7178	415.7332	509.4378	586.7563	657.748	689.1133	717.5884	753.1044	809.66	850.0395	964.7345	991.4936	1048.9758	1079.7391	1131.2053	1148.3319	1166.5706	1212.7944	1269.2238	1292.6731	1349.9358	1361.0025	1409.7958	1415.0862	1437.8793	1458.447	1481.6272	1485.8329	1496.5482	1502.5819	1509.0994	1552.9312	1626.7004	3013.7358	3030.7804	3038.0558	3050.0468	3085.2366	3109.6947	3113.8027	3162.9535	3256.3888	3828.1301
CCC1=C(O)C=NN1C	CCc1c(O)cnn1C	
InChI=1S/C6H10N2O/c1-3-5-6(9)4-7-8(5)2/h4,9H,3H2,1-2H3	InChI=1S/C6H10N2O/c1-3-5-6(9)4-7-8(5)2/h4,9H,3H2,1-2H3
