18
gdb 66100	2.57676	1.50369	1.32591	2.4678	74.54	-0.2786	0.0285	0.3072	1042.1049	0.148318	-401.964568	-401.956447	-401.955502	-401.997037	31.195	
C	-0.0010218028	 1.5181245214	 0.0240073432	-0.441058
C	 0.0043499903	-0.020300088	-0.0080358484	 0.089153
C	 0.8145869082	-0.6010511017	-1.2151445458	-0.253346
C	 1.3919553324	-1.951218069	-0.736595561	-0.254066
C	 1.5465003727	-1.7664254811	 0.7586027991	 0.056281
O	 2.1372472877	-0.5031245128	 1.1227743235	-0.268362
C	 0.7204707061	-0.6413775095	 1.2019661921	 0.032469
C	-1.3724251165	-0.533852142	-0.0260481673	 0.256506
N	-2.4530696924	-0.945030294	-0.0306604363	-0.340729
H	 1.0270593313	 1.8724379579	 0.1339028251	 0.143196
H	-0.4194057451	 1.9264401198	-0.8998459831	 0.135234
H	-0.5939379748	 1.8949302238	 0.8618565801	 0.134323
H	 0.1976741796	-0.6932418463	-2.1104002697	 0.122744
H	 1.6260997842	 0.095196868	-1.4340954446	 0.126008
H	 0.6918734212	-2.7745327951	-0.9197154866	 0.125642
H	 2.3334628947	-2.1987218585	-1.2352946493	 0.118386
H	 1.7979018065	-2.5986840631	 1.4097763991	 0.105668
H	 0.2789360065	-0.5584143297	 2.1915126698	 0.111948
104.5978	149.2176	197.0786	241.4624	262.4134	326.0641	378.7094	460.9525	488.3919	552.9922	618.8186	689.5246	743.378	833.01	840.1541	875.1683	914.4643	919.9588	979.2893	1006.1427	1014.4949	1043.7902	1110.4727	1136.829	1155.3371	1176.6208	1237.0964	1246.1721	1262.5509	1317.79	1333.9805	1356.6721	1406.2615	1435.6029	1480.2016	1489.6116	1493.9781	1497.9216	2349.7512	3046.6665	3047.8258	3082.58	3096.0226	3122.4222	3130.0229	3135.152	3151.1094	3165.1448
CC1(CCC2OC12)C#N	C[C@]1(CC[C@H]2O[C@@H]12)C#N	
InChI=1S/C7H9NO/c1-7(4-8)3-2-5-6(7)9-5/h5-6H,2-3H2,1H3	InChI=1S/C7H9NO/c1-7(4-8)3-2-5-6(7)9-5/h5-6H,2-3H2,1H3/t5-,6-,7+/m1/s1
