12
gdb 129530	5.22129	1.03359	0.96971	5.9804	57.8	-0.2704	-0.0379	0.2325	1152.0368	0.076358	-505.94883	-505.940843	-505.939899	-505.982784	27.531	
N	-0.1257310191	 1.3118442744	 0.1090340493	-0.558787
C	-0.0165523721	 0.0200949585	-0.2670062494	 0.492207
O	 0.7750044389	-0.4730872035	-1.0154165035	-0.346047
O	-1.0553114094	-0.6991664479	 0.3549044716	-0.297463
C	-1.0484856045	-2.0333014776	 0.2125996142	 0.510342
C	-1.9723446635	-2.8705717439	-0.3307160978	-0.215228
N	-1.511618769	-4.1404209616	-0.1024319861	-0.100635
N	-0.4170288018	-4.1268810417	 0.5137980154	 0.00059
O	-0.0679734654	-2.7382254473	 0.7527582986	-0.203439
H	 0.5851665056	 1.9514244595	-0.1983778499	 0.2868
H	-0.7681574993	 1.5866801677	 0.8307131084	 0.282271
H	-2.8918468704	-2.6598661968	-0.846362301	 0.149389
41.3078	68.4133	124.4268	184.5473	320.6885	381.5733	393.2128	534.1903	606.1103	625.8099	678.1006	698.3699	757.5996	792.7765	825.8557	906.7683	980.0216	1069.8636	1112.9346	1125.7648	1288.3877	1320.4101	1380.5635	1455.1544	1607.7094	1638.3929	1901.5088	3303.3622	3629.7408	3763.7267
NC(=O)OC1=CN=NO1	NC(=O)Oc1cnno1	
InChI=1S/C3H3N3O3/c4-3(7)8-2-1-5-6-9-2/h1H,(H2,4,7)	InChI=1S/C3H3N3O3/c4-3(7)8-2-1-5-6-9-2/h1H,(H2,4,7)
