21
gdb 55274	2.41147	1.29537	1.14362	3.1923	78.68	-0.2461	-0.0222	0.2239	1213.8928	0.179289	-424.240428	-424.230286	-424.229342	-424.275866	36.944	
C	 0.2956614187	 1.0011580567	 0.8678122687	-0.482576
C	 0.22819991	-0.1295043218	-0.1415431326	 0.380031
O	 1.1751252488	-0.4235779329	-0.8374875431	-0.304188
C	-1.0845327199	-0.8841878619	-0.2182240526	-0.208333
C	-1.3212754718	-1.7674588684	-1.4522134132	-0.091999
O	-1.5035260724	-2.9524815626	-0.6529385836	-0.318517
C	-1.1869958122	-2.2482251531	 0.5768268753	 0.420714
C	 0.1048237457	-2.7899765665	 1.1756568863	-0.437502
C	-2.3515636354	-2.318925298	 1.5546548274	-0.42511
H	 1.3137591176	 1.3861667477	 0.9339409545	 0.143884
H	-0.3809956118	 1.8084734768	 0.5627090708	 0.143461
H	-0.0438165523	 0.6634983673	 1.8535717074	 0.138349
H	-1.9164429811	-0.221051607	 0.0302217569	 0.077988
H	-2.2113092241	-1.5314402446	-2.0458963754	 0.099855
H	-0.4452612134	-1.8399839052	-2.105066758	 0.123869
H	 0.9303831553	-2.7126533216	 0.4654944291	 0.145999
H	 0.3774999473	-2.2528780811	 2.091035182	 0.10909
H	-0.0348400446	-3.8452617659	 1.4298527279	 0.124958
H	-2.503868881	-3.3524995743	 1.8820474515	 0.127969
H	-2.1564659004	-1.7052992774	 2.4411535977	 0.11244
H	-3.2748838532	-1.9708963362	 1.0835862132	 0.119616
44.33	72.436	140.189	157.8628	207.9167	239.8907	260.3555	302.0679	340.581	374.5612	401.0948	440.6926	577.8521	599.374	648.4587	742.8233	859.8166	886.8936	930.2891	943.7423	967.8404	988.7796	1019.9228	1032.2881	1036.2307	1098.6827	1164.9421	1178.8673	1182.6656	1192.3341	1247.1969	1278.6229	1346.5479	1372.6184	1388.546	1400.4136	1414.5148	1461.3935	1473.6015	1475.3068	1482.7472	1493.4363	1504.5467	1523.5613	1801.8611	3030.3813	3031.0074	3032.599	3038.0228	3074.8176	3088.3352	3092.1258	3100.0089	3107.4398	3116.3901	3135.8837	3153.2266
CC(=O)C1COC1(C)C	CC(=O)[C@H]1COC1(C)C	
InChI=1S/C7H12O2/c1-5(8)6-4-9-7(6,2)3/h6H,4H2,1-3H3	InChI=1S/C7H12O2/c1-5(8)6-4-9-7(6,2)3/h6H,4H2,1-3H3/t6-/m1/s1
