25
gdb 122133	2.10181	0.74187	0.58302	1.3618	87.1	-0.2464	0.0781	0.3245	2003.3544	0.226146	-426.614444	-426.602404	-426.60146	-426.653139	41.668	
C	-0.0917396491	 1.8046253537	-0.8855828	-0.387337
C	 0.0546167566	 0.3498010552	-0.424961439	-0.18849
C	 0.8146992076	-0.5672092617	-1.4046398218	 0.043911
C	 2.3155287593	-0.2653255764	-1.3875998608	-0.090855
O	 2.9276878425	-0.9748119074	-2.4565440099	-0.422074
C	 0.5738490664	-2.0606423706	-1.1138669018	-0.213591
C	-0.771537302	-2.574205609	-1.6106513451	-0.058837
O	-0.8917212951	-3.9346915712	-1.2510452595	-0.228509
C	-2.0979901577	-4.5102996661	-1.6847472347	-0.226092
H	 0.8762644634	 2.2973487402	-1.0189791484	 0.117556
H	-0.6245791409	 1.8617794796	-1.8412062981	 0.116442
H	-0.6578016928	 2.3907297172	-0.1546902931	 0.112254
H	 0.5559218005	 0.3183922007	 0.5526588098	 0.093424
H	-0.9459961615	-0.0633870077	-0.255452897	 0.099213
H	 0.4677495129	-0.3528937194	-2.4262588002	 0.07604
H	 2.4876056135	 0.8161139428	-1.4927221203	 0.083444
H	 2.7350261924	-0.5722111506	-0.4146852968	 0.083489
H	 3.8796147393	-0.8596552008	-2.3891173747	 0.286424
H	 1.3601263823	-2.6492182036	-1.5945599905	 0.121563
H	 0.6445408505	-2.2467786202	-0.0342722897	 0.094481
H	-1.6087341909	-1.9970473371	-1.1804423202	 0.079559
H	-0.8378867504	-2.4611112363	-2.7072978313	 0.084879
H	-2.9753795448	-4.0042667207	-1.2493372872	 0.098804
H	-2.1979938438	-4.4775635464	-2.7819470073	 0.100745
H	-2.0994602881	-5.5548417743	-1.3627427022	 0.123556
52.0015	56.2517	68.1599	114.2133	129.153	139.9222	209.4194	223.7345	238.5046	255.3474	269.6753	311.0388	375.8958	463.5326	481.6115	526.2037	762.354	788.6063	871.9983	921.2133	965.9919	990.9554	1020.9858	1039.6067	1061.2479	1077.3969	1131.6926	1138.7636	1163.9075	1169.1719	1188.3395	1222.2911	1240.6521	1245.2066	1266.7618	1299.3309	1314.7008	1316.9471	1343.994	1373.7551	1396.3078	1413.7959	1429.237	1454.9648	1480.739	1483.7932	1487.3085	1496.3409	1501.3932	1505.7433	1507.328	1520.3498	1532.2913	2940.1984	2960.3569	2964.2142	2965.2585	2995.2717	3003.0011	3007.0616	3015.9453	3032.609	3034.863	3058.7971	3098.4416	3099.7055	3106.1032	3109.0173	3835.4554
CCC(CO)CCOC	CC[C@@H](CO)CCOC	
InChI=1S/C7H16O2/c1-3-7(6-8)4-5-9-2/h7-8H,3-6H2,1-2H3	InChI=1S/C7H16O2/c1-3-7(6-8)4-5-9-2/h7-8H,3-6H2,1-2H3/t7-/m1/s1
