21
gdb 75200	2.54189	1.60564	1.15356	1.7323	84.12	-0.2289	0.0166	0.2455	1153.5491	0.180398	-387.105823	-387.096441	-387.095497	-387.13912	36.096	
C	-0.0233744811	 1.5077727297	 0.0441775058	-0.503399
C	-0.056795769	 0.0133271866	-0.0217069076	 0.301798
C	 0.0070153502	-0.7562105308	-1.1127357577	-0.187081
C	-0.0428450221	-2.2321925042	-0.7935205218	-0.330937
C	-0.096394152	-2.2624670935	 0.7358698968	 0.347777
C	-0.688933515	-3.4547207031	 1.4368333169	-0.484983
O	 1.0698848586	-1.6814881982	 1.3419659639	-0.34004
C	-0.1233484086	-0.8594237239	 1.2086963157	 0.251887
C	-0.7250835921	-0.3558435419	 2.491251821	-0.500916
H	 0.8425725792	 1.8623248508	 0.6174903224	 0.132568
H	 0.0308160977	 1.9466135832	-0.9557959878	 0.124219
H	-0.9139620633	 1.9117665228	 0.5414429032	 0.124438
H	 0.1240287053	-0.3834852045	-2.1250840018	 0.089065
H	-0.9240033857	-2.7206988472	-1.2312912631	 0.103959
H	 0.8366075494	-2.7706512463	-1.1688003548	 0.118422
H	-0.0990755771	-4.3534343952	 1.2233426537	 0.127287
H	-0.6993859227	-3.3137144537	 2.5198281026	 0.126966
H	-1.7131591594	-3.6390745384	 1.095659621	 0.119045
H	-0.1393735965	 0.4786062152	 2.8923326292	 0.128572
H	-1.7478033834	 0.001640894	 2.3289579102	 0.121962
H	-0.7465911522	-1.1412358114	 3.2494211024	 0.129393
131.5848	167.9351	178.706	187.3355	241.7237	251.7578	260.7064	292.2338	369.7342	446.4818	473.2037	522.3421	602.21	651.273	665.5732	736.3446	810.1861	840.3677	870.9104	947.9172	951.4088	980.7514	1031.5597	1058.0968	1076.2914	1092.7064	1119.2329	1144.8504	1194.8196	1214.3888	1251.8999	1324.281	1348.1581	1409.3804	1411.913	1416.9429	1442.6478	1463.2516	1474.8521	1480.9167	1483.7055	1491.6883	1495.9711	1508.0225	1709.4506	3016.2527	3018.8424	3033.857	3036.4419	3051.9328	3065.2458	3093.4019	3094.2632	3110.2589	3124.4606	3130.9561	3183.7927
CC1=CCC2(C)OC12C	CC1=CC[C@@]2(C)O[C@@]12C	
InChI=1S/C8H12O/c1-6-4-5-7(2)8(6,3)9-7/h4H,5H2,1-3H3	InChI=1S/C8H12O/c1-6-4-5-7(2)8(6,3)9-7/h4H,5H2,1-3H3/t7-,8+/m1/s1
