17
gdb 130446	3.1162	1.28848	0.94478	5.9564	71.49	-0.2058	0.0053	0.211	1201.2307	0.137899	-455.13624	-455.128248	-455.127304	-455.169266	30.208	
N	 0.4643724513	 1.4401090085	 1.1341219679	-0.506566
H	 0.9217264501	 0.53519035	 1.1920673809	 0.250206
H	 0.7028283563	 2.4402925919	 2.6069360213	 0.304421
H	 0.8570158984	 1.9132864906	 0.3244047799	 0.246373
C	-0.9922953672	 1.2704065082	 0.9646804335	-0.168561
C	-1.7112662235	 2.6241529862	 0.9836816937	-0.3265
C	-1.6516686969	 3.3465818357	 2.2918286099	 0.290784
C	-0.7046833049	 3.5157910271	 3.2666048548	 0.129939
O	 0.546997956	 3.0376723158	 3.3813030793	-0.450395
C	-1.3443880319	 4.3652570883	 4.2126677917	-0.024363
N	-2.5631122904	 4.6810920554	 3.8492889756	-0.146793
O	-2.7674491361	 4.0426144384	 2.6393468079	-0.216258
H	-1.2433418285	 0.74921654	 0.0297725097	 0.10397
H	-1.3517303192	 0.6512852745	 1.7926049519	 0.131194
H	-1.303831302	 3.2519991547	 0.1760405355	 0.117448
H	-2.7658403851	 2.4660016949	 0.7349432368	 0.136335
H	-0.9410697864	 4.7444614298	 5.1406925599	 0.128768
48.4954	164.607	232.6596	246.5778	296.4759	342.0022	356.8747	445.7266	482.0757	624.7897	671.6073	705.0512	719.0047	849.0239	868.4811	895.2798	916.0979	943.6767	967.9624	973.0653	1036.6141	1076.732	1138.9791	1151.8784	1210.0859	1236.1712	1304.1117	1319.9514	1358.9468	1409.2875	1420.5133	1473.6924	1500.7319	1510.454	1573.0123	1649.9189	1681.5427	2987.999	3000.8639	3077.1922	3084.6692	3247.2915	3270.9642	3490.3222	3569.3909
[NH3+]CCC1=C([O-])C=NO1	NCCc1c(O)cno1	
InChI=1S/C5H8N2O2/c6-2-1-5-4(8)3-7-9-5/h3,8H,1-2,6H2	InChI=1S/C5H8N2O2/c6-2-1-5-4(8)3-7-9-5/h3,8H,1-2,6H2
