17
gdb 98953	4.13671	0.82339	0.69255	3.5082	73.79	-0.2647	-0.082	0.1827	1581.8411	0.134227	-455.193517	-455.183624	-455.182679	-455.230428	33.553	
C	 0.4463207342	 1.4403261083	-0.2515103372	-0.372857
C	-0.1710826262	 0.2933316092	 0.5439227792	-0.312514
C	 0.8747827909	-0.5364583373	 1.281992053	 0.433807
O	 2.0642137021	-0.2995269193	 1.2334171509	-0.348468
N	 0.3259607838	-1.5807565235	 2.0075578596	-0.371465
C	 0.9320814796	-2.5544971736	 2.8060265662	 0.275834
N	 0.1812361399	-3.4125906312	 3.3700853743	-0.476294
C	 2.4514850742	-2.5800927421	 2.9901227779	 0.08956
O	 2.9390900166	-3.4347094089	 3.6862500862	-0.241107
H	 1.1501557512	 1.0633120217	-0.9970955789	 0.137657
H	-0.3330162352	 2.0098027851	-0.7647077235	 0.115253
H	 0.9974805779	 2.1177285794	 0.4048195897	 0.137661
H	-0.8922684654	 0.6707014723	 1.2809259068	 0.131474
H	-0.7403385858	-0.3776660483	-0.1128927638	 0.131472
H	-0.6797812069	-1.6882463344	 1.9789398059	 0.262907
H	 0.776258596	-4.0458517113	 3.911102612	 0.25079
H	 3.0373474329	-1.8089778564	 2.4732847518	 0.15629
33.459	38.444	70.2279	146.6429	147.951	204.3501	273.0245	319.1039	371.7726	409.8257	518.8981	578.3315	663.0509	690.505	693.2839	815.4799	845.6292	918.6776	956.2365	1029.5098	1062.939	1067.1029	1099.6359	1133.2694	1212.9161	1287.504	1341.3342	1368.4139	1417.7698	1444.442	1462.7352	1492.3714	1497.2292	1503.9211	1692.493	1797.3009	1809.0033	3023.3369	3054.5513	3056.3797	3069.0459	3128.7897	3134.7165	3451.8927	3585.1326
CCC(=O)NC(=N)C=O	CCC(=O)NC(=N)C=O	
InChI=1S/C5H8N2O2/c1-2-5(9)7-4(6)3-8/h3H,2H2,1H3,(H2,6,7,9)	InChI=1S/C5H8N2O2/c1-2-5(9)7-4(6)3-8/h3H,2H2,1H3,(H2,6,7,9)
