17
gdb 43386	2.3958	1.90719	1.23749	2.675	74.37	-0.2378	-0.0549	0.1828	1005.325	0.137835	-421.840242	-421.832939	-421.831995	-421.872514	27.85	
O	 0.0207753211	 0.0029727549	-0.2061013564	-0.344737
C	-0.0069726455	 1.2176735501	-0.149116297	 0.380841
C	-1.2651339689	 1.958881843	 0.0570802225	-0.155257
C	-1.3634517174	 3.28702367	-0.0809650938	-0.033453
C	-0.2260749155	 4.1831359391	-0.4755635027	-0.297867
C	 1.1481865511	 3.5674505017	-0.2584401331	 0.123561
O	 1.5636291903	 3.6482921227	 1.1242946006	-0.288669
C	 1.9293265568	 2.2557369454	 1.1430836663	-0.076266
C	 1.277432725	 2.0225420011	-0.2459301262	-0.196697
H	-2.1307814174	 1.3462293142	 0.2887751557	 0.109609
H	-2.33255183	 3.7638060848	 0.0516306342	 0.111813
H	-0.3506762105	 4.4666641687	-1.5309651741	 0.124604
H	-0.2680330869	 5.1222199154	 0.0901407022	 0.133866
H	 1.8886590757	 4.0538982767	-0.9077143329	 0.077073
H	 3.0170660079	 2.1119529375	 1.1532448648	 0.108512
H	 1.4869813461	 1.7212489882	 1.9906700175	 0.119346
H	 1.925615068	 1.5712034765	-0.9971648078	 0.10372
63.4983	121.5342	227.1249	323.1786	334.0663	451.8698	466.538	538.2739	650.2409	714.0041	745.4018	825.6685	848.923	892.3435	921.6336	940.3176	988.6151	1006.2086	1023.7449	1051.9421	1067.5502	1098.4322	1148.693	1164.7024	1214.0761	1223.4933	1262.6282	1289.6997	1314.487	1360.4747	1368.6092	1394.8738	1416.5628	1449.466	1527.1842	1688.2552	1766.9311	2999.0121	3013.6973	3019.8903	3054.3125	3071.323	3114.9625	3149.1377	3188.8326
O=C1C=CCC2OCC12	O=C1C=CC[C@H]2OC[C@@H]12	
InChI=1S/C7H8O2/c8-6-2-1-3-7-5(6)4-9-7/h1-2,5,7H,3-4H2	InChI=1S/C7H8O2/c8-6-2-1-3-7-5(6)4-9-7/h1-2,5,7H,3-4H2/t5-,7+/m0/s1
