19
gdb 35686	2.59653	1.38483	1.07463	2.0304	81.06	-0.2509	0.0194	0.2703	1175.2192	0.158173	-385.820448	-385.811798	-385.810853	-385.854412	32.522	
C	-0.295172099	-1.1842087561	-0.1601012294	-0.448636
C	-0.1739544583	-0.0149545395	 0.0934246847	 0.339877
C	-0.0131120222	 1.4016609377	 0.3705430595	-0.125315
O	 0.267502754	 1.6976551614	 1.7607971969	-0.285499
C	 1.4761298572	 2.4070069761	 1.4167149793	-0.124623
C	 1.3107612633	 2.0822682553	-0.0812647615	 0.293625
C	 2.4413576851	 1.3481810505	-0.8393645116	-0.283421
C	 2.7458546465	 2.667269106	-1.6018874192	-0.213764
C	 1.3628114075	 3.2060601825	-1.1429160623	-0.289563
H	-0.4115333005	-2.2184708253	-0.3721612771	 0.201325
H	-0.9056453588	 1.9485073043	 0.0325998091	 0.097222
H	 1.4108822817	 3.4721575212	 1.676018065	 0.098928
H	 2.356209584	 1.9711014001	 1.906115105	 0.105801
H	 3.239145881	 0.9118226772	-0.2327322834	 0.102164
H	 2.0395325285	 0.5691977809	-1.493300431	 0.115258
H	 3.5732675437	 3.2232049853	-1.1528753091	 0.105729
H	 2.9224598347	 2.5948230559	-2.6769361426	 0.102224
H	 0.5928933828	 3.068926598	-1.9091064892	 0.107091
H	 1.3082880489	 4.2354968784	-0.7777984729	 0.101576
47.4887	93.7535	130.0892	184.9267	265.6305	341.2097	360.9401	436.9063	527.6627	578.6176	621.8022	670.1973	694.51	768.6465	828.0825	871.7037	899.2604	920.7615	937.9591	958.6829	964.7896	1021.1605	1045.1255	1055.8508	1137.5181	1165.3029	1182.3897	1194.9992	1210.7038	1250.9057	1253.6127	1273.6006	1277.9746	1303.0468	1351.2439	1357.2989	1470.9055	1482.7796	1503.0954	1522.5478	2230.8688	2990.6087	3004.2836	3045.6297	3048.3048	3057.6138	3064.5839	3094.4955	3105.5339	3122.2811	3501.8336
C#CC1OCC11CCC1	C#C[C@H]1OCC21CCC2	
InChI=1S/C8H10O/c1-2-7-8(6-9-7)4-3-5-8/h1,7H,3-6H2	InChI=1S/C8H10O/c1-2-7-8(6-9-7)4-3-5-8/h1,7H,3-6H2/t7-/m1/s1
