14
gdb 20676	3.35331	2.2455	1.35605	0.7582	68.79	-0.2363	-0.0544	0.1819	855.573	0.108058	-378.703299	-378.696455	-378.69551	-378.734282	25.634	
C	 0.0728248966	 1.4918055216	 0.049289205	-0.4787
C	-0.0021436471	-0.003304694	 0.0224119987	 0.188276
C	-0.0956812691	-0.7089197983	-1.1184722555	 0.021315
O	-0.1670380966	-2.0582240362	-1.2147314254	-0.240091
N	-0.1458001703	-2.8314688369	-0.0644290439	-0.063065
C	-0.0573317375	-2.2054253942	 1.0541749938	-0.012932
C	 0.0250238282	-0.7558966938	 1.2676622664	 0.200622
N	 0.1125694202	-0.1760911184	 2.4126798266	-0.52239
H	 0.9923137766	 1.8178553825	 0.5462056774	 0.149406
H	 0.0415045153	 1.9147259223	-0.9581254974	 0.1169
H	-0.7542278472	 1.9037940477	 0.6366033463	 0.149414
H	-0.1250675794	-0.268373864	-2.1089468021	 0.141435
H	-0.0452868154	-2.8664965956	 1.9194265971	 0.136285
H	 0.1175268958	-0.8658186527	 3.167659153	 0.213524
118.5972	179.0503	268.1537	279.6163	413.8287	426.4021	486.693	524.8223	605.0595	753.6357	759.0373	858.989	867.5853	882.5911	910.4844	958.8069	1023.6392	1067.3957	1114.5473	1153.5088	1241.0799	1317.1596	1349.3785	1416.2077	1453.6211	1466.8834	1486.0522	1625.1851	1666.6072	1698.9889	3040.0245	3098.3337	3123.6064	3152.3715	3203.4097	3440.7598
CC1=CON=CC1=N	CC1=C(C=NO[CH]1)[NH]	
InChI=1S/C5H6N2O/c1-4-3-8-7-2-5(4)6/h2-3,6H,1H3	InChI=1S/C5H6N2O/c1-4-3-8-7-2-5(4)6/h2-3,6H,1H3
