18
gdb 66614	2.93832	1.9701	1.87893	0.3701	72.59	-0.2355	0.0877	0.3232	852.5053	0.150546	-401.916838	-401.910524	-401.90958	-401.947129	26.842	
C	-0.0236208078	 1.4581748831	-0.0093466373	-0.514864
C	 0.0589996954	-0.0391893437	 0.0018859591	 0.344117
C	 0.643596648	-0.8704152015	-1.0768118859	-0.107334
C	 0.7593874449	-2.1925810791	-0.3074296818	 0.044221
O	 1.2395191938	-1.8401470854	 0.9849391039	-0.253943
C	 0.2168211219	-0.8811031614	 1.3062391379	-0.00441
C	-1.0484406595	-1.7620778965	 1.2685927201	-0.221421
C	-0.8200973422	-2.1351650067	-0.1909732352	-0.031817
N	-0.8481318735	-0.8065796893	-0.9235072977	-0.194793
H	 0.9035467556	 1.9052639184	 0.3651032079	 0.12423
H	-0.1981628446	 1.8233579644	-1.0248672033	 0.134631
H	-0.8494700826	 1.8120080538	 0.6176989564	 0.123973
H	 1.1735873515	-0.5151097935	-1.9538061364	 0.091581
H	 1.2823326462	-3.0566737266	-0.708949908	 0.085818
H	 0.4689964383	-0.3427011352	 2.217374998	 0.079646
H	-0.9904766278	-2.5941879982	 1.9733503239	 0.10849
H	-1.9804501419	-1.2055984004	 1.3989785161	 0.11024
H	-1.4255861359	-2.9061539023	-0.6613415976	 0.081635
196.5621	226.8705	281.6971	444.7964	537.4908	560.8683	612.021	662.9152	718.9729	754.1003	808.7066	832.4758	870.1162	885.2449	919.4559	930.6284	944.2298	967.9104	983.8378	1006.8185	1015.6497	1034.0525	1053.0593	1095.1813	1130.5086	1174.3815	1187.8715	1207.0926	1234.3153	1256.1779	1269.8776	1290.4293	1302.5872	1333.322	1403.2591	1427.5717	1467.716	1487.2665	1494.2896	3032.2806	3068.1986	3093.7384	3117.5768	3130.5293	3148.0802	3150.0053	3157.6753	3173.4714
CC12C3C4OC1CC4N23	C[C@@]12[C@H]3[C@H]4O[C@@H]1C[C@H]4N23	
InChI=1S/C7H9NO/c1-7-4-2-3-5(9-4)6(7)8(3)7/h3-6H,2H2,1H3	InChI=1S/C7H9NO/c1-7-4-2-3-5(9-4)6(7)8(3)7/h3-6H,2H2,1H3/t3-,4-,5+,6-,7+,8?/m1/s1
