21
gdb 106598	3.85796	0.9691	0.95353	2.3051	79.43	-0.2391	0.0792	0.3183	1359.777	0.181013	-424.168447	-424.159121	-424.158177	-424.202619	35.403	
C	-0.1648964098	 1.4724599625	 0.2043806657	-0.381792
C	-0.154225438	-0.0563000592	 0.0996959097	-0.313044
C	-1.5202288533	-0.6407295789	-0.1062412352	 0.42768
C	-2.6010409681	-0.3170904416	-1.1797034009	-0.315198
C	-3.2274922322	-1.2174638084	-0.0905608039	 0.386052
C	-4.6533467828	-1.567915672	 0.2156783841	-0.185182
O	-4.7495169065	-2.2352555148	 1.4596162386	-0.41696
C	-1.9721708882	-2.122835482	-0.120848224	-0.30071
O	-2.5536159151	-0.3783388977	 0.9443876413	-0.394708
H	 0.838968332	 1.856392272	 0.4065956302	 0.113642
H	-0.5191693644	 1.9311294727	-0.7243615801	 0.118507
H	-0.8270201339	 1.7965909899	 1.0117877331	 0.138736
H	 0.4842244347	-0.3819706445	-0.7311853732	 0.106591
H	 0.2692988985	-0.4953528067	 1.0113460363	 0.11238
H	-2.9569079685	 0.7140067978	-1.1897593897	 0.106363
H	-2.4702255491	-0.7361305556	-2.1807657718	 0.09393
H	-5.2598471396	-0.6478546921	 0.196975626	 0.096589
H	-5.0479938063	-2.2453074681	-0.5493956201	 0.113892
H	-4.2198305528	-1.721052342	 2.0812012244	 0.294755
H	-1.7847836475	-2.7087367448	-1.0245454147	 0.091643
H	-1.779062469	-2.6780422267	 0.7974638544	 0.106835
70.8312	109.0197	131.5966	163.6106	218.0759	280.0141	324.9056	402.635	424.6248	439.7012	523.2834	601.8176	615.0202	671.902	702.5018	769.3511	825.2353	903.0655	944.7421	963.8204	976.3443	1005.3417	1040.6993	1061.3075	1077.8122	1109.7091	1114.9446	1126.7043	1155.4942	1160.9316	1186.9648	1235.2671	1272.4783	1304.4287	1337.6941	1373.4227	1394.6894	1410.5822	1441.1917	1467.0595	1469.8639	1493.4584	1498.1276	1507.7919	1525.286	2977.1532	3028.0615	3042.6467	3057.1938	3063.5409	3067.1973	3072.5033	3110.521	3123.5665	3143.0599	3149.3855	3787.2948
CCC12CC(CO)(C1)O2	CC[C@@]12C[C@@](CO)(C1)O2	
InChI=1S/C7H12O2/c1-2-6-3-7(4-6,5-8)9-6/h8H,2-5H2,1H3	InChI=1S/C7H12O2/c1-2-6-3-7(4-6,5-8)9-6/h8H,2-5H2,1H3/t6-,7+
