21
gdb 68244	2.80454	1.81921	1.43339	1.5686	81.03	-0.2409	0.0867	0.3277	998.9712	0.184297	-387.069132	-387.061662	-387.060718	-387.100538	31.098	
C	 0.0788793542	 1.483748239	 0.1931082114	-0.499529
C	 0.0395354426	-0.0068124635	 0.0076510445	 0.408157
C	 0.8483407787	-0.7773798588	-1.0728691969	-0.271193
C	 0.7374472643	-1.8479026756	 0.0342231074	 0.059809
O	 0.7876921908	-0.7708151676	 1.0213598354	-0.329387
C	-0.7563108886	-2.2182191893	 0.0092981181	-0.020749
C	-1.4338001204	-2.4525628591	 1.387375566	-0.225912
C	-1.9900566269	-0.9974298051	 1.3680902753	-0.229305
C	-1.3174278536	-0.7508865891	-0.0108586991	-0.055934
H	 1.1100080266	 1.8426102511	 0.2533450866	 0.126094
H	-0.4159139041	 1.9827019362	-0.6467654263	 0.120259
H	-0.4399507619	 1.7735699499	 1.1127582302	 0.12969
H	 0.3892129581	-0.9669284886	-2.0475780103	 0.089709
H	 1.8629482024	-0.3892473017	-1.1748340669	 0.104306
H	 1.4824589708	-2.627059179	 0.1991112727	 0.074331
H	-1.0207256373	-2.9033205281	-0.7984492216	 0.064229
H	-2.2068013892	-3.2245103699	 1.3713490915	 0.092302
H	-0.7384516915	-2.6670785026	 2.2019495424	 0.105
H	-3.0807065858	-0.9375603024	 1.3421179918	 0.091929
H	-1.6225392343	-0.3565941636	 2.1729210876	 0.103919
H	-1.9665124449	-0.4382824722	-0.8312543598	 0.062273
149.1804	198.0534	226.3318	283.079	309.7598	415.0521	460.1356	570.8851	621.0001	684.97	733.3063	766.6987	807.0799	822.2008	848.8077	870.5098	882.0895	925.1466	956.3706	966.3846	994.3138	1015.9098	1021.2112	1039.0408	1071.1259	1106.1005	1128.2696	1161.2294	1206.6046	1211.6107	1223.3647	1240.1177	1252.9306	1256.3311	1281.0948	1298.3265	1303.4391	1323.8984	1344.4216	1414.1285	1463.5055	1478.967	1482.3656	1486.9783	1494.7391	3036.8592	3057.1863	3059.3912	3065.3839	3083.1349	3094.147	3104.6524	3107.0947	3115.6827	3116.1947	3125.0123	3135.0995
CC12CC(O1)C1CCC21	C[C@@]12C[C@@H](O1)[C@H]1CC[C@@H]21	
InChI=1S/C8H12O/c1-8-4-7(9-8)5-2-3-6(5)8/h5-7H,2-4H2,1H3	InChI=1S/C8H12O/c1-8-4-7(9-8)5-2-3-6(5)8/h5-7H,2-4H2,1H3/t5-,6+,7+,8-/m0/s1
