22
gdb 119964	2.09162	1.05506	0.82269	2.5648	79.52	-0.2371	0.0547	0.2917	1486.014	0.192716	-441.439353	-441.428857	-441.427913	-441.475408	38.067	
C	 0.1571588333	 1.4456887317	 0.401568222	-0.422472
C	 0.297594996	-0.0296334592	 0.0862918683	-0.009799
C	 0.436922004	-0.5724896927	-1.3008482255	-0.049296
C	 0.4834407571	 0.2962422235	-2.5392216678	-0.07745
O	 1.0361909125	-0.396365773	-3.6496689062	-0.419892
N	 1.5526682605	-0.6569066573	-0.349000173	-0.122828
C	 2.774204275	 0.1291645565	-0.5214762722	-0.161575
C	 3.6801599337	-0.154549917	 0.6799460017	-0.04552
O	 3.9062413192	-1.5380475295	 0.8283333607	-0.420626
H	 0.6134193682	 2.1013024116	-0.3416866743	 0.126465
H	-0.9052519339	 1.7042830898	 0.4587248517	 0.129944
H	 0.603529323	 1.6767850843	 1.3749909101	 0.129679
H	-0.2481292494	-0.6562027695	 0.7915188333	 0.094659
H	-0.015128049	-1.5419642765	-1.5114893469	 0.098321
H	-0.5385802079	 0.5555808474	-2.8367502074	 0.116878
H	 1.0163038661	 1.2381238062	-2.3539024342	 0.089502
H	 1.9296012945	-0.6670214608	-3.4146150718	 0.287103
H	 3.2790795371	-0.2252078174	-1.4292921392	 0.0985
H	 2.6196814604	 1.2120463793	-0.6256606146	 0.090496
H	 4.6526764709	 0.3298533827	 0.5389637836	 0.102174
H	 3.2226961173	 0.2801439996	 1.585866316	 0.081845
H	 3.0404545611	-1.9423964797	 0.6730132458	 0.283891
50.8524	85.7706	127.2706	146.1695	161.5359	197.3766	253.9532	265.2592	299.9844	353.1447	466.0063	490.8977	524.0539	542.6012	568.1306	723.8282	770.8444	841.79	902.8044	936.9966	981.3055	1009.4345	1043.7521	1070.8454	1084.183	1100.8605	1127.0891	1150.8292	1161.3891	1189.8477	1220.8483	1240.9244	1269.9374	1334.5833	1346.5354	1371.1304	1382.792	1396.1026	1414.4178	1419.6653	1447.444	1447.5584	1479.788	1497.5831	1500.2977	1504.1182	1510.5571	2952.5966	2999.4081	3015.0666	3040.5925	3049.4925	3067.3569	3068.812	3096.8303	3097.1862	3108.0953	3137.3116	3728.4982	3818.2769
CC1C(CO)N1CCO	C[C@H]1[C@@H](CO)N1CCO	
InChI=1S/C6H13NO2/c1-5-6(4-9)7(5)2-3-8/h5-6,8-9H,2-4H2,1H3	InChI=1S/C6H13NO2/c1-5-6(4-9)7(5)2-3-8/h5-6,8-9H,2-4H2,1H3/t5-,6+,7?/m0/s1
