16
gdb 52503	4.45161	0.51103	0.46654	4.1617	95.21	-0.2429	-0.0258	0.2171	2282.1249	0.121596	-400.696845	-400.686477	-400.685533	-400.736117	33.858	
C	-0.3511749026	 1.0436210611	 0.2562616365	-0.518879
C	-0.1451594281	-0.3833878499	 0.0923161205	 0.261407
C	 0.0256966212	-1.5733919732	-0.0472053231	-0.193079
C	 0.215605356	-2.9098083263	-0.2047611255	-0.275575
C	 0.3869584655	-4.0999443235	-0.3465788545	 0.356048
C	 0.5848985511	-5.5336126226	-0.5117320186	-0.269734
O	-0.601904468	-6.236631468	-0.8953456697	-0.170334
C	-1.5528746799	-6.3535316073	 0.0589818692	 0.137755
N	-2.628239997	-6.9558620042	-0.2041867423	-0.434679
H	 0.4244698017	 1.6165462478	-0.2640828507	 0.160797
H	-1.3212790591	 1.3494760509	-0.1511902313	 0.162078
H	-0.32703282	 1.3297117161	 1.3136739811	 0.159385
H	 1.299207001	-5.7321055451	-1.3161953183	 0.158933
H	 1.0005457184	-5.9680861719	 0.4087699311	 0.139957
H	-1.2762981741	-5.8905708852	 1.0154177927	 0.094789
H	-3.230535116	-6.9665827187	 0.6163227528	 0.23113
7.8808	39.7017	71.9005	93.7656	104.09	186.2559	243.4529	310.4497	351.1706	376.2778	438.3318	553.6161	558.2173	601.2949	691.1182	818.7582	934.1317	967.7659	1026.3917	1039.6525	1046.7576	1048.374	1114.4605	1239.1219	1288.9215	1313.0415	1390.0747	1412.5429	1426.8647	1469.95	1471.0258	1479.1664	1749.9993	2278.328	2384.8198	3004.6605	3025.8352	3033.3528	3084.8764	3089.2148	3089.6131	3519.4019	7.8618	39.7012	71.9005	93.7659	104.09	186.2553	243.4512	310.4494	351.1706	376.2769	438.3319	553.6161	558.2175	601.2949	691.1181	818.7582	934.1315	967.7658	1026.3915	1039.6523	1046.7579	1048.3742	1114.4603	1239.1218	1288.9217	1313.0413	1390.0746	1412.5431	1426.8644	1469.9504	1471.0262	1479.1663	1749.9993	2278.3277	2384.8197	3004.6605	3025.8352	3033.3527	3084.8764	3089.2147	3089.6131	3519.4019
CC#CC#CCOC=N	CC#CC#CCO[CH][NH]	
InChI=1S/C7H7NO/c1-2-3-4-5-6-9-7-8/h7-8H,6H2,1H3	InChI=1S/C7H7NO/c1-2-3-4-5-6-9-7-8/h7-8H,6H2,1H3
