17
gdb 37015	3.84912	1.08511	1.04209	0.0804	68.45	-0.2592	0.0484	0.3076	1185.78	0.134702	-458.88523	-458.877292	-458.876348	-458.91833	29.088	
C	 0.0001918789	 1.504644854	 0.0918710146	-0.156005
O	 1.3326198636	 1.5315188505	-0.467678853	-0.271767
C	 1.4251232998	 0.0894673094	-0.5008829814	-0.15601
C	-0.0205415007	-0.0152465633	-0.027716402	 0.261205
O	-0.4975591474	-0.9115229945	 0.9654728047	-0.287994
C	-1.0833457385	-0.9597465832	-0.3275207656	 0.261202
C	-2.5660155979	-0.7759331967	-0.6319880012	-0.156003
O	-2.5158469573	-1.8886250529	-1.5531735777	-0.271768
C	-1.1411562204	-2.1911790159	-1.2247533909	-0.156007
H	-0.0305790635	 1.873201751	 1.1250130986	 0.119767
H	-0.7189261848	 2.0624169623	-0.5202315464	 0.113519
H	 1.6492722259	-0.2895736614	-1.5053705936	 0.113519
H	 2.1599134397	-0.3023013167	 0.2137955067	 0.119767
H	-3.2260698352	-0.9665846831	 0.2236657871	 0.119769
H	-2.8613677747	 0.1584186238	-1.1245977364	 0.113518
H	-0.4933168715	-2.193659932	-2.109743907	 0.113518
H	-1.035653516	-3.1422173414	-0.6875760766	 0.119768
76.4939	119.7034	144.6753	183.0579	258.1384	427.2536	434.5105	442.0057	481.7157	610.3453	817.6899	865.9593	902.6536	929.1457	942.14	948.3819	999.8681	1020.1396	1025.5809	1097.2394	1111.4793	1123.3334	1134.0209	1140.0465	1143.1528	1155.3515	1157.499	1192.2938	1298.1035	1299.0537	1347.7653	1361.1318	1496.0573	1499.819	1521.3058	1524.8574	1575.2336	3009.8873	3011.7158	3020.786	3023.0336	3062.8537	3062.8795	3064.2708	3064.8183
C1OCC11OC11COC1	C1OCC21OC12COC1	
InChI=1S/C6H8O3/c1-5(2-7-1)6(9-5)3-8-4-6/h1-4H2	InChI=1S/C6H8O3/c1-5(2-7-1)6(9-5)3-8-4-6/h1-4H2
