15
gdb 113135	2.17953	1.30146	1.09885	4.261	71.09	-0.2967	-0.0212	0.2755	1155.2644	0.111913	-416.809293	-416.800379	-416.799435	-416.843389	31.678	
O	 0.2187909899	 0.6967609995	 0.7917495214	-0.41268
C	-0.1776041464	 0.2060243236	-0.469010708	-0.09099
C	-1.5264702849	-0.4888951725	-0.4274647763	-0.056853
C	-1.8494924195	-1.596260733	-1.3661232659	-0.314692
C	-1.6078939321	-1.9356354037	 0.1149192192	 0.026088
C	-0.3703009652	-2.5769613482	 0.4826285873	 0.243326
N	 0.6474181992	-3.0430765501	 0.7736054771	-0.335792
C	-2.7524344846	-2.2886842227	 0.9168805999	 0.249855
N	-3.6867026906	-2.5529135375	 1.5439790078	-0.320661
H	 0.535560708	-0.0461452619	 1.3173808777	 0.301793
H	-0.2627763591	 1.0749848993	-1.1304486928	 0.13076
H	 0.5757371115	-0.464155176	-0.9065655843	 0.115695
H	-2.3485005655	 0.1339020882	-0.0897623365	 0.143332
H	-2.8671417066	-1.7202664135	-1.7156556443	 0.162738
H	-1.0801264842	-1.9325958716	-2.0522940622	 0.158079
66.359	102.0923	140.2642	168.1398	218.7453	264.7591	351.9047	381.0624	450.2116	509.5072	518.7178	597.0703	608.2298	630.1602	786.8161	868.5424	943.4819	961.4997	1015.8312	1074.1499	1083.2025	1100.9667	1149.7289	1219.5564	1257.5327	1295.3155	1364.4485	1411.2928	1426.8431	1479.4959	1494.7129	2354.1267	2362.8739	3009.716	3076.2985	3149.214	3176.577	3244.6046	3809.9933
OCC1CC1(C#N)C#N	OC[C@H]1CC1(C#N)C#N	
InChI=1S/C6H6N2O/c7-3-6(4-8)1-5(6)2-9/h5,9H,1-2H2	InChI=1S/C6H6N2O/c7-3-6(4-8)1-5(6)2-9/h5,9H,1-2H2/t5-/m1/s1
