17
gdb 76371	2.11875	1.50528	1.30799	3.3128	66.57	-0.2355	-0.0374	0.1981	1072.5964	0.131936	-496.091707	-496.082196	-496.081252	-496.125589	35.515	
C	 0.0757727323	 1.4149866651	 0.1008353996	-0.478503
C	 0.0258514138	-0.0861681356	-0.0209057008	 0.369549
O	 1.0579337584	-0.7611346794	-0.1091099148	-0.403618
C	-1.2871819255	-0.7424988791	-0.0241937548	 0.095989
O	-2.4277330792	 0.0479971308	 0.1270346687	-0.447957
C	-1.3881463498	-2.0850726661	-0.8241216978	 0.02757
O	-0.3687699961	-2.5099740416	-1.6460944789	-0.418647
C	-1.3330907795	-2.1485249429	 0.6624619585	 0.070867
O	-0.2619876857	-2.6478447303	 1.3641533617	-0.415903
H	 1.1131822649	 1.7405577306	 0.1796948407	 0.14558
H	-0.3879316013	 1.8799433468	-0.7770127764	 0.139904
H	-0.502930756	 1.7455748379	 0.9681685204	 0.161146
H	-2.7192403582	 0.3404886244	-0.7443254115	 0.290589
H	-2.3627594681	-2.226883203	-1.2836418171	 0.122336
H	 0.4645972709	-2.1683303911	-1.2801083871	 0.303608
H	-2.2719881526	-2.3094903652	 1.1830032471	 0.134552
H	 0.5488338318	-2.2932101913	 0.9637048925	 0.30294
86.4871	120.0977	173.1303	191.9125	252.8848	261.0394	303.744	341.8578	397.149	400.9561	443.732	468.139	580.3707	627.1988	639.5559	664.9022	674.4275	774.8592	820.8774	929.85	965.9443	1045.456	1062.7322	1110.4109	1138.8001	1181.3621	1234.0123	1300.943	1335.6888	1351.9425	1381.2744	1398.8035	1416.1783	1453.0942	1467.7348	1490.8201	1690.8236	3042.4491	3106.268	3152.5804	3160.8528	3173.4285	3644.1223	3670.9274	3783.4841
CC(=O)C1(O)C(O)C1O	CC(=O)[C@@]1(O)[C@@H](O)[C@H]1O	
InChI=1S/C5H8O4/c1-2(6)5(9)3(7)4(5)8/h3-4,7-9H,1H3	InChI=1S/C5H8O4/c1-2(6)5(9)3(7)4(5)8/h3-4,7-9H,1H3/t3-,4+,5+
