18
gdb 26121	2.60161	1.28797	1.06066	0.5016	74.78	-0.2105	0.006	0.2165	1206.5739	0.147313	-439.128757	-439.119759	-439.118815	-439.162859	32.99	
C	-0.0371637829	 1.5828846907	 0.0337885356	-0.383325
C	 0.0179962903	 0.0434660636	 0.0858201556	-0.097373
C	 0.7455917708	-0.443342136	 1.3543392295	-0.383336
C	-1.3373840592	-0.5632012127	-0.0416250502	 0.260672
C	-1.949030913	-1.3820620606	-0.9375555945	 0.225471
O	-1.4236176753	-1.9108695764	-2.062795504	-0.433247
N	-3.2517542236	-1.6376848035	-0.5568945962	-0.337738
C	-3.3850159035	-0.9713891888	 0.54698789	 0.067568
O	-2.2892573296	-0.2980607197	 0.9313794707	-0.188804
H	 0.9710210526	 2.0055701366	 0.0899128654	 0.111816
H	-0.5049566966	 1.9300319015	-0.8918617745	 0.119525
H	-0.6166355787	 1.9775396683	 0.8744872872	 0.124602
H	 0.5761926111	-0.3111220623	-0.7891369077	 0.103085
H	 0.2008050892	-0.1383651137	 2.2535056362	 0.12462
H	 0.8330184397	-1.5334824389	 1.3654498316	 0.119513
H	 1.7521317081	-0.0163997128	 1.4076475726	 0.111816
H	-2.1186133169	-2.4430116624	-2.4679684777	 0.305485
H	-4.2565170325	-0.8976855026	 1.1780266604	 0.149651
44.7714	128.7319	159.4536	220.218	248.2295	283.8235	287.7678	336.739	397.1706	439.0607	539.7302	619.3044	669.8094	737.3557	740.3056	819.1194	883.8037	930.7916	958.2749	960.0902	1037.2962	1073.94	1121.7011	1163.7988	1187.5092	1216.29	1283.9188	1316.1339	1332.1653	1378.4247	1394.841	1412.127	1428.0349	1486.5125	1491.2672	1500.6633	1512.2954	1551.479	1725.7289	3034.1889	3037.7731	3041.3416	3104.3087	3110.3823	3113.0868	3115.8489	3276.3719	3810.8251
CC(C)C1=C(O)N=CO1	CC(C)c1c(O)nco1	
InChI=1S/C6H9NO2/c1-4(2)5-6(8)7-3-9-5/h3-4,8H,1-2H3	InChI=1S/C6H9NO2/c1-4(2)5-6(8)7-3-9-5/h3-4,8H,1-2H3
