20
gdb 31047	2.39829	1.29284	0.86566	1.1226	85.93	-0.1742	0.0337	0.2079	1382.2043	0.169722	-403.183244	-403.173151	-403.172207	-403.218983	35.808	
C	 0.0631909146	 1.430091083	-0.1667163829	-0.323409
N	-0.0136830308	 0.0921500001	 0.4072477217	-0.3922
C	-1.1947609175	-0.6330452109	 0.2034323034	 0.183943
C	-1.3225689032	-1.9725673846	-0.0381117381	 0.258923
C	-0.3495579981	-3.0807254942	-0.2157305995	-0.502695
O	-2.658697888	-2.3024178459	-0.0864443861	-0.220791
C	-3.3748842842	-1.1640746673	 0.1050070466	 0.362492
C	-4.8560941747	-1.2874993244	 0.0724933451	-0.491402
C	-2.5343494896	-0.111116303	 0.2881089917	-0.340114
H	 1.0529807135	 1.846619397	 0.0385370854	 0.119302
H	-0.113318116	 1.4630692604	-1.2539755183	 0.106823
H	-0.6714405162	 2.0841481925	 0.3126498653	 0.131408
H	 0.8039803016	-0.4569833512	 0.178420166	 0.224934
H	-0.2689277949	-3.7257326692	 0.6694400497	 0.131643
H	-0.6296660926	-3.7197286611	-1.060744265	 0.134757
H	 0.6493439855	-2.6821262888	-0.4207694687	 0.117092
H	-5.2190168813	-1.9821069792	 0.83892415	 0.134942
H	-5.3148692728	-0.3124103639	 0.2510636008	 0.131144
H	-5.2094315798	-1.6596106492	-0.8964525701	 0.133691
H	-2.8280788755	 0.9109499097	 0.468163373	 0.099516
38.2128	103.0106	115.0903	145.608	192.0084	197.2763	236.3448	250.2039	320.0221	388.3549	490.1313	571.1103	625.6855	629.1657	677.923	693.0039	780.8513	812.2783	939.9201	1016.5958	1029.6435	1054.9563	1056.7572	1064.0581	1110.3186	1150.8549	1184.6046	1206.4261	1247.1037	1319.4827	1408.6541	1415.7027	1440.2619	1466.6226	1468.089	1472.3067	1485.1997	1490.088	1495.6126	1499.959	1518.1636	1615.7741	1692.3955	2972.5845	3010.5779	3026.5671	3063.1468	3073.5594	3074.8709	3097.7826	3113.4774	3126.8864	3255.4806	3568.6116
CNC1=C(C)OC(C)=C1	CNc1c(C)oc(C)c1	
InChI=1S/C7H11NO/c1-5-4-7(8-3)6(2)9-5/h4,8H,1-3H3	InChI=1S/C7H11NO/c1-5-4-7(8-3)6(2)9-5/h4,8H,1-3H3
