19
gdb 102772	2.49352	1.08052	0.84541	2.3517	73.26	-0.2464	-0.0425	0.2039	1380.6521	0.155689	-460.190421	-460.180215	-460.179271	-460.226476	35.677	
C	-0.2275747123	 1.4641045447	-0.1367118627	-0.48084
C	-0.0119303943	-0.0330057018	-0.0306456619	 0.379167
O	 1.0945397887	-0.5209558004	 0.0329983143	-0.311773
C	-1.2703149776	-0.9055216119	-0.0320113547	-0.129396
C	-1.6708626692	-1.1677801956	-1.5200732353	-0.064964
O	-3.0521727261	-1.3029883958	-1.7130266327	-0.424425
C	-1.0022000151	-2.1760642291	 0.7846606595	-0.302247
C	-2.0780000207	-3.2212367042	 0.8778563868	 0.151003
O	-3.1181267521	-3.2592879366	 0.2600707837	-0.253067
H	 0.7132622305	 1.9636501395	-0.3706345444	 0.145321
H	-0.9873114694	 1.7103811601	-0.8846940953	 0.146609
H	-0.6001674113	 1.836563299	 0.8256575629	 0.146333
H	-2.0987350567	-0.334688094	 0.4020212599	 0.098318
H	-1.3606595145	-0.3168525028	-2.1367994347	 0.108648
H	-1.102545076	-2.0407719575	-1.8820506723	 0.095389
H	-3.341469965	-2.0276686855	-1.1362858984	 0.301211
H	-0.1011407965	-2.6752876356	 0.3984071828	 0.162355
H	-0.7283931847	-1.9217639938	 1.819019197	 0.132325
H	-1.8448345779	-4.0310199785	 1.6029607656	 0.100032
55.5929	62.3078	117.0842	141.2018	172.3798	206.5106	228.7729	254.1052	304.6801	373.186	428.6894	585.0945	596.2712	624.5139	669.1863	743.0894	823.1195	893.3908	923.4736	960.9707	984.6405	1032.1408	1094.2568	1112.3518	1118.2563	1177.5924	1209.7167	1262.9323	1275.3862	1336.3327	1380.9676	1389.0124	1394.6936	1423.9184	1442.9979	1462.7379	1474.1593	1482.4344	1506.6757	1800.6364	1810.3543	2901.8478	2965.8904	3017.2915	3035.5927	3037.8548	3054.8037	3060.2802	3100.6095	3153.7574	3675.8534
CC(=O)C(CO)CC=O	CC(=O)[C@@H](CO)CC=O	
InChI=1S/C6H10O3/c1-5(9)6(4-8)2-3-7/h3,6,8H,2,4H2,1H3	InChI=1S/C6H10O3/c1-5(9)6(4-8)2-3-7/h3,6,8H,2,4H2,1H3/t6-/m1/s1
