16
gdb 44507	4.40665	1.37665	1.19176	1.604	68.29	-0.2481	0.0166	0.2646	1000.9386	0.12648	-437.860036	-437.853447	-437.852503	-437.891111	26.689	
O	 0.0102962571	-0.0974933733	 0.095495424	-0.372164
C	-0.0164351811	 1.1139853344	 0.0290038677	 0.405987
C	-1.3106406589	 1.9276583221	-0.0198368104	-0.381593
C	-1.0976531683	 3.434399408	-0.1015311538	-0.017011
C	 0.0220738051	 3.9901731999	-1.0300254579	 0.021047
O	 0.0977498631	 5.1998255292	-0.194098765	-0.302916
C	 0.0160648978	 4.0885321875	 0.7682494441	 0.021047
C	 1.067070122	 3.3229726497	-0.0882020836	 0.030866
N	 1.1119286284	 1.8890137146	-0.0096275195	-0.334253
H	-1.8895461551	 1.5675606684	-0.8775825516	 0.142127
H	-1.895425353	 1.6630338211	 0.8681545517	 0.142131
H	-2.0221426273	 4.0144474937	-0.1363408233	 0.090423
H	 0.0356306042	 4.1141378242	-2.1133042388	 0.099366
H	 0.0224498021	 4.3299093648	 1.8316121068	 0.099366
H	 2.0636176112	 3.7616273534	-0.1088603154	 0.103776
H	 1.9957233628	 1.4041171923	 0.019921415	 0.2518
84.0892	254.7431	376.637	412.8955	447.3489	466.1909	475.1958	615.0514	647.4696	746.8952	769.4318	807.8647	817.5959	873.9729	892.1473	904.6964	976.421	1003.2595	1032.6007	1040.7601	1102.4496	1139.5544	1164.2454	1177.4687	1184.0921	1246.275	1254.5905	1256.0282	1280.8866	1324.0638	1384.324	1400.5666	1452.915	1465.3941	1809.5984	3049.3333	3084.0643	3097.4075	3115.2768	3119.6639	3138.5349	3626.2405
O=C1CC2C3OC2C3N1	O=C1C[C@@H]2[C@H]3O[C@@H]2[C@H]3N1	
InChI=1S/C6H7NO2/c8-3-1-2-5-4(7-3)6(2)9-5/h2,4-6H,1H2,(H,7,8)	InChI=1S/C6H7NO2/c8-3-1-2-5-4(7-3)6(2)9-5/h2,4-6H,1H2,(H,7,8)/t2-,4+,5-,6+
