23
gdb 120856	3.73526	0.62478	0.57081	1.8136	85.07	-0.2486	0.0853	0.3339	2022.1579	0.203355	-425.384524	-425.373575	-425.372631	-425.421986	37.873	
C	 0.245887429	 1.3369646136	-0.3015391181	-0.224985
O	 0.3585235491	-0.0596760908	-0.1865928535	-0.22935
C	 0.4321581149	-0.4941962253	 1.1569216421	-0.076652
C	 0.4985409389	-1.9991047064	 1.1613501531	-0.026901
C	 1.8151465396	-2.7190068759	 1.0169528753	-0.277298
C	 1.0572683836	-2.8005170043	 2.3175755186	-0.026936
C	 1.599922529	-2.1687416412	 3.5727685573	-0.076675
O	 2.4759589033	-3.0921476305	 4.1885330976	-0.22934
C	 3.0045851443	-2.6155770695	 5.4009448068	-0.224977
H	 1.1158162833	 1.8568386097	 0.132142416	 0.100296
H	 0.1894328827	 1.575349724	-1.3665559922	 0.12623
H	-0.6603086855	 1.7192352262	 0.196260537	 0.100728
H	 1.3155608359	-0.0543520888	 1.648614732	 0.081046
H	-0.4541359884	-0.1419451845	 1.714387984	 0.082991
H	-0.3509886443	-2.4505475625	 0.6565025639	 0.092375
H	 1.8663721729	-3.597132231	 0.3835792917	 0.113158
H	 2.7134497354	-2.10910642	 1.0056439998	 0.112666
H	 0.5474926031	-3.7392581321	 2.515720761	 0.09235
H	 2.1354305438	-1.2314532374	 3.3483877334	 0.081034
H	 0.778726397	-1.911311292	 4.2653881974	 0.082997
H	 3.659111507	-3.3933499075	 5.8021192762	 0.126228
H	 3.5941324304	-1.6950277024	 5.258988108	 0.100287
H	 2.214105115	-2.4014991514	 6.1388052826	 0.100728
54.0786	74.9117	79.8707	90.5743	113.8626	182.9103	229.6059	232.1872	275.2115	292.9561	365.941	456.3061	468.1533	547.1453	807.2154	843.0198	891.0444	920.4911	949.5687	977.9132	997.15	1056.9572	1062.6391	1078.8974	1138.004	1151.2076	1155.141	1169.7578	1179.892	1193.9997	1201.1735	1221.2475	1231.3102	1251.1555	1273.8773	1278.2597	1360.951	1390.7846	1430.3829	1453.8355	1480.9922	1482.8681	1484.9839	1485.0233	1498.2587	1501.2755	1505.0538	1522.921	1530.2696	2937.771	2943.728	2963.3638	2965.0197	2969.5046	2986.3441	3004.4769	3004.6811	3111.6162	3111.7451	3131.5995	3142.0233	3152.3335	3217.2072
COCC1CC1COC	COC[C@H]1C[C@H]1COC	
InChI=1S/C7H14O2/c1-8-4-6-3-7(6)5-9-2/h6-7H,3-5H2,1-2H3	InChI=1S/C7H14O2/c1-8-4-6-3-7(6)5-9-2/h6-7H,3-5H2,1-2H3/t6-,7+
