14
gdb 129617	2.99923	1.19229	0.94825	2.7296	68.59	-0.233	-0.0191	0.2139	1184.4056	0.102887	-429.055633	-429.047458	-429.046514	-429.089802	28.945	
N	 0.0887574299	 1.4264451044	 0.3002457775	-0.60353
C	 0.0110880494	 0.0486348122	 0.0904288314	 0.237355
C	-1.1123663905	-0.7394384899	-0.0542802696	 0.30298
C	-2.5689064292	-0.3994295729	-0.0366616995	-0.46673
C	-3.2003457192	-0.4231710553	-1.3627346014	 0.257781
N	-3.6871141341	-0.4550060784	-2.4098197309	-0.294142
N	-0.5959315318	-1.995043148	-0.1692060853	-0.232727
N	 0.7381535813	-1.9948968681	-0.0791349626	-0.112062
N	 1.1125542624	-0.7528398958	 0.0742680315	-0.243613
H	 1.0556842946	 1.7035110216	 0.4235511209	 0.26078
H	-0.3177076096	 1.9701730653	-0.4515814168	 0.255643
H	-3.1266121516	-1.077160748	 0.6216464292	 0.168963
H	-2.6807431738	 0.6042641645	 0.3883743051	 0.182385
H	-1.0782689777	-2.8666884817	-0.3247944994	 0.286917
23.5766	100.4471	179.2067	244.449	265.3266	335.6288	378.8391	421.5292	501.4871	551.7025	664.7963	716.8189	734.908	780.1334	827.3633	915.7507	930.8138	1013.0531	1110.3842	1117.3936	1183.6913	1236.1361	1288.0641	1343.3594	1356.8003	1390.1384	1453.6242	1524.3366	1650.5247	1652.986	2364.0212	3034.6988	3080.7283	3528.2924	3613.6267	3647.5103
NC1=C(CC#N)NN=N1	Nc1c(CC#N)[nH]nn1	
InChI=1S/C4H5N5/c5-2-1-3-4(6)8-9-7-3/h1H2,(H3,6,7,8,9)	InChI=1S/C4H5N5/c5-2-1-3-4(6)8-9-7-3/h1H2,(H3,6,7,8,9)
