22
gdb 115206	3.87739	0.92474	0.78608	4.049	83.05	-0.2333	0.0345	0.2677	1493.8441	0.196247	-404.409479	-404.400241	-404.399297	-404.443755	34.799	
C	-0.0915200499	 1.5695918602	 0.1169892059	-0.393999
C	-0.0056449919	 0.0427585968	 0.0170066455	-0.184471
C	 0.7067381605	-0.4853096993	-1.2372553049	 0.034795
C	 0.8614623651	-2.0114404184	-1.2089373898	-0.222172
C	 1.6782238612	-2.4990472072	-2.4093261478	-0.31899
C	 1.2438838787	-1.9150859793	-3.7493986495	 0.393705
O	 1.5380104144	-2.4353660494	-4.8103061472	-0.379668
N	 0.552287639	-0.7349327297	-3.6967291192	-0.311728
C	-0.0281095972	-0.0931514996	-2.5245663857	-0.153704
H	 0.9025333299	 2.0267826516	 0.0572844176	 0.11755
H	-0.7040457543	 2.0012434939	-0.680793386	 0.119794
H	-0.538562149	 1.872078806	 1.0687962293	 0.117239
H	 0.5263752156	-0.3430025219	 0.8954222269	 0.098403
H	-1.0155722461	-0.3872397104	 0.0640287698	 0.097335
H	 1.713077337	-0.0423335615	-1.2767256067	 0.077698
H	 1.339013519	-2.3290752651	-0.2752628806	 0.098026
H	-0.1356531632	-2.4729134392	-1.2207590513	 0.101236
H	 2.733716065	-2.2251634435	-2.2816532678	 0.127818
H	 1.6546621999	-3.5866219138	-2.5123419179	 0.12737
H	 0.267761002	-0.400217589	-4.6064413583	 0.242082
H	-1.0923923225	-0.3629808037	-2.4224107766	 0.101477
H	 0.0108626864	 0.9907875723	-2.6747145957	 0.110206
70.0092	94.8928	147.7372	176.5786	203.5577	260.0161	345.8744	410.9456	437.0315	452.3523	501.0614	551.9691	660.4998	698.934	762.659	780.8463	826.8602	918.2869	929.6428	966.0775	975.5453	1028.791	1058.7412	1104.311	1108.2787	1136.4783	1160.3267	1202.9408	1232.7071	1271.3262	1299.1993	1309.5019	1328.482	1342.5387	1374.9715	1387.3193	1393.3544	1402.7753	1415.8312	1463.6122	1484.0071	1485.1652	1499.7108	1501.5179	1509.7429	1530.2092	1788.5801	2963.3527	2996.2105	3012.89	3020.599	3033.421	3034.2795	3049.5112	3060.4157	3066.4419	3101.2447	3104.4692	3106.2128	3601.7171
CCC1CCC(=O)NC1	CC[C@H]1CCC(=O)NC1	
InChI=1S/C7H13NO/c1-2-6-3-4-7(9)8-5-6/h6H,2-5H2,1H3,(H,8,9)	InChI=1S/C7H13NO/c1-2-6-3-4-7(9)8-5-6/h6H,2-5H2,1H3,(H,8,9)/t6-/m0/s1
