21
gdb 102859	3.20759	0.7998	0.69953	2.2922	79.98	-0.2518	-0.0387	0.2131	1609.4159	0.178739	-424.24829	-424.23749	-424.236546	-424.285986	36.996	
C	-1.3704640017	-1.0448846132	-0.1752222632	-0.388546
C	-0.0666537413	-0.24389665	-0.0759805781	-0.191773
C	 0.7022619273	-0.3674385792	 1.260637315	-0.013173
C	-0.1510172779	 0.0451672062	 2.4820950372	-0.285313
C	-0.675515134	 1.4573313545	 2.3594088403	 0.158852
O	-1.8404383811	 1.7618015906	 2.3408182782	-0.2393
C	 1.2884029883	-1.7790496156	 1.4783230209	-0.281042
C	 2.3105099068	-2.1461052415	 0.4253740588	 0.159609
O	 2.2899860245	-3.1472925703	-0.2420309556	-0.238245
H	-2.1114691954	-0.6989101335	 0.5511929947	 0.136756
H	-1.808521106	-0.9254280644	-1.1703829326	 0.122625
H	-1.2090239506	-2.1159447837	-0.0185175964	 0.125865
H	 0.6051887962	-0.5442412733	-0.8895966438	 0.109283
H	-0.2895065146	 0.8158902675	-0.2506453126	 0.108783
H	 1.5513119536	 0.3304071704	 1.205309785	 0.082117
H	-0.9972226829	-0.6310624689	 2.629403171	 0.127741
H	 0.4787967342	 0.0022621683	 3.3817706882	 0.115506
H	 0.1194168893	 2.2364922023	 2.275432	 0.073518
H	 1.806035404	-1.8022593019	 2.4484280704	 0.117709
H	 0.5114786855	-2.5480792146	 1.4976744767	 0.127686
H	 3.1278101158	-1.3947411899	 0.3041500861	 0.071341
45.6816	49.9643	61.431	82.1759	143.8733	181.9768	235.7227	257.0174	284.9061	322.8326	418.1401	488.0393	526.0376	565.7824	737.1688	788.5014	798.6453	869.2725	967.5504	985.5576	1000.2249	1000.9725	1026.8044	1054.0608	1129.7476	1149.9802	1164.0906	1200.17	1225.8546	1259.8566	1307.8576	1320.0578	1357.3269	1385.491	1389.8889	1423.251	1428.7757	1431.5819	1459.4228	1472.1039	1490.0954	1506.9964	1512.5439	1831.9779	1837.1315	2842.2377	2848.1149	2991.1752	3013.0248	3019.6268	3027.6008	3044.3953	3056.9511	3101.5663	3105.5891	3111.8241	3118.6888
CCC(CC=O)CC=O	CCC(CC=O)CC=O	
InChI=1S/C7H12O2/c1-2-7(3-5-8)4-6-9/h5-7H,2-4H2,1H3	InChI=1S/C7H12O2/c1-2-7(3-5-8)4-6-9/h5-7H,2-4H2,1H3
