23
gdb 53576	4.47017	0.62468	0.5785	0.2617	95.59	-0.2383	0.0629	0.3012	2019.0245	0.20411	-351.133401	-351.122713	-351.121769	-351.17124	38.092	
C	-0.0303802223	 1.475396052	-0.1545386728	-0.496318
C	 0.0181797448	 0.0250249866	-0.0329706694	 0.076385
C	 0.0697814412	-1.1740306778	 0.0684864462	 0.053933
C	 0.0908947675	-2.6290037945	 0.1873477973	-0.37829
C	-1.3041532269	-3.2585814483	 0.1101595826	 0.060041
C	-2.0757175748	-3.2190721268	-1.2360103078	-0.232565
C	-2.5727449595	-4.6651202244	-0.9511204264	 0.058996
C	-2.6669055142	-5.6564777952	-2.1002511568	-0.406248
C	-1.4154563064	-4.8071651075	 0.0785456954	-0.259869
H	 0.4349961838	 1.9650795904	 0.7083583258	 0.144544
H	 0.4958769227	 1.8194933862	-1.0520863956	 0.144575
H	-1.0630731367	 1.8362541706	-0.2201009155	 0.144476
H	 0.719925555	-3.055845935	-0.6064959	 0.115828
H	 0.5662057715	-2.9168669371	 1.1356219827	 0.120776
H	-1.9270670741	-2.8485597454	 0.9118894575	 0.077352
H	-2.8210428001	-2.4334303549	-1.3794627916	 0.096234
H	-1.3834272632	-3.2001975833	-2.086082417	 0.093377
H	-3.530230649	-4.6239911118	-0.4187371992	 0.069454
H	-1.7187520611	-5.7148746694	-2.6472597465	 0.108694
H	-2.9061437713	-6.663827393	-1.7406453989	 0.111945
H	-3.4452838277	-5.3655554806	-2.8148865329	 0.112819
H	-0.5298308781	-5.258043679	-0.3855111838	 0.091286
H	-1.6183835713	-5.3291922218	 1.0174778567	 0.092576
18.7601	45.627	69.1751	104.1205	199.2749	223.9586	250.2305	288.6524	351.3691	371.9045	385.4771	407.6942	469.1676	612.091	759.4557	780.9229	814.8105	869.8908	894.7387	927.8732	954.0825	975.7872	1044.3609	1053.2614	1054.9779	1073.8932	1129.8308	1139.8653	1148.8272	1166.3332	1219.8894	1231.2841	1258.1022	1266.5456	1277.4444	1299.7659	1333.5839	1366.089	1389.543	1411.0181	1415.6647	1470.6987	1476.3438	1479.6504	1479.8829	1494.2869	1496.2353	1503.5958	2371.2472	3000.4302	3019.8368	3023.3974	3026.7966	3029.5899	3032.018	3040.2245	3054.6976	3082.5069	3082.6509	3087.2794	3087.5412	3094.5858	3105.183
CC#CCC1CC(C)C1	CC#CC[C@H]1C[C@@H](C)C1	
InChI=1S/C9H14/c1-3-4-5-9-6-8(2)7-9/h8-9H,5-7H2,1-2H3	InChI=1S/C9H14/c1-3-4-5-9-6-8(2)7-9/h8-9H,5-7H2,1-2H3/t8-,9+
