20
gdb 122496	4.54222	0.6199	0.57164	2.6023	79.05	-0.2514	-0.0289	0.2225	1943.0794	0.16842	-440.256627	-440.246437	-440.245493	-440.293485	35.167	
C	-0.1810957622	 1.5355160537	 0.0651479193	-0.385473
C	-0.0441906067	 0.024135178	 0.1278519928	-0.028161
O	-1.336449765	-0.5483830356	 0.062684226	-0.247778
C	-1.3244999491	-1.9562926479	 0.1217344853	-0.061998
C	-2.7565201843	-2.4228159044	 0.050939264	-0.019323
N	-3.3002341581	-2.7693316492	-1.2521226448	-0.326114
C	-3.159850492	-3.8412609211	-0.2439716196	-0.134182
C	-2.1617906218	-4.90103217	-0.563301561	 0.172978
O	-2.1709573288	-5.997978211	-0.0636221248	-0.257597
H	 0.8039685747	 2.0091045657	 0.1121527274	 0.116707
H	-0.6681277552	 1.8376915453	-0.8661937475	 0.12936
H	-0.783033559	 1.9017116535	 0.9016467685	 0.126299
H	 0.5751940004	-0.3442782152	-0.7070716338	 0.090187
H	 0.4590144171	-0.2824256578	 1.0607813521	 0.087038
H	-0.7441661578	-2.3805281831	-0.7117424745	 0.097336
H	-0.8628390099	-2.3012847821	 1.0633788177	 0.093511
H	-3.4061345935	-1.9022675218	 0.7532315323	 0.106581
H	-4.2737915416	-2.4916340244	-1.337450138	 0.246373
H	-4.039393382	-4.2109136412	 0.2777995496	 0.107352
H	-1.4018291053	-4.6012154212	-1.317149661	 0.086904
38.4873	65.9762	76.0416	122.4107	135.503	214.5104	246.6703	274.8839	345.4096	386.8488	442.731	503.2443	535.3918	820.6234	823.2333	855.5292	900.7425	924.9386	968.8244	1021.5719	1031.099	1046.5374	1060.4443	1139.7338	1144.3442	1162.2231	1186.2776	1204.1794	1231.6303	1245.8663	1283.5608	1296.467	1352.675	1375.9705	1400.8949	1415.4688	1438.9327	1483.6987	1486.2372	1498.7849	1505.6394	1534.2995	1822.5177	2899.9548	2950.5563	2960.9464	2981.3562	3005.7258	3045.6962	3120.5063	3122.7089	3123.0932	3147.831	3518.335
CCOCC1NC1C=O	CCOC[C@H]1N[C@H]1C=O	
InChI=1S/C6H11NO2/c1-2-9-4-6-5(3-8)7-6/h3,5-7H,2,4H2,1H3	InChI=1S/C6H11NO2/c1-2-9-4-6-5(3-8)7-6/h3,5-7H,2,4H2,1H3/t5-,6+/m0/s1
