21
gdb 89112	3.74798	0.69285	0.64814	4.3392	81.26	-0.2277	0.0321	0.2599	1780.6803	0.181532	-420.401044	-420.390782	-420.389837	-420.438274	36.011	
C	-0.3562386619	 1.4940451089	 0.1665411875	-0.41195
C	-0.039305983	 0.0143276229	 0.1697397989	 0.033665
C	 1.3297085256	-0.4894733318	-0.1402183165	-0.25811
N	 0.773415103	-0.6272670357	 1.2037342903	-0.077464
C	 1.3565468468	 0.1655204644	 2.2753192689	-0.133815
C	 2.3559831423	-0.7044882161	 3.0505864436	-0.166705
N	 3.0060479432	 0.0136651968	 4.1365089134	-0.269457
C	 2.4447805752	 0.1414550147	 5.3675376289	 0.152428
O	 1.377515681	-0.3311725708	 5.6974545345	-0.322796
H	 0.5189763364	 2.1104253279	 0.3854219319	 0.118763
H	-0.7320955796	 1.7907326651	-0.8183229106	 0.123242
H	-1.1329924515	 1.7330483882	 0.9013849601	 0.127532
H	-0.8793280524	-0.6090336271	-0.1355208178	 0.091991
H	 1.4807990215	-1.4105300148	-0.6975265613	 0.113387
H	 2.1036297868	 0.26398086	-0.2930117007	 0.099457
H	 1.8677602449	 1.0787530088	 1.925888632	 0.07289
H	 0.561588071	 0.4730308874	 2.9627472103	 0.129899
H	 1.8271904849	-1.5602993109	 3.4751354924	 0.151153
H	 3.1274373758	-1.0841290006	 2.3733445389	 0.107432
H	 3.8763031283	 0.4887552796	 3.9606973107	 0.247038
H	 3.0867332218	 0.728996103	 6.0549515745	 0.071421
21.7267	61.9969	78.4283	114.489	180.4944	211.4203	241.8289	300.4237	339.4842	403.1553	447.6254	501.1878	526.0382	731.0007	755.1844	815.9952	839.5015	905.8396	949.7302	982.497	1027.8237	1034.1863	1053.0483	1067.052	1112.9533	1135.6116	1150.3114	1174.1631	1190.6099	1216.165	1262.5845	1328.638	1336.0296	1340.7104	1399.5849	1410.5087	1422.3459	1430.7442	1470.6851	1489.08	1493.6495	1501.4254	1515.3738	1527.6743	1806.0476	2928.0134	2950.9436	3035.6781	3057.097	3076.3481	3077.4683	3094.7635	3099.7127	3122.7598	3126.0974	3167.784	3641.7358
CC1CN1CCNC=O	C[C@H]1CN1CCNC=O	
InChI=1S/C6H12N2O/c1-6-4-8(6)3-2-7-5-9/h5-6H,2-4H2,1H3,(H,7,9)	InChI=1S/C6H12N2O/c1-6-4-8(6)3-2-7-5-9/h5-6H,2-4H2,1H3,(H,7,9)/t6-,8?/m0/s1
