20
gdb 117100	2.37559	1.06639	0.7888	2.978	83.07	-0.2416	0.0306	0.2722	1501.5691	0.16832	-403.158848	-403.148084	-403.14714	-403.196357	38.113	
C	 0.8887451037	 0.7810533361	-0.6094152543	-0.371559
C	-0.0190619829	-0.38369827	-0.2080982319	-0.14849
N	 0.5964098014	-1.2685410181	 0.7679084991	-0.330689
C	 0.1937683803	-1.3312146455	 2.0596758789	 0.444745
O	-0.7308951728	-0.6859740692	 2.5226647062	-0.389432
C	 0.9871894131	-2.2963604989	 2.9803788717	-0.302836
C	-0.0016206607	-3.2366367117	 3.703796878	-0.383169
C	 2.0589678277	-3.0324143613	 2.318461053	 0.318108
C	 2.9337237088	-3.6475176202	 1.7661120298	-0.449352
H	 1.8272112103	 0.4233191918	-1.0467851693	 0.113197
H	 0.3918725608	 1.4124851087	-1.3527759723	 0.119925
H	 1.1319169623	 1.3986554118	 0.2598813672	 0.133003
H	-0.9378571872	-0.0146932785	 0.2524424348	 0.149499
H	-0.298304666	-0.9683575206	-1.0930959892	 0.10669
H	 1.3854179391	-1.834992075	 0.4949917867	 0.252094
H	 1.4360042735	-1.6381970007	 3.7362576802	 0.137362
H	-0.7918384444	-2.6346320705	 4.1547383039	 0.14958
H	-0.4515892292	-3.9395477426	 2.997244108	 0.127001
H	 0.5130225141	-3.8092663504	 4.478687987	 0.123047
H	 3.7133168881	-4.1935113352	 1.2945818626	 0.201279
24.8355	35.0428	86.234	137.8006	199.7702	220.4688	228.4962	269.9851	308.9618	358.6955	455.1387	493.5212	509.5149	552.8331	614.6515	628.0275	649.6418	749.9822	777.0246	851.4723	902.931	924.4042	1021.4034	1071.3502	1091.4919	1119.2579	1135.5554	1179.443	1255.8472	1279.8396	1316.1435	1324.0663	1391.8672	1397.6004	1411.0648	1484.8543	1492.6557	1493.0798	1499.9192	1502.4651	1557.9685	1774.4354	2225.1207	3025.3006	3032.3184	3035.5263	3053.7913	3098.228	3116.4844	3127.2228	3127.2508	3151.3861	3500.1405	3611.5678
CCNC(=O)C(C)C#C	CCNC(=O)[C@@H](C)C#C	
InChI=1S/C7H11NO/c1-4-6(3)7(9)8-5-2/h1,6H,5H2,2-3H3,(H,8,9)	InChI=1S/C7H11NO/c1-4-6(3)7(9)8-5-2/h1,6H,5H2,2-3H3,(H,8,9)/t6-/m0/s1
