17
gdb 57821	3.96534	0.71647	0.63862	2.9287	94.32	-0.26	-0.0773	0.1827	1735.2995	0.131877	-384.658367	-384.648088	-384.647144	-384.694519	36.137	
C	-0.1051497853	 1.3862941396	-0.3147430115	-0.394802
C	 0.013652328	-0.1014718782	 0.0764796964	-0.073138
C	 0.74476752	-0.2942246132	 1.4058204975	-0.394312
C	-1.3729212498	-0.7376494795	 0.1159577974	 0.133046
O	-1.8946555006	-1.1492387255	 1.1309081578	-0.288365
C	-2.062570934	-0.8279143592	-1.1609961185	 0.364029
C	-2.6477372058	-0.9261212478	-2.2195426234	-0.150884
C	-3.2992269123	-1.0350577374	-3.4058008484	 0.288994
C	-3.8779794866	-1.1316593109	-4.4614096025	-0.545174
H	 0.8910001639	 1.8275090092	-0.4112705225	 0.125162
H	-0.6274447761	 1.5134887314	-1.266849294	 0.131738
H	-0.6502881007	 1.9449700097	 0.4532022103	 0.130101
H	 0.5631359645	-0.6110188816	-0.7278060462	 0.100595
H	 0.2039765509	 0.1953209859	 2.2202189126	 0.132908
H	 0.8333860642	-1.3530773543	 1.6617757656	 0.12693
H	 1.7494671704	 0.1349039932	 1.3491817997	 0.108853
H	-4.3883664808	-1.2174185115	-5.3891297704	 0.204318
36.0541	64.0182	105.1158	197.569	198.9844	221.7819	258.3541	291.4221	321.8604	348.2254	423.8495	490.0563	556.0425	565.1398	596.6816	632.7617	681.4183	748.0947	866.6299	933.0859	959.7952	971.9285	1103.1718	1124.5503	1177.847	1212.1868	1309.4656	1362.575	1399.4831	1420.2223	1484.5326	1486.2044	1500.7988	1508.6614	1752.6771	2171.45	2331.0721	3011.3478	3039.2578	3047.3109	3111.0626	3119.0075	3120.0887	3125.0775	3500.3365
CC(C)C(=O)C#CC#C	CC(C)C(=O)C#CC#C	
InChI=1S/C8H8O/c1-4-5-6-8(9)7(2)3/h1,7H,2-3H3	InChI=1S/C8H8O/c1-4-5-6-8(9)7(2)3/h1,7H,2-3H3
