15
gdb 44765	2.75329	1.6792	1.23598	4.2206	70.13	-0.2455	-0.0386	0.2069	984.215	0.114423	-416.796082	-416.789046	-416.788102	-416.827634	27.207	
O	 0.0223604617	 0.0483855945	-0.0525162998	-0.297486
C	 0.0103646033	 1.2413383101	-0.0093703563	 0.40228
C	-1.1708443288	 2.2387777438	 0.0415253549	-0.291223
N	-0.4564807921	 3.5419303615	 0.079498064	-0.127271
C	 0.6038804044	 3.3085455925	-0.9735428903	-0.219165
C	 1.1912852392	 2.2399506107	 0.0117077544	 0.064671
C	 0.6299268209	 3.2342780651	 1.08587864	-0.219165
C	 2.5367255312	 1.7342292574	-0.0235439084	 0.170334
N	 3.6282987776	 1.3543956322	-0.0510438876	-0.329143
H	-1.809183542	 2.1593506122	-0.8422446381	 0.146533
H	-1.7867518378	 2.0953301517	 0.9331052008	 0.146532
H	 0.2397620419	 2.9732906053	-1.9472063877	 0.13358
H	 1.2456593674	 4.1843243002	-1.0791089138	 0.14297
H	 1.2749683248	 4.100761497	 1.2380005328	 0.142971
H	 0.2902114784	 2.8294402959	 2.0417543449	 0.133581
132.5201	135.7495	196.1367	392.1336	445.8	485.017	510.7265	519.1694	599.1196	622.9034	631.428	749.5924	845.5963	866.3631	922.6907	966.0854	1001.314	1010.0884	1013.5086	1043.4961	1089.9806	1156.7448	1210.0433	1220.8885	1232.8817	1237.5646	1292.7549	1316.4428	1469.494	1499.5409	1532.6869	1890.965	2355.5449	3069.5692	3072.8433	3077.1601	3122.835	3143.802	3144.6398
O=C1CN2CC1(C2)C#N	O=C1CN2C[C@]1(C2)C#N	
InChI=1S/C6H6N2O/c7-2-6-3-8(4-6)1-5(6)9/h1,3-4H2	InChI=1S/C6H6N2O/c7-2-6-3-8(4-6)1-5(6)9/h1,3-4H2
