23
gdb 102591	2.54636	1.11782	0.9034	1.7581	82.37	-0.2367	0.0804	0.3171	1419.0717	0.204151	-425.396047	-425.385611	-425.384667	-425.432488	36.983	
C	-0.4365816095	 1.057438819	-0.3544383648	-0.391786
C	-0.3244011813	-0.3191207523	 0.3104186981	-0.192261
C	 0.8720954965	-0.4761604208	 1.2815174304	 0.120622
O	 0.5044593896	-0.3586128517	 2.6484292996	-0.24828
C	 0.0873290096	 0.9211236837	 3.0571359784	-0.232888
C	 1.5336754784	-1.8408008902	 1.1145139057	 0.124316
C	 2.4447349889	-2.3496503802	 2.253513198	-0.294578
C	 1.3576271886	-3.4249467166	 2.4439263224	-0.052391
O	 0.6044276184	-2.9308307171	 1.3151372215	-0.293818
H	 0.4563923125	 1.2803326124	-0.9492498226	 0.11395
H	-1.2984431031	 1.0981418334	-1.028134014	 0.115206
H	-0.5502075564	 1.8628655728	 0.3775904647	 0.115047
H	-1.2340131466	-0.5597815004	 0.8700874146	 0.118544
H	-0.2490393885	-1.0840265917	-0.4701062003	 0.112275
H	 1.6359498595	 0.2892807668	 1.0478654712	 0.056225
H	 0.8240519088	 1.6959606466	 2.7908678934	 0.100792
H	-0.8834465689	 1.2058916478	 2.6270907237	 0.110631
H	-0.0146136011	 0.8934575166	 4.1454572146	 0.124021
H	 1.9760824652	-1.8832914187	 0.1091929129	 0.069667
H	 3.4146442819	-2.7263679981	 1.9255967444	 0.102238
H	 2.570428889	-1.6563005418	 3.0833904585	 0.119379
H	 1.6741556807	-4.4644277509	 2.2965442352	 0.095824
H	 0.7845808179	-3.3495588587	 3.3751190943	 0.107265
50.5814	75.2998	86.7982	98.8084	176.6205	204.9222	229.6294	250.4799	308.6824	337.8555	399.051	479.9399	654.171	755.5759	785.2545	794.1977	864.313	908.9743	948.0999	961.7013	983.5693	1027.5087	1051.8992	1065.7535	1104.4553	1120.6283	1127.9099	1166.5949	1178.6332	1183.9656	1219.2686	1229.9411	1262.4356	1269.5862	1289.1865	1312.2932	1362.692	1373.5751	1386.6636	1397.5208	1414.6554	1475.8074	1476.4396	1481.3229	1495.3574	1501.8283	1504.7486	1513.4524	1526.0143	2926.9512	2973.4456	3001.9187	3021.3416	3028.5523	3033.8425	3047.3912	3063.6397	3078.8665	3090.0963	3100.1073	3103.6527	3110.6183	3156.6328
CCC(OC)C1CCO1	CC[C@@H](OC)[C@H]1CCO1	
InChI=1S/C7H14O2/c1-3-6(8-2)7-4-5-9-7/h6-7H,3-5H2,1-2H3	InChI=1S/C7H14O2/c1-3-6(8-2)7-4-5-9-7/h6-7H,3-5H2,1-2H3/t6-,7-/m1/s1
