23
gdb 109921	2.30309	1.26896	1.01955	3.1445	81.31	-0.2449	0.0606	0.3055	1296.4991	0.204341	-425.416714	-425.406516	-425.405571	-425.451027	39.251	
C	-0.7765545015	 1.5109542104	 0.040944539	-0.449421
C	-0.1139290732	 0.1347202217	 0.0186131082	 0.317634
C	-1.1026636536	-0.9132552424	-0.5050809546	-0.434923
C	 1.2663026525	 0.0476750786	-0.709747733	-0.306388
C	 1.7882639486	-0.8348281188	 0.4503610266	 0.124606
O	 3.0609522239	-0.5331142905	 1.0042242606	-0.438597
C	 0.6001024489	-0.364772631	 1.3316337816	-0.077232
C	 0.9926219749	 0.6978490151	 2.3603306865	-0.078235
O	 1.7687676288	 0.1416590842	 3.4064757137	-0.433945
H	-0.0983297981	 2.2914926411	 0.3963350604	 0.115895
H	-1.1027352263	 1.7908502692	-0.967636741	 0.110363
H	-1.6633201257	 1.5161782484	 0.6853614712	 0.114716
H	-1.4439706993	-0.657186725	-1.5149477923	 0.110293
H	-0.6575584921	-1.9127961742	-0.5484414666	 0.111285
H	-1.9856182648	-0.9730139827	 0.1414501542	 0.114827
H	 1.2779720239	-0.3731208338	-1.719512156	 0.08934
H	 1.7839690536	 1.011309855	-0.7174018077	 0.101584
H	 1.7228889404	-1.904406461	 0.2151480911	 0.073012
H	 3.7459921507	-0.8445793231	 0.405417018	 0.288846
H	 0.0792015619	-1.1678887829	 1.861953407	 0.069172
H	 1.5237286144	 1.5313479579	 1.8766453685	 0.085889
H	 0.0925063386	 1.1137645047	 2.8256211187	 0.101375
H	 2.5695824634	-0.1905170807	 2.9816934658	 0.289906
84.0798	164.9269	178.6681	211.0468	228.1259	241.3569	256.5934	295.397	331.0333	347.6823	370.5646	409.2189	479.5801	524.1934	554.3727	623.9261	760.5415	835.2012	878.394	907.5836	933.4186	955.6974	980.606	1004.3045	1031.1464	1062.2496	1082.6695	1107.332	1137.0322	1180.6611	1199.0421	1218.0639	1229.1804	1250.6295	1282.5242	1301.7664	1327.0153	1345.245	1398.4047	1405.9271	1420.6008	1424.873	1453.3617	1479.617	1484.9898	1490.6053	1502.7465	1503.8547	1511.7746	2987.0803	3014.0336	3020.1303	3025.8671	3048.9507	3055.808	3070.5564	3083.0638	3088.8237	3093.6139	3105.1185	3109.35	3776.5431	3828.7655
CC1(C)CC(O)C1CO	CC1(C)C[C@@H](O)[C@H]1CO	
InChI=1S/C7H14O2/c1-7(2)3-6(9)5(7)4-8/h5-6,8-9H,3-4H2,1-2H3	InChI=1S/C7H14O2/c1-7(2)3-6(9)5(7)4-8/h5-6,8-9H,3-4H2,1-2H3/t5-,6-/m1/s1
