19
gdb 78746	3.03168	1.57131	1.24104	1.3554	74.69	-0.227	0.0761	0.3031	1047.8268	0.159579	-422.994847	-422.987037	-422.986093	-423.026636	31.332	
C	-0.0328646485	 1.4222590354	-0.030643694	-0.476641
C	 0.0316080552	-0.0757215762	 0.049261566	 0.455109
O	-1.1746730858	-0.7011495488	-0.3678672635	-0.311365
C	-1.2915198856	-1.9291528665	 0.3598060669	-0.096724
C	 0.1320098422	-2.228450976	 0.8185814825	-0.124074
C	 0.6965023982	-0.8190503875	 1.153290814	-0.154445
C	 1.3427441181	-0.7917555231	-0.2421448123	-0.138382
C	 1.095143889	-2.2809549739	-0.4178340507	 0.13234
O	 2.3001488668	-2.9769161547	-0.1665318308	-0.444754
H	 0.913916029	 1.8684315353	 0.2862477516	 0.121285
H	-0.2356837505	 1.7436655386	-1.0571133235	 0.130924
H	-0.8325443352	 1.8068153526	 0.6097575508	 0.125003
H	-1.9788545518	-1.8066290091	 1.2106288584	 0.09232
H	-1.6994621462	-2.6907929823	-0.3143486045	 0.101685
H	 0.2457425962	-3.0375387279	 1.5395653356	 0.071841
H	 1.0233991903	-0.4254434188	 2.1068256131	 0.086753
H	 2.2307984608	-0.2684593922	-0.5792953159	 0.086062
H	 0.6407005484	-2.6077487548	-1.3658558687	 0.063753
H	 2.1062242995	-3.9197626902	-0.188195585	 0.27931
158.9226	210.1055	216.4778	274.2475	299.7061	311.7352	361.2757	410.672	535.0675	606.3593	687.483	745.6142	815.5313	849.899	853.6377	877.3711	927.7394	928.3214	963.959	992.1459	1009.9915	1048.5089	1066.7246	1070.4476	1107.5491	1118.6859	1154.8453	1189.5398	1204.5891	1217.9044	1229.2256	1263.0028	1270.3163	1326.7521	1376.3291	1408.333	1426.4586	1440.4786	1479.7828	1503.2918	1514.6993	2977.859	2987.3048	3039.8838	3061.671	3106.113	3118.8432	3122.1131	3173.1422	3196.4935	3809.7319
CC12OCC3C1C2C3O	C[C@]12OC[C@@H]3[C@H]1[C@H]2[C@H]3O	
InChI=1S/C7H10O2/c1-7-4-3(2-9-7)6(8)5(4)7/h3-6,8H,2H2,1H3	InChI=1S/C7H10O2/c1-7-4-3(2-9-7)6(8)5(4)7/h3-6,8H,2H2,1H3/t3-,4+,5+,6+,7+/m1/s1
