21
gdb 108670	2.14969	1.39751	0.93054	2.512	82.21	-0.2366	0.0146	0.2512	1305.1807	0.18264	-424.230716	-424.221239	-424.220295	-424.265389	35.065	
C	 0.1632892223	 1.5315530375	-0.4374401303	-0.487121
C	-0.0171211243	 0.0582714806	-0.1788941826	 0.194444
C	-1.1826805237	-0.566962621	 0.0448612618	 0.132618
C	-2.5323873795	 0.0948525383	 0.1585773968	-0.155706
O	-3.1431932275	-0.1533168144	 1.4280482954	-0.414867
C	-1.2378857434	-2.0711640277	 0.2386641674	-0.135355
O	-0.0551164515	-2.7557209084	-0.1180566112	-0.243658
C	 1.0934792063	-2.1227038905	 0.4088743382	-0.088569
C	 1.2716760272	-0.7389357536	-0.2098268297	-0.278128
H	 0.6587384267	 1.6877781399	-1.4046042267	 0.129144
H	-0.7679874631	 2.098519203	-0.4495553275	 0.124834
H	 0.8223755963	 1.9775232753	 0.3187298189	 0.123219
H	-2.4806596853	 1.1703312258	-0.0464308662	 0.092967
H	-3.2270362894	-0.3393919625	-0.5712806802	 0.112707
H	-2.5483775157	 0.1971936914	 2.0997062218	 0.279885
H	-1.5159911855	-2.296733513	 1.2822904489	 0.101295
H	-2.0328794054	-2.4905766917	-0.390437368	 0.112208
H	 1.0156181349	-2.0365490267	 1.5063462443	 0.083264
H	 1.9420208509	-2.7748974918	 0.1829773289	 0.104964
H	 1.6210016872	-0.833623964	-1.2477450948	 0.114327
H	 2.0586620526	-0.1910545266	 0.3262996048	 0.097527
50.468	115.0803	129.9901	150.9892	231.8897	307.6438	320.2578	346.0965	365.1956	432.7274	449.8047	475.7653	595.7449	676.1446	711.4354	852.4405	893.6391	927.8965	981.6218	1001.4835	1025.3377	1028.7626	1043.8175	1099.5774	1119.333	1156.3052	1161.2024	1201.7217	1237.5148	1248.9469	1277.5587	1314.1507	1363.9753	1371.3549	1387.8984	1409.5246	1416.1168	1424.5476	1466.7567	1482.0877	1485.9517	1487.2881	1501.6917	1507.7875	1738.412	2956.9316	2962.3646	3005.4825	3017.4742	3024.5357	3038.0273	3043.8718	3059.064	3059.4327	3083.8334	3137.6745	3806.989
CC1=C(CO)COCC1	CC1=C(CO)COCC1	
InChI=1S/C7H12O2/c1-6-2-3-9-5-7(6)4-8/h8H,2-5H2,1H3	InChI=1S/C7H12O2/c1-6-2-3-9-5-7(6)4-8/h8H,2-5H2,1H3
