20
gdb 82926	2.51394	1.77303	1.38225	1.6997	77.46	-0.2263	0.0799	0.3062	1019.5048	0.17092	-403.114051	-403.105784	-403.10484	-403.146336	32.464	
C	 1.087129109	 2.6220391712	-0.2060863494	-0.32021
N	 0.8679695724	 1.196569175	-0.3991282698	-0.095488
C	 1.9638205334	 0.2339415601	-0.3923409875	-0.024051
C	 3.3244233441	 0.6253849997	 0.192035379	-0.280033
C	 3.0479740965	 0.8346450073	 1.6738096043	-0.01445
O	 2.6229064332	-0.3552345366	 2.3491784456	-0.307664
C	 1.6233501157	 0.6182201346	 1.9806781841	 0.411578
C	 0.8639102857	 1.2515906165	 3.113185064	-0.491577
C	 0.9315780319	 0.2312752602	 0.6947989031	-0.117462
H	 1.8531168597	 2.8960433344	 0.5327244415	 0.107452
H	 1.3725692601	 3.0621730385	-1.1670704446	 0.123795
H	 0.1421283158	 3.0814979181	 0.1013043639	 0.125042
H	 1.9442576398	-0.4866908992	-1.204911288	 0.092364
H	 4.0526130947	-0.1783192502	 0.0431135927	 0.11825
H	 3.7367171135	 1.5301334518	-0.2700447177	 0.105184
H	 3.6706108143	 1.5047352517	 2.2634274664	 0.090834
H	 1.5322202976	 1.4773364527	 3.9479231917	 0.130096
H	 0.3779044019	 2.1773279176	 2.788209437	 0.126511
H	 0.0826077994	 0.5749134709	 3.4765492064	 0.130069
H	 0.1147152214	-0.4860934242	 0.7411551974	 0.089758
156.4921	164.9878	185.3476	199.8426	274.7812	298.8744	358.0354	447.0767	479.7085	531.8321	579.402	734.3424	739.2175	759.1389	831.0527	842.8674	907.8597	925.0466	965.9204	988.999	1019.5614	1043.3233	1070.6998	1104.1662	1111.7631	1125.6336	1161.1972	1178.8429	1222.621	1241.5936	1279.8248	1311.4002	1319.1989	1340.2948	1397.4294	1411.188	1447.4199	1456.5285	1475.122	1486.6188	1495.263	1495.9776	1505.959	2999.8433	3036.1899	3039.2401	3069.2995	3082.1151	3097.8221	3099.3385	3123.4142	3125.0922	3132.8909	3147.6953
CN1C2CC3OC3(C)C12	CN1[C@H]2C[C@@H]3O[C@]3(C)[C@@H]12	
InChI=1S/C7H11NO/c1-7-5(9-7)3-4-6(7)8(4)2/h4-6H,3H2,1-2H3	InChI=1S/C7H11NO/c1-7-5(9-7)3-4-6(7)8(4)2/h4-6H,3H2,1-2H3/t4-,5-,6-,7-,8?/m0/s1
