16
gdb 54044	2.26152	1.24511	0.89932	3.3656	77.23	-0.2494	0.0124	0.2618	1284.08	0.12089	-400.712197	-400.702252	-400.701308	-400.748014	35.93	
N	-0.0796714044	 1.3992642833	-0.1068778274	-0.516817
C	 0.1330224558	 0.0548950933	-0.0109619334	 0.413717
O	 1.2327069312	-0.4486465684	 0.0391028328	-0.342763
C	-1.1716573593	-0.7899038558	-0.0223113041	-0.280853
C	-0.8387897431	-2.3055724982	-0.0436538595	-0.348742
C	-0.3879143491	-2.7594840696	-1.351993062	 0.311095
C	-0.0529056566	-3.1260323953	-2.4460286217	-0.448759
C	-2.0191546879	-0.4298036013	 1.1104853135	 0.30117
C	-2.7065570444	-0.1296199761	 2.0504223146	-0.452211
H	 0.7205467508	 1.9968278117	 0.0298452698	 0.264288
H	-0.9862811389	 1.7799648797	 0.1102826411	 0.264954
H	-1.7052500012	-0.5410604447	-0.9484933098	 0.139992
H	-0.0665761036	-2.496206528	 0.7073470789	 0.15881
H	-1.7348549757	-2.861079135	 0.2514136805	 0.136551
H	 0.2663751858	-3.455789526	-3.403330087	 0.195858
H	-3.3183163396	 0.1284451505	 2.8794969738	 0.20371
27.6618	66.2891	116.7797	140.8549	232.7794	255.4003	335.2498	385.4197	402.7615	418.9023	491.7212	531.5435	551.4105	586.4428	614.7823	623.9007	653.2718	658.8703	716.0666	805.1758	955.9109	967.0583	1012.9121	1063.1982	1118.0925	1204.3539	1268.1162	1289.8983	1350.6892	1355.5925	1455.207	1623.1433	1818.1101	2230.5071	2243.0531	3031.3639	3052.9228	3098.6438	3501.8906	3507.6674	3586.8025	3714.3624
NC(=O)C(CC#C)C#C	NC(=O)[C@@H](CC#C)C#C	
InChI=1S/C7H7NO/c1-3-5-6(4-2)7(8)9/h1-2,6H,5H2,(H2,8,9)	InChI=1S/C7H7NO/c1-3-5-6(4-2)7(8)9/h1-2,6H,5H2,(H2,8,9)/t6-/m1/s1
