20
gdb 117271	4.04417	0.79233	0.67653	2.5693	77.78	-0.2339	0.0338	0.2677	1652.7141	0.170074	-440.295279	-440.285115	-440.284171	-440.332918	34.474	
O	-0.157522332	 1.4387010333	 0.1337214304	-0.428909
C	 0.0002750027	 0.0258459968	 0.1282529077	-0.071139
C	-1.3878123197	-0.5797447455	-0.0194787957	-0.307947
C	-1.3431926118	-2.1019078882	-0.0379364959	 0.379908
O	-0.307795684	-2.7447818029	 0.0565738289	-0.385604
N	-2.5464556417	-2.7119029851	-0.1682866621	-0.068557
C	-3.9332031007	-2.2603900332	-0.299681639	-0.171828
C	-4.3606156083	-3.7561224987	-0.3643546869	-0.242488
C	-2.8572935463	-4.1389380222	-0.2199874723	-0.160553
H	 0.7145394368	 1.8325797426	 0.2262865196	 0.28584
H	 0.6380233532	-0.3108411197	-0.7005126048	 0.103528
H	 0.4625474615	-0.3372291975	 1.056375005	 0.103555
H	-2.0284025644	-0.2349213312	 0.8019572324	 0.124915
H	-1.8544554692	-0.2085940414	-0.9406134988	 0.124896
H	-4.3085754929	-1.7010503326	 0.5654701441	 0.116145
H	-4.1322863533	-1.6748325899	-1.2050735274	 0.11615
H	-4.9953803027	-4.081386729	 0.4600471907	 0.119105
H	-4.8190065991	-4.0553286256	-1.3070718773	 0.119104
H	-2.410772261	-4.6551519508	-1.0760347381	 0.121935
H	-2.5871048274	-4.6807391492	 0.6922236395	 0.121944
25.9015	37.6193	83.159	109.3253	129.8576	158.2625	237.529	275.069	340.8629	397.8201	560.5437	578.2181	764.79	767.0183	812.1768	848.368	887.9587	934.437	955.9751	1008.4179	1057.7579	1079.8585	1086.7229	1139.5194	1143.163	1198.9257	1199.9711	1207.0803	1228.7717	1244.104	1272.9352	1300.9559	1305.2767	1319.3962	1341.1167	1452.1782	1462.7515	1473.0458	1494.3694	1512.9957	1521.9708	1535.3811	1749.7094	3003.335	3019.0263	3031.1433	3031.645	3042.263	3057.0877	3069.1944	3081.6891	3094.6797	3148.858	3833.8261
OCCC(=O)N1CCC1	OCCC(=O)N1CCC1	
InChI=1S/C6H11NO2/c8-5-2-6(9)7-3-1-4-7/h8H,1-5H2	InChI=1S/C6H11NO2/c8-5-2-6(9)7-3-1-4-7/h8H,1-5H2
