19
gdb 65551	2.58834	1.66197	1.35347	1.8796	74.33	-0.2485	-0.0257	0.2228	1013.8666	0.159111	-423.015878	-423.007844	-423.0069	-423.048386	31.2	
C	 0.1284325061	 1.6101051884	-0.200502219	-0.469874
C	 0.0353672144	 0.0809932748	-0.0936008961	 0.230595
C	 1.0277542459	-0.649208472	-1.0797220627	-0.289058
C	 1.9032077929	-1.3275635932	-0.0038746073	 0.084361
C	 0.8810632385	-1.966799462	 0.9591464841	-0.236681
C	 0.6577232964	-0.4643446276	 1.22118042	 0.052553
O	 2.085410546	-0.2523983694	 0.971064951	-0.30528
C	-1.4007354384	-0.3362557741	-0.3164120606	 0.108469
O	-2.0658167173	-0.9904407775	 0.4477129471	-0.262079
H	 1.1621247211	 1.9199787413	-0.0324547904	 0.147183
H	-0.1811978497	 1.9581994466	-1.1918555909	 0.119054
H	-0.5072203055	 2.1022730417	 0.5439226994	 0.123576
H	 0.5420035283	-1.3687550645	-1.7460869794	 0.107841
H	 1.5950684788	 0.060565638	-1.6857630562	 0.112862
H	 2.8289096379	-1.8109369417	-0.3157430102	 0.083089
H	 0.0623506516	-2.570350508	 0.5664675785	 0.113841
H	 1.371890174	-2.4500312969	 1.8039948643	 0.114089
H	 0.2999543053	-0.0588452763	 2.166444403	 0.087404
H	-1.8354658564	 0.0315132826	-1.2762716845	 0.078053
75.4419	174.9549	198.3803	237.527	286.3416	327.1713	392.7924	435.782	527.8542	583.4455	674.2677	758.807	831.9812	839.9743	879.684	894.377	915.0166	936.5999	958.3151	970.0511	1003.7538	1036.6764	1053.1204	1073.5112	1111.8215	1167.0429	1197.4102	1206.1327	1225.0914	1252.0772	1263.2502	1295.4593	1317.3422	1328.7	1397.0411	1427.4983	1484.9963	1491.2434	1499.3022	1506.3815	1819.1286	2849.3318	3031.4117	3056.8574	3089.9788	3094.9547	3111.8282	3125.1004	3130.3334	3136.8585	3159.3902
CC1(CC2CC1O2)C=O	C[C@]1(C[C@@H]2C[C@H]1O2)C=O	
InChI=1S/C7H10O2/c1-7(4-8)3-5-2-6(7)9-5/h4-6H,2-3H2,1H3	InChI=1S/C7H10O2/c1-7(4-8)3-5-2-6(7)9-5/h4-6H,2-3H2,1H3/t5-,6+,7-/m0/s1
