19
gdb 102735	2.85272	1.0171	0.79023	3.2077	77.54	-0.2469	0.0175	0.2644	1443.6708	0.157801	-419.169781	-419.160064	-419.15912	-419.205169	34.134	
C	-0.2460598968	 1.2292603798	 0.1163748011	-0.249417
O	 0.0967256978	-0.1460725902	 0.1376058326	-0.22806
C	 0.6740849579	-0.61450187	-1.0575204803	-0.020277
C	 1.2555731179	-2.010433665	-0.8015798829	-0.166512
N	 2.4320185436	-1.9069224882	 0.0431649352	-0.071676
C	 2.2155205006	-2.0109196608	 1.4845037726	-0.208675
C	 2.8355988123	-3.1325092464	 0.7303099879	-0.229936
C	-0.3244116802	-0.6585653021	-2.152101684	 0.267453
N	-1.1101190021	-0.6857976512	-2.9989800964	-0.323283
H	 0.6360323384	 1.8573269054	-0.0746236996	 0.117032
H	-1.0076504278	 1.4449493204	-0.6450285766	 0.134278
H	-0.6490463775	 1.4671465325	 1.102422165	 0.138231
H	 1.4954529694	 0.0458256056	-1.3775261256	 0.124182
H	 0.4592695135	-2.6434361478	-0.3743188912	 0.109533
H	 1.5515503111	-2.4450603924	-1.7621709188	 0.126681
H	 2.8267806628	-1.3540689312	 2.095954976	 0.119325
H	 1.1946462752	-2.1402993403	 1.8344553015	 0.124795
H	 2.2315070854	-4.0251185376	 0.5766767879	 0.114588
H	 3.9056978585	-3.3110389706	 0.7780734556	 0.121739
66.0514	89.95	96.6964	128.3228	175.132	237.839	264.6647	295.4686	355.8874	383.9467	477.1252	575.8166	599.7313	771.6257	835.9663	852.5682	898.875	957.0219	1021.864	1030.664	1065.1731	1097.9945	1120.3163	1121.5393	1150.5912	1174.4442	1182.9022	1185.6774	1226.1918	1279.7761	1303.929	1328.3338	1370.2327	1398.0056	1477.4897	1481.3822	1488.4265	1496.5826	1507.9448	1524.5228	2353.0409	2964.2023	2992.1747	2996.0855	3054.1992	3075.289	3100.333	3114.0021	3132.8185	3185.2003	3202.5842
COC(CN1CC1)C#N	CO[C@@H](CN1CC1)C#N	
InChI=1S/C6H10N2O/c1-9-6(4-7)5-8-2-3-8/h6H,2-3,5H2,1H3	InChI=1S/C6H10N2O/c1-9-6(4-7)5-8-2-3-8/h6H,2-3,5H2,1H3/t6-/m1/s1
