13
gdb 132178	3.22877	1.40284	0.97794	5.5215	65.61	-0.2149	-0.0158	0.1991	1077.3183	0.090682	-494.070983	-494.063697	-494.062752	-494.102796	27.801	
O	-0.0742279509	 1.3101370828	 0.0100141829	-0.409879
C	 0.0349239249	-0.0288966281	 0.0026030061	 0.506818
N	 1.180166244	-0.6096539468	-0.0068193141	-0.435412
C	 1.2585609607	-2.0141265106	-0.0143877441	 0.248095
N	 2.3501092577	-2.6783788491	-0.0239093742	-0.536105
C	-0.0330511572	-2.7125317687	-0.0106591253	 0.213114
F	-0.025996521	-4.0387151573	-0.0174498463	-0.051543
C	-1.1956759597	-2.0447004588	-0.0007000324	-0.131178
N	-1.1713553772	-0.6542341926	 0.0062457635	-0.362968
H	 0.8319784018	 1.6487839128	 0.0066268816	 0.317206
H	 3.1323298703	-2.0207322177	-0.0249785084	 0.213942
H	-2.1617713488	-2.528055386	 0.0022901152	 0.147957
H	-2.0177477745	-0.1101128499	 0.0137685655	 0.279953
100.4961	193.0682	312.9324	327.2243	362.3066	404.5002	441.4813	468.1618	527.8437	533.6306	599.6755	732.3172	761.7662	773.0349	799.8733	854.4297	896.7086	990.338	1077.912	1191.9174	1239.2392	1272.6785	1304.5392	1383.1437	1422.5637	1575.0838	1672.4717	1698.0146	1736.2415	3244.1859	3463.8514	3662.612	3780.4063
OC1=NC(=N)C(F)=CN1	O[C@@H]1N=C([NH])C(=CN1)F	
InChI=1S/C4H4FN3O/c5-2-1-7-4(9)8-3(2)6/h1H,(H3,6,7,8,9)	InChI=1S/C4H5FN3O/c5-2-1-7-4(9)8-3(2)6/h1,4,6-7,9H/t4-/m0/s1
