13
gdb 133542	2.22028	1.61028	1.22305	3.9496	55.59	-0.3131	0.0108	0.3239	995.2938	0.085367	-547.118268	-547.110242	-547.109298	-547.151491	29.016	
F	 0.3643192287	 0.1261059631	 0.187711284	-0.082256
C	-0.0349041461	 1.399408466	 0.0448169087	 0.253525
F	 1.0456821187	 2.140396218	-0.2180846277	-0.063252
F	-0.8387771541	 1.4594472589	-1.021030271	-0.063241
C	-0.7420861659	 1.881948892	 1.2953184132	 0.013698
C	-1.5706484405	 0.8767770457	 2.0828947148	-0.292191
C	-0.2654832075	 1.3485636022	 2.6389968727	-0.2922
C	-1.2015340761	 3.2441219794	 1.2183220434	 0.234378
N	-1.5784609499	 4.3358635722	 1.1749971034	-0.325602
H	-2.4892166941	 1.2477860196	 2.5196773642	 0.154437
H	-1.6216427107	-0.1240131501	 1.6724868124	 0.154142
H	 0.5791716254	 0.6715559751	 2.6101428553	 0.15413
H	-0.272061148	 2.049218208	 3.4643663767	 0.154432
52.5106	138.419	185.8423	243.6879	248.9348	365.4971	408.841	442.4925	541.9643	544.2763	593.6583	618.8952	737.6202	785.1596	890.6026	920.7486	976.5046	987.6538	1080.2692	1108.1831	1159.5709	1192.6605	1202.9989	1219.9373	1316.7837	1363.5104	1461.8384	1493.2867	2363.1438	3158.9809	3160.5645	3247.0877	3259.6394
FC(F)(F)C1(CC1)C#N	FC(F)(F)C1(CC1)C#N	
InChI=1S/C5H4F3N/c6-5(7,8)4(3-9)1-2-4/h1-2H2	InChI=1S/C5H4F3N/c6-5(7,8)4(3-9)1-2-4/h1-2H2
