17
gdb 47585	2.57512	1.86646	1.20325	2.6508	69.78	-0.2351	0.0078	0.2429	1010.1592	0.138828	-455.12098	-455.113724	-455.11278	-455.152954	27.957	
N	-0.0837975035	 1.2793092636	 0.2469852103	-0.521802
C	 0.0028678331	 0.0501567518	-0.0336313732	 0.405622
O	 1.1996725803	-0.5743300065	-0.2444347845	-0.24154
C	 1.1656685205	-1.8052340608	-0.9689994676	 0.007037
O	 0.274761315	-2.7243941712	-0.4328712046	-0.234439
C	-1.065137503	-2.2777584544	-0.5716522287	 0.092653
C	-1.9024906012	-2.697347723	 0.6479356988	-0.189844
N	-1.6196330548	-1.3757811128	 1.2568677681	-0.306111
C	-1.2322541085	-0.8203663387	-0.065870838	-0.081771
H	 0.8469642736	 1.7021822921	 0.2804159586	 0.221042
H	 0.9275668637	-1.5861911389	-2.0234505952	 0.094642
H	 2.1689944017	-2.2244054567	-0.8874650855	 0.132733
H	-1.4451205831	-2.5123663052	-1.5722093777	 0.0808
H	-2.9536870626	-2.8730255652	 0.3813100424	 0.097105
H	-1.5199764528	-3.5523058102	 1.2129147289	 0.120581
H	-2.3971278163	-0.9056676989	 1.7051359294	 0.229383
H	-2.0327541721	-0.279936865	-0.5834106515	 0.09391
85.0798	145.21	239.2205	288.0192	365.2506	413.6983	480.2415	516.0643	651.6628	681.6224	762.6663	808.6623	839.4543	907.3428	919.3637	954.1231	992.8607	1011.3792	1020.3191	1052.6396	1102.7158	1114.8152	1141.9609	1155.6506	1208.6686	1231.301	1263.5691	1305.4818	1319.3738	1332.5572	1345.4001	1380.5087	1387.3781	1457.2665	1503.1514	1518.6906	1757.9419	2964.0506	3007.1949	3036.5127	3050.2663	3085.2038	3130.3203	3456.0968	3547.343
N=C1OCOC2CNC12	[NH][C]1OCO[C@H]2CN[C@@H]12	
InChI=1S/C5H8N2O2/c6-5-4-3(1-7-4)8-2-9-5/h3-4,6-7H,1-2H2	InChI=1S/C5H8N2O2/c6-5-4-3(1-7-4)8-2-9-5/h3-4,6-7H,1-2H2/t3-,4+/m0/s1
