19
gdb 32662	2.16355	1.60839	0.99825	2.508	78.15	-0.1963	0.0512	0.2475	1225.3417	0.160023	-419.244889	-419.235668	-419.234724	-419.279738	32.897	
C	 0.0041886748	 1.5462938433	 0.0229746251	-0.374696
C	 0.0668571078	 0.0174442551	-0.0017428247	-0.162131
N	 0.6915056192	-0.5063762393	-1.2067016641	-0.082284
C	 0.0729268095	-0.8673351192	-2.4001512416	-0.134821
C	 1.0785446148	-1.2391707463	-3.2418746339	-0.108331
N	 2.3115755025	-1.1171368709	-2.6213784238	-0.380939
C	 2.025486755	-0.6760301669	-1.4239300027	 0.484336
O	 2.8774641451	-0.3845830758	-0.4287217137	-0.277416
C	 4.2514363768	-0.6291882079	-0.7311394113	-0.234289
H	 1.0112390741	 1.970051522	-0.0168238479	 0.13835
H	-0.5649946191	 1.9282978306	-0.8294970649	 0.128111
H	-0.4786960307	 1.8905402489	 0.9428298275	 0.119081
H	 0.636872226	-0.3516205655	 0.8551513381	 0.134283
H	-0.9373349451	-0.4121324233	 0.063065266	 0.118627
H	-0.9984002261	-0.8301576928	-2.5078190614	 0.12081
H	 1.0000896234	-1.5940778041	-4.2578329277	 0.104257
H	 4.8074618086	-0.3475910411	 0.1638893525	 0.126927
H	 4.4141307592	-1.68500048	-0.9667521184	 0.139458
H	 4.5719967743	-0.0280224369	-1.5868413529	 0.140667
43.7045	90.0487	128.1742	151.4179	191.6106	248.2646	300.8916	323.8736	407.8726	540.5397	626.5987	638.4894	683.3569	741.1226	761.2921	794.1965	827.4698	928.1856	967.1938	1057.3075	1088.7358	1104.0091	1110.7526	1170.1156	1184.4789	1214.6717	1241.4317	1292.3766	1312.1083	1388.1764	1400.4341	1409.6805	1456.8354	1476.4108	1478.4241	1491.6017	1500.9058	1505.7643	1530.5625	1552.209	1600.7022	3041.9194	3043.0961	3058.7276	3100.053	3112.9644	3117.5035	3130.0427	3149.4827	3249.0987	3276.9178
CCN1C=CN=C1OC	CCn1ccnc1OC	
InChI=1S/C6H10N2O/c1-3-8-5-4-7-6(8)9-2/h4-5H,3H2,1-2H3	InChI=1S/C6H10N2O/c1-3-8-5-4-7-6(8)9-2/h4-5H,3H2,1-2H3
