20
gdb 104347	2.55682	1.42784	1.3566	2.4445	75.5	-0.2461	0.0306	0.2767	1092.228	0.170711	-440.303914	-440.294932	-440.293988	-440.337332	33.854	
C	 0.0808744614	 1.3922315593	-0.0889799055	-0.253324
O	-0.0036681296	-0.0219513849	-0.0075944687	-0.268049
C	-1.2900515673	-0.5894667825	 0.0072580735	 0.461651
C	-2.1297323135	-0.2188775931	-1.2099735371	-0.445246
C	-1.0701054614	-2.0949678113	 0.1648348566	-0.259207
C	-0.4127579366	-2.3706232792	 1.5186023638	-0.159631
N	-1.0912953138	-1.7001305293	 2.6232748411	-0.261045
C	-1.7926695694	-0.6885375219	 2.3492287387	 0.119903
O	-2.0267668451	-0.0913719336	 1.1456745283	-0.262809
H	 1.1262875129	 1.6460284293	 0.0986552218	 0.130674
H	-0.1968709351	 1.7655542586	-1.0831238949	 0.112507
H	-0.5475186502	 1.8780638543	 0.6651733482	 0.127441
H	-1.5835655931	-0.4639553446	-2.1246280911	 0.127361
H	-3.0702264212	-0.7741473543	-1.1977463326	 0.129136
H	-2.3689382225	 0.8468418294	-1.2106642326	 0.129847
H	-2.0423020964	-2.5955739661	 0.1071680804	 0.108179
H	-0.4517934318	-2.4558609999	-0.6615740294	 0.110719
H	-0.3992417456	-3.4453677136	 1.7268266308	 0.106358
H	 0.6312193074	-2.0366743721	 1.5017045021	 0.126682
H	-2.3377905891	-0.1572487145	 3.1277712564	 0.118852
93.7858	119.9893	178.8048	190.5202	232.3779	281.5421	319.1517	362.4895	407.8493	478.5032	515.7825	554.4905	611.3904	721.6471	780.2646	845.4571	885.9891	915.6917	960.0547	978.1826	1021.9199	1034.5165	1095.3108	1120.4358	1155.8319	1179.9602	1186.527	1210.268	1254.7918	1260.1922	1279.1416	1365.5701	1385.8722	1406.2249	1413.6847	1470.0688	1472.7436	1483.5111	1486.1584	1488.4087	1504.1415	1511.8923	1740.7404	3013.6509	3039.8693	3049.828	3056.6906	3074.554	3081.4171	3104.9753	3126.1972	3134.4598	3136.189	3153.7797
COC1(C)CCN=CO1	CO[C@@]1(C)CCN=CO1	
InChI=1S/C6H11NO2/c1-6(8-2)3-4-7-5-9-6/h5H,3-4H2,1-2H3	InChI=1S/C6H11NO2/c1-6(8-2)3-4-7-5-9-6/h5H,3-4H2,1-2H3/t6-/m1/s1
