20
gdb 105428	2.33862	1.3876	1.16737	3.9637	83.23	-0.2552	0.0094	0.2646	1176.9549	0.171423	-366.047915	-366.038935	-366.037991	-366.081725	33.744	
C	 0.0540089646	 1.5491189849	-0.0035580245	-0.401043
C	-0.0350969972	 0.0216190126	 0.0166192403	-0.232882
C	-1.4747874755	-0.5449984743	-0.0059208651	 0.14113
C	-2.2705122096	-0.1853708769	-1.3108794058	-0.294968
C	-3.0101818565	-1.4563398746	-1.6429564393	-0.058747
C	-2.5951034482	-2.490779351	-0.9170154398	-0.056
C	-1.4972065459	-2.1141879187	 0.043972595	-0.307208
C	-2.2155777499	-0.0340193945	 1.156324405	 0.279327
N	-2.7851831562	 0.3735775528	 2.076627286	-0.360872
H	 1.0992423165	 1.8707796161	 0.0157201795	 0.119509
H	-0.4053821063	 1.9688450928	-0.904349507	 0.121189
H	-0.4489319832	 1.9856615269	 0.8644931065	 0.145847
H	 0.4861062279	-0.3978491662	-0.8522661229	 0.1042
H	 0.476406046	-0.3658023468	 0.9053197106	 0.11438
H	-2.9317677252	 0.6739487313	-1.1653632583	 0.128636
H	-1.5741248459	 0.0883227419	-2.1151361753	 0.113116
H	-3.7683848906	-1.4952141759	-2.4165923137	 0.101848
H	-2.9612560397	-3.507216389	-1.0043032517	 0.102141
H	-0.5279040532	-2.516171085	-0.2813209652	 0.111945
H	-1.6631700019	-2.4852177564	 1.0600737956	 0.128453
64.6059	113.3828	158.0998	190.9472	212.5487	263.8445	374.4133	384.8206	394.2527	491.3354	587.9244	626.0832	685.4349	758.2484	785.1633	797.5309	883.4812	943.0409	961.0206	969.7343	980.1515	988.2904	1027.232	1042.6033	1104.8101	1131.0933	1134.5824	1164.2532	1184.9069	1262.8182	1301.3078	1325.2156	1340.5338	1355.8427	1371.5046	1417.5649	1480.0994	1485.6049	1492.9842	1500.0692	1506.9177	1695.7189	2346.8904	3015.6107	3016.4683	3031.3211	3041.2656	3068.0784	3075.4643	3079.2439	3109.7513	3117.2233	3189.9677	3214.4838
CCC1(CC=CC1)C#N	CC[C@]1(CC=CC1)C#N	
InChI=1S/C8H11N/c1-2-8(7-9)5-3-4-6-8/h3-4H,2,5-6H2,1H3	InChI=1S/C8H11N/c1-2-8(7-9)5-3-4-6-8/h3-4H,2,5-6H2,1H3
