15
gdb 99472	2.16261	1.25196	0.91798	1.0686	69.19	-0.2579	-0.1079	0.15	1254.1612	0.108316	-457.731697	-457.721908	-457.720964	-457.767592	33.587	
O	 0.3452207193	 1.0470267783	 0.0232757717	-0.407593
C	 0.0787207721	-0.3288469522	-0.0129741206	-0.066035
C	-1.4634021835	-0.6166870284	-0.0151095856	-0.318585
C	-2.082525962	 0.0275963163	-1.1628654658	 0.314956
C	-2.5377754566	 0.5981580991	-2.1178506363	-0.430117
C	-1.6824906922	-2.1246105305	 0.0055382506	 0.284809
O	-1.8600489096	-2.8180939334	-0.9649839876	-0.264076
C	-1.6214207892	-2.8033241632	 1.3827285482	 0.088686
O	-1.438065918	-2.2080216802	 2.4112359667	-0.214918
H	-0.0631301736	 1.4409319127	-0.7577039795	 0.291583
H	 0.5213473444	-0.8186361915	-0.8924538895	 0.112321
H	 0.5174772323	-0.7589004513	 0.890939076	 0.133797
H	-1.8522584231	-0.2019616062	 0.9214835407	 0.146646
H	-2.9716935922	 1.0847864015	-2.9566663668	 0.208181
H	-1.765972938	-3.9018965311	 1.3227208878	 0.120345
29.5678	102.7533	121.1937	128.6787	166.248	185.7653	238.3393	357.2781	402.599	424.0322	515.1746	537.6579	593.0708	637.8724	640.77	667.0437	829.4449	891.2227	967.3414	1043.3132	1053.9843	1098.0455	1148.5895	1204.2178	1271.3471	1358.9115	1363.3916	1381.6851	1428.5518	1506.3679	1806.9885	1822.2152	2237.5138	2935.5007	3000.8569	3062.1096	3105.5039	3500.7382	3779.4471
OCC(C#C)C(=O)C=O	OC[C@@H](C#C)C(=O)C=O	
InChI=1S/C6H6O3/c1-2-5(3-7)6(9)4-8/h1,4-5,7H,3H2	InChI=1S/C6H6O3/c1-2-5(3-7)6(9)4-8/h1,4-5,7H,3H2/t5-/m1/s1
