15
gdb 55243	3.22026	1.29849	1.05285	1.2212	61.1	-0.2581	0.0134	0.2715	1099.1774	0.114419	-491.168666	-491.160593	-491.159648	-491.201999	29.566	
N	 0.5422681897	-0.1323216371	 0.7372590164	-0.517688
C	-0.1751337791	 0.2933061324	-0.3268894866	 0.371537
O	 0.1684723163	 1.1668013678	-1.0998397811	-0.364388
C	-1.5467126633	-0.3883263501	-0.4914000725	 0.008029
C	-1.7869776779	-0.845728316	-1.9437787622	-0.194838
N	-1.4440186649	-2.2490664963	-1.8129922728	-0.36278
C	-1.5235114319	-2.6895905346	-0.5174961505	 0.476955
O	-1.4784473277	-3.8086479616	-0.0939203285	-0.384953
O	-1.6539099043	-1.5804923842	 0.2981644884	-0.262405
H	 1.4517374264	 0.2659100423	 0.9019452992	 0.269273
H	 0.2158386797	-0.9010172579	 1.298584968	 0.284119
H	-2.3076774456	 0.3176572797	-0.1501216353	 0.134646
H	-2.8299990688	-0.6969188521	-2.250443988	 0.116524
H	-1.1303163578	-0.3043356283	-2.6270648232	 0.156672
H	-1.575182671	-2.9196354739	-2.5515093812	 0.269296
64.7753	81.6449	151.7642	264.9958	335.0314	350.8693	423.8803	485.0495	505.4546	538.3092	608.3464	700.3205	741.1826	768.859	780.1979	853.5496	916.948	1002.4369	1036.8402	1084.9901	1090.5601	1110.2974	1207.5876	1229.8098	1279.5157	1332.0557	1375.4679	1384.5877	1434.1262	1539.0696	1603.0696	1804.2345	1902.6822	3021.9013	3090.2848	3116.7812	3600.1408	3669.2291	3737.1792
NC(=O)C1CNC(=O)O1	NC(=O)[C@H]1CNC(=O)O1	
InChI=1S/C4H6N2O3/c5-3(7)2-1-6-4(8)9-2/h2H,1H2,(H2,5,7)(H,6,8)	InChI=1S/C4H6N2O3/c5-3(7)2-1-6-4(8)9-2/h2H,1H2,(H2,5,7)(H,6,8)/t2-/m1/s1
