21
gdb 74808	3.42829	1.25921	1.07778	0.9333	85.71	-0.2127	0.0214	0.2341	1218.3334	0.18225	-387.091787	-387.083045	-387.082101	-387.124556	34.447	
C	-0.0103291375	 1.5085149184	-0.033580852	-0.477956
C	-0.0226327444	 0.0092364251	 0.0384308671	 0.262691
C	-1.1206928379	-0.737516797	-0.106464198	-0.138546
C	-1.0717006794	-2.216438936	-0.066879465	-0.140275
C	-0.1137340576	-2.944248174	-1.0254495908	-0.359785
C	 0.2211439913	-2.817134798	 0.4334916698	 0.438469
C	 0.2044367443	-4.0362868963	 1.3195872323	-0.446001
O	 1.2190868454	-1.9419842329	 0.8871441458	-0.298093
C	 1.3087546482	-0.6656186303	 0.2724632937	-0.17269
H	 0.6699516121	 1.8683187866	-0.8174947283	 0.122135
H	-1.0064155985	 1.9054577187	-0.2473365451	 0.122575
H	 0.3405242311	 1.9508044245	 0.9080635519	 0.124629
H	-2.0869758116	-0.2636236202	-0.2613864778	 0.081123
H	-1.9980037023	-2.7250687254	 0.1807007574	 0.083155
H	-0.4033969487	-3.9220254581	-1.3960734803	 0.110439
H	 0.4036868075	-2.3251845204	-1.7496144639	 0.117183
H	-0.5864769277	-4.7265795492	 1.0148349377	 0.113314
H	 1.1630003882	-4.562717265	 1.2660064209	 0.123853
H	 0.0331373346	-3.746709009	 2.3609650652	 0.125356
H	 1.8751471517	-0.7324096065	-0.6738306528	 0.097814
H	 1.9219876411	-0.0639625048	 0.9538322621	 0.110608
111.9689	172.0455	196.8524	217.0201	263.2528	298.8042	357.5778	371.7302	425.2877	451.0474	512.03	589.0628	660.3265	707.8822	808.556	847.0429	849.6143	893.6286	917.4152	934.9157	993.1524	1009.1173	1034.2705	1041.7051	1085.5858	1094.6411	1113.5955	1120.8688	1125.8228	1206.6846	1254.6116	1272.8011	1289.9092	1364.4274	1397.5568	1413.3705	1415.3506	1429.5672	1476.3302	1478.2758	1480.4524	1491.818	1504.2882	1506.2913	1734.2908	2937.378	3009.4109	3038.1614	3048.3534	3053.3539	3104.5628	3109.0152	3120.5546	3131.1255	3146.0727	3159.3387	3220.2174
CC1=CC2CC2(C)OC1	CC1=C[C@H]2C[C@@]2(C)OC1	
InChI=1S/C8H12O/c1-6-3-7-4-8(7,2)9-5-6/h3,7H,4-5H2,1-2H3	InChI=1S/C8H12O/c1-6-3-7-4-8(7,2)9-5-6/h3,7H,4-5H2,1-2H3/t7-,8+/m0/s1
