23
gdb 122148	2.6201	0.70962	0.60353	1.0065	79.18	-0.2503	0.0728	0.3232	1894.0608	0.203269	-462.54269	-462.531217	-462.530272	-462.580458	39.949	
C	-0.1229407625	 1.3305621652	 0.0570021503	-0.240749
O	 0.0126780156	-0.0756687476	 0.0540068628	-0.25568
C	 0.6933560156	-0.6167366976	 1.1918619578	 0.080544
C	-0.3310825647	-0.8296991109	 2.3148672356	-0.067572
O	-1.413254652	-1.624849771	 1.8713276247	-0.421546
C	 1.3583415314	-1.921623986	 0.7523150708	-0.190786
C	 2.3866692107	-1.7341215448	-0.3651173148	-0.17112
C	 3.019280226	-3.0470507887	-0.8055404344	-0.075169
O	 3.9569599347	-2.759175806	-1.8327048401	-0.422187
H	 0.8584336562	 1.826595849	 0.0763490084	 0.113794
H	-0.6386908447	 1.6050148329	-0.8665814433	 0.130638
H	-0.7127183063	 1.6984150421	 0.9088892622	 0.110974
H	 1.4639711819	 0.0944239961	 1.5311455839	 0.064371
H	 0.1348263863	-1.3496182893	 3.1590073398	 0.104956
H	-0.6817594807	 0.1470573781	 2.6868710509	 0.082326
H	-1.6470846699	-1.273440207	 1.002385044	 0.286185
H	 1.8351845735	-2.3692490868	 1.6340078822	 0.093657
H	 0.5705992053	-2.6163072702	 0.4397432387	 0.112244
H	 1.9098436831	-1.2628886483	-1.2296258071	 0.119662
H	 3.1866502758	-1.0584012147	-0.0361850373	 0.096112
H	 3.5091850896	-3.5337640214	 0.05452684	 0.080171
H	 2.2350113108	-3.7349802808	-1.162317353	 0.085005
H	 4.3493947942	-3.5879696523	-2.1216772122	 0.284168
66.1281	70.5385	75.6587	96.8282	144.0786	150.0845	197.9928	254.0197	265.0074	287.0039	323.7438	335.723	464.9995	476.7352	521.0387	680.4319	755.6777	822.3214	887.2888	916.5887	972.7723	1019.5167	1055.166	1073.3582	1090.7816	1106.5674	1128.0548	1156.3436	1185.3699	1204.8996	1224.5077	1232.5443	1241.3768	1285.5772	1306.4302	1316.5019	1335.3768	1373.5807	1382.6148	1412.223	1432.7183	1463.0146	1480.385	1483.6943	1488.5595	1504.3242	1509.3276	1515.9397	1529.9996	2955.2375	2963.9142	2977.1074	2980.5643	2990.6296	3026.9488	3032.462	3038.0578	3069.1509	3073.9122	3099.5097	3114.2401	3768.8247	3830.8152
COC(CO)CCCO	CO[C@@H](CO)CCCO	
InChI=1S/C6H14O3/c1-9-6(5-8)3-2-4-7/h6-8H,2-5H2,1H3	InChI=1S/C6H14O3/c1-9-6(5-8)3-2-4-7/h6-8H,2-5H2,1H3/t6-/m1/s1
