18
gdb 80638	2.83252	1.56853	1.27225	3.8744	75.39	-0.2809	0.0259	0.3068	1021.8555	0.14983	-401.952354	-401.944752	-401.943808	-401.984318	29.972	
O	-0.139728415	 1.4100062275	 0.048635701	-0.423852
C	-0.0439320706	 0.0091342092	-0.0119090758	 0.124493
C	-1.4439587365	-0.5902317961	-0.2033848435	-0.02236
C	-1.1264599708	-2.029712097	-0.6956838914	-0.247313
C	-0.5962558966	-1.2734333307	-1.9477694859	-0.022687
C	-1.7380328287	-0.2505096969	-1.6932112405	-0.228666
C	 0.6389972312	-0.563842702	-1.3344017921	-0.20218
C	 1.2396416184	 0.476675754	-2.1551922965	 0.266825
N	 1.7371004824	 1.316216785	-2.7760977305	-0.335932
H	 0.7360052105	 1.7976247436	-0.0581437699	 0.296551
H	 0.463826208	-0.3915513597	 0.8761222853	 0.076436
H	-2.1566562449	-0.3871509356	 0.5946246594	 0.078661
H	-0.4224338301	-2.6389093976	-0.119395297	 0.094055
H	-2.0298422852	-2.6034686487	-0.9095940814	 0.110184
H	-0.446166042	-1.7608593219	-2.9103646203	 0.082657
H	-2.7064757354	-0.6322793917	-2.0216838627	 0.104631
H	-1.5992709528	 0.781428342	-2.0181937312	 0.127966
H	 1.4214710679	-1.2885701135	-1.087008627	 0.120532
111.7393	138.2059	225.6862	274.9703	340.532	399.3499	463.1232	474.8913	539.7853	591.3322	749.1764	788.1803	818.4478	844.2292	859.1137	888.8753	935.8047	959.5546	1004.4546	1032.0651	1048.9756	1064.5852	1083.626	1105.3503	1109.564	1139.1096	1195.0564	1221.7235	1238.1852	1256.8598	1270.5766	1291.3521	1314.5991	1337.951	1351.2753	1419.7262	1486.5919	1519.3946	2350.2816	3004.1087	3049.614	3059.6438	3080.441	3121.6591	3125.3066	3131.7716	3143.9552	3806.9166
OC1C2CC(C2)C1C#N	O[C@H]1[C@@H]2C[C@@H](C2)[C@H]1C#N	
InChI=1S/C7H9NO/c8-3-6-4-1-5(2-4)7(6)9/h4-7,9H,1-2H2	InChI=1S/C7H9NO/c8-3-6-4-1-5(2-4)7(6)9/h4-7,9H,1-2H2/t4-,5+,6-,7+/m1/s1
