12
gdb 131120	3.32383	1.20902	0.97811	2.1413	59.6	-0.3265	-0.0723	0.2542	1118.5913	0.077186	-468.755719	-468.748037	-468.747093	-468.789125	26.673	
O	 0.1222526265	 1.48912033	-0.0723126912	-0.387636
C	 0.0135036189	 0.0953170048	-0.0014758423	-0.10805
C	 0.5777325889	-0.5733639779	-1.2023042305	 0.258674
N	 1.0148445598	-1.096182277	-2.1347499737	-0.303361
C	 0.6547917419	-0.4855337874	 1.2384762393	 0.323912
N	 1.3919089856	 0.2587280825	 2.0141984757	-0.146757
O	 1.8228757914	-0.5569290859	 3.0166084081	-0.142099
N	 1.3462776002	-1.8264516849	 2.8618924147	-0.043452
C	 0.628993405	-1.8043817056	 1.7736484352	-0.103178
H	 1.0040970969	 1.7429543533	 0.2298085507	 0.314764
H	-1.059984932	-0.1316422104	 0.0156719916	 0.166537
H	 0.1352819569	-2.6923454715	 1.4108653424	 0.170645
39.1531	106.7662	191.9031	219.1144	293.6054	342.1181	421.4108	480.3379	601.568	650.4685	682.6804	809.5634	896.9296	901.1534	930.7586	947.8291	1028.0492	1076.4222	1100.1594	1191.2079	1267.3576	1322.0075	1408.9552	1436.6847	1464.8197	1610.0339	2359.6061	3043.2926	3273.6575	3783.0456
OC(C#N)C1=NON=C1	O[C@@H](C#N)c1nonc1	
InChI=1S/C4H3N3O2/c5-1-4(8)3-2-6-9-7-3/h2,4,8H	InChI=1S/C4H3N3O2/c5-1-4(8)3-2-6-9-7-3/h2,4,8H/t4-/m0/s1
