19
gdb 37033	2.89681	1.72439	1.39332	2.1997	79.7	-0.2272	0.006	0.2333	995.6181	0.160875	-385.866105	-385.858719	-385.857774	-385.898054	29.766	
C	-0.0107001124	 1.5916023612	 0.302451417	-0.294152
C	 1.5640816167	 1.6053648472	 0.3259546798	-0.296143
C	 1.5261169755	 0.1642003172	-0.2135953373	 0.330124
O	 0.7872796616	-0.6126006481	 0.7592267134	-0.320167
C	 0.0608964845	 0.1454811009	-0.221326861	 0.326963
C	-0.731591988	-0.6291873677	-1.2430788985	-0.322076
C	 0.1247254042	-0.9345364141	-2.5056298226	-0.2689
C	 1.6188731141	-1.0648401069	-2.2838114076	-0.039805
C	 2.2891099314	-0.5525690781	-1.2466805217	-0.185934
H	-0.5253329771	 1.7195477118	 1.2579104345	 0.10736
H	-0.4186572395	 2.2953382461	-0.428078229	 0.102614
H	 1.9873147474	 2.3239694009	-0.3797180386	 0.107272
H	 2.0431463287	 1.7235253625	 1.3004434711	 0.108435
H	-1.0620846329	-1.5670022632	-0.7866665061	 0.124298
H	-1.6331860352	-0.0804959477	-1.5329385289	 0.104153
H	-0.2463609304	-1.8501604422	-2.9793334969	 0.112138
H	-0.0299629445	-0.1455351628	-3.2568545177	 0.116629
H	 2.163826758	-1.5959641209	-3.0612058475	 0.094839
H	 3.3659335979	-0.664802006	-1.1587371426	 0.092352
56.5045	188.206	245.6804	308.6479	400.4445	470.0184	510.5422	526.1535	562.3327	686.1544	716.9313	749.1191	767.8903	790.1919	842.9067	872.8537	898.329	926.2836	973.3129	1001.6489	1005.6462	1050.5659	1058.726	1121.76	1156.6903	1185.7896	1212.6785	1213.0093	1219.5092	1236.9736	1271.6598	1296.9228	1338.3967	1381.0108	1414.997	1460.3995	1462.731	1470.3481	1482.4916	1504.9942	1692.3049	2998.3347	3047.476	3057.7588	3059.4637	3068.5247	3093.327	3110.3112	3128.8742	3147.4464	3172.5907
C1CC23OC12CCC=C3	C1C[C@@]23O[C@@]12CCC=C3	
InChI=1S/C8H10O/c1-2-4-8-6-5-7(8,3-1)9-8/h1,3H,2,4-6H2	InChI=1S/C8H10O/c1-2-4-8-6-5-7(8,3-1)9-8/h1,3H,2,4-6H2/t7-,8+/m1/s1
