17
gdb 107030	3.03598	1.29419	1.08105	2.5809	63.65	-0.2565	0.057	0.3135	1124.7398	0.134397	-496.043976	-496.035187	-496.034242	-496.077806	32.638	
O	-0.0455966246	 1.4554978912	 0.3000783627	-0.405744
C	-0.0013951134	 0.0561514809	 0.0912300551	-0.18412
C	-1.3518286206	-0.5182636065	-0.1967021993	 0.366084
O	-2.2126325623	-0.7654262398	 0.9457539785	-0.311269
C	-1.9163624431	-1.8602279504	 0.0644133429	-0.103658
C	-2.9432746119	-1.7140257253	-1.0686282609	 0.070211
O	-4.2823691537	-1.6061040511	-0.6482331419	-0.439928
C	-2.2747727675	-0.3222003366	-1.4163122009	 0.046723
O	-3.1382427661	 0.7703962429	-1.4392340967	-0.433923
H	-0.6922945672	 1.6259123454	 0.9935462065	 0.295784
H	 0.654897606	-0.1003387305	-0.7718392327	 0.118652
H	 0.4357426731	-0.4773482309	 0.9495772284	 0.099242
H	-1.4727527773	-2.7472492045	 0.5025714642	 0.113293
H	-2.8910223971	-2.4565657936	-1.8657866948	 0.098775
H	-4.2414080646	-1.2238252068	 0.240750065	 0.299029
H	-1.6900197442	-0.3759382554	-2.3439048498	 0.083543
H	-4.0190723155	 0.4091271013	-1.2616003862	 0.287305
54.5803	102.7667	158.5041	242.7924	258.8169	312.2219	329.7951	368.4016	376.5828	507.9835	606.2901	645.5903	667.3976	720.2938	772.0447	823.0106	882.9927	898.4697	970.3873	991.5339	1018.8965	1085.3339	1100.3341	1142.1737	1155.1725	1186.8396	1227.2673	1246.0531	1267.5585	1300.1281	1337.1707	1381.0387	1402.4509	1414.2087	1436.2312	1464.4822	1487.5195	2987.3197	3025.2139	3072.7649	3112.8221	3185.3202	3717.5124	3737.8704	3811.1927
OCC12OC1C(O)C2O	OC[C@]12O[C@H]1[C@@H](O)[C@H]2O	
InChI=1S/C5H8O4/c6-1-5-3(8)2(7)4(5)9-5/h2-4,6-8H,1H2	InChI=1S/C5H8O4/c6-1-5-3(8)2(7)4(5)9-5/h2-4,6-8H,1H2/t2-,3+,4-,5+/m0/s1
