18
gdb 35037	3.13666	1.42997	1.39096	4.7032	75.2	-0.2314	0.0352	0.2667	1001.4794	0.152495	-398.132871	-398.125694	-398.124749	-398.164392	28.593	
N	-0.0603925354	-1.1550633469	-0.1302825867	-0.33816
C	 0.0074231793	-0.0033913183	-0.0526378456	 0.289316
C	 0.0298603459	 1.4472335734	 0.0394934052	-0.159861
C	-0.320065088	 2.0665666843	 1.436380605	-0.027381
C	 0.8492371597	 1.5528237116	 2.2899784305	-0.16235
N	 1.976340598	 1.5352543958	 1.3122001565	-0.291598
C	 1.4324872593	 2.1031908227	 0.0703134334	-0.007203
C	 1.0388777355	 3.5866041598	 0.2669619588	-0.190704
N	-0.1065114502	 3.5073042502	 1.2207755732	-0.291407
H	-0.6049294332	 1.8661380428	-0.746127872	 0.112591
H	-1.3122044489	 1.8530662793	 1.8318337602	 0.088107
H	 1.0229564534	 2.2307667588	 3.1302085339	 0.111773
H	 0.6655159743	 0.5450064926	 2.6782943044	 0.122646
H	 2.7699769546	 2.0707563094	 1.6434412613	 0.223505
H	 2.0791826565	 1.908506907	-0.7860613409	 0.09071
H	 1.8725677276	 4.1543557732	 0.6963584192	 0.104378
H	 0.7570012812	 4.0724096693	-0.67567199	 0.100941
H	-0.9338534097	 3.9191337949	 0.8049312535	 0.224695
139.9662	152.0039	188.699	357.2787	396.9888	414.8136	515.4455	526.5546	593.9417	731.5178	781.6024	793.201	822.4635	865.4877	880.1791	937.0906	945.6195	966.8556	997.3986	1020.1555	1042.0145	1073.0905	1092.0547	1101.8638	1161.0844	1192.4242	1205.3449	1247.1682	1264.7158	1276.3832	1308.8032	1338.3564	1371.7413	1378.142	1423.6671	1443.9139	1512.0434	1514.7332	2354.3385	3017.1105	3038.1605	3054.9047	3078.5774	3089.726	3113.983	3132.9345	3536.2874	3546.6099
N#CC1C2CNC1CN2	N#C[C@H]1[C@H]2CN[C@@H]1CN2	
InChI=1S/C6H9N3/c7-1-4-5-2-8-6(4)3-9-5/h4-6,8-9H,2-3H2	InChI=1S/C6H9N3/c7-1-4-5-2-8-6(4)3-9-5/h4-6,8-9H,2-3H2/t5-,6-/m1/s1
