13
gdb 48909	4.21177	1.28428	1.1456	2.2497	63.31	-0.247	-0.057	0.19	1012.4586	0.087232	-456.508937	-456.501852	-456.500908	-456.540823	26.26	
O	-0.2561700237	 0.4310094725	-0.638293874	-0.254759
C	 0.1768421766	 1.1341394719	 0.2397269265	 0.062396
C	 1.4245253515	 1.91711704	 0.1133125804	 0.375488
O	 1.8848259548	 2.7508006586	 1.1779365952	-0.322771
C	 2.7640631597	 3.3761050761	 0.1996337134	-0.095502
C	 1.9135149264	 2.7939258974	-0.9889129901	-0.166085
C	 2.6331037866	 1.4494127194	-0.7274862075	-0.293257
C	 3.7710538101	 2.2375951665	-0.1389091194	 0.49089
O	 4.9605730301	 2.1413402255	-0.1405951889	-0.317005
H	-0.3320954647	 1.2642242193	 1.2181503643	 0.107671
H	 3.0381720069	 4.4037933301	 0.4186459208	 0.119938
H	 1.4718782046	 3.1826213695	-1.8938980258	 0.147504
H	 2.6049613511	 0.5446959431	-1.316864905	 0.145492
106.4237	137.4129	167.3671	242.0956	433.1377	462.5143	520.3423	614.5887	698.7848	742.6638	758.1678	796.1821	813.6935	878.5495	913.6305	935.9618	993.3445	1008.9558	1042.7341	1063.0243	1093.6351	1115.8085	1179.8892	1212.804	1257.4821	1380.6254	1418.8682	1816.3804	1903.4144	2918.3003	3179.9081	3238.3202	3245.4651
O=CC12OC3C1C2C3=O	O=C[C@]12O[C@@H]3[C@H]1[C@H]2C3=O	
InChI=1S/C6H4O3/c7-1-6-2-3(6)5(9-6)4(2)8/h1-3,5H	InChI=1S/C6H4O3/c7-1-6-2-3(6)5(9-6)4(2)8/h1-3,5H/t2-,3+,5+,6+/m0/s1
