19
gdb 38839	2.65691	1.96604	1.68012	1.5386	72.32	-0.2515	0.0744	0.3259	900.9472	0.16327	-423.023998	-423.017392	-423.016448	-423.054765	27.627	
C	-0.0076343497	 1.5097068903	-0.2520123582	-0.295943
C	 1.2983844224	 0.7848704089	-0.0464704594	-0.020436
C	 2.1122773642	 0.8321066376	 1.2448916468	-0.247537
C	 1.405753858	 0.1441257001	 2.4350613291	 0.054315
C	 0.2110043063	 0.9219987994	 3.0133509549	-0.099552
O	-0.8908808967	 0.4816992249	 2.2188183005	-0.269186
C	-0.3923479628	-0.5304950757	 1.3459660539	 0.17579
O	 0.7556280341	-1.050288268	 1.9929403801	-0.247796
C	-0.0085575627	 0.0201413493	-0.0273430268	-0.04832
H	-0.4098387141	 2.1209695362	 0.546720913	 0.127559
H	-0.2224339768	 1.8731504919	-1.2511064532	 0.107836
H	 1.9049904523	 0.6676556724	-0.9387438016	 0.086497
H	 3.0500639556	 0.2942950264	 1.0705278395	 0.108514
H	 2.3858705538	 1.858635856	 1.5188940423	 0.100633
H	 2.130797579	-0.1322725594	 3.2030656338	 0.086756
H	 0.0324805323	 0.6559203883	 4.0620090141	 0.10675
H	 0.3239440015	 2.0088952581	 2.9352659351	 0.102231
H	-1.1349508582	-1.3290315485	 1.2763757829	 0.089073
H	-0.2391630184	-0.6351203084	-0.8605296066	 0.082817
129.5203	235.405	314.9028	372.5126	448.3405	474.7715	559.9059	655.8519	727.337	781.4076	800.7761	823.5476	843.3628	865.1132	909.2643	926.4887	955.2685	989.6983	1008.8179	1033.9995	1047.4756	1052.5769	1063.7484	1105.934	1125.3918	1141.3527	1171.0669	1213.9325	1216.927	1242.9959	1294.8957	1312.7078	1342.5015	1356.4775	1374.8489	1382.4763	1390.9889	1415.214	1480.7562	1495.2438	1523.9062	3024.378	3029.2363	3067.1108	3071.2612	3084.818	3097.7438	3139.6088	3150.0882	3164.9447	3230.2815
C1C2CC3COC(O3)C12	C1[C@H]2C[C@H]3CO[C@H](O3)[C@@H]12	
InChI=1S/C7H10O2/c1-4-2-6(4)7-8-3-5(1)9-7/h4-7H,1-3H2	InChI=1S/C7H10O2/c1-4-2-6(4)7-8-3-5(1)9-7/h4-7H,1-3H2/t4-,5+,6+,7-/m1/s1
