21
gdb 93494	2.69271	1.33968	1.06307	2.9446	78.6	-0.2303	-0.0198	0.2105	1206.2784	0.182102	-424.259039	-424.249933	-424.248989	-424.29265	34.726	
C	-0.166807927	 1.6017360866	 0.0184245377	-0.394642
C	-0.0064781727	 0.0754902554	-0.0057693195	-0.001654
C	 0.7645702985	-0.3849921356	-1.262967327	-0.332101
C	 2.2598726868	-0.1246658174	-1.1683923981	 0.378155
O	 2.9380828317	 0.2146285793	-2.1086619443	-0.300871
C	 2.871608326	-0.3978937915	 0.2066160537	-0.17484
O	 2.0605080651	 0.0384127034	 1.2799317921	-0.256854
C	 0.7292177387	-0.4726074124	 1.2357804421	 0.14196
C	 0.0799878258	-0.1294363256	 2.5690770098	-0.41524
H	 0.8015663601	 2.0963969514	 0.1411801852	 0.133364
H	-0.6108817865	 1.955379695	-0.9170886361	 0.116464
H	-0.8157116002	 1.9276307829	 0.8357217952	 0.118719
H	-1.0032499597	-0.3831763857	-0.0318741906	 0.075175
H	 0.6549791891	-1.4744522798	-1.3718188473	 0.120565
H	 0.3842520896	 0.0705841621	-2.1811221479	 0.120351
H	 3.0601060188	-1.4862196615	 0.2760741311	 0.104865
H	 3.8304628122	 0.118896195	 0.2816656774	 0.133211
H	 0.7764625101	-1.5729055313	 1.1394556239	 0.059358
H	 0.0981719699	 0.9486211784	 2.7464494932	 0.132738
H	-0.9593781739	-0.4706633806	 2.5903551153	 0.115427
H	 0.6219815779	-0.6142508979	 3.3849858241	 0.12585
77.5703	120.1929	198.1898	205.3947	253.9284	292.4847	306.6182	363.225	383.9493	444.2031	494.6877	511.2107	614.7619	692.1964	757.3691	809.7623	841.0217	871.5465	944.9975	968.7102	1010.1443	1030.672	1090.8011	1104.7611	1129.4819	1136.4519	1170.4108	1200.759	1250.0837	1268.0384	1284.2922	1341.1818	1351.6342	1366.4156	1385.2281	1396.151	1415.2403	1417.968	1458.8103	1467.1743	1483.75	1494.8403	1502.6296	1516.6081	1823.6061	2929.2555	2934.2303	3006.3058	3024.9417	3043.4504	3050.2704	3097.2359	3110.1059	3115.4851	3118.7574	3122.0951	3132.1143
CC1CC(=O)COC1C	C[C@H]1CC(=O)CO[C@H]1C	
InChI=1S/C7H12O2/c1-5-3-7(8)4-9-6(5)2/h5-6H,3-4H2,1-2H3	InChI=1S/C7H12O2/c1-5-3-7(8)4-9-6(5)2/h5-6H,3-4H2,1-2H3/t5-,6-/m0/s1
