15
gdb 66287	2.02603	1.71897	1.41654	2.8839	65.15	-0.255	-0.0643	0.1907	988.021	0.112773	-453.961755	-453.953548	-453.952603	-453.994637	30.317	
O	 0.2634562854	 1.4463158165	 0.3346410453	-0.451157
C	-0.0231154807	 0.1147462837	 0.0393088669	 0.170785
C	-1.516285668	-0.2043581587	-0.2260099282	-0.226403
N	-1.5166980391	-1.412580707	-1.0615225271	-0.299455
C	-0.3778441247	-1.298198773	-1.9780541847	-0.282018
C	 0.5801576919	-0.2929305965	-1.3430870138	 0.352323
O	 1.5547611561	 0.2362908661	-1.7987454572	-0.30327
C	 0.5075049838	-0.8156332884	 1.0581285117	 0.230934
N	 0.9124579948	-1.5694246895	 1.836404885	-0.326894
H	 1.0990877981	 1.6529625979	-0.1142320347	 0.30147
H	-2.0971976573	-0.3566965469	 0.683463658	 0.142102
H	-1.9396675933	 0.6442993236	-0.7759479687	 0.134599
H	-1.4073340014	-2.2298080249	-0.4716159313	 0.245888
H	 0.1129555352	-2.2575581406	-2.1625460311	 0.156517
H	-0.6858904109	-0.8990409224	-2.9538991401	 0.154581
84.7521	129.9652	156.7482	245.9231	269.1476	338.6107	412.6554	438.1725	499.2961	540.8293	580.9633	633.4738	662.315	708.4364	790.1722	870.035	915.764	985.8258	1047.4912	1062.9676	1096.6353	1107.6166	1192.5354	1219.9093	1280.0258	1307.4683	1347.7152	1392.3895	1457.3359	1473.0387	1493.8975	1865.2095	2338.0452	3026.1332	3048.8094	3100.985	3140.536	3542.6746	3697.064
OC1(CNCC1=O)C#N	O[C@]1(CNCC1=O)C#N	
InChI=1S/C5H6N2O2/c6-2-5(9)3-7-1-4(5)8/h7,9H,1,3H2	InChI=1S/C5H6N2O2/c6-2-5(9)3-7-1-4(5)8/h7,9H,1,3H2/t5-/m0/s1
