17
gdb 81975	2.6422	1.65678	1.30949	1.4817	62.3	-0.2614	0.0583	0.3197	983.244	0.1369	-496.080277	-496.072614	-496.07167	-496.112012	30.639	
O	 0.0786656138	 1.4134142243	 0.1089183417	-0.43834
C	 0.0197712191	 0.0114216771	 0.0344248187	 0.107131
C	-1.3820408746	-0.5778374668	-0.0869314904	 0.003485
O	-1.9070900959	-0.5106320196	-1.4327275766	-0.282848
C	-1.3333799343	-1.7532651225	-0.9657310642	 0.003492
C	 0.1014285386	-1.9610441715	-1.4402739658	 0.107112
O	 0.2374967783	-2.4239052592	-2.760064398	-0.438337
C	 0.7442724976	-0.5672428616	-1.2102158082	 0.005932
O	 0.522518887	 0.2720553502	-2.3451650345	-0.458173
H	 0.1979001849	 1.7245346996	-0.798903159	 0.289928
H	 0.4758182538	-0.3893010315	 0.949917032	 0.093376
H	-2.119811144	-0.4416890607	 0.6981719567	 0.112672
H	-2.0311682548	-2.5829332522	-0.9027141915	 0.112671
H	 0.571543443	-2.7011804648	-0.7785518268	 0.093377
H	 0.3369430654	-1.6353608064	-3.3109376193	 0.289925
H	 1.8262783289	-0.6189454345	-1.0811409672	 0.101594
H	-0.4452894369	 0.3048762102	-2.4428075476	 0.297003
150.5665	193.8174	257.7982	287.9878	298.4879	389.8116	431.8	475.1219	488.9156	518.116	576.9553	713.1036	794.2076	813.9218	851.414	859.8533	868.8524	907.8328	931.8712	1027.1434	1051.6295	1096.6205	1124.0363	1128.769	1142.4409	1216.9679	1229.6688	1257.181	1260.6941	1315.1247	1321.9406	1357.1953	1366.9155	1413.2864	1427.3579	1443.9121	1464.3881	3021.1271	3026.5988	3108.3108	3162.0367	3173.9392	3642.5676	3747.0059	3755.0006
OC1C2OC2C(O)C1O	O[C@H]1[C@H]2O[C@H]2[C@@H](O)[C@H]1O	
InChI=1S/C5H8O4/c6-1-2(7)4-5(9-4)3(1)8/h1-8H	InChI=1S/C5H8O4/c6-1-2(7)4-5(9-4)3(1)8/h1-8H/t1-,2+,3-,4+,5-
