18
gdb 114574	2.65219	1.25178	0.99696	4.1307	78.98	-0.2275	0.01	0.2375	1233.7269	0.148627	-398.086186	-398.077566	-398.076621	-398.119673	32.022	
C	 0.0859769603	 1.40017236	-0.2715315837	-0.318278
N	-0.1062165308	 0.0872257291	 0.3294370122	-0.286232
C	-1.3923116323	-0.4956877793	 0.0895981674	-0.014209
C	-1.827271818	-1.048430742	-1.3440603373	-0.250607
C	-1.9654468416	-2.4350765728	-0.721774055	-0.106926
N	-0.6423958772	-2.7798955348	-0.1740933324	-0.367101
C	-1.5612713485	-1.9248500476	 0.632441794	 0.232411
C	-2.0002031954	-2.3225906878	 1.9278860128	 0.170717
N	-2.3684355392	-2.634905325	 2.9802583672	-0.346531
H	 1.0966626982	 1.7546009783	-0.0516798822	 0.125877
H	-0.0557980649	 1.426689587	-1.365999661	 0.099373
H	-0.6192220532	 2.1124784832	 0.1716859372	 0.124713
H	 0.6121422108	-0.5611964193	 0.0246230882	 0.233778
H	-2.1716842659	 0.1641246494	 0.4819862227	 0.102795
H	-2.7740039107	-0.6264859957	-1.6859415771	 0.113251
H	-1.0775043561	-0.9772631826	-2.1351615386	 0.114292
H	-2.6922967665	-3.2052103843	-0.9461640538	 0.122224
H	-0.6894637691	-3.7233252557	 0.2103645795	 0.250454
85.4383	131.6429	154.0965	169.9741	206.47	288.9637	379.8022	420.4222	484.847	541.5761	575.5615	638.611	704.9626	770.3099	845.6978	861.1696	898.5005	939.0232	1002.2313	1005.8877	1041.3345	1059.5469	1100.9318	1148.2582	1159.7977	1163.429	1199.1322	1226.9093	1258.6978	1286.7686	1319.3321	1367.0395	1396.5636	1460.2242	1472.3407	1488.8433	1501.7473	1521.0025	2344.3703	2953.2745	3057.7204	3070.3902	3074.0477	3109.0102	3133.9806	3204.7576	3482.1099	3532.793
CNC1CC2NC12C#N	CN[C@H]1C[C@H]2N[C@@]12C#N	
InChI=1S/C6H9N3/c1-8-4-2-5-6(4,3-7)9-5/h4-5,8-9H,2H2,1H3	InChI=1S/C6H9N3/c1-8-4-2-5-6(4,3-7)9-5/h4-5,8-9H,2H2,1H3/t4-,5+,6-/m0/s1
