19
gdb 66634	3.33622	1.81684	1.66057	1.5234	76.86	-0.2426	0.0974	0.34	903.5361	0.162297	-385.874326	-385.867877	-385.866932	-385.904734	27.676	
C	-0.0073016761	 1.5159524578	-0.0312835611	-0.527024
C	-0.0094613289	 0.0175322681	-0.0043866381	 0.368803
C	 0.4997713711	-1.0243983767	-0.9731549323	-0.142931
C	 1.1416106425	-0.8806260971	 0.4038443181	-0.132419
C	 0.5299094427	-1.9838466618	 1.3173920381	 0.047073
C	 0.062130081	-3.0508422171	 0.3048727855	-0.21118
C	-0.6203363519	-2.0171157168	-0.6024751803	-0.08334
C	-1.1345632776	-0.9350134317	 0.4576570856	-0.006861
O	-0.7342973118	-1.4282811947	 1.7298895858	-0.253876
H	 0.9459941015	 1.9028054316	-0.4068498985	 0.118906
H	-0.8003192039	 1.9076723497	-0.6786424667	 0.117745
H	-0.16086742	 1.9266317305	 0.97314859	 0.128147
H	 1.0230236863	-0.9151721733	-1.9151293563	 0.08161
H	 2.1390870063	-0.4828569949	 0.5329027021	 0.084924
H	 1.1071649043	-2.2954790241	 2.1855581013	 0.072469
H	 0.8850611701	-3.5659584457	-0.1990667673	 0.094925
H	-0.6147671617	-3.7741368262	 0.7661952002	 0.100631
H	-1.3116510693	-2.354078814	-1.3713857027	 0.067792
H	-2.1738410147	-0.6126950138	 0.4644560467	 0.074606
198.5709	213.3861	256.4148	440.5568	520.5603	558.3435	603.4762	676.4319	757.7351	794.2627	809.1649	826.2182	842.1539	869.0826	882.7316	912.7339	919.725	945.4624	962.487	969.4008	990.0879	1028.8149	1031.4178	1045.5399	1108.0341	1124.8279	1154.2991	1176.0756	1195.0465	1217.434	1233.4565	1246.5434	1271.0186	1284.6394	1308.2088	1332.5954	1410.8756	1447.0668	1478.5282	1487.7571	1498.1156	3023.0525	3059.7442	3084.0435	3094.0008	3118.9143	3140.4757	3144.308	3149.6164	3186.2483	3210.4994
CC12C3C1C1CC3C2O1	C[C@@]12[C@H]3[C@@H]1[C@@H]1C[C@H]3[C@H]2O1	
InChI=1S/C8H10O/c1-8-5-3-2-4(6(5)8)9-7(3)8/h3-7H,2H2,1H3	InChI=1S/C8H10O/c1-8-5-3-2-4(6(5)8)9-7(3)8/h3-7H,2H2,1H3/t3-,4+,5-,6+,7-,8-/m1/s1
