19
gdb 6397	2.96175	1.35721	1.09918	2.3269	68.34	-0.2646	0.0595	0.3241	1159.3083	0.163838	-402.261393	-402.251732	-402.250788	-402.296106	34.492	
C	 0.0175052088	 1.5563734322	 0.0722800722	-0.38578
C	-0.0226891791	 0.0264618531	 0.057939476	-0.179283
C	-1.4346277346	-0.5502294805	-0.0089962162	 0.15637
C	-1.4634226326	-2.0717164295	-0.105037725	-0.409195
O	-2.1080564778	-0.1276795464	 1.2038487421	-0.274759
C	-3.4577899088	-0.0303998216	 1.1410673898	 0.495479
N	-3.9539848931	 0.3098930667	 2.3699402088	-0.562156
O	-4.1300578011	-0.2396176019	 0.1571419709	-0.403598
H	 1.0472644413	 1.9222579507	 0.1238344346	 0.112237
H	-0.4401532104	 1.9724406156	-0.8320171619	 0.116799
H	-0.5262409938	 1.9520811477	 0.9343138036	 0.122408
H	 0.5320513279	-0.3545767677	-0.8077258019	 0.099774
H	 0.4773656557	-0.3729739374	 0.9491941385	 0.101637
H	-1.982621678	-0.1204496744	-0.8533918808	 0.106406
H	-2.4946628711	-2.4286849489	-0.1481828036	 0.141827
H	-0.9481677143	-2.4023890063	-1.0124055538	 0.115471
H	-0.9655183453	-2.5238975542	 0.7588242606	 0.117536
H	-3.323186812	 0.6819909797	 3.0593238547	 0.261947
H	-4.9105342618	 0.6188231533	 2.3893674813	 0.266882
55.0013	81.3224	120.4209	186.8641	216.9681	230.6075	256.1031	346.7901	358.6021	420.8558	468.9429	494.02	524.5245	657.4869	768.9356	786.0252	842.7772	879.8028	975.8316	995.4636	1026.8152	1061.553	1110.168	1140.0162	1149.5547	1200.4505	1298.8712	1322.9304	1351.3734	1397.5423	1400.8211	1406.6509	1413.0269	1475.4483	1488.5978	1497.5354	1503.4795	1509.2617	1610.1421	1825.0867	3027.3391	3037.4154	3040.6402	3058.9625	3072.6921	3103.3127	3111.3088	3118.9184	3132.5199	3613.2905	3743.3992
CCC(C)OC(N)=O	CC[C@@H](C)OC(=O)N	
InChI=1S/C5H11NO2/c1-3-4(2)8-5(6)7/h4H,3H2,1-2H3,(H2,6,7)	InChI=1S/C5H11NO2/c1-3-4(2)8-5(6)7/h4H,3H2,1-2H3,(H2,6,7)/t4-/m1/s1
