15
gdb 57037	3.31276	1.09891	1.02423	2.012	68.04	-0.2617	-0.0411	0.2206	1181.6515	0.109384	-457.709015	-457.700213	-457.699268	-457.743019	31.734	
O	 0.1986200201	 1.5069472158	 0.0870485961	-0.419712
C	 0.0680858447	 0.0994026248	-0.0136555414	-0.080051
C	 0.6743329137	-0.4343793793	-1.236750476	 0.305375
C	 1.1993383781	-0.8682601197	-2.2266555905	-0.432137
C	 0.6648181969	-0.5652590616	 1.2393483059	-0.022364
O	 1.9633362101	-0.01335793	 1.5677564697	-0.298717
C	 1.5366152345	 0.5012170452	 2.8522613055	-0.195887
C	 0.1299587731	-0.0437351835	 2.5859230488	 0.36641
O	-0.9149474325	-0.0671125831	 3.1550835437	-0.269591
H	 1.1482267718	 1.6788941081	 0.1345958306	 0.294895
H	-1.0090049962	-0.1079528552	-0.0135163091	 0.141713
H	 1.6512432393	-1.2484048425	-3.1097377047	 0.205178
H	 0.6843335066	-1.657429663	 1.1414534727	 0.123305
H	 2.0693084115	 0.0383364261	 3.6915083601	 0.139962
H	 1.6094555182	 1.5927953979	 2.9206301187	 0.141622
62.3579	108.3482	121.5962	176.0132	231.9099	260.8675	393.3215	419.4236	444.0764	554.2105	563.5868	635.3191	665.5537	676.8506	743.1382	808.7794	870.8814	962.6004	978.5239	1000.4142	1056.4057	1081.3444	1095.2067	1143.0359	1219.2626	1250.8016	1286.5978	1323.61	1327.9991	1423.7053	1476.4567	1932.0491	2235.5619	3028.374	3045.3626	3050.151	3081.9258	3502.0338	3776.5607
OC(C#C)C1OCC1=O	O[C@@H](C#C)[C@H]1OCC1=O	
InChI=1S/C6H6O3/c1-2-4(7)6-5(8)3-9-6/h1,4,6-7H,3H2	InChI=1S/C6H6O3/c1-2-4(7)6-5(8)3-9-6/h1,4,6-7H,3H2/t4-,6+/m0/s1
