19
gdb 63734	2.64724	1.35245	1.22121	1.2419	77.82	-0.2429	-0.0255	0.2175	1144.3449	0.155895	-423.024192	-423.014817	-423.013873	-423.058143	34.855	
C	-0.4194725694	 1.5583977514	 0.0658351241	-0.426257
C	 0.008010818	 0.098322285	 0.036221121	 0.290166
C	-1.0972597958	-0.8518110979	-0.4009059335	-0.42625
O	 1.2245231202	-0.0876299342	-0.7704099279	-0.364522
C	 1.9891014882	-0.5201000288	 0.3528457007	 0.335374
C	 3.031727694	-1.601196127	 0.3021020825	-0.328597
C	 3.4335208636	-0.1721987726	 0.5788109971	-0.328592
C	 0.8172925587	-0.3677969409	 1.2681464865	 0.236944
O	 0.5963087411	-0.5310000316	 2.4324046001	-0.311209
H	 0.4104742315	 2.2045274958	 0.3636247668	 0.127881
H	-0.7593631283	 1.8697999455	-0.9270949299	 0.129127
H	-1.2412541584	 1.6977444902	 0.7748506055	 0.132892
H	-1.448445746	-0.5829543967	-1.402302443	 0.12914
H	-0.7395853877	-1.8844446601	-0.4275501348	 0.127874
H	-1.9423129841	-0.793552413	 0.2918639447	 0.13288
H	 3.0483417632	-2.3195034677	 1.1148737245	 0.13551
H	 3.2496654156	-2.001979271	-0.681756885	 0.136065
H	 3.9184110901	 0.3763999672	-0.2212025572	 0.136064
H	 3.7302604455	 0.1058627665	 1.5845278978	 0.135511
66.811	155.8335	183.6207	185.8957	198.0414	212.92	277.5813	317.3752	339.6951	446.9526	512.1735	563.9091	712.6293	718.6757	760.4733	786.9347	853.9251	878.196	928.4711	942.5131	946.8709	993.6839	1008.0444	1010.6019	1057.6735	1066.5119	1149.266	1194.1382	1214.3325	1247.9324	1280.6093	1364.182	1393.3896	1410.2232	1444.0364	1471.4666	1478.9457	1479.161	1494.1889	1502.1188	1907.1411	3037.4134	3041.3596	3110.3535	3115.2116	3120.9425	3123.5072	3133.5504	3134.4123	3220.9647	3235.1209
CC1(C)OC2(CC2)C1=O	CC1(C)OC2(CC2)C1=O	
InChI=1S/C7H10O2/c1-6(2)5(8)7(9-6)3-4-7/h3-4H2,1-2H3	InChI=1S/C7H10O2/c1-6(2)5(8)7(9-6)3-4-7/h3-4H2,1-2H3
