14
gdb 19633	6.02011	1.72001	1.65451	0.9199	72.63	-0.2164	0.0314	0.2478	793.1604	0.106316	-308.12103	-308.114868	-308.113923	-308.150967	25.112	
C	 0.0563625314	-1.166301134	-0.0376701709	-0.38262
C	 0.0184993569	 0.0379945087	-0.0124069974	 0.024218
C	-0.0383426272	 1.4468096885	 0.0299365022	 0.356403
C	-0.9170066699	 2.4545767286	 0.8439604483	-0.17354
C	-0.8261800022	 3.4614229099	-0.2904993897	-0.089546
C	 0.2132768108	 3.4699150563	 0.8209049238	-0.089547
C	 1.0956429651	 2.4870580563	-0.0030139506	-0.153296
C	 0.0622660279	 2.478543737	-1.1078308775	-0.153279
H	 0.0931093715	-2.2267406539	-0.0627096799	 0.175468
H	-1.6973443734	 2.2953844658	 1.574990909	 0.095838
H	-1.5286881637	 4.2263960235	-0.59018606	 0.094255
H	 0.4594877697	 4.242635485	 1.5356061763	 0.094257
H	 2.1603309546	 2.3021212077	-0.0419002131	 0.100695
H	 0.1735693684	 2.2857457308	-2.1659972906	 0.100695
157.1037	160.622	469.6321	484.1439	517.4579	541.4867	656.8262	661.9644	745.6235	761.7194	781.8944	788.9538	847.7455	863.9586	885.7654	898.8841	942.941	963.2315	982.5765	1008.4386	1016.9075	1053.1055	1103.7774	1170.1978	1197.9909	1246.8897	1260.1973	1323.1061	1385.3933	2224.6614	3199.8403	3206.2203	3212.1961	3217.3849	3224.0738	3504.4728
C#CC12C3C4C3C1C24	C#C[C@@]12[C@@H]3[C@H]4[C@@H]3[C@@H]1[C@@H]24	
InChI=1S/C8H6/c1-2-8-5-3-4(5)7(8)6(3)8/h1,3-7H	InChI=1S/C8H6/c1-2-8-5-3-4(5)7(8)6(3)8/h1,3-7H/t3-,4+,5-,6+,7-,8+
