17
gdb 56661	2.02992	1.58216	1.13674	3.227	68.46	-0.2647	0.021	0.2857	1114.93	0.134818	-455.120992	-455.111534	-455.11059	-455.155132	35.042	
N	-0.0692077002	 1.4381667417	 0.048774719	-0.522175
C	 0.0474298765	-0.0186854038	-0.0223032941	-0.169426
C	 0.7678797534	-0.4942427307	-1.2295866383	 0.257129
N	 1.3345303918	-0.8589998518	-2.169795523	-0.338996
C	 0.7496028343	-0.5327723214	 1.2357144336	 0.37962
O	 1.8842782838	 0.2033963887	 1.5862433306	-0.47018
C	-0.0696877946	-1.1747791801	 2.3333518874	-0.376133
C	 0.8264998438	-2.0163204032	 1.4625275126	 0.06642
O	 0.183910661	-2.8757070372	 0.5706447923	-0.422044
H	 0.8540981891	 1.8463659583	-0.0664664643	 0.245754
H	-0.6370171396	 1.7821992003	-0.7193038588	 0.247342
H	-0.9556354854	-0.4503776128	-0.0625359264	 0.14292
H	 1.5792134519	 0.9973709558	 2.0418418475	 0.293034
H	 0.2461873053	-1.000644774	 3.3555962637	 0.124045
H	-1.139189377	-1.2740960404	 2.1841314788	 0.13025
H	 1.7511515524	-2.3819124981	 1.9067449019	 0.107726
H	 0.7395064336	-2.9674909713	-0.2130527224	 0.304713
59.6894	116.2104	187.327	207.7006	225.9741	260.6969	288.6456	367.994	387.4478	419.615	462.6902	488.5887	525.3619	565.366	635.2351	789.9125	838.6034	867.7688	910.4841	937.7819	981.1071	994.4955	1037.4341	1095.7667	1110.7042	1172.0187	1188.3747	1242.9356	1280.498	1308.3703	1329.794	1365.307	1389.8765	1423.98	1487.4643	1655.3205	2339.3816	3091.5042	3120.0768	3139.1682	3233.5201	3500.7109	3579.3353	3782.824	3785.2568
NC(C#N)C1(O)CC1O	N[C@@H](C#N)[C@@]1(O)C[C@H]1O	
InChI=1S/C5H8N2O2/c6-2-3(7)5(9)1-4(5)8/h3-4,8-9H,1,7H2	InChI=1S/C5H8N2O2/c6-2-3(7)5(9)1-4(5)8/h3-4,8-9H,1,7H2/t3-,4+,5-/m0/s1
