16
gdb 127307	3.21437	1.43637	0.9993	4.4014	79.39	-0.1993	-0.0222	0.1771	1137.1414	0.12599	-434.108031	-434.099787	-434.098842	-434.140842	30.93	
C	 0.052219847	 1.4490047504	-0.0118961675	-0.312419
N	-0.0012896255	-0.0028686611	 0.0175402153	 0.008047
C	-1.1483346455	-0.6921966428	 0.1374926432	 0.04742
C	-1.1763529569	-2.0621818445	 0.1572243136	-0.291765
C	 0.0444450944	-2.7936944687	 0.05107453	 0.339531
O	 0.1936488238	-4.0179990301	 0.0310094171	-0.422626
C	 1.2399600609	-1.9046510504	-0.0558733885	 0.29681
N	 2.4173344605	-2.5695921845	-0.1111883385	-0.539488
N	 1.2184843258	-0.5960517856	-0.0856443234	-0.338194
H	 0.6586182387	 1.8177509124	 0.8201425443	 0.150539
H	 0.5045051767	 1.7864255363	-0.9486400472	 0.149674
H	-0.9588754063	 1.8495078016	 0.0688920996	 0.137207
H	-2.0468055181	-0.0906441139	 0.2133855641	 0.130082
H	-2.1157586726	-2.5917464625	 0.2455800864	 0.11198
H	 2.3230652867	-3.5655633789	-0.2484742364	 0.274448
H	 3.2538390803	-2.0907385377	-0.3949168421	 0.258754
79.486	128.9572	191.7048	280.3599	314.5723	328.3883	359.705	470.3498	473.1368	531.124	542.5542	583.865	610.7409	717.5954	778.2565	802.1924	848.3971	936.5002	971.487	1045.4259	1139.284	1153.3959	1165.9855	1225.6403	1306.4425	1379.4111	1411.5814	1460.0683	1469.1467	1486.5113	1525.1512	1563.2001	1626.9771	1644.3867	1719.8781	3047.3115	3111.4542	3150.5453	3195.4151	3223.2296	3575.9121	3727.5849
CN1C=CC(=O)C(N)=N1	Cn1ccc(=O)c(N)n1	
InChI=1S/C5H7N3O/c1-8-3-2-4(9)5(6)7-8/h2-3H,1H3,(H2,6,7)	InChI=1S/C5H7N3O/c1-8-3-2-4(9)5(6)7-8/h2-3H,1H3,(H2,6,7)
