20
gdb 24603	4.75678	0.94113	0.89668	1.8292	86.1	-0.1975	0.0457	0.2432	1367.6041	0.173765	-366.038526	-366.030469	-366.029525	-366.072771	31.201	
C	-0.1027662236	 1.5649383541	 0.0162200878	-0.21417
C	 1.445611481	 1.5475478355	-0.0706470127	-0.219054
C	 1.4300592548	 0.1071867913	 0.5355111171	-0.072711
C	-0.0703760375	 0.0170756233	 0.1078215524	-0.219035
C	 2.4126994211	-0.9196487766	 0.0767673838	 0.281575
C	 2.6610373355	-1.3164534227	-1.2232848909	-0.186807
N	 3.6367431001	-2.2806509008	-1.1984317112	-0.233444
C	 4.0258702609	-2.5161066948	 0.0947173006	-0.073686
C	 3.2854322396	-1.6883720729	 0.9048169662	-0.259898
H	-0.4499809016	 2.0177335724	 0.9498511358	 0.098109
H	-0.6552936384	 2.0156938047	-0.8116814887	 0.090699
H	 1.7907913669	 1.5276270565	-1.1089626303	 0.09539
H	 2.0064876901	 2.3169171472	 0.4665120683	 0.092395
H	 1.4820151509	 0.1829769363	 1.6268609475	 0.061797
H	-0.7631359897	-0.4791646936	 0.7925709475	 0.092391
H	-0.1652145615	-0.4470953982	-0.878686544	 0.09539
H	 2.2273271838	-0.9949321437	-2.1569558223	 0.110214
H	 4.0094807724	-2.7439484927	-2.0080232913	 0.258869
H	 4.7873652808	-3.2441825399	 0.3233742281	 0.114995
H	 3.3520482043	-1.6295036554	 1.9812055363	 0.086981
14.5256	116.7409	138.6996	239.0335	372.9015	382.3245	475.2985	554.8657	640.4327	667.4677	688.7852	709.7758	764.4118	789.3523	829.6061	851.9804	902.6311	905.7079	932.495	938.1526	971.9387	1025.6603	1027.3101	1091.8783	1094.5303	1112.5335	1165.8649	1199.5914	1223.4131	1249.2247	1251.4356	1259.3356	1277.8228	1285.6053	1304.0347	1369.1981	1425.1871	1466.9747	1477.3847	1487.2694	1507.6396	1523.5889	1600.8616	3042.738	3048.8325	3051.2269	3057.1953	3093.9846	3102.2351	3116.281	3237.4453	3255.8373	3268.0588	3686.6083
C1CC(C1)C1=CNC=C1	C1CC(C1)c1c[nH]cc1	
InChI=1S/C8H11N/c1-2-7(3-1)8-4-5-9-6-8/h4-7,9H,1-3H2	InChI=1S/C8H11N/c1-2-7(3-1)8-4-5-9-6-8/h4-7,9H,1-3H2
