16
gdb 127161	4.28289	1.10758	0.88494	4.0598	76.26	-0.209	-0.0076	0.2014	1244.791	0.126376	-430.24418	-430.235934	-430.234989	-430.277616	29.715	
C	 0.0651809035	 1.4775333322	-0.0037957567	-0.352966
N	 0.0104881745	 0.0253506571	 0.0067054935	-0.162125
C	-0.0488392706	-0.670128022	 1.200300676	 0.081879
N	-0.0579371929	-0.073556725	 2.3270179878	-0.495741
C	 0.0195962421	-0.6400682038	-1.2080397281	 0.444653
C	 0.075481618	-0.1056761582	-2.4802748775	-0.204234
N	 0.056274413	-1.2081533242	-3.2772018763	-0.157738
N	-0.0061264264	-2.3374613097	-2.5697342355	-0.104991
N	-0.0288670464	-2.000235818	-1.3083923351	-0.282536
H	 0.9840508677	 1.827077877	-0.4897772595	 0.124964
H	-0.7965024538	 1.8937796724	-0.5394612793	 0.12497
H	 0.0490056589	 1.8165693853	 1.0304900343	 0.180872
H	-0.084736517	-1.7483472766	 1.039311346	 0.142355
H	-0.1044944834	-0.756541164	 3.079013406	 0.226337
H	 0.1239633878	 0.8966270219	-2.8647643932	 0.148563
H	 0.0827311449	-1.2575410845	-4.2829120623	 0.285738
59.3465	115.6965	155.5152	189.2155	261.7402	327.9639	363.6674	464.5645	486.7345	553.8094	679.5022	708.5143	752.0831	766.8732	801.8808	958.4157	991.8283	1048.3252	1065.4543	1074.3679	1136.0802	1143.7488	1160.7244	1236.3013	1292.1995	1305.7298	1362.4721	1404.2468	1420.6003	1444.4087	1499.6278	1507.966	1516.663	1631.6239	1712.8357	3017.2984	3068.784	3128.9357	3170.247	3303.599	3521.073	3662.0426
CN(C=N)C1=CNN=N1	CN(C=N)c1c[nH]nn1	
InChI=1S/C4H7N5/c1-9(3-5)4-2-6-8-7-4/h2-3,5H,1H3,(H,6,7,8)	InChI=1S/C4H7N5/c1-9(3-5)4-2-6-8-7-4/h2-3,5H,1H3,(H,6,7,8)
