15
gdb 15742	6.33647	1.04477	0.96738	4.5833	64.61	-0.2699	-0.0264	0.2435	1176.1961	0.117782	-399.814379	-399.806344	-399.8054	-399.848304	27.803	
N	-0.0733186712	 1.4713343891	 0.0302964614	-0.524044
C	 0.0307069485	 0.2103818733	 0.0371177633	 0.428772
O	-1.0893868748	-0.5856775633	 0.1720862747	-0.216575
C	-2.337858642	-0.0362322318	-0.0001720754	 0.174159
O	-3.3149888563	-0.6849729151	 0.2064590002	-0.256397
C	 1.2327998934	-0.6569099309	-0.059039202	-0.088971
C	 2.4077789099	-0.2218529161	-0.9164774858	-0.263461
C	 2.5369502615	-0.20408249	 0.5718677059	-0.261284
H	 0.8328196501	 1.9214839045	-0.0823001917	 0.230007
H	-2.2976439778	 1.0037842314	-0.3446791552	 0.13995
H	 1.0075027516	-1.7150263496	-0.0265402793	 0.117795
H	 2.9199870238	-0.9943006211	-1.4779856889	 0.132656
H	 2.3134227162	 0.7244917022	-1.4383600398	 0.126413
H	 2.5292659225	 0.754769723	 1.0791895968	 0.128061
H	 3.1407218547	-0.9632861855	 1.0548825259	 0.132921
35.767	64.7063	125.9842	182.7197	279.0906	302.381	376.4931	552.0774	660.9521	711.1753	785.3046	820.1972	851.241	858.5567	917.6962	968.7717	1036.6671	1058.7529	1063.8622	1084.3923	1088.0071	1118.8546	1132.313	1204.0257	1225.7109	1278.9464	1388.5564	1429.849	1470.4771	1501.1276	1728.9665	1869.2821	3087.2238	3137.519	3140.5973	3196.7558	3219.3596	3234.8843	3511.2297
N=C(OC=O)C1CC1	[NH][C](OC=O)C1CC1	
InChI=1S/C5H7NO2/c6-5(8-3-7)4-1-2-4/h3-4,6H,1-2H2	InChI=1S/C5H7NO2/c6-5(8-3-7)4-1-2-4/h3-4,6H,1-2H2
