23
gdb 83769	2.61484	1.73499	1.55746	0.0649	87.71	-0.2584	0.08	0.3384	1019.6376	0.209637	-351.141858	-351.134433	-351.133489	-351.173102	31.641	
C	-0.1345598431	 1.6583351553	 0.0146260067	-0.437998
C	 0.0884175034	 0.1496389963	 0.0417135028	 0.057906
C	 1.0567453636	-0.590888603	-0.9367378664	-0.052525
C	 2.3806469388	 0.1689293486	-1.1005950671	-0.212033
C	 2.9388133968	 0.5530541128	 0.2949295556	-0.213416
C	 2.3705412214	-0.4208327651	 1.332709702	-0.021735
C	 2.5688174792	-1.8739591053	 0.8086006329	-0.24049
C	 1.1870139715	-1.7325189822	 0.1523641707	-0.012301
C	 0.8041990422	-0.618236407	 1.1745045387	-0.044468
H	 0.7897378764	 2.2378219162	 0.057474114	 0.116648
H	-0.6653774728	 1.9536471024	-0.8981433884	 0.111338
H	-0.7546942942	 1.966312588	 0.8644583707	 0.112314
H	-0.8953468893	-0.3300467505	-0.0545944045	 0.067884
H	 0.6465991699	-0.8878363052	-1.905762609	 0.052302
H	 3.095495277	-0.4661608874	-1.6353547132	 0.09724
H	 2.2362534934	 1.0587051867	-1.7235325303	 0.092224
H	 4.0339861512	 0.5007988935	 0.2995543159	 0.090334
H	 2.6798182284	 1.5825834088	 0.5567642692	 0.098054
H	 2.7265829974	-0.198320139	 2.3412030799	 0.055739
H	 3.4489838606	-2.0750740046	 0.1877473338	 0.084692
H	 2.5328778322	-2.6127579071	 1.6151350411	 0.092259
H	 0.5617925529	-2.6085136731	-0.0305749191	 0.05474
H	 0.280768333	-0.8251303892	 2.110912664	 0.051294
172.552	204.927	227.6674	279.4577	378.8267	403.0371	479.4818	546.564	591.1551	654.4116	742.5815	774.5347	796.6607	818.3759	846.7733	859.0702	914.8869	927.9444	952.3326	970.2889	983.2633	1040.6885	1048.8628	1064.1432	1078.2171	1090.6573	1102.3897	1135.9142	1147.0428	1150.776	1194.4539	1217.5833	1236.9806	1244.5198	1271.202	1283.7975	1309.4183	1315.4918	1324.3421	1326.4903	1363.4828	1377.5457	1401.4187	1409.2768	1481.9537	1487.7786	1495.2983	1504.1446	1514.8809	3003.2743	3028.2506	3029.4756	3032.2532	3040.5043	3061.7042	3063.4505	3068.3987	3078.8914	3082.7458	3082.9289	3086.5612	3092.8244	3125.0891
CC1C2CCC3CC2C13	C[C@H]1[C@H]2CC[C@@H]3C[C@H]2[C@H]13	
InChI=1S/C9H14/c1-5-7-3-2-6-4-8(7)9(5)6/h5-9H,2-4H2,1H3	InChI=1S/C9H14/c1-5-7-3-2-6-4-8(7)9(5)6/h5-9H,2-4H2,1H3/t5-,6+,7+,8+,9+/m0/s1
