23
gdb 122576	4.26992	0.74609	0.69412	0.8032	88.04	-0.2325	0.0321	0.2646	1730.6159	0.205815	-388.300717	-388.291004	-388.29006	-388.336378	35.48	
C	-0.0259960283	 1.379991456	-0.2390392185	-0.384386
C	-0.0573444542	-0.1375050175	-0.1675275884	-0.027865
O	-1.3917858911	-0.5530743385	 0.0331800762	-0.243852
C	-1.5398386435	-1.9546967915	 0.1010748248	-0.056828
C	-3.019269169	-2.2982937828	 0.260894966	-0.005858
C	-3.8442347222	-1.8309935282	-0.9729406776	-0.25595
C	-4.0764053064	-3.1040788744	-1.7490065106	-0.055583
C	-3.7364485341	-4.187619387	-1.0541305127	-0.054711
C	-3.2093762419	-3.8417130507	 0.318290539	-0.276056
H	 0.9974672261	 1.7343245392	-0.3944833451	 0.113066
H	-0.6469824086	 1.7377335717	-1.0653346741	 0.12517
H	-0.4077410655	 1.8156657254	 0.6886950255	 0.125862
H	 0.3424532699	-0.5772871317	-1.0974550507	 0.083863
H	 0.5821420407	-0.4988586033	 0.6562569872	 0.083062
H	-1.1419784088	-2.4284368856	-0.8142257784	 0.086227
H	-0.9645933896	-2.3584920003	 0.9521194212	 0.081359
H	-3.3730121868	-1.8158576008	 1.1761070958	 0.076135
H	-4.7988295458	-1.3768300667	-0.6741367892	 0.100372
H	-3.3090200772	-1.0628754922	-1.5410414066	 0.112444
H	-4.4987531039	-3.1096870916	-2.7482057031	 0.08675
H	-3.8403291463	-5.2117040227	-1.39599293	 0.087026
H	-2.2728264411	-4.3638267916	 0.5554812513	 0.0963
H	-3.9228371624	-4.1358999852	 1.0999944081	 0.103453
52.0198	69.4197	91.8103	133.4786	168.9776	248.9913	284.9915	314.2067	388.5224	456.5242	484.5443	695.5828	724.7282	784.2825	821.2551	844.8374	900.1394	907.9219	924.1493	954.1774	975.3327	979.2111	1017.9153	1046.8583	1089.8799	1098.6623	1131.3605	1144.9497	1163.444	1177.6031	1189.513	1228.6385	1242.0629	1282.8731	1297.0713	1307.5955	1327.5691	1352.4034	1382.1092	1388.8866	1406.8843	1448.6147	1483.7807	1489.6472	1497.597	1499.6265	1511.8054	1536.3747	1690.1276	2939.1613	2954.1448	2971.117	2973.8129	3009.7405	3014.3388	3033.891	3044.2965	3068.0465	3074.2055	3118.4905	3120.6506	3177.6908	3203.6929
CCOCC1CC=CC1	CCOC[C@H]1CC=CC1	
InChI=1S/C8H14O/c1-2-9-7-8-5-3-4-6-8/h3-4,8H,2,5-7H2,1H3	InChI=1S/C8H14O/c1-2-9-7-8-5-3-4-6-8/h3-4,8H,2,5-7H2,1H3
