23
gdb 95342	2.80096	1.41424	1.09646	1.1665	85.71	-0.2363	0.0836	0.3199	1209.4439	0.207744	-388.300273	-388.291922	-388.290978	-388.332819	33.667	
C	 0.0230707526	 1.5235744417	 0.0702599999	-0.400923
C	 0.0483204359	 0.0058265853	-0.0343563077	 0.152749
C	 0.7338633962	-0.5050270227	-1.3064393307	-0.194219
C	 0.7253502346	-2.0405342904	-1.3451335054	-0.253885
C	 1.1389514096	-2.646788891	-0.0064043804	 0.022802
C	 2.6049682472	-2.5832493013	 0.5168628523	-0.237407
C	 2.0304340397	-2.3245810785	 1.938190422	-0.228789
C	 0.7072210007	-1.8799356844	 1.278456401	 0.115521
O	 0.7506884305	-0.4728289478	 1.1109279013	-0.282
H	 1.0427097624	 1.9216350135	 0.0602427191	 0.120772
H	-0.5289169584	 1.9600405844	-0.7676124085	 0.110343
H	-0.454472513	 1.8339781384	 1.0035484948	 0.120342
H	-0.9889053113	-0.3767010945	-0.0101243599	 0.055708
H	 0.2310607055	-0.1019883993	-2.1929924092	 0.089578
H	 1.7609942181	-0.1191868116	-1.3151669061	 0.099907
H	-0.2927774329	-2.377073554	-1.5839081791	 0.093555
H	 1.3691698956	-2.4132986074	-2.1510965601	 0.094421
H	 0.7856137197	-3.6811518835	 0.0628566675	 0.068332
H	 3.2241504492	-3.4710877509	 0.3694821342	 0.091566
H	 3.1433281479	-1.7119852206	 0.1364246398	 0.107685
H	 1.9074901618	-3.2507262163	 2.5062859917	 0.096931
H	 2.5169195966	-1.5748579787	 2.5647931361	 0.10515
H	-0.2430090482	-2.1733532504	 1.7486564874	 0.051859
113.1775	157.0339	217.3557	221.0758	273.8357	321.3648	397.2313	452.7834	461.9139	476.5794	625.735	676.1494	743.3966	806.4126	851.9823	867.9604	903.7294	926.3862	933.2948	941.6465	976.3506	995.4091	1012.2295	1077.088	1085.5483	1111.0224	1144.9843	1154.1269	1175.7161	1205.3954	1226.1151	1244.9524	1252.2723	1264.2055	1289.0641	1300.7278	1334.7555	1342.9016	1354.6621	1385.1487	1396.113	1399.2209	1412.8176	1468.8631	1474.0462	1484.8019	1486.2363	1495.1496	1499.6115	2930.7415	2985.2295	3009.4974	3025.8544	3040.8923	3047.4371	3051.4819	3063.0763	3067.714	3072.414	3112.9315	3113.8248	3119.9653	3129.2641
CC1CCC2CCC2O1	C[C@H]1CC[C@H]2CC[C@H]2O1	
InChI=1S/C8H14O/c1-6-2-3-7-4-5-8(7)9-6/h6-8H,2-5H2,1H3	InChI=1S/C8H14O/c1-6-2-3-7-4-5-8(7)9-6/h6-8H,2-5H2,1H3/t6-,7-,8+/m0/s1
