21
gdb 115447	2.43307	1.23568	0.93077	3.0219	79.32	-0.2387	-0.0203	0.2184	1334.8022	0.181753	-424.249904	-424.24042	-424.239476	-424.28514	34.168	
C	-0.0310040493	 1.5575029454	 0.1305355046	-0.382348
C	-0.0925906644	 0.0494727027	-0.1271385595	-0.193399
C	-1.4735727835	-0.5426979065	 0.1105352032	 0.144466
C	-1.6004498166	-2.0550684086	-0.1230237938	-0.221526
C	-2.7814216202	-2.460669802	 0.7832637683	-0.280743
C	-2.8706112357	-1.2659678885	 1.7921455874	 0.027364
O	-1.8157121951	-0.3855879776	 1.492986362	-0.252278
C	-4.2361964382	-0.6011794585	 1.682400187	 0.14655
O	-4.4412579621	 0.4810019499	 1.201514143	-0.238616
H	 0.9793600067	 1.9438088683	-0.0340624913	 0.107563
H	-0.7104584034	 2.099457851	-0.5361384378	 0.116831
H	-0.3233448052	 1.7839818035	 1.1589318885	 0.138485
H	 0.1980560433	-0.1693877039	-1.1623515884	 0.095282
H	 0.6210467922	-0.4742562968	 0.5212155106	 0.099061
H	-2.2159895934	-0.0072144015	-0.5024211652	 0.082011
H	-1.7688028368	-2.3066227637	-1.172865804	 0.106484
H	-0.6802845103	-2.5516536936	 0.2016998709	 0.106568
H	-3.7084341078	-2.5631866515	 0.2102694033	 0.114319
H	-2.6107657637	-3.409287521	 1.2950248609	 0.117436
H	-2.7517452753	-1.6057244754	 2.8296807191	 0.096695
H	-5.069217311	-1.2339922317	 2.0755151913	 0.069795
54.3911	81.8721	112.9369	117.376	185.0781	248.5581	266.633	331.2134	400.3621	455.7106	584.7074	660.8963	739.2186	768.3445	822.2697	853.6602	879.3612	931.0199	958.1116	967.2478	980.7827	1005.5938	1050.3853	1100.1575	1131.1761	1150.1492	1154.8669	1201.5024	1221.8708	1282.5883	1290.3885	1304.7123	1313.3754	1347.8806	1355.6698	1379.713	1411.9451	1417.6125	1420.7715	1473.4062	1487.2876	1498.7211	1507.1659	1507.707	1841.6379	2835.1133	2980.7507	3022.8403	3024.0945	3039.77	3052.6683	3055.3243	3062.1431	3103.9509	3104.7018	3117.4686	3125.5915
CCC1CCC(O1)C=O	CC[C@H]1CC[C@@H](O1)C=O	
InChI=1S/C7H12O2/c1-2-6-3-4-7(5-8)9-6/h5-7H,2-4H2,1H3	InChI=1S/C7H12O2/c1-2-6-3-4-7(5-8)9-6/h5-7H,2-4H2,1H3/t6-,7+/m0/s1
