18
gdb 54412	3.34632	1.38682	1.15879	13.0378	72.96	-0.1743	-0.0014	0.1729	1070.2709	0.150409	-439.03848	-439.031012	-439.030068	-439.070964	28.997	
O	 0.3506311622	 0.5361588834	-0.9912459743	-0.463607
C	 0.0630416474	 1.1706959577	 0.0284479965	 0.255089
O	 0.6200106213	 1.3592534083	 1.1271193285	-0.496738
C	-1.3111428319	 1.9302041282	-0.0280810571	 0.252741
C	-2.3122623918	 1.7532662476	 1.1414801143	-0.210475
N	-2.8242642301	 3.1255691076	 0.6880202942	-0.113586
H	-3.3896346442	 3.7271089397	 1.2913582338	 0.276995
C	-1.3551875641	 3.4274299937	 0.3691424703	-0.210471
C	-3.4011932812	 2.8220143018	-0.6849162622	-0.207443
C	-2.2607332755	 1.9133860942	-1.2412543787	-0.273721
H	-3.0790653685	 0.9779400715	 1.105820945	 0.137505
H	-1.8242010369	 1.8289639516	 2.1111369619	 0.172539
H	-0.7983434038	 3.6234279718	 1.28329619	 0.172542
H	-1.2329130364	 4.207331852	-0.3839785599	 0.137507
H	-4.3652333078	 2.3273724509	-0.5532294679	 0.145734
H	-3.5435166805	 3.7647384169	-1.2163301052	 0.145735
H	-1.7895556649	 2.3298891375	-2.131451778	 0.139829
H	-2.6038494635	 0.9054752357	-1.4743231714	 0.139824
53.6552	155.0861	169.8031	330.5036	345.57	443.1467	457.551	557.0931	650.2566	738.914	760.5898	774.3802	816.6976	832.4231	849.9126	899.4471	916.6867	935.9775	949.212	986.4986	1066.8383	1110.1162	1134.9424	1153.8119	1160.0353	1196.3134	1206.6356	1231.1528	1253.7576	1272.2183	1299.7888	1303.5609	1343.6408	1363.4856	1491.0751	1499.1185	1504.12	1538.2959	1800.4021	3082.7582	3090.5249	3094.4925	3103.8533	3138.6573	3157.8415	3185.5232	3191.0639	3424.4847
[O-]C(=O)C12C[NH+](C1)CC2	O=C([O])[C@@]12C[N@@H](C1)CC2	
InChI=1S/C6H9NO2/c8-5(9)6-1-2-7(3-6)4-6/h1-4H2,(H,8,9)	InChI=1S/C6H9NO2/c8-5(9)6-1-2-7(3-6)4-6/h7H,1-4H2
