12
gdb 123318	1.98958	1.9732	0.99068	0.0597	77.75	-0.244	-0.0318	0.2121	1086.1638	0.077708	-394.467602	-394.460044	-394.4591	-394.499772	28.142	
C	-0.0154386995	-1.1895919798	-0.0038274084	-0.395483
C	-0.0324475901	 0.0127921736	 0.0032670938	 0.241803
C	-0.0181768958	 1.4243972021	 0.0110961101	 0.113292
N	-1.1324198779	 2.169853971	 0.0291633924	-0.258824
N	-0.6649861934	 3.4065543477	 0.0303992104	-0.100804
N	 0.6476382153	 3.5637256291	 0.014984514	-0.258837
C	 1.1039949234	 2.3031137642	 0.0021049134	 0.11328
C	 2.4776994328	 1.9783495943	-0.0168226254	 0.24183
C	 3.6408478249	 1.6735695477	-0.0329460635	-0.395472
H	-0.004142189	-2.2515313127	-0.0101055296	 0.198299
H	-1.2864344766	 4.2003058181	 0.0426446596	 0.302616
H	 4.6689946859	 1.4078614448	-0.0469019869	 0.198299
103.984	160.2386	193.8658	200.2632	438.6009	449.9312	523.0653	539.0054	565.5203	602.6146	611.178	631.3363	670.708	677.617	678.9053	714.5887	810.0981	997.1244	1156.8758	1207.277	1266.4229	1312.2791	1437.8777	1480.466	1522.9006	2243.8052	2250.2949	3501.8232	3502.3112	3658.6732
C#CC1=NNN=C1C#C	C#Cc1n[nH]nc1C#C	
InChI=1S/C6H3N3/c1-3-5-6(4-2)8-9-7-5/h1-2H,(H,7,8,9)	InChI=1S/C6H3N3/c1-3-5-6(4-2)8-9-7-5/h1-2H,(H,7,8,9)
