16
gdb 125855	3.19247	1.64834	1.15299	3.2011	76.31	-0.2204	-0.0212	0.1992	1029.7193	0.126247	-400.746153	-400.739133	-400.738189	-400.777567	27.397	
C	-0.0864643077	 1.5811726316	 0.0318401788	-0.394819
C	 0.0139108699	 0.0454341924	 0.0179870199	-0.208239
C	 0.8157695184	-0.5223481961	-1.1558485003	-0.084604
C	 1.8520601617	-1.2798685015	-0.7433075569	-0.228735
C	 1.8525001445	-1.3006804042	 0.7215068294	 0.16455
C	 0.8021566187	-0.5444708095	 1.1470087916	 0.398467
O	 0.7242354294	-0.495423088	 2.471216445	-0.233119
N	 1.7891230952	-1.2733320494	 2.9843864029	-0.144352
C	 2.4395805683	-1.7362204487	 1.9350662992	-0.133851
H	 0.9089866456	 2.0330452614	 0.0387810136	 0.134456
H	-0.6196507941	 1.9360065329	-0.8546794327	 0.123825
H	-0.6278339397	 1.9241616702	 0.9178471869	 0.135512
H	-1.002183233	-0.3743977712	 0.0047796616	 0.121311
H	 0.549280917	-0.3104576121	-2.1833724089	 0.105379
H	 2.5622849685	-1.7880016957	-1.3817586913	 0.110886
H	 3.3013605773	-2.3641515421	 2.1130795313	 0.133332
126.0588	167.8019	243.7581	292.6239	352.5496	463.1107	554.4931	629.5839	637.6828	691.3169	693.1249	778.6922	808.1353	851.0997	903.3397	910.7846	940.7446	964.3818	1020.9626	1069.7001	1087.1342	1094.0063	1174.5443	1199.157	1231.6544	1285.3882	1326.462	1377.8002	1408.6958	1425.6027	1496.3092	1497.2087	1517.7045	1581.4354	1620.3933	3017.197	3044.9072	3118.9209	3125.169	3210.7746	3233.7144	3241.8877
CC1C=CC2=C1ON=C2	C[C@H]1C=Cc2c1onc2	
InChI=1S/C7H7NO/c1-5-2-3-6-4-8-9-7(5)6/h2-5H,1H3	InChI=1S/C7H7NO/c1-5-2-3-6-4-8-9-7(5)6/h2-5H,1H3/t5-/m0/s1
