22
gdb 6832	2.99509	1.41395	1.25843	1.3399	78.05	-0.2598	0.0766	0.3364	1109.5295	0.199066	-350.197246	-350.187882	-350.186938	-350.230704	35.399	
C	-0.0738969933	 1.5449414589	-0.0810785303	-0.436283
C	-0.0108674899	 0.0145636009	-0.0148036731	 0.313038
C	-1.3881657664	-0.5872016078	-0.2790693369	-0.451056
C	 1.16925297	-0.5438525849	-0.875782172	-0.253744
C	 2.0403342733	-0.6320629515	 0.4046254888	-0.228268
C	 0.7443856908	-0.5364319287	 1.2485270565	 0.035459
C	 0.7595562172	 0.2442973483	 2.5470122935	-0.111745
O	 1.5495198425	-0.4902809941	 3.4753788508	-0.42356
H	 0.9062876664	 2.006360949	 0.0756509957	 0.112233
H	-0.432367507	 1.8644079821	-1.0663609838	 0.109964
H	-0.7613999828	 1.9544095597	 0.6678052169	 0.109472
H	-1.7670978324	-0.2889086118	-1.2640557568	 0.109493
H	-1.3552769672	-1.681464501	-0.2510317427	 0.108762
H	-2.1190946985	-0.2552677568	 0.4682969859	 0.108883
H	 0.9389245502	-1.5324681821	-1.2842651844	 0.093644
H	 1.5275041023	 0.0916704401	-1.6908806092	 0.088722
H	 2.6586070534	-1.5216732608	 0.537041524	 0.100043
H	 2.6771643096	 0.2486104284	 0.5344877824	 0.095877
H	 0.3762772259	-1.5444781629	 1.4720034989	 0.073683
H	 1.1789760696	 1.2493425194	 2.3853151966	 0.080195
H	-0.2704012979	 0.3753610271	 2.9202824783	 0.080852
H	 1.6064684042	 0.0187126183	 4.2892405209	 0.284336
87.8384	124.9987	172.2542	222.2057	253.7977	268.6693	278.515	311.3087	348.8978	362.4368	462.0976	490.2824	594.8893	741.9935	789.777	872.7779	906.7574	912.2306	947.4095	960.0497	987.0311	1001.5596	1031.5788	1070.4697	1107.459	1152.3981	1183.7892	1189.3651	1222.545	1245.8413	1254.1787	1267.0692	1278.8788	1289.0441	1322.4247	1374.8224	1400.5419	1418.3133	1460.784	1479.4427	1484.183	1490.9583	1499.4228	1503.8679	1507.4636	1523.168	2954.4681	2991.3843	3016.1102	3024.3098	3040.5146	3047.4387	3057.0745	3078.9678	3086.5759	3090.0598	3095.1188	3097.9987	3116.8642	3827.3517
CC1(C)CCC1CO	CC1(C)CC[C@H]1CO	
InChI=1S/C7H14O/c1-7(2)4-3-6(7)5-8/h6,8H,3-5H2,1-2H3	InChI=1S/C7H14O/c1-7(2)4-3-6(7)5-8/h6,8H,3-5H2,1-2H3/t6-/m0/s1
