21
gdb 106377	3.29615	1.16481	1.06768	1.5706	78.29	-0.2547	0.0737	0.3284	1208.7278	0.183563	-424.209439	-424.200834	-424.19989	-424.242425	33.927	
O	-0.0641086825	 1.4066032798	-0.1571977438	-0.425839
C	 0.0049276614	-0.004005768	 0.0206822897	-0.200868
C	-1.4004166713	-0.5454106354	 0.0260634025	 0.371743
C	-2.3094129867	-0.5173716762	-1.2426449793	-0.260886
C	-3.0775793631	-1.6288298506	-0.4750076967	-0.029594
C	-1.6905801143	-2.0759934893	 0.0694370676	-0.28105
C	-3.648392384	-0.843935889	 0.7142358646	 0.137445
O	-4.0778287613	-1.7506970549	 1.7183309999	-0.446367
C	-2.3784745582	-0.0106982878	 1.0952082966	-0.289546
H	 0.8324809895	 1.7537050276	-0.1573925147	 0.287634
H	 0.5815428207	-0.4772839747	-0.7906345657	 0.080809
H	 0.5035260099	-0.2612053869	 0.9707481703	 0.082724
H	-2.8332600379	 0.4134414672	-1.4784743201	 0.093585
H	-1.8005721716	-0.8986581399	-2.1316252349	 0.092266
H	-3.7574291879	-2.3214609003	-0.9703722341	 0.062529
H	-1.1126815486	-2.630984077	-0.6741951301	 0.089218
H	-1.6644007153	-2.5833226421	 1.0362272408	 0.102724
H	-4.4827845786	-0.1991519608	 0.4027633828	 0.059101
H	-4.3608850147	-1.2369651798	 2.4809078917	 0.279809
H	-2.0525175609	-0.2470096506	 2.1137565159	 0.086966
H	-2.5225038747	 1.0689201189	 1.0136735971	 0.107597
90.1135	140.8028	193.2707	244.6141	273.0217	292.8912	358.346	422.5696	444.3719	491.9203	516.482	632.058	703.9622	823.3338	841.4827	850.0717	892.2888	927.7121	955.076	975.7567	981.4089	1017.879	1039.0966	1046.1374	1066.4791	1104.7159	1138.2178	1143.8201	1174.7284	1196.9656	1209.294	1215.4685	1238.9458	1252.7922	1271.9522	1298.253	1308.8623	1341.2701	1351.6993	1423.0955	1464.8644	1482.8256	1486.6547	1513.9786	1525.0455	2953.8528	2983.8683	2990.9243	3047.3394	3052.295	3061.9547	3108.79	3113.3235	3120.8	3123.3744	3821.4776	3832.3306
OCC12CC(C1)C(O)C2	OC[C@@]12C[C@@H](C1)[C@@H](O)C2	
InChI=1S/C7H12O2/c8-4-7-1-5(2-7)6(9)3-7/h5-6,8-9H,1-4H2	InChI=1S/C7H12O2/c8-4-7-1-5(2-7)6(9)3-7/h5-6,8-9H,1-4H2/t5-,6-,7-/m0/s1
