21
gdb 114361	2.76063	1.25505	1.16832	0.9718	78.48	-0.2432	0.0681	0.3114	1205.9994	0.181723	-424.196403	-424.187459	-424.186515	-424.230165	33.716	
C	 0.0073397422	 1.2740524787	-0.5303885881	-0.383277
C	-0.0083931321	-0.194976835	-0.0951322099	-0.198353
C	-1.4121884903	-0.7048582119	 0.1580526248	 0.135898
O	-2.2987398456	-0.6127640782	-1.0052840482	-0.318056
C	-2.7076530028	-1.984397011	-0.8662150164	 0.046484
C	-1.8583766087	-2.97483741	-1.6880774518	 0.138286
C	-1.3089262815	-2.5568155226	-3.0321768919	-0.409409
O	-0.8550660687	-3.0106723709	-0.6231111529	-0.316854
C	-1.678793966	-2.2194316612	 0.2517705308	 0.035056
H	 1.0275187158	 1.6115358366	-0.7352949434	 0.112306
H	-0.5872740875	 1.411466818	-1.4379153068	 0.135815
H	-0.4117405719	 1.9251665619	 0.2449046179	 0.111714
H	 0.4635109248	-0.8285813846	-0.8517026198	 0.116187
H	 0.5684475962	-0.3237129477	 0.8304445372	 0.097295
H	-1.8754970682	-0.1663453287	 0.9992405944	 0.072475
H	-3.7910870341	-2.1081436063	-0.8195732939	 0.083615
H	-2.347022066	-3.9582690204	-1.7507045101	 0.076045
H	-0.9571693954	-1.523820766	-2.9985609234	 0.137321
H	-0.4793400187	-3.2104952402	-3.3181391293	 0.126671
H	-2.0862460301	-2.6372961898	-3.7997550094	 0.11767
H	-1.8406601213	-2.6822224808	 1.22690243	 0.083113
74.207	115.2028	161.7972	203.9155	211.046	237.7943	291.6501	379.3908	450.4283	531.2644	554.4414	671.4852	771.6662	802.671	810.6776	872.3479	904.0997	917.0956	937.775	973.6071	986.6209	1035.1017	1059.686	1093.8348	1099.8118	1118.456	1147.5143	1160.7853	1193.1326	1231.7734	1277.4735	1289.6115	1297.1421	1309.6157	1334.0697	1358.1293	1378.7958	1402.6509	1406.1177	1412.0302	1479.9201	1483.284	1495.0082	1499.0166	1509.8261	2984.6931	2995.8416	3028.309	3036.2917	3042.1384	3086.2544	3087.8139	3101.1069	3106.7547	3108.3468	3119.1894	3138.3014
CCC1OC2C(C)OC12	CC[C@H]1O[C@H]2[C@@H](C)O[C@@H]12	
InChI=1S/C7H12O2/c1-3-5-7-6(9-5)4(2)8-7/h4-7H,3H2,1-2H3	InChI=1S/C7H12O2/c1-3-5-7-6(9-5)4(2)8-7/h4-7H,3H2,1-2H3/t4-,5-,6+,7+/m1/s1
