27
gdb 100293	1.82227	1.32237	1.01431	1.2593	91.51	-0.2639	0.0691	0.3331	1406.5651	0.249605	-390.695981	-390.684068	-390.683124	-390.732279	44.881	
C	-0.095505329	 1.5856558536	 0.2035686143	-0.405848
C	 0.0676941849	 0.0683443049	 0.0476844307	-0.191855
C	 0.6920776529	-0.4407408462	-1.2815294777	 0.265956
C	-0.0687859212	 0.1169646984	-2.4997208542	-0.438837
C	 2.1426233594	 0.0636840221	-1.3832927425	-0.106511
O	 2.9138823965	-0.4965177921	-0.3264951535	-0.425641
C	 0.6690431314	-2.0121177769	-1.264119375	 0.048447
C	-0.7408117351	-2.6049274106	-1.4369151154	-0.407759
C	 1.6181166237	-2.6662241591	-2.2831635055	-0.417259
H	 0.862329074	 2.1138262452	 0.1643911378	 0.114981
H	-0.7457594448	 2.0142537476	-0.565403109	 0.113133
H	-0.5468407963	 1.8142693468	 1.1745232784	 0.110983
H	 0.6890582685	-0.3051661621	 0.8684704379	 0.111933
H	-0.9182824116	-0.3923501177	 0.1711548281	 0.089329
H	 0.0976232959	 1.1926939628	-2.6161956102	 0.109997
H	 0.2536057315	-0.3630079496	-3.4294160701	 0.111495
H	-1.1470157297	-0.0378898651	-2.4022273125	 0.115982
H	 2.5608541092	-0.2098363095	-2.3628768281	 0.083805
H	 2.1500615208	 1.162126878	-1.3295907059	 0.083439
H	 3.8062233053	-0.144276354	-0.3854513653	 0.286874
H	 1.0292357607	-2.3041178316	-0.270753939	 0.084
H	-1.4714845327	-2.1774069186	-0.7451046438	 0.111369
H	-1.119002989	-2.4575587965	-2.45437797	 0.111348
H	-0.7155199911	-3.6845739909	-1.2556336703	 0.108239
H	 2.6628138898	-2.4347055344	-2.065355712	 0.12158
H	 1.5079411169	-3.755253604	-2.2471598365	 0.104501
H	 1.3987777191	-2.3567884703	-3.3118008106	 0.10632
57.3437	92.5869	146.5159	187.5487	197.495	226.7934	247.7379	254.6852	267.9176	286.845	304.906	335.0941	354.1708	383.7745	411.0146	446.0047	515.9472	558.6744	685.4888	779.2986	816.5803	905.3046	917.0932	936.289	967.9578	986.0337	1003.2131	1023.9626	1059.3736	1075.7794	1100.7757	1128.1666	1169.4815	1191.3038	1205.6257	1227.8302	1280.7682	1289.4257	1323.2553	1351.0078	1369.0478	1378.3263	1399.4025	1412.9196	1414.9067	1421.4436	1457.7152	1480.2628	1486.4803	1493.1253	1494.1348	1502.6624	1506.6045	1510.1837	1512.3492	1520.6422	1536.6409	2989.0923	3014.0345	3028.6171	3031.3833	3036.3272	3036.9902	3040.1972	3044.045	3076.7632	3086.0404	3094.4266	3098.0877	3101.2209	3108.3663	3110.2134	3112.4064	3124.0507	3835.7322
CCC(C)(CO)C(C)C	CC[C@@](C)(CO)C(C)C	
InChI=1S/C8H18O/c1-5-8(4,6-9)7(2)3/h7,9H,5-6H2,1-4H3	InChI=1S/C8H18O/c1-5-8(4,6-9)7(2)3/h7,9H,5-6H2,1-4H3/t8-/m0/s1
