20
gdb 98402	2.14826	1.26585	0.8086	1.9059	82.42	-0.2208	-0.0149	0.2059	1447.6129	0.169483	-436.500305	-436.489156	-436.488211	-436.537486	37.858	
C	 0.3478847958	 1.3414787016	 0.0425398716	-0.333841
N	 0.0673616353	-0.0749133136	 0.0316291801	-0.294143
C	-1.1841063165	-0.5773727572	 0.063375282	 0.366189
O	-2.2076399714	 0.0915954942	 0.1031053571	-0.40325
C	-1.1921954993	-2.1062444448	 0.0440320467	 0.302903
N	-2.3999811068	-2.7356113632	 0.0717334835	-0.351291
C	-3.7454961833	-2.1732475862	 0.1164506162	-0.296935
N	-0.0455588862	-2.6907793495	 0.0031210605	-0.309798
C	-0.0060331611	-4.1368202229	-0.0165579785	-0.34572
H	 0.8903712403	 1.6476681945	-0.8594296226	 0.125481
H	-0.6061048807	 1.8699000937	 0.0794691922	 0.16317
H	 0.9455744164	 1.6229564206	 0.9172480373	 0.125484
H	 0.7992736746	-0.7736833952	 0.0011841609	 0.259903
H	-2.350709448	-3.7393379544	 0.0575362285	 0.245474
H	-4.4457717357	-3.0129729497	 0.1247684518	 0.107966
H	-3.9050574723	-1.5669949404	 1.0100051725	 0.146927
H	-3.9538095022	-1.5436555547	-0.7504972333	 0.146926
H	-0.4681490156	-4.5841833299	 0.8800271921	 0.110164
H	-0.521690355	-4.561681937	-0.8947419778	 0.110088
H	 1.0323333519	-4.4751957459	-0.0522160306	 0.124304
44.1648	81.4377	90.0106	118.7078	146.8946	177.9119	200.305	211.7864	237.4145	324.6977	365.1978	371.8748	427.2961	536.9838	586.4104	674.5428	692.8985	814.4641	835.3897	1016.6537	1064.8245	1104.1321	1106.34	1152.7598	1153.414	1155.9103	1185.3102	1210.3679	1238.1298	1386.0827	1429.5924	1439.8363	1472.4873	1478.4561	1484.4478	1496.4121	1498.443	1501.0163	1504.4402	1524.2965	1574.8566	1695.4575	1772.1623	2947.4117	2987.9016	3023.5947	3050.838	3072.6809	3100.0341	3125.5067	3128.106	3144.6811	3565.4342	3664.0324
CNC(=O)C(NC)=NC	CNC(=O)C(=NC)NC	
InChI=1S/C5H11N3O/c1-6-4(7-2)5(9)8-3/h1-3H3,(H,6,7)(H,8,9)	InChI=1S/C5H11N3O/c1-6-4(7-2)5(9)8-3/h1-3H3,(H,6,7)(H,8,9)
