19
gdb 32672	2.14956	1.58963	0.98737	2.9333	80.66	-0.1818	0.0325	0.2143	1238.7344	0.158567	-419.227478	-419.217906	-419.216962	-419.263308	33.652	
C	 0.1047615258	 1.5651817859	 0.027263115	-0.377924
C	 0.0095160722	 0.0403951283	-0.0643314141	-0.151574
N	 0.6535383969	-0.5010725066	-1.2474550549	-0.119856
C	 0.0760093127	-0.8123092794	-2.4749280956	-0.117919
C	 1.0555297677	-1.2233933579	-3.2872053577	-0.06321
O	 2.2649254616	-1.1748606351	-2.6135810723	-0.230026
C	 2.0179969045	-0.7090880607	-1.3355768383	 0.517686
N	 2.8664071918	-0.5082695177	-0.4176684183	-0.400414
C	 4.2576980223	-0.8120184931	-0.7032802077	-0.316413
H	 1.1536701858	 1.8701076538	 0.0498318057	 0.151622
H	-0.3833728526	 2.0451195845	-0.8267511889	 0.116085
H	-0.3790586331	 1.9190716742	 0.9430153049	 0.117221
H	 0.4994121255	-0.415326793	 0.8009840258	 0.142528
H	-1.034635602	-0.2883454434	-0.0742423151	 0.108565
H	-0.9832452297	-0.7215964793	-2.6458931641	 0.145129
H	 1.0783437376	-1.5697179723	-4.3044725671	 0.146309
H	 4.8582802722	-0.5964267722	 0.1844440478	 0.112662
H	 4.4140525108	-1.8682230019	-0.9671321038	 0.109742
H	 4.6574752498	-0.2120202741	-1.5338592714	 0.109788
42.0601	47.047	83.3066	175.7754	183.0288	231.7266	251.8557	316.1154	394.219	548.0484	575.4947	627.6551	661.9927	734.7773	760.9976	779.5223	787.3329	894.2835	950.3381	1041.9724	1046.9887	1090.1085	1107.0458	1123.5786	1128.4138	1153.5063	1178.2355	1274.6429	1283.2423	1390.924	1398.3382	1407.2491	1441.106	1447.965	1477.0823	1489.3944	1492.3228	1500.3859	1506.3785	1655.7012	1786.742	2983.7753	3026.734	3041.3537	3050.7476	3094.5433	3096.5364	3113.9416	3134.8498	3279.9407	3313.5614
CCN1C=COC1=NC	CCn1ccoc1=NC	
InChI=1S/C6H10N2O/c1-3-8-4-5-9-6(8)7-2/h4-5H,3H2,1-2H3	InChI=1S/C6H10N2O/c1-3-8-4-5-9-6(8)7-2/h4-5H,3H2,1-2H3
