16
gdb 55542	4.55169	0.83945	0.74674	5.8993	68.85	-0.2498	-0.0372	0.2125	1489.5834	0.121791	-475.049268	-475.039851	-475.038907	-475.085361	31.981	
C	-0.4054582202	 1.5449642058	 0.0756820572	-0.504068
C	 0.1562448988	 0.135012208	 0.1722422804	 0.416373
O	 0.6026126193	-0.341868185	 1.180794974	-0.285295
N	 0.0986829423	-0.5535678646	-1.0555650787	-0.405789
C	 0.4845167411	-1.8711195954	-1.3149304924	 0.44433
O	 0.8910683803	-2.6483397174	-0.4919286199	-0.307831
C	 0.3509509305	-2.2413113076	-2.7795893877	-0.058694
C	 1.2230093334	-3.3053404425	-3.3073712658	-0.159978
O	-0.1455705864	-3.5534868119	-3.0213985973	-0.20562
H	 0.135528844	 2.133298729	-0.6734386158	 0.142167
H	-1.4614421593	 1.5233307499	-0.2148028747	 0.146517
H	-0.309386528	 2.0242364285	 1.0489002944	 0.161759
H	-0.2813736757	-0.0384375992	-1.8353845748	 0.254219
H	-0.026224724	-1.4803416084	-3.4646415173	 0.091388
H	 1.4924629728	-3.2908200542	-4.3621581308	 0.122333
H	 1.9274246811	-3.770284155	-2.6220816707	 0.14819
36.8212	52.0112	96.601	116.4097	140.6832	277.2055	298.0963	311.5534	385.1825	558.6694	566.8558	613.4637	706.1174	764.2729	837.8854	884.9818	915.7492	931.1817	1005.5394	1046.2012	1051.7068	1096.4477	1152.0486	1160.2295	1175.2564	1215.2521	1295.6103	1384.373	1421.6523	1466.7779	1481.9969	1504.6646	1510.5332	1813.0228	1867.7537	3040.1986	3091.1908	3098.4328	3102.7401	3168.1615	3198.5101	3618.0928
CC(=O)NC(=O)C1CO1	CC(=O)NC(=O)[C@H]1CO1	
InChI=1S/C5H7NO3/c1-3(7)6-5(8)4-2-9-4/h4H,2H2,1H3,(H,6,7,8)	InChI=1S/C5H7NO3/c1-3(7)6-5(8)4-2-9-4/h4H,2H2,1H3,(H,6,7,8)/t4-/m1/s1
