20
gdb 67805	2.29315	2.00782	1.54961	1.3726	83.5	-0.2197	0.0082	0.2278	983.6638	0.171131	-365.981742	-365.973663	-365.972718	-366.013617	32.504	
C	-0.0233071414	 1.5041533229	 0.0224945312	-0.488868
C	-0.052725484	 0.0069099802	-0.1311982718	 0.276418
C	 0.9024290669	-0.6878267872	-1.0357824895	-0.141848
C	 0.4850596049	-1.9388065814	-1.2698067822	-0.100436
C	-0.7186103321	-2.2095549738	-0.4100067121	-0.172737
C	-0.2027196107	-2.1566480165	 1.0727898653	-0.144493
N	-0.4767758012	-0.7017726761	 1.1834511658	-0.234222
C	-1.3008555043	-0.7961841012	-0.0713521002	 0.307866
C	-2.7217172783	-0.3429077989	-0.1953631536	-0.52023
H	 0.9475539375	 1.8327757216	 0.4086146966	 0.123477
H	-0.1883455749	 1.9990663538	-0.9410130348	 0.116366
H	-0.7875111478	 1.8403959505	 0.7263011481	 0.13008
H	 1.8141111429	-0.2272690153	-1.3966413246	 0.094631
H	 1.0172677093	-2.705562928	-1.8197804198	 0.098393
H	-1.3789481395	-3.0269352769	-0.6966863287	 0.070059
H	-0.8807773321	-2.6693649242	 1.7600395275	 0.109242
H	 0.829736553	-2.4712378284	 1.2583942266	 0.096268
H	-2.8518223942	 0.6526331162	 0.2379396891	 0.131444
H	-3.0273916047	-0.3033416968	-1.2471572577	 0.124869
H	-3.4006703591	-1.0265088104	 0.326570795	 0.12372
157.8912	180.2256	205.4716	224.8692	302.2056	324.4237	377.3717	436.7774	540.5415	589.8331	628.3763	654.6038	727.0211	765.7818	793.7909	857.9904	871.1117	908.1641	925.5303	941.7109	963.3462	1014.5116	1058.437	1072.6167	1086.4374	1108.9373	1151.7837	1163.8488	1174.0216	1204.6893	1245.0353	1287.55	1307.5532	1373.7226	1402.3573	1414.338	1430.0806	1478.0839	1486.7443	1490.2815	1492.3054	1499.269	1639.3356	3028.3668	3034.1332	3040.1115	3088.2928	3093.1239	3101.9656	3113.1683	3121.3317	3127.5343	3193.1518	3217.6705
CC12C=CC3CN1C23C	C[C@@]12C=C[C@H]3CN1[C@@]23C	
InChI=1S/C8H11N/c1-7-4-3-6-5-9(7)8(6,7)2/h3-4,6H,5H2,1-2H3	InChI=1S/C8H11N/c1-7-4-3-6-5-9(7)8(6,7)2/h3-4,6H,5H2,1-2H3/t6-,7-,8+,9?/m0/s1
