20
gdb 17658	3.94212	1.41024	1.36776	1.8727	74.15	-0.2424	0.0808	0.3232	1015.5581	0.177042	-348.968355	-348.960144	-348.9592	-349.001551	30.881	
C	 0.0281748683	 1.6090590611	-0.1168408352	-0.479533
C	 0.0062570003	 0.0827235222	-0.0589339096	 0.30021
C	 1.0892207779	-0.5609491901	-0.9715187549	-0.110899
O	 1.9256815186	-0.8767271189	 0.1579970882	-0.274106
C	 0.8971300143	-0.4801752118	 1.0853689986	-0.110893
C	-1.3659896552	-0.5503593425	-0.1622103496	-0.041856
C	-2.6088083356	 0.0430930704	 0.4567719807	-0.279497
C	-2.4687372542	-0.0157304609	-1.0442758988	-0.279499
H	 1.0577510035	 1.9707208205	-0.03485967	 0.127155
H	-0.3784500679	 1.985723637	-1.0609811103	 0.11945
H	-0.5433072088	 2.055048347	 0.7035999348	 0.119449
H	 0.7592069414	-1.4636341786	-1.5038736769	 0.091632
H	 1.5892553436	 0.1090878691	-1.6818060974	 0.09552
H	 1.2620790817	 0.246660409	 1.8215848029	 0.09552
H	 0.467829118	-1.3411152054	 1.6160610127	 0.091633
H	-1.3180135284	-1.6362744778	-0.1151799209	 0.083649
H	-3.3080799962	-0.6308331487	 0.9391975883	 0.112711
H	-2.540793395	 1.0168436601	 0.9284375897	 0.113321
H	-2.3077261675	 0.9189554922	-1.5693677694	 0.113321
H	-3.0717067487	-0.7301081538	-1.5938074228	 0.112711
49.7875	66.0753	216.3728	260.0041	263.156	355.2689	366.5296	392.3045	471.7429	625.8954	784.9436	832.2324	843.5672	863.0446	902.3673	924.6495	940.7844	966.6834	1001.4684	1010.467	1039.0116	1057.5631	1080.2752	1090.6175	1149.2805	1159.3484	1162.9105	1171.9196	1193.2651	1201.7464	1232.5868	1306.368	1321.3815	1371.8654	1406.3804	1423.0608	1467.9465	1501.0839	1502.5168	1508.4904	1515.6539	1535.779	2993.4715	3004.8326	3033.9765	3047.4123	3049.1488	3101.9194	3104.964	3122.5169	3136.6317	3141.0395	3212.6715	3227.3653
CC1(COC1)C1CC1	CC1(COC1)C1CC1	
InChI=1S/C7H12O/c1-7(4-8-5-7)6-2-3-6/h6H,2-5H2,1H3	InChI=1S/C7H12O/c1-7(4-8-5-7)6-2-3-6/h6H,2-5H2,1H3
