25
gdb 76615	2.14327	1.33223	1.11982	1.5135	89.41	-0.248	0.0597	0.3077	1299.529	0.22575	-389.487599	-389.476265	-389.475321	-389.523146	42.766	
C	-0.8442527495	 1.2595119471	-0.998194868	-0.412426
C	-0.2119522022	-0.012042457	-0.4678298982	-0.044979
C	 1.280429735	-0.2878197896	-0.5355208576	-0.044992
C	 2.2755730339	 0.6831629458	-1.1394502191	-0.412431
C	 0.600735295	-0.1116346685	 0.8099642234	 0.003045
C	 0.8512423704	 0.9906547608	 1.8362872043	 0.303556
C	-0.3706615429	 1.1131254556	 2.7630766397	-0.406508
C	 2.1138818062	 0.655035124	 2.6487280387	-0.40661
O	 1.050309331	 2.2397232163	 1.1599490498	-0.450821
H	-0.2473832599	 2.143098373	-0.779646286	 0.143052
H	-0.9863721531	 1.1889375204	-2.0830433215	 0.104425
H	-1.8335424142	 1.4131971636	-0.5511742336	 0.105303
H	-0.834146505	-0.8860191516	-0.6530027591	 0.072978
H	 1.5312817139	-1.3231076583	-0.760237082	 0.072969
H	 2.054449777	 1.7178048236	-0.883726623	 0.143021
H	 3.2896538907	 0.4667995677	-0.7831089705	 0.105296
H	 2.28789826	 0.5842865929	-2.2313026088	 0.104433
H	 0.4515402313	-1.049284196	 1.342320329	 0.073408
H	-0.5716866333	 0.1726174002	 3.2858592011	 0.11263
H	-0.2026141958	 1.8853910955	 3.5240408364	 0.095766
H	-1.2574591816	 1.3852922461	 2.1853528335	 0.127849
H	 2.9844700923	 0.6035647128	 1.9902055347	 0.12787
H	 2.299745123	 1.4237063986	 3.4091981517	 0.095775
H	 2.0126911699	-0.3040613137	 3.1665568369	 0.11267
H	 1.206057188	 2.9095870507	 1.8338901481	 0.27472
59.7333	134.1217	155.1767	191.1074	210.4024	223.2327	237.3428	246.6273	270.5332	276.7289	293.2486	374.5966	398.7476	417.9232	475.1337	577.8884	598.3383	729.6492	762.6814	778.465	854.9791	914.3792	955.2357	956.585	970.4945	1006.8821	1016.9441	1056.1878	1088.1516	1118.3558	1140.8037	1160.9822	1168.8524	1191.6965	1205.9514	1217.8685	1281.7754	1344.523	1381.3474	1394.0109	1407.138	1417.3352	1417.4731	1423.2712	1455.4391	1476.5477	1481.7028	1488.3816	1496.602	1498.2179	1503.3902	1508.6162	1521.9338	3021.3692	3026.095	3027.1671	3028.8023	3073.2869	3075.2314	3087.4772	3094.1655	3102.1237	3106.0467	3122.5619	3122.7932	3127.1906	3164.1352	3171.7531	3808.7731
CC1C(C)C1C(C)(C)O	C[C@H]1[C@@H](C)[C@H]1C(C)(C)O	
InChI=1S/C8H16O/c1-5-6(2)7(5)8(3,4)9/h5-7,9H,1-4H3	InChI=1S/C8H16O/c1-5-6(2)7(5)8(3,4)9/h5-7,9H,1-4H3/t5-,6+,7-
