18
gdb 32942	2.09714	0.96258	0.83399	3.157	81.38	-0.2268	-0.0721	0.1548	1525.1148	0.144168	-439.113026	-439.102159	-439.101215	-439.153294	35.707	
C	 1.553573756	 0.7082354186	-0.0595484295	-0.299926
N	 0.5436642621	-0.2178817563	-0.5732628191	-0.505392
H	-0.0279272547	 0.2446237643	-1.2732737442	 0.226255
H	 0.9880375797	-0.9970451533	-1.0493875149	 0.245856
C	-3.9607827855	-1.6777760677	-0.1659005377	-0.424811
C	-2.7631452745	-2.2176693279	 0.0620188453	 0.427484
C	-2.1600468296	-2.6307450469	 1.3220301831	-0.164885
C	-0.938113594	-3.1139921254	 1.0600452443	-0.224085
C	-0.715124824	-3.0265059653	-0.3964969467	 0.447813
O	 0.22002845	-3.3421437987	-1.0754480778	-0.356208
O	-1.8711066428	-2.4808325753	-0.9496074809	-0.245985
H	 2.2277500722	 1.1403724332	-0.8170715827	 0.096241
H	 1.0592225411	 1.5384651856	 0.4561327786	 0.116445
H	 2.1752395193	 0.1915361514	 0.6790365531	 0.12043
H	-4.6328871969	-1.489820754	 0.6608467643	 0.128388
H	-4.2824619197	-1.4179620083	-1.1657052143	 0.13653
H	-2.6556718288	-2.5339157844	 2.277646856	 0.136567
H	-0.1942875098	-3.5057920596	 1.7361178931	 0.139283
15.1748	27.8362	32.1991	70.6669	93.9729	123.0456	180.0127	282.1245	322.6744	353.7303	519.121	609.6269	651.0646	727.5472	735.4246	759.8153	844.3398	882.0824	885.8188	887.8064	919.4875	956.0976	983.5779	996.1375	1066.7349	1084.5438	1120.7948	1181.284	1309.8235	1351.6868	1354.2019	1437.0554	1460.0387	1497.4872	1518.4205	1621.2624	1669.7594	1722.4492	1869.5	2967.4363	3057.9529	3096.2721	3181.0773	3237.7868	3269.2341	3275.679	3498.5922	3573.7715
C[NH2+]CC1=CC=C([O-])O1	CN.C=C1C=CC(=O)O1	
InChI=1S/C6H9NO2/c1-7-4-5-2-3-6(8)9-5/h2-3,7-8H,4H2,1H3	InChI=1S/C5H4O2.CH5N/c1-4-2-3-5(6)7-4;1-2/h2-3H,1H2;2H2,1H3
