19
gdb 74975	2.67945	1.60612	1.58508	1.4555	75.82	-0.2411	0.0086	0.2497	984.3755	0.161229	-423.028451	-423.020951	-423.020007	-423.060085	29.862	
C	-0.0338941076	 1.4966042775	 0.0427763154	-0.509682
C	 0.000387479	 0.0036404429	-0.032149011	 0.357977
C	-0.0153119121	-0.7609082651	-1.1279567744	-0.191785
C	 0.0123782005	-2.2338390585	-0.8056958126	 0.027575
C	 1.2665048479	-2.5129760413	 0.0401997303	-0.066401
O	 1.2324820922	-1.6767250214	 1.1995859696	-0.276604
C	 0.051721759	-0.8541657968	 1.2173306896	-0.030286
C	-1.1632418798	-1.7975491338	 1.2022680149	-0.069915
O	-1.1253411024	-2.5822728875	 0.0101714031	-0.277309
H	 0.8559188632	 1.884098361	 0.5547789047	 0.134897
H	-0.0792680213	 1.9464074162	-0.9529317464	 0.126476
H	-0.9017636404	 1.849840451	 0.6143535296	 0.128331
H	-0.0370785373	-0.3885920392	-2.1465087502	 0.091997
H	-0.0331085024	-2.8804439519	-1.6827287215	 0.079724
H	 1.2697457121	-3.5629438263	 0.3594808187	 0.102647
H	 2.1822439277	-2.310646971	-0.5308763389	 0.0967
H	 0.0977702626	-0.2752269484	 2.1418354029	 0.077236
H	-1.1172105062	-2.4675697026	 2.0703500301	 0.103123
H	-2.1033360146	-1.2302329445	 1.2430372561	 0.095299
142.0033	183.3008	198.9377	280.8534	338.5971	397.9285	421.7839	488.7176	542.2151	653.9172	697.6429	807.6105	823.8057	847.4004	865.2757	879.4357	949.5264	968.1242	997.7307	1025.7969	1062.5319	1069.5644	1078.9092	1092.1787	1100.1926	1197.4818	1227.9722	1232.3043	1288.4379	1303.0111	1315.1919	1330.4251	1372.9904	1392.8771	1394.7897	1412.6569	1478.337	1486.6296	1509.1111	1513.8048	1715.4211	3001.3256	3007.1213	3016.9696	3043.7195	3049.2506	3064.9572	3097.5405	3110.0825	3111.3979	3183.5765
CC1=CC2COC1CO2	CC1=C[C@H]2CO[C@@H]1CO2	
InChI=1S/C7H10O2/c1-5-2-6-3-9-7(5)4-8-6/h2,6-7H,3-4H2,1H3	InChI=1S/C7H10O2/c1-5-2-6-3-9-7(5)4-8-6/h2,6-7H,3-4H2,1H3/t6-,7+/m0/s1
