20
gdb 78898	2.94653	1.98831	1.57947	1.3167	80.49	-0.2299	0.0782	0.3081	924.6023	0.17397	-365.964165	-365.957517	-365.956573	-365.994742	28.506	
C	-0.0512042034	 1.5300524715	 0.0399375478	-0.402249
C	 0.0128232052	 0.0070656877	-0.043853923	 0.063041
C	 0.7546559942	-0.5040039293	-1.2933611557	-0.052919
C	 0.5021282242	-2.0283164439	-1.4653829667	-0.257549
C	 1.6696188602	-2.2526942663	-0.4852059439	-0.033728
C	 1.42932857	-1.8106981478	 0.9844476017	-0.069107
C	 2.1904323831	-0.5300621173	 0.781387689	-0.075841
C	 2.2070925918	-0.8134115568	-0.7458214162	-0.057885
N	 0.7767329825	-0.4993315696	 1.1161202207	-0.098728
H	 0.951344946	 1.9657731994	-0.0352046346	 0.116035
H	-0.6586185277	 1.9364173607	-0.7747812319	 0.11015
H	-0.4860511619	 1.8451155296	 0.9922952075	 0.123722
H	-1.0015390894	-0.4062811376	 0.0015616184	 0.075897
H	 0.6369417228	 0.1392178902	-2.1675176071	 0.063738
H	-0.4912539856	-2.4038974298	-1.1973528995	 0.090456
H	 0.7578890738	-2.3814698427	-2.4687916916	 0.094548
H	 2.3111189923	-3.1315246988	-0.5668004236	 0.067397
H	 1.3723193918	-2.470997478	 1.8431775861	 0.089616
H	 2.9208264375	-0.0133245797	 1.3929706834	 0.086808
H	 3.0789455127	-0.6083452613	-1.3613785407	 0.066598
167.7404	230.9805	293.5448	344.7268	420.3731	532.2186	651.379	671.0355	738.4581	755.0956	787.6933	798.1674	854.1193	868.8987	881.2528	906.7815	925.0706	957.5009	966.6	996.7781	1021.0243	1031.8085	1037.4845	1058.6601	1094.2005	1100.2784	1130.1191	1158.7824	1188.017	1189.801	1214.4221	1242.9212	1251.9901	1264.1211	1296.3749	1305.3822	1317.3549	1350.2651	1375.8179	1407.4836	1489.0375	1492.6464	1497.0996	3034.6098	3035.6527	3040.7172	3085.2752	3091.5496	3097.9367	3103.277	3118.69	3149.9911	3162.6737	3180.0739
CC1C2CC3C4C(C23)N14	C[C@H]1[C@@H]2C[C@@H]3[C@H]4[C@@H]([C@H]23)N14	
InChI=1S/C8H11N/c1-3-4-2-5-6(4)8-7(5)9(3)8/h3-8H,2H2,1H3	InChI=1S/C8H11N/c1-3-4-2-5-6(4)8-7(5)9(3)8/h3-8H,2H2,1H3/t3-,4-,5-,6+,7-,8+,9?/m0/s1
