22
gdb 91040	2.14158	1.76946	1.48224	1.7173	84.57	-0.2175	0.0763	0.2938	1060.6737	0.194577	-367.147263	-367.138815	-367.13787	-367.179515	34.163	
C	-0.3156798371	 1.5558061196	-0.0505867245	-0.420877
C	 0.0151011217	 0.0683228709	-0.0327135118	-0.022345
C	 1.0376208134	-0.5393907815	-1.0587660946	-0.281297
C	 1.7842865517	-1.241861408	 0.1097634617	-0.014193
N	 3.0350593028	-0.6277641154	 0.7253595955	-0.149904
C	 2.9454448578	 0.8365147872	 0.6264889989	-0.254262
C	 2.1092352442	 0.1731420289	 1.6442141467	-0.085908
C	 0.8478125512	-0.5597563651	 1.135248044	 0.346209
C	 0.1094044476	-1.3239409221	 2.2132180535	-0.496785
H	 0.5713986349	 2.185587885	 0.0538639697	 0.119406
H	-0.8143615169	 1.831785658	-0.9863869475	 0.11512
H	-0.9954216086	 1.8111238625	 0.7703477641	 0.115014
H	-0.9262701685	-0.488469557	-0.10526807	 0.07202
H	 0.5893015309	-1.2431641352	-1.7643262429	 0.100182
H	 1.6230843731	 0.1776723193	-1.6396520459	 0.1071
H	 1.8976895324	-2.3246432473	 0.0477009999	 0.076628
H	 3.8489574126	 1.3209555357	 0.9877900014	 0.119177
H	 2.5245732375	 1.3064600331	-0.2533889999	 0.113301
H	 2.3336815366	 0.2717914867	 2.7037002463	 0.087608
H	-0.4448120179	-0.6436079101	 2.8722809546	 0.116242
H	-0.6107133765	-2.0254603706	 1.7785580925	 0.113562
H	 0.8027568472	-1.8971978047	 2.8388057184	 0.124002
169.9019	184.1588	198.1638	226.5012	232.0881	296.3507	362.6048	393.4807	462.9294	548.4437	609.7194	637.2134	712.9854	741.9115	752.3769	857.2285	883.5342	902.7839	916.884	947.7878	982.5071	993.487	1040.1277	1054.2195	1088.33	1111.2618	1120.8935	1139.5882	1156.8703	1178.1891	1181.0491	1216.3583	1231.1491	1251.279	1269.0047	1285.7483	1307.9092	1357.3134	1397.0456	1409.7612	1413.3864	1477.9789	1491.7229	1494.4372	1495.2584	1499.238	1522.5109	3017.2439	3027.2389	3033.8708	3063.1996	3079.5188	3088.6487	3094.3882	3098.1711	3111.3916	3116.6747	3125.4407	3135.0639	3214.8672
CC1CC2N3CC3C12C	C[C@H]1C[C@H]2N3C[C@H]3[C@@]12C	
InChI=1S/C8H13N/c1-5-3-6-8(5,2)7-4-9(6)7/h5-7H,3-4H2,1-2H3	InChI=1S/C8H13N/c1-5-3-6-8(5,2)7-4-9(6)7/h5-7H,3-4H2,1-2H3/t5-,6+,7-,8-,9?/m0/s1
