18
gdb 73929	2.75112	1.24776	0.87238	4.6461	80.4	-0.213	-0.0067	0.2062	1294.5971	0.147255	-439.119886	-439.110679	-439.109735	-439.154739	32.253	
C	 0.0357520725	 1.5066899166	 0.0158131812	-0.510691
C	 0.0077382138	 0.0149003879	-0.0539709967	 0.148856
C	-1.0300673239	-0.8274238289	-0.009190635	 0.286032
C	-0.5597428401	-2.2577461294	-0.1167946429	-0.144506
O	 0.855839779	-2.1590115053	-0.2289611386	-0.26686
C	 1.2659508646	-0.7991215251	-0.1966862539	-0.129774
N	-2.3777632871	-0.4842415595	 0.1184430927	-0.391168
C	-3.4442775768	-1.3428256734	 0.164145711	 0.142269
O	-3.3872380518	-2.5497120731	 0.1010765636	-0.302589
H	 0.6345244457	 1.8543191771	 0.8674048035	 0.137827
H	 0.4899957934	 1.9390011988	-0.8849467598	 0.137824
H	-0.9608967304	 1.9480872472	 0.1193282677	 0.109894
H	-0.8343133759	-2.8536301265	 0.7628860433	 0.125104
H	-0.9791370782	-2.7693506361	-0.9923587147	 0.125166
H	 1.818443781	-0.5506160361	-1.1191378666	 0.097837
H	 1.9630360317	-0.6359175162	 0.6431871365	 0.097811
H	-2.59446501	 0.499345033	 0.1831702321	 0.251932
H	-4.3950009377	-0.7852161209	 0.2690396467	 0.085035
51.017	101.5063	112.1595	176.3181	179.9931	228.344	249.9945	344.2538	390.649	562.4991	574.3662	585.5015	621.0444	809.1928	857.6188	939.7083	956.4299	981.8771	1019.3787	1049.1036	1082.3537	1091.1907	1126.8573	1134.7537	1174.2065	1222.5077	1256.4851	1313.5667	1383.7646	1396.4459	1425.5433	1445.1678	1472.5821	1495.5575	1505.9401	1515.4995	1531.5632	1760.6752	1809.7314	2948.4971	2950.7957	2960.2799	3014.8985	3020.3858	3045.0691	3061.1838	3090.1398	3610.9269
CC1=C(COC1)NC=O	CC1=C(COC1)NC=O	
InChI=1S/C6H9NO2/c1-5-2-9-3-6(5)7-4-8/h4H,2-3H2,1H3,(H,7,8)	InChI=1S/C6H9NO2/c1-5-2-9-3-6(5)7-4-8/h4H,2-3H2,1H3,(H,7,8)
