18
gdb 90844	3.16744	1.84001	1.4313	2.8325	75.09	-0.221	0.0682	0.2892	927.197	0.149488	-401.830439	-401.823744	-401.8228	-401.861229	27.928	
O	 0.0929231142	 1.407546867	-0.0703688457	-0.437267
C	-0.0146179339	-0.0033352684	 0.0052178896	-0.040279
C	 0.4256119532	-0.6048362899	 1.4092058062	-0.270839
C	-0.9065455198	-1.1690529569	 1.9847449232	-0.083789
C	-1.6038351633	-1.8002769042	 0.7738400486	-0.015075
N	-3.0187623663	-1.2084233194	 0.9965519183	-0.193015
C	-2.9202114681	-0.531070863	-0.3823273598	-0.278946
C	-1.4667931268	-0.4135420907	 0.1034555242	 0.320163
C	-1.9911407047	-0.1808348547	 1.5425182649	-0.002403
H	 1.0269123951	 1.6387813012	-0.0670555319	 0.284991
H	 0.5241465289	-0.4828057769	-0.8238146454	 0.069121
H	 1.182521154	-1.3885977996	 1.3013237015	 0.100672
H	 0.8434244648	 0.1922558416	 2.0322468688	 0.10267
H	-0.8814653638	-1.6309416465	 2.9730408677	 0.070496
H	-1.4695033656	-2.7781858854	 0.307065174	 0.076432
H	-3.1342641672	-1.2076750768	-1.215657998	 0.102124
H	-3.511226517	 0.3858673272	-0.4612980865	 0.110283
H	-2.3156960039	 0.7636150853	 1.9797000504	 0.084662
135.9596	244.7729	284.8293	364.7701	429.5322	478.5064	502.5104	664.0584	731.2139	768.7694	809.0121	834.2162	852.2314	865.6604	887.2574	912.7799	933.712	945.7221	971.0295	1003.6515	1039.0654	1082.7838	1093.6125	1106.5263	1121.0393	1161.2989	1186.4322	1189.3856	1206.2604	1226.6348	1233.863	1249.9472	1265.0725	1304.7877	1329.3586	1342.0409	1434.1709	1481.6767	1514.1402	3002.5271	3044.3331	3046.3713	3090.7441	3095.8347	3102.3592	3109.091	3117.8948	3820.0021
OC1CC2C3N4CC13C24	O[C@H]1C[C@@H]2[C@H]3N4C[C@]13[C@H]24	
InChI=1S/C7H9NO/c9-4-1-3-5-7(4)2-8(5)6(3)7/h3-6,9H,1-2H2	InChI=1S/C7H9NO/c9-4-1-3-5-7(4)2-8(5)6(3)7/h3-6,9H,1-2H2/t3-,4-,5-,6+,7+/m0/s1
