20
gdb 90929	2.4056	1.74665	1.48098	1.4184	77.48	-0.2382	0.0641	0.3023	1005.3241	0.172045	-403.118011	-403.110009	-403.109064	-403.150091	31.994	
C	-0.1061119342	 1.5085427649	-0.0207214827	-0.5142
C	 0.0127674929	 0.0160891672	 0.0188447706	 0.314748
C	 0.5364388876	-0.9908359901	-0.957100232	-0.08941
C	 1.2746270288	-1.7534936301	 0.1495122221	-0.261925
C	 0.4820711477	-0.9073592478	 1.19539145	-0.125381
C	-0.7877467345	-1.6511978045	 1.6119242341	 0.147809
O	-1.5840761436	-0.9238109601	 2.5359465891	-0.446108
C	-1.4825189667	-1.8639540178	 0.2378453868	-0.215046
N	-0.9095222617	-0.8671726142	-0.692183869	-0.13501
H	 0.8471248564	 1.9862950939	 0.2294464045	 0.123388
H	-0.4079221491	 1.8373864882	-1.0188789342	 0.136343
H	-0.8541330133	 1.8758490618	 0.6929959305	 0.111836
H	 0.8595057507	-0.870935801	-1.9860754702	 0.088596
H	 1.1650367999	-2.8431914502	 0.1927262539	 0.094114
H	 2.3390171159	-1.5068372946	 0.1522453424	 0.107702
H	 1.0454472707	-0.4805873866	 2.0242945995	 0.0755
H	-0.5636877395	-2.598027614	 2.1127724644	 0.086374
H	-1.8462624704	-0.0965711236	 2.1175534219	 0.281455
H	-1.340481297	-2.8749281339	-0.1555362918	 0.108748
H	-2.5590017305	-1.6921486975	 0.3338945002	 0.110467
116.0742	175.5822	212.1875	267.2113	290.6245	327.8236	393.8306	428.4633	485.5156	601.6273	724.2125	735.9498	745.586	803.4453	825.7988	859.6998	924.4428	926.1935	953.5179	978.1972	1002.8914	1021.5699	1069.4125	1078.0718	1103.8483	1121.4993	1139.7939	1172.5329	1189.5348	1214.2355	1248.4839	1261.8045	1269.7053	1297.8254	1307.3864	1329.2867	1404.0278	1430.3776	1443.3034	1483.5121	1486.0403	1490.3193	1507.019	3022.1113	3036.5352	3051.1648	3070.6357	3081.5732	3095.9925	3102.5496	3116.1773	3125.9113	3162.592	3805.527
CC12C3CC1C(O)CN23	C[C@@]12[C@H]3C[C@@H]1[C@@H](O)CN23	
InChI=1S/C7H11NO/c1-7-4-2-6(7)8(7)3-5(4)9/h4-6,9H,2-3H2,1H3	InChI=1S/C7H11NO/c1-7-4-2-6(7)8(7)3-5(4)9/h4-6,9H,2-3H2,1H3/t4-,5+,6-,7+,8?/m1/s1
