15
gdb 27412	2.53256	1.64068	1.04888	2.3478	79.55	-0.2466	-0.0888	0.1577	1097.757	0.112809	-416.835612	-416.827777	-416.826833	-416.868193	28.722	
C	 0.019645159	 1.4832064611	 0.1777814831	-0.449932
C	-0.052668813	 0.0007158914	-0.0798911532	 0.316672
C	-1.255654905	-0.6451334438	-0.0666257933	-0.224333
C	-1.4997103989	-2.0797098203	-0.1607497453	 0.311809
O	-2.5776974706	-2.5735348709	-0.4451704937	-0.341157
C	-0.3999110521	-2.9626841795	 0.3530724958	-0.042676
N	 0.8666649558	-2.8481204318	 0.1982419106	-0.200959
C	 1.4823513172	-1.7823618753	-0.4112865546	 0.08327
N	 1.1614942932	-0.5342265224	-0.4454020881	-0.284259
H	 0.7138104069	 1.6787871422	 1.0025441379	 0.145931
H	 0.4234540622	 1.9970379249	-0.7000875674	 0.151216
H	-0.954667608	 1.9051177656	 0.4292815932	 0.129358
H	-2.159869085	-0.0536960225	 0.0505949247	 0.121204
H	-0.7640376659	-3.8310406002	 0.9080747386	 0.148388
H	 2.4499664244	-2.0420323186	-0.8401813784	 0.135469
96.4685	127.4169	168.5396	259.8625	295.6023	355.4052	422.0106	441.3483	487.8885	594.8609	635.0664	675.0216	801.3957	857.5975	893.1861	925.7608	967.3993	1003.1935	1044.6626	1064.0077	1097.5041	1177.507	1272.4165	1347.8583	1383.5592	1409.1035	1454.6703	1471.0633	1478.8276	1558.2286	1625.9586	1684.9501	1742.333	3042.0028	3100.5067	3106.5018	3137.8048	3140.8516	3169.2684
CC1=CC(=O)C=NC=N1	Cc1cc(=O)cncn1	
InChI=1S/C6H6N2O/c1-5-2-6(9)3-7-4-8-5/h2-4H,1H3	InChI=1S/C6H6N2O/c1-5-2-6(9)3-7-4-8-5/h2-4H,1H3
