18
gdb 52972	4.67405	0.90245	0.83967	1.5338	87.53	-0.2085	0.0352	0.2437	1430.746	0.146553	-364.700137	-364.691526	-364.690582	-364.735231	31.985	
C	-0.008002362	 1.4535538323	-0.0005794218	-0.507502
C	 0.0061642072	-0.0013720335	-0.0204395966	 0.233834
C	 0.0121460345	-1.2075458777	-0.0411615572	-0.178905
C	 0.0490332661	-2.6273484618	-0.0369913933	 0.170111
C	-0.3569082849	-3.4963657798	-1.2120395076	-0.354582
C	-1.0741070054	-3.6612864417	 0.0895597842	-0.050348
N	-0.3781266622	-4.405278181	 1.207886898	-0.139168
C	 0.9478196474	-4.8901179404	 0.7656388062	-0.252528
C	 0.7742622536	-3.4541991558	 1.0569932316	-0.080488
H	 0.8091444659	 1.8459454383	 0.6151550723	 0.149297
H	 0.1102804347	 1.8696794957	-1.0075026197	 0.147074
H	-0.9463211873	 1.8421680391	 0.4116159146	 0.147402
H	-0.9412487559	-2.9538242968	-1.9481825988	 0.131412
H	 0.3043385457	-4.2373063607	-1.6466670387	 0.117689
H	-2.1390861289	-3.5051638228	 0.2014512544	 0.115915
H	 1.4278803506	-5.4864970577	 1.5366488409	 0.126504
H	 1.1031539839	-5.2669039967	-0.2381261125	 0.121912
H	 1.2031787468	-2.9653330091	 1.9253395841	 0.102372
13.1679	91.495	99.4396	243.2207	292.8572	339.1172	417.949	449.7484	495.7839	516.7903	576.2502	685.4527	752.415	766.7805	806.461	891.7475	922.5407	948.1306	982.6235	1026.6103	1042.2527	1052.0528	1053.4368	1057.4805	1074.1316	1093.4268	1108.025	1134.6879	1199.8575	1224.1025	1282.4112	1316.6951	1400.9313	1418.848	1475.0096	1475.9353	1479.3622	1519.6584	2359.2845	3022.5342	3080.6114	3084.4715	3124.4348	3137.6222	3167.2694	3198.397	3209.706	3217.9377
CC#CC12CC1N1CC21	CC#C[C@]12C[C@H]1N1C[C@@H]21	
InChI=1S/C8H9N/c1-2-3-8-4-6(8)9-5-7(8)9/h6-7H,4-5H2,1H3	InChI=1S/C8H9N/c1-2-3-8-4-6(8)9-5-7(8)9/h6-7H,4-5H2,1H3/t6-,7+,8+,9?/m1/s1
