18
gdb 41030	3.39434	1.78611	1.51766	1.0627	76.46	-0.2144	0.0325	0.2469	912.9253	0.147721	-401.756372	-401.74956	-401.748616	-401.787069	28.62	
C	 0.0151306083	 1.5251121929	-0.195515417	-0.154896
C	 1.5229766208	 1.5484525955	 0.159421807	-0.348154
C	 1.3781876983	 0.0901716025	 0.5786336472	 0.372233
C	 2.3570271108	-0.8813364848	 1.3042559623	-0.082612
C	 1.465612974	-2.0445879607	 0.8855319689	-0.244838
C	 1.6135550013	-1.0655959156	-0.3139188868	 0.326511
C	 0.3806758664	-0.7244762643	-1.1631303302	-0.288834
N	-0.1399146202	 0.0530983269	 0.070723198	-0.208997
O	 3.0914244056	-1.0079680706	-0.0409890434	-0.390643
H	-0.599796327	 2.0891216573	 0.5111808132	 0.112791
H	-0.2662102747	 1.814313133	-1.2119084246	 0.107507
H	 2.2304354417	 1.7172438283	-0.6576375013	 0.12235
H	 1.7759033911	 2.227299927	 0.9769263635	 0.112692
H	 3.0166050937	-0.753626528	 2.1661953035	 0.094157
H	 1.9783429914	-2.9980317099	 0.759572272	 0.10776
H	 0.4773796941	-2.1243351746	 1.3406152885	 0.12226
H	 0.5508204746	-0.072845816	-2.0249632771	 0.118775
H	-0.2546136801	-1.5660928188	-1.4455825139	 0.121938
180.6199	207.1284	292.7211	373.4068	433.8241	466.0684	495.3337	594.1287	654.6848	700.1075	738.7558	786.815	792.677	834.2963	871.4711	913.0748	943.2087	958.1043	969.9863	988.4719	1040.6616	1064.3568	1078.6174	1123.6822	1140.1479	1165.2228	1180.1933	1191.705	1195.6409	1214.0241	1251.2827	1261.5021	1267.4072	1308.5044	1370.6122	1480.2304	1482.4452	1487.1743	1508.2807	3050.2528	3056.3409	3061.1054	3078.2467	3090.8242	3095.7412	3114.5069	3124.2178	3164.2241
C1CC23C4CC2(CN13)O4	C1C[C@]23[C@H]4C[C@]2(CN13)O4	
InChI=1S/C7H9NO/c1-2-8-4-6-3-5(9-6)7(1,6)8/h5H,1-4H2	InChI=1S/C7H9NO/c1-2-8-4-6-3-5(9-6)7(1,6)8/h5H,1-4H2/t5-,6-,7+/m1/s1
