17
gdb 72828	2.68416	1.59169	1.31926	2.8225	67.88	-0.2371	-0.0423	0.1948	1012.204	0.135021	-458.958666	-458.950661	-458.949717	-458.991407	29.982	
C	-0.2550816008	 1.6016851191	 0.0501124531	-0.459452
C	 0.0863807726	 0.1304716862	 0.0285207483	 0.361942
C	-1.040845776	-0.8952187494	 0.3087447552	-0.120832
O	-0.2735652983	-1.5007209793	 1.3796307312	-0.290402
C	 0.8056523958	-0.5486836383	 1.214543996	-0.065816
C	 2.0014890869	-1.2617383908	 0.5789104443	 0.392537
O	 2.9363910398	-1.7644826078	 1.1396975525	-0.293464
C	 1.7492287835	-1.2163426301	-0.9307021735	-0.206508
O	 0.8465032356	-0.1433312372	-1.1513156299	-0.304201
H	 0.6565419836	 2.2057786705	 0.0538092953	 0.131284
H	-0.8323229611	 1.8644340129	-0.8419493729	 0.136228
H	-0.8485416934	 1.8516921969	 0.9336256925	 0.126379
H	-1.9840705729	-0.4780779166	 0.680001779	 0.109186
H	-1.2429332793	-1.5927435716	-0.5113259714	 0.11382
H	 1.0435404358	 0.0015293754	 2.1279430478	 0.0963
H	 2.6739766018	-1.0320711726	-1.4835830357	 0.142525
H	 1.3356061063	-2.1819972273	-1.2627746917	 0.130474
76.4478	128.083	201.5288	216.1712	278.6872	335.8011	393.7453	465.175	545.2134	588.3535	656.0122	659.1151	808.2202	868.9576	882.9996	908.4756	956.6009	988.2572	1011.8314	1029.0217	1089.7666	1111.4302	1154.35	1174.2614	1197.629	1212.4257	1228.177	1275.5099	1299.251	1339.3354	1365.8487	1415.4775	1482.7024	1484.3758	1492.1977	1515.4913	1864.2628	2984.5318	3027.2002	3043.7175	3081.882	3090.1994	3098.1401	3115.8906	3124.8318
CC12COC1C(=O)CO2	C[C@]12CO[C@H]1C(=O)CO2	
InChI=1S/C6H8O3/c1-6-3-8-5(6)4(7)2-9-6/h5H,2-3H2,1H3	InChI=1S/C6H8O3/c1-6-3-8-5(6)4(7)2-9-6/h5H,2-3H2,1H3/t5-,6-/m0/s1
