17
gdb 37790	2.57541	2.21254	1.66801	1.5973	71.06	-0.2275	0.0066	0.2341	864.2957	0.138888	-421.807135	-421.800765	-421.799821	-421.83769	26.349	
C	 0.1055489436	 1.4419149182	 0.3486518628	-0.280511
C	 1.2650228329	 2.2391478394	-0.1828624198	-0.065604
C	 2.1794247082	 1.8416620326	-1.0617839541	-0.030375
C	 2.1924667385	 0.4640632446	-1.6889600468	 0.097648
O	 2.3037727547	-0.5610915857	-0.702738431	-0.254646
C	 1.0003555688	-1.0065185573	-0.4319590613	 0.038361
C	-0.0871491613	 0.0151481033	-0.1428788927	-0.116705
C	 0.141260699	-0.5043443337	-1.5528417919	 0.038361
O	 0.991486819	 0.2059848492	-2.4149139077	-0.254645
H	 0.181047652	 1.422957514	 1.4466041051	 0.119105
H	-0.8170586916	 2.0063858026	 0.1443829722	 0.119104
H	 1.3319011008	 3.2488533066	 0.2182375739	 0.096762
H	 2.9722686466	 2.5183993599	-1.3662750329	 0.089827
H	 3.0333187551	 0.3577736138	-2.3810446194	 0.095408
H	 0.9865621103	-2.0037978851	-0.0099665588	 0.107511
H	-0.957131413	-0.4571337854	 0.3123233498	 0.092889
H	-0.6082393736	-1.071576717	-2.0907368573	 0.107511
133.8905	273.7848	274.8988	440.7963	453.6549	537.9778	641.3976	702.348	702.3637	739.0724	781.5301	812.2838	840.1763	886.3876	920.5427	928.9955	948.857	954.3941	1002.5563	1073.6955	1079.8468	1080.4896	1088.6674	1121.6483	1134.6324	1207.226	1238.8689	1263.1805	1289.6886	1341.0691	1360.1617	1382.5019	1391.7676	1418.0768	1438.6906	1471.8876	1738.5851	2988.3465	3004.8059	3065.9037	3113.9259	3140.8568	3176.311	3184.279	3193.8559
C1C=CC2OC3C1C3O2	C1C=C[C@H]2O[C@H]3[C@@H]1[C@H]3O2	
InChI=1S/C7H8O2/c1-2-4-6-7(4)9-5(3-1)8-6/h1,3-7H,2H2	InChI=1S/C7H8O2/c1-2-4-6-7(4)9-5(3-1)8-6/h1,3-7H,2H2/t4-,5+,6+,7-
