15
gdb 57165	3.22041	1.18645	0.87784	5.8437	69.41	-0.2674	-0.0776	0.1898	1244.9283	0.109777	-453.992156	-453.982394	-453.98145	-454.02967	32.631	
C	-0.0379120823	 1.4324013901	 0.0284748171	-0.370011
N	-0.0250271433	-0.0351727047	 0.0112995576	-0.199303
C	 0.1295244341	-0.7540352246	 1.2420004217	 0.409939
C	 0.1620924129	 0.1033206373	 2.4942579083	-0.506109
O	 0.2285761429	-1.9499294199	 1.2807694364	-0.272427
C	-0.1603186692	-0.729429622	-1.1919441869	 0.378902
O	-0.2225253329	-1.919571112	-1.3435480529	-0.276174
C	-0.2366944437	 0.1322614964	-2.3975790805	 0.201786
N	-0.3045827743	 0.7020838618	-3.4013549958	-0.32087
H	 0.8905205148	 1.8264012108	 0.4482468159	 0.151762
H	-0.1333965606	 1.8093738392	-0.9880538955	 0.188307
H	-0.8826058704	 1.810541233	 0.6093287181	 0.150954
H	-0.7515464389	 0.694736246	 2.60656739	 0.150022
H	 0.2598769592	-0.5741117491	 3.34128099	 0.162962
H	 1.0069955918	 0.7983297276	 2.4906212968	 0.150262
9.7251	37.5891	70.5265	165.7207	203.7947	254.1797	270.9464	312.5566	387.6302	416.9097	438.8518	584.5315	588.8174	601.6598	711.5011	762.4357	842.486	996.2459	1051.8638	1103.7786	1149.7045	1184.9462	1227.5408	1329.9726	1394.2824	1462.9515	1475.7084	1479.4491	1502.2851	1515.8571	1775.1054	1852.1213	2338.6712	3050.7735	3059.2034	3115.3458	3124.2121	3167.1091	3169.5215
CN(C(C)=O)C(=O)C#N	CN(C(=O)C)C(=O)C#N	
InChI=1S/C5H6N2O2/c1-4(8)7(2)5(9)3-6/h1-2H3	InChI=1S/C5H6N2O2/c1-4(8)7(2)5(9)3-6/h1-2H3
