16
gdb 14407	3.37103	2.62738	2.08408	0.9421	63.35	-0.2318	0.0691	0.3009	707.5328	0.131966	-383.691122	-383.685111	-383.684167	-383.72075	25.159	
O	-0.0579419139	 1.4222586259	-0.0685055839	-0.47807
C	 0.0070037559	 0.0388488848	-0.090995477	 0.383145
C	 0.4620722853	-0.8309922936	-1.2760515187	-0.309768
C	-0.255196224	-1.9249036612	-0.4528360902	 0.072721
O	 0.6096102613	-2.0712986484	 0.6892529248	-0.267778
C	 0.393706228	-0.7659685236	 1.2394742473	 0.012363
C	-1.1052776284	-0.7951207578	 1.6138336904	-0.248959
C	-1.2779899027	-0.8370627364	 0.0886755113	-0.100767
H	 0.834482828	 1.7693036955	 0.0409343825	 0.284891
H	-0.0860102434	-0.5535483523	-2.1804344366	 0.10575
H	 1.5243768469	-0.983815203	-1.4836992174	 0.096179
H	-0.5497444171	-2.8906240897	-0.8564348254	 0.083889
H	 1.1949387602	-0.4801859556	 1.9207354356	 0.074014
H	-1.4426362553	-1.6324192986	 2.2286609684	 0.099481
H	-1.4551119413	 0.1591532862	 2.0137235987	 0.112924
H	-2.2059944295	-0.6700575422	-0.4544465197	 0.079984
246.0767	283.7178	332.6869	438.2673	454.5347	519.4418	588.9929	665.1279	721.7886	804.944	841.0862	905.1344	911.096	925.0069	933.5259	961.2786	993.0647	1007.4019	1037.1558	1053.1008	1117.0505	1129.7447	1141.136	1166.6241	1205.7211	1219.318	1240.0138	1252.8896	1271.2762	1298.4274	1333.1781	1376.5244	1474.3561	1481.4668	3057.0811	3068.0841	3123.0199	3123.3054	3133.6257	3140.8582	3152.3385	3796.8125
OC12CC3OC1CC23	O[C@@]12C[C@H]3O[C@@H]1C[C@@H]23	
InChI=1S/C6H8O2/c7-6-2-4-3(6)1-5(6)8-4/h3-5,7H,1-2H2	InChI=1S/C6H8O2/c7-6-2-4-3(6)1-5(6)8-4/h3-5,7H,1-2H2/t3-,4-,5-,6-/m1/s1
