14
gdb 19331	4.93071	1.70214	1.51444	4.4533	66.41	-0.2342	0.0129	0.2471	825.0042	0.108358	-341.510895	-341.50461	-341.503666	-341.541167	24.814	
N	 0.0906989777	-1.1429955165	-0.0514264287	-0.352851
C	 0.0474451376	 0.0147636122	-0.0294259045	 0.191866
C	-0.0170707696	 1.431972738	 0.0252027193	 0.20517
C	 0.2352787102	 2.3356869774	-1.1692505771	-0.32601
C	 1.1501272601	 2.4434601144	 0.0073563112	-0.105199
C	 0.4978270621	 3.1734625999	 1.2160765436	-0.047399
N	-0.866209863	 3.6108258926	 0.8252123048	-0.336115
C	-0.6196432875	 2.214825849	 1.2408086988	-0.116359
H	 0.6533538682	 1.8212426812	-2.0274501352	 0.137549
H	-0.4786757958	 3.1198780711	-1.3830899604	 0.160311
H	 2.2016187245	 2.1955039435	-0.0375729294	 0.121782
H	 1.0367216574	 3.6422551058	 2.0275198691	 0.110506
H	-1.2730473819	 4.0976497085	 1.6226291326	 0.241706
H	-1.1420939401	 1.7497024831	 2.0652597259	 0.115043
152.407	161.3413	368.3598	420.7917	484.0138	537.7064	555.1828	619.2649	740.9542	777.2748	819.5342	839.462	851.4787	907.2655	923.3772	968.0467	975.1101	1014.128	1056.3409	1101.3979	1107.239	1119.2679	1188.368	1229.0068	1283.853	1298.1006	1340.5315	1385.5084	1460.5173	2338.0509	3152.8463	3207.761	3216.6098	3222.8673	3250.8293	3489.0246
N#CC12CC1C1NC21	N#C[C@]12C[C@H]1[C@H]1N[C@@H]21	
InChI=1S/C6H6N2/c7-2-6-1-3(6)4-5(6)8-4/h3-5,8H,1H2	InChI=1S/C6H6N2/c7-2-6-1-3(6)4-5(6)8-4/h3-5,8H,1H2/t3-,4+,5+,6+/m0/s1
