17
gdb 47202	2.62164	1.70112	1.14768	3.7958	75.58	-0.2422	-0.0291	0.2131	1058.8788	0.136366	-421.836065	-421.828397	-421.827453	-421.868438	29.489	
O	 0.1254229234	-0.0316983457	 0.1841223104	-0.3052
C	 0.030696399	 1.1572584793	 0.0009451387	 0.313316
C	-1.2944816092	 1.8676921365	-0.2162510911	-0.322683
C	-1.2404535545	 2.9260139333	-1.3332565823	-0.279665
C	-0.0036607516	 3.7798092832	-1.2458058766	-0.0836
C	 1.1056452788	 3.3947594718	-0.6142475346	-0.106349
C	 1.242150214	 2.0711496972	 0.0362701946	 0.298621
C	 2.2101302625	 1.8510074782	 1.1412114923	-0.213476
O	 2.5038534141	 1.4096570738	-0.1679226358	-0.258785
H	-2.0672594387	 1.1151983035	-0.3883360587	 0.1269
H	-1.5298802229	 2.3754952372	 0.730378482	 0.130643
H	-1.274574453	 2.4358965556	-2.3168265165	 0.13123
H	-2.1374576433	 3.5535471053	-1.2874737986	 0.116312
H	-0.0292788648	 4.7462837904	-1.7418710523	 0.1017
H	 1.9887030481	 4.0271178305	-0.5925706138	 0.100648
H	 2.7920967923	 2.6978863906	 1.5049230435	 0.116858
H	 1.9985637759	 1.0638286292	 1.863231519	 0.133528
66.6077	147.6714	265.0193	276.0815	288.8303	384.6644	430.6417	519.5841	532.7207	620.3532	663.9764	719.779	784.3265	826.4424	877.6216	891.3917	931.8515	965.6727	999.8101	1023.7825	1040.7381	1125.6492	1137.7687	1157.1345	1173.6409	1187.0356	1257.8784	1307.545	1322.2164	1342.1495	1378.0072	1430.7819	1459.6429	1485.6254	1507.7283	1718.6606	1823.2096	3008.7759	3017.7667	3059.2312	3077.1144	3110.858	3157.9079	3174.1562	3179.7012
O=C1CCC=CC11CO1	O=C1CCC=C[C@]21CO2	
InChI=1S/C7H8O2/c8-6-3-1-2-4-7(6)5-9-7/h2,4H,1,3,5H2	InChI=1S/C7H8O2/c8-6-3-1-2-4-7(6)5-9-7/h2,4H,1,3,5H2/t7-/m1/s1
