16
gdb 19486	3.42131	1.9683	1.80884	0.8054	74.69	-0.2249	0.0158	0.2407	810.9988	0.131136	-309.431332	-309.424496	-309.423552	-309.462065	27.189	
C	-0.055469804	-1.2234899762	-0.0553994536	-0.472325
C	 0.0040727136	-0.0221609393	-0.0184257099	 0.357194
C	 0.0386149194	 1.4079121566	 0.0360102686	-0.219499
C	 0.5163006887	 2.1638442474	 1.2697951691	-0.06476
C	 1.3290091691	 1.4019687072	 2.3164732542	-0.280445
C	 2.5875589167	 1.0089072806	 1.5716430689	-0.059296
C	 2.5977421002	 1.4745743878	 0.321024752	-0.074587
C	 1.3459273569	 2.217540734	 0.0050529225	-0.09183
H	-0.1001115728	-2.2831103331	-0.1003071607	 0.191739
H	-0.787277949	 1.8910917313	-0.4800879474	 0.111083
H	-0.0887464874	 3.0058052753	 1.5840197529	 0.091153
H	 1.5501258901	 2.036272817	 3.1845797894	 0.10704
H	 0.7929833406	 0.5228764305	 2.6967696796	 0.123092
H	 3.3554571154	 0.3871242925	 2.0171255036	 0.095177
H	 3.3824431381	 1.3125442536	-0.4081240957	 0.095477
H	 1.3662492344	 3.0832389247	-0.6478538137	 0.090786
128.6497	143.3118	281.0796	338.6019	422.871	563.462	579.2735	601.7704	647.3083	713.7405	743.9101	760.2704	775.9926	806.4619	915.0564	934.732	945.1469	957.0481	991.1062	1019.088	1040.3197	1059.1283	1104.2611	1135.1621	1188.3235	1192.1581	1298.8386	1307.1964	1353.9975	1373.9729	1397.7547	1470.6253	1669.0224	2232.6517	3019.9742	3049.3251	3135.3814	3166.9438	3182.5826	3192.4431	3217.1863	3506.04
C#CC1C2CC=CC12	C#C[C@H]1[C@H]2CC=C[C@@H]12	
InChI=1S/C8H8/c1-2-6-7-4-3-5-8(6)7/h1,3-4,6-8H,5H2	InChI=1S/C8H8/c1-2-6-7-4-3-5-8(6)7/h1,3-4,6-8H,5H2/t6-,7+,8-/m1/s1
