19
gdb 107585	2.66535	1.53883	1.12274	2.6482	75.08	-0.2377	-0.0269	0.2109	1131.5151	0.158828	-423.050297	-423.041709	-423.040765	-423.083653	32.295	
C	-0.4085035426	 1.5323562532	-0.3047643721	-0.387241
C	 0.0012616476	 0.091628407	 0.0313480605	-0.293442
C	 0.8825941125	-0.5158647861	-1.0243391614	 0.302085
O	 0.2821985736	-0.8139534833	-2.3126361761	-0.295334
C	 0.8198569477	-1.8946963716	-1.5545956989	-0.019036
C	 2.1749283259	-2.3523286455	-2.0682671802	-0.252907
C	 2.9950725535	-1.0473264549	-2.182055763	-0.330316
C	 2.3118149417	-0.0552769586	-1.2326712022	 0.377379
O	 2.8291025556	 0.8886326717	-0.689644686	-0.319593
H	 0.4716794532	 2.1754241862	-0.3775966453	 0.145465
H	-0.942956784	 1.5666603427	-1.2587088982	 0.128919
H	-1.0670144178	 1.9361000723	 0.4695071108	 0.111939
H	 0.543369275	 0.0703995865	 0.9838799551	 0.114093
H	-0.8880526486	-0.5367645361	 0.1507868542	 0.10497
H	 0.0926580313	-2.608783367	-1.17470278	 0.101732
H	 2.6261083482	-3.0387486301	-1.3432875757	 0.11503
H	 2.0855678044	-2.8875336595	-3.0179708817	 0.119381
H	 4.0469771194	-1.1579682248	-1.9136535772	 0.130911
H	 2.9548823836	-0.6350225621	-3.1952398424	 0.145964
80.3862	105.1707	163.6856	204.8855	239.3513	284.828	357.7488	437.7132	493.2919	524.1757	646.776	655.0031	689.4686	763.1884	816.9983	842.3291	888.415	917.6936	963.2798	1001.1514	1024.5643	1043.0047	1088.4391	1104.1968	1120.0175	1168.2101	1231.3345	1257.4523	1267.8172	1296.6836	1331.9284	1335.3946	1366.3897	1404.8378	1444.7695	1455.9544	1471.09	1487.9666	1498.8322	1514.0583	1835.8812	3038.0279	3047.2356	3049.3345	3066.1104	3077.5746	3093.7718	3116.2194	3126.9493	3134.0516	3143.8883
CCC12OC1CCC2=O	CC[C@]12O[C@H]1CCC2=O	
InChI=1S/C7H10O2/c1-2-7-5(8)3-4-6(7)9-7/h6H,2-4H2,1H3	InChI=1S/C7H10O2/c1-2-7-5(8)3-4-6(7)9-7/h6H,2-4H2,1H3/t6-,7+/m0/s1
