13
gdb 25259	3.39415	1.69036	1.13644	2.8878	65.07	-0.2585	-0.0394	0.2191	966.8537	0.092397	-452.800117	-452.793462	-452.792518	-452.831656	24.556	
O	-0.0282413796	-0.0802693931	 0.0039464966	-0.375696
C	 0.0287462334	 1.126885708	 0.0090168888	 0.348875
N	-1.047187529	 2.0105966001	 0.0285052928	-0.355931
C	-0.7205268722	 3.4394407603	 0.0306058714	-0.287967
C	 0.7732103645	 3.356757968	 0.0091816586	 0.248821
C	 1.1680706994	 2.0694034966	-0.0025113929	 0.18849
O	 2.5232909753	 2.0282160323	-0.0218023844	-0.187189
C	 2.8632808602	 3.3503665344	-0.0203333452	 0.04934
N	 1.870826213	 4.1920728009	-0.00225668	-0.340232
H	-1.9891883459	 1.6577027469	 0.0397476085	 0.261957
H	-1.1306075364	 3.9529152388	-0.8483510619	 0.143125
H	-1.1056453092	 3.9445894706	 0.9255312556	 0.143129
H	 3.9194808164	 3.5691063861	-0.0341776479	 0.163277
78.0389	175.0684	260.3601	301.7449	390.9573	543.5463	627.9459	637.3316	657.5934	666.063	769.4788	787.405	844.848	948.6661	1014.6988	1037.3173	1084.4729	1099.7714	1144.8204	1176.6549	1274.8195	1305.1066	1364.2216	1410.8513	1438.046	1498.0298	1516.175	1636.7363	1838.3162	3022.256	3052.9228	3282.1719	3671.0232
O=C1NCC2=C1OC=N2	O=C1NCc2c1ocn2	
InChI=1S/C5H4N2O2/c8-5-4-3(1-6-5)7-2-9-4/h2H,1H2,(H,6,8)	InChI=1S/C5H4N2O2/c8-5-4-3(1-6-5)7-2-9-4/h2H,1H2,(H,6,8)
