13
gdb 11700	4.68232	1.57105	1.34686	3.1151	60.	-0.2656	-0.0569	0.2087	873.069	0.094281	-398.585525	-398.578631	-398.577687	-398.616904	25.055	
O	-0.1252405805	-0.0106309257	 0.0301969009	-0.247027
C	-0.0187683506	 1.1820872494	-0.1075970785	 0.086834
C	 1.2584706969	 1.9094691861	 0.0544729765	 0.231142
C	 1.3382571125	 3.360673883	 0.3238587554	-0.277724
N	 1.6735886368	 2.9303385522	-1.0510984602	-0.198229
C	 3.0159574426	 2.3407495324	-0.9643480597	 0.418241
O	 3.9786964924	 2.6284483576	-1.5964363248	-0.276754
C	 2.639630538	 1.2642379067	 0.0627385705	-0.43949
H	-0.8825226366	 1.8274484899	-0.3777526636	 0.092271
H	 0.4155517461	 3.9316871175	 0.3651782034	 0.150702
H	 2.1298103678	 3.7280510206	 0.9730562625	 0.145893
H	 3.1925803838	 1.2525333011	 1.0044511304	 0.143871
H	 2.6459608909	 0.2632630492	-0.3747234127	 0.17027
87.2386	160.3924	195.0251	311.7149	379.4797	483.8499	490.2079	570.0723	637.3331	719.4159	741.6778	845.1411	918.0465	954.1168	1001.6031	1025.3624	1039.6179	1096.8289	1130.3055	1164.9609	1214.0322	1291.5291	1358.9887	1428.9961	1455.2135	1502.0868	1815.07	1932.0171	2903.4315	3079.7305	3111.386	3136.2047	3203.4671
O=CC12CN1C(=O)C2	O=C[C@]12CN1C(=O)C2	
InChI=1S/C5H5NO2/c7-3-5-1-4(8)6(5)2-5/h3H,1-2H2	InChI=1S/C5H5NO2/c7-3-5-1-4(8)6(5)2-5/h3H,1-2H2/t5-,6?/m0/s1
