15
gdb 45988	3.38008	1.3285	1.03589	2.5902	68.79	-0.2569	-0.0639	0.1931	1093.2883	0.112692	-457.811498	-457.80384	-457.802896	-457.844247	28.403	
O	 0.0811087076	 0.7229661492	-1.4732840607	-0.27969
C	 0.0708156493	 1.3130635062	-0.4250748666	 0.371472
C	-1.1436603967	 2.1435950906	-0.0057534515	-0.186527
O	-1.2708526468	 2.377175375	 1.3938005926	-0.22582
C	-0.5278013434	 3.3440174094	 2.0166394358	 0.388797
O	-0.9616029671	 3.8664351616	 3.0074509025	-0.31644
C	 0.8226421089	 3.6426184414	 1.4803003321	-0.174511
C	 1.6279665628	 2.7493096254	 0.8956822233	-0.077546
C	 1.2495145368	 1.3331029828	 0.5459475207	-0.365595
H	-1.1151162308	 3.0893673315	-0.5611540696	 0.148813
H	-2.0447458961	 1.6067019023	-0.3071235161	 0.160227
H	 1.1865276979	 4.6317804755	 1.7349694413	 0.130254
H	 2.6366596099	 3.0561407708	 0.6335619837	 0.128371
H	 0.9328784123	 0.7918952041	 1.4475962926	 0.159559
H	 2.0770615054	 0.7881055943	 0.09159571	 0.138636
57.4742	111.4046	223.789	297.2557	330.4276	382.6488	430.9505	487.2421	519.3236	605.643	677.5586	743.4153	777.0214	802.0152	847.238	934.9834	962.2078	1005.1595	1027.8889	1100.897	1120.5875	1203.2816	1226.9144	1243.7466	1297.009	1302.1531	1369.3583	1403.5566	1459.1032	1464.0921	1685.0453	1825.8064	1837.527	3029.9561	3038.4484	3127.044	3134.4312	3170.5692	3203.0212
O=C1COC(=O)C=CC1	O=C1COC(=O)C=CC1	
InChI=1S/C6H6O3/c7-5-2-1-3-6(8)9-4-5/h1,3H,2,4H2	InChI=1S/C6H6O3/c7-5-2-1-3-6(8)9-4-5/h1,3H,2,4H2
