17
gdb 30486	3.75615	1.19649	0.91354	2.0534	82.06	-0.2021	-0.0003	0.2018	1253.8398	0.138683	-414.265938	-414.257347	-414.256403	-414.2994	31.789	
C	 0.0225224435	 1.4201632554	-0.0582775428	-0.308931
N	-0.031846113	-0.0151706146	 0.1097753109	-0.346883
H	-0.3524536649	-0.5925495292	-0.648655343	 0.246677
C	 0.6112921601	-0.6808985499	 1.106469695	 0.459915
N	 1.1945417783	 0.0541109407	 2.0667122754	-0.348504
C	 1.7823385076	-0.655150971	 3.0360533396	 0.015664
C	 1.8112295898	-2.0342765554	 3.0773925222	-0.218459
C	 1.1758240353	-2.6948430048	 2.0063105277	 0.390395
N	 1.1031936437	-4.0635884281	 1.94836026	-0.569101
N	 0.5834673128	-2.0246936845	 1.0197557631	-0.400339
H	 1.0143836472	 1.7732993397	-0.3716777146	 0.121618
H	-0.7086156725	 1.7117300987	-0.8160921007	 0.116414
H	-0.2231633151	 1.918288023	 0.8820602989	 0.14977
H	 2.2599073056	-0.075448784	 3.8241168604	 0.10259
H	 2.2929204519	-2.5759393957	 3.8816138911	 0.08172
H	 1.7863246166	-4.5943615361	 2.4626657069	 0.253338
H	 0.8370828031	-4.4406201041	 1.05204083	 0.254119
69.2696	97.0974	185.2511	211.025	227.1572	360.0366	407.3956	442.2227	451.8219	495.8433	509.0456	560.2539	649.5578	727.5223	791.3179	798.9853	823.7864	963.139	991.5042	999.8786	1077.4311	1103.9378	1143.9813	1158.9469	1208.9019	1302.4172	1344.4728	1388.6682	1402.5207	1449.5271	1478.4389	1509.9596	1517.2262	1583.7434	1606.6649	1635.1844	1648.1044	3011.513	3090.7281	3133.2379	3143.2976	3205.07	3590.7613	3665.827	3712.2074
C[NH+]=C1[N-]C=CC(N)=N1	CNc1nccc(N)n1	
InChI=1S/C5H7N4/c1-7-5-8-3-2-4(6)9-5/h2-3H,1H3,(H2-,6,7,8,9)/q-1/p+1	InChI=1S/C5H8N4/c1-7-5-8-3-2-4(6)9-5/h2-3H,1H3,(H3,6,7,8,9)
