15
gdb 28031	3.996	0.9302	0.80758	4.6288	72.06	-0.199	0.0337	0.2327	1351.5176	0.113403	-416.855615	-416.847198	-416.846254	-416.889465	30.803	
O	 0.1657577923	 1.342735828	 0.1798182898	-0.431624
C	 0.1011149527	 0.0006740647	 0.007168738	 0.409007
C	 0.2445888087	-0.821412863	-1.0836041189	-0.400949
C	 0.0606473714	-2.1598266111	-0.6050465221	 0.304189
C	 0.1033378298	-3.4184372586	-1.4293765167	-0.456934
C	 1.3922672441	-3.6315741348	-2.0980190137	 0.266387
N	 2.4037033859	-3.7916530839	-2.6334181677	-0.317135
C	-0.1862710953	-2.0952776696	 0.7415619121	-0.191193
N	-0.1612227631	-0.7623059914	 1.1067864547	-0.296577
H	 0.3958870271	 1.7478156457	-0.6618023486	 0.311846
H	 0.4684121382	-0.5173443256	-2.0943547833	 0.10234
H	-0.1016638894	-4.2889520528	-0.7969187583	 0.152126
H	-0.6730195471	-3.4104790298	-2.2057085416	 0.155134
H	-0.3758165681	-2.869407163	 1.4664677756	 0.12311
H	-0.3031082871	-0.391207115	 2.0299634109	 0.270272
38.3539	92.8404	219.5614	243.3915	275.2721	328.156	384.3434	440.7225	449.1302	473.3326	616.2054	641.11	680.8535	691.0948	744.5738	782.1331	926.9621	932.0006	987.5516	1015.0398	1121.3001	1162.9672	1189.1029	1212.8317	1285.3163	1340.5118	1346.9018	1421.7435	1456.8884	1539.7396	1581.1877	1641.6832	2360.7525	3024.7128	3076.3176	3248.2596	3270.8571	3685.999	3848.4684
OC1=CC(CC#N)=CN1	Oc1cc(CC#N)c[nH]1	
InChI=1S/C6H6N2O/c7-2-1-5-3-6(9)8-4-5/h3-4,8-9H,1H2	InChI=1S/C6H6N2O/c7-2-1-5-3-6(9)8-4-5/h3-4,8-9H,1H2
