12
gdb 130249	3.15427	1.54037	1.03842	6.3782	61.09	-0.2582	-0.0706	0.1876	1034.9099	0.077113	-505.932637	-505.925046	-505.924101	-505.965325	27.698	
N	 0.1382528921	 1.4043713229	 0.0224878511	-0.551995
C	-0.0334546334	 0.0468206291	-0.0026949166	 0.506737
N	-1.1978861278	-0.4655071492	-0.1535282004	-0.222735
O	-1.2396607261	-1.8708468024	-0.3610728018	-0.2431
C	-0.1643030598	-2.6728384886	-0.1648494101	 0.418753
O	-0.2717863672	-3.8562780405	-0.2799442669	-0.280641
C	 1.1403711471	-1.990974523	 0.1732255104	 0.249152
N	 2.1711467574	-2.6490439343	 0.4538956073	-0.451159
O	 1.1495635654	-0.6077301222	 0.1112084186	-0.22727
H	 0.8563352582	 1.736509388	 0.6498806993	 0.273681
H	-0.727712617	 1.9217890336	 0.0620350655	 0.283738
H	 2.9641281912	-2.0316106633	 0.6404230835	 0.24484
66.0733	88.2471	261.4265	323.2043	359.5543	398.2747	429.072	487.8357	497.5535	593.0812	598.6391	680.6485	697.0985	786.8466	817.272	927.3513	959.252	979.0393	1084.0918	1170.4889	1186.3208	1318.3074	1420.8492	1621.5701	1724.3219	1769.3856	1865.7954	3477.7724	3573.3383	3685.8595
NC1=NOC(=O)C(=N)O1	NC1=NOC(=O)[C]([NH])O1	
InChI=1S/C3H3N3O3/c4-1-2(7)9-6-3(5)8-1/h4H,(H2,5,6)	InChI=1S/C3H3N3O3/c4-1-2(7)9-6-3(5)8-1/h4H,(H2,5,6)
