19
gdb 40702	3.70369	0.99633	0.91717	0.5192	76.23	-0.2451	0.0729	0.318	1331.8923	0.16049	-419.121982	-419.113595	-419.112651	-419.155748	31.232	
C	-0.3909087305	 1.3429989088	-0.1046401019	-0.237622
N	 1.0344990272	 1.0333775784	 0.06913913	-0.317472
C	 0.0592178504	-0.0707475863	-0.0053797419	-0.064609
C	-0.1026525964	-0.8300963224	 1.2701157421	 0.085129
O	-1.2550814236	-1.6844874434	 1.4020552234	-0.270562
C	 0.0414800514	-2.2912813602	 1.3838168541	 0.014543
C	 0.3340891414	-3.1850969269	 0.2141356358	-0.035642
C	-0.561158233	-4.3350437553	-0.0667545396	-0.239944
N	-0.5490287517	-3.1611825827	-0.9594319997	-0.320123
H	-0.8601971866	 1.821535757	 0.7507052002	 0.123494
H	-0.7430221716	 1.6945568502	-1.0706123074	 0.118144
H	 1.5265579386	 1.1195373031	-0.81559808	 0.238928
H	 0.0294874906	-0.6628436897	-0.9149667551	 0.11817
H	 0.1064310104	-0.2311787463	 2.1572489092	 0.102392
H	 0.3644416515	-2.6851109699	 2.3497856289	 0.099104
H	 1.3926523842	-3.2828003118	-0.0201045765	 0.100672
H	-0.1574601558	-5.2476729628	-0.4951534804	 0.119445
H	-1.4221053973	-4.471719122	 0.5823728057	 0.12327
H	-1.3538245593	-2.582869918	-0.7194631971	 0.242684
57.5383	111.5692	123.7917	192.6571	259.658	295.6908	332.8321	475.3013	548.1659	639.6151	740.9593	836.126	850.4655	866.9561	869.8891	895.8187	921.3724	956.926	962.3975	997.8594	1010.077	1037.9549	1106.8602	1119.6265	1127.3077	1140.054	1151.4149	1160.2576	1195.4651	1240.1417	1247.4113	1278.2866	1288.2723	1296.7863	1314.3322	1348.6932	1396.3535	1434.4901	1497.5063	1508.7502	1520.1977	3085.7047	3109.3904	3111.1072	3111.6887	3125.2346	3163.601	3195.6733	3199.5452	3475.123	3513.9488
C1NC1C1OC1C1CN1	C1N[C@H]1[C@H]1O[C@H]1[C@H]1CN1	
InChI=1S/C6H10N2O/c1-3(7-1)5-6(9-5)4-2-8-4/h3-8H,1-2H2	InChI=1S/C6H10N2O/c1-3(7-1)5-6(9-5)4-2-8-4/h3-8H,1-2H2/t3-,4-,5-,6+/m1/s1
