16
gdb 123823	3.64865	1.56199	1.12235	3.2973	77.07	-0.2165	-0.0232	0.1933	1032.0668	0.12752	-400.765472	-400.758845	-400.757901	-400.796475	26.321	
C	-0.0197208623	 1.493732614	 0.0996577714	-0.271269
C	 1.3785801822	 2.1438479403	-0.060727925	-0.341457
C	 2.1572841258	 1.3595248297	-1.0587435768	 0.366616
C	 1.9649320567	 0.0346333998	-1.3253321312	 0.13297
C	 2.9948485507	-0.2495755083	-2.2627660857	-0.089452
N	 3.7295352127	 0.8035618034	-2.532507886	-0.146932
O	 3.1915539152	 1.8410463539	-1.7505119181	-0.223859
C	 0.9032089324	-0.7043316904	-0.6579233091	-0.169093
C	-0.0113634067	-0.0223382891	 0.0450780818	-0.087463
H	-0.4722656289	 1.8392900341	 1.0338631775	 0.114229
H	-0.6767620499	 1.8593496566	-0.7045823407	 0.124738
H	 1.288287412	 3.1937589609	-0.3525317811	 0.13184
H	 1.917833485	 2.1283905765	 0.8977328716	 0.131729
H	 3.2269880524	-1.1822836611	-2.7585031806	 0.131664
H	 0.8696755258	-1.7860191616	-0.7327663542	 0.097295
H	-0.8210303032	-0.5439310588	 0.5452401261	 0.098445
130.0714	210.28	255.6401	376.1439	422.9175	501.3195	581.1182	633.0042	665.0941	698.8597	744.5932	795.9842	864.1977	882.5226	912.4241	917.3992	965.4531	979.3225	1018.9125	1035.9398	1162.5208	1179.688	1200.1392	1210.0201	1240.142	1304.2381	1332.407	1352.7125	1393.0804	1451.6585	1469.1208	1480.4612	1512.4655	1641.1844	1682.6406	2989.9057	3005.7489	3078.016	3090.6361	3173.7971	3195.1169	3237.8059
C1CC2=C(C=NO2)C=C1	C1Cc2c(cno2)C=C1	
InChI=1S/C7H7NO/c1-2-4-7-6(3-1)5-8-9-7/h1,3,5H,2,4H2	InChI=1S/C7H7NO/c1-2-4-7-6(3-1)5-8-9-7/h1,3,5H,2,4H2
