18
gdb 64934	4.30363	0.70605	0.66074	1.0942	84.57	-0.2401	0.0205	0.2606	1724.5803	0.146154	-401.869424	-401.860073	-401.859129	-401.905441	33.37	
C	 0.4410312201	 0.9527303979	 0.8068029771	-0.465984
C	-0.0286845125	-0.0737315348	-0.20352819	 0.218215
C	 0.4312167216	 0.0006892778	-1.6069690183	-0.208578
O	 1.0047463621	-0.9445634828	-0.7120310518	-0.257558
C	-1.2923593754	-0.712072558	 0.0822126964	 0.024741
C	-2.3482818317	-1.2283648647	 0.3544827378	 0.139815
C	-3.6096509733	-1.8314351132	 0.6768486377	-0.169482
C	-3.6548019365	-3.2521741173	 1.1405313561	-0.224844
N	-3.9371488237	-2.169260196	 2.0853467286	-0.305834
H	 1.4068189239	 1.3638465024	 0.5030677794	 0.129018
H	-0.28439032	 1.7672346668	 0.8924513092	 0.132924
H	 0.552560803	 0.4921469255	 1.7927364585	 0.135054
H	-0.1916106735	-0.4154615101	-2.3966098713	 0.121158
H	 1.078871277	 0.825662036	-1.9034325705	 0.11532
H	-4.4639777902	-1.4507368283	 0.1228383977	 0.118673
H	-4.5112767847	-3.864510629	 0.8733957573	 0.127219
H	-2.709931266	-3.7824521905	 1.2099628223	 0.129273
H	-3.1162803402	-1.9962841616	 2.6611353537	 0.240869
18.6922	81.4268	87.1897	190.6625	201.0534	227.7022	324.2001	360.9879	460.3716	492.9342	544.8216	569.6866	624.5147	775.7232	810.2515	830.5388	884.2353	925.6142	957.8312	983.8081	1027.082	1047.3978	1097.2209	1114.6745	1137.1122	1143.7606	1168.7993	1191.2217	1251.8053	1289.8035	1301.249	1360.9767	1401.5673	1410.0178	1478.2434	1494.3602	1505.216	1520.8306	2352.3285	3044.6128	3080.5085	3116.0059	3116.2302	3129.5801	3138.0469	3173.1165	3207.8284	3502.5339
CC1(CO1)C#CC1CN1	C[C@]1(CO1)C#C[C@H]1CN1	
InChI=1S/C7H9NO/c1-7(5-9-7)3-2-6-4-8-6/h6,8H,4-5H2,1H3	InChI=1S/C7H9NO/c1-7(5-9-7)3-2-6-4-8-6/h6,8H,4-5H2,1H3/t6-,7+/m0/s1
