21
gdb 78589	2.46429	1.57062	1.18193	1.2543	82.15	-0.2313	0.0708	0.3022	1135.6905	0.18199	-387.033425	-387.024565	-387.023621	-387.066508	34.663	
C	-0.1374903226	 1.5742979949	-0.3537004547	-0.434702
C	 0.1209571146	 0.0724912491	-0.2679228795	 0.054335
C	 0.8461413468	-0.7118729989	-1.3621792571	-0.139476
C	 2.3617023554	-0.835058648	-0.9784281137	-0.181772
C	 2.5797573793	-0.1349022071	 0.3634517891	 0.055474
C	 3.074514062	 1.3049636859	 0.4726254923	-0.432179
C	 1.1294393793	-0.5934359284	 0.7244219612	-0.19427
C	 1.3142112516	-1.738428957	-0.3865651162	 0.385119
O	 1.1050906468	-3.0926212554	-0.3951686011	-0.457401
H	 0.7144689932	 2.1368598162	-0.7371970147	 0.12017
H	-0.9808546919	 1.7677418235	-1.0264180022	 0.111059
H	-0.4014969928	 1.9864472342	 0.6268583469	 0.111529
H	-0.8410219301	-0.4275194243	-0.0993644778	 0.080287
H	 0.5442746208	-0.8811358019	-2.3886799557	 0.083694
H	 3.0878239565	-1.0723371429	-1.7469089501	 0.080557
H	 3.2551626434	-0.7664365331	 0.956064112	 0.064507
H	 2.6025040811	 1.9767216542	-0.2448992696	 0.121936
H	 2.9020026704	 1.7072872824	 1.4772978973	 0.11179
H	 4.1541673225	 1.341786889	 0.2873822625	 0.109748
H	 0.8491036585	-0.7383024565	 1.7674049546	 0.060832
H	 1.8303852152	-3.5184831359	 0.0758177665	 0.288765
97.8732	148.8899	168.0479	228.0856	243.1269	300.8572	310.5594	355.6099	404.9722	542.2166	584.0659	644.3054	671.5725	676.4076	739.7896	855.4842	876.1413	907.1719	938.6162	944.5658	962.8514	1012.7733	1043.5952	1063.3174	1077.6481	1082.4521	1083.9353	1123.5651	1128.3483	1151.4761	1179.5072	1221.5976	1247.6752	1287.0089	1300.7783	1335.3697	1394.8659	1404.1153	1406.2598	1414.0342	1482.7207	1490.6453	1495.6926	1499.5451	1519.1157	3008.586	3023.7908	3032.9012	3036.3256	3085.7318	3087.5061	3118.81	3129.668	3150.6196	3184.4487	3194.6333	3784.1433
CC1C2C3C(C)C1C23O	C[C@H]1[C@H]2[C@H]3[C@@H](C)[C@@H]1[C@@]23O	
InChI=1S/C8H12O/c1-3-5-4(2)7-6(3)8(5,7)9/h3-7,9H,1-2H3	InChI=1S/C8H12O/c1-3-5-4(2)7-6(3)8(5,7)9/h3-7,9H,1-2H3/t3-,4+,5-,6+,7-,8-
