17
gdb 116836	3.64195	0.60367	0.52284	4.1799	89.4	-0.2639	-0.0761	0.1879	2063.3581	0.132417	-384.644393	-384.634072	-384.633128	-384.682058	35.216	
C	-0.0330651185	 1.5553633853	-0.0144302595	-0.383595
C	-0.0101599898	 0.0259925832	-0.0190511672	-0.160185
C	 0.7247883006	-0.5468346759	 1.2103631213	-0.345016
C	 0.7681183432	-2.0000659052	 1.2419367881	-0.037313
C	 0.7952040884	-3.2076981309	 1.254170549	 0.144454
C	 0.8377922727	-4.6482941009	 1.2880264635	 0.146667
O	 1.3729119493	-5.2804834774	 2.1786442827	-0.269301
C	 0.1862471708	-5.2998364944	 0.165941059	 0.286925
C	-0.3508747319	-5.8507596309	-0.7595719193	-0.478642
H	 0.9815828614	 1.968674422	-0.0232028261	 0.119853
H	-0.5575907254	 1.9424177288	-0.8926967332	 0.120631
H	-0.5415544245	 1.9431458319	 0.8752181842	 0.119853
H	-1.0319643967	-0.3684028026	-0.0355729971	 0.115879
H	 0.4790206095	-0.3430724846	-0.9270169477	 0.115877
H	 1.7531845612	-0.1616127582	 1.2416044766	 0.143077
H	 0.245428256	-0.1870566796	 2.1311138317	 0.143099
H	-0.8230590662	-6.3443718906	-1.5739281459	 0.217738
19.3744	49.6534	71.3124	140.0735	156.9265	227.6641	247.8323	264.7292	310.1096	407.1691	439.4746	551.6639	601.3433	647.0424	701.889	707.0618	739.739	774.375	867.4286	886.2505	993.4238	1045.1792	1109.4229	1116.5402	1227.775	1255.3026	1301.9207	1321.1678	1379.6072	1416.796	1458.8542	1491.9155	1500.9319	1508.6109	1718.7863	2215.4884	2331.6337	3013.3552	3032.5434	3041.2604	3045.4914	3077.8332	3103.7657	3110.636	3495.1093
CCCC#CC(=O)C#C	CCCC#CC(=O)C#C	
InChI=1S/C8H8O/c1-3-5-6-7-8(9)4-2/h2H,3,5H2,1H3	InChI=1S/C8H8O/c1-3-5-6-7-8(9)4-2/h2H,3,5H2,1H3
