16
gdb 31451	5.62199	0.85121	0.78095	4.7298	79.62	-0.243	-0.0275	0.2155	1439.1015	0.125022	-400.805354	-400.797029	-400.796084	-400.838982	30.069	
C	 0.1485519362	 1.5533356561	-0.1323039029	-0.375794
C	-0.064327314	 0.0452933173	 0.0864541608	-0.294845
C	 0.5658939237	-0.4669019814	 1.3345798585	 0.400093
C	 0.0806896816	-1.0183868753	 2.4760827817	-0.408836
C	 1.2212293722	-1.2944728867	 3.3135015472	 0.15946
C	 2.3143453493	-0.8834147158	 2.6044872124	-0.101531
O	 1.9340318563	-0.3833982752	 1.4129556234	-0.172619
C	 1.225431497	-1.8727517464	 4.6065265686	 0.200812
N	 1.2165093753	-2.346113822	 5.6633347777	-0.339622
H	 1.2141672523	 1.791956923	-0.1847992515	 0.13514
H	-0.3192286178	 1.8735003561	-1.0675083413	 0.121539
H	-0.2883010696	 2.1328999603	 0.6862067635	 0.127575
H	-1.1332632017	-0.1834454126	 0.1362720787	 0.123398
H	 0.3359117346	-0.5076622008	-0.7728298401	 0.126211
H	-0.9520557745	-1.2150951135	 2.7134685591	 0.134936
H	 3.370042879	-0.888616373	 2.817674734	 0.164082
53.4716	112.4178	145.273	196.3346	216.9096	333.5077	381.6014	514.8492	534.0455	570.8219	651.6238	674.3986	711.3358	771.752	788.1763	833.7789	936.8692	975.4775	997.884	1069.4174	1089.9696	1159.5109	1193.5241	1221.8334	1286.7299	1303.3848	1355.5863	1377.1458	1409.845	1474.0919	1496.987	1506.2762	1573.8672	1642.4251	2351.0276	3030.5957	3045.5409	3085.5901	3118.9491	3125.6554	3272.5453	3287.09
CCC1=CC(=CO1)C#N	CCc1cc(co1)C#N	
InChI=1S/C7H7NO/c1-2-7-3-6(4-8)5-9-7/h3,5H,2H2,1H3	InChI=1S/C7H7NO/c1-2-7-3-6(4-8)5-9-7/h3,5H,2H2,1H3
