18
gdb 38864	2.81813	2.03105	1.89681	1.8404	69.56	-0.2123	0.0735	0.2858	838.8759	0.152201	-439.065542	-439.059374	-439.05843	-439.095678	26.471	
C	-0.0563951921	 1.5173711757	 0.0812910188	-0.244963
C	 1.4867503685	 1.4468180982	-0.0351375257	 0.0769
O	 2.0374238008	 1.1278018893	 1.2507763356	-0.28502
C	 1.7326227803	-0.2198095345	 1.5796293733	 0.17563
C	 2.6107790422	-1.1577594478	 0.7506298031	-0.165893
N	 2.2540246916	-0.9707384092	-0.6682620151	-0.317188
C	 1.3007120999	 0.099073359	-0.8198428824	-0.024449
C	 0.0019003164	-0.0307996858	 0.0316129814	 0.101044
O	 0.3673340303	-0.514489323	 1.3323306619	-0.282298
H	-0.4584572713	 1.9588928836	 0.9936250792	 0.111225
H	-0.5271461689	 1.95121527	-0.8053456019	 0.097958
H	 2.062544202	 2.2776742227	-0.4470529597	 0.072876
H	 1.901115862	-0.3370718431	 2.6518762855	 0.091028
H	 3.6624798732	-0.9204312924	 0.9504541941	 0.100152
H	 2.4291283228	-2.1944035455	 1.063081768	 0.104954
H	 3.0733240498	-0.8184388271	-1.241714101	 0.223999
H	 1.0727733125	 0.2739068146	-1.8727779454	 0.083867
H	-0.8444173699	-0.6236973548	-0.3178588999	 0.080178
196.7081	336.6988	354.9363	408.2436	457.6279	544.7201	569.1829	661.2398	698.1374	752.9282	831.7856	842.8362	847.0477	865.7923	907.1531	922.3693	973.8471	984.8305	1003.0263	1037.3972	1065.2174	1126.8055	1133.9559	1137.432	1158.5632	1188.7949	1220.5149	1240.0917	1251.2827	1269.6613	1312.9895	1318.904	1339.0588	1383.6149	1391.2263	1416.49	1458.2661	1469.9744	1505.8089	3010.0405	3050.2573	3064.5927	3091.1888	3097.9375	3100.972	3108.1946	3141.5284	3558.8633
C1C2OC3CNC2C1O3	C1[C@H]2O[C@@H]3CN[C@H]2[C@H]1O3	
InChI=1S/C6H9NO2/c1-3-6-4(1)9-5(8-3)2-7-6/h3-7H,1-2H2	InChI=1S/C6H9NO2/c1-3-6-4(1)9-5(8-3)2-7-6/h3-7H,1-2H2/t3-,4+,5+,6-
