22
gdb 118916	2.496	1.05832	0.96998	2.2921	83.27	-0.261	0.0317	0.2927	1390.7823	0.193238	-404.36101	-404.35099	-404.350046	-404.396172	36.74	
C	-0.1117303303	 1.5822186531	 0.0172185431	-0.381561
C	-0.0327182083	 0.0537499076	-0.0370012763	-0.180289
C	 0.795673389	-0.5260846917	 1.1171339662	-0.233625
C	 0.8027054033	-2.0613237098	 1.2048538872	 0.164177
C	 1.3672443043	-2.7426928201	-0.0425640634	-0.451828
C	 1.3381552652	-2.6144905846	 2.5534124433	-0.129455
O	 0.0096558033	-3.1262286395	 2.8857104052	-0.259161
C	-0.509144275	-2.6627125241	 1.6964850046	 0.42226
N	-1.6718201299	-2.7398406018	 1.230181162	-0.552086
H	 0.8846588745	 2.0364291829	-0.0319936311	 0.109954
H	-0.6988294464	 1.9781415653	-0.8170163422	 0.113951
H	-0.5834093382	 1.9216040659	 0.9461703309	 0.115283
H	-1.0395924773	-0.376444767	-0.0025534421	 0.136207
H	 0.4025236026	-0.2506910927	-0.9960935248	 0.096049
H	 1.8364099668	-0.180603171	 1.0384204057	 0.093358
H	 0.4111115906	-0.1251046019	 2.0645251414	 0.098949
H	 2.37241096	-2.3681747703	-0.2661210987	 0.115836
H	 1.42840907	-3.8267116935	 0.0936410002	 0.121636
H	 0.7296386915	-2.5544334865	-0.9094664559	 0.14442
H	 2.0640790526	-3.4293990946	 2.4884018607	 0.114761
H	 1.6630807108	-1.8710177009	 3.2861229075	 0.115427
H	-2.2995542691	-3.2308905448	 1.8695507365	 0.225737
75.1862	91.7875	103.0988	168.1675	201.3566	226.8797	247.7739	291.9876	319.9727	367.8655	406.2973	511.3049	683.6635	724.5872	749.3469	759.5308	861.9938	867.0191	895.1083	911.1271	954.0542	971.8309	988.6572	1017.509	1049.1133	1071.8515	1104.2361	1155.988	1178.1533	1224.3675	1238.3778	1253.2543	1288.4293	1321.3267	1342.5208	1379.3855	1397.6097	1411.4661	1414.989	1479.9024	1494.2481	1495.207	1498.9399	1501.2974	1512.1836	1516.9289	1814.2594	3002.1902	3027.5326	3032.4781	3035.2428	3042.2127	3054.3281	3074.3295	3098.9139	3102.0072	3103.5612	3113.1958	3125.1043	3470.305
CCCC1(C)COC1=N	CCC[C@@]1(C)CO[C]1[NH]	
InChI=1S/C7H13NO/c1-3-4-7(2)5-9-6(7)8/h8H,3-5H2,1-2H3	InChI=1S/C7H13NO/c1-3-4-7(2)5-9-6(7)8/h8H,3-5H2,1-2H3/t7-/m0/s1
