20
gdb 7283	3.99959	1.06879	0.89548	3.0346	72.24	-0.2483	-0.0168	0.2315	1306.036	0.17357	-386.155611	-386.145639	-386.144695	-386.190673	35.417	
C	 0.0107379486	 1.5620193274	 0.0115923204	-0.390179
C	 0.0290268457	 0.0270638218	 0.0248446417	 0.018601
C	 0.8347153957	-0.4971564339	 1.2220412621	-0.399103
C	-1.4094396341	-0.5281808369	-0.0049741751	 0.131542
O	-2.1547621053	-0.0077046709	-1.1053974278	-0.427655
C	-1.4865725893	-2.0632117353	-0.0133884293	-0.317543
C	-2.9190940669	-2.5312694853	-0.1626168913	 0.17361
O	-3.2936285051	-3.3470590311	-0.9637620783	-0.244682
H	 1.0247588181	 1.9618406213	-0.0867723251	 0.109664
H	-0.5969842915	 1.9405206701	-0.8125217738	 0.128825
H	-0.4110983491	 1.9521086665	 0.9457893413	 0.112127
H	 0.52254579	-0.3192933593	-0.8971603788	 0.065222
H	 1.8213576432	-0.0248457035	 1.2527848121	 0.118661
H	 0.3298920622	-0.2621806089	 2.1670064668	 0.116115
H	 0.9904185026	-1.5788787968	 1.1822469312	 0.11765
H	-1.9431777126	-0.153090601	 0.8793904515	 0.091127
H	-1.7670293158	-0.3546242093	-1.917426173	 0.283365
H	-0.8916854792	-2.4912327531	-0.8288885012	 0.111711
H	-1.100249346	-2.4659241147	 0.9319363499	 0.126226
H	-3.6299885111	-2.061109777	 0.5553473766	 0.074716
63.1973	84.8762	89.791	167.9719	221.7247	227.1284	273.9764	313.2953	327.1798	368.8649	409.9405	462.9035	488.3511	571.4801	775.5771	846.5693	909.1998	931.1692	964.0198	969.5867	1028.1576	1057.132	1082.8503	1136.926	1159.2443	1187.7914	1193.9738	1270.3199	1286.5821	1345.4621	1354.0221	1385.8046	1398.5166	1412.4992	1423.1379	1431.8545	1459.3776	1489.7163	1491.668	1505.5456	1514.4699	1838.6303	2868.4401	2978.5694	3020.5307	3027.0946	3029.2852	3034.5312	3081.3999	3093.3835	3098.8778	3111.1098	3132.0488	3792.5982
CC(C)C(O)CC=O	CC(C)[C@@H](O)CC=O	
InChI=1S/C6H12O2/c1-5(2)6(8)3-4-7/h4-6,8H,3H2,1-2H3	InChI=1S/C6H12O2/c1-5(2)6(8)3-4-7/h4-6,8H,3H2,1-2H3/t6-/m0/s1
