15
gdb 128036	6.6836	0.79706	0.71635	0.7675	75.32	-0.2423	-0.0204	0.2219	1521.2141	0.111674	-453.926671	-453.91836	-453.917415	-453.961224	28.927	
C	-0.0046746775	 1.4017610948	 0.0121112735	-0.320714
N	 0.2530517407	-0.0206665408	-0.0960843714	-0.186518
C	 0.5971455531	-0.6261023462	 0.9425740274	 0.099672
O	 0.8268770266	-1.9833565148	 0.8536346372	-0.239078
C	 1.2764754357	-2.6576815537	 1.9163799757	 0.561941
C	 1.3969298069	-4.0027638991	 2.0882627868	-0.404529
C	 1.9477264178	-4.0916403482	 3.3910681317	 0.061994
N	 2.1418715097	-2.925124018	 3.9558847379	-0.152925
O	 1.7069385954	-1.9875645541	 2.9897013807	-0.223346
H	 0.6540087618	 1.9387802886	-0.6784500966	 0.140251
H	-1.0333539957	 1.6049876244	-0.3037539035	 0.13968
H	 0.139356885	 1.8093468917	 1.0242613557	 0.109302
H	 0.73616665	-0.2104130856	 1.942716552	 0.1395
H	 1.1313131592	-4.7838324907	 1.3986991856	 0.134022
H	 2.2116748913	-4.9810459082	 3.9466597172	 0.140748
27.877	72.078	128.0406	207.3138	279.	310.4569	328.8359	409.5527	541.3306	632.6861	703.2627	774.038	782.096	890.1378	926.4561	929.1257	965.2771	1019.2142	1052.3105	1055.6511	1129.8198	1140.7479	1178.4141	1230.8558	1318.4089	1381.2615	1396.8306	1447.256	1480.4482	1503.175	1533.7727	1651.3788	1785.0762	2987.2095	3074.4	3093.1102	3111.8264	3241.7516	3298.7856
CN=COC1=CC=NO1	CN=COc1ccno1	
InChI=1S/C5H6N2O2/c1-6-4-8-5-2-3-7-9-5/h2-4H,1H3	InChI=1S/C5H6N2O2/c1-6-4-8-5-2-3-7-9-5/h2-4H,1H3
