20
gdb 72279	3.20369	1.58213	1.33731	0.8179	78.26	-0.227	0.0851	0.3122	1028.8286	0.173239	-403.115219	-403.107687	-403.106742	-403.146735	30.442	
C	-0.1145463954	 1.5494846268	 0.057221815	-0.490113
C	 0.055660777	 0.0617757589	-0.0478184764	 0.333784
C	-0.2320935664	-0.738774772	-1.317465589	-0.314416
C	-0.8426935081	-1.8224990118	-0.3921966407	 0.018841
C	-0.0224276074	-3.0927099642	-0.2641674744	-0.092421
O	 1.3617180888	-2.7855539175	-0.2194249809	-0.242277
C	 1.673564946	-1.913276018	 0.8493734122	-0.115821
C	 0.7252577369	-0.7401469508	 1.004661002	-0.062116
N	-0.7355017521	-0.9178110924	 0.8262172048	-0.206226
H	 0.7125939884	 2.0702770265	-0.4401549805	 0.121633
H	-1.0477135431	 1.87221699	-0.4173651221	 0.121208
H	-0.1369536619	 1.8704215805	 1.1027770679	 0.126832
H	-0.9916308452	-0.2488298256	-1.9314873581	 0.102379
H	 0.6156389657	-1.0212840333	-1.9445946591	 0.112778
H	-1.8929842213	-2.0525714212	-0.5822083123	 0.080821
H	-0.3309177584	-3.6499020722	 0.6366786584	 0.096124
H	-0.1625737321	-3.7398629128	-1.1357041114	 0.109826
H	 1.6695751322	-2.471871093	 1.8022535177	 0.095542
H	 2.696152746	-1.561059031	 0.675801502	 0.113593
H	 0.9334478806	-0.1790930167	 1.9154025549	 0.09003
173.2876	177.6532	238.5815	265.4216	313.1745	385.5598	399.9381	487.8104	564.996	639.3647	695.91	747.494	806.6974	818.2093	849.8779	889.4089	936.3239	966.2524	986.3731	1026.1852	1053.9484	1085.823	1096.8858	1109.5863	1137.9389	1149.6556	1175.9583	1236.4662	1250.307	1272.6822	1300.3792	1319.7082	1327.4086	1355.1593	1380.1521	1409.5045	1423.3451	1461.9867	1480.7254	1485.0057	1490.7612	1498.9368	1503.4223	2950.3123	2969.5069	3025.3361	3065.0664	3065.5647	3077.0402	3086.6089	3088.3331	3107.5425	3113.8368	3119.741
CC12CC3COCC1N23	C[C@@]12C[C@H]3COC[C@@H]1N23	
InChI=1S/C7H11NO/c1-7-2-5-3-9-4-6(7)8(5)7/h5-6H,2-4H2,1H3	InChI=1S/C7H11NO/c1-7-2-5-3-9-4-6(7)8(5)7/h5-6H,2-4H2,1H3/t5-,6-,7+,8?/m0/s1
