19
gdb 110150	2.40293	1.1692	0.8467	1.978	83.11	-0.2419	-0.0241	0.2178	1379.2501	0.156474	-385.872475	-385.862884	-385.861939	-385.907316	35.232	
C	-0.0962508035	 1.5938593178	 0.2304516522	-0.387728
C	-0.187391079	 0.068793336	 0.3556548731	-0.204578
C	 0.9641761285	-0.5215103255	 1.1632934551	-0.084765
C	 1.0871235776	-2.0851326043	 1.3235944901	-0.21073
C	 2.6196354062	-1.9941467332	 0.9977985776	-0.352687
C	 2.3711023178	-0.5497739188	 0.5421527719	 0.383525
O	 2.9879237999	 0.2218282606	-0.1350634204	-0.295755
C	 0.696311861	-2.6610702605	 2.5921997179	 0.306514
C	 0.3796490261	-3.1196467846	 3.6580424116	-0.442066
H	 0.8467104395	 1.8872490757	-0.2381944509	 0.148446
H	-0.9193954655	 1.9858730572	-0.3743234953	 0.113709
H	-0.1468093341	 2.0727041016	 1.2145545282	 0.114901
H	-1.1336392824	-0.2174696751	 0.8314049403	 0.109047
H	-0.1926107722	-0.3843796789	-0.6439666302	 0.100957
H	 1.0222027721	-0.0500936648	 2.1529562986	 0.112314
H	 0.5586024087	-2.5808531097	 0.5026025328	 0.110951
H	 3.2392419589	-2.0337710337	 1.8985360947	 0.143597
H	 3.0242992519	-2.6848404184	 0.2551979265	 0.135961
H	 0.0979610186	-3.5315599616	 4.5953164164	 0.198388
60.4071	88.4024	133.4005	155.4416	192.7828	252.3973	278.2127	355.3318	420.4802	461.8807	509.1459	601.0972	623.0085	624.2276	641.4077	735.2012	774.8416	820.6153	921.9693	943.7454	974.0839	1028.8919	1051.2432	1060.2013	1098.3088	1141.1753	1158.8188	1201.6167	1213.9734	1231.4685	1274.1872	1330.7566	1351.3602	1369.0829	1412.1693	1439.9497	1489.3161	1498.5157	1512.48	1885.1854	2235.6783	3019.8699	3032.5326	3037.4299	3052.6713	3058.3207	3068.103	3103.298	3126.389	3129.3167	3503.6509
CCC1C(CC1=O)C#C	CC[C@H]1[C@@H](CC1=O)C#C	
InChI=1S/C8H10O/c1-3-6-5-8(9)7(6)4-2/h1,6-7H,4-5H2,2H3	InChI=1S/C8H10O/c1-3-6-5-8(9)7(6)4-2/h1,6-7H,4-5H2,2H3/t6-,7+/m1/s1
