18
gdb 89778	2.44685	1.47967	1.06876	1.3921	78.15	-0.246	0.0378	0.2838	1146.6503	0.146565	-401.869445	-401.860777	-401.859833	-401.902644	33.486	
O	 0.4602128438	 0.6713148175	-0.8406347203	-0.431878
C	-0.0363827617	-0.2696671954	 0.0564838394	 0.167128
C	-0.070242515	 0.0522933618	 1.5810952594	-0.3615
C	-1.4344926516	-0.6364936862	 1.6372395308	 0.380805
C	-1.8082974434	-1.7841188075	 2.4915558384	-0.309356
N	-2.5074641925	-0.4858534184	 2.5996882147	-0.35764
C	-1.5983607364	-0.5368071562	 0.1019913453	-0.344328
C	-2.3489661326	 0.6197052015	-0.343799462	 0.331681
C	-2.8910739663	 1.6240577299	-0.7276756198	-0.449891
H	-0.1891580831	 1.385414692	-0.9029273261	 0.282707
H	 0.4926253005	-1.2064525116	-0.1350834977	 0.099528
H	 0.7369381772	-0.3413090391	 2.2033449221	 0.106202
H	-0.1556011263	 1.1331186275	 1.7386997592	 0.111113
H	-2.4149602994	-2.5935266664	 2.0932971538	 0.121857
H	-1.1174137137	-2.0781219325	 3.2784439111	 0.11418
H	-2.1829408634	 0.0295117178	 3.414543366	 0.23357
H	-1.9405790093	-1.4433703627	-0.4047277887	 0.104308
H	-3.4204487368	 2.4851585378	-1.0538937758	 0.201513
79.6203	121.9989	150.7704	261.1744	297.94	348.5191	374.2325	401.8117	430.7743	484.8568	541.4565	628.5943	650.8026	662.7261	746.354	814.705	845.0037	880.054	924.6216	964.9951	977.4268	997.1299	1031.6329	1062.3945	1107.266	1137.1093	1149.2563	1181.1764	1222.8174	1248.7034	1261.5648	1280.7393	1311.081	1347.9356	1414.5103	1444.2518	1479.8467	1515.6867	2222.1729	3046.4236	3067.2724	3083.5274	3099.5002	3110.7033	3184.8305	3496.3529	3501.2243	3740.9005
OC1CC2(CN2)C1C#C	O[C@H]1C[C@]2(CN2)[C@H]1C#C	
InChI=1S/C7H9NO/c1-2-5-6(9)3-7(5)4-8-7/h1,5-6,8-9H,3-4H2	InChI=1S/C7H9NO/c1-2-5-6(9)3-7(5)4-8-7/h1,5-6,8-9H,3-4H2/t5-,6-,7-/m0/s1
