15
gdb 132775	2.38594	1.82348	1.03718	4.0406	72.32	-0.2101	0.001	0.2111	1060.5474	0.115057	-458.159277	-458.151686	-458.150741	-458.190994	29.811	
N	-0.0738170187	 1.3922712984	 0.1466512444	-0.597942
C	-0.0049940937	 0.009710785	 0.0415874675	 0.293375
C	-1.2033854392	-0.7168173829	-0.047001606	 0.07212
N	-2.4415138547	-0.0436397457	-0.0969919446	-0.619476
C	-1.0825862204	-2.1009103074	-0.1374467083	 0.294956
F	-2.2271027727	-2.7961295757	-0.249115764	-0.093102
N	 0.0288104253	-2.7937022404	-0.1347704325	-0.342965
C	 1.1629893522	-2.0884428627	-0.0211466026	-0.011106
C	 1.198964597	-0.7064134743	 0.0665151363	-0.20843
H	 0.7888828302	 1.8767016123	-0.0549195586	 0.252016
H	-0.8611203538	 1.7926245958	-0.3491169767	 0.258894
H	-2.5727343633	 0.5720028627	 0.6998084874	 0.251101
H	-3.2115738042	-0.6990855255	-0.1419375776	 0.25485
H	 2.0842676261	-2.6634084951	-0.0065737515	 0.10917
H	 2.1464522499	-0.1831770644	 0.1409347267	 0.086538
151.8881	227.6962	250.67	291.1337	316.07	326.2053	465.0212	506.9218	541.596	550.183	569.8253	623.1329	690.3106	722.2722	766.5415	822.5582	839.4426	870.3249	952.4235	995.5375	1086.9521	1136.2037	1228.5193	1279.7653	1312.5189	1361.8277	1373.3242	1488.3227	1530.1476	1618.3489	1630.9968	1653.3129	1668.9657	3166.4383	3187.4712	3504.1598	3536.4321	3612.4263	3648.2881
NC1=C(N)C(F)=NC=C1	Nc1c(N)c(F)ncc1	
InChI=1S/C5H6FN3/c6-5-4(8)3(7)1-2-9-5/h1-2H,8H2,(H2,7,9)	InChI=1S/C5H6FN3/c6-5-4(8)3(7)1-2-9-5/h1-2H,8H2,(H2,7,9)
