21
gdb 111156	3.98648	1.08903	0.99551	1.0323	84.51	-0.2453	0.0969	0.3422	1284.1025	0.182464	-387.006873	-386.998464	-386.99752	-387.039834	32.861	
C	-0.2479296972	 1.2999238396	 0.1348416383	-0.24436
O	 0.3656011223	 0.0589976461	-0.1357598303	-0.25819
C	 0.855057633	-0.5736256505	 1.0109698645	 0.196214
C	-0.1144430476	-1.4194415553	 1.9148246274	-0.190738
C	-0.198374985	-2.4351530492	 0.7310709506	-0.224013
C	 1.3123339355	-2.0427902254	 0.825184949	-0.188939
C	 1.1556499329	-2.1684098478	 2.3525145345	 0.471902
C	 2.1036868035	-1.9805428357	 3.4861801218	-0.374985
C	 1.3697063781	-3.3074581936	 3.2840088587	-0.372777
H	 0.4431299668	 1.9914407448	 0.6418473929	 0.104746
H	-0.5405833711	 1.7344325583	-0.8239545934	 0.126443
H	-1.1442098883	 1.1878788808	 0.7628808803	 0.107428
H	 1.5466021133	 0.0844602648	 1.5559515168	 0.063198
H	-0.9240673759	-1.0649859198	 2.5544187523	 0.067141
H	-0.4450339153	-3.4644518819	 0.9990647131	 0.090918
H	-0.7260184615	-2.0979950382	-0.160132948	 0.106598
H	 2.1381276016	-2.3994765699	 0.2084542112	 0.072491
H	 3.1698311585	-1.9595877669	 3.2819246293	 0.112249
H	 1.8021022242	-1.3621858026	 4.3262306872	 0.110736
H	 0.5856132262	-3.5617709434	 3.9906239312	 0.111587
H	 1.9534643361	-4.1582913942	 2.9462807029	 0.112353
85.4013	141.7406	166.8083	220.5861	255.8924	301.087	361.0379	432.6244	489.0971	593.0229	658.5579	749.3355	782.0129	814.8492	886.2351	898.9974	913.6605	935.675	950.3904	986.8367	1021.6129	1046.3618	1048.7694	1071.4885	1074.9328	1081.4724	1111.7416	1149.4332	1156.3638	1180.098	1182.6586	1184.325	1198.3864	1209.1303	1233.2016	1259.1872	1266.905	1397.4859	1414.9359	1463.6794	1481.5198	1487.8838	1499.951	1509.0027	1527.6451	2976.0355	3006.7548	3024.9621	3076.1146	3102.1963	3110.3374	3115.4032	3118.2881	3121.9769	3155.6313	3194.3671	3208.4946
COC1C2CC1C21CC1	CO[C@H]1[C@H]2C[C@@H]1C12CC1	
InChI=1S/C8H12O/c1-9-7-5-4-6(7)8(5)2-3-8/h5-7H,2-4H2,1H3	InChI=1S/C8H12O/c1-9-7-5-4-6(7)8(5)2-3-8/h5-7H,2-4H2,1H3/t5-,6+,7+
