20
gdb 102199	2.96503	0.86872	0.76302	3.5719	84.9	-0.2735	0.021	0.2946	1523.368	0.168573	-366.003192	-365.992694	-365.99175	-366.040068	37.367	
C	-1.3663118898	-0.9289635622	-0.2275633937	-0.390239
C	-0.0550209041	-0.1559596621	-0.0420012214	-0.195307
C	 0.704646728	-0.4181872611	 1.2730180148	 0.012664
C	-0.0944360298	-0.0121272103	 2.5371096355	-0.374566
C	-0.4723053879	 1.3950250235	 2.5552696388	 0.294327
C	-0.7708045886	 2.5593410798	 2.5590290649	-0.428145
C	 1.1541001233	-1.8919093398	 1.4323841563	-0.355191
C	 2.0050818776	-2.3524657209	 0.3379037209	 0.264045
N	 2.679171478	-2.7025534728	-0.5331857496	-0.311425
H	-2.0987807738	-0.6926845263	 0.5510291611	 0.122338
H	-1.8213689284	-0.6682310262	-1.1874397006	 0.125661
H	-1.2132841415	-2.0133157967	-0.2312269676	 0.1192
H	 0.6188335368	-0.3843504459	-0.8751906803	 0.123825
H	-0.2604839091	 0.9180368071	-0.0950543903	 0.119403
H	 1.6114601393	 0.1970152084	 1.2515206031	 0.10645
H	-0.9948662695	-0.6340999288	 2.6219508729	 0.134557
H	 0.5088886449	-0.2327861317	 3.4273802883	 0.130975
H	-1.0394014661	 3.5866713411	 2.5714225646	 0.199614
H	 1.7083322317	-2.0134792718	 2.3702708364	 0.14948
H	 0.2834539691	-2.5545750533	 1.4965888358	 0.152333
23.7004	55.2459	108.4007	123.2612	181.4906	241.4743	255.8894	310.8383	349.8384	351.649	397.5801	460.9574	523.6895	597.4545	624.582	645.1624	772.2926	775.1134	888.5808	906.8018	959.7076	986.3555	988.4598	1000.6431	1093.3679	1124.1976	1146.3419	1213.3411	1236.1285	1285.0121	1309.9551	1344.256	1369.1069	1385.0847	1389.2614	1414.5005	1463.0287	1475.8585	1487.2973	1503.8583	1507.5976	2238.9501	2360.5412	3017.9401	3033.6376	3039.212	3043.0545	3047.1455	3055.8088	3079.3029	3081.4563	3106.4538	3108.925	3505.2591
CCC(CC#C)CC#N	CC[C@@H](CC#C)CC#N	
InChI=1S/C8H11N/c1-3-5-8(4-2)6-7-9/h1,8H,4-6H2,2H3	InChI=1S/C8H11N/c1-3-5-8(4-2)6-7-9/h1,8H,4-6H2,2H3/t8-/m0/s1
