16
gdb 36580	2.95919	0.93325	0.77261	4.1196	75.75	-0.2788	0.0073	0.2861	1428.665	0.121882	-400.706429	-400.697264	-400.696319	-400.741186	32.769	
C	 0.0467423313	-1.2579816152	 0.2841961086	-0.435489
C	-0.0022847274	-0.0589715708	 0.2149481117	 0.311782
C	-0.1120373776	 1.3782464666	 0.1104105626	 0.198587
C	-1.3858163719	 1.9019977368	-0.530000202	-0.281968
C	-1.475561993	 1.4800245234	-2.0113009764	-0.336424
C	-2.6901071728	 1.9723744135	-2.6540918828	 0.255797
N	-3.6574639991	 2.370073085	-3.1453487059	-0.304087
C	 0.653640897	 2.232253324	 1.0418022155	-0.213851
O	 1.0876051744	 2.0624586679	-0.3035937736	-0.261819
H	 0.1047874212	-2.3167395315	 0.3534093976	 0.209164
H	-2.2545007296	 1.5241728586	 0.0179773263	 0.135511
H	-1.3935663105	 2.9928454714	-0.4589271136	 0.131941
H	-0.6044715698	 1.8633399686	-2.5534271504	 0.170092
H	-1.4494199625	 0.3878732746	-2.0919685118	 0.165595
H	 0.2630847983	 3.2176545102	 1.2925923543	 0.124176
H	 1.2781221522	 1.7630872968	 1.7991122098	 0.130992
58.0748	82.1498	116.5913	158.2107	211.5846	256.4182	348.2415	398.5259	418.0068	515.3733	552.7124	577.0305	637.7393	673.1147	721.5443	765.1411	841.3125	917.1591	936.7962	983.0052	1032.739	1040.0985	1133.4632	1166.86	1184.0474	1259.2482	1280.8071	1313.904	1364.9787	1395.8476	1466.8104	1479.7111	1521.5835	2238.2189	2363.9794	3050.4413	3062.8664	3088.0573	3090.0028	3115.8851	3183.4255	3498.0923
C#CC1(CCC#N)CO1	C#C[C@@]1(CCC#N)CO1	
InChI=1S/C7H7NO/c1-2-7(6-9-7)4-3-5-8/h1H,3-4,6H2	InChI=1S/C7H7NO/c1-2-7(6-9-7)4-3-5-8/h1H,3-4,6H2/t7-/m1/s1
