17
gdb 35088	3.02587	1.53922	1.18896	2.1129	79.07	-0.2435	0.0083	0.2518	1048.47	0.136462	-384.640365	-384.632774	-384.63183	-384.672578	29.451	
C	 0.0621150166	-1.2421348934	 0.07094841	-0.468587
C	 0.0435182703	-0.0408532373	 0.0583844797	 0.349256
C	-0.0174189327	 1.4155668773	 0.0318353332	-0.249075
C	-0.6832030789	 2.0414572491	 1.2521490295	-0.063745
C	 0.0222805271	 3.0463007637	 1.7669420483	-0.089996
C	 1.3241485967	 3.2679985651	 1.049400157	-0.129471
C	 2.5470461739	 2.5519636957	 1.673402275	-0.072997
O	 2.3828284386	 1.4289356226	 0.7811575424	-0.27779
C	 1.3730928044	 2.1111226206	 0.017113762	 0.116849
H	 0.0978998034	-2.3031554441	 0.0870091576	 0.194499
H	-0.5680579265	 1.7130417665	-0.8742970902	 0.108923
H	-1.6366416577	 1.6811191869	 1.6199023576	 0.110097
H	-0.2773956805	 3.6372195035	 2.6258653424	 0.10147
H	 1.4855123749	 4.2933030812	 0.7093260318	 0.084736
H	 3.5062718284	 3.0607513831	 1.5106986019	 0.098154
H	 2.4618329758	 2.2587017649	 2.7255212642	 0.107575
H	 1.719388186	 2.3304130346	-0.9982757424	 0.080103
82.9625	134.2301	185.8251	269.1033	335.0411	432.5485	494.5102	547.0958	618.9265	638.1228	686.1827	743.5397	800.2571	817.3998	867.8403	882.3998	896.7168	966.3471	984.4838	1016.3665	1039.2766	1049.1344	1077.2087	1092.8878	1139.3162	1163.0859	1217.7754	1240.1364	1265.711	1298.6081	1312.9109	1325.6648	1362.0733	1380.1405	1519.1126	1680.1832	2239.3114	2978.6241	3010.5941	3049.984	3066.9511	3087.0962	3184.9211	3214.6052	3504.782
C#CC1C=CC2COC12	C#C[C@H]1C=C[C@H]2CO[C@@H]12	
InChI=1S/C8H8O/c1-2-6-3-4-7-5-9-8(6)7/h1,3-4,6-8H,5H2	InChI=1S/C8H8O/c1-2-6-3-4-7-5-9-8(6)7/h1,3-4,6-8H,5H2/t6-,7-,8-/m0/s1
