22
gdb 22258	2.53564	1.00109	0.86509	1.7213	81.81	-0.2453	0.009	0.2543	1459.6339	0.189849	-441.452281	-441.44077	-441.439826	-441.48916	41.303	
C	-1.6064374853	-0.4128240525	-0.5661885761	-0.386036
C	-0.1384343746	-0.1586947318	-0.1972024284	-0.004183
C	 0.260733571	-0.9526081074	 1.0539799866	-0.390755
C	 0.7823848425	-0.4808485204	-1.3959358167	 0.047162
O	 0.3945452385	 0.2337567159	-2.5701756112	-0.434538
C	 2.2538046359	-0.2487836205	-1.1114168871	 0.368062
C	 2.7825849834	 1.145644421	-0.9095194059	-0.478849
N	 2.9861291079	-1.2956369864	-1.0897664024	-0.175144
O	 4.3313701295	-0.9820825615	-0.8316785702	-0.401035
H	-1.8857155718	 0.120088137	-1.4775141076	 0.121182
H	-1.7802739342	-1.4814110952	-0.7398786589	 0.115744
H	-2.2708152908	-0.0945792096	 0.243378648	 0.107733
H	-0.0239984804	 0.9138842186	 0.0278108758	 0.062456
H	 0.201131584	-2.0304145105	 0.8648822694	 0.122118
H	 1.2821725025	-0.7321490223	 1.3750598834	 0.1214
H	-0.4131310626	-0.7216743895	 1.8849413027	 0.110651
H	 0.6692034296	-1.5389869523	-1.6519080796	 0.101956
H	 0.3440285654	 1.1699330048	-2.348192418	 0.279673
H	 3.2998196625	 1.2235440048	 0.0517864886	 0.149595
H	 3.5215657941	 1.3854564644	-1.6804320467	 0.15339
H	 1.9896048441	 1.8962633284	-0.9411065726	 0.103153
H	 4.7495734387	-1.8489931952	-0.8616900732	 0.306267
58.5473	68.566	78.9717	133.6956	210.3377	219.2434	245.5965	256.4466	268.9089	292.4689	333.4222	372.6288	392.1093	414.4822	454.0815	521.2335	594.5374	682.3192	803.0159	858.2185	921.0083	935.0996	966.0125	988.7899	1023.1612	1038.167	1056.8866	1121.2368	1133.0592	1192.218	1260.3449	1269.1242	1299.2775	1345.2532	1371.9026	1391.6751	1399.4354	1403.9173	1410.1531	1424.0664	1468.1008	1486.8773	1488.1535	1489.7742	1502.5966	1511.9973	1726.0384	2974.9466	3031.7431	3036.4266	3043.8309	3072.3714	3094.6137	3101.865	3104.5294	3115.3672	3123.2872	3127.8624	3804.7415	3819.2957
CC(C)C(O)C(C)=NO	CC(C)[C@@H](O)C(=NO)C	
InChI=1S/C6H13NO2/c1-4(2)6(8)5(3)7-9/h4,6,8-9H,1-3H3	InChI=1S/C6H13NO2/c1-4(2)6(8)5(3)7-9/h4,6,8-9H,1-3H3/t6-/m1/s1
