14
gdb 129513	5.1118	1.01186	0.88647	6.0276	66.83	-0.2341	-0.0078	0.2263	1242.4412	0.10206	-470.030876	-470.022953	-470.022009	-470.064417	28.835	
N	-0.1481809396	 1.3792606487	 0.0851548189	-0.568071
C	 0.0499889554	 0.0159564013	 0.2294929614	 0.44608
O	 1.0512814616	-0.4828591757	 0.6786308701	-0.341307
N	-1.0830343439	-0.7166120516	-0.1701878428	-0.471795
C	-1.1749869459	-2.0947628009	-0.1137881007	 0.550751
C	-2.2139957415	-2.9126098088	 0.2276375475	-0.379658
C	-1.6887727169	-4.2043711313	-0.024568431	 0.049606
N	-0.4561438556	-4.173383294	-0.4662655402	-0.139316
O	-0.1292993607	-2.8117930828	-0.5369618604	-0.184725
H	 0.6986548397	 1.9106026156	 0.2210302751	 0.271003
H	-0.7164567319	 1.6959799831	-0.6861007244	 0.256317
H	-1.9667868534	-0.2320170935	-0.1518316138	 0.263209
H	-3.1797969941	-2.6376659892	 0.6157266398	 0.114866
H	-2.1678544332	-5.1637437608	 0.1133805006	 0.133041
41.1276	83.0258	137.9477	298.2495	376.17	394.1095	412.6866	454.2461	560.2129	620.8746	637.5545	693.7676	754.5246	768.4666	822.0298	914.031	920.6854	935.3285	965.663	1043.8686	1060.9301	1103.262	1221.819	1292.0998	1329.3034	1371.8656	1500.3544	1535.6042	1626.2603	1654.9054	1846.9257	3241.7567	3281.1161	3576.2227	3631.6303	3690.452
NC(=O)NC1=CC=NO1	NC(=O)Nc1ccno1	
InChI=1S/C4H5N3O2/c5-4(8)7-3-1-2-6-9-3/h1-2H,(H3,5,7,8)	InChI=1S/C4H5N3O2/c5-4(8)7-3-1-2-6-9-3/h1-2H,(H3,5,7,8)
