19
gdb 91797	2.32985	1.80801	1.31212	2.7625	70.06	-0.2492	0.0764	0.3256	1026.3245	0.159608	-460.164676	-460.156476	-460.155531	-460.196834	32.751	
C	-0.6197004387	 1.1659772851	 0.1271088131	-0.496593
C	 0.1461436089	-0.1155819587	-0.0143811501	 0.389109
O	-0.4314064142	-1.2782684705	 0.6440615731	-0.321662
C	 0.8770562996	-0.8180884057	 1.0491300436	-0.017045
C	 1.9883751491	-1.6592809689	 0.4485049066	-0.278336
C	 1.5705012714	-1.7979715532	-1.0325925754	 0.066359
O	 0.7137054532	-2.912466619	-1.2586887279	-0.447746
C	 0.7979980431	-0.482873045	-1.3488386252	 0.066442
O	-0.0999478856	-0.6262179088	-2.4203133734	-0.441354
H	 0.0295028461	 2.0265355767	-0.0660947927	 0.124286
H	-1.4343606944	 1.1903748399	-0.6031387861	 0.14721
H	-1.0422563757	 1.2603959578	 1.1302730743	 0.128013
H	 0.9363232313	-0.4438795853	 2.0681840167	 0.098036
H	 2.9460366977	-1.1336359564	 0.5424859554	 0.111609
H	 2.0951851818	-2.6395702684	 0.9226306266	 0.121284
H	 2.4231709276	-1.9376398196	-1.6998022608	 0.09154
H	 0.0219217196	-2.8368345406	-0.5830904538	 0.292325
H	 1.5061791496	 0.3173909493	-1.6069906957	 0.080442
H	-0.2976548904	-1.5746671288	-2.4534288683	 0.286084
139.9091	195.8879	215.3035	250.264	280.4229	316.4534	410.5103	435.9298	463.0107	494.5788	570.922	645.0702	678.5051	710.0375	809.0525	827.5708	856.4045	876.1085	920.7909	972.0956	999.7622	1030.6638	1036.6494	1101.5991	1120.1053	1132.958	1207.1117	1235.9381	1239.6829	1253.8431	1306.7857	1317.2519	1334.7835	1366.4553	1407.8117	1436.8488	1456.0208	1459.6376	1475.6758	1485.9054	1500.2878	3011.0686	3041.0371	3043.3142	3093.3639	3098.1415	3107.8508	3127.5295	3148.3133	3698.5916	3715.9163
CC12OC1CC(O)C2O	C[C@]12O[C@H]1C[C@@H](O)[C@H]2O	
InChI=1S/C6H10O3/c1-6-4(9-6)2-3(7)5(6)8/h3-5,7-8H,2H2,1H3	InChI=1S/C6H10O3/c1-6-4(9-6)2-3(7)5(6)8/h3-5,7-8H,2H2,1H3/t3-,4+,5-,6+/m1/s1
