19
gdb 69333	3.14729	1.26379	1.08376	2.2078	82.11	-0.2431	0.0488	0.2919	1188.5874	0.155921	-385.828559	-385.819324	-385.81838	-385.861913	35.53	
C	 0.0792777396	 1.5621890453	-0.0081343595	-0.50164
C	-0.0809915371	 0.082807232	 0.1166994102	 0.424995
C	-1.3670638741	-0.7543427825	 0.010082284	-0.343412
C	-0.7148955404	-1.813486663	 0.9942739595	 0.108604
C	-1.3894347222	-1.8234307329	 2.3723995718	-0.451624
C	-0.5437998666	-3.1592677454	 0.4721355644	 0.311198
C	-0.4126467617	-4.2812020707	 0.0598782004	-0.472993
C	 0.5575100465	-0.9227412263	 0.9831637055	-0.077887
O	 0.9785944363	-0.7611435596	-0.3684216943	-0.279291
H	 1.0940319147	 1.8608263496	 0.2678103981	 0.136041
H	-0.1022503843	 1.8860377423	-1.0392979796	 0.133564
H	-0.6313590157	 2.0874851875	 0.6380817941	 0.124174
H	-2.2488111401	-0.2818464923	 0.4500965935	 0.107029
H	-1.5965476754	-1.1132921992	-0.9944896063	 0.11782
H	-2.3931465311	-2.2525851752	 2.3070731837	 0.131447
H	-0.8103950416	-2.4205974941	 3.0831610183	 0.128536
H	-1.4729424147	-0.8048306567	 2.7661417577	 0.113335
H	-0.2861941168	-5.2663010965	-0.3157652897	 0.191995
H	 1.3093212846	-0.8425332521	 1.7620793183	 0.098108
97.3875	137.3927	183.8328	195.0741	248.8787	295.3909	312.0762	330.5803	410.0782	450.7617	508.1823	570.0016	608.3283	623.0355	627.7383	681.8482	779.2269	862.4351	887.4585	899.8799	929.9244	955.3073	1011.1062	1019.2118	1061.0314	1132.301	1136.7942	1165.2672	1198.4464	1251.323	1261.4855	1283.2004	1402.8098	1408.333	1454.2718	1474.9138	1485.0858	1490.3209	1496.2825	1499.0303	2232.9568	3034.187	3034.5816	3069.0631	3096.0956	3106.3648	3116.9116	3121.5843	3133.5869	3168.075	3502.1107
CC12CC(C)(C#C)C1O2	C[C@]12C[C@@](C)(C#C)[C@H]1O2	
InChI=1S/C8H10O/c1-4-7(2)5-8(3)6(7)9-8/h1,6H,5H2,2-3H3	InChI=1S/C8H10O/c1-4-7(2)5-8(3)6(7)9-8/h1,6H,5H2,2-3H3/t6-,7-,8+/m1/s1
