17
gdb 35491	3.18584	1.53261	1.45761	5.0451	74.27	-0.2486	0.0295	0.2781	953.7104	0.139483	-380.847062	-380.840288	-380.839343	-380.87826	27.396	
N	-0.1015554037	-1.1803611721	-0.2606424293	-0.341005
C	-0.0748539432	-0.0357412535	-0.1035067767	 0.329427
C	-0.0215700651	 1.4279528452	 0.0548008779	-0.197195
N	-0.6533516916	 1.8655507525	 1.3237931451	-0.278098
C	 0.4555481366	 2.3440211804	 2.1587333732	-0.03515
C	 1.4321594189	 1.1666498732	 2.472190408	-0.228513
C	 2.292555307	 1.6277791404	 1.2943452484	-0.062913
C	 1.5466907939	 2.9532136188	 1.2197539641	-0.100765
C	 1.4222965089	 1.9693866262	 0.0981867646	-0.036422
H	-0.5549827204	 1.856732735	-0.800750975	 0.121605
H	-1.2838655152	 2.6344911777	 1.1212062224	 0.22568
H	 0.0886723386	 2.9243038238	 3.0038369179	 0.080498
H	 1.9489617823	 1.3244186066	 3.4221444424	 0.107312
H	 1.005730887	 0.1600250417	 2.4516616363	 0.124875
H	 3.3509627706	 1.4382867549	 1.1626940663	 0.093434
H	 1.8937663705	 3.9744945522	 1.136759994	 0.093535
H	 1.9320825651	 2.1463066873	-0.8407049696	 0.103695
104.3829	157.3614	289.3313	392.1907	429.6261	508.9828	584.1524	658.6483	683.9566	744.5847	781.8281	805.0845	839.8513	854.3429	878.5763	902.2912	969.1013	972.4538	996.0951	1014.3495	1049.86	1057.923	1069.7107	1115.0356	1119.2022	1149.6552	1202.3485	1225.0432	1253.2802	1283.579	1303.6779	1307.5571	1370.6356	1390.1555	1449.9102	1498.3881	2356.6883	3048.3217	3059.488	3112.9671	3130.3018	3183.5875	3193.4231	3207.2161	3520.6472
N#CC1NC2CC3C2C13	N#C[C@H]1N[C@H]2C[C@@H]3[C@H]2[C@H]13	
InChI=1S/C7H8N2/c8-2-5-7-3-1-4(9-5)6(3)7/h3-7,9H,1H2	InChI=1S/C7H8N2/c8-2-5-7-3-1-4(9-5)6(3)7/h3-7,9H,1H2/t3-,4+,5-,6-,7+/m1/s1
