19
gdb 76119	2.96075	1.30808	1.09354	1.1687	80.86	-0.2503	0.0492	0.2995	1156.2498	0.156949	-385.8258	-385.816595	-385.815651	-385.859204	35.425	
C	-0.212332744	 1.5492395578	 0.1261766981	-0.422196
C	 0.0306126767	 0.0500059241	 0.0496771993	-0.054161
C	 1.1407641357	-0.5315654293	-0.9330219447	-0.212794
C	 1.9767014865	 0.408834476	-1.6565279631	 0.355628
C	 2.6643987615	 1.2024354321	-2.2441002683	-0.483222
C	 1.7703182928	-1.2726781384	 0.2651679492	-0.118856
C	 2.1846720814	-0.2799789145	 1.3265673486	-0.354
C	 0.7385382016	-0.672769986	 1.2038152676	 0.396235
O	 0.0567112308	-1.3244032333	 2.2181036903	-0.467133
H	 0.7107922037	 2.1013079295	 0.3224903165	 0.124667
H	-0.6275776386	 1.928753993	-0.8128844911	 0.122568
H	-0.9261108596	 1.7803985433	 0.9249191055	 0.109791
H	-0.9078220752	-0.4719589689	-0.1604390066	 0.086597
H	 0.6842639548	-1.2323818508	-1.6375384474	 0.104823
H	 3.2755308706	 1.8924577703	-2.7711063864	 0.193701
H	 2.1732618636	-2.2765338912	 0.2262566157	 0.098902
H	 2.6858071645	-0.7305225188	 2.1775982184	 0.113697
H	 2.5514548244	 0.7051534904	 1.051127589	 0.118886
H	 0.0095138388	-0.7365697152	 2.9794729496	 0.286868
97.3614	132.2352	184.3275	191.7253	234.8815	253.4421	324.704	361.2501	413.0087	474.3012	545.1522	578.5867	621.5875	625.6124	668.0887	681.3856	772.6898	847.223	908.7771	921.1231	942.0292	984.4515	1019.0328	1048.8234	1071.9749	1100.4029	1111.2979	1117.6705	1180.1847	1215.2371	1238.9573	1288.6291	1320.0753	1325.1864	1363.8944	1407.4871	1415.6524	1489.5619	1491.7398	1497.8951	2227.6295	3034.5351	3055.167	3070.2276	3097.9082	3114.0303	3118.0237	3194.7434	3206.4267	3503.967	3802.2955
CC1C(C#C)C2CC12O	C[C@H]1[C@@H](C#C)[C@H]2C[C@@]12O	
InChI=1S/C8H10O/c1-3-6-5(2)8(9)4-7(6)8/h1,5-7,9H,4H2,2H3	InChI=1S/C8H10O/c1-3-6-5(2)8(9)4-7(6)8/h1,5-7,9H,4H2,2H3/t5-,6+,7+,8+/m0/s1
