19
gdb 92920	2.44171	1.37862	1.03281	4.7609	80.99	-0.2422	-0.0018	0.2405	1206.6116	0.160947	-382.090026	-382.081501	-382.080556	-382.123235	32.505	
C	 0.0438399519	 1.5877397931	-0.0051253692	-0.409002
C	 0.0326467379	 0.0629866096	-0.0479614302	 0.045613
C	 0.7624914823	-0.4989586294	-1.2816254708	-0.256232
C	 1.0077001024	-1.9795081615	-1.1565595135	-0.067198
C	 0.8813946267	-2.6417850321	-0.0099611599	-0.051674
C	 0.5305968893	-1.927576223	 1.2859108498	-0.199379
N	 0.5807727063	-0.4660652592	 1.210764847	-0.290951
C	-0.8062051388	-2.3625037062	 1.7516623264	 0.309549
N	-1.8467614391	-2.7268442876	 2.0977021612	-0.329214
H	 1.0695163767	 1.969491029	 0.0720773724	 0.109997
H	-0.3963562245	 2.0059344991	-0.915567656	 0.119253
H	-0.5198794679	 1.9518434077	 0.8571685563	 0.133103
H	-1.0098777832	-0.2799412724	-0.088223636	 0.105829
H	 0.1776812315	-0.2966610496	-2.1880848952	 0.114239
H	 1.7200449605	 0.0257507804	-1.4261976043	 0.104992
H	 1.2983748274	-2.5163878415	-2.0561401396	 0.100976
H	 1.0267279878	-3.7162979318	 0.0476619674	 0.108728
H	 1.2376705086	-2.238948842	 2.0660473034	 0.130618
H	 1.5507469342	-0.1771650824	 1.3025313208	 0.220753
80.2934	112.4849	185.5583	231.0537	268.4334	311.1279	387.113	440.721	454.8806	474.5813	567.1175	613.525	715.7438	748.9192	795.3108	841.7741	896.0626	927.3541	945.1496	975.2046	998.759	1016.9105	1097.5499	1119.4612	1131.5407	1152.964	1222.2654	1223.5835	1282.6816	1316.6708	1342.351	1377.7613	1380.9511	1400.3074	1413.3376	1467.7967	1478.7792	1496.3033	1504.2037	1722.9208	2355.5821	2988.4712	3020.7355	3025.8822	3031.1051	3043.7402	3096.8239	3126.0976	3154.0447	3181.5241	3504.1017
CC1CC=CC(N1)C#N	C[C@H]1CC=C[C@@H](N1)C#N	
InChI=1S/C7H10N2/c1-6-3-2-4-7(5-8)9-6/h2,4,6-7,9H,3H2,1H3	InChI=1S/C7H10N2/c1-6-3-2-4-7(5-8)9-6/h2,4,6-7,9H,3H2,1H3/t6-,7+/m0/s1
