17
gdb 85776	2.49055	1.31796	1.0501	3.5723	70.65	-0.248	-0.0477	0.2003	1186.8659	0.13179	-458.981355	-458.971789	-458.970844	-459.016852	33.256	
C	-0.7855515315	 1.3300684229	 0.2767879766	-0.40903
C	-0.0867980105	-0.0160800445	 0.2718810901	 0.039071
O	 0.9156926942	-0.1665381343	-0.7705124241	-0.304829
C	 1.9735092504	-0.5261530358	 0.1368840552	-0.086049
C	 3.2397328333	 0.328799265	 0.0838689259	 0.349597
C	 3.2059376783	 1.5572634851	-0.7948786136	-0.477675
O	 4.1905589452	-0.0012007099	 0.7495677909	-0.285492
C	 1.0049756921	-0.2765907438	 1.321330411	 0.314305
O	 1.0814195029	-0.2553268229	 2.5073067223	-0.254666
H	-0.0687093805	 2.1501297354	 0.3716565898	 0.13023
H	-1.3485680474	 1.4645828205	-0.6511549513	 0.141165
H	-1.4843587346	 1.3793159877	 1.1172005901	 0.142968
H	-0.8168739131	-0.8367064717	 0.2281722475	 0.11582
H	 2.2669849132	-1.5810829805	 0.0580236766	 0.138066
H	 2.9083119351	 1.290746055	-1.8134501856	 0.156191
H	 2.450889915	 2.2621169316	-0.4291752573	 0.14584
H	 4.1870359478	 2.0327864801	-0.789599684	 0.144486
40.7238	73.7065	121.055	128.3477	189.011	197.1707	246.1527	380.688	429.9347	449.3693	494.7122	558.8991	614.5231	711.8717	793.2645	834.471	876.0651	982.73	991.1001	1019.8393	1036.145	1072.9611	1092.8563	1128.022	1174.7497	1228.797	1269.1869	1286.5106	1360.6573	1383.204	1399.7227	1451.6262	1464.8123	1481.7329	1491.5578	1811.4619	1929.6906	3012.0533	3034.292	3044.4803	3045.613	3107.4334	3122.9908	3125.01	3159.9443
CC1OC(C(C)=O)C1=O	C[C@H]1O[C@@H](C(=O)C)C1=O	
InChI=1S/C6H8O3/c1-3(7)6-5(8)4(2)9-6/h4,6H,1-2H3	InChI=1S/C6H8O3/c1-3(7)6-5(8)4(2)9-6/h4,6H,1-2H3/t4-,6+/m1/s1
