25
gdb 122015	4.6169	0.54526	0.50825	0.2177	88.07	-0.2476	0.0881	0.3357	2285.6585	0.225351	-426.617136	-426.605048	-426.604104	-426.65616	41.442	
C	-0.0303883082	 1.8194094386	-0.4425327443	-0.382725
C	-0.2003219502	 0.3020156621	-0.3384710265	-0.17923
C	 0.8179646967	-0.4573846686	-1.1793063208	-0.038239
O	 0.5905004174	-1.8421275898	-1.0154434107	-0.266327
C	 1.3581949813	-2.6882213525	-1.8572846061	 0.120512
C	 2.818467587	-2.79924355	-1.4182814522	-0.401388
C	 0.6443020435	-4.0386544522	-1.8195457138	-0.06909
O	 1.2829814403	-4.9099010281	-2.7255174713	-0.234155
C	 0.707152825	-6.1928927136	-2.751091426	-0.223671
H	 0.9620326037	 2.1350322306	-0.1018121257	 0.115893
H	-0.1506533502	 2.165572467	-1.4751549805	 0.11566
H	-0.7716430815	 2.34110264	 0.1696543797	 0.116591
H	-0.0990784493	-0.0212662822	 0.7039859394	 0.105861
H	-1.2058968768	 0.0071902563	-0.6597236595	 0.103937
H	 0.719509556	-0.1792820569	-2.2432489387	 0.081263
H	 1.8388873297	-0.1820036747	-0.8688353747	 0.08632
H	 1.3176377371	-2.3150331448	-2.8942709459	 0.071494
H	 3.3275293373	-3.5504102152	-2.0270351423	 0.134757
H	 3.3488945351	-1.8495326611	-1.5296771034	 0.112105
H	 2.8715778192	-3.1037894554	-0.3675257133	 0.115947
H	 0.6744138852	-4.4437332158	-0.7937167543	 0.089799
H	-0.4142693235	-3.8944237054	-2.087160737	 0.090847
H	 0.7630772708	-6.6859656553	-1.7675250877	 0.104236
H	-0.350880858	-6.1599965031	-3.0561525214	 0.104131
H	 1.2652099925	-6.7890626499	-3.4773603927	 0.12547
37.0773	49.3345	80.0348	93.0886	113.3036	146.2013	198.2046	224.5907	227.7385	245.5552	301.5766	322.8373	360.1536	430.7882	522.5285	545.1121	764.226	856.2026	899.9792	909.823	933.1574	947.6642	994.6724	1047.7926	1087.4283	1128.0227	1148.5022	1155.2793	1168.9484	1179.017	1191.4568	1200.2681	1233.6597	1257.4927	1267.1901	1313.6026	1325.9215	1346.1156	1378.8155	1400.3277	1411.038	1417.36	1441.4782	1481.1207	1485.3379	1491.7179	1494.2933	1496.3562	1499.532	1505.3788	1507.9452	1528.4529	1529.0194	2949.7138	2958.0001	2967.3927	2973.6866	2984.4243	3003.8807	3013.7473	3031.063	3038.2698	3042.1404	3070.7016	3098.9142	3107.4103	3112.1996	3112.6736	3130.7102
CCCOC(C)COC	CCCO[C@@H](C)COC	
InChI=1S/C7H16O2/c1-4-5-9-7(2)6-8-3/h7H,4-6H2,1-3H3	InChI=1S/C7H16O2/c1-4-5-9-7(2)6-8-3/h7H,4-6H2,1-3H3/t7-/m0/s1
