17
gdb 15335	3.83329	1.01879	0.87346	2.1198	74.49	-0.2367	0.0375	0.2742	1335.6352	0.141081	-363.804683	-363.795505	-363.794561	-363.840179	31.58	
C	 0.1505041606	 1.5153795653	 0.1455816775	-0.500304
C	 0.0525961223	 0.0639394297	 0.1043901947	 0.095009
C	-0.0352108835	-1.1372832828	 0.0804394383	 0.129167
C	-0.0997280678	-2.5723156592	 0.0188201284	-0.260757
N	-0.7886045405	-3.2922507602	 1.1221942789	-0.335228
C	-1.3658458687	-3.3320852572	-0.2296869498	-0.022169
C	-2.7133046325	-2.6589662493	-0.3426274264	-0.074688
O	-3.7065829227	-3.3988394958	 0.3478090131	-0.422098
H	 1.1917620639	 1.8455555209	 0.0616845513	 0.149738
H	-0.411785407	 1.9779217355	-0.6731726191	 0.149616
H	-0.2475150555	 1.9107952328	 1.0865709651	 0.152999
H	 0.8016366037	-3.0419843829	-0.3711331577	 0.107843
H	-0.2875890308	-4.153788743	 1.32294954	 0.237138
H	-1.2652823121	-4.2614912707	-0.7876452451	 0.093492
H	-2.6377227404	-1.6298613669	 0.0337444799	 0.103222
H	-3.0299795732	-2.6138278727	-1.3897885833	 0.107306
H	-3.3976674957	-3.4640889136	 1.2593204341	 0.289714
28.8565	64.6428	87.4638	129.7534	207.8237	267.0616	330.0504	376.4529	437.7502	462.4096	538.683	592.815	730.2661	816.9773	886.8657	917.5397	969.1901	998.2086	1051.855	1053.1361	1069.1178	1093.2317	1154.1461	1175.5789	1218.0605	1260.1508	1275.7832	1362.7029	1397.3225	1414.2398	1434.841	1459.6058	1476.7441	1478.0026	1499.1499	2370.8273	3017.2316	3027.363	3080.0224	3087.8953	3089.8858	3114.949	3128.2549	3504.2471	3790.368
CC#CC1NC1CO	CC#C[C@H]1N[C@H]1CO	
InChI=1S/C6H9NO/c1-2-3-5-6(4-8)7-5/h5-8H,4H2,1H3	InChI=1S/C6H9NO/c1-2-3-5-6(4-8)7-5/h5-8H,4H2,1H3/t5-,6+/m1/s1
