15
gdb 47689	2.37111	1.71673	1.03311	2.6113	64.96	-0.2713	-0.0227	0.2486	1080.4378	0.11485	-491.117142	-491.109507	-491.108563	-491.150173	27.843	
N	-0.0716550449	 1.1459520447	-0.7158464286	-0.487101
C	-0.0469044898	 0.0649689948	-0.0460131111	 0.367072
C	-1.3857458083	-0.5211467303	 0.351859151	-0.146681
O	-1.4142109357	-1.189310669	 1.5971125016	-0.211694
C	-0.6768565907	-2.3575542506	 1.6271467661	 0.015667
O	 0.6830844916	-2.1596365428	 2.0070359621	-0.222871
C	 1.5748377883	-1.5189534176	 1.2305617336	 0.459171
O	 2.7550043077	-1.6673476932	 1.4049202798	-0.360751
N	 1.1265267144	-0.661999168	 0.2141765884	-0.427858
H	 0.8587440036	 1.4433955118	-1.0170122606	 0.216819
H	-2.100603101	 0.2984020067	 0.4044985552	 0.15826
H	-1.7033251469	-1.2073173459	-0.4495955958	 0.126841
H	-1.0779199827	-2.9885808751	 2.420681951	 0.142608
H	-0.7105815227	-2.8812160012	 0.6600205434	 0.107823
H	 1.9454109571	-0.2636628242	-0.228260756	 0.262694
61.6355	95.7264	149.7581	299.8312	358.6415	398.6519	461.4366	506.6241	541.3195	625.4334	679.4873	731.266	775.2523	841.4406	893.3153	939.3519	995.7555	1025.1344	1070.2086	1144.7015	1146.9724	1189.2952	1281.0288	1313.6961	1339.6436	1388.3375	1394.607	1454.5415	1462.5414	1478.2489	1508.0492	1722.1551	1839.672	2985.0749	2997.4868	3134.3645	3153.8987	3449.7592	3579.1698
N=C1COCOC(=O)N1	[NH][C]1COCOC(=O)N1	
InChI=1S/C4H6N2O3/c5-3-1-8-2-9-4(7)6-3/h1-2H2,(H2,5,6,7)	InChI=1S/C4H6N2O3/c5-3-1-8-2-9-4(7)6-3/h1-2H2,(H2,5,6,7)
