16
gdb 54350	2.01234	1.81591	1.11837	0.6839	69.65	-0.2396	-0.0039	0.2357	1078.1597	0.124845	-434.082799	-434.073778	-434.072834	-434.118461	31.936	
N	 0.0527138015	 1.2906852933	 0.4438727294	-0.565768
C	 0.0081607092	 0.1588921906	-0.3001513843	 0.390445
O	 0.9129647698	-0.2172030131	-1.0159659385	-0.356891
C	-1.2865371082	-0.6761396211	-0.2064516364	 0.021558
C	-1.8402852489	-1.1092559649	-1.6148106656	-0.191569
N	-1.4512334912	-2.5136967404	-1.3694354872	-0.296804
C	-1.0123272315	-2.2110872299	 0.0089028797	-0.19157
C	-2.2819720434	-0.1104144854	 0.6851962599	 0.248985
N	-3.0547674553	 0.366580553	 1.4030532949	-0.361049
H	 0.8874074084	 1.852090456	 0.3985617165	 0.269911
H	-0.7094906269	 1.5849247586	 1.0309467974	 0.285638
H	-2.9128628208	-0.9238205031	-1.7277024818	 0.119169
H	-1.2958640163	-0.6517748762	-2.4448738317	 0.139957
H	-2.226899001	-3.1627029335	-1.4143024932	 0.228854
H	 0.0435280645	-2.4344285284	 0.1820540998	 0.139974
H	-1.6193323699	-2.6452580554	 0.8092737411	 0.119161
16.4105	44.1941	157.8646	190.6961	245.545	268.8474	296.3666	405.6283	481.3552	544.6322	549.0054	601.9256	634.2818	703.6767	761.1233	858.7937	882.5437	935.5078	986.371	1000.8654	1060.0642	1094.6402	1114.1716	1148.0588	1205.214	1263.4289	1304.0917	1340.7932	1370.629	1392.1476	1491.3768	1511.3373	1618.558	1804.8433	2338.1838	3042.7774	3048.4803	3103.3155	3103.7196	3553.8259	3596.2202	3729.0555
NC(=O)C1(CNC1)C#N	NC(=O)C1(CNC1)C#N	
InChI=1S/C5H7N3O/c6-1-5(4(7)9)2-8-3-5/h8H,2-3H2,(H2,7,9)	InChI=1S/C5H7N3O/c6-1-5(4(7)9)2-8-3-5/h8H,2-3H2,(H2,7,9)
