14
gdb 133783	4.49757	0.54031	0.53048	3.0914	59.65	-0.2855	0.0107	0.2961	1961.503	0.095373	-568.152171	-568.142633	-568.141689	-568.188901	32.002	
O	-0.0971546063	 1.454716694	 0.0108869529	-0.411545
C	 0.0424916062	 0.0468207329	 0.0017394026	-0.066544
C	-1.3800670461	-0.5283358419	 0.0124647752	-0.339415
C	-1.3963599375	-1.982266373	 0.0045915488	 0.107202
C	-1.3879949236	-3.1836943828	-0.0019409226	-0.148999
C	-1.3845860712	-4.6413932499	-0.0098681827	 0.261124
F	-2.6310178811	-5.1352851352	-0.0006520876	-0.071103
F	-0.7688920267	-5.125127651	-1.0989864858	-0.072796
F	-0.7483285117	-5.1368048739	 1.0620100513	-0.072768
H	 0.7803185768	 1.8479989795	 0.0046957074	 0.293994
H	 0.5737200376	-0.3083996972	-0.8934703858	 0.106922
H	 0.5910627158	-0.3182318198	 0.8824170322	 0.106923
H	-1.9038981172	-0.1525686098	 0.8991919268	 0.153505
H	-1.9211041851	-0.1429017719	-0.8596639627	 0.153501
27.3561	67.3854	74.2293	130.0482	171.42	236.4449	319.0559	338.5074	408.5123	462.392	474.187	574.3981	613.7353	621.205	775.5486	794.3593	992.8699	1043.4634	1086.758	1087.75	1177.7311	1179.5383	1222.3384	1239.6019	1294.6268	1304.9802	1333.6929	1458.4045	1472.0381	1528.9689	2387.982	2988.3611	3020.8239	3040.4095	3080.5578	3834.3383
OCCC#CC(F)(F)F	OCCC#CC(F)(F)F	
InChI=1S/C5H5F3O/c6-5(7,8)3-1-2-4-9/h9H,2,4H2	InChI=1S/C5H5F3O/c6-5(7,8)3-1-2-4-9/h9H,2,4H2
