21
gdb 77979	2.5289	1.49241	1.29123	1.6155	83.54	-0.2197	0.0082	0.2279	1118.0183	0.182267	-387.08952	-387.080631	-387.079687	-387.122212	35.215	
C	-0.2569590057	 1.605478452	 0.0918790206	-0.401675
C	 0.0106472675	 0.0913222791	 0.0256380806	-0.035857
C	 0.8511024838	-0.3608641307	-1.1566021104	-0.102519
C	 1.8403064338	-1.1837348444	-0.7937335297	-0.165543
C	 1.9125562824	-1.3746879799	 0.6897634631	 0.245123
C	 2.2899293895	-2.7223573148	 1.2578022283	-0.48907
C	 2.2243476082	-0.0871416324	 1.4275906276	 0.089183
O	 2.8323762799	 1.0199258209	 0.8322619138	-0.42665
C	 0.7785028081	-0.4779548443	 1.2242783112	-0.160624
H	 0.674723054	 2.1625329194	 0.210839909	 0.137683
H	-0.7641986754	 1.9533893184	-0.8145727071	 0.106153
H	-0.9009612383	 1.842842724	 0.9444624672	 0.115069
H	-0.9658920916	-0.4121869404	-0.0409759876	 0.084934
H	 0.6384581188	-0.0423660379	-2.1721412232	 0.096067
H	 2.5462810437	-1.6550996583	-1.4703725063	 0.096309
H	 3.3020056805	-3.0131616992	 0.951683191	 0.118915
H	 2.2694376792	-2.7076873931	 2.3519635755	 0.117358
H	 1.6016284861	-3.5067004363	 0.9218974801	 0.118008
H	 2.602366463	-0.2079982207	 2.438933613	 0.099931
H	 2.743389005	 0.9158385796	-0.124385656	 0.278766
H	 0.2124970775	-0.771688861	 2.1025431493	 0.078437
154.8574	179.6801	192.1924	231.9845	246.566	267.8137	304.0588	339.562	380.9287	474.5995	532.0402	596.0258	650.2469	725.0607	731.8132	789.2382	819.1227	848.1082	900.9741	944.3748	960.3511	983.907	1012.7483	1033.3465	1068.0455	1095.9314	1110.8325	1123.9517	1133.4125	1167.1813	1223.007	1268.2931	1310.5832	1315.7996	1335.369	1353.972	1390.2138	1411.5859	1415.9904	1457.1525	1488.8836	1496.643	1499.8125	1509.4161	1659.6432	2981.1097	3020.9158	3036.9377	3079.4604	3098.6613	3098.9064	3133.4959	3147.0624	3159.4827	3170.6297	3195.9214	3748.2481
CC1C=CC2(C)C(O)C12	C[C@H]1C=C[C@@]2(C)[C@@H](O)[C@@H]12	
InChI=1S/C8H12O/c1-5-3-4-8(2)6(5)7(8)9/h3-7,9H,1-2H3	InChI=1S/C8H12O/c1-5-3-4-8(2)6(5)7(8)9/h3-7,9H,1-2H3/t5-,6+,7-,8+/m0/s1
