21
gdb 95088	2.35247	1.54419	1.14806	0.8907	88.98	-0.2342	0.0536	0.2878	1162.163	0.182836	-349.935076	-349.926348	-349.925404	-349.967873	34.858	
C	-0.0227566932	 1.5705307628	 0.0093094505	-0.406198
C	 0.046708789	 0.0437901201	 0.0152875204	-0.028621
C	 0.7942994162	-0.5671383114	-1.1927864225	-0.247817
C	 1.3011586975	-1.9464035266	-0.7170455869	-0.225372
C	 1.5471148671	-1.7751746655	 0.7744025246	-0.08263
C	 2.2788207715	-0.5436521496	 1.2267793641	-0.333171
C	 0.7545613063	-0.5561779475	 1.2424919133	 0.196459
C	 0.0695975497	-0.5261323471	 2.4994802807	 0.184574
C	-0.529461304	-0.4818473621	 3.5429076431	-0.402121
H	 0.9808647684	 2.0102397326	 0.0177895242	 0.111499
H	-0.5423285424	 1.9369666614	-0.8822953962	 0.110299
H	-0.5588467973	 1.9407469073	 0.8885725815	 0.125915
H	-0.9779895321	-0.3502565786	 0.0281887542	 0.079466
H	 0.1533928721	-0.6383234265	-2.0756743415	 0.099732
H	 1.6371231469	 0.0748964405	-1.4721659178	 0.102048
H	 0.5302885082	-2.711335718	-0.8677381673	 0.103653
H	 2.1925108481	-2.2743799629	-1.2630301495	 0.099723
H	 1.5956906693	-2.6559964181	 1.4042883708	 0.095023
H	 2.7656416838	-0.5812178535	 2.1938968115	 0.122977
H	 2.7844065038	 0.0789267813	 0.4958957722	 0.113073
H	-1.0508338389	-0.4490262385	 4.4668762408	 0.18149
113.372	141.3252	180.8846	234.2589	255.003	310.1627	378.1672	453.6992	476.5647	530.3213	562.9901	576.7549	631.5862	638.5923	641.7595	818.511	831.714	858.4989	898.6641	930.6506	943.573	969.2915	993.1845	1042.6983	1059.7767	1075.618	1091.0476	1134.9143	1137.2046	1194.5731	1221.5972	1249.6955	1270.6663	1309.91	1333.8665	1342.9297	1369.2233	1397.9468	1410.0526	1481.1196	1490.2112	1495.133	1501.1498	1511.5577	2230.5212	3016.5967	3030.0477	3033.0871	3043.4226	3070.9397	3093.0898	3098.3919	3106.1795	3135.776	3177.9986	3224.9271	3504.3916
CC1CCC2CC12C#C	C[C@H]1CC[C@H]2C[C@@]12C#C	
InChI=1S/C9H12/c1-3-9-6-8(9)5-4-7(9)2/h1,7-8H,4-6H2,2H3	InChI=1S/C9H12/c1-3-9-6-8(9)5-4-7(9)2/h1,7-8H,4-6H2,2H3/t7-,8-,9-/m0/s1
