17
gdb 54554	3.00126	1.61551	1.21942	3.4413	73.25	-0.2342	-0.0231	0.2111	1021.1169	0.135687	-417.903188	-417.895403	-417.894458	-417.935892	29.505	
C	 0.7284563091	 0.2885608729	 0.8506132172	-0.496011
C	-0.3005579269	 0.311637218	-0.2577643996	 0.236483
O	-0.3321669806	 1.1549787433	-1.1256326631	-0.301884
C	-1.3399649188	-0.7699125668	-0.2380133096	 0.310405
N	-2.169831118	-1.1400126885	-1.4211349587	-0.373326
C	-2.7261947468	-1.9861284238	-0.3191696742	-0.044712
C	-1.3084138452	-2.2425341201	 0.2869298223	-0.070888
N	-1.6558388509	-1.834632149	 1.6879722826	-0.34916
C	-2.4988891544	-0.9451425647	 0.8293928617	-0.07898
H	 1.4861610112	-0.4683794338	 0.6119335659	 0.146845
H	 1.2153747331	 1.2620664888	 0.9251992123	 0.138241
H	 0.2746138204	-0.0097296042	 1.799838194	 0.161051
H	-2.8039151791	-0.3746344465	-1.6598882695	 0.220937
H	-3.5465957232	-2.6931742664	-0.4557868644	 0.089361
H	-0.5872322359	-3.0205478021	 0.0375398952	 0.100483
H	-2.2354407181	-2.5517598284	 2.1316734632	 0.215566
H	-3.169805136	-0.1783751287	 1.2221800248	 0.095589
63.2727	137.1044	164.9117	188.4622	352.4987	377.2912	476.9797	559.7243	581.9369	615.7283	737.2699	783.563	829.207	839.6171	894.4792	908.5042	923.1946	961.2687	1013.5552	1030.2841	1064.275	1073.0304	1092.3581	1107.4464	1144.2732	1155.4927	1185.6429	1209.0848	1264.9602	1272.7103	1290.6337	1319.23	1361.5292	1391.0021	1465.1284	1469.1436	1799.71	3034.8347	3094.3399	3102.893	3105.1706	3127.0517	3153.7371	3407.0676	3430.3198
CC(=O)C12NC3C1NC23	CC(=O)[C@@]12N[C@H]3[C@@H]1N[C@@H]23	
InChI=1S/C6H8N2O/c1-2(9)6-4-3(8-6)5(6)7-4/h3-5,7-8H,1H3	InChI=1S/C6H8N2O/c1-2(9)6-4-3(8-6)5(6)7-4/h3-5,7-8H,1H3/t3-,4-,5+,6+
