15
gdb 52539	4.02967	0.77142	0.65015	4.8324	74.89	-0.2585	-0.0274	0.231	1661.0377	0.109977	-453.968181	-453.957956	-453.957012	-454.006727	33.86	
C	 0.3010220811	 1.3850976314	 0.2662713446	-0.505905
C	 0.119714836	-0.0428517122	 0.0685919139	 0.211176
C	-0.0444934207	-1.2239129819	-0.0999966641	 0.026687
C	-0.2521766534	-2.6247844305	-0.3047149334	 0.181698
N	-1.3335270119	-3.1083270141	-0.7331906679	-0.50022
O	 0.9297816152	-3.3007448983	 0.0500548361	-0.279415
C	 1.0454420312	-4.6653226589	-0.0296971386	 0.517932
N	 2.3038770682	-5.0101129768	 0.3426237278	-0.562944
O	 0.1879093737	-5.4394766328	-0.3846785346	-0.383746
H	 1.3312232503	 1.6197119462	 0.553734704	 0.155272
H	 0.0712542487	 1.9387243401	-0.6504803247	 0.161627
H	-0.3623515597	 1.7574570625	 1.0544648247	 0.160998
H	-1.2748104789	-4.1243630191	-0.8059565076	 0.266372
H	 2.9224576536	-4.3250446162	 0.7389938317	 0.274154
H	 2.5078244266	-5.9884071493	 0.4447428381	 0.276312
8.1387	43.0306	80.7485	85.224	168.5734	185.2475	243.104	311.8278	380.6995	406.5807	428.2182	541.3226	584.5565	623.3296	699.8546	774.0063	819.4781	865.204	948.5318	1047.815	1049.4749	1053.8179	1107.9487	1147.3912	1298.9533	1377.4125	1411.9128	1472.7469	1473.4039	1604.9304	1717.6208	1837.7516	2370.879	3031.29	3094.5368	3097.4468	3492.5921	3626.0172	3762.7872
CC#CC(=N)OC(N)=O	CC#C[C]([NH])OC(=O)N	
InChI=1S/C5H6N2O2/c1-2-3-4(6)9-5(7)8/h6H,1H3,(H2,7,8)	InChI=1S/C5H6N2O2/c1-2-3-4(6)9-5(7)8/h6H,1H3,(H2,7,8)
