18
gdb 74405	2.60104	1.51646	1.27989	3.2093	78.86	-0.2309	0.0022	0.2331	1080.9994	0.146766	-401.935594	-401.92709	-401.926146	-401.968426	32.266	
C	 0.0437383027	 1.4490083497	 0.0853164242	-0.511082
C	-0.0699146482	-0.0357348761	 0.0297497463	 0.325751
C	-0.0381224842	-0.8944787565	-1.0135232883	-0.246915
C	 0.0008100087	-2.2743449878	-0.3655015423	 0.170981
C	-0.0233562938	-3.5383526184	-1.1805216866	-0.510706
N	-0.9134711281	-2.1359145565	 0.8189361606	-0.319473
C	-0.062996168	-0.9799836221	 1.2283789755	-0.232477
C	 1.1186197812	-1.9066885799	 0.7087085091	 0.433143
O	 2.2396719333	-2.1769814576	 0.9714331228	-0.306117
H	 0.9540153402	 1.751733309	 0.6180812699	 0.14231
H	 0.080684287	 1.8847599506	-0.9167926631	 0.1315
H	-0.7987949069	 1.8980229254	 0.6250964107	 0.131999
H	 0.0968692892	-0.6780674946	-2.0651841527	 0.108262
H	 0.8066800679	-3.5492738939	-1.8936182035	 0.132031
H	 0.0667431002	-4.4137684013	-0.5328092288	 0.138682
H	-0.9558871153	-3.6246600555	-1.7486626606	 0.123427
H	-1.8379583668	-1.8117378106	 0.5198481068	 0.202741
H	-0.1490374792	-0.5954572139	 2.24287841	 0.085942
123.762	152.5137	154.527	198.7672	223.0338	266.6617	355.2897	429.9827	515.1323	566.2004	597.6571	640.588	691.7343	755.1823	812.7884	839.669	843.2733	892.9505	917.9187	985.3676	1034.9784	1056.8208	1059.1695	1082.3076	1114.6528	1157.5125	1178.9314	1241.121	1293.821	1313.9431	1349.4585	1411.902	1417.1802	1477.4165	1484.0886	1485.4736	1491.8849	1639.6204	1930.3147	3021.0365	3039.2598	3069.2885	3104.2809	3111.8674	3125.4915	3144.4724	3218.4107	3405.0737
CC1=CC2(C)NC1C2=O	CC1=C[C@]2(C)N[C@H]1C2=O	
InChI=1S/C7H9NO/c1-4-3-7(2)6(9)5(4)8-7/h3,5,8H,1-2H3	InChI=1S/C7H9NO/c1-4-3-7(2)6(9)5(4)8-7/h3,5,8H,1-2H3/t5-,7+/m1/s1
