16
gdb 35093	3.0187	1.56436	1.20409	5.5319	73.67	-0.2657	-0.0099	0.2558	1017.2867	0.126331	-400.748549	-400.741351	-400.740407	-400.780536	27.302	
N	 0.0459494113	-1.1733722098	 0.0452319324	-0.324281
C	 0.0313114314	-0.0182577281	 0.032370497	 0.28875
C	-0.0390344133	 1.4432934181	 0.0019861055	-0.225979
C	-0.7033550262	 2.0505383206	 1.2311363984	-0.064658
C	 0.0178771109	 3.034112532	 1.7647377013	-0.083609
C	 1.3240802548	 3.251577481	 1.0561552789	-0.129987
C	 2.5343265974	 2.4964703941	 1.6627025993	-0.074128
O	 2.3588826079	 1.4084890517	 0.7267449014	-0.273645
C	 1.3583729059	 2.1259055952	-0.0096369157	 0.113703
H	-0.5963528848	 1.71642325	-0.9055866811	 0.130772
H	-1.6631853105	 1.6971311414	 1.5874179299	 0.123565
H	-0.2776073653	 3.6128607978	 2.6329177565	 0.112151
H	 1.5040072147	 4.2825262216	 0.7452718192	 0.093291
H	 3.500891324	 2.9957677817	 1.5222854993	 0.107148
H	 2.4375714152	 2.1651583568	 2.7016963058	 0.116091
H	 1.6947244465	 2.3686468258	-1.022456478	 0.090816
83.9851	142.6395	193.4828	275.0222	360.0899	450.4256	497.435	575.0649	687.7283	749.1051	800.9365	815.0118	868.9908	884.8831	897.0226	970.1146	984.2012	1014.8665	1036.2342	1043.5491	1078.0894	1093.6677	1140.8073	1163.1048	1217.1918	1241.2885	1264.8732	1301.5386	1314.2141	1326.4078	1362.2264	1380.4428	1520.3698	1681.1473	2362.3559	3006.5052	3022.2855	3058.534	3078.8869	3094.8073	3192.0866	3221.1851
N#CC1C=CC2COC12	N#C[C@H]1C=C[C@H]2CO[C@@H]12	
InChI=1S/C7H7NO/c8-3-5-1-2-6-4-9-7(5)6/h1-2,5-7H,4H2	InChI=1S/C7H7NO/c8-3-5-1-2-6-4-9-7(5)6/h1-2,5-7H,4H2/t5-,6+,7+/m1/s1
