19
gdb 114905	3.25648	1.20272	1.07932	1.0779	70.21	-0.2536	0.072	0.3257	1164.8825	0.160299	-460.140325	-460.13212	-460.131176	-460.173659	30.743	
O	 0.0986725616	 1.1988045972	-0.4275768899	-0.424716
C	 0.052219441	-0.1763953516	-0.0703052797	-0.088689
C	-1.4072969955	-0.5743627444	 0.0100584606	 0.001963
C	-2.235042881	-0.6198284468	-1.3102066989	-0.280417
C	-2.7188663705	-2.0554843471	-0.9475125455	 0.093995
O	-2.3017542193	-3.1164780763	-1.7850950667	-0.248837
C	-0.9406030359	-3.3219195553	-1.4959782066	 0.011803
O	-0.7423418451	-3.0186568678	-0.1264585866	-0.259108
C	-1.7361063873	-2.0778385081	 0.2579693728	 0.045725
H	 1.0210440175	 1.4506396731	-0.5301050154	 0.286898
H	 0.5725466443	-0.7992837903	-0.8133417892	 0.089169
H	 0.5396885913	-0.3581692036	 0.9008501739	 0.091128
H	-1.898077499	 0.0493614663	 0.7638750427	 0.08138
H	-3.021269307	 0.1303555753	-1.4090874496	 0.108394
H	-1.6237741303	-0.5974655641	-2.2162662572	 0.110642
H	-3.7858659631	-2.1724368125	-0.7563116591	 0.090594
H	-0.6927952774	-4.3730782906	-1.6711281836	 0.121064
H	-0.3032865624	-2.6765411743	-2.1259516484	 0.084453
H	-2.0903034619	-2.3511821691	 1.2540369562	 0.08456
72.3751	94.4443	157.8226	233.8068	263.2739	296.6026	414.6456	420.8931	504.9268	672.7669	729.3959	757.7792	800.7244	862.7485	893.0328	923.835	946.2104	970.2726	1013.4837	1045.2587	1077.9699	1086.7128	1121.5014	1136.5397	1157.946	1182.5901	1200.7081	1220.5094	1236.7165	1251.6334	1265.4338	1277.4243	1291.8316	1342.3649	1349.0393	1367.0802	1431.4507	1463.6983	1475.9012	1518.8519	1545.791	2943.387	2973.3588	3003.7349	3059.5487	3070.336	3081.6469	3088.0394	3109.4338	3128.7373	3829.0149
OCC1CC2OCOC12	OC[C@H]1C[C@H]2OCO[C@@H]12	
InChI=1S/C6H10O3/c7-2-4-1-5-6(4)9-3-8-5/h4-7H,1-3H2	InChI=1S/C6H10O3/c7-2-4-1-5-6(4)9-3-8-5/h4-7H,1-3H2/t4-,5-,6+/m1/s1
