19
gdb 17320	2.72984	2.39393	1.70429	0.7967	75.52	-0.2059	0.0736	0.2795	866.2995	0.164446	-327.831191	-327.823378	-327.822434	-327.86266	30.684	
C	-0.0932689949	 1.5385336429	 0.0194258284	-0.328841
N	 0.1785263433	 0.105764968	 0.0677103673	-0.105244
C	 1.2986842679	-0.6714111867	-0.3816431636	-0.122023
C	 2.7230253627	-0.2176030133	 0.0897964847	-0.062264
C	 2.755863331	 1.0370039501	 0.9157596427	-0.314149
C	 2.2447607562	-0.236590844	 1.5333755479	-0.104966
C	 0.8236130516	-0.7176070661	 1.0473592264	 0.31026
C	 0.0542099356	-1.751064139	 1.8163264491	-0.480268
H	 0.5435134417	 2.0499224498	-0.7097137379	 0.126618
H	-1.135467456	 1.6913864625	-0.2867586877	 0.113459
H	 0.0368337303	 2.0154336252	 0.9968075137	 0.124536
H	 1.1587848427	-1.3864536797	-1.187497497	 0.087534
H	 3.6214672894	-0.6687340807	-0.3115104707	 0.086659
H	 3.7528676646	 1.3092251942	 1.2534069622	 0.111022
H	 2.128773018	 1.891880092	 0.7150062028	 0.111946
H	 2.734780117	-0.6975749775	 2.3818539742	 0.084815
H	-0.3663458902	-1.3248039338	 2.7360912686	 0.116836
H	-0.7705030143	-2.1359650169	 1.211200624	 0.127336
H	 0.6999931435	-2.5872278469	 2.1070047048	 0.116735
135.3522	193.2789	218.049	253.8526	257.1185	298.0046	369.3438	506.2596	580.6513	631.0056	696.9155	707.6559	762.5798	832.8342	860.2482	914.907	927.4645	952.1941	974.4858	1009.1169	1034.0116	1057.0511	1082.1233	1114.7662	1129.3289	1148.5446	1174.9359	1192.0519	1203.8729	1270.8591	1277.3114	1319.2616	1402.3161	1432.0766	1466.4177	1482.3252	1487.802	1502.0317	1506.1082	1518.33	3009.9701	3021.0624	3061.8738	3078.5894	3095.7966	3119.9518	3134.9301	3143.909	3184.9072	3196.826	3252.6621
CN1C2C3CC3C12C	CN1[C@H]2[C@H]3C[C@H]3[C@@]12C	
InChI=1S/C7H11N/c1-7-5-3-4(5)6(7)8(7)2/h4-6H,3H2,1-2H3	InChI=1S/C7H11N/c1-7-5-3-4(5)6(7)8(7)2/h4-6H,3H2,1-2H3/t4-,5+,6-,7+,8?/m0/s1
