21
gdb 90456	3.52888	1.13161	1.11211	0.5111	78.12	-0.222	0.0742	0.2962	1220.2489	0.181294	-424.218499	-424.209313	-424.208369	-424.252066	35.511	
C	-0.2613869183	 1.4722006069	 0.0658499167	-0.390554
C	 0.0519460503	-0.0200094503	-0.0111249711	 0.141461
C	 0.906990163	-0.4063370825	-1.2471881702	-0.281937
C	 2.3277260209	-0.4602896172	-0.6947690269	-0.111084
C	 2.1871974842	-0.4063794421	 0.808784308	 9.*^-6
O	 0.8232816544	-0.4308964285	 1.1371018839	-0.270765
C	 2.7601660676	-1.6422565276	 0.1478242429	 0.352833
C	 2.0387902442	-2.9666166424	 0.1658429381	-0.455106
O	 4.164132734	-1.7339744567	 0.1848405409	-0.467357
H	 0.657270404	 2.0645081061	-0.0062643218	 0.120689
H	-0.9271854345	 1.772033114	-0.7505925444	 0.111281
H	-0.7490062513	 1.7087807956	 1.0154973086	 0.123543
H	-0.8798466106	-0.593755852	 0.031569715	 0.080552
H	 0.5853799867	-1.3631481342	-1.6695173035	 0.105693
H	 0.8236305233	 0.3429081453	-2.0389380161	 0.106506
H	 3.1221194493	 0.0783827589	-1.1962945866	 0.100189
H	 2.8156596914	 0.2116760893	 1.444053117	 0.092345
H	 0.9588886421	-2.8362160526	 0.2526723332	 0.133114
H	 2.2600722532	-3.5455292776	-0.7366690332	 0.121758
H	 2.3637240657	-3.5563475455	 1.0318837241	 0.107154
H	 4.4099104204	-2.1093711769	 1.0383245355	 0.279678
65.8695	159.4999	178.2394	229.7886	244.8168	260.2425	315.1127	373.9653	394.8072	411.9206	455.6677	514.1546	677.1125	729.7301	752.0363	815.6914	842.5595	868.4059	910.1083	924.4354	968.7291	1012.3226	1037.067	1046.4899	1058.7817	1089.0401	1106.2926	1128.7472	1140.1768	1188.0944	1233.4807	1269.3574	1291.9527	1294.7638	1319.5535	1348.2843	1380.0578	1403.9905	1413.1691	1432.1675	1482.2447	1487.7586	1494.9389	1497.2943	1503.4039	3028.8312	3032.2644	3045.7526	3058.6784	3087.966	3096.724	3103.1631	3117.862	3136.5008	3143.5873	3189.2141	3786.1257
CC1CC2C(O1)C2(C)O	C[C@H]1C[C@H]2[C@@H](O1)[C@]2(C)O	
InChI=1S/C7H12O2/c1-4-3-5-6(9-4)7(5,2)8/h4-6,8H,3H2,1-2H3	InChI=1S/C7H12O2/c1-4-3-5-6(9-4)7(5,2)8/h4-6,8H,3H2,1-2H3/t4-,5-,6+,7+/m0/s1
