19
gdb 109324	1.95961	1.48883	0.89004	0.893	83.87	-0.2319	0.0269	0.2588	1303.8468	0.158236	-385.864207	-385.854873	-385.853929	-385.898554	34.502	
O	-0.0117663166	 1.4502614367	 0.0348998435	-0.416013
C	-0.0189495272	 0.036885724	-0.0599593108	-0.182567
C	-1.4268098802	-0.4598177598	-0.0548522265	 0.316461
C	-2.544592383	 0.2619892152	-0.0071696422	-0.161518
C	-3.7857467013	-0.5947351145	 0.0395382147	-0.265087
C	-3.2577521574	-1.994942168	-0.350665137	-0.217057
C	-1.7329355218	-1.9576045586	-0.0263600383	-0.260474
C	-0.9195456578	-2.7699180932	-0.9260061444	 0.326211
C	-0.2530544269	-3.4378683476	-1.6719124683	-0.474851
H	 0.8942569046	 1.7506293397	-0.0770749182	 0.28956
H	 0.481853271	-0.3116263027	-0.9782229227	 0.109769
H	 0.5307894675	-0.4264341384	 0.7799455899	 0.093599
H	-2.56219601	 1.3434347195	 0.0407303398	 0.109974
H	-4.223098416	-0.5905414653	 1.0484614341	 0.105876
H	-4.5745749678	-0.2465392671	-0.6365914341	 0.105031
H	-3.7664886821	-2.8155792467	 0.1601572203	 0.103653
H	-3.3774242072	-2.148846128	-1.4263786024	 0.117894
H	-1.5626754591	-2.3265103057	 0.9980838265	 0.106162
H	 0.3333979412	-4.0307664095	-2.329077964	 0.193377
86.4395	90.0412	122.4188	203.0936	213.7102	237.0766	241.1868	383.1082	425.1165	499.5672	541.2734	613.194	632.5497	635.2027	686.2719	808.3673	843.9914	871.8997	931.904	943.6029	1012.1334	1035.3288	1050.0139	1062.2166	1086.526	1152.9724	1183.805	1220.8976	1230.4316	1247.4859	1272.2756	1296.1304	1309.4891	1327.6459	1353.7587	1467.3075	1485.4317	1500.8603	1506.2274	1730.2691	2230.9451	2936.1195	2968.6157	2976.2943	3003.6124	3052.9941	3069.3241	3115.251	3219.0362	3504.3211	3839.7085
OCC1=CCCC1C#C	OCC1=CCC[C@H]1C#C	
InChI=1S/C8H10O/c1-2-7-4-3-5-8(7)6-9/h1,5,7,9H,3-4,6H2	InChI=1S/C8H10O/c1-2-7-4-3-5-8(7)6-9/h1,5,7,9H,3-4,6H2/t7-/m1/s1
