17
gdb 102855	1.76407	1.35732	0.84134	3.6377	71.33	-0.2753	0.0073	0.2827	1345.075	0.134391	-455.149146	-455.139361	-455.138417	-455.18508	33.677	
O	 0.1591557118	 1.5074987387	 0.0764918659	-0.413995
C	 0.1621578882	 0.1026737562	 0.2070389888	-0.079374
C	-1.2398559228	-0.4828920245	 0.0204837275	 0.071451
C	-2.2256054227	 0.0935208882	 1.0584325397	-0.329462
C	-3.5647089648	-0.4715072466	 0.9332521633	 0.259819
N	-4.6112711421	-0.9481507141	 0.8188818602	-0.305962
O	-1.6410120901	-0.10506311	-1.29548102	-0.212143
C	-2.3815845263	-0.9728166552	-2.0305135937	 0.131534
N	-2.7219816835	-0.6526043961	-3.1988131221	-0.437498
H	-0.1516198968	 1.7035437592	-0.8158291915	 0.303594
H	 0.8351009094	-0.3757662446	-0.5189542514	 0.111097
H	 0.5306912052	-0.1246497306	 1.2126071765	 0.117998
H	-1.1999174112	-1.5764224949	 0.1074075293	 0.10264
H	-1.8491333038	-0.1095680034	 2.0671371331	 0.156142
H	-2.2611554472	 1.1796005437	 0.9361532139	 0.176643
H	-2.6115521439	-1.9059257313	-1.5026894027	 0.10891
H	-3.2690387495	-1.3994553847	-3.6214342969	 0.238606
54.2404	69.1394	102.0862	122.9687	138.2751	210.0963	302.1829	327.7108	388.4517	393.688	451.7103	559.6376	576.6406	675.2668	817.2038	875.0507	896.6373	931.6163	972.4492	1036.8934	1049.2857	1082.8179	1097.2587	1131.2514	1224.9108	1232.5954	1271.4214	1293.1975	1356.96	1373.2881	1401.7637	1420.8066	1428.5152	1456.3662	1495.2221	1747.5854	2362.2894	3005.2205	3033.1966	3053.6298	3057.0402	3084.3976	3111.6767	3525.0313	3793.1417
OCC(CC#N)OC=N	OC[C@@H](CC#N)O[CH][NH]	
InChI=1S/C5H8N2O2/c6-2-1-5(3-8)9-4-7/h4-5,7-8H,1,3H2	InChI=1S/C5H8N2O2/c6-2-1-5(3-8)9-4-7/h4-5,7-8H,1,3H2/t5-/m1/s1
