20
gdb 61612	2.95808	0.96443	0.82151	3.4056	80.49	-0.2672	0.02	0.2871	1465.7122	0.168672	-403.143717	-403.133676	-403.132732	-403.179402	36.015	
C	 1.5821201562	 1.3330464051	 0.1054286473	-0.40116
C	 0.4356823379	 0.4039074835	-0.2895529739	 0.005913
O	 0.9541850515	-0.5837999182	-1.1575889227	-0.245608
C	-0.0169373249	-1.4025596727	-1.7529369303	 0.109843
C	-0.7781996059	-0.8812558167	-2.9482061641	-0.325942
C	 0.2968931514	-1.9401723757	-3.1156169748	-0.027877
C	 1.6004294299	-1.6081166702	-3.8074885655	-0.3984
C	-0.1854529596	-0.2118308668	 0.9075847348	 0.262824
N	-0.6737699487	-0.6988525367	 1.8347808804	-0.325616
H	 2.3704651845	 0.7657754405	 0.6049748949	 0.149422
H	 1.9938179495	 1.7934554406	-0.7954721619	 0.134789
H	 1.2261568292	 2.116020132	 0.7790500178	 0.138969
H	-0.3542499564	 0.9754099956	-0.8001102913	 0.118756
H	-0.5390543726	-2.0453981528	-1.0463091108	 0.111665
H	-1.82193422	-1.1509757846	-3.065263636	 0.118684
H	-0.5266074998	 0.1186865988	-3.288282434	 0.115975
H	-0.0636876877	-2.9497245442	-3.2940165822	 0.093281
H	 1.9420931249	-0.6049063978	-3.5429323247	 0.1239
H	 2.3882043312	-2.3122725834	-3.5197463386	 0.122855
H	 1.4859092296	-1.6574374663	-4.8953051443	 0.117728
43.7314	75.4088	130.6368	154.7163	192.6725	215.7313	252.0648	279.3693	321.6498	380.7868	471.4883	521.5377	572.8516	633.5011	755.2733	803.515	835.1414	874.9829	906.8934	936.0471	1005.872	1027.5647	1059.8486	1081.5303	1113.2309	1119.2488	1149.618	1158.7675	1185.9492	1195.6603	1249.3788	1331.3577	1359.4615	1381.5348	1406.2267	1416.7878	1420.3343	1480.9141	1482.8813	1493.6948	1496.1238	1503.769	2353.3194	2996.2749	3037.9203	3058.106	3097.1038	3118.7387	3122.0806	3129.0752	3140.4697	3143.6931	3146.621	3217.1004
CC(OC1CC1C)C#N	C[C@@H](O[C@H]1C[C@H]1C)C#N	
InChI=1S/C7H11NO/c1-5-3-7(5)9-6(2)4-8/h5-7H,3H2,1-2H3	InChI=1S/C7H11NO/c1-5-3-7(5)9-6(2)4-8/h5-7H,3H2,1-2H3/t5-,6-,7+/m1/s1
