15
gdb 7928	3.51885	1.88046	1.31946	1.3643	63.73	-0.2507	0.0066	0.2573	901.0504	0.120557	-396.052245	-396.044636	-396.043692	-396.084509	27.927	
C	-0.0251499596	 1.5644553738	 0.0185049453	-0.39181
C	 0.0011737302	 0.0342175225	 0.0190455885	-0.031684
N	 0.7669487515	-0.5522408106	-1.0720033467	-0.353843
C	 1.8667624678	-1.2560869379	-0.6556276335	 0.452023
O	 2.7279586734	-1.778621217	-1.3206486988	-0.397214
N	 1.7893477884	-1.2605392909	 0.7488578684	-0.396743
C	 0.7247532287	-0.5313892074	 1.2452678484	 0.401281
N	 0.3454686324	-0.3056403952	 2.4348132721	-0.54154
H	 0.9909893976	 1.969767175	 0.0154585612	 0.127176
H	-0.5546688665	 1.9429885306	-0.8614584425	 0.117228
H	-0.5396010657	 1.9149263035	 0.9161540712	 0.154211
H	-1.0279313706	-0.3456272124	 0.0200825187	 0.120285
H	 0.6867463886	-0.2695497025	-2.0333115551	 0.26167
H	 2.4768466059	-1.7440457725	 1.302624998	 0.265724
H	 0.950375458	-0.7557382193	 3.1227618946	 0.213236
57.4702	118.3694	246.1108	248.416	338.8087	377.3297	421.0908	499.0344	552.9961	630.2211	656.8609	713.4836	763.4944	809.7851	859.0344	955.2091	999.6114	1049.2166	1097.9797	1107.4423	1152.9738	1233.6398	1312.2909	1348.1692	1360.4073	1398.1325	1419.5586	1422.8062	1492.7871	1495.3864	1767.7335	1872.1698	3030.0429	3042.1798	3114.9067	3137.3865	3469.6627	3666.1202	3680.2386
CC1NC(=O)NC1=N	C[C@H]1NC(=O)N[C]1[NH]	
InChI=1S/C4H7N3O/c1-2-3(5)7-4(8)6-2/h2H,1H3,(H3,5,6,7,8)	InChI=1S/C4H7N3O/c1-2-3(5)7-4(8)6-2/h2H,1H3,(H3,5,6,7,8)/t2-/m1/s1
