16
gdb 98386	2.3638	1.35468	0.86584	0.5637	70.53	-0.2661	-0.0357	0.2304	1276.1214	0.123901	-471.232196	-471.222958	-471.222013	-471.267033	31.946	
C	-0.0751391168	 1.3064208841	 0.1547574956	-0.228798
O	 0.0703538197	-0.1152447355	 0.0837646491	-0.257036
C	 0.6018022453	-0.6951839729	 1.1790371012	 0.524526
N	 0.9487363597	-0.0439323458	 2.1971103969	-0.574806
N	 0.6880829563	-2.110629556	 0.9698584083	-0.217932
C	 1.2015557304	-2.9878384886	 1.9369341354	 0.12306
N	 1.6317416092	-2.6155920349	 3.0717766515	-0.469352
C	 0.2546205313	-2.7044932498	-0.237518361	 0.169198
O	 0.3104553097	-3.8892866796	-0.4513782682	-0.308416
H	 0.8961571895	 1.7846887543	 0.3007284487	 0.146696
H	-0.5128006056	 1.5996091867	-0.7999046438	 0.131573
H	-0.7293027085	 1.5842247533	 0.9844143924	 0.146744
H	 1.3261864736	-0.6607822182	 2.915795575	 0.267421
H	 1.1709568369	-4.0114981808	 1.5650230669	 0.156941
H	 1.9539815461	-3.420648685	 3.6050266451	 0.242621
H	-0.1333996868	-1.9688969213	-0.946872603	 0.147562
44.9689	109.5536	158.4926	175.5803	184.2578	214.6292	291.5742	296.2574	364.0163	425.5468	481.4699	612.7427	724.408	765.1155	841.3694	848.0949	932.2687	985.974	1036.7908	1092.4742	1118.7389	1157.5068	1183.1905	1214.3815	1236.4855	1306.8972	1396.5474	1419.6759	1442.6496	1474.2447	1476.1246	1501.3705	1704.3076	1765.9405	1815.5839	3054.6156	3115.2152	3132.5712	3144.4856	3158.2266	3474.6421	3507.1704
COC(=N)N(C=N)C=O	COC(=N)N(C=N)C=O	
InChI=1S/C4H7N3O2/c1-9-4(6)7(2-5)3-8/h2-3,5-6H,1H3	InChI=1S/C4H7N3O2/c1-9-4(6)7(2-5)3-8/h2-3,5-6H,1H3
