17
gdb 44953	2.63471	1.7833	1.57005	2.3085	66.58	-0.2367	-0.0366	0.2001	911.8346	0.138297	-458.981758	-458.974972	-458.974028	-459.012835	27.429	
O	 0.0068970513	-0.0002137543	 0.0035953423	-0.313952
C	-0.0286564826	 1.1996347475	 0.0107692331	 0.397993
C	-1.2808520635	 2.0919197262	-0.0280622831	-0.355473
C	-0.7074946587	 3.5185547986	 0.0745131601	 0.097223
C	 0.6382644889	 3.3964015346	-0.6738042378	-0.246232
C	 1.1931803444	 2.1616954098	 0.0421880463	 0.017135
O	 1.4974568392	 2.5307341571	 1.3937115555	-0.267403
C	 0.360189024	 2.958056976	 2.1143323965	 0.009423
O	-0.4251884517	 3.9011697013	 1.4258725542	-0.264845
H	-1.7896055496	 1.9513047273	-0.9883475953	 0.137897
H	-1.9898448476	 1.8311940098	 0.7618437176	 0.141892
H	-1.3764054689	 4.2868235486	-0.3140103801	 0.091062
H	 0.487951184	 3.2115577214	-1.7433088244	 0.106047
H	 1.2697177086	 4.275423534	-0.5371207999	 0.122309
H	 2.0915321355	 1.7052746308	-0.3716529926	 0.100807
H	-0.25126799	 2.0841240516	 2.3975207419	 0.097585
H	 0.7270076568	 3.4495868598	 3.0175028559	 0.128533
110.875	246.8746	315.0953	377.9926	407.5769	440.3782	467.7509	570.0611	619.6671	655.5101	788.3517	801.6411	852.8101	859.7225	909.049	936.8437	950.5193	1003.3734	1037.2458	1048.9979	1093.8492	1123.4262	1152.0841	1195.9997	1199.5984	1226.7886	1253.1337	1287.1145	1314.5389	1325.9394	1357.4089	1380.4099	1434.348	1442.7494	1471.3577	1529.6945	1862.6682	2953.7322	3050.6973	3056.0317	3110.1507	3111.0438	3113.2376	3128.3451	3130.7242
O=C1CC2CC1OCO2	O=C1C[C@@H]2C[C@H]1OCO2	
InChI=1S/C6H8O3/c7-5-1-4-2-6(5)9-3-8-4/h4,6H,1-3H2	InChI=1S/C6H8O3/c7-5-1-4-2-6(5)9-3-8-4/h4,6H,1-3H2/t4-,6-/m1/s1
