19
gdb 128206	3.35014	1.01981	0.79621	2.8953	80.68	-0.1764	0.0501	0.2265	1445.7449	0.160739	-415.393649	-415.383988	-415.383044	-415.42844	34.752	
C	 0.1498653942	 1.383043331	 0.0430024601	-0.322518
N	 0.0575861737	-0.0686646038	 0.0585561506	-0.396365
C	-1.2156414232	-0.6222667508	 0.0461748008	 0.46014
C	-2.4681960801	-0.0489266322	 0.1824203254	-0.390752
C	-3.3615764778	-1.1567168438	 0.1657858214	 0.412418
N	-4.7408088236	-1.1279201018	 0.3228799811	-0.368533
C	-5.4731014528	 0.0360158739	-0.1430700143	-0.321577
N	-2.7323553742	-2.315022797	 0.0137156509	-0.341185
N	-1.4074975856	-1.958422032	-0.0657632587	-0.29312
H	 1.2033439911	 1.6717647646	 0.0552289583	 0.124987
H	-0.33441912	 1.8463275494	-0.8303855623	 0.116546
H	-0.3211251408	 1.7852497763	 0.9448851999	 0.142216
H	 0.6835078867	-0.5066040315	-0.6040525759	 0.235677
H	-2.7002730247	 0.998605254	 0.2612247768	 0.090121
H	-5.1527044752	-2.0086042545	 0.0465173646	 0.236218
H	-6.5403891269	-0.1239507109	 0.030052931	 0.12065
H	-5.1792698648	 0.9195319291	 0.4330730524	 0.128871
H	-5.3229394665	 0.2636709729	-1.2109100295	 0.106898
H	-0.7093261396	-2.6787922931	-0.0174349225	 0.259307
70.3635	97.0216	134.3973	169.183	189.2287	236.5666	247.545	282.4197	410.7347	413.1487	503.9145	535.776	619.4737	673.2411	698.4494	703.8871	752.5637	787.2087	986.775	1025.8652	1079.7819	1095.1269	1128.3972	1153.1324	1154.2379	1166.5537	1198.9678	1224.264	1306.2626	1417.3795	1440.1113	1454.7466	1459.224	1483.5596	1488.5346	1490.7169	1516.1743	1521.3372	1543.3307	1597.6744	1635.3687	2971.1259	2985.8377	3066.5671	3079.2658	3112.9587	3124.072	3280.807	3568.3167	3587.2711	3687.3242
CNC1=CC(NC)=NN1	CNc1cc(NC)n[nH]1	
InChI=1S/C5H10N4/c1-6-4-3-5(7-2)9-8-4/h3H,1-2H3,(H3,6,7,8,9)	InChI=1S/C5H10N4/c1-6-4-3-5(7-2)9-8-4/h3H,1-2H3,(H3,6,7,8,9)
