12
gdb 24955	5.36034	1.36355	1.09052	2.427	61.93	-0.2052	-0.0113	0.1939	982.0168	0.080659	-468.852783	-468.846368	-468.845424	-468.883579	24.58	
O	-0.0127194805	-0.0086086329	-0.0977367856	-0.389771
C	-0.0132092674	 1.1981795732	-0.0863052365	 0.424661
N	-1.1624677742	 2.040705585	-0.0728669271	-0.453931
C	-0.7135250831	 3.3225487443	 0.1630286479	 0.330737
C	 0.6363002744	 3.3621193556	 0.1358423179	 0.289016
N	 1.0915274192	 2.0610142949	-0.0511189102	-0.444171
N	 1.073078825	 4.6574913009	 0.0023204948	-0.331491
C	-0.0400194528	 5.3321703949	-0.0286770607	 0.046074
O	-1.1973863022	 4.577310698	 0.0195911625	-0.190956
H	-2.052650539	 1.6440920252	 0.182424552	 0.280068
H	 2.019411156	 1.6997608556	 0.0911234343	 0.279989
H	-0.1767442556	 6.4004984452	-0.0193128695	 0.159774
126.4106	242.5559	337.0682	354.8836	427.4145	472.5522	571.479	596.1297	626.1394	718.4559	745.235	748.9719	778.07	879.969	919.4332	961.4655	1049.7014	1107.1343	1223.9366	1280.9941	1290.5904	1321.2183	1466.3592	1502.0292	1528.3342	1646.284	1857.8884	3294.8412	3652.6748	3676.9847
O=C1NC2=C(N1)N=CO2	O=c1[nH]c2c([nH]1)nco2	
InChI=1S/C4H3N3O2/c8-4-6-2-3(7-4)9-1-5-2/h1H,(H2,6,7,8)	InChI=1S/C4H3N3O2/c8-4-6-2-3(7-4)9-1-5-2/h1H,(H2,6,7,8)
