18
gdb 42829	2.52798	1.86082	1.66669	2.4205	74.54	-0.2185	-0.0207	0.1978	912.7638	0.150205	-401.925811	-401.918938	-401.917994	-401.956822	28.11	
O	-0.0202332474	 0.0057013513	 0.1139597986	-0.327384
C	-0.0322660729	 1.2002066511	 0.0292922518	 0.41551
C	-1.1191820545	 2.2826848286	 0.060138176	-0.134523
C	-0.0297498227	 3.1690653184	 0.7530559174	-0.243018
C	 1.0449324193	 2.3137514905	 0.019432059	-0.095195
N	 1.2441232808	 2.8980197145	-1.3203183545	-0.096786
C	 0.9561154323	 2.0373061595	-2.4763899658	-0.260688
C	-0.0119892727	 3.0961557407	-2.0714460944	-0.010397
C	-1.3439839965	 2.7817865575	-1.3860093435	-0.249285
H	-2.0580878795	 2.0689413992	 0.573090642	 0.087398
H	-0.0271016676	 4.2328997173	 0.5076089148	 0.11399
H	-0.0075250608	 3.0276563052	 1.8352503107	 0.116772
H	 2.012290384	 2.1134242709	 0.4830241205	 0.092733
H	 1.5984259952	 2.1949523833	-3.338298742	 0.117381
H	 0.6917421413	 0.9982147798	-2.296219982	 0.13909
H	-0.0122497553	 4.0112735544	-2.6590020156	 0.097804
H	-1.9168166006	 2.0423557309	-1.957282824	 0.12222
H	-1.9507726924	 3.6930528369	-1.346618409	 0.114377
132.3567	200.6736	275.4208	383.8306	422.3078	446.3969	479.8669	549.2822	677.855	727.3331	778.6722	786.3627	835.968	864.7541	901.8501	911.3819	953.8989	989.0348	1035.6845	1050.868	1060.6974	1087.1058	1119.7579	1124.8854	1141.5536	1149.8439	1182.46	1195.828	1237.1615	1260.222	1270.6829	1304.5498	1307.7671	1362.4856	1397.8005	1482.7102	1491.6093	1514.4197	1881.97	3035.0989	3073.1949	3073.8045	3099.4055	3104.7603	3109.1832	3128.7758	3136.6883	3194.1986
O=C1C2CC1N1CC1C2	O=C1[C@H]2C[C@@H]1N1C[C@H]1C2	
InChI=1S/C7H9NO/c9-7-4-1-5-3-8(5)6(7)2-4/h4-6H,1-3H2	InChI=1S/C7H9NO/c9-7-4-1-5-3-8(5)6(7)2-4/h4-6H,1-3H2/t4-,5-,6+,8?/m1/s1
