16
gdb 18706	3.29968	2.27006	1.55269	2.3203	65.07	-0.2535	0.0127	0.2662	820.8879	0.131971	-383.731452	-383.724703	-383.723759	-383.762274	26.426	
O	-0.1755449776	 1.4411195501	 0.3794837237	-0.436669
C	 0.0502112932	 0.0925019677	-0.028875046	 0.068656
C	 0.9769286168	-0.611743864	 0.9263824693	-0.084758
C	 0.7607939422	-1.8146985096	 1.4535915999	-0.056297
C	-0.4406027372	-2.666719467	 1.153555097	-0.301231
C	-1.5241471956	-1.9362558803	 0.3963254241	 0.061995
O	-2.0399210916	-0.7451070936	 1.0000058911	-0.266688
C	-1.2750648161	-0.6194604996	-0.208780247	 0.006106
H	-0.6904278895	 1.3859524528	 1.1944029187	 0.289989
H	 0.533124126	 0.17827026	-1.0117137383	 0.094432
H	 1.8669365046	-0.0461658663	 1.189243966	 0.098338
H	 1.4872069463	-2.2358856613	 2.144430368	 0.093916
H	-0.1394854398	-3.5481308326	 0.5685514276	 0.119187
H	-0.8614076334	-3.0661431622	 2.08658266	 0.123274
H	-2.2938548054	-2.5676698443	-0.0484523924	 0.091783
H	-1.860817103	-0.3061961598	-1.0723578817	 0.097968
98.2361	223.4736	289.5973	347.1891	423.5318	444.2258	486.9824	534.4146	665.0647	730.4844	774.319	824.9346	889.1097	910.5111	936.8863	940.5796	1007.5338	1025.4577	1061.6223	1065.9225	1119.3781	1148.9854	1194.2195	1237.7916	1263.5978	1287.0966	1352.5849	1365.6795	1376.4656	1412.2459	1434.7664	1461.0832	1473.4216	1729.6268	3005.8833	3021.1062	3033.1228	3103.8643	3121.3982	3149.5552	3174.4006	3782.3478
OC1C=CCC2OC12	O[C@H]1C=CC[C@H]2O[C@@H]12	
InChI=1S/C6H8O2/c7-4-2-1-3-5-6(4)8-5/h1-2,4-7H,3H2	InChI=1S/C6H8O2/c7-4-2-1-3-5-6(4)8-5/h1-2,4-7H,3H2/t4-,5+,6-/m0/s1
