18
gdb 68382	2.85755	1.55328	1.20053	1.7669	71.14	-0.2174	-0.0262	0.1911	1038.8303	0.148046	-439.076034	-439.068321	-439.067377	-439.108141	30.775	
O	-0.0893217955	 1.4407237704	-0.0755990995	-0.482803
C	 0.0190495439	 0.0505058131	 0.0669501973	 0.393541
C	 0.0886031689	-0.6096044963	 1.4716013157	-0.239715
N	-0.7767641046	-1.7221693879	 0.9394221421	-0.11207
C	-1.2907171858	-0.7442746936	-0.0856020448	-0.213753
C	 0.0736024732	-2.7095527037	 0.2709545118	-0.285085
C	 1.1223641901	-2.1118201543	-0.6893858451	 0.382909
O	 1.9117985051	-2.7962387851	-1.2904344543	-0.309125
C	 1.0906570544	-0.5801002366	-0.8265448316	-0.387848
H	 0.7948402715	 1.8230106963	-0.097093914	 0.278347
H	 1.0614363251	-0.9197201421	 1.8684429749	 0.099284
H	-0.4566267973	-0.0386816401	 2.2279922952	 0.117068
H	-2.1535712479	-0.2030707993	 0.3114703496	 0.12079
H	-1.5382078756	-1.1689421605	-1.0639585485	 0.104692
H	 0.6045315867	-3.3092836988	 1.0193105915	 0.137405
H	-0.5497808315	-3.4073028353	-0.3003839863	 0.138072
H	 0.9113397444	-0.331420138	-1.8796160344	 0.137512
H	 2.091630005	-0.2034260283	-0.5748337096	 0.120779
68.7425	239.2372	246.6301	301.5025	402.0898	410.828	422.0429	428.7887	479.8541	490.1442	587.0466	648.4672	778.1411	793.8451	814.2607	916.5629	920.7573	933.139	967.0341	999.2354	1044.7412	1081.6471	1113.4701	1145.8321	1163.2461	1196.6577	1229.6994	1251.0824	1255.6735	1275.6336	1287.731	1322.835	1334.8315	1390.9599	1446.5811	1450.1809	1492.0469	1521.1501	1825.2165	3020.0189	3036.8492	3039.6486	3049.3928	3068.9029	3080.5086	3103.7951	3107.2124	3800.9917
OC12CN(C1)CC(=O)C2	O[C@@]12CN(C1)CC(=O)C2	
InChI=1S/C6H9NO2/c8-5-1-6(9)3-7(2-5)4-6/h9H,1-4H2	InChI=1S/C6H9NO2/c8-5-1-6(9)3-7(2-5)4-6/h9H,1-4H2
