23
gdb 112968	3.97741	0.8298	0.79753	2.0942	83.07	-0.2364	0.0666	0.3031	1569.384	0.203707	-425.407656	-425.397223	-425.396279	-425.443261	38.297	
C	 0.4268327531	 1.4946616664	-0.6829680989	-0.237973
O	-0.2310354352	 0.2734976219	-0.4402260015	-0.242741
C	 0.4619747682	-0.8375904698	-0.950606599	 0.176311
C	 1.6959172228	-1.3621255212	-0.1577595508	-0.276377
C	 1.1012519548	-2.7999692999	-0.2507573948	 0.006406
C	-0.2573345653	-2.1763270676	-0.6997105208	-0.269825
C	 1.7843879275	-3.712790677	-1.2657662227	 0.120172
C	 1.0867080891	-5.0666371811	-1.4049380082	-0.406332
O	 1.8165448624	-3.0195897463	-2.5141900779	-0.433053
H	 1.4162119826	 1.5355909123	-0.2017840099	 0.104014
H	 0.5643649431	 1.6755875393	-1.7611267113	 0.101499
H	-0.1963771175	 2.291256831	-0.2683907405	 0.121277
H	 0.7037313698	-0.6908341257	-2.0114721135	 0.077012
H	 2.6826834757	-1.2091598474	-0.6003982445	 0.097738
H	 1.6892771205	-0.9813931218	 0.8674192687	 0.097011
H	 1.0635409835	-3.3361518205	 0.7015252907	 0.067524
H	-0.9590389974	-2.0803693869	 0.132355941	 0.10458
H	-0.7658087313	-2.6294905395	-1.5525702087	 0.102069
H	 2.8171066457	-3.8836441999	-0.9147103981	 0.06222
H	 0.0487816461	-4.9378039405	-1.7263370714	 0.128078
H	 1.5967133923	-5.6929610746	-2.1465098828	 0.102004
H	 1.0919713045	-5.610534142	-0.4547108641	 0.116549
H	 2.225488965	-3.595354389	-3.1670742909	 0.281838
60.2687	84.2355	115.613	162.9814	202.5731	233.3817	239.8092	268.1931	272.8452	360.548	422.7532	443.2365	479.2953	567.1857	689.3877	755.5866	814.4419	887.1111	918.1359	935.2422	983.2932	983.9872	1041.2509	1044.5659	1071.5444	1080.6282	1136.2424	1156.9331	1162.5751	1184.1202	1196.3258	1214.1323	1239.1863	1252.3151	1270.7951	1277.3017	1303.1124	1351.5837	1377.9273	1394.4797	1404.0404	1417.5863	1457.0623	1476.5602	1484.3263	1489.1299	1492.8696	1497.8781	1509.8458	2944.9017	2969.7976	3014.5103	3018.7795	3027.1087	3055.203	3062.73	3073.2811	3091.9164	3108.2852	3114.2646	3117.9213	3127.9323	3826.1455
COC1CC(C1)C(C)O	CO[C@H]1C[C@@H](C1)[C@@H](C)O	
InChI=1S/C7H14O2/c1-5(8)6-3-7(4-6)9-2/h5-8H,3-4H2,1-2H3	InChI=1S/C7H14O2/c1-5(8)6-3-7(4-6)9-2/h5-8H,3-4H2,1-2H3/t5-,6-,7-/m1/s1
