22
gdb 122459	3.54006	0.69029	0.61205	0.8663	90.45	-0.2281	0.0351	0.2631	1884.5613	0.191978	-367.153096	-367.142703	-367.141759	-367.18926	37.847	
C	-0.0884766062	 1.6367208415	-0.3107544762	-0.379175
C	-0.0445964025	 0.1659456178	 0.1124132587	-0.164498
C	-1.3954129023	-0.5410252397	-0.0396780163	-0.162
C	-1.3479652134	-2.0083053772	 0.3857110848	-0.14199
N	-2.6722794998	-2.6159858075	 0.2584888171	-0.085124
C	-2.99161783	-3.245810057	-1.009666216	-0.243986
C	-2.7661908766	-4.0871604005	 0.2129999049	-0.179067
C	-1.6037644124	-4.9278663707	 0.3088112965	 0.345383
C	-0.6482476231	-5.6488724197	 0.4310638856	-0.475067
H	 0.8870012598	 2.1173953804	-0.1871752597	 0.110886
H	-0.3787909048	 1.737779273	-1.3624549634	 0.113354
H	-0.8150777658	 2.1984070816	 0.2866677514	 0.115131
H	 0.712931218	-0.363533505	-0.4804648823	 0.095202
H	 0.2861976632	 0.095768083	 1.1572044194	 0.096378
H	-2.159215617	-0.0250551062	 0.5546596936	 0.105104
H	-1.7264174362	-0.479693998	-1.0853937574	 0.093458
H	-0.5853934687	-2.547650229	-0.1995078757	 0.094748
H	-1.0508628656	-2.0837038675	 1.4385386415	 0.106469
H	-4.0021108603	-3.1011512068	-1.3825317289	 0.120171
H	-2.216256349	-3.2868732933	-1.7732846172	 0.11864
H	-3.6399085742	-4.4736715799	 0.7332325139	 0.11678
H	 0.1962324469	-6.2852326493	 0.5281710256	 0.199201
55.8017	78.8946	90.4903	134.3602	162.4267	206.9307	245.0864	294.1946	321.1958	408.4848	431.7863	531.8759	594.441	627.0818	661.6339	742.0827	758.3018	807.6686	824.8285	908.0491	913.9091	954.1101	1012.3887	1037.2304	1043.9914	1071.4987	1113.9693	1119.7541	1138.151	1144.1052	1203.3814	1261.7169	1291.9304	1316.1192	1325.3757	1328.4648	1369.7985	1383.6139	1407.6164	1414.8268	1485.4193	1488.8844	1498.397	1499.7777	1509.0079	1518.4223	2230.9807	2973.0146	3011.9074	3019.3929	3029.988	3039.1993	3049.8844	3071.8739	3093.2248	3096.9121	3101.7591	3126.1635	3183.318	3503.6026
CCCCN1CC1C#C	CCCCN1C[C@H]1C#C	
InChI=1S/C8H13N/c1-3-5-6-9-7-8(9)4-2/h2,8H,3,5-7H2,1H3	InChI=1S/C8H13N/c1-3-5-6-9-7-8(9)4-2/h2,8H,3,5-7H2,1H3/t8-,9?/m1/s1
