16
gdb 27643	2.96129	1.29115	0.90931	2.1235	82.4	-0.2192	-0.0092	0.2101	1255.2102	0.122423	-400.772641	-400.763638	-400.762693	-400.806439	32.398	
C	 0.0089572856	 1.4411699945	 0.0974123656	-0.497124
C	 0.0104976677	-0.0364049293	-0.0531744719	 0.376716
N	-0.0503963521	-0.7366377465	-1.1359408634	-0.348096
C	-0.0144381585	-2.0679393098	-0.6987145214	 0.035967
C	-0.0598853429	-3.1761372961	-1.5750092567	 0.233622
C	-0.0975727027	-4.1318813692	-2.3063520628	-0.432253
C	 0.0686455009	-2.0863786451	 0.6635446307	 0.254829
C	 0.1380554953	-3.1631088186	 1.6778769015	-0.505362
O	 0.0851024302	-0.7868381305	 1.0855725953	-0.204518
H	 0.9203029068	 1.7872600995	 0.5958892487	 0.146682
H	-0.0519361323	 1.8954926166	-0.8915190131	 0.160798
H	-0.8430796111	 1.7749919673	 0.6986291177	 0.146714
H	-0.1312399153	-4.9680846412	-2.959623383	 0.188842
H	 1.0585803861	-3.0987845775	 2.2689976877	 0.144348
H	-0.7057926278	-3.1124588518	 2.3752205899	 0.144352
H	 0.11524902	-4.1317065322	 1.174585485	 0.154482
98.7546	133.5863	134.1932	143.1631	201.7972	253.1918	302.1595	372.9352	475.5542	535.2369	552.4986	578.8736	638.6497	668.3914	672.6495	735.6322	790.7634	942.0625	1009.2649	1046.7854	1061.727	1068.7621	1139.4932	1206.8692	1294.5145	1358.173	1410.73	1421.5207	1473.6571	1474.9829	1479.7309	1485.175	1635.9569	1642.2508	2236.1753	3032.2299	3044.8696	3083.7703	3099.3484	3137.5613	3159.9254	3504.0025
CC1=NC(C#C)=C(C)O1	Cc1nc(C#C)c(C)o1	
InChI=1S/C7H7NO/c1-4-7-5(2)9-6(3)8-7/h1H,2-3H3	InChI=1S/C7H7NO/c1-4-7-5(2)9-6(3)8-7/h1H,2-3H3
