20
gdb 78852	2.67667	1.81927	1.48845	1.6102	80.84	-0.2176	0.0794	0.2969	990.9169	0.171749	-365.96607	-365.958425	-365.95748	-365.997695	31.081	
C	 0.050679043	 1.5444976131	 0.0342387968	-0.391037
C	 0.0191726711	 0.0213762931	-0.0261948019	 0.041618
C	 0.8132931747	-0.5910040009	-1.1698154706	-0.13869
C	 1.2905790127	-1.9657581698	-0.7560161067	-0.165239
C	 1.1939871405	-1.911993811	 0.7953219843	-0.064236
C	 2.1257674958	-0.7533700299	 0.8271296566	-0.13182
N	 0.6968027084	-0.572603922	 1.1427342316	-0.121065
C	 2.2489324845	-0.7874440139	-0.7299113128	 0.352263
C	 3.4865885304	-0.5049744668	-1.5241795052	-0.520407
H	 1.0829367423	 1.9089344257	 0.0494977811	 0.116437
H	-0.4504941742	 1.9784782423	-0.8367457218	 0.109962
H	-0.4522258407	 1.9045379373	 0.9359446356	 0.124101
H	-1.0184766883	-0.3340559589	-0.0302068236	 0.077321
H	 0.5910259679	-0.3855045175	-2.2106527997	 0.084307
H	 1.2893495135	-2.8449381126	-1.3847978021	 0.086195
H	 1.0424694394	-2.7384203226	 1.4776081902	 0.091305
H	 2.8833330936	-0.4475868413	 1.5382846709	 0.087351
H	 4.3297222009	-1.1188073346	-1.1866691877	 0.120984
H	 3.3292511227	-0.7161516432	-2.5868058016	 0.120455
H	 3.786387022	 0.5465941435	-1.4359133835	 0.120196
143.5287	193.4885	213.5476	244.6768	280.4853	314.1184	530.7778	564.6595	593.8216	711.9607	732.6025	763.6332	790.5372	839.0989	862.3607	864.7751	883.3184	909.5529	934.7084	948.0147	988.5325	993.3171	1022.6299	1036.8491	1082.1573	1109.7599	1115.3859	1137.1673	1172.6426	1187.277	1216.9817	1248.9199	1268.0124	1296.9046	1321.0475	1368.0782	1405.8862	1414.5044	1446.148	1485.3522	1490.3768	1495.7133	1499.463	3018.6468	3036.6863	3037.7733	3074.6464	3095.6248	3107.0249	3116.9931	3182.2098	3184.099	3196.6962	3215.8032
CC1C2C3C4C(N14)C23C	C[C@H]1[C@@H]2[C@@H]3[C@H]4[C@H](N14)[C@]23C	
InChI=1S/C8H11N/c1-3-4-5-6-7(9(3)6)8(4,5)2/h3-7H,1-2H3	InChI=1S/C8H11N/c1-3-4-5-6-7(9(3)6)8(4,5)2/h3-7H,1-2H3/t3-,4+,5+,6-,7-,8+,9?/m0/s1
