18
gdb 16426	3.27529	2.20381	1.66877	1.4608	71.71	-0.2486	0.0724	0.321	835.6652	0.153812	-347.731744	-347.724556	-347.723612	-347.762605	28.623	
C	 0.0414484042	 1.4704308097	-0.0032191334	-0.526903
C	 0.0401262507	-0.0316556857	-0.0591185041	 0.312001
C	 0.5319332875	-0.9564527543	-1.195228999	 0.104723
O	 1.8841615576	-0.9332359416	-1.5827998785	-0.450617
C	 0.0445756441	-1.9439629485	-0.1210906793	-0.095057
C	 0.5533659058	-1.0340256416	 1.055432685	-0.106086
C	-0.8165872598	-1.0611363305	 1.7585489811	-0.271183
C	-1.1547498514	-1.0088328737	 0.2559793078	-0.076418
H	 1.0544448119	 1.8623722146	-0.1463467951	 0.123779
H	-0.5909258314	 1.8929182314	-0.7920069146	 0.121939
H	-0.3300225689	 1.8394144144	 0.9591735644	 0.119784
H	-0.047631811	-0.9252113257	-2.1243021488	 0.077414
H	 2.4265073165	-1.0062090827	-0.7897895391	 0.280057
H	 0.0289569307	-3.0349227371	-0.1277078544	 0.069214
H	 1.5459119783	-1.0491255969	 1.5119149872	 0.063016
H	-1.0773444876	-1.9823541281	 2.289294456	 0.09253
H	-1.0849780934	-0.1867363595	 2.3602029459	 0.0927
H	-2.1298774139	-0.9975238644	-0.234047351	 0.069106
189.4729	203.8383	218.3146	273.9244	301.1209	337.7621	504.8694	551.2001	635.9611	722.1534	772.3954	852.6825	855.6656	864.5818	898.9329	916.0578	944.1821	980.6174	1018.9676	1046.5495	1075.7943	1105.2617	1130.595	1146.4064	1153.9239	1167.044	1169.8018	1215.9004	1238.3297	1267.7238	1285.7331	1290.9954	1346.3573	1408.6052	1449.4269	1484.5969	1492.6058	1513.3036	3025.1229	3037.6037	3057.7271	3078.1864	3091.0797	3091.9938	3094.3005	3095.3673	3108.7295	3803.6977
CC12C(O)C3C1CC23	C[C@@]12[C@@H](O)[C@H]3[C@@H]1C[C@@H]23	
InChI=1S/C7H10O/c1-7-3-2-4(7)5(3)6(7)8/h3-6,8H,2H2,1H3	InChI=1S/C7H10O/c1-7-3-2-4(7)5(3)6(7)8/h3-6,8H,2H2,1H3/t3-,4+,5-,6-,7+/m0/s1
