14
gdb 30502	4.11606	1.21991	0.94656	4.2889	70.13	-0.2434	-0.0604	0.183	1167.8384	0.101186	-470.042596	-470.034572	-470.033628	-470.076467	28.334	
C	 0.0063194646	 1.4388794732	-0.0266824153	-0.318506
N	-0.006909839	-0.0109516507	 0.0168523629	-0.300249
C	 0.5188875555	-0.6804081663	-0.9022813554	 0.455953
O	 1.1427179522	 0.0396617973	-2.0138347912	-0.218711
C	 1.6964863618	-0.6654267168	-2.9818756402	 0.156368
N	 1.7502100045	-1.9450587211	-3.058954747	-0.369499
C	 1.1443435342	-2.5870352851	-1.9801900161	 0.44613
O	 1.1918320586	-3.9150322932	-2.0455720981	-0.37218
N	 0.5666551946	-2.0442072227	-0.9676590134	-0.324344
H	 1.0273512392	 1.8423061019	-0.0422954762	 0.121821
H	-0.5105732705	 1.8301670927	-0.9128072256	 0.121827
H	-0.4996087497	 1.8226275369	 0.861769605	 0.12821
H	 2.1320050494	-0.0410427528	-3.7595893354	 0.157681
H	 1.6566502647	-4.139784413	-2.863224354	 0.315499
30.6474	95.1383	145.7499	208.694	294.6586	403.5704	412.1452	518.1161	555.3565	563.7356	629.1194	649.1814	718.057	798.8778	861.3374	955.7454	1005.984	1010.2321	1112.9045	1129.1567	1199.1633	1246.6132	1332.2152	1388.565	1435.0565	1440.6083	1484.9409	1502.9651	1615.3524	1736.4617	1813.1093	3004.233	3055.3982	3111.7479	3167.7417	3783.1444
CN=C1OC=NC(O)=N1	C[N]C1=N[C@@H](N=CO1)O	
InChI=1S/C4H5N3O2/c1-5-4-7-3(8)6-2-9-4/h2H,1H3,(H,5,7,8)	InChI=1S/C4H6N3O2/c1-5-4-7-3(8)6-2-9-4/h2-3,8H,1H3/t3-/m1/s1
