19
gdb 116026	2.90188	1.31437	0.9515	4.6145	78.53	-0.2457	-0.0602	0.1855	1225.6219	0.160836	-423.066426	-423.058188	-423.057244	-423.099385	31.64	
O	 0.1494704895	 1.3849239843	-0.0303443452	-0.429667
C	 0.0783243165	-0.0211372963	-0.0045392397	-0.069742
C	-1.3660950989	-0.5476440974	 0.0350299383	-0.127052
C	-1.4459971665	-2.071601838	-0.1430313038	-0.228757
C	-2.8913288894	-2.579979935	-0.0876285458	-0.273834
C	-3.6421470495	-2.0069925122	 1.0793195048	-0.037187
C	-3.256750256	-0.9006461983	 1.7291469761	-0.135127
C	-2.0815359584	-0.112397636	 1.3149473353	 0.390442
O	-1.7262041291	 0.8664466374	 1.9554854431	-0.360641
H	-0.3140500772	 1.6723924887	 0.7695974933	 0.293308
H	 0.5662907634	-0.3837354547	-0.916644159	 0.099389
H	 0.6341128495	-0.4437185238	 0.8501912718	 0.084607
H	-1.9132390384	-0.0639420978	-0.7899150916	 0.108976
H	-0.9771598322	-2.3602885365	-1.0896462034	 0.107557
H	-0.8689139114	-2.5558000265	 0.6556829501	 0.111094
H	-3.4258668736	-2.3156942316	-1.0135010221	 0.12719
H	-2.9158319929	-3.6749489901	-0.0405614787	 0.117191
H	-4.5442297444	-2.5271173235	 1.3947266196	 0.112504
H	-3.8035809709	-0.5134413326	 2.5830850267	 0.10975
74.9978	137.9543	194.3809	231.966	296.762	349.3128	366.298	449.4226	488.5723	552.661	609.7366	647.9354	711.0626	734.51	821.2361	881.5835	907.2342	942.7785	1017.4033	1026.9445	1056.6572	1086.4309	1099.1914	1101.7239	1143.7308	1182.6254	1210.2511	1243.2259	1258.0302	1277.8352	1359.645	1366.6925	1386.6514	1393.9921	1411.0194	1461.946	1467.8664	1492.2007	1506.4907	1682.0547	1744.0736	2956.6177	2991.1236	2996.0868	3025.6861	3054.8115	3056.2513	3074.7976	3152.3952	3190.0352	3725.8691
OCC1CCC=CC1=O	OC[C@H]1CCC=CC1=O	
InChI=1S/C7H10O2/c8-5-6-3-1-2-4-7(6)9/h2,4,6,8H,1,3,5H2	InChI=1S/C7H10O2/c8-5-6-3-1-2-4-7(6)9/h2,4,6,8H,1,3,5H2/t6-/m1/s1
