16
gdb 26859	3.02989	1.4172	0.97467	6.4609	76.85	-0.2105	-0.0508	0.1597	1154.7484	0.125787	-434.133834	-434.125426	-434.124481	-434.16699	30.981	
C	 0.0843787076	 1.5540563404	 0.0738709838	-0.507865
C	-0.0183074935	 0.0624062094	 0.0160802806	 0.373006
C	-1.2035742593	-0.6307621394	 0.0396751052	 0.120918
N	-2.4526475411	 0.0404748199	 0.1475304982	-0.606646
C	-1.0923271538	-2.0503172556	 0.009990133	-0.004638
N	 0.0090657192	-2.7458312015	-0.0470677081	-0.329341
C	 1.2199368556	-2.0744637644	-0.1170034151	 0.429818
O	 2.309836324	-2.5986292676	-0.2037095657	-0.390787
N	 1.1285662288	-0.662373436	-0.0777423277	-0.401002
H	 0.9667137667	 1.8655319622	 0.6417238232	 0.139547
H	 0.1670580633	 1.9874878457	-0.9304878573	 0.149315
H	-0.8119830024	 1.9617611723	 0.5452898739	 0.167345
H	-2.7327927572	 0.4882468657	-0.7189254959	 0.247469
H	-3.1907178866	-0.6019642538	 0.411016664	 0.244512
H	-2.0213256163	-2.6266695861	 0.0531086014	 0.106668
H	 2.021468425	-0.1895802311	-0.1127646435	 0.261681
95.3763	106.3536	169.3936	186.4922	290.374	317.1273	354.0306	445.9009	477.1162	554.4817	584.0728	601.7731	701.9564	768.3725	779.8051	805.704	830.8638	906.8599	994.4597	1032.2208	1056.3137	1086.318	1160.3619	1218.8817	1297.6832	1348.4239	1407.0216	1432.0454	1454.026	1480.4754	1496.0438	1583.3077	1654.0676	1689.3051	1808.3067	3031.3061	3083.1562	3090.7066	3139.2906	3505.1247	3589.2888	3599.7865
CC1=C(N)C=NC(=O)N1	Cc1c(N)cnc(=O)[nH]1	
InChI=1S/C5H7N3O/c1-3-4(6)2-7-5(9)8-3/h2H,6H2,1H3,(H,7,8,9)	InChI=1S/C5H7N3O/c1-3-4(6)2-7-5(9)8-3/h2H,6H2,1H3,(H,7,8,9)
