17
gdb 121085	3.434	0.90802	0.78655	2.1937	65.06	-0.2758	0.0021	0.2778	1427.9583	0.135062	-496.130862	-496.121915	-496.120971	-496.166038	31.176	
O	-0.2977349064	 1.3949929013	-0.1844993178	-0.417665
C	-0.045760483	-0.000127546	-0.1555404135	-0.081128
C	-1.3888999741	-0.6966224431	 0.033602529	-0.199599
C	-1.2619366624	-2.2038745906	 0.1873194396	 0.200654
O	-2.5214555699	-2.8263404585	 0.384368001	-0.259072
C	-2.8929697843	-3.4701809262	-0.8153168842	-0.229727
C	-1.6230090171	-3.5163188951	-1.6525124899	 0.400183
O	-1.4245786115	-4.0630800297	-2.6942405309	-0.32118
O	-0.6875623472	-2.7871493509	-0.9878900795	-0.222255
H	 0.5297659031	 1.8459436827	-0.3756583957	 0.289974
H	 0.423651326	-0.3478856533	-1.0866408012	 0.111545
H	 0.6311770893	-0.2675667105	 0.6734319104	 0.088088
H	-1.8747676014	-0.3070882226	 0.9343895981	 0.127344
H	-2.043669484	-0.4727109751	-0.8159348875	 0.114589
H	-0.6149354536	-2.4688855417	 1.0322607614	 0.108572
H	-3.2551943497	-4.4814387606	-0.6076832425	 0.149628
H	-3.6758991039	-2.9245587802	-1.3603409366	 0.140048
42.641	89.2401	96.233	136.7739	180.181	265.225	338.1814	390.4414	493.5338	524.9221	564.8576	667.9584	749.2318	812.5157	871.7441	944.8919	971.5411	1023.6629	1035.291	1068.8277	1085.9437	1127.9925	1141.9158	1206.2907	1218.6207	1224.9022	1252.1283	1307.8727	1321.0868	1343.62	1386.1315	1414.9167	1466.8233	1480.3137	1500.5846	1530.561	1903.1479	2961.1875	3015.777	3017.9755	3039.4137	3050.3146	3086.622	3100.7086	3832.4213
OCCC1OCC(=O)O1	OCC[C@H]1OCC(=O)O1	
InChI=1S/C5H8O4/c6-2-1-5-8-3-4(7)9-5/h5-6H,1-3H2	InChI=1S/C5H8O4/c6-2-1-5-8-3-4(7)9-5/h5-6H,1-3H2/t5-/m0/s1
