14
gdb 34925	3.0679	1.65378	1.3318	6.2039	64.12	-0.2856	0.0272	0.3128	931.1065	0.101686	-436.649457	-436.642717	-436.641772	-436.68085	25.775	
N	 0.0328683087	-1.1599100808	 0.0160185296	-0.315818
C	 0.0181235352	-0.0050320898	 0.0256347387	 0.29798
C	-0.0153997521	 1.4557722393	 0.0128613298	-0.226131
C	-0.7185845804	 2.0739466126	 1.2372466176	 0.021253
O	-0.0879397463	 1.8347467897	 2.4840553631	-0.211526
C	 0.1680943164	 3.0834998637	 1.840153736	 0.007288
C	 1.4703079667	 3.1065041797	 1.0568563402	 0.007288
O	 2.1912842609	 1.8750067161	 1.1130687903	-0.211526
C	 1.3792300859	 2.1110096822	-0.02461738	 0.021258
H	-0.5610016562	 1.7749384303	-0.8848078198	 0.135984
H	-1.8046786619	 2.1163420953	 1.2503524295	 0.121698
H	-0.1875227989	 3.9738674596	 2.3491119321	 0.115277
H	 2.0632565952	 4.0136271814	 0.9952456915	 0.115277
H	 1.8983084469	 2.1817591707	-0.9770468386	 0.121699
106.6832	136.3348	295.4303	322.6727	394.1989	507.4075	550.9808	594.0027	711.589	762.8438	808.5641	861.1276	872.95	887.9229	891.2903	970.8489	972.3616	1034.5361	1055.3904	1085.128	1095.0957	1112.1473	1242.2551	1246.1389	1268.3371	1305.9368	1309.7955	1342.3158	1415.458	1432.6992	2365.9621	3038.0805	3147.2203	3149.1697	3164.8264	3177.3793
N#CC1C2OC2C2OC12	N#C[C@H]1[C@H]2O[C@H]2[C@H]2O[C@@H]12	
InChI=1S/C6H5NO2/c7-1-2-3-5(8-3)6-4(2)9-6/h2-6H	InChI=1S/C6H5NO2/c7-1-2-3-5(8-3)6-4(2)9-6/h2-6H/t2-,3+,4-,5+,6-
