16
gdb 8516	4.56738	1.83558	1.63205	0.5874	63.8	-0.2171	0.0738	0.2909	822.166	0.129188	-383.671517	-383.664488	-383.663543	-383.702111	28.074	
C	-0.0419172755	 1.5381508208	 0.085184912	-0.502084
C	-0.1029677722	 0.0502187326	-0.0548308476	 0.421119
C	 0.4115670848	-0.7262823121	-1.3028414344	-0.331479
C	-0.4800733986	-1.8564251144	-0.7866853193	 0.333799
O	-0.9089913197	-2.9875946343	-1.4441755056	-0.456136
C	-0.3988545426	-1.7387142188	 0.7508153701	 0.018432
O	 0.5058175399	-0.6839923413	 1.0625219083	-0.32821
C	-1.3689397649	-0.8987797987	-0.0141657426	-0.244653
H	 1.0019400909	 1.8692447898	 0.1111768364	 0.133576
H	-0.5365138667	 2.0252076388	-0.7604453502	 0.124269
H	-0.5273637528	 1.8604457653	 1.0106246871	 0.132507
H	 0.0170328277	-0.3069651755	-2.232125882	 0.105738
H	 1.4947720319	-0.8755491725	-1.3669612547	 0.092802
H	-0.2231330633	-3.6610887187	-1.3719925653	 0.289511
H	-0.535335717	-2.5606385174	 1.4418404868	 0.107384
H	-2.4375034419	-0.7414055635	 0.031235041	 0.103427
197.5209	218.3442	246.88	305.0402	367.3569	382.8143	457.1524	534.4474	579.0725	650.1915	750.8972	783.9136	822.1731	832.332	870.5386	924.198	969.6226	983.4511	1017.2675	1032.0268	1078.913	1110.4613	1136.5416	1151.7896	1184.8341	1234.331	1301.1712	1304.0822	1344.8545	1414.4256	1431.3285	1477.4788	1489.5333	1495.3731	3037.5823	3042.3686	3107.9187	3111.691	3119.9141	3200.9226	3216.3784	3789.8204
CC12CC3(O)C(O1)C23	C[C@@]12C[C@@]3(O)[C@@H](O1)[C@@H]23	
InChI=1S/C6H8O2/c1-5-2-6(7)3(5)4(6)8-5/h3-4,7H,2H2,1H3	InChI=1S/C6H8O2/c1-5-2-6(7)3(5)4(6)8-5/h3-4,7H,2H2,1H3/t3-,4-,5-,6-/m0/s1
