17
gdb 15525	3.05917	1.79245	1.16123	5.4592	75.67	-0.2099	-0.0275	0.1824	1007.4273	0.143114	-363.903562	-363.895607	-363.894663	-363.935742	29.556	
N	 0.0868250187	 1.3270514703	 0.2575117776	-0.587452
C	-0.0057533509	-0.0087296563	 0.0072622393	 0.291144
C	-1.1105883184	-0.810364673	-0.021580642	 0.159004
C	-0.7293168591	-2.2454133764	-0.321422308	-0.299571
C	 0.8012143169	-2.2640923995	-0.0930708663	-0.214696
C	 1.2526367662	-0.7976310334	-0.2746303313	-0.298241
C	-2.4742766936	-0.3843171291	 0.1559947046	 0.041583
O	-3.4502166575	-1.1119473144	 0.093076396	-0.302009
H	 0.9373214715	 1.8024138526	 0.0073806409	 0.261186
H	-0.7441433907	 1.8951917581	 0.2422453923	 0.264942
H	-1.2601393922	-2.9564046279	 0.3181734271	 0.117018
H	-0.9876106929	-2.5130405777	-1.3549568823	 0.105734
H	 1.0151764931	-2.5796991441	 0.932807435	 0.11094
H	 1.3279791718	-2.9494607231	-0.76132766	 0.10078
H	 1.5844050995	-0.5943959086	-1.3033356325	 0.118222
H	 2.0789364576	-0.5094055212	 0.3852829627	 0.111681
H	-2.61212072	 0.7051314738	 0.3704747069	 0.019735
120.1243	150.3953	184.4852	189.2202	311.046	335.9556	351.1371	439.5886	533.9206	578.0743	617.9575	645.1367	771.0711	858.6298	892.7842	925.9946	954.6944	1013.873	1028.1088	1066.0545	1142.818	1160.6896	1226.1624	1238.0925	1261.4298	1301.2358	1326.586	1336.0311	1417.5994	1461.1496	1476.5593	1492.7611	1510.0861	1634.1037	1684.7279	1753.5778	2798.3839	3005.2812	3014.5756	3049.2126	3062.2382	3079.6574	3105.1236	3600.7648	3712.5694	120.1243	150.3946	184.4859	189.2204	311.0473	335.9557	351.1373	439.5889	533.9206	578.0742	617.9575	645.1366	771.0711	858.6299	892.7842	925.9946	954.6944	1013.8725	1028.1088	1066.0546	1142.8181	1160.6897	1226.1626	1238.0926	1261.4299	1301.236	1326.5861	1336.0313	1417.599	1461.1493	1476.5598	1492.7612	1510.0863	1634.1035	1684.7278	1753.578	2798.3838	3005.2812	3014.5756	3049.2125	3062.2382	3079.6575	3105.1236	3600.7648	3712.5695
NC1=C(CCC1)C=O	NC1=C(CCC1)C=O	
InChI=1S/C6H9NO/c7-6-3-1-2-5(6)4-8/h4H,1-3,7H2	InChI=1S/C6H9NO/c7-6-3-1-2-5(6)4-8/h4H,1-3,7H2
