14
gdb 21800	6.11471	1.19285	1.08325	4.049	64.25	-0.2412	-0.0215	0.2197	1043.8208	0.108303	-378.752228	-378.745037	-378.744093	-378.785204	25.245	
O	-0.2930127524	 1.0370983413	 1.132589477	-0.238276
C	 0.0657453338	 1.2177512044	-0.0011011656	 0.159574
C	 1.4628853765	 1.6641834095	-0.4073427486	-0.371242
C	 1.4129434079	 2.8574119918	-1.3144689173	 0.314437
N	 1.5835324191	 2.7163043626	-2.6292704319	-0.282817
N	 1.437797476	 3.9599367444	-3.1229802758	-0.178326
C	 1.1806058529	 4.8860629087	-2.1688557101	-0.011176
C	 1.1513402341	 4.2063957297	-0.9711987513	-0.274138
H	-0.6250603182	 1.0681925542	-0.861537316	 0.084531
H	 2.0405120828	 1.8578832678	 0.5003068681	 0.126383
H	 1.9287789349	 0.8352224515	-0.9541747234	 0.140607
H	 1.5406765286	 4.1052085608	-4.1128831232	 0.278242
H	 1.0440525184	 5.9281660296	-2.4108731161	 0.137535
H	 0.9725847057	 4.6179739938	 0.0088931042	 0.114667
37.0617	59.3608	162.2921	327.0316	368.36	457.3164	520.2489	660.4461	676.9975	733.3092	776.9343	833.8972	849.6343	947.3188	991.3497	1011.3066	1056.523	1073.262	1112.3845	1183.443	1220.4988	1278.2419	1311.9792	1405.6645	1418.9811	1449.8425	1472.536	1493.1894	1570.4763	1834.6892	2880.4762	3042.3377	3109.8421	3258.3928	3277.3066	3676.703
O=CCC1=NNC=C1	O=CCc1n[nH]cc1	
InChI=1S/C5H6N2O/c8-4-2-5-1-3-6-7-5/h1,3-4H,2H2,(H,6,7)	InChI=1S/C5H6N2O/c8-4-2-5-1-3-6-7-5/h1,3-4H,2H2,(H,6,7)
