17
gdb 35938	2.39936	1.5204	1.27719	3.7939	73.23	-0.2569	-0.0023	0.2546	1052.8084	0.137603	-418.021392	-418.013318	-418.012374	-418.054573	29.749	
N	-0.2863076884	-1.226537526	-0.1214963444	-0.319384
C	-0.1475711772	-0.0806598217	-0.0731492773	 0.273809
C	 0.0098953782	 1.3890476863	-0.0189421457	-0.011362
C	-0.6642843776	 1.9753558252	 1.227854955	-0.224521
C	-0.1255809673	 1.4196143744	 2.5444189845	-0.229835
C	 1.3009122387	 1.876790233	 2.8629835888	-0.145633
N	 2.373967312	 1.4738007603	 1.9736313165	-0.228087
C	 2.3564881452	 1.4545564088	 0.7203740876	 0.124364
O	 1.3772770546	 1.7385035502	-0.2110664045	-0.23712
H	-0.4843530049	 1.7949255845	-0.9075295308	 0.145249
H	-0.5384191571	 3.0637359253	 1.1846287159	 0.117289
H	-1.7368903738	 1.7698626986	 1.1380044919	 0.124995
H	-0.7748133827	 1.7481964783	 3.363864613	 0.108772
H	-0.168793113	 0.3240851309	 2.5312245513	 0.134941
H	 1.3211154996	 2.9759884115	 2.9173074754	 0.117184
H	 1.5661674148	 1.5219969625	 3.8643405755	 0.117789
H	 3.2733683489	 1.2357519178	 0.1737263472	 0.131549
66.7262	85.4956	172.9506	240.0884	319.9159	348.3883	369.3202	448.4168	518.3434	592.7224	632.3625	728.374	810.324	842.8535	854.9022	927.2978	940.7427	962.9066	998.8757	1051.5113	1088.1959	1114.6161	1128.555	1203.5438	1264.4476	1299.2199	1327.184	1370.8466	1378.1956	1385.0162	1409.4063	1431.3224	1468.7393	1483.8909	1490.5505	1776.5591	2357.4391	2997.9719	3035.0996	3037.5032	3064.8203	3067.6439	3077.5031	3085.2074	3144.7104
N#CC1CCCN=CO1	N#C[C@H]1CCCN=CO1	
InChI=1S/C6H8N2O/c7-4-6-2-1-3-8-5-9-6/h5-6H,1-3H2	InChI=1S/C6H8N2O/c7-4-6-2-1-3-8-5-9-6/h5-6H,1-3H2/t6-/m1/s1
