13
gdb 43522	3.08433	1.30876	0.96079	2.378	64.29	-0.3005	-0.0382	0.2623	1122.459	0.089851	-452.807428	-452.799861	-452.798917	-452.840454	27.115	
N	-0.00756594	 1.2435499881	 0.2655547824	-0.490734
C	 0.0114241662	 0.0088405414	 0.0654658177	 0.423835
O	 1.1370458407	-0.7425580868	-0.2069770467	-0.210999
C	 0.8642472371	-2.1031400766	-0.2399693729	 0.425901
O	 1.7023477891	-2.9027001711	-0.5008261507	-0.290049
C	-0.595407245	-2.3200790946	 0.123607331	-0.375253
C	-1.2121820102	-0.9102582882	 0.0368693851	-0.256468
C	-2.1918690283	-0.6088694794	 1.0741343024	 0.304451
N	-2.9789498995	-0.4182363794	 1.8969085966	-0.307211
H	 0.9261912985	 1.6527740497	 0.2163231853	 0.250945
H	-1.0512205885	-3.0519415093	-0.5429576161	 0.170355
H	-0.638012519	-2.7207414966	 1.1406495271	 0.181668
H	-1.6952307911	-0.7714367372	-0.9378350212	 0.173559
49.4581	132.9645	146.6313	227.7577	366.5293	454.6026	490.6343	508.2044	549.502	622.941	637.524	704.6588	809.1258	866.8998	915.6539	963.5323	1020.9204	1070.6764	1074.5466	1123.2159	1172.028	1258.4911	1276.9511	1301.8452	1354.7343	1463.0255	1800.2741	1930.9213	2374.7251	3047.9778	3082.2558	3146.3823	3494.5644
N=C1OC(=O)CC1C#N	[NH][C]1OC(=O)C[C@H]1C#N	
InChI=1S/C5H4N2O2/c6-2-3-1-4(8)9-5(3)7/h3,7H,1H2	InChI=1S/C5H4N2O2/c6-2-3-1-4(8)9-5(3)7/h3,7H,1H2/t3-/m0/s1
