16
gdb 28370	3.26384	1.38667	0.97997	1.5059	78.8	-0.199	-0.0243	0.1747	1159.4961	0.126402	-434.152073	-434.143937	-434.142993	-434.18459	30.935	
C	-0.0159673754	 1.5126694147	 0.0398554621	-0.489965
C	-0.0085300303	 0.0164965268	-0.0672596285	 0.385354
N	-0.0371206702	-0.5791016178	-1.2169014145	-0.303308
C	-0.036517718	-1.9515059781	-1.2276083379	-0.102243
C	-0.0137925333	-2.7335593468	-0.1055069597	 0.174407
N	-0.0737083087	-4.1109655338	-0.059457363	-0.584275
C	 0.0424190513	-2.0807217988	 1.1992621907	 0.397713
O	 0.1056413976	-2.6649753196	 2.2725069117	-0.409589
N	 0.0307225181	-0.6937508876	 1.1089524684	-0.381515
H	 0.8769193299	 1.8807844616	 0.5589592395	 0.137122
H	-0.0403869681	 1.9351606948	-0.9640079422	 0.160025
H	-0.8909057295	 1.8685511228	 0.5964908231	 0.138727
H	-0.0606264104	-2.408421372	-2.2137975455	 0.098507
H	 0.2875279271	-4.6130744733	-0.8551288109	 0.251765
H	 0.2074286813	-4.481812061	 0.8385547074	 0.266305
H	 0.0706161287	-0.2102121217	 1.9968600195	 0.260973
108.9755	138.1292	182.6736	291.0701	314.7545	351.0104	393.0143	424.8961	470.6275	546.1062	573.9113	595.711	647.4776	727.2498	743.7933	789.3021	801.3794	918.4594	980.2617	1021.9066	1060.9592	1111.1505	1228.2454	1249.0942	1287.4233	1326.2499	1406.8166	1426.6499	1474.1044	1482.4242	1496.6005	1598.3855	1634.4685	1658.9939	1769.8935	3029.9358	3081.5175	3155.3372	3162.0228	3556.1997	3589.9642	3677.0723
CC1=NC=C(N)C(=O)N1	Cc1ncc(N)c(=O)[nH]1	
InChI=1S/C5H7N3O/c1-3-7-2-4(6)5(9)8-3/h2H,6H2,1H3,(H,7,8,9)	InChI=1S/C5H7N3O/c1-3-7-2-4(6)5(9)8-3/h2H,6H2,1H3,(H,7,8,9)
