17
gdb 88351	2.15323	1.41268	0.9381	4.7225	79.02	-0.2551	0.0019	0.257	1246.8006	0.133409	-380.804082	-380.794654	-380.79371	-380.838662	34.065	
C	-0.6037840295	 1.4325966676	 0.1837485801	-0.42176
C	-0.1435281432	-0.0075524121	 0.1258896727	 0.032973
C	 1.2247767915	-0.3729925597	-0.3390116433	-0.251502
N	 0.834994508	-0.5923052518	 1.0563112071	-0.079525
C	 1.4599936362	 0.2767169754	 2.0598764042	-0.325221
C	 0.5958707755	 0.4247380125	 3.234517029	 0.359154
C	-0.1222029745	 0.569095223	 4.1846453078	-0.414213
C	 2.7631112	-0.3105618308	 2.4385704194	 0.32231
N	 3.7970566138	-0.7437375195	 2.7136425436	-0.319312
H	 0.2240329085	 2.14103351	 0.2717885912	 0.122773
H	-1.1406631719	 1.6776021136	-0.7381934441	 0.131629
H	-1.2865268915	 1.5955602402	 1.0233077119	 0.14168
H	-0.9460971827	-0.7112527181	-0.0865852442	 0.105718
H	 1.4097689548	-1.2726283845	-0.918001472	 0.130558
H	 1.905399072	 0.4506142728	-0.5530025187	 0.118013
H	 1.6870171331	 1.2856865587	 1.6736406582	 0.13507
H	-0.7526179402	 0.6864660927	 5.0318219973	 0.211656
54.8261	114.4552	128.1574	164.0617	187.5656	250.5531	313.4697	361.2565	408.9704	438.8228	513.2827	555.9243	576.6385	649.5973	677.3969	777.0048	820.6426	906.2523	909.7458	970.3139	1015.242	1043.0779	1076.2525	1119.7682	1144.2201	1162.6408	1192.3892	1308.2585	1321.0319	1324.6988	1404.2065	1420.9142	1493.9577	1497.926	1509.1606	2251.0468	2370.5634	2948.2168	3043.3903	3094.4433	3106.4105	3112.4401	3131.3142	3188.7472	3500.6032
CC1CN1C(C#C)C#N	C[C@H]1CN1[C@@H](C#C)C#N	
InChI=1S/C7H8N2/c1-3-7(4-8)9-5-6(9)2/h1,6-7H,5H2,2H3	InChI=1S/C7H8N2/c1-3-7(4-8)9-5-6(9)2/h1,6-7H,5H2,2H3/t6-,7-,9?/m0/s1
