17
gdb 88306	2.49327	1.14625	0.98101	2.9397	74.87	-0.2506	-0.0377	0.213	1270.1917	0.131942	-421.786369	-421.776778	-421.775833	-421.821841	34.138	
C	 1.0457178765	 1.6302212808	-0.3454709059	-0.433258
C	 0.0098102863	 0.8004620611	 0.3633071888	 0.087562
O	 0.1229054399	-0.6123863958	 0.2795683939	-0.23402
C	 0.2818477798	-0.0305972287	 1.5688937742	-0.046815
C	 1.6502828432	-0.0961468335	 2.1854421318	 0.374399
O	 2.6538657684	-0.3121173147	 1.5522898883	-0.299828
C	 1.7072989506	 0.1031293558	 3.7131085818	-0.446152
C	 0.8537877848	 1.1735485979	 4.2079397206	 0.293531
C	 0.1477120671	 2.065556611	 4.5955493416	-0.449249
H	 2.0445545817	 1.2216249422	-0.1902623218	 0.163601
H	 0.8339233436	 1.6411950283	-1.4197091698	 0.132072
H	 1.0128886755	 2.6641419362	 0.0136374679	 0.124408
H	-1.0172001213	 1.1639427056	 0.2835657071	 0.100518
H	-0.5446928473	-0.1968093176	 2.2592118371	 0.107986
H	 1.4112188787	-0.8514810422	 4.1725077319	 0.158711
H	 2.7560118768	 0.2702124307	 3.975066025	 0.160894
H	-0.4711612846	 2.8536392229	 4.9474200974	 0.205639
38.5154	55.9038	127.3692	173.8961	197.3668	244.4301	327.5655	336.0988	373.0832	438.2015	465.3663	584.6404	628.2574	651.2968	700.1704	770.56	821.5747	866.8262	928.7739	982.2069	994.7368	1031.4737	1076.0898	1112.1752	1165.1669	1170.7076	1219.3412	1285.1883	1290.8723	1390.2317	1412.7868	1443.7814	1449.2189	1490.9107	1501.0616	1814.8296	2238.4606	3012.2669	3042.9338	3084.8893	3091.8877	3103.8328	3119.9814	3156.987	3504.093
CC1OC1C(=O)CC#C	C[C@H]1O[C@H]1C(=O)CC#C	
InChI=1S/C7H8O2/c1-3-4-6(8)7-5(2)9-7/h1,5,7H,4H2,2H3	InChI=1S/C7H8O2/c1-3-4-6(8)7-5(2)9-7/h1,5,7H,4H2,2H3/t5-,7-/m1/s1
