21
gdb 106048	2.65996	1.47322	1.17946	1.8155	81.22	-0.2238	0.084	0.3077	1149.0796	0.181634	-387.031811	-387.0231	-387.022156	-387.065125	33.636	
C	 0.2555934167	-0.6395487214	 1.0118548106	-0.373976
C	-0.2370210103	-0.2561415352	-0.3902770767	-0.313074
C	 0.779166054	-0.4807594949	-1.474775906	 0.299399
C	 0.4002156195	-0.824275547	-2.9300343625	 0.035168
O	 1.4649197231	-0.4225140757	-3.7924405546	-0.295712
C	 2.362261225	-0.9305435859	-2.7622756654	 0.04901
C	 1.2077553611	-1.7942753438	-2.1364771132	-0.201473
C	 2.2062147801	 0.0851729903	-1.5932543328	-0.034
C	 2.4342765917	 1.5637452555	-1.8695604016	-0.42341
H	 0.5481476446	-1.6939457958	 1.051060518	 0.116676
H	 1.12524455	-0.0427733051	 1.3051188695	 0.119552
H	-0.5263323138	-0.4774215314	 1.7600974148	 0.111893
H	-1.142899274	-0.8306679149	-0.6257414432	 0.097699
H	-0.5426373793	 0.7988637781	-0.3952955558	 0.10559
H	-0.6108503434	-0.8508925392	-3.3158991922	 0.10442
H	 3.3263987427	-1.2548792475	-3.1494391779	 0.080066
H	 1.09029401	-2.8365243113	-1.8735623724	 0.095369
H	 2.8015393971	-0.2642005213	-0.7422324006	 0.072558
H	 1.9140122425	 1.8632026379	-2.7823999465	 0.133876
H	 2.0684421428	 2.1818880551	-1.0422879149	 0.110233
H	 3.5009720598	 1.7814110434	-1.9955295567	 0.110137
70.464	157.4372	169.9419	192.5371	224.9885	245.9514	339.9221	367.1687	563.7404	597.5178	622.0847	716.5153	755.0323	780.2624	799.0291	827.9159	859.4034	903.9134	924.2316	942.2513	975.2836	986.6297	1033.5178	1059.2965	1070.623	1098.0601	1109.5874	1130.4013	1153.8251	1162.2159	1201.3939	1233.4031	1273.1095	1281.4863	1324.7763	1359.1701	1374.7358	1399.1521	1407.5896	1422.8089	1476.6317	1489.8688	1497.0826	1501.8059	1506.7418	3010.196	3030.7757	3034.7243	3040.2932	3049.2852	3089.2328	3104.2787	3106.1229	3126.6646	3138.0656	3197.2037	3211.6316
CCC12C3OC(C13)C2C	CC[C@]12[C@H]3O[C@H]([C@@H]13)[C@H]2C	
InChI=1S/C8H12O/c1-3-8-4(2)6-5(8)7(8)9-6/h4-7H,3H2,1-2H3	InChI=1S/C8H12O/c1-3-8-4(2)6-5(8)7(8)9-6/h4-7H,3H2,1-2H3/t4-,5-,6+,7+,8-/m1/s1
