19
gdb 56286	6.81786	0.50363	0.47512	3.6565	78.16	-0.2494	-0.0208	0.2285	2201.9571	0.156871	-419.229186	-419.218569	-419.217625	-419.266866	35.672	
C	 0.0149934449	 1.5186408772	-0.0660257424	-0.473701
C	 0.0474482164	 0.00776311	 0.070377313	 0.383859
O	 0.0867822144	-0.539843145	 1.1485905843	-0.289808
C	 0.0320500034	-0.7874295148	-1.2295046446	-0.323862
C	-0.0363688201	-2.2943324625	-1.0078726034	-0.121947
N	 0.0777899623	-3.001943038	-2.2814662537	-0.306679
C	 0.0289582078	-4.4499755847	-2.1164106666	-0.259841
C	 0.094891837	-5.130929216	-3.4124445277	 0.255059
N	 0.1224626787	-5.6667213785	-4.435189355	-0.29716
H	 0.825618472	 1.8665154421	-0.7156279131	 0.140301
H	-0.9242200272	 1.8338539354	-0.5351959737	 0.141583
H	 0.1028623015	 1.9814513246	 0.9174190837	 0.146414
H	-0.8107248492	-0.437912001	-1.8428718044	 0.116774
H	 0.9324343859	-0.5351951482	-1.8052826476	 0.140352
H	 0.7973463502	-2.6002614571	-0.3666705887	 0.127851
H	-0.9557089481	-2.5466556379	-0.4516376551	 0.098926
H	-0.6673707469	-2.7139263264	-2.9086606412	 0.228772
H	 0.8913592067	-4.7649708121	-1.5156398001	 0.159772
H	-0.8692222798	-4.8160237671	-1.5852126438	 0.133336
37.4597	53.3399	79.0944	103.4213	125.2599	136.222	170.7843	287.0294	324.5241	394.2165	451.1805	482.6802	551.434	608.6323	760.0604	779.8549	837.3147	928.5431	937.3127	956.3448	998.1968	1048.8724	1099.7235	1133.6696	1145.8807	1182.1677	1199.1602	1267.5137	1309.5546	1324.3743	1369.8123	1386.5408	1423.2143	1455.0107	1466.0113	1477.199	1490.4934	1498.0977	1513.1731	1810.4876	2368.8094	2936.5397	2957.2802	3016.9423	3037.8768	3049.0672	3051.331	3072.7471	3098.0535	3154.1085	3511.6523
CC(=O)CCNCC#N	CC(=O)CCNCC#N	
InChI=1S/C6H10N2O/c1-6(9)2-4-8-5-3-7/h8H,2,4-5H2,1H3	InChI=1S/C6H10N2O/c1-6(9)2-4-8-5-3-7/h8H,2,4-5H2,1H3
