21
gdb 104416	2.04459	1.54222	1.28047	2.5926	74.06	-0.243	0.0712	0.3143	1135.4237	0.181394	-461.352874	-461.34321	-461.342266	-461.387324	35.942	
C	 0.0667228161	 1.1507039738	 0.2848220398	-0.248474
O	 0.3181459053	-0.2113195008	 0.0125179014	-0.305964
C	 0.7215674584	-0.5684992088	-1.3210167344	 0.321859
C	-0.2296909532	-0.0256284735	-2.3813777123	-0.474522
C	 2.2075299358	-0.241832291	-1.5483613937	-0.092956
O	 2.9754416137	-1.3584487266	-1.0977878809	-0.267385
C	 2.1103902364	-2.3582290755	-0.5739189619	-0.100125
C	 0.7552861457	-2.1191154625	-1.2543761112	 0.096037
O	-0.3571167977	-2.6811787552	-0.6111788255	-0.443192
H	 0.9116089225	 1.7949971463	 0.0048733371	 0.112602
H	-0.835308453	 1.5181358448	-0.2213011516	 0.117062
H	-0.0825366239	 1.2295479084	 1.3645056294	 0.132777
H	-0.2070902928	 1.0664027725	-2.4434005105	 0.118987
H	 0.044438288	-0.4185962432	-3.3643764167	 0.125713
H	-1.2528481466	-0.3429651843	-2.1591978694	 0.135445
H	 2.417508717	-0.0734010046	-2.6129335028	 0.096634
H	 2.5076056285	 0.6610748572	-1.0016999473	 0.099491
H	 2.5403789366	-3.3382082149	-0.7986446214	 0.10644
H	 1.9972984781	-2.2630956408	 0.5162722942	 0.092841
H	 0.7771164698	-2.5198893069	-2.2734488409	 0.089034
H	-0.5374112347	-2.0982566546	 0.1392176985	 0.287696
55.4925	118.8998	158.9609	193.7871	219.9378	227.2778	292.8465	338.2874	364.118	378.442	465.7659	488.1279	574.9221	597.9432	647.3961	757.0419	842.8601	919.4148	950.7185	978.8643	1008.2713	1070.7032	1094.5987	1120.1495	1135.1209	1159.289	1182.835	1186.9734	1206.2116	1222.455	1229.7911	1265.9248	1303.0331	1326.0693	1379.489	1401.1946	1409.1688	1445.7023	1479.4625	1488.3016	1494.1703	1502.4459	1509.3943	1514.4538	1519.8607	2995.2341	2998.9902	3012.173	3042.4208	3042.5726	3054.9172	3057.42	3089.8873	3112.4374	3115.7261	3120.2688	3754.4286
COC1(C)COCC1O	CO[C@@]1(C)COC[C@H]1O	
InChI=1S/C6H12O3/c1-6(8-2)4-9-3-5(6)7/h5,7H,3-4H2,1-2H3	InChI=1S/C6H12O3/c1-6(8-2)4-9-3-5(6)7/h5,7H,3-4H2,1-2H3/t5-,6+/m1/s1
