19
gdb 75927	2.53231	1.60965	1.1498	2.559	75.19	-0.2488	-0.027	0.2217	1093.5682	0.159227	-423.045434	-423.037124	-423.036179	-423.078256	32.398	
O	 0.428208663	 0.8106112967	-0.848759546	-0.442735
C	 0.068931234	-0.3196649946	-0.1092175527	-0.013675
C	 0.4390529199	-0.1904704877	 1.3681471818	 0.376179
O	 1.2699499434	 0.5879517167	 1.7682602055	-0.332715
C	-0.4912525722	-1.0783689572	 2.1885852048	-0.324338
C	-1.5218169074	-1.609442003	 1.1606902808	-0.305098
C	-1.4186457654	-0.6374376852	-0.0148111099	 0.331525
C	-2.4224448764	 0.468493697	-0.2179122304	-0.302086
C	-2.3179564749	-0.670592351	-1.2097108727	-0.340676
H	 1.0318453685	 1.3123727978	-0.2792049191	 0.293218
H	 0.5907739827	-1.2172987209	-0.4971437152	 0.0901
H	 0.0698429211	-1.8617928947	 2.7066331261	 0.134716
H	-0.9515746641	-0.4553952135	 2.9623024689	 0.14248
H	-1.2500049728	-2.6215754053	 0.8376784272	 0.109112
H	-2.5341496402	-1.6620639493	 1.5680242437	 0.110284
H	-3.2888145895	 0.503021358	 0.4344983973	 0.106601
H	-2.0365712856	 1.4327623712	-0.5269205123	 0.131323
H	-1.8810318811	-0.4524929439	-2.1785273565	 0.126177
H	-3.1146893729	-1.407687261	-1.2296546713	 0.109608
78.7677	123.4926	222.9037	243.4645	283.6676	338.0268	389.7627	446.4574	495.6031	515.7031	599.1627	629.2131	728.2894	756.5084	788.9722	859.2978	904.0666	925.1012	954.7086	983.5381	998.0903	1025.5605	1057.3974	1083.7973	1087.9159	1170.1715	1179.3688	1193.4503	1208.3904	1230.6306	1275.9845	1292.1996	1320.3145	1362.6251	1371.8699	1423.4611	1446.5783	1456.7034	1496.3579	1504.3176	1836.9126	2907.0714	3035.4624	3059.4673	3093.3542	3105.8394	3125.2933	3134.9018	3209.0863	3229.9824	3703.2477
OC1C(=O)CCC11CC1	O[C@H]1C(=O)CCC21CC2	
InChI=1S/C7H10O2/c8-5-1-2-7(3-4-7)6(5)9/h6,9H,1-4H2	InChI=1S/C7H10O2/c8-5-1-2-7(3-4-7)6(5)9/h6,9H,1-4H2/t6-/m0/s1
