16
gdb 30974	2.39921	1.48443	0.95534	4.1571	70.29	-0.2068	0.0342	0.241	1207.1059	0.122731	-475.03611	-475.027235	-475.026291	-475.070124	31.494	
C	 0.1304741698	 1.3502300578	 0.0626928686	-0.258189
O	-0.4667639679	 0.1680053223	-0.4956413433	-0.264399
C	 0.3302885662	-0.5588944197	-1.2727287224	 0.294877
C	 0.6735844378	-1.844717385	-1.2467305364	 0.193036
C	 0.378481927	-2.9665560615	-0.330434723	-0.498203
O	 1.4514881595	-2.0982550927	-2.3794688777	-0.231335
C	 1.5873535313	-0.9298495376	-3.0603859215	 0.50039
N	 2.2562804576	-0.8217770382	-4.1184214605	-0.578393
O	 0.8866660768	 0.0509320634	-2.3956896903	-0.255084
H	 0.9953723661	 1.0859733034	 0.6814079979	 0.130378
H	 0.4392098745	 2.0389528093	-0.7285656188	 0.148072
H	-0.6403043178	 1.8139936654	 0.6783825139	 0.145493
H	-0.1694967094	-3.7653571408	-0.8429014619	 0.147932
H	 1.2986954579	-3.4032193478	 0.073376507	 0.145374
H	-0.2321379015	-2.6045464495	 0.4994313896	 0.146497
H	 2.2225549322	 0.1320558912	-4.4675772512	 0.233553
71.2622	128.9706	149.6511	175.1517	194.2207	245.5609	257.129	368.9186	425.0986	571.8133	615.2439	642.7055	677.9383	733.0127	771.0953	814.4684	927.318	996.6951	1013.8118	1028.6365	1070.3621	1098.5559	1174.0445	1206.1834	1254.9439	1307.9639	1350.9292	1425.6839	1470.1694	1480.3262	1486.8679	1495.876	1502.871	1784.1739	1854.0136	3031.8416	3033.0152	3084.2831	3110.8333	3135.2999	3156.2266	3549.5051
COC1=C(C)OC(=N)O1	COC1=C(C)O[C@H]([NH])O1	
InChI=1S/C5H7NO3/c1-3-4(7-2)9-5(6)8-3/h6H,1-2H3	InChI=1S/C5H8NO3/c1-3-4(7-2)9-5(6)8-3/h5-6H,1-2H3/t5-/m0/s1
