18
gdb 56211	4.75407	0.73389	0.67927	3.2348	68.76	-0.2492	0.0529	0.302	1622.9478	0.14727	-476.239841	-476.230404	-476.22946	-476.276457	32.555	
N	-0.142619516	 1.236078256	-0.312716106	-0.562994
C	 0.0645233832	-0.0903658614	-0.0602304703	 0.497559
O	 1.1404769307	-0.6141761642	 0.1047377705	-0.394295
O	-1.1232785983	-0.7493257742	-0.0538678338	-0.266636
C	-1.0278800869	-2.1687542183	 0.1396711894	-0.071637
C	-2.4372208884	-2.7182211063	 0.1303818498	-0.054325
C	-3.1468259929	-2.7593671352	-1.24087265	-0.071799
O	-3.1402273903	-4.2025735824	-1.2527299599	-0.26986
C	-2.5420008292	-4.2583171308	 0.0569204314	-0.090549
H	 0.6349944476	 1.8487852505	-0.1384371291	 0.269861
H	-1.071511855	 1.6104607749	-0.2222405956	 0.264377
H	-0.423987101	-2.6061557403	-0.6633792549	 0.12529
H	-0.5182359234	-2.3765261143	 1.0867155807	 0.122182
H	-3.0233604684	-2.2578296481	 0.9286097081	 0.086694
H	-4.1659659511	-2.3540981576	-1.2579286067	 0.101062
H	-2.580800757	-2.3349921149	-2.0792751928	 0.107323
H	-1.5880611894	-4.802216747	 0.0526693322	 0.1049
H	-3.2083233444	-4.7196094264	 0.796235817	 0.102847
28.0547	46.7615	63.3267	128.4586	175.3841	263.9664	322.6619	331.5533	416.0831	491.1569	534.0696	659.5066	781.6999	792.1878	877.9656	887.7561	913.6166	924.2461	980.5639	1040.0395	1068.7131	1090.5883	1114.9801	1124.6057	1152.8571	1163.1812	1199.8774	1246.3758	1278.9048	1310.7516	1329.508	1364.1602	1391.8729	1431.0729	1508.9678	1515.8978	1538.8838	1611.7549	1837.2595	3005.2961	3017.5725	3039.0942	3049.0607	3056.1478	3077.1391	3096.7478	3616.8355	3746.7759
NC(=O)OCC1COC1	NC(=O)OCC1COC1	
InChI=1S/C5H9NO3/c6-5(7)9-3-4-1-8-2-4/h4H,1-3H2,(H2,6,7)	InChI=1S/C5H9NO3/c6-5(7)9-3-4-1-8-2-4/h4H,1-3H2,(H2,6,7)
