19
gdb 67102	2.59694	2.04737	1.72168	1.607	78.86	-0.2351	0.0931	0.3281	899.5433	0.160734	-385.802514	-385.795596	-385.794652	-385.833319	28.83	
C	-0.0675448361	 1.5280783166	-0.0836651382	-0.530949
C	-0.0744546737	 0.0264704505	-0.0815300218	 0.343019
C	 0.8254305425	-0.960679671	-0.894751904	-0.150688
C	 1.9574380711	-0.9257091651	 0.1844566201	-0.356045
C	 0.6369187315	-0.9060403423	 0.9812941621	 0.237102
C	-0.2024140538	-0.8600152057	 2.2369812167	-0.19507
O	-1.5125266706	-0.8785749965	 1.6079203741	-0.297969
C	-1.2443037037	-0.9333898057	 0.1810267493	 0.025599
C	-0.0674692091	-1.8882203492	-0.0194525752	-0.072726
H	 0.9515075824	 1.9260699607	-0.0170786011	 0.11938
H	-0.5196883677	 1.9263388277	-0.998756738	 0.12276
H	-0.640363559	 1.9155273495	 0.7659907474	 0.131551
H	 0.9445112906	-1.0002087795	-1.9779295004	 0.072313
H	 2.5760319017	-1.8232202277	 0.2788851989	 0.10004
H	 2.578638007	-0.0258834268	 0.2266703144	 0.099959
H	-0.0943698173	-1.7302219182	 2.8941419723	 0.104361
H	-0.0876220176	 0.0564225677	 2.8278472046	 0.10284
H	-2.2001033925	-0.9550491591	-0.3428595012	 0.071277
H	-0.0265182059	-2.9751022258	 0.0536604401	 0.073245
197.5139	206.1763	237.4037	317.5414	401.7259	443.3834	491.1083	638.3531	686.0585	737.9387	739.8884	804.3674	857.3028	860.8687	899.7531	913.1109	925.3908	945.9784	972.6894	1002.4879	1016.5649	1060.0103	1086.5939	1120.2552	1135.2771	1141.6424	1160.701	1180.8584	1189.2379	1206.0572	1216.2054	1253.5448	1284.8132	1301.9564	1338.4508	1377.2547	1410.0516	1484.2458	1493.8745	1509.158	1522.7406	3023.3888	3025.0048	3044.477	3065.5526	3088.0727	3095.1273	3102.9054	3103.6285	3112.2282	3125.0302
CC12C3CC11COC2C31	C[C@@]12[C@H]3C[C@]41CO[C@@H]2[C@@H]34	
InChI=1S/C8H10O/c1-7-4-2-8(7)3-9-6(7)5(4)8/h4-6H,2-3H2,1H3	InChI=1S/C8H10O/c1-7-4-2-8(7)3-9-6(7)5(4)8/h4-6H,2-3H2,1H3/t4-,5+,6+,7-,8-/m0/s1
