16
gdb 133735	2.078	1.34325	0.98106	1.9258	63.07	-0.2783	0.0368	0.3151	1212.344	0.118328	-532.233807	-532.22432	-532.223376	-532.268641	33.975	
C	-1.5485945183	-0.3301101715	 0.0998132836	-0.398101
C	-0.0705951984	 0.0538640509	 0.0323536726	-0.185968
C	 0.734045031	-0.4331732432	 1.2616542394	-0.311879
C	 0.7645906952	-1.888449794	 1.370128152	 0.337909
C	 0.7723386768	-3.0874149787	 1.4363629905	-0.453488
C	 2.1605504811	 0.1281930956	 1.2343500269	 0.283543
F	 2.1349842147	 1.4717650795	 1.2427534714	-0.079972
F	 2.8651671462	-0.26534138	 2.3006947788	-0.071165
F	 2.8259356967	-0.2556140772	 0.1380176967	-0.075198
H	-2.0335789483	 0.1080941966	 0.9790591639	 0.118102
H	-2.0780392795	 0.0298089356	-0.7868184876	 0.121392
H	-1.6730293825	-1.4153242656	 0.152707511	 0.135865
H	 0.3909907172	-0.3631824879	-0.8678611902	 0.123661
H	 0.0349851661	 1.1414951026	-0.0253396059	 0.117947
H	 0.2794050973	-0.0157605263	 2.1698951508	 0.132146
H	 0.7896322946	-4.1471599463	 1.5058786063	 0.205205
61.9372	89.8458	135.3317	174.8103	183.1982	256.4309	323.2754	333.8617	369.4077	444.2522	520.7405	556.7998	575.1385	643.0921	665.5099	706.5811	772.3683	844.8447	918.7712	973.7554	1054.3335	1108.259	1124.0032	1161.29	1215.1006	1271.5645	1276.7895	1332.6369	1355.5688	1378.3153	1415.0604	1491.0164	1497.9263	1508.4365	2244.4783	3030.1065	3038.4523	3056.3555	3093.1935	3111.4824	3122.2737	3503.3498
CCC(C#C)C(F)(F)F	CC[C@@H](C#C)C(F)(F)F	
InChI=1S/C6H7F3/c1-3-5(4-2)6(7,8)9/h1,5H,4H2,2H3	InChI=1S/C6H7F3/c1-3-5(4-2)6(7,8)9/h1,5H,4H2,2H3/t5-/m1/s1
