19
gdb 45251	2.96562	1.60027	1.29255	2.9923	77.78	-0.2312	-0.0167	0.2145	1020.0823	0.161051	-385.896969	-385.889735	-385.888791	-385.92869	29.378	
O	 0.1301086071	 0.2745815635	-1.110331954	-0.298861
C	 0.0743649652	 1.2145433484	-0.3725818312	 0.410626
C	-1.0514249745	 1.8330781767	 0.4790495107	-0.374773
C	-0.1128819166	 3.05144374	 0.757516184	-0.014876
C	 0.3446225327	 3.3549916431	 2.201769599	-0.250241
C	 1.6506701297	 2.5963951745	 2.4193047777	-0.021043
C	 1.6427971117	 1.099037256	 2.266043486	-0.300113
C	 2.0875802474	 1.9651996383	 1.1082972523	-0.034719
C	 1.0720700684	 2.3226178637	 0.0266278859	-0.157158
H	-1.9688028282	 2.0404355932	-0.0795529028	 0.12668
H	-1.3193273572	 1.2371318526	 1.3579947654	 0.12837
H	-0.465799515	 3.9497633207	 0.248853887	 0.081869
H	 0.5304219082	 4.4286047841	 2.3130716826	 0.103513
H	-0.4240179345	 3.0903753144	 2.9376235935	 0.103526
H	 2.3829077036	 3.0317832667	 3.0910445176	 0.085602
H	 2.4175882716	 0.5408410096	 2.7805308075	 0.11542
H	 0.6963317317	 0.571458109	 2.2152654782	 0.115977
H	 3.1319015815	 1.9228526585	 0.8229201402	 0.091519
H	 1.548478917	 2.830223067	-0.8159849697	 0.088682
80.8925	162.7498	248.6332	352.4852	380.2744	430.0333	532.8696	590.2858	652.6433	698.096	746.5383	781.2027	814.7439	827.5359	864.1016	905.6142	919.9718	953.2076	1000.7833	1016.619	1036.6097	1059.8258	1076.4479	1081.8488	1101.9035	1108.4197	1133.9293	1170.4834	1197.484	1216.3139	1231.6667	1248.959	1269.313	1303.5107	1324.328	1356.7809	1387.3449	1438.4276	1487.1329	1497.3132	1889.0376	3033.5789	3049.7757	3068.37	3078.2115	3092.745	3107.091	3133.6634	3160.9787	3178.8638	3213.6322
O=C1CC2CC3CC3C12	O=C1C[C@H]2C[C@H]3C[C@H]3[C@@H]12	
InChI=1S/C8H10O/c9-7-3-5-1-4-2-6(4)8(5)7/h4-6,8H,1-3H2	InChI=1S/C8H10O/c9-7-3-5-1-4-2-6(4)8(5)7/h4-6,8H,1-3H2/t4-,5+,6+,8-/m0/s1
