21
gdb 117822	1.93238	1.31638	1.10481	3.0208	75.85	-0.2321	-0.0143	0.2177	1263.5405	0.17826	-461.355714	-461.344731	-461.343787	-461.391881	39.009	
C	-0.3477826034	 1.3005990618	-0.0076413844	-0.250488
O	-0.1609996019	-0.1006033155	-0.0312714993	-0.279136
C	 0.6297753529	-0.6202517887	-1.1000443781	 0.262108
C	 2.0137544096	 0.0299143945	-1.2101136534	-0.437641
C	 0.7910652671	-2.1269598874	-0.7901151509	-0.213197
C	-0.5125860188	-2.8771553989	-0.5610669658	-0.09428
O	-1.2160762766	-2.925669272	-1.7976762337	-0.413069
C	-0.1437529185	-0.4432607458	-2.4202756602	 0.153646
O	 0.3767224545	-0.3919124614	-3.5040977783	-0.267965
H	 0.5640413206	 1.8374944015	 0.2855745486	 0.116494
H	-0.684681518	 1.6980333786	-0.976244637	 0.113683
H	-1.1233181925	 1.5000580926	 0.7361166323	 0.128785
H	 2.5667378184	-0.094060721	-0.2747202448	 0.115999
H	 2.5691498956	-0.4407794649	-2.0236088891	 0.142044
H	 1.9464771012	 1.0956270294	-1.4420291221	 0.12112
H	 1.335509662	-2.5960658783	-1.6161954333	 0.123934
H	 1.4085050206	-2.2137714677	 0.1110672196	 0.105162
H	-0.2838832668	-3.8927032742	-0.2029407651	 0.088124
H	-1.0984053162	-2.3659114044	 0.2124467907	 0.111974
H	-2.1190188754	-3.2081931739	-1.6271110422	 0.290083
H	-1.2413015343	-0.3571005643	-2.2829757636	 0.082621
53.9863	79.493	124.7037	171.0627	184.863	201.6793	227.0003	259.4623	267.741	309.7227	330.2513	374.4422	413.3312	465.6592	556.0981	584.9958	736.5784	841.5398	868.992	924.9931	990.4945	992.7759	1035.4367	1081.3657	1111.8732	1142.206	1168.5108	1179.922	1202.0837	1224.6194	1256.4044	1268.7859	1323.7484	1375.9101	1390.4445	1408.6507	1448.4776	1456.55	1477.0275	1485.3653	1487.2562	1504.3175	1512.5183	1519.6164	1828.4313	2918.7808	2984.2518	2991.4535	3042.6011	3045.3419	3051.0378	3054.1612	3096.6343	3111.9578	3125.0399	3140.5776	3835.8869
COC(C)(CCO)C=O	CO[C@@](C)(CCO)C=O	
InChI=1S/C6H12O3/c1-6(5-8,9-2)3-4-7/h5,7H,3-4H2,1-2H3	InChI=1S/C6H12O3/c1-6(5-8,9-2)3-4-7/h5,7H,3-4H2,1-2H3/t6-/m0/s1
