13
gdb 129090	2.7238	1.54859	0.98728	2.5294	70.79	-0.2587	-0.0852	0.1735	1084.5349	0.089532	-452.726035	-452.718717	-452.717773	-452.758299	26.586	
N	 0.2040800869	 1.4051001009	 0.2875933272	-0.518567
C	 0.1250284717	 0.1282459303	 0.1946232199	 0.192055
C	 1.2616061881	-0.8007358612	 0.3304395516	 0.006884
N	 1.2494963291	-2.0799796075	 0.2487187288	-0.064598
O	 0.005691872	-2.6849204849	-0.000882827	-0.230742
C	-1.0843997042	-1.9259251145	-0.1393607503	 0.081256
C	-1.1216230971	-0.5771011956	-0.0617118988	 0.038096
C	-2.4201204365	 0.1165770103	-0.2397620383	 0.092415
O	-3.4609088548	-0.4649019195	-0.4533526042	-0.272629
H	 1.164461664	 1.7026223334	 0.4697565115	 0.222654
H	 2.252585916	-0.3925981162	 0.5247055282	 0.149537
H	-1.9698946022	-2.5237790116	-0.3274661487	 0.180436
H	-2.3647081629	 1.2169094361	-0.1617953299	 0.123203
90.9365	136.7931	196.9867	256.709	348.5378	423.8065	456.4567	506.8241	546.418	660.7282	757.7924	796.7879	836.3878	860.0821	880.5722	955.9022	975.1851	1053.7366	1097.8068	1206.4751	1206.7954	1305.3959	1324.2835	1401.9758	1458.7285	1618.3546	1642.4755	1701.4232	1792.0632	2985.4096	3153.7419	3210.9817	3453.4581
N=C1C=NOC=C1C=O	[NH]C1=C([CH]ON=C1)C=O	
InChI=1S/C5H4N2O2/c6-5-1-7-9-3-4(5)2-8/h1-3,6H	InChI=1S/C5H4N2O2/c6-5-1-7-9-3-4(5)2-8/h1-3,6H
