17
gdb 44148	4.56143	1.02161	0.93223	3.4983	74.78	-0.2336	0.0111	0.2446	1249.4044	0.136577	-417.955129	-417.947492	-417.946548	-417.987605	29.392	
O	-0.3295507718	 0.2227339254	 0.7349843007	-0.342676
C	 0.0160806604	 1.2933213601	 0.3235241234	 0.416182
N	-0.5868635967	 2.183885166	-0.5948884533	-0.343583
C	 0.440924499	 3.2029962888	-0.3801789834	-0.030786
C	 0.5392332925	 3.5862180633	 1.0602353689	 0.017443
C	 1.1698548352	 2.2504703957	 0.5561445953	-0.273832
N	 1.3297371581	 4.7097878376	 1.4498612285	-0.089907
C	 2.2787386843	 4.5592014954	 2.5504641888	-0.21505
C	 2.7574130943	 4.7795814654	 1.1574454512	-0.231254
H	-1.5825740581	 2.3791878747	-0.5956273542	 0.242763
H	 0.8439064152	 3.7809920737	-1.2014958349	 0.118963
H	-0.3601060011	 3.5055852566	 1.6669598939	 0.112045
H	 2.2206722844	 2.017016738	 0.6394790756	 0.119401
H	 2.2908707473	 5.369500285	 3.2730731749	 0.125776
H	 2.4141647399	 3.5635551274	 2.9672837403	 0.124794
H	 3.2403518581	 3.9459379399	 0.6550569814	 0.123818
H	 3.111831169	 5.758263517	 0.8474838429	 0.125904
82.5858	134.7253	170.747	244.6389	345.4654	409.4331	459.1811	536.7667	591.7584	669.2009	769.2204	785.3306	826.5038	845.1608	854.2271	900.26	923.4234	971.003	1001.8413	1035.0741	1049.3883	1072.8395	1108.982	1123.0195	1126.9031	1135.081	1165.5134	1180.1903	1186.1852	1243.2243	1291.4059	1327.0005	1348.1907	1407.6316	1492.6463	1519.6456	1894.8588	3106.815	3114.9067	3131.5242	3190.2768	3203.4028	3204.0764	3230.9448	3539.3291
O=C1NC2C(C12)N1CC1	O=C1N[C@H]2[C@@H]([C@@H]12)N1CC1	
InChI=1S/C6H8N2O/c9-6-3-4(7-6)5(3)8-1-2-8/h3-5H,1-2H2,(H,7,9)	InChI=1S/C6H8N2O/c9-6-3-4(7-6)5(3)8-1-2-8/h3-5H,1-2H2,(H,7,9)/t3-,4+,5+/m0/s1
