16
gdb 10105	3.03632	1.46028	1.04231	2.8208	66.13	-0.2462	-0.0474	0.1988	1092.7176	0.128875	-379.929753	-379.920847	-379.919903	-379.963699	30.481	
C	 0.2029187842	 1.3097873563	 0.2396675166	-0.331214
N	 0.0771230195	-0.1061213894	-0.1027724995	-0.298728
C	-1.3006940637	-0.5915746164	-0.1073998611	-0.107912
C	-1.3485771187	-2.0718936214	-0.5299189188	-0.3063
C	-0.9494218468	-2.3093799699	-1.9673579286	 0.148116
O	-0.5334197668	-1.4595372172	-2.7158639222	-0.238235
C	-1.8938912867	-0.458909777	 1.2351114843	 0.304349
N	-2.3822291319	-0.3670266128	 2.2779992359	-0.326556
H	 1.2505536979	 1.6036733338	 0.1380974017	 0.128613
H	-0.407555475	 1.9784043154	-0.3911625127	 0.104113
H	-0.0907228948	 1.4668725008	 1.281772845	 0.14891
H	 0.4291539013	-0.2512283287	-1.0436782875	 0.245855
H	-1.9510175418	-0.0179303406	-0.7946500979	 0.116061
H	-0.6825685357	-2.6649381743	 0.1107481955	 0.160598
H	-2.3545499787	-2.4862324458	-0.3873729745	 0.148377
H	-1.0667268224	-3.3612054729	-2.3077728562	 0.103954
73.0065	105.093	147.3589	162.5457	187.0902	231.2363	260.9206	300.7181	412.057	537.843	582.8377	648.3937	737.869	832.8716	870.6268	921.1464	1004.1839	1056.5663	1077.2	1143.1565	1164.7377	1197.3713	1247.2095	1299.0586	1346.9123	1378.7043	1416.5793	1431.3825	1461.9826	1490.8354	1500.708	1525.5843	1821.1072	2361.7416	2901.3512	2926.0131	2961.7327	3035.9274	3073.0391	3079.3257	3122.4512	3533.3284
CNC(CC=O)C#N	CN[C@@H](CC=O)C#N	
InChI=1S/C5H8N2O/c1-7-5(4-6)2-3-8/h3,5,7H,2H2,1H3	InChI=1S/C5H8N2O/c1-7-5(4-6)2-3-8/h3,5,7H,2H2,1H3/t5-/m0/s1
