18
gdb 127247	5.5946	0.74734	0.70239	3.5685	75.85	-0.2442	0.0011	0.2453	1608.7707	0.148027	-435.264595	-435.255316	-435.254372	-435.300092	32.208	
C	 0.0690401294	 1.4334170282	 0.0308198473	-0.331207
N	 0.013116549	-0.0107655145	-0.0678064837	 0.084052
C	 0.1203348765	-0.8031523451	-1.1612922767	-0.19888
C	-0.0184039904	-2.0861043116	-0.6800070376	 0.301884
C	 0.0432630234	-3.4000355583	-1.3890102946	-0.317388
C	 1.401567118	-4.1005212347	-1.2057133892	-0.056055
O	 1.467838712	-5.3407124235	-1.8873892879	-0.416321
N	-0.1987233223	-2.0046951505	 0.6716494735	-0.253922
N	-0.181156532	-0.7554966342	 1.0380743812	-0.146652
H	 1.0331982156	 1.8079784763	-0.3239036751	 0.147874
H	-0.7332189197	 1.8929166064	-0.5532423668	 0.147929
H	-0.05550258	 1.6883960864	 1.0830945421	 0.171824
H	 0.2738417205	-0.4060558739	-2.1509560662	 0.141386
H	-0.7458092976	-4.0525393202	-0.9956676269	 0.111737
H	-0.1449805081	-3.2692968876	-2.4592466278	 0.109556
H	 2.1965763577	-3.479823498	-1.6324504828	 0.109749
H	 1.6122678523	-4.209598692	-0.1321253645	 0.111114
H	 0.8627928056	-5.9488914031	-1.4509455643	 0.28332
40.3637	81.6114	95.3329	98.4837	207.1787	273.4122	302.6703	357.3261	381.7163	417.8143	650.1815	678.4896	734.3361	782.2672	784.6205	810.2982	1012.721	1023.2998	1040.1144	1052.4106	1071.3374	1079.0026	1147.8629	1151.5577	1166.3084	1282.4294	1289.515	1310.1979	1326.0311	1379.2431	1400.7472	1415.7844	1440.8956	1474.3786	1485.0415	1488.5329	1511.2562	1513.3787	1590.2015	3005.9668	3034.1668	3049.9386	3071.0196	3095.1297	3115.0852	3164.1204	3276.1781	3816.1735
CN1C=C(CCO)N=N1	Cn1cc(CCO)nn1	
InChI=1S/C5H9N3O/c1-8-4-5(2-3-9)6-7-8/h4,9H,2-3H2,1H3	InChI=1S/C5H9N3O/c1-8-4-5(2-3-9)6-7-8/h4,9H,2-3H2,1H3
