18
gdb 126780	2.51536	1.36935	0.94772	3.4408	74.66	-0.2226	0.0167	0.2392	1252.3031	0.148227	-435.313098	-435.303956	-435.303012	-435.347747	32.79	
C	-0.2286482128	 1.5851520591	-0.1074414629	-0.374906
C	 0.1057845956	 0.0969796241	 0.0001363623	-0.146815
N	 0.7928170665	-0.4038516259	-1.1768545424	-0.000509
N	 0.1117133327	-0.4980545816	-2.3629665901	-0.331384
C	 1.0546075032	-0.9461914904	-3.1679212325	 0.41873
O	 0.80989319	-1.1902962967	-4.4635863608	-0.412356
N	 2.2747362133	-1.1463645245	-2.6078832906	-0.407078
C	 2.0742509919	-0.7900055375	-1.3427062227	 0.352287
C	 3.1085207657	-0.8175866644	-0.267115392	-0.504869
H	 0.6808864035	 2.1872985278	-0.1932628597	 0.123187
H	-0.8470986233	 1.7666773104	-0.9891838916	 0.155869
H	-0.7776129765	 1.9120001039	 0.7806502838	 0.120489
H	 0.7481688386	-0.1002273369	 0.8622166984	 0.120602
H	-0.8089414861	-0.4906158817	 0.1254975716	 0.13572
H	 1.6386331996	-1.5096014181	-4.839958932	 0.308578
H	 3.2979917704	 0.1794465276	 0.1444896155	 0.141135
H	 2.8166634074	-1.4704066107	 0.5624711148	 0.141675
H	 4.0381391804	-1.1963437446	-0.692877599	 0.159647
41.3424	104.0597	113.1121	209.1316	219.1747	281.8555	302.0152	343.5899	407.5375	440.085	540.6918	635.7928	647.2884	674.3478	770.3808	789.4817	829.1386	975.7648	1014.7063	1052.6277	1063.0361	1097.8807	1105.5707	1194.4691	1223.1936	1294.0719	1339.1161	1391.7313	1406.211	1408.3469	1434.6536	1467.1104	1479.1685	1485.3988	1488.7681	1507.8841	1517.1934	1559.4103	1639.5845	3039.588	3045.8449	3059.4088	3092.6714	3104.6386	3119.1804	3140.2433	3151.8322	3815.8414
CCN1N=C(O)N=C1C	CCn1nc(O)nc1C	
InChI=1S/C5H9N3O/c1-3-8-4(2)6-5(9)7-8/h3H2,1-2H3,(H,7,9)	InChI=1S/C5H9N3O/c1-3-8-4(2)6-5(9)7-8/h3H2,1-2H3,(H,7,9)
