17
gdb 16861	4.19419	1.79492	1.37621	3.8413	67.46	-0.2302	0.0364	0.2666	893.4633	0.145203	-363.894246	-363.887399	-363.886455	-363.925289	26.847	
O	 0.0198996319	-0.0785783126	 0.0707940507	-0.376558
C	-0.0076409014	 1.1354438326	-0.0064427351	 0.394192
C	-1.3047676289	 1.9473277853	-0.0184620062	-0.348344
C	-1.2495913999	 3.1561438501	-0.9476479283	-0.008859
C	-1.1891225919	 4.5614895262	-0.4066572163	-0.302491
C	 0.0557039274	 3.9153726756	-0.9599618405	-0.010794
C	 1.1185042125	 3.356782541	-0.0223320777	-0.198344
N	 1.1252069158	 1.8985359129	-0.0772629762	-0.294428
H	-2.1093639959	 1.2613198701	-0.2867681193	 0.132114
H	-1.4950845685	 2.2657003306	 1.0151961456	 0.1225
H	-1.7431503552	 3.0208704912	-1.9041191692	 0.096183
H	-1.6522839241	 5.3554948435	-0.9817125634	 0.116139
H	-1.2554848635	 4.6953661165	 0.6695265671	 0.111751
H	 0.4200035916	 4.2674500577	-1.9189543314	 0.092986
H	 2.1122831908	 3.7103888406	-0.3089710973	 0.117786
H	 0.9443674098	 3.7102440221	 1.0048138601	 0.109957
H	 1.9930913896	 1.3955765567	 0.0267575075	 0.246212
89.7137	176.5526	276.4808	407.2222	436.6282	455.3807	476.2661	521.2772	629.2693	719.3312	789.0533	823.0281	852.2543	881.7177	911.9486	949.2231	987.4887	1028.8692	1072.3087	1096.5746	1111.4	1130.2038	1159.0357	1225.9526	1231.6557	1279.7787	1299.5832	1313.2781	1374.3478	1379.6102	1404.8928	1462.3768	1470.1499	1490.2216	1516.5127	1797.0649	2988.4712	3026.8503	3085.6243	3122.1007	3123.2142	3158.0676	3166.6092	3211.9597	3627.1875
O=C1CC2CC2CN1	O=C1C[C@H]2C[C@H]2CN1	
InChI=1S/C6H9NO/c8-6-2-4-1-5(4)3-7-6/h4-5H,1-3H2,(H,7,8)	InChI=1S/C6H9NO/c8-6-2-4-1-5(4)3-7-6/h4-5H,1-3H2,(H,7,8)/t4-,5+/m1/s1
