18
gdb 128146	2.30211	1.42235	0.93615	4.6085	76.53	-0.1992	0.0204	0.2195	1268.2842	0.14914	-431.425639	-431.416347	-431.415403	-431.460456	32.942	
C	-0.1878810442	 1.2825422861	 0.0283192546	-0.340754
N	-0.2724599704	-0.1565149564	-0.169364787	-0.390986
C	 0.564080304	-0.7686377505	-1.0755019025	 0.385147
C	 1.0434927704	-2.0685518508	-1.103165318	 0.190725
N	 0.7899622707	-3.0536297174	-0.1280700584	-0.394037
C	-0.2277460548	-4.045010442	-0.5085966545	-0.326139
N	 1.8011867856	-2.2240984977	-2.2246962258	-0.236526
N	 1.8400977483	-1.1136140441	-2.8934494476	-0.148511
N	 1.0717238654	-0.2149807732	-2.1993652367	-0.257122
H	 0.825158055	 1.6358431609	 0.2748116423	 0.123808
H	-0.5261864847	 1.8080134451	-0.8719639894	 0.129926
H	-0.8627748161	 1.5668465907	 0.8380470391	 0.139717
H	-0.3087330298	-0.6991418975	 0.6845124815	 0.252921
H	 1.6543381986	-3.530952927	 0.1049766407	 0.234729
H	-1.1833346098	-3.5358801851	-0.6652992369	 0.126435
H	 0.0208593103	-4.5950471888	-1.4272307059	 0.123767
H	-0.354386889	-4.7608433425	 0.3093075041	 0.113678
H	 0.9676710604	 0.7200184901	-2.5553753197	 0.273223
51.5128	83.442	153.9629	166.8917	182.0058	214.433	297.6625	323.7468	411.7315	489.4732	546.3931	615.6671	662.9223	712.1534	742.7941	774.4974	827.0385	998.7708	1007.4977	1044.1312	1075.6601	1145.308	1149.781	1160.8442	1170.645	1250.3593	1270.5637	1301.8513	1397.5606	1442.5219	1464.0685	1476.3727	1479.7544	1491.0212	1494.1592	1518.4407	1519.0607	1548.2494	1669.172	2986.3414	3002.012	3062.0343	3077.8954	3111.2567	3126.4783	3524.8234	3568.0808	3673.7121
CNC1=C(NC)N=NN1	CNc1c(NC)nn[nH]1	
InChI=1S/C4H9N5/c1-5-3-4(6-2)8-9-7-3/h1-2H3,(H3,5,6,7,8,9)	InChI=1S/C4H9N5/c1-5-3-4(6-2)8-9-7-3/h1-2H3,(H3,5,6,7,8,9)
