18
gdb 33196	6.24925	0.72575	0.67404	3.0353	75.34	-0.2212	0.0124	0.2336	1672.1113	0.147516	-439.109952	-439.101026	-439.100082	-439.145605	31.209	
C	 0.011113631	 1.4942687538	-0.1140982678	-0.386098
C	-0.0796442	 0.0005684199	 0.2095558214	-0.184857
C	-1.4778708724	-0.546642964	-0.0205412825	-0.068116
O	-1.4622820804	-1.9494585041	 0.3177051874	-0.2751
C	-2.5919180691	-2.6221016938	 0.1213561926	 0.393118
C	-2.8611211134	-3.8416723532	-0.405496531	-0.217295
N	-4.2239280049	-4.0962505347	-0.2684087995	-0.251717
C	-4.6946478348	-3.0434128203	 0.3064239008	 0.076584
O	-3.7650858055	-2.0881296418	 0.5888985245	-0.187867
H	 1.0234690566	 1.8685808786	 0.0601554915	 0.123863
H	-0.2408831298	 1.6931615848	-1.1613935787	 0.12107
H	-0.672150465	 2.0809465991	 0.509444473	 0.121273
H	 0.6261048257	-0.56723303	-0.4068605489	 0.113707
H	 0.1979421852	-0.1807404754	 1.2539626583	 0.115379
H	-2.2142363128	-0.0306579632	 0.6059546734	 0.122608
H	-1.7832126866	-0.4373131638	-1.0698368306	 0.109765
H	-2.1814413426	-4.5424176351	-0.8595703641	 0.125692
H	-5.7133764312	-2.8179490469	 0.5782930202	 0.147991
30.4377	48.1573	102.4235	122.4808	233.2201	262.7855	335.4772	374.2859	487.267	666.5208	686.4669	750.1039	765.6399	800.609	822.3403	897.3666	911.7719	930.2742	968.4303	1028.5383	1054.3737	1107.6885	1122.3715	1142.3749	1187.0375	1246.9369	1266.332	1285.9156	1317.4606	1335.541	1355.0679	1413.5653	1423.4261	1492.7189	1501.1167	1507.1506	1521.1361	1562.8084	1671.8408	3014.2314	3034.6236	3043.1854	3061.5947	3082.0131	3105.3204	3113.4957	3276.9915	3281.2687
CCCOC1=CN=CO1	CCCOc1cnco1	
InChI=1S/C6H9NO2/c1-2-3-8-6-4-7-5-9-6/h4-5H,2-3H2,1H3	InChI=1S/C6H9NO2/c1-2-3-8-6-4-7-5-9-6/h4-5H,2-3H2,1H3
