16
gdb 33951	3.27766	1.42433	1.26116	3.8538	72.57	-0.2747	0.0211	0.2958	1011.5503	0.125972	-400.741552	-400.734551	-400.733607	-400.772894	27.758	
N	 0.0865856169	-1.1606111374	 0.0131851833	-0.345255
C	 0.0649517988	-0.0034229654	 0.0292392027	 0.190352
C	 0.0297401389	 1.4264610694	 0.0642872737	 0.187239
C	 0.3051223092	 2.2437362129	-1.192630091	-0.313378
C	 1.2974084452	 2.2871308176	-0.0722477692	-0.090716
C	 1.2363632086	 3.398615402	 0.9790493923	-0.266652
C	-0.1229819006	 3.2749328636	 1.651857173	 0.042662
O	-1.2458885844	 3.4255514931	 0.7676301605	-0.24916
C	-0.8360843971	 2.1040571384	 1.1185492918	-0.041598
H	 0.5838827119	 1.6847869247	-2.0782719115	 0.137426
H	-0.3506949212	 3.0899153732	-1.3522684039	 0.152814
H	 2.2484166912	 1.7931166594	-0.232888606	 0.118185
H	 2.0200080763	 3.2440722646	 1.7285188983	 0.121486
H	 1.3859463869	 4.3940378258	 0.5478432307	 0.128974
H	-0.2746818431	 3.664244248	 2.655467275	 0.109676
H	-1.5518423574	 1.5090699399	 1.6768309601	 0.117945
135.4398	154.7391	271.2156	321.4911	401.8337	471.5386	504.3319	542.5173	599.5931	704.5385	734.5991	801.6216	826.3794	859.1266	891.1541	904.3901	946.9388	973.0381	1014.2796	1062.1823	1081.0609	1098.7126	1107.7552	1118.1618	1212.4365	1231.0283	1253.9482	1270.7104	1301.6339	1332.9196	1398.4922	1422.679	1470.7896	1479.0507	2348.672	3049.1032	3089.5966	3148.1386	3151.7323	3173.516	3184.4275	3249.8889
N#CC12CC1CC1OC21	N#C[C@]12C[C@H]1C[C@H]1O[C@@H]21	
InChI=1S/C7H7NO/c8-3-7-2-4(7)1-5-6(7)9-5/h4-6H,1-2H2	InChI=1S/C7H7NO/c8-3-7-2-4(7)1-5-6(7)9-5/h4-6H,1-2H2/t4-,5-,6-,7-/m1/s1
