18
gdb 65288	2.68751	1.3338	1.07809	1.5374	78.97	-0.2416	0.027	0.2686	1165.0571	0.145426	-401.865404	-401.856349	-401.855405	-401.8991	33.705	
C	-0.0591537086	 1.5407144199	 0.0059563804	-0.461275
C	-0.03285303	 0.0252538747	 0.0453541943	 0.072933
N	 1.3052162319	-0.5907103717	-0.2079517754	-0.410985
C	 0.7205267994	-0.7000471861	 1.111716037	 0.249164
C	 1.3374450406	-0.1928514025	 2.4109446203	-0.133347
O	 0.8464679275	-1.3596478204	 3.1091677841	-0.275108
C	 0.3135117683	-1.9405730673	 1.8986015666	-0.155651
C	-1.1883476479	-0.6449368679	-0.4940830228	 0.290777
C	-2.1549332141	-1.2022599168	-0.9449445096	-0.456638
H	 0.8676285235	 1.9414041135	 0.4228999812	 0.131974
H	-0.1527466386	 1.8947054282	-1.0247912133	 0.134672
H	-0.9057665433	 1.9290083253	 0.5800455388	 0.129635
H	 1.19668269	-1.4637182647	-0.7211198158	 0.239427
H	 2.4334032782	-0.1407936638	 2.4018169892	 0.112547
H	 0.928540083	 0.7376815641	 2.8227742151	 0.108145
H	-0.7622755022	-2.1411930149	 1.9642445399	 0.118902
H	 0.8395026461	-2.8634665195	 1.6173531604	 0.103594
H	-3.0072228137	-1.69222333	-1.3469244604	 0.201233
93.5983	117.8161	142.5227	183.8015	206.3474	235.3381	353.1612	394.7968	438.7833	498.2872	554.7893	597.5727	623.2776	659.5958	670.8756	801.9421	878.1199	931.0192	946.3374	993.9101	1015.7666	1024.9454	1063.4534	1094.8296	1128.1671	1142.7064	1144.7983	1162.2949	1245.495	1295.4682	1313.6164	1348.8564	1411.9923	1460.0024	1482.6212	1496.8351	1502.8526	1527.8349	2229.7939	3002.0419	3017.2114	3044.6055	3059.2317	3061.7938	3114.8911	3130.7763	3489.2872	3500.3968
CC1(NC11COC1)C#C	C[C@]1(NC21COC2)C#C	
InChI=1S/C7H9NO/c1-3-6(2)7(8-6)4-9-5-7/h1,8H,4-5H2,2H3	InChI=1S/C7H9NO/c1-3-6(2)7(8-6)4-9-5-7/h1,8H,4-5H2,2H3/t6-/m0/s1
