16
gdb 48007	5.2275	0.71598	0.68467	5.4519	82.11	-0.2453	-0.0546	0.1907	1608.1709	0.123691	-400.673325	-400.664859	-400.663914	-400.708513	29.792	
O	-0.124586485	-0.0733669512	 0.039084538	-0.233805
C	-0.0414624325	 1.1325149652	 0.1081145651	 0.019827
C	 1.1883536277	 1.874860224	 0.0462668476	-0.014406
C	 2.1973697222	 2.5384418418	-0.0079400162	 0.176167
C	 3.4208837416	 3.3074551503	-0.0701483348	-0.19529
C	 4.1514527606	 3.459817916	-1.4711410371	-0.23427
C	 4.0486107637	 4.9782627109	-1.3057356901	-0.039588
N	 2.6000848667	 5.277753411	-1.2189032767	-0.320586
C	 3.3319355388	 4.8476311496	-0.0101524923	-0.055769
H	-0.9446897525	 1.7656624899	 0.2278502601	 0.096187
H	 4.1314646597	 2.9315986069	 0.6722347329	 0.117701
H	 5.1701345596	 3.0713547735	-1.4348932973	 0.116013
H	 3.6198260497	 3.0487793022	-2.3304247475	 0.127101
H	 4.7552059193	 5.7283444558	-1.6367350935	 0.103064
H	 2.4991731138	 6.2906868247	-1.1616741973	 0.234562
H	 3.3559802667	 5.4590393893	 0.8830026392	 0.103092
22.7659	72.0329	95.4763	164.1736	237.537	314.003	418.4345	455.645	548.1144	651.176	682.7287	783.4446	816.1293	837.5743	906.7739	927.1352	963.1304	973.2267	987.3395	1022.5426	1044.8816	1095.2817	1116.4021	1152.1522	1174.6919	1197.2456	1243.1067	1273.8062	1318.2722	1350.585	1380.3608	1422.6091	1474.8539	1764.0236	2323.9581	2913.2695	3064.0815	3083.9561	3146.8625	3190.6299	3204.734	3478.8459
O=CC#CC1CC2NC12	O=CC#C[C@H]1C[C@H]2N[C@@H]12	
InChI=1S/C7H7NO/c9-3-1-2-5-4-6-7(5)8-6/h3,5-8H,4H2	InChI=1S/C7H7NO/c9-3-1-2-5-4-6-7(5)8-6/h3,5-8H,4H2/t5-,6+,7-/m0/s1
