16
gdb 48600	2.24031	1.84386	1.32247	0.9374	70.12	-0.2536	-0.0512	0.2024	989.0435	0.12277	-437.778677	-437.770839	-437.769895	-437.81146	29.261	
O	-0.7667687479	 1.11135648	-0.3991451487	-0.255281
C	 0.3367254436	 0.8896790506	 0.0371116637	 0.026004
C	 1.4013308318	 1.9314932763	 0.0524448904	 0.225462
C	 1.6442351077	 3.1004652301	 1.0620926221	-0.25829
C	 2.8406382877	 3.0256441003	 0.0804457687	-0.036862
O	 2.8169236464	 1.5422590125	 0.2165307629	-0.340013
C	 1.8387317554	 2.8853642158	-1.0773385025	 0.401613
C	 1.876424806	 2.766224842	-2.5332496721	-0.341973
N	 1.1279362117	 3.8670637546	-1.8474929552	-0.391443
H	 0.6308660277	-0.1004739705	 0.4457232507	 0.105881
H	 0.9817104353	 3.9656769892	 1.0037151214	 0.125969
H	 1.864201309	 2.7764306082	 2.0796830303	 0.116717
H	 3.8111980659	 3.5161513823	 0.1259860162	 0.111205
H	 2.7461082691	 3.0950510345	-3.0941671805	 0.131152
H	 1.3047805603	 1.9674423617	-2.9980241893	 0.129666
H	 0.1305090402	 3.6626699821	-1.8456592383	 0.250191
67.7162	116.4223	190.4081	205.4853	299.2577	362.7711	448.1115	480.5852	596.0941	670.3227	708.0559	775.2968	782.6908	892.0543	905.6873	917.8854	935.5629	974.124	998.08	1023.8818	1050.8976	1069.1285	1104.3908	1123.6373	1183.3728	1203.1362	1213.4538	1244.7413	1261.0279	1300.0974	1405.2105	1447.93	1479.1693	1536.0979	1807.9892	2911.2744	3078.4349	3114.6123	3143.8174	3164.1976	3201.7537	3494.7892
O=CC12CC(O1)C21CN1	O=C[C@@]12C[C@@H](O1)[C@]12CN1	
InChI=1S/C6H7NO2/c8-3-5-1-4(9-5)6(5)2-7-6/h3-4,7H,1-2H2	InChI=1S/C6H7NO2/c8-3-5-1-4(9-5)6(5)2-7-6/h3-4,7H,1-2H2/t4-,5-,6+/m1/s1
