20
gdb 112486	3.76994	0.96969	0.81818	3.4437	87.87	-0.2295	-0.0287	0.2008	1471.1668	0.170317	-403.174081	-403.16475	-403.163806	-403.208546	34.002	
C	 0.0979137692	 1.5491652875	 0.1018291697	-0.384407
C	-0.0537607118	 0.0334553775	-0.0448961506	-0.180987
C	 0.6902099821	-0.5216058343	-1.2654883056	 0.065124
O	 2.0940524535	-0.2573434297	-1.1541660271	-0.248981
C	 2.8106128431	-1.4283983902	-1.217835202	 0.394822
C	 1.8385337839	-2.5292687812	-1.3872024933	-0.204812
C	 0.6109575488	-2.0130235138	-1.422889383	-0.093989
N	 4.0689412913	-1.378557567	-1.1292351513	-0.291015
C	 4.8560516838	-2.5878863996	-1.1962554474	-0.32495
H	 1.1521477061	 1.8226130042	 0.1915904077	 0.146058
H	-0.313729037	 2.0736905974	-0.7676052454	 0.114104
H	-0.4284742994	 1.9095299883	 0.990339218	 0.113869
H	 0.3245534372	-0.4775700531	 0.8479671409	 0.109157
H	-1.1131255821	-0.2360211033	-0.1433983345	 0.097087
H	 0.3243813421	-0.008942179	-2.1695155853	 0.097923
H	 2.1122897078	-3.5704272688	-1.4647115474	 0.124052
H	-0.3255227055	-2.5442752674	-1.5359471071	 0.119792
H	 5.445252966	-2.6903497985	-0.276752994	 0.126123
H	 4.2881243459	-3.5195644992	-1.33663695	 0.094395
H	 5.576039885	-2.5078239199	-2.0197464221	 0.126633
76.6256	104.401	111.3249	170.4708	216.323	244.7727	259.5387	297.607	411.6534	466.5528	542.6766	647.5243	678.236	755.5778	804.1611	824.8867	878.7309	896.5617	963.9324	971.9575	1006.504	1051.3035	1089.6145	1124.0845	1132.2603	1142.0402	1143.5577	1153.4745	1207.5344	1285.362	1302.5601	1356.2914	1367.0607	1383.1163	1410.4788	1451.3935	1475.9529	1482.5464	1496.436	1504.3467	1508.1848	1660.2453	1775.0378	2979.5797	2987.4876	3027.604	3038.4847	3053.0007	3064.6902	3070.278	3105.6038	3127.7954	3216.1001	3256.8855
CCC1OC(C=C1)=NC	CC[C@H]1OC(=NC)C=C1	
InChI=1S/C7H11NO/c1-3-6-4-5-7(8-2)9-6/h4-6H,3H2,1-2H3	InChI=1S/C7H11NO/c1-3-6-4-5-7(8-2)9-6/h4-6H,3H2,1-2H3/t6-/m1/s1
