21
gdb 97247	2.30197	1.52055	0.96543	2.6477	82.82	-0.2286	0.0251	0.2537	1266.5399	0.183439	-420.412561	-420.403212	-420.402268	-420.447003	34.523	
C	 0.0076436189	 1.4841073648	 0.1385607411	-0.324017
N	 0.0149013579	 0.0317189869	 0.1004260612	-0.292978
C	-1.0591716052	-0.5989626735	-0.1061204634	 0.429985
O	-2.2641494933	 0.0413150791	-0.229806731	-0.26943
C	-3.2919605405	-0.5638708514	-1.0251392771	-0.054367
C	-3.3941944814	-2.0571669232	-0.7751803792	-0.172836
N	-2.0780376856	-2.6227757242	-1.0321675086	-0.31045
C	-1.0916412177	-2.1228059247	-0.0674720884	-0.051462
C	 0.2742573003	-2.7436701621	-0.3349331617	-0.394305
H	 0.9538534209	 1.8519893888	-0.2699891251	 0.117864
H	-0.8255540795	 1.9396561312	-0.4079521565	 0.116933
H	-0.0466501164	 1.8258929207	 1.1802381102	 0.122883
H	-4.2153338922	-0.0433134187	-0.758366687	 0.111904
H	-3.0725399435	-0.3836539235	-2.084940565	 0.11419
H	-3.7526489651	-2.234159172	 0.2566446982	 0.086959
H	-4.1262149937	-2.4889821418	-1.4656882105	 0.105886
H	-2.1058517497	-3.6353793237	-0.9806254779	 0.220946
H	-1.3984334116	-2.3757573264	 0.9693821513	 0.076041
H	 0.6052737912	-2.5091932031	-1.3495540382	 0.128227
H	 1.0123439082	-2.3563536589	 0.3670525623	 0.141865
H	 0.218020478	-3.8329275742	-0.2284188145	 0.096164
59.1195	89.7379	151.9061	189.7998	224.4324	236.058	311.7675	336.5535	425.489	448.8626	458.4568	559.3838	602.334	692.6204	764.2419	808.7451	896.5811	926.2522	974.0661	1035.4684	1044.4363	1069.897	1109.8847	1116.208	1127.4092	1153.7623	1167.6318	1178.4804	1212.0881	1263.9888	1282.9562	1330.901	1358.3852	1404.5754	1407.6063	1427.0149	1436.8796	1474.4771	1487.7162	1489.5009	1491.6872	1496.5617	1499.0517	1506.4292	1769.2066	2873.6787	2924.7329	3014.7683	3029.1634	3041.3781	3071.1474	3072.787	3095.3389	3101.2515	3115.7194	3158.2246	3523.6285
CN=C1OCCNC1C	CN=C1OCCN[C@H]1C	
InChI=1S/C6H12N2O/c1-5-6(7-2)9-4-3-8-5/h5,8H,3-4H2,1-2H3	InChI=1S/C6H12N2O/c1-5-6(7-2)9-4-3-8-5/h5,8H,3-4H2,1-2H3/t5-/m0/s1
