23
gdb 101268	2.53337	0.973	0.85199	0.7942	92.38	-0.24	0.0505	0.2904	1508.3988	0.203325	-351.121025	-351.110442	-351.109498	-351.156711	39.561	
C	-0.2028583278	 1.5522286711	-0.0627142859	-0.392021
C	-0.0976930023	 0.0277004486	-0.1696342008	-0.16501
C	 0.9599254278	-0.4751346006	-1.1723823404	 0.019081
C	 2.3922356137	-0.0965964526	-0.766478873	-0.399982
C	 0.8417353892	-1.9793774794	-1.3428046079	 0.01355
C	-0.1900383051	-2.5871298269	-2.2455253019	-0.309665
C	 1.2832294328	-2.6791175604	-2.6256668943	-0.209127
C	 1.7897335473	-1.937371024	-3.7430302644	 0.339626
C	 2.2278669879	-1.3264267059	-4.6832160983	-0.477992
H	 0.7169284911	 2.0026890283	 0.3225666102	 0.118408
H	-0.4085462561	 2.0028667503	-1.0403902363	 0.113757
H	-1.0150902412	 1.8405395555	 0.6120774616	 0.110809
H	 0.1186253368	-0.3960686111	 0.821141243	 0.089003
H	-1.0735709033	-0.3772663272	-0.4647363292	 0.094895
H	 0.750377487	-0.0126240175	-2.1463129812	 0.079886
H	 2.6525781334	-0.5385752068	 0.2032553543	 0.105646
H	 3.1105246335	-0.4581509876	-1.5075838046	 0.127326
H	 2.5165432273	 0.986671375	-0.6823847381	 0.112221
H	 1.0680840729	-2.5434833032	-0.4397658618	 0.085633
H	-0.6875676924	-3.5032913704	-1.9474268595	 0.115633
H	-0.7995364068	-1.9136271602	-2.8384941471	 0.124526
H	 1.7437921812	-3.6539194533	-2.4925604273	 0.110279
H	 2.6100288232	-0.788989382	-5.5150492169	 0.193518
59.0436	84.6358	101.0403	169.0241	212.7554	221.5598	236.936	277.3358	302.8777	389.9273	410.8861	457.2915	534.3954	574.4069	618.2487	647.1148	763.7674	775.5602	805.9128	840.4991	867.0352	944.6539	969.2316	978.0762	997.2805	1026.5483	1051.2228	1069.976	1121.9707	1140.6773	1150.1668	1181.6423	1198.7571	1231.7781	1284.2821	1307.8339	1351.5048	1373.6342	1377.9002	1406.6201	1412.6913	1424.4081	1484.137	1486.1549	1496.5058	1498.1584	1507.3533	1511.3694	2231.4055	3007.8135	3019.4235	3029.1451	3032.6326	3049.6834	3096.1838	3097.2633	3105.7946	3116.1778	3122.2388	3133.7539	3144.7233	3222.4594	3505.6828
CCC(C)C1CC1C#C	CC[C@@H](C)[C@H]1C[C@H]1C#C	
InChI=1S/C9H14/c1-4-7(3)9-6-8(9)5-2/h2,7-9H,4,6H2,1,3H3	InChI=1S/C9H14/c1-4-7(3)9-6-8(9)5-2/h2,7-9H,4,6H2,1,3H3/t7-,8-,9-/m1/s1
