18
gdb 38173	2.64303	1.93247	1.28088	1.832	76.25	-0.236	-0.0004	0.2356	985.3988	0.150278	-401.910677	-401.903638	-401.902693	-401.942106	28.297	
C	-0.0687869258	 1.5123276789	-0.1795052092	-0.154508
O	 1.2986718108	 1.6046913342	 0.2992385715	-0.30231
C	 1.413583727	 0.1664099386	 0.4413445649	 0.069402
C	 1.7926444347	-0.3152867359	 1.8457497617	-0.289999
C	 0.9905269501	-1.5360489569	 2.2475410308	-0.063752
C	-0.2440375043	-1.7932274969	 1.8048520565	-0.077266
C	-0.9396013542	-0.8964564269	 0.8428537572	-0.133868
N	-0.7213514015	-1.0530942499	-0.6284379865	-0.391456
C	-0.0621343179	 0.0166950027	 0.0919685216	 0.283831
H	-0.7552328276	 2.1295217194	 0.4114961002	 0.10828
H	-0.1544940712	 1.7810351072	-1.2400323928	 0.110449
H	 2.0968147377	-0.2465145154	-0.3149933086	 0.077358
H	 2.8642775707	-0.5267824092	 1.9158975246	 0.10969
H	 1.5936541443	 0.5042710582	 2.5487876311	 0.131794
H	 1.4581113706	-2.2197457619	 2.9514033811	 0.096947
H	-0.7764685966	-2.6763778243	 2.1485936785	 0.096654
H	-1.9597687769	-0.607293208	 1.0851464108	 0.101372
H	-0.0662673299	-1.8143584139	-0.8033123334	 0.227383
95.0582	186.2418	295.3391	321.3582	408.0977	461.6349	499.4	519.1419	574.7858	729.3411	777.8028	800.2844	850.8973	867.6678	940.5383	959.3624	969.0703	993.8042	998.769	1024.623	1050.1911	1074.4415	1089.4566	1131.7485	1144.6394	1176.7746	1195.263	1209.211	1258.7327	1271.4025	1316.3923	1332.5546	1358.6222	1378.3311	1410.6938	1476.9742	1494.3632	1520.4532	1697.1745	2992.6292	3017.468	3026.928	3065.228	3075.7014	3132.4061	3150.863	3172.8627	3469.5176
C1OC2CC=CC3NC123	C1O[C@H]2CC=C[C@@H]3N[C@]123	
InChI=1S/C7H9NO/c1-2-5-7(8-5)4-9-6(7)3-1/h1-2,5-6,8H,3-4H2	InChI=1S/C7H9NO/c1-2-5-7(8-5)4-9-6(7)3-1/h1-2,5-6,8H,3-4H2/t5-,6-,7-/m0/s1
