17
gdb 69924	3.13463	1.78302	1.67489	0.4549	69.88	-0.2365	0.006	0.2425	886.6504	0.136579	-421.785899	-421.779075	-421.77813	-421.816659	28.216	
C	-0.0489624095	 1.5060285148	 0.0283778113	-0.499503
C	 0.061866259	 0.0106038209	 0.0354694656	 0.433395
O	-0.7929594215	-0.7252110669	 0.9264749997	-0.279666
C	 0.630244549	-0.8433256204	 1.0716810738	-0.047382
C	 1.3202370833	-1.9900706671	 0.2489942965	-0.039456
O	 1.7852216411	-1.2235505683	-0.8829790471	-0.244521
C	 0.4755321686	-0.7678499187	-1.2783441897	-0.088397
C	-0.29951858	-2.0794964155	-1.3408673523	-0.05486
C	 0.2309324702	-2.8456979548	-0.3898541728	-0.058252
H	 0.8538132321	 1.9532100229	-0.400184713	 0.134562
H	-0.9052573918	 1.8318650263	-0.5727787164	 0.127808
H	-0.1825874817	 1.887043821	 1.0438950775	 0.132841
H	 1.0533079785	-0.4947333288	 2.0084179266	 0.104297
H	 2.1507617322	-2.4867274725	 0.7476596305	 0.078413
H	 0.5338453855	-0.1541524258	-2.1762767032	 0.07506
H	-1.1596403659	-2.2715814841	-1.9660602007	 0.112464
H	-0.0901070189	-3.816969153	-0.0420749463	 0.113195
180.5095	205.7135	274.3404	338.2861	374.4795	532.2525	544.3619	593.489	630.1657	724.4568	741.0134	783.6511	832.1407	861.6488	877.2091	896.4246	913.0064	921.6417	940.9884	983.5211	998.59	1016.3562	1053.6645	1109.645	1124.8368	1192.2586	1216.4373	1243.4205	1255.4578	1272.6741	1325.3995	1330.1681	1408.3104	1457.1045	1488.0675	1495.0411	1643.7829	3034.6844	3097.9856	3123.6041	3132.0185	3137.6919	3167.3098	3226.3034	3251.2787
CC12OC1C1OC2C=C1	C[C@]12O[C@H]1[C@@H]1O[C@H]2C=C1	
InChI=1S/C7H8O2/c1-7-5-3-2-4(8-5)6(7)9-7/h2-6H,1H3	InChI=1S/C7H8O2/c1-7-5-3-2-4(8-5)6(7)9-7/h2-6H,1H3/t4-,5+,6+,7-/m1/s1
