18
gdb 53607	4.47946	0.70799	0.63236	2.7954	82.49	-0.2373	-0.028	0.2093	1752.2491	0.145529	-401.917201	-401.907337	-401.906393	-401.955143	33.814	
C	-0.1269827935	 1.4773894611	-0.0492071067	-0.497104
C	-0.0459449075	 0.0280392251	 0.0657269895	 0.09246
C	 0.0394433025	-1.1691712046	 0.1625670622	 0.035929
C	 0.1009056267	-2.6221196214	 0.2692092166	-0.346894
C	-1.2411954311	-3.2923868234	-0.0499477621	-0.084074
N	-1.6337894472	-3.327516325	-1.4840833339	-0.317899
C	-1.9660623304	-4.7756733889	-1.4457221274	-0.284142
C	-1.2915573651	-4.8320774397	-0.065762494	 0.387745
O	-0.9136942654	-5.6938780004	 0.6685073185	-0.288613
H	 0.8604170349	 1.9396611686	 0.0597408597	 0.149293
H	-0.5260927516	 1.7790285026	-1.0240642249	 0.146543
H	-0.7779310081	 1.9047481398	 0.7216486315	 0.14565
H	 0.8587339114	-3.0210082726	-0.4154170786	 0.132707
H	 0.3968504704	-2.9218567117	 1.2830470608	 0.138746
H	-2.0177928402	-2.89330905	 0.6202042485	 0.102088
H	-2.4094480963	-2.7214273252	-1.7203601304	 0.229321
H	-3.0355444606	-5.0242191327	-1.386152916	 0.123158
H	-1.5101560389	-5.3755220013	-2.2407764434	 0.135086
8.1049	47.2721	73.6964	124.6674	170.8	209.4505	269.1896	366.1228	385.8438	419.7577	520.0991	542.6844	648.368	734.4696	779.3871	805.1239	894.5759	982.8217	1001.4143	1025.7598	1052.8826	1054.0566	1086.7079	1099.2453	1122.7623	1167.6569	1207.0973	1229.9494	1268.6401	1333.3596	1363.9925	1370.3227	1415.7568	1460.0176	1477.0489	1478.8947	1479.585	1914.1765	2373.5266	2991.8472	3006.4276	3024.1171	3026.1014	3064.2114	3069.8665	3085.7378	3086.5816	3559.6931
CC#CCC1NCC1=O	CC#CC[C@H]1NCC1=O	
InChI=1S/C7H9NO/c1-2-3-4-6-7(9)5-8-6/h6,8H,4-5H2,1H3	InChI=1S/C7H9NO/c1-2-3-4-6-7(9)5-8-6/h6,8H,4-5H2,1H3/t6-/m1/s1
