21
gdb 68305	3.19237	1.24073	1.11177	2.4586	82.84	-0.2312	0.0715	0.3027	1198.9547	0.184071	-383.162146	-383.153828	-383.152884	-383.195303	32.384	
C	-0.0481637604	 1.5271515568	-0.0259672149	-0.522785
C	 0.0234561528	 0.0215983586	 0.0218543721	 0.290749
C	 0.516586549	-0.97336031	-1.0577711762	-0.207023
N	 0.1099468065	-1.9270114887	 0.0781802169	-0.166667
C	 0.8089265151	-0.8959634965	 0.9901261822	-0.221608
C	-1.1291824248	-1.0099830279	 0.2018163172	 0.008766
C	-1.9241142818	-1.1332354021	 1.4855592306	-0.061265
C	-2.915414679	-2.2296373662	 1.6242737181	-0.237705
N	-1.6720548369	-2.2564781004	 2.4094717667	-0.316601
H	 0.9457527789	 1.9627432068	-0.1751833929	 0.123096
H	-0.6898354746	 1.8649137391	-0.8471216408	 0.121577
H	-0.4537576115	 1.9334688351	 0.9069925033	 0.125073
H	-0.082141828	-1.0926093311	-1.9658610945	 0.097468
H	 1.5871339527	-1.0009671324	-1.2789199143	 0.099272
H	 1.898915025	-0.9166233404	 0.8993320452	 0.096793
H	 0.5001747024	-0.9437535188	 2.035123943	 0.12831
H	-1.784231614	-1.1138884072	-0.6717386001	 0.073382
H	-2.1313222682	-0.1932739335	 1.9950465526	 0.092804
H	-3.8238697221	-2.0785476037	 2.2009205315	 0.114015
H	-3.0151067009	-2.9217650309	 0.7910211891	 0.114382
H	-1.0133863902	-2.8888263566	 1.9560168251	 0.247967
56.789	140.7858	182.2951	215.2591	256.8678	301.4424	400.7696	447.5839	567.434	612.3555	648.2974	769.8465	803.1937	826.6369	851.0433	899.4031	902.7303	912.7865	927.1646	985.1366	996.3127	1011.8118	1048.3226	1070.5685	1097.8388	1128.4441	1141.098	1163.6554	1173.3587	1196.9667	1201.7745	1208.3566	1218.8522	1263.6012	1279.4889	1316.0207	1333.9717	1381.4267	1406.8171	1423.4828	1488.1964	1489.8175	1508.0399	1513.1047	1553.208	3025.2451	3027.6964	3045.7298	3059.3025	3096.3387	3097.096	3101.5966	3111.4118	3112.6781	3135.421	3187.5415	3475.5074
CC12CN(C1)C2C1CN1	C[C@@]12CN(C1)[C@H]2[C@H]1CN1	
InChI=1S/C7H12N2/c1-7-3-9(4-7)6(7)5-2-8-5/h5-6,8H,2-4H2,1H3	InChI=1S/C7H12N2/c1-7-3-9(4-7)6(7)5-2-8-5/h5-6,8H,2-4H2,1H3/t5-,6+/m1/s1
