18
gdb 54408	3.32465	1.38025	1.21916	2.6223	71.26	-0.2435	0.0247	0.2682	1062.7842	0.149112	-439.104636	-439.096678	-439.095734	-439.13742	30.941	
N	 0.0274574254	 1.0739884639	-0.7099713274	-0.530912
C	 0.0048254999	 0.0252302028	 0.1510830231	 0.272767
O	 0.9195064732	-0.2899905918	 0.8896930022	-0.377011
C	-1.2783553399	-0.7672158619	 0.1079348842	 0.35097
C	-1.4167458609	-2.0721458663	-0.7194778505	-0.25478
C	-2.8758050652	-1.5759644283	-0.6787621229	 0.06513
C	-3.2798509246	-1.7405732097	 0.8013575188	-0.22404
C	-1.9993289685	-1.1037553473	 1.4314413966	-0.249542
O	-2.3675533207	-0.1990032911	-0.6994139527	-0.346804
H	 0.8416255417	 1.6643309632	-0.7438371422	 0.261605
H	-0.7759130905	 1.2731472397	-1.2821612331	 0.276387
H	-0.9711128362	-1.9736255302	-1.7095128719	 0.113724
H	-1.1558637618	-3.0220203338	-0.2485050391	 0.108095
H	-3.605097337	-1.789532987	-1.4596011057	 0.082711
H	-4.186438877	-1.1776211984	 1.0313220235	 0.111022
H	-3.4350330258	-2.7852134855	 1.0834141363	 0.104018
H	-1.417196784	-1.7841534187	 2.0542882983	 0.123237
H	-2.2128469581	-0.1994413798	 2.0040359426	 0.113422
47.2951	176.0045	184.7244	273.8733	301.8749	365.7363	414.5479	493.425	556.8473	619.8306	638.0849	707.9045	760.1861	826.7699	830.006	850.3605	878.6803	933.6648	947.0065	969.6395	999.4008	1028.8466	1091.8486	1097.3782	1131.338	1156.3811	1170.8936	1217.8892	1228.9339	1250.7166	1286.1809	1308.0992	1319.8029	1410.5523	1482.0062	1482.7266	1507.4271	1601.9098	1795.9413	3068.8768	3077.6461	3086.4932	3117.3986	3128.7022	3140.3492	3151.8442	3597.3271	3739.1153
NC(=O)C12CC(CC1)O2	NC(=O)[C@@]12C[C@@H](CC1)O2	
InChI=1S/C6H9NO2/c7-5(8)6-2-1-4(3-6)9-6/h4H,1-3H2,(H2,7,8)	InChI=1S/C6H9NO2/c7-5(8)6-2-1-4(3-6)9-6/h4H,1-3H2,(H2,7,8)/t4-,6+/m1/s1
