19
gdb 92166	2.22574	2.05329	1.4895	0.7122	73.	-0.217	0.0644	0.2813	963.1934	0.15954	-422.988163	-422.980406	-422.979462	-423.019877	31.419	
C	-0.1773237428	 1.5593958219	-0.0036568116	-0.408632
C	 0.0081204346	 0.0384096388	-0.0474983762	-0.036713
C	 0.8673918713	-0.4633592927	-1.2492065174	-0.231812
C	 2.1703558223	-0.9134051179	-0.5951798887	 0.081166
O	 2.7681455051	 0.2588393454	 0.0684861751	-0.309694
C	 2.2342886398	-0.2039032193	 1.3076957317	 0.021202
C	 1.7951843322	-1.5329874593	 0.768544718	-0.206948
C	 0.7495690125	-0.5208030835	 1.1749044515	 0.363759
O	 0.0461161228	-0.7859900973	 2.3476981166	-0.479559
H	 0.7932374371	 2.0628210928	-0.0173010547	 0.137698
H	-0.7597135305	 1.9128140023	-0.8608473471	 0.111828
H	-0.7148488348	 1.8663432912	 0.9016666588	 0.097205
H	-0.977831583	-0.4393478971	-0.0653016079	 0.077446
H	 0.3908313485	-1.3111767769	-1.7543095563	 0.099482
H	 1.0461072514	 0.3171833069	-1.9946766825	 0.107017
H	 2.8963529348	-1.4179359605	-1.2348522769	 0.081931
H	 2.7222779792	 0.085146328	 2.2321315098	 0.102843
H	 1.8978275755	-2.5459993423	 1.1306573201	 0.104481
H	-0.1162634259	 0.0513286196	 2.7958477779	 0.2873
119.8755	231.5951	238.5942	276.31	333.0066	343.8933	386.9573	424.9508	535.1992	579.5511	669.4724	719.9578	786.4874	827.5891	838.6284	877.7858	900.8989	931.8321	943.3472	988.1713	992.9533	1028.1266	1043.0396	1080.4303	1098.4299	1116.1978	1157.9115	1205.2163	1214.114	1226.0488	1273.2636	1282.2829	1315.2174	1325.5261	1339.0028	1372.4107	1403.8714	1429.299	1476.0189	1496.6599	1506.0358	3026.0177	3033.1475	3046.5465	3086.0633	3093.7817	3101.1262	3119.0706	3174.2394	3216.5649	3797.2923
CC1CC2OC3C2C13O	C[C@H]1C[C@H]2O[C@@H]3[C@H]2[C@]13O	
InChI=1S/C7H10O2/c1-3-2-4-5-6(9-4)7(3,5)8/h3-6,8H,2H2,1H3	InChI=1S/C7H10O2/c1-3-2-4-5-6(9-4)7(3,5)8/h3-6,8H,2H2,1H3/t3-,4+,5-,6+,7+/m0/s1
