19
gdb 46332	2.9914	1.28611	1.18457	4.1156	74.33	-0.2662	0.0145	0.2807	1128.5718	0.161333	-423.071994	-423.06405	-423.063106	-423.105493	29.962	
O	-0.223244098	 0.1283272714	-0.2542112301	-0.338194
C	-0.0951609337	 1.2770135327	 0.0284060128	 0.430279
O	-1.0375812444	 2.1250092698	 0.551457717	-0.247521
C	-0.0889016575	 3.2419392179	 0.5610466089	-0.135399
C	 1.0147974375	 2.3331073458	-0.0240046125	 0.142622
C	 2.2592189034	 2.0528879638	 0.8622449739	-0.279402
C	 3.4272853071	 1.8641006811	-0.1214466205	-0.202757
C	 3.0832801451	 2.8286577658	-1.2647270052	-0.203335
C	 1.5677150615	 2.6273416877	-1.445085052	-0.285195
H	-0.4430718713	 4.0520209527	-0.0809046669	 0.121177
H	 0.0703928207	 3.60010649	 1.5810602905	 0.11986
H	 2.4439828535	 2.927639746	 1.4964668153	 0.10564
H	 2.1139075187	 1.1965160778	 1.5257621843	 0.11971
H	 4.3996943479	 2.0594061417	 0.3386466937	 0.100419
H	 3.4393336469	 0.8337093412	-0.4952746977	 0.116058
H	 3.2972638004	 3.8608481082	-0.9605024734	 0.099042
H	 3.6447674882	 2.6353470114	-2.1826266115	 0.103671
H	 1.3864556826	 1.751022708	-2.0771042933	 0.129181
H	 1.0664235613	 3.4767126372	-1.9167636533	 0.104145
31.5991	124.766	163.4616	259.7828	266.9626	349.8458	427.7115	536.5271	596.4508	687.1626	742.3973	774.9453	842.2687	849.103	874.1937	915.4943	920.8535	950.1309	987.9383	991.7044	1028.604	1073.9965	1116.1322	1139.5574	1153.184	1172.3335	1216.1469	1225.7221	1262.1723	1269.8327	1320.3116	1343.5799	1345.6557	1354.752	1360.611	1481.8687	1485.7385	1491.7013	1508.3402	1515.4074	1928.7302	3031.1943	3037.4414	3044.2398	3046.9808	3059.7001	3091.6588	3093.4504	3098.6352	3104.8913	3121.2087
O=C1OCC11CCCC1	O=C1OCC21CCCC2	
InChI=1S/C7H10O2/c8-6-7(5-9-6)3-1-2-4-7/h1-5H2	InChI=1S/C7H10O2/c8-6-7(5-9-6)3-1-2-4-7/h1-5H2
