20
gdb 119025	1.8288	1.31905	0.88679	3.6145	79.95	-0.2644	0.0348	0.2992	1377.3798	0.169494	-403.142147	-403.132237	-403.131293	-403.177859	35.275	
C	-2.9704931037	 0.2698032982	-2.0375892985	-0.227735
O	-2.4611783434	-0.9476317589	-1.5435580105	-0.241821
C	-1.8325314385	-0.8144085872	-0.2848360199	-0.136026
C	-1.2189862809	-2.1434824585	 0.0856754067	 0.354178
C	-0.1636714227	-2.6408445306	-0.8990064521	-0.415135
C	 1.0281984193	-1.7894456426	-0.9245157661	 0.266733
N	 1.9587002046	-1.1039962275	-0.9322692509	-0.317777
C	-1.0475197469	-2.461040252	 1.5490629688	-0.310308
C	-2.1006862805	-3.1773931697	 0.7394958335	-0.311614
H	-3.4239499813	 0.0632863857	-3.0098303246	 0.129716
H	-3.7385285072	 0.6909335114	-1.3698860601	 0.105336
H	-2.1770056284	 1.0220690946	-2.165976528	 0.113265
H	-1.0546529684	-0.0332271356	-0.3272290103	 0.110303
H	-2.5616414435	-0.5089150857	 0.4840562057	 0.085473
H	 0.1457290495	-3.6602055924	-0.6457969034	 0.143149
H	-0.5930594759	-2.6688993616	-1.9060138991	 0.168055
H	-0.162870454	-3.0135565566	 1.8467750605	 0.123039
H	-1.3685845772	-1.7204195486	 2.2734632453	 0.121111
H	-3.1410575722	-2.9185691823	 0.9014944657	 0.123747
H	-1.9373628389	-4.2213929303	 0.4946475273	 0.116311
42.9301	89.3717	103.5549	140.1712	173.9979	231.011	294.4666	320.1443	361.5895	390.3498	403.6731	457.004	576.5243	769.5898	779.5775	882.1194	910.5149	925.794	957.2901	975.4411	993.5808	1024.4678	1056.1559	1074.5168	1088.2588	1153.7402	1184.3549	1184.9458	1213.6222	1228.4319	1251.9538	1314.3617	1336.4779	1371.7444	1430.2979	1457.8599	1472.3723	1483.0957	1486.766	1501.274	1509.2828	1524.4025	2359.1663	2955.4143	2975.9557	2987.7276	3021.4506	3051.716	3094.632	3117.1488	3133.7948	3137.7015	3212.0436	3225.5732
COCC1(CC#N)CC1	COCC1(CC#N)CC1	
InChI=1S/C7H11NO/c1-9-6-7(2-3-7)4-5-8/h2-4,6H2,1H3	InChI=1S/C7H11NO/c1-9-6-7(2-3-7)4-5-8/h2-4,6H2,1H3
