14
gdb 8590	5.24221	1.82218	1.71632	3.5472	63.46	-0.2371	-0.0194	0.2177	763.8157	0.108156	-378.575126	-378.569242	-378.568298	-378.6049	23.758	
O	-0.1426771003	-0.069329962	-0.234691974	-0.308795
C	-0.0328889868	 1.0984716299	-0.0318334395	 0.337755
N	-1.0168917319	 2.1282995325	 0.1342381446	-0.418058
C	 0.0140586417	 3.0091935802	 0.7036142182	 0.263006
C	 1.0039948629	 4.2266804313	 0.6529157072	-0.23253
N	 1.88806891	 3.04612521	 1.1643103782	-0.160679
C	 0.6934712887	 2.6909246526	 2.0522748777	-0.19561
C	 1.0960854209	 2.2255359005	 0.035752454	-0.117874
H	-1.9423214325	 1.9400369565	 0.507224407	 0.246458
H	 1.2994565051	 4.6133479519	-0.3230180807	 0.12578
H	 0.899846004	 5.0160686422	 1.4013431437	 0.117735
H	 0.5508860872	 3.3815201404	 2.8861622788	 0.10545
H	 0.6976569219	 1.6482752372	 2.381909767	 0.122866
H	 1.4352097691	 2.5055957169	-0.9623994023	 0.114495
156.958	274.9017	403.8481	465.4667	553.1742	579.2552	586.084	635.8452	733.4226	762.4058	834.816	851.854	872.191	903.0175	979.3981	995.9232	1029.333	1060.1745	1068.2642	1124.2192	1157.6274	1178.3551	1195.1186	1210.1678	1262.0498	1294.8108	1322.8828	1502.0228	1539.9627	1899.6961	3057.4991	3068.5547	3103.9865	3129.6227	3151.34	3530.9184
O=C1NC23CN(C2)C13	O=C1N[C@@]23CN(C2)[C@@H]13	
InChI=1S/C5H6N2O/c8-4-3-5(6-4)1-7(3)2-5/h3H,1-2H2,(H,6,8)	InChI=1S/C5H6N2O/c8-4-3-5(6-4)1-7(3)2-5/h3H,1-2H2,(H,6,8)/t3-/m0/s1
