18
gdb 62573	2.46006	1.5367	1.18768	3.3675	73.46	-0.2385	0.0123	0.2508	1089.793	0.145524	-439.084889	-439.075868	-439.074924	-439.117863	34.597	
C	 0.0562668762	 1.547794216	-0.0025521323	-0.470607
C	 0.0699481798	 0.0383926271	 0.0701350601	 0.357426
O	-1.1024731727	-0.5560340274	-0.4129101918	-0.460087
C	 1.3329505389	-0.823080423	-0.2146704608	-0.364833
C	 2.5186297875	-0.1353003587	 0.4242651969	 0.419621
O	 3.5718284168	 0.3114400249	 0.0637581739	-0.355447
N	 1.8999082216	-0.1563827667	 1.6908203638	-0.393364
C	 0.6760668933	-0.7819544176	 1.1722515092	 0.320088
C	-0.0237186302	-1.8499906348	 1.9547035456	-0.486145
H	 0.9669924213	 1.9922240025	 0.4020581854	 0.138321
H	-0.0291859568	 1.8746006844	-1.0458328148	 0.121117
H	-0.8052141871	 1.9408618311	 0.5466974159	 0.13066
H	-1.2272658313	-0.2762884558	-1.3266976302	 0.289799
H	 1.3150578826	-1.5999613067	-0.9659096841	 0.11414
H	 1.9203186793	 0.6256884284	 2.336540339	 0.237471
H	-0.4752142898	-1.43332888	 2.8627155586	 0.12238
H	-0.8207129033	-2.2943830942	 1.3566691108	 0.148438
H	 0.6823213038	-2.6292806197	 2.256093445	 0.131019
136.1377	182.6784	193.9227	207.2012	233.3379	280.737	301.6253	322.2979	401.8011	472.3505	475.5786	530.3568	590.4218	640.3131	677.1859	730.6534	792.2277	865.7522	917.9539	937.5119	975.5108	1027.1083	1063.8731	1098.0739	1128.9707	1147.3861	1151.7467	1230.3643	1271.7099	1294.599	1338.6186	1410.1597	1416.2214	1458.9769	1486.4273	1487.1372	1492.9595	1508.2565	1889.8366	3033.0573	3036.5871	3094.2062	3098.423	3139.2002	3145.9218	3224.1586	3539.8246	3798.1493
CC1(O)C2C(=O)NC12C	C[C@@]1(O)[C@H]2C(=O)N[C@@]12C	
InChI=1S/C6H9NO2/c1-5-3(4(8)7-5)6(5,2)9/h3,9H,1-2H3,(H,7,8)	InChI=1S/C6H9NO2/c1-5-3(4(8)7-5)6(5,2)9/h3,9H,1-2H3,(H,7,8)/t3-,5+,6+/m0/s1
