16
gdb 110755	2.16096	1.50288	1.38166	2.6538	65.55	-0.2412	-0.0043	0.2369	1041.9852	0.122772	-474.988359	-474.979712	-474.978768	-475.02187	31.497	
C	-0.3938444707	 0.8665538852	 0.0129407497	-0.246164
O	 0.6961109962	-0.0395275814	 0.1114889245	-0.239125
C	 1.0051584898	-0.6550385369	-1.0871385042	 0.079162
C	 1.6063700732	-2.0199192158	-1.083619124	-0.156297
N	 0.999540865	-2.864828291	-0.0505840234	-0.336981
C	-0.31120376	-2.6705740368	-0.5482981028	 0.341537
O	-1.3744220807	-3.0752074337	-0.176914152	-0.338758
C	 0.1928802607	-1.7975496376	-1.6916208775	 0.172104
O	-0.277725225	-1.6969403615	-2.973156325	-0.440739
H	-0.1785500211	 1.6743636987	-0.7008261609	 0.114338
H	-1.3117480182	 0.3523417485	-0.2994487106	 0.135001
H	-0.5389269671	 1.2959029161	 1.0059730324	 0.134821
H	 1.3755733084	 0.0126555803	-1.871027115	 0.106177
H	 2.5340868219	-2.3048264922	-1.5617394727	 0.120981
H	 1.1833738039	-2.6864160598	 0.9311984614	 0.251993
H	-0.4184412762	-2.5845825521	-3.32297972	 0.30195
71.4498	134.1508	154.39	185.2454	244.7636	272.7186	338.4741	367.256	482.6271	501.7452	568.0858	657.208	704.4074	761.163	798.1588	843.5847	916.1195	938.5125	1002.9304	1027.8289	1066.1926	1107.1654	1159.5778	1181.7436	1214.3386	1247.9519	1293.3249	1322.5702	1325.8721	1356.7232	1455.291	1487.5091	1492.7525	1508.0681	1897.782	2998.3596	3059.9519	3070.9202	3131.8698	3208.1363	3542.9238	3790.7884
COC1C2NC(=O)C12O	CO[C@H]1[C@H]2NC(=O)[C@@]12O	
InChI=1S/C5H7NO3/c1-9-3-2-5(3,8)4(7)6-2/h2-3,8H,1H3,(H,6,7)	InChI=1S/C5H7NO3/c1-9-3-2-5(3,8)4(7)6-2/h2-3,8H,1H3,(H,6,7)/t2-,3+,5+/m1/s1
