23
gdb 61633	3.16066	0.77422	0.67756	2.8832	87.27	-0.243	-0.0175	0.2255	1723.3741	0.203249	-388.294309	-388.283593	-388.282648	-388.331297	38.373	
C	 0.1338753322	 1.5992881827	-0.0105173364	-0.405462
C	-0.0058553309	 0.0687330116	 0.039409766	-0.059069
C	 0.5933322287	-0.6353926521	-1.2025208611	-0.222388
C	-0.1026077294	-0.2669410668	-2.4992358782	 0.006011
C	 0.422762854	 0.8203192282	-3.4116002964	-0.288327
C	 0.4692568435	-0.6210689154	-3.8556699762	-0.012147
C	 1.785052155	-1.349151658	-4.0286598001	-0.404721
C	 0.6943409787	-0.4590864122	 1.2754081094	 0.156094
O	 0.1836550166	-1.122581585	 2.1402000901	-0.250169
H	 1.1884543723	 1.8979798184	-0.0377206431	 0.116688
H	-0.3486801107	 2.0031459595	-0.9030108712	 0.137479
H	-0.3248036336	 2.0651679492	 0.8670864185	 0.125473
H	-1.0622201364	-0.2074382505	 0.1323284329	 0.09285
H	 1.6629893098	-0.39993477	-1.2646111283	 0.096543
H	 0.5239958543	-1.7204849459	-1.0490790505	 0.111057
H	-1.1865497143	-0.3368442563	-2.4341121314	 0.082949
H	-0.2795173439	 1.4986164054	-3.8844478315	 0.1093
H	 1.3663165859	 1.2839243465	-3.1379454575	 0.107559
H	-0.277755893	-0.8992955741	-4.5951838525	 0.084313
H	 2.5367689001	-1.0184528434	-3.306214472	 0.114874
H	 1.6630846316	-2.4315952514	-3.9083534776	 0.118551
H	 2.1954704451	-1.1717378422	-5.0287678117	 0.118342
H	 1.7765527545	-0.1832221984	 1.330567249	 0.0642
40.8463	53.6559	80.9277	124.2301	191.9684	211.8126	228.1431	271.0618	314.5415	351.1085	376.2717	430.6134	477.9468	580.2456	759.3421	826.2801	839.6453	874.9263	883.2852	913.0038	929.4952	952.0656	984.2137	1028.1438	1064.3988	1096.1982	1110.882	1118.6151	1151.9003	1156.5777	1184.3002	1200.1186	1243.9126	1258.3763	1286.2978	1350.9722	1356.1544	1394.0929	1405.898	1419.1716	1427.3175	1433.1538	1481.2882	1492.4826	1495.0235	1498.3748	1501.1619	1507.6161	1835.5862	2827.9572	3014.4746	3030.7204	3034.2962	3046.21	3061.332	3087.7642	3100.1553	3104.4535	3121.0868	3122.5597	3128.8681	3137.0625	3205.5432
CC(CC1CC1C)C=O	C[C@@H](C[C@H]1C[C@H]1C)C=O	
InChI=1S/C8H14O/c1-6(5-9)3-8-4-7(8)2/h5-8H,3-4H2,1-2H3	InChI=1S/C8H14O/c1-6(5-9)3-8-4-7(8)2/h5-8H,3-4H2,1-2H3/t6-,7+,8-/m0/s1
