19
gdb 95487	2.13644	1.65777	0.97517	5.9769	80.57	-0.2067	-0.003	0.2037	1204.5693	0.161664	-419.253603	-419.244864	-419.24392	-419.287014	33.084	
C	-0.2020196974	 1.4719640798	 0.0335795352	-0.415307
C	 0.0456934939	-0.038203886	 0.0007508	 0.051554
C	 0.7195467656	-0.4361340331	-1.3270395664	-0.153069
N	 0.6199916006	-1.8545024866	-1.6002525834	-0.305247
C	 0.9466541131	-2.8383768	-0.7153213465	 0.001181
C	 1.2262524801	-2.7736601838	 0.6058502831	-0.192892
C	 1.3015747792	-1.6432564403	 1.5396785084	 0.35941
O	 1.7484484948	-1.7893865454	 2.6709730752	-0.39874
N	 0.8720840766	-0.3904293451	 1.1404937387	-0.344236
H	 0.7385725088	 2.0224327967	-0.0769449543	 0.13053
H	-0.8763695707	 1.7730428336	-0.7724736063	 0.123502
H	-0.6603894886	 1.767876574	 0.982234251	 0.128297
H	-0.9242231344	-0.5565788773	 0.0421806932	 0.094583
H	 0.2248057089	 0.0853421032	-2.1521966689	 0.105141
H	 1.7662510291	-0.0987939229	-1.2909587924	 0.116633
H	 0.5799809132	-2.1218254559	-2.5681292185	 0.249183
H	 0.9560326518	-3.8222058247	-1.1781793559	 0.112589
H	 1.4702567106	-3.7099380554	 1.0917015634	 0.101552
H	 0.9169390147	 0.2745298493	 1.8988456444	 0.235336
83.4016	101.5033	188.2507	233.3748	284.8275	300.2227	360.8538	389.2649	434.705	462.5015	541.4291	545.6213	603.1085	731.6042	786.944	823.7977	843.8695	910.4208	942.6475	979.4542	992.4143	1032.0446	1090.5252	1125.2884	1172.4094	1211.8604	1277.2232	1317.2011	1332.8711	1342.4524	1386.0468	1392.2821	1411.2935	1445.1317	1455.4168	1485.8779	1495.24	1504.7598	1546.6691	1693.7545	1742.7893	2981.8513	2996.7019	3037.3658	3076.8494	3107.3271	3119.1759	3159.4016	3212.3505	3608.2037	3661.7698
CC1CNC=CC(=O)N1	C[C@H]1CNC=CC(=O)N1	
InChI=1S/C6H10N2O/c1-5-4-7-3-2-6(9)8-5/h2-3,5,7H,4H2,1H3,(H,8,9)	InChI=1S/C6H10N2O/c1-5-4-7-3-2-6(9)8-5/h2-3,5,7H,4H2,1H3,(H,8,9)/t5-/m0/s1
