20
gdb 55081	3.74715	1.10289	1.03168	1.5078	79.62	-0.2371	-0.0191	0.218	1255.6509	0.169087	-403.130347	-403.121017	-403.120072	-403.164793	34.484	
C	-1.426428405	 0.2772892567	 0.5662205829	-0.480918
C	-0.0009424596	 0.0417068495	 0.1102260259	 0.380084
O	 0.9611467036	 0.4180472514	 0.7429093495	-0.304739
C	 0.144603122	-0.7455504327	-1.1824461712	-0.03503
C	 1.5533640527	-1.1291095763	-1.6795855282	-0.335122
C	 1.1246053017	-2.590610181	-1.5002454341	 0.36514
C	 1.3728330325	-3.6827640781	-2.4965503953	-0.49148
C	 0.6962718788	-2.8217647336	-0.1093099039	-0.29535
N	-0.2826942056	-2.2018985349	-1.0438384934	-0.195552
H	-1.9154183928	 0.9875905326	-0.1113676366	 0.140939
H	-1.9974233476	-0.6554244796	 0.5141747587	 0.15893
H	-1.4373988775	 0.6798524688	 1.579687002	 0.139222
H	-0.4824423694	-0.292736509	-1.9566817361	 0.092128
H	 1.7247503106	-0.8523206765	-2.7215085328	 0.106584
H	 2.3903001628	-0.7855573408	-1.0683387288	 0.125722
H	 2.4245774944	-3.9921108826	-2.4744458657	 0.125431
H	 0.7565679603	-4.5590747974	-2.2757810691	 0.129546
H	 1.1420260519	-3.3508699187	-3.5145692086	 0.121868
H	 0.4046144922	-3.831150269	 0.1639697392	 0.119136
H	 1.1132261142	-2.233060799	 0.7040061355	 0.133463
48.5883	116.5046	132.4503	150.3885	194.3426	260.7089	309.6269	384.8139	401.3774	471.0068	557.2213	583.1288	644.374	709.3259	761.8457	788.0224	872.3572	928.5788	941.5738	955.6905	1004.2623	1016.9826	1041.9792	1062.8146	1093.0463	1121.6756	1139.0421	1160.2609	1196.141	1244.6047	1253.121	1303.5196	1366.0022	1380.4074	1388.7854	1424.3517	1464.3113	1472.4914	1482.0515	1487.8256	1493.5852	1512.6363	1802.2462	3027.7236	3036.1186	3057.0032	3075.6164	3089.2753	3100.542	3111.2629	3113.6338	3129.5872	3153.7718	3201.9087
CC(=O)C1CC2(C)CN12	CC(=O)[C@H]1C[C@@]2(C)CN12	
InChI=1S/C7H11NO/c1-5(9)6-3-7(2)4-8(6)7/h6H,3-4H2,1-2H3	InChI=1S/C7H11NO/c1-5(9)6-3-7(2)4-8(6)7/h6H,3-4H2,1-2H3/t6-,7+,8?/m1/s1
