15
gdb 130290	3.4189	1.59042	1.0943	3.8442	74.62	-0.2171	-0.0301	0.187	1036.5231	0.115177	-416.806556	-416.799654	-416.79871	-416.837621	27.478	
N	-0.0172381083	 1.4050034655	 0.1494311471	-0.592734
C	 0.0461393386	 0.0254096096	 0.0357938563	 0.237902
N	-1.0701352078	-0.6922584864	 0.0161952318	-0.237196
O	-0.6649417957	-2.054485707	-0.0100190448	-0.246386
C	 0.6639224044	-2.0605791786	-0.025401363	 0.415327
C	 1.1937444923	-0.8068410389	-0.0004623948	 0.11879
C	 2.6881618462	-0.921753327	 0.0074042561	-0.434536
C	 2.8756023198	-2.4346711375	-0.0259014133	-0.067524
C	 1.6924013432	-3.0857072051	-0.0422308611	-0.21157
H	 0.6842352636	 1.8941052598	-0.3881499969	 0.252223
H	-0.944393217	 1.7663524981	-0.0340840379	 0.259612
H	 3.1774060272	-0.4489508194	-0.8548818826	 0.131911
H	 3.1559439315	-0.4886350308	 0.9014897115	 0.140531
H	 3.8532987235	-2.8989043229	-0.0360235407	 0.111622
H	 1.5317003086	-4.1540527595	-0.0640130175	 0.122027
167.7166	225.4707	256.9396	318.5805	360.312	449.7491	521.4258	617.4797	630.5653	652.5593	682.0288	719.8967	771.7178	796.9549	860.5518	914.4185	926.3488	933.2091	944.5138	1071.4872	1127.9328	1135.2114	1136.5894	1215.5759	1294.3914	1314.0127	1416.699	1435.8104	1499.9806	1551.6544	1569.1037	1639.3594	1654.1549	3025.4574	3052.5215	3217.7478	3245.6395	3551.4485	3651.4979
NC1=NOC2=C1CC=C2	Nc1noc2c1CC=C2	
InChI=1S/C6H6N2O/c7-6-4-2-1-3-5(4)9-8-6/h1,3H,2H2,(H2,7,8)	InChI=1S/C6H6N2O/c7-6-4-2-1-3-5(4)9-8-6/h1,3H,2H2,(H2,7,8)
