13
gdb 25345	3.22727	1.30288	0.92817	4.3224	69.29	-0.2596	-0.0954	0.1642	1141.7175	0.091038	-452.822572	-452.815455	-452.814511	-452.85457	26.026	
O	-0.8523654893	 1.1689412998	 0.2430638759	-0.241971
C	 0.2743049039	 0.8457398208	-0.0363665327	 0.113593
C	 1.4352669276	 1.7934199161	-0.0579914492	 0.215306
C	 1.2650446217	 3.1097483143	 0.2478088479	-0.278592
C	 2.3938689998	 4.0193860415	 0.2243790016	 0.443159
O	 2.4109949142	 5.2074712491	 0.4680400374	-0.369985
N	 3.585929667	 3.3409021272	-0.1413954845	-0.336551
C	 3.6543822299	 2.019007348	-0.4291961158	 0.107641
N	 2.6378576782	 1.2167650331	-0.4044775401	-0.328545
H	 0.5526553263	-0.1936585544	-0.3050161909	 0.101412
H	 0.2889251817	 3.4958721738	 0.5119599385	 0.151629
H	 4.4169123401	 3.9177393023	-0.178049758	 0.27507
H	 4.6380111688	 1.6385640485	-0.6936597501	 0.147834
113.6104	168.8351	193.7992	206.9959	425.9269	427.4472	488.9374	549.1107	603.8081	658.6453	742.1518	775.7492	789.3532	923.5203	935.157	966.7647	993.9563	1052.4408	1141.4972	1168.8359	1206.6226	1329.0832	1398.8378	1440.8602	1465.6277	1591.2568	1647.2506	1808.2677	1819.3277	2937.918	3169.2291	3229.8306	3590.2199
O=CC1=CC(=O)NC=N1	O=Cc1cc(=O)[nH]cn1	
InChI=1S/C5H4N2O2/c8-2-4-1-5(9)7-3-6-4/h1-3H,(H,6,7,9)	InChI=1S/C5H4N2O2/c8-2-4-1-5(9)7-3-6-4/h1-3H,(H,6,7,9)
