20
gdb 69257	2.58147	1.51584	1.15298	4.0732	79.59	-0.2322	0.0319	0.2641	1128.2253	0.173221	-403.194243	-403.185995	-403.18505	-403.226694	32.627	
C	 0.0114513708	 1.5036765037	-0.0122193428	-0.465279
C	-0.034889946	-0.0101875899	 0.0123379959	 0.327013
C	-0.821345259	-0.6858227244	 1.0985538484	-0.336705
C	 0.7023760545	-0.7296061029	 1.128334457	-0.155661
C	 1.4285424739	-2.0091967221	 0.854060456	 0.401691
O	 2.2648727607	-2.4595579542	 1.6177536476	-0.389495
N	 1.1144670074	-2.6354858782	-0.324351089	-0.317091
C	 0.1149826408	-2.1997488965	-1.2849561202	-0.188354
C	 0.0496436248	-0.6702944648	-1.3544696338	-0.257094
H	 0.9252267326	 1.8622668962	-0.4997912872	 0.12109
H	-0.8435013529	 1.91450668	-0.5621531309	 0.117511
H	-0.0123870965	 1.9183311413	 1.0000408494	 0.119122
H	-1.3004528912	-0.060831983	 1.844243467	 0.117204
H	-1.3555244872	-1.6056557374	 0.8893404802	 0.120891
H	 1.1942846233	-0.1401174103	 1.8929770252	 0.10442
H	 1.572804045	-3.5240408597	-0.4567050668	 0.245185
H	 0.3835110033	-2.5982588362	-2.2681831063	 0.113831
H	-0.8777477121	-2.608462001	-1.0449659606	 0.108819
H	-0.8098133006	-0.3813959672	-1.9716636584	 0.103404
H	 0.9488078986	-0.2992775335	-1.8626926805	 0.109498
107.1782	149.7047	227.3789	266.6232	288.7533	362.0518	365.9553	429.3865	482.5725	495.5485	538.9357	655.4272	677.0365	752.7609	777.0621	861.5341	898.6932	928.4844	949.437	964.5965	1019.007	1048.6488	1054.7452	1065.3762	1113.9607	1124.9587	1140.4841	1227.6034	1252.8	1268.3111	1300.9512	1356.044	1361.5553	1401.263	1412.4917	1422.9401	1473.0899	1482.624	1490.2588	1494.0246	1507.7722	1531.5908	1782.601	2987.5168	3020.6046	3025.1843	3061.1685	3071.1358	3084.3019	3103.7905	3137.909	3185.152	3220.65	3625.7586
CC12CC1C(=O)NCC2	C[C@]12C[C@H]1C(=O)NCC2	
InChI=1S/C7H11NO/c1-7-2-3-8-6(9)5(7)4-7/h5H,2-4H2,1H3,(H,8,9)	InChI=1S/C7H11NO/c1-7-2-3-8-6(9)5(7)4-7/h5H,2-4H2,1H3,(H,8,9)/t5-,7-/m0/s1
