19
gdb 112240	2.20051	1.38626	0.90889	5.4721	80.58	-0.2467	-0.0184	0.2283	1299.5162	0.158804	-419.235771	-419.226469	-419.225525	-419.270439	33.457	
C	 0.0728488442	 1.5659934149	 0.1552971033	-0.39557
C	-0.0013078049	 0.0585400707	-0.1046682284	-0.181845
C	-1.3946766992	-0.5506663986	 0.0288728251	 0.042588
C	-1.4671106066	-2.1009576514	-0.0659799996	-0.410224
C	-2.0147682011	-2.0771751119	 1.3717542265	 0.436206
O	-2.3960853479	-2.8859799727	 2.1625581095	-0.321242
N	-1.9307994905	-0.6718317594	 1.4077411643	-0.100533
C	-2.4191723911	 0.2963033283	 2.2703324018	 0.063199
N	-2.8467726173	 0.0265634261	 3.4345192597	-0.412977
H	 1.0804328563	 1.9432808246	-0.0421614352	 0.124742
H	-0.6199763905	 2.1173427408	-0.4904522135	 0.1176
H	-0.1675174854	 1.8098513661	 1.1945403828	 0.127554
H	 0.3440208541	-0.1521603387	-1.1249858459	 0.109882
H	 0.6795091156	-0.4725013367	 0.571923577	 0.109938
H	-2.1022356474	-0.0407081072	-0.6362510981	 0.089794
H	-2.1746470387	-2.4975614377	-0.7962602523	 0.138349
H	-0.5061749611	-2.6079729142	-0.1764837385	 0.135232
H	-2.3945050252	 1.2920806128	 1.8106559403	 0.098063
H	-3.1822593134	 0.8760265841	 3.8859933311	 0.229243
68.8626	87.7705	118.4621	184.3469	191.6861	227.5709	257.2387	356.0801	419.8304	480.8586	534.6703	562.3668	704.6227	767.0222	807.2291	820.5921	860.0719	956.2033	981.167	1025.1147	1059.0545	1062.6021	1074.3964	1106.3571	1117.8339	1188.8526	1203.4316	1248.7277	1260.1849	1299.8559	1345.1266	1392.1843	1402.6563	1413.197	1423.9543	1461.2262	1477.7701	1499.8604	1508.2061	1712.9663	1902.0688	3023.8028	3030.278	3034.3395	3043.7134	3064.6238	3083.5674	3103.6772	3112.0333	3139.8673	3498.8447
CCC1CC(=O)N1C=N	CC[C@H]1CC(=O)N1[CH][NH]	
InChI=1S/C6H10N2O/c1-2-5-3-6(9)8(5)4-7/h4-5,7H,2-3H2,1H3	InChI=1S/C6H10N2O/c1-2-5-3-6(9)8(5)4-7/h4-5,7H,2-3H2,1H3/t5-/m0/s1
