13
gdb 16792	3.61717	2.15425	1.48041	2.1987	58.91	-0.2615	-0.0308	0.2307	794.5805	0.097769	-398.668371	-398.662261	-398.661317	-398.69866	23.519	
O	 0.0394052945	-0.0272059103	-0.0832543834	-0.347769
C	 0.0384490259	 1.1737600135	-0.000454963	 0.428575
N	-1.0976177632	 1.9744990626	 0.1505440342	-0.369945
C	-0.8666571841	 3.3474633175	 0.0230411045	 0.428575
O	-1.7188905135	 4.1955150713	-0.0376422415	-0.347769
C	 0.6281259101	 3.5153430435	-0.0311336614	-0.160839
C	 1.366293156	 2.9893358538	 1.1788425127	-0.284195
C	 1.2102583155	 2.1172971595	-0.0462371355	-0.160838
H	-2.0265339816	 1.586865538	 0.2285342011	 0.27372
H	 1.0276648636	 4.3453896115	-0.5970790077	 0.128623
H	 2.3540247634	 3.3986928919	 1.3570943157	 0.139956
H	 0.8051013945	 2.7459896319	 2.0741679203	 0.143282
H	 2.076446389	 1.8266440855	-0.6242871562	 0.128623
140.7782	209.3303	315.0054	391.1512	504.7374	598.6454	613.8833	645.9823	752.8543	768.1069	816.2247	824.7715	863.1288	928.0328	964.483	985.0995	1063.3383	1079.5024	1098.2678	1173.7834	1186.6625	1319.8209	1331.6844	1340.981	1351.1262	1490.0057	1838.3668	1875.9401	3141.3935	3216.5188	3220.8235	3234.0584	3631.2569
O=C1NC(=O)C2CC12	O=C1NC(=O)[C@H]2C[C@@H]12	
InChI=1S/C5H5NO2/c7-4-2-1-3(2)5(8)6-4/h2-3H,1H2,(H,6,7,8)	InChI=1S/C5H5NO2/c7-4-2-1-3(2)5(8)6-4/h2-3H,1H2,(H,6,7,8)/t2-,3+
