17
gdb 13540	2.99536	1.50547	1.14554	2.4029	68.67	-0.2809	0.0278	0.3087	1068.21	0.14049	-363.864689	-363.855883	-363.854939	-363.898553	31.059	
C	-0.0411250356	 1.4361115952	-0.2533875951	-0.396797
C	 0.0820406151	-0.0172868724	 0.2476149173	-0.170407
C	 0.7666263337	-0.0796192537	 1.5435309965	 0.263885
N	 1.2917663419	-0.1280032141	 2.5719187615	-0.318466
C	-1.2917136759	-0.6694000718	 0.3601283291	 0.06794
O	-1.912720388	-1.0167348822	-0.8740379238	-0.264454
C	-1.579028946	-2.0760437749	 0.0399389515	 0.080214
C	-0.5656949574	-3.0975915655	-0.4062667988	-0.42649
H	 0.9437758887	 1.8944359567	-0.3673626589	 0.137904
H	-0.5481923782	 1.4353307154	-1.2210541806	 0.14698
H	-0.6231590873	 2.0408127635	 0.4475305437	 0.138161
H	 0.6810196094	-0.5843280363	-0.471381375	 0.130416
H	-1.9499430886	-0.1662423162	 1.0715781593	 0.106673
H	-2.4541335814	-2.502541286	 0.533851064	 0.099921
H	 0.2890635874	-2.6423214127	-0.9103195047	 0.128886
H	-0.2015233476	-3.6686732385	 0.4540012424	 0.138328
H	-1.0294777703	-3.8013251064	-1.1048050184	 0.137305
43.6786	121.2266	165.6762	186.995	214.4647	231.3633	291.8094	384.7268	434.3117	493.0269	535.1768	596.8765	778.0093	819.7226	858.8495	939.5802	991.5668	1004.6937	1052.3319	1093.8681	1110.3171	1144.161	1176.6764	1193.7749	1276.928	1303.7039	1319.8161	1396.7824	1407.7857	1420.4337	1466.9832	1488.8654	1495.8337	1497.6471	1511.8138	2357.619	3043.883	3052.1848	3069.5906	3086.6064	3097.576	3107.7841	3130.1658	3134.068	3139.1141
CC(C#N)C1OC1C	C[C@@H](C#N)[C@H]1O[C@H]1C	
InChI=1S/C6H9NO/c1-4(3-7)6-5(2)8-6/h4-6H,1-2H3	InChI=1S/C6H9NO/c1-4(3-7)6-5(2)8-6/h4-6H,1-2H3/t4-,5-,6+/m0/s1
