18
gdb 11799	3.41802	1.7366	1.32351	2.6707	72.32	-0.2372	-0.0183	0.219	962.882	0.152303	-347.802342	-347.794293	-347.793349	-347.834963	30.292	
C	-0.4704118264	 1.3323578064	 0.0128134746	-0.407434
C	 0.0414433661	-0.102473124	-0.0235364532	-0.172243
C	 1.3391756597	-0.3669446658	-0.8150723855	 0.401845
O	 1.7291732344	-0.0160158265	-1.8907532315	-0.297298
C	 1.9705037275	-1.1581211958	 0.3462918023	-0.431939
C	 0.7670329565	-0.7156940889	 1.1996749971	 0.352987
C	 0.8482232642	-0.1118216858	 2.5713040141	-0.31559
C	 0.1555648876	-1.4404677972	 2.3580363829	-0.325565
H	 0.2999432829	 2.0179901907	 0.3787221428	 0.123196
H	-0.7586668755	 1.6547588816	-0.9919189327	 0.13591
H	-1.3461945607	 1.4267035804	 0.6633809632	 0.117715
H	-0.7463730985	-0.7748785783	-0.3910876197	 0.100941
H	 2.0186954709	-2.2340407777	 0.142866566	 0.129179
H	 2.963667918	-0.8169755314	 0.6539859446	 0.129084
H	 1.8106761434	-0.1105076951	 3.0731204764	 0.114757
H	 0.2314175982	 0.7536383746	 2.7912036046	 0.116406
H	-0.9273553061	-1.4665468239	 2.4327455363	 0.113685
H	 0.6471023678	-2.338551443	 2.7187176378	 0.114366
46.9159	183.9368	196.7724	209.3281	255.8893	316.8509	410.2925	483.1942	506.3979	556.982	726.0333	743.2661	781.2655	829.2538	873.5917	918.1147	927.2968	973.4085	1029.0428	1047.4899	1059.8851	1079.3564	1087.5771	1135.6043	1147.5403	1187.0458	1192.2615	1231.6257	1251.498	1327.6209	1374.3471	1405.9132	1440.9794	1464.2791	1491.6495	1496.9834	1505.5495	1891.635	3013.6497	3036.3392	3042.1634	3095.5069	3103.9656	3115.7688	3120.9214	3125.911	3198.6933	3213.8721
CC1C(=O)CC11CC1	C[C@H]1C(=O)CC21CC2	
InChI=1S/C7H10O/c1-5-6(8)4-7(5)2-3-7/h5H,2-4H2,1H3	InChI=1S/C7H10O/c1-5-6(8)4-7(5)2-3-7/h5H,2-4H2,1H3/t5-/m0/s1
