15
gdb 5628	3.27012	1.94777	1.23215	1.7571	63.68	-0.192	0.0364	0.2285	940.0161	0.119374	-399.801386	-399.793633	-399.792689	-399.833397	28.489	
C	 0.0430704378	 1.3417033887	 0.0049705054	-0.250851
O	 0.0145221195	-0.0732423348	-0.0363382918	-0.271078
C	-1.2250543126	-0.6214118728	-0.0181585826	 0.272655
C	-2.4636807341	-0.0549027463	 0.0327093322	-0.14395
O	-3.4118986239	-1.0327568459	 0.0470941606	-0.160171
C	-2.7579615334	-2.2333190573	 0.0029025237	-0.068096
C	-1.4095061946	-2.0472227075	-0.0383114743	 0.109382
N	-0.3629253523	-2.9699306007	-0.1554936828	-0.616631
H	 1.0925981306	 1.6389652038	-0.0110931241	 0.134778
H	-0.472604995	 1.7705364063	-0.8647238954	 0.124884
H	-0.431755292	 1.7188494515	 0.9209526019	 0.122437
H	-2.8198058733	 0.9592762344	 0.0658753383	 0.128429
H	-3.3802238016	-3.1120087619	 0.0050684108	 0.122096
H	-0.5502478944	-3.850715059	 0.3047295445	 0.244361
H	 0.5094025494	-2.5840676384	 0.1829038638	 0.251754
94.3066	180.3472	206.0503	210.5139	277.636	309.409	393.4461	542.775	587.2186	609.1813	637.5362	696.9736	704.8353	746.7368	774.9478	891.6165	1064.7628	1070.5641	1113.1186	1182.8281	1196.9178	1225.4673	1256.329	1271.9085	1341.2825	1457.8202	1476.4619	1483.4326	1508.7939	1617.0301	1644.4555	1688.9694	2999.5621	3055.752	3137.6005	3279.6798	3291.1873	3539.4307	3632.3338
COC1=COC=C1N	COc1cocc1N	
InChI=1S/C5H7NO2/c1-7-5-3-8-2-4(5)6/h2-3H,6H2,1H3	InChI=1S/C5H7NO2/c1-7-5-3-8-2-4(5)6/h2-3H,6H2,1H3
