20
gdb 75635	1.9484	1.82177	1.15006	3.8456	80.71	-0.2256	-0.0109	0.2147	1154.5235	0.168562	-403.140089	-403.130365	-403.129421	-403.17419	35.936	
C	-0.0549008261	 1.6168321379	 0.0566576207	-0.418648
C	 0.0212660521	 0.0971111892	 0.0055105317	-0.156103
C	 1.0646326398	-0.5939520133	-0.9234761806	 0.410141
O	 1.1810198603	-0.6721440732	-2.1130861413	-0.319288
C	 1.7053058657	-1.3182004021	 0.2402617256	 0.139935
C	 2.4164311626	-2.6338094421	 0.2389018027	-0.516662
N	 2.0764651635	-0.2065185002	 1.1948178339	-0.397459
C	 0.6852403177	-0.6840895738	 1.163662198	 0.270806
C	-0.0046582138	-1.2560950048	 2.3624265524	-0.508768
H	 0.9036232197	 2.035275985	 0.371862991	 0.142296
H	-0.2993725548	 2.0160523259	-0.9325018687	 0.130746
H	-0.8289587073	 1.9537688708	 0.7543243489	 0.112047
H	-0.956544424	-0.3397175204	-0.2379631991	 0.094853
H	 3.4337930826	-2.5291483368	-0.1530718744	 0.144222
H	 2.4862858461	-3.0485049416	 1.2507599693	 0.118919
H	 1.8906356471	-3.3576082135	-0.3913883003	 0.139343
H	 2.5441296508	-0.6712674409	 1.9757701164	 0.226093
H	-0.2803656288	-0.4670981677	 3.0715980578	 0.136594
H	-0.9218009169	-1.7802075259	 2.074125025	 0.130589
H	 0.6405063638	-1.9667213225	 2.8910406213	 0.120344
87.2231	164.6126	176.4511	184.4636	200.8852	207.0197	210.2636	259.6014	349.8333	376.705	502.1803	568.3563	584.6111	618.1317	673.7935	750.3367	782.7526	811.7063	901.5577	966.3964	1005.2313	1041.8546	1070.3	1085.2226	1098.2454	1101.5574	1145.5238	1158.8684	1203.6035	1301.77	1336.0222	1367.7329	1398.0237	1411.4858	1417.2104	1452.5904	1476.5491	1485.7618	1492.1505	1493.4749	1500.8777	1504.919	1884.7349	3024.7277	3028.6119	3029.4222	3038.8543	3087.4689	3093.4004	3098.585	3101.9529	3104.8267	3130.8872	3440.8402
CC1C(=O)C2(C)NC12C	C[C@H]1C(=O)[C@@]2(C)N[C@@]12C	
InChI=1S/C7H11NO/c1-4-5(9)7(3)6(4,2)8-7/h4,8H,1-3H3	InChI=1S/C7H11NO/c1-4-5(9)7(3)6(4,2)8-7/h4,8H,1-3H3/t4-,6-,7+/m0/s1
