19
gdb 106746	2.247	1.52059	1.09483	4.3316	75.99	-0.2641	0.0078	0.2719	1182.121	0.157509	-423.042813	-423.033629	-423.032685	-423.076934	33.839	
C	-0.2332077237	 1.5359024122	 0.0591729799	-0.377022
C	 0.0473308247	 0.0321501358	-0.0731526112	-0.299106
C	 0.7813975659	-0.5171803511	 1.1178790943	 0.064497
C	 0.1141581749	-0.9776828377	 2.4324344716	-0.37143
C	 1.0135268042	-1.9007561231	 1.6922466086	 0.399628
C	 0.7723096707	-3.2824693013	 1.1892015109	-0.488273
O	 2.3931465702	-1.5505267582	 2.0488436989	-0.303585
C	 2.2393198863	-0.3123657387	 1.4399185137	 0.440771
O	 3.0788487544	 0.5075624221	 1.2463065321	-0.336936
H	 0.7016774715	 2.0903403572	 0.1806212757	 0.147225
H	-0.7448536462	 1.9167267408	-0.8295042175	 0.114434
H	-0.8635505997	 1.7430043188	 0.9299041714	 0.118674
H	-0.8936755208	-0.5172365976	-0.1996853045	 0.10114
H	 0.6387643609	-0.1518271917	-0.978141411	 0.115304
H	 0.4242167127	-0.5691561334	 3.3891171845	 0.132799
H	-0.9529017251	-1.1589171038	 2.3304841879	 0.125158
H	-0.2614034771	-3.3844368267	 0.846881747	 0.132142
H	 1.4431198169	-3.5165989985	 0.3575583196	 0.140957
H	 0.9401334095	-4.0173785753	 1.9835343182	 0.143624
61.5306	119.1879	145.884	195.3764	206.1367	247.483	282.2727	349.8258	410.6677	481.9436	523.0411	624.8065	689.0223	720.972	781.8453	804.9045	831.8961	902.7474	945.5248	981.261	987.9345	1005.6931	1029.1741	1085.6473	1104.5532	1127.5232	1177.5505	1214.12	1301.1838	1335.3895	1366.6565	1403.0206	1411.5369	1433.9942	1473.8985	1481.9927	1492.7162	1497.5512	1507.648	1514.4296	1930.2581	3025.4001	3039.8298	3040.2398	3060.2084	3106.7916	3110.5861	3115.9243	3121.1277	3121.7314	3207.7308
CCC12CC1(C)OC2=O	CC[C@@]12C[C@]1(C)OC2=O	
InChI=1S/C7H10O2/c1-3-7-4-6(7,2)9-5(7)8/h3-4H2,1-2H3	InChI=1S/C7H10O2/c1-3-7-4-6(7,2)9-5(7)8/h3-4H2,1-2H3/t6-,7-/m0/s1
