16
gdb 128686	3.30625	1.25521	0.91794	0.776	68.91	-0.191	0.0402	0.2312	1223.0356	0.124251	-471.201682	-471.19205	-471.191105	-471.236185	33.637	
C	-0.047078628	 1.3556171653	 0.0034797865	-0.234547
O	-0.02474961	-0.0672644705	-0.0534233683	-0.287375
C	-1.2328381614	-0.6685679858	-0.0337395727	 0.360498
N	-2.3897636333	-0.0347566324	 0.0582895626	-0.334754
N	-3.3070418323	-1.0444529733	 0.0756633847	-0.277973
C	-2.7425516253	-2.280910356	-0.0340504075	 0.307375
N	-3.5207667365	-3.4456895189	-0.1110380402	-0.615512
C	-1.3818722037	-2.0732192435	-0.0901279495	 0.080575
O	-0.4175060883	-3.0406740327	-0.1562719519	-0.470754
H	 0.995509118	 1.6762023143	-0.0183117848	 0.124325
H	-0.5891277612	 1.7726142301	-0.8519376125	 0.133173
H	-0.5310023364	 1.7016248706	 0.9227499913	 0.134629
H	-4.2792392758	-0.8246711616	-0.0489021099	 0.267652
H	-3.9375040337	-3.6924467855	 0.781972632	 0.249833
H	-2.9460259848	-4.2249169657	-0.4108819241	 0.259122
H	 0.4274102028	-2.5948531045	-0.2784626956	 0.303733
78.9844	120.8477	150.4797	177.3355	192.1464	209.3092	240.4774	274.6861	332.3751	356.5805	444.1992	548.3099	638.6498	645.5032	718.0206	775.1387	783.4535	830.7907	1001.4711	1101.01	1143.2865	1170.9837	1181.84	1226.3451	1268.4259	1314.8832	1346.5024	1453.2114	1459.9073	1476.6748	1504.5326	1566.4158	1582.0188	1646.4057	1708.6467	3030.9663	3096.5635	3141.9547	3496.2628	3590.9228	3689.4234	3824.0226
COC1=NNC(N)=C1O	COc1n[nH]c(N)c1O	
InChI=1S/C4H7N3O2/c1-9-4-2(8)3(5)6-7-4/h8H,1H3,(H3,5,6,7)	InChI=1S/C4H7N3O2/c1-9-4-2(8)3(5)6-7-4/h8H,1H3,(H3,5,6,7)
