15
gdb 127621	3.48937	1.71772	1.15962	2.6776	73.95	-0.2161	0.0008	0.2169	991.5567	0.116702	-413.01679	-413.009589	-413.008645	-413.049056	26.632	
C	 0.0085285237	 1.40872668	-0.0052044397	-0.334914
N	-0.0122655646	-0.0352340096	 0.0267353745	-0.096554
N	 0.0297596153	-0.757125271	-1.1240658292	-0.271064
C	 0.0642461272	-2.0503754962	-0.7837571036	-0.136224
C	 0.051995374	-2.1644877771	 0.6183241976	 0.231557
C	 0.0079572097	-0.8643195775	 1.1006999008	 0.421313
N	-0.01539376	-0.7889964124	 2.4658979955	-0.365752
C	 0.0134123375	-2.0594980941	 2.8215525994	 0.006841
N	 0.0537258837	-2.9410959253	 1.7642031718	-0.414581
H	 1.0197598357	 1.7899228064	-0.1842885814	 0.139412
H	-0.6493721514	 1.7602328647	-0.8020674788	 0.149374
H	-0.3472158193	 1.780897722	 0.957332318	 0.155561
H	 0.0899432917	-2.8029763699	-1.5562606549	 0.111474
H	 0.007864978	-2.4126692521	 3.8427434929	 0.13432
H	 0.0804388288	-3.9430347678	 1.835770937	 0.269238
46.7205	152.5339	240.1657	258.3962	355.6245	422.8107	541.4789	627.4794	635.5087	646.8958	709.8596	767.2544	817.9124	833.4484	845.1385	956.3399	1017.258	1096.2321	1131.4516	1152.207	1210.7133	1259.3048	1281.1248	1328.2793	1376.5602	1411.5808	1449.0453	1478.5299	1483.9984	1499.8541	1525.4654	1557.5637	1619.2031	3040.2541	3113.6621	3151.2182	3246.9942	3253.8942	3684.1394
CN1N=CC2=C1N=CN2	Cn1ncc2c1nc[nH]2	
InChI=1S/C5H6N4/c1-9-5-4(2-8-9)6-3-7-5/h2-3H,1H3,(H,6,7)	InChI=1S/C5H6N4/c1-9-5-4(2-8-9)6-3-7-5/h2-3H,1H3,(H,6,7)
