18
gdb 10857	3.64411	1.65269	1.42773	1.9411	69.75	-0.2425	0.0076	0.2501	943.6622	0.154329	-384.945728	-384.937972	-384.937028	-384.977622	29.771	
C	 0.0578830877	 1.5237208006	-0.0308282995	-0.398413
C	 0.0517025794	-0.0021920955	 0.0054446527	 0.091278
O	 0.7125687809	-0.4509499984	-1.1719898188	-0.272808
C	 0.9536089693	-1.8508280843	-1.1563272179	-0.111988
C	 1.9944523808	-2.1862300125	-0.0885300571	 0.09543
O	 3.3025376636	-1.779858732	-0.4880738804	-0.435449
C	 1.5947357926	-1.5378140375	 1.2160238702	-0.117833
C	 0.7015924811	-0.5506990737	 1.2519087703	-0.054232
H	 1.0829723062	 1.902403601	 0.0180581822	 0.123508
H	-0.4002827197	 1.8767231851	-0.9581929044	 0.128374
H	-0.5049709091	 1.9298836746	 0.8147353389	 0.116547
H	-0.9999621859	-0.3486357605	-0.0243265706	 0.076969
H	 0.0185786774	-2.4057023762	-0.9741952453	 0.087626
H	 1.3338043426	-2.1140648687	-2.1468180948	 0.112853
H	 2.0573565424	-3.2741953986	 0.0302040705	 0.086747
H	 3.2473388889	-0.8280675356	-0.6370808793	 0.279247
H	 2.086301685	-1.8848489323	 2.1203024264	 0.097159
H	 0.4057203766	-0.0918952456	 2.1926026271	 0.094986
79.8767	193.6945	214.4581	256.8274	316.0268	376.4485	397.0342	448.6472	488.6014	588.3925	609.9014	753.7931	813.9773	834.4601	855.5555	922.0767	962.689	1000.1573	1024.9285	1057.0891	1094.566	1111.1903	1125.2697	1154.9696	1211.1188	1260.3394	1298.9599	1332.0664	1347.8818	1355.5273	1391.5372	1403.6169	1412.0582	1431.8284	1483.848	1484.7976	1498.1729	1713.9008	2909.8539	2974.2495	3044.198	3048.9672	3097.8335	3119.4294	3126.7061	3149.591	3176.5652	3788.7308
CC1OCC(O)C=C1	C[C@H]1OC[C@@H](O)C=C1	
InChI=1S/C6H10O2/c1-5-2-3-6(7)4-8-5/h2-3,5-7H,4H2,1H3	InChI=1S/C6H10O2/c1-5-2-3-6(7)4-8-5/h2-3,5-7H,4H2,1H3/t5-,6+/m1/s1
