23
gdb 36979	4.77182	0.63041	0.6177	2.0043	85.84	-0.2414	0.0803	0.3217	1889.6126	0.206055	-388.255576	-388.246042	-388.245098	-388.291645	34.669	
C	-0.0339579622	 1.5607263202	 0.2144251822	-0.207657
C	-0.0008994732	 0.0285477864	 0.1223877124	-0.202196
C	-1.3860624958	-0.6052460948	 0.1443224859	-0.021463
C	-2.2544051944	-0.480735037	-1.1308897572	-0.073687
O	-2.3314380383	-1.9125165367	-1.2782667715	-0.272182
C	-1.482966272	-2.1231321084	-0.1316886696	-0.09112
C	 1.3419760308	 2.1907219485	 0.1709611599	 0.036568
C	 2.009895857	 2.4766757997	-1.1516074784	-0.254525
C	 1.5235724699	 3.6146931297	-0.2869257731	-0.277797
H	-0.6380467166	 1.9639688654	-0.6101088076	 0.093739
H	-0.5475338594	 1.8571806094	 1.1397742755	 0.095149
H	 0.5217117186	-0.2698780275	-0.7963460991	 0.102113
H	 0.5924708742	-0.3724329315	 0.9557559461	 0.094664
H	-1.9229622248	-0.3053489602	 1.0494890035	 0.076002
H	-3.2455916268	-0.0272557412	-1.007959392	 0.098816
H	-1.7532864848	-0.0065964809	-1.986942617	 0.092973
H	-0.5337853718	-2.6042600336	-0.406067121	 0.094966
H	-1.9764989576	-2.7289404123	 0.6382915169	 0.097749
H	 2.004794831	 1.8656448961	 0.9700407333	 0.079512
H	 3.0786112263	 2.3167477856	-1.2418434397	 0.110402
H	 1.4526458708	 2.25720209	-2.0572039595	 0.10862
H	 0.6419100206	 4.1570423103	-0.6134784355	 0.10911
H	 2.2599873986	 4.231517453	 0.2163156252	 0.110243
44.7797	64.9433	73.5145	114.2338	151.6303	247.1665	303.2449	361.8224	430.9586	457.749	747.7278	766.6992	779.3115	823.5272	842.3958	875.7421	893.5656	909.2742	944.9975	975.9534	990.6468	1019.6709	1043.8194	1045.026	1064.9334	1080.7016	1105.1099	1131.2388	1143.9254	1157.1759	1165.9343	1196.8178	1199.1683	1228.1637	1249.6808	1260.0412	1292.2212	1312.4838	1327.4265	1353.7152	1383.0775	1401.504	1419.446	1470.924	1480.8941	1497.0886	1510.9902	1513.1005	1538.5306	2992.5692	3000.602	3004.8966	3012.1013	3028.8965	3038.5086	3044.0273	3050.5425	3070.5393	3127.0889	3127.727	3133.2628	3204.5667	3219.8528
C(CC1COC1)C1CC1	C(CC1COC1)C1CC1	
InChI=1S/C8H14O/c1-2-7(1)3-4-8-5-9-6-8/h7-8H,1-6H2	InChI=1S/C8H14O/c1-2-7(1)3-4-8-5-9-6-8/h7-8H,1-6H2
