17
gdb 77181	3.19091	1.15907	0.97414	3.8969	70.8	-0.2456	0.0216	0.2672	1217.2019	0.135434	-455.099987	-455.091298	-455.090353	-455.133929	31.676	
O	 0.4855710987	 0.8767261685	 0.5031303328	-0.43832
C	 0.1490530425	-0.3761651678	-0.0249687041	 0.045349
C	-1.3814180091	-0.6634839925	-0.2253934651	-0.021606
N	-1.0572855769	-0.9794618934	-1.6342699632	-0.342281
C	 0.235609546	-0.4793069079	-1.5450154794	 0.356891
N	 1.154046076	-0.0948032861	-2.3235018629	-0.559613
C	-1.9953995594	-1.7773126847	 0.5817359088	 0.059
C	-2.6233626778	-2.9551637906	-0.0308541045	-0.173693
O	-1.3218325408	-3.0347125789	 0.5493812571	-0.226234
H	 1.1207017741	 1.2677567467	-0.110079372	 0.301323
H	 0.6479899434	-1.1956590155	 0.5053899615	 0.116791
H	-1.9586528599	 0.2603121974	-0.1040438227	 0.092461
H	-1.6774791371	-0.863406456	-2.4244350434	 0.240785
H	 0.8942809718	-0.1679640156	-3.3082197059	 0.214296
H	-2.328986544	-1.4736340132	 1.5755558841	 0.104139
H	-3.4106984668	-3.4859833449	 0.5022772924	 0.117934
H	-2.6461787408	-3.0407599957	-1.1155264135	 0.112777
68.3967	81.7194	170.1888	181.4327	229.7116	259.1661	341.2769	402.1783	462.5322	529.6545	625.3471	702.8078	746.5104	808.5666	842.2634	881.0926	909.5996	946.4076	971.9817	1026.1799	1056.6644	1088.8195	1104.2725	1142.3366	1169.4585	1170.6727	1187.7634	1216.9062	1288.538	1308.6417	1336.7787	1374.0464	1380.9433	1395.7172	1430.382	1520.9769	1804.5849	3042.9885	3049.7828	3087.8243	3101.5212	3178.2513	3466.097	3579.3201	3778.3709
OC1C(NC1=N)C1CO1	O[C@H]1[C@@H](N[C]1[NH])[C@H]1CO1	
InChI=1S/C5H8N2O2/c6-5-4(8)3(7-5)2-1-9-2/h2-4,8H,1H2,(H2,6,7)	InChI=1S/C5H8N2O2/c6-5-4(8)3(7-5)2-1-9-2/h2-4,8H,1H2,(H2,6,7)/t2-,3+,4+/m1/s1
