21
gdb 91373	3.28437	1.18326	1.01397	1.4859	85.53	-0.2348	0.0083	0.2431	1273.229	0.182406	-387.070474	-387.061806	-387.060862	-387.103632	33.59	
C	 0.0761748183	 1.5105269768	 0.1034601709	-0.399137
C	-0.0359824037	 0.0017681658	 0.0426797645	 0.082232
O	 0.926068251	-0.619483881	-0.8812076126	-0.332733
C	 1.2280359486	-1.6741216862	 0.0979206828	 0.108472
C	 2.6414632823	-1.8984283087	 0.6539165124	-0.263294
C	 2.4277925737	-1.7742270087	 2.2054747171	 0.000439
C	 3.6671989188	-1.2809929082	 2.9568671696	-0.397661
C	 1.241576246	-0.8031276165	 2.2898149968	-0.215692
C	 0.5736405452	-0.8354781519	 1.143318551	 0.160998
H	 1.0877537029	 1.8069909835	 0.3914709563	 0.123909
H	-0.1541322563	 1.9465034465	-0.8735162532	 0.128753
H	-0.6340473331	 1.9137155538	 0.833215626	 0.119501
H	-1.0547957461	-0.3015848916	-0.2392572584	 0.079807
H	 0.7272660428	-2.6036220338	-0.2049263338	 0.075306
H	 3.1016964872	-2.8460080389	 0.3583458492	 0.092821
H	 3.2871389932	-1.079553222	 0.3172887987	 0.112692
H	 2.1548914429	-2.7588362147	 2.6133829797	 0.081918
H	 3.9659029577	-0.2855317548	 2.6094438639	 0.116552
H	 3.482243253	-1.2204790946	 4.0346874064	 0.113602
H	 4.5139056652	-1.958097047	 2.8024070965	 0.116149
H	 1.0928391104	-0.1341197277	 3.1301932463	 0.095367
89.5852	123.2775	197.4732	215.3195	239.3195	291.4449	354.4221	394.7203	465.9041	489.8386	577.7024	624.7154	743.571	816.0074	832.7407	854.4908	868.7536	895.7197	916.5171	942.4708	993.2711	1046.7313	1055.7445	1071.1128	1085.4218	1117.9895	1122.6082	1158.6114	1188.8924	1231.6085	1254.7175	1274.9979	1298.8961	1326.8505	1342.0951	1360.8595	1388.7611	1402.7322	1405.29	1478.2313	1481.3907	1492.6161	1494.8345	1497.7941	1738.5216	2987.9217	2992.9422	3008.4303	3026.3809	3039.2035	3045.1012	3094.4361	3097.8357	3100.5872	3109.6939	3127.6462	3192.0259
CC1OC2CC(C)C=C12	C[C@H]1O[C@H]2C[C@@H](C)[CH][C]12	
InChI=1S/C8H12O/c1-5-3-7-6(2)9-8(7)4-5/h3,5-6,8H,4H2,1-2H3	InChI=1S/C8H12O/c1-5-3-7-6(2)9-8(7)4-5/h3,5-6,8H,4H2,1-2H3/t5-,6+,8-/m0/s1
