20
gdb 112436	2.36752	1.34101	0.95635	4.9401	75.28	-0.2586	0.0541	0.3128	1281.8806	0.171621	-440.352803	-440.343718	-440.342773	-440.386705	33.932	
C	 0.0582501066	 1.6755689314	-0.0535026082	-0.390018
C	-0.1715977861	 0.161703843	-0.096731694	-0.199958
C	 0.7103673931	-0.5330871926	-1.1214450013	 0.1371
O	 2.098975955	-0.3660724227	-0.7669620562	-0.254359
C	 2.8096169569	-1.4575840029	-1.1822376458	 0.464876
O	 4.0024428484	-1.5490836064	-1.0997398114	-0.393141
N	 1.9163258324	-2.376340443	-1.6993051074	-0.365326
C	 0.5506350648	-2.0676613027	-1.2937716293	-0.012356
C	 0.1106136965	-2.843310077	-0.0485098623	-0.402835
H	 1.0974823071	 1.9011079106	 0.1984838878	 0.146214
H	-0.1610058931	 2.1371407187	-1.0224270854	 0.116814
H	-0.586059312	 2.1453687495	 0.6949284198	 0.115603
H	 0.0129590013	-0.2714228661	 0.8919168977	 0.112856
H	-1.217835453	-0.0527415047	-0.3496447323	 0.102185
H	 0.5699417689	-0.0614003488	-2.1042877229	 0.092418
H	 2.240856942	-3.3285709756	-1.7660888709	 0.255582
H	-0.1473933456	-2.2692028486	-2.1134234498	 0.092627
H	 0.7669738808	-2.635349957	 0.8017890469	 0.137418
H	-0.9160039	-2.591900922	 0.2333977582	 0.126078
H	 0.1450660459	-3.919603423	-0.2469585931	 0.118222
100.2014	109.3459	137.8831	171.2791	230.1896	273.9952	293.5686	384.1494	430.2134	476.3207	521.6694	555.9663	683.3969	735.7666	775.7385	788.9211	819.6847	929.7755	951.0211	978.626	996.5213	1041.4652	1062.3039	1119.1823	1130.9747	1152.7769	1174.2672	1223.4456	1295.7053	1314.3771	1323.8238	1385.8814	1395.0764	1410.006	1413.7154	1417.3696	1420.1141	1474.845	1497.1623	1498.4425	1499.7461	1508.6377	1890.953	3003.033	3030.2061	3038.7534	3040.958	3046.1334	3077.1363	3106.6586	3109.2322	3120.7996	3127.8175	3637.7214
CCC1OC(=O)NC1C	CC[C@H]1OC(=O)N[C@H]1C	
InChI=1S/C6H11NO2/c1-3-5-4(2)7-6(8)9-5/h4-5H,3H2,1-2H3,(H,7,8)	InChI=1S/C6H11NO2/c1-3-5-4(2)7-6(8)9-5/h4-5H,3H2,1-2H3,(H,7,8)/t4-,5+/m0/s1
