20
gdb 66197	2.23717	1.48179	1.36864	3.8614	83.35	-0.2508	0.017	0.2679	1099.783	0.172239	-366.054747	-366.046145	-366.045201	-366.087527	33.391	
C	-0.0087056516	 1.5474330332	 0.0165675797	-0.424314
C	-0.0204919761	 0.0058335587	 0.0037832632	 0.076561
C	 0.6759094316	-0.5394151914	-1.2690134312	-0.215563
C	 0.6589125694	-2.0710727672	-1.3323299476	-0.275279
C	 1.0258507548	-2.6927387997	-0.0113783002	-0.034078
C	 1.0521858255	-2.0161863226	 1.1353864586	-0.057691
C	 0.7024377933	-0.5561850676	 1.256716324	-0.264824
C	-1.4227521457	-0.4465519579	 0.0126211153	 0.287003
N	-2.5280779221	-0.7858066478	 0.007411875	-0.354929
H	 1.0236466554	 1.9068417032	-0.0354616052	 0.121743
H	-0.5590144963	 1.9517156295	-0.8373323734	 0.133396
H	-0.4643737392	 1.9366633661	 0.9314390688	 0.132439
H	 0.2081806958	-0.1101296615	-2.160630646	 0.109972
H	 1.7123241804	-0.1819739222	-1.243032081	 0.106516
H	-0.3346544384	-2.4250366642	-1.6408816765	 0.135063
H	 1.3501364569	-2.4128905256	-2.1122650321	 0.107028
H	 1.268811501	-3.7521754158	-0.0160194361	 0.091449
H	 1.3347603248	-2.5198338786	 2.0561881734	 0.091222
H	 1.6134344781	 0.0378765919	 1.4179408698	 0.111758
H	 0.0789267723	-0.3896573805	 2.1429931713	 0.122528
106.968	142.5667	199.3764	232.2669	253.426	303.5623	365.0327	396.1667	419.4113	487.9397	595.2869	605.9317	660.2115	680.4542	768.482	853.6616	888.5418	902.5089	935.9659	979.8118	1003.7397	1015.7848	1036.6851	1059.4348	1116.3197	1142.2836	1147.2771	1206.3741	1239.5187	1271.7695	1311.4339	1345.4881	1369.8584	1378.3692	1411.3239	1419.4839	1470.0225	1475.8193	1487.9783	1492.6262	1499.338	1728.8002	2349.0509	3006.2406	3015.7326	3032.1486	3041.2554	3052.1178	3054.7879	3084.7948	3116.2941	3121.3332	3150.1664	3172.8281
CC1(CCC=CC1)C#N	C[C@]1(CCC=CC1)C#N	
InChI=1S/C8H11N/c1-8(7-9)5-3-2-4-6-8/h2-3H,4-6H2,1H3	InChI=1S/C8H11N/c1-8(7-9)5-3-2-4-6-8/h2-3H,4-6H2,1H3/t8-/m0/s1
