15
gdb 78728	4.6751	1.18094	1.07106	4.6863	70.57	-0.2425	0.0024	0.245	1085.6421	0.113647	-416.733893	-416.72665	-416.725706	-416.765486	28.192	
O	-0.010081546	 1.328163246	 0.0942196125	-0.435529
C	 0.0277287035	-0.0740423718	-0.0343458602	 0.152836
C	-1.4004259909	-0.5913867835	-0.1355835334	-0.12137
C	-1.3968500271	-0.4728697641	-1.642916843	-0.13573
C	 0.1781284781	-0.5705510944	-1.503593696	-0.111978
N	 0.1309415505	-2.0623757	-1.3187037801	-0.372918
C	-1.3112938618	-1.8499602913	-1.0233723374	 0.253916
C	-2.2776615208	-2.8956923529	-0.9806314571	 0.176831
N	-3.0602738911	-3.7481884088	-0.9685999645	-0.343248
H	 0.8964983426	 1.6516588833	 0.0771671774	 0.289629
H	 0.7009582956	-0.5449909702	 0.6923652708	 0.087188
H	-2.222050678	-0.4466435421	 0.5529690832	 0.120955
H	-2.0947963182	-0.0340075636	-2.3418561137	 0.120034
H	 0.9346948608	-0.1648813368	-2.1712689398	 0.089164
H	 0.1774865129	-2.4949445997	-2.2416505586	 0.230221
131.7799	145.4266	249.339	302.3374	334.6012	443.8552	478.4741	529.1006	564.8828	614.0848	769.5178	785.0424	816.8289	858.7382	907.3773	935.1907	945.6497	965.2085	1006.0963	1038.6129	1050.9409	1115.805	1128.4543	1154.7526	1181.7272	1220.6085	1233.3147	1262.1701	1307.826	1332.9056	1401.4492	1430.6155	2349.1553	3034.821	3152.1404	3212.7832	3223.5871	3454.4947	3815.6825
OC1C2C3C1NC23C#N	O[C@H]1[C@H]2[C@H]3[C@@H]1N[C@@]23C#N	
InChI=1S/C6H6N2O/c7-1-6-2-3(6)5(9)4(2)8-6/h2-5,8-9H	InChI=1S/C6H6N2O/c7-1-6-2-3(6)5(9)4(2)8-6/h2-5,8-9H/t2-,3+,4-,5-,6+/m0/s1
