12
gdb 21895	3.79061	1.90568	1.26814	2.4563	65.34	-0.2174	0.0009	0.2183	871.4974	0.084691	-377.512688	-377.50578	-377.504836	-377.543566	26.183	
O	 0.12679852	 1.3220759941	 0.0457604664	-0.418942
C	 0.0815125026	-0.0199712831	 0.0433435372	 0.317732
N	 0.0821082583	-0.7247569375	-1.0746222704	-0.32225
N	 0.0292840538	-2.0138692235	-0.645965492	-0.192754
C	-0.0037778962	-2.1256622382	 0.6945807464	-0.132983
C	 0.028418266	-0.836216992	 1.2111063958	 0.027459
C	 0.0126256835	-0.4310797269	 2.5615100797	 0.237941
C	-0.0006663662	-0.0800831539	 3.7133909162	-0.435147
H	 0.156560009	 1.6093336053	-0.8757549711	 0.305716
H	 0.0189122864	-2.7510875015	-1.3284210077	 0.281682
H	-0.0468504692	-3.0791834351	 1.1958412311	 0.146924
H	-0.012079098	 0.2365046624	 4.7263191684	 0.18462
138.183	165.5786	316.7197	375.6491	409.0359	421.5474	488.9838	539.4626	540.8135	599.7633	645.1777	658.4744	739.1881	755.2633	802.2627	937.5996	1077.4285	1134.1495	1244.6861	1248.8447	1324.8357	1433.8568	1496.7118	1566.6061	1616.8771	2237.1214	3269.0532	3505.8813	3691.5039	3793.9468
OC1=NNC=C1C#C	Oc1n[nH]cc1C#C	
InChI=1S/C5H4N2O/c1-2-4-3-6-7-5(4)8/h1,3H,(H2,6,7,8)	InChI=1S/C5H4N2O/c1-2-4-3-6-7-5(4)8/h1,3H,(H2,6,7,8)
