16
gdb 127407	3.19985	1.30891	0.94745	4.7523	80.43	-0.2178	-0.0557	0.1621	1184.9692	0.124703	-434.085695	-434.076991	-434.076046	-434.119706	30.189	
C	-0.2155270497	 1.6215965784	-0.2069668038	-0.341649
N	 0.332912785	 0.3020805295	-0.0133181054	-0.093214
C	 0.829993583	-0.4923992415	-1.1223230102	-0.155255
C	 1.3298283795	-1.818237404	-0.4830803069	-0.34296
C	 1.3923185706	-1.4379515171	 0.9731915189	 0.188614
C	 0.7354442363	-0.1432616063	 1.2310326792	 0.363534
O	 0.5616701522	 0.4266247481	 2.2890994918	-0.407913
N	 2.330314236	-2.7697194262	 2.7732401692	-0.248988
N	 1.8910530262	-2.1538809942	 1.9237945979	 0.137005
H	 0.4975437627	 2.285243968	-0.7166046535	 0.119843
H	-1.1340877325	 1.5811990132	-0.8042592222	 0.123427
H	-0.4415184265	 2.0332867681	 0.77809845	 0.168082
H	 0.0396272484	-0.6722365534	-1.8595589311	 0.117162
H	 1.6484659204	 0.0304998092	-1.6395294388	 0.111592
H	 0.6176864936	-2.6315873802	-0.6647949816	 0.130541
H	 2.2942245447	-2.1239437616	-0.8976737035	 0.130179
70.1989	116.0792	141.0783	151.9875	183.5174	217.4526	303.8601	433.9538	501.6848	540.1197	570.391	672.6191	726.8062	739.2805	851.6323	965.4114	989.1852	1070.8366	1079.7499	1151.5493	1186.3176	1204.9677	1246.4853	1278.3716	1304.987	1325.6267	1426.5775	1434.629	1449.602	1490.3841	1499.4809	1514.9427	1541.93	1794.6631	2205.579	2987.6087	3001.5108	3029.0106	3052.4838	3057.5834	3084.6465	3143.4009
CN1CCC2=C1ON=N2	CN1CC[C](C1=O)[N][N]	
InChI=1S/C5H7N3O/c1-8-3-2-4-5(8)9-7-6-4/h2-3H2,1H3	InChI=1S/C5H7N3O/c1-8-3-2-4(7-6)5(8)9/h2-3H2,1H3
