18
gdb 102151	2.41032	1.13821	0.80592	4.8654	73.4	-0.2402	0.0139	0.2541	1375.413	0.147216	-435.306936	-435.296873	-435.295929	-435.34295	35.511	
C	-0.2230033754	-1.8571065	 0.4188844595	-0.336696
N	 0.7200959876	-0.7651988718	 0.1627780805	-0.306061
C	 0.9656610605	-0.4261983151	-1.2325779205	-0.090409
C	-0.0889399397	 0.4666597998	-1.9393518095	-0.346115
C	-1.3511076714	-0.2077340487	-2.2196753645	 0.263454
N	-2.3487410569	-0.7462709647	-2.44698271	-0.317941
C	 2.3509894251	 0.2500324386	-1.4166370231	 0.404235
N	 3.2219123544	-0.013804142	-0.4178749167	-0.520695
O	 2.6087050616	 0.9205490731	-2.4001090224	-0.372466
H	-1.2441299584	-1.6736893807	 0.0617284206	 0.143576
H	 0.1456994819	-2.7676409752	-0.064227669	 0.13326
H	-0.2595284757	-2.0439607617	 1.4960165819	 0.124183
H	 0.4435850792	 0.0638536845	 0.6792042084	 0.225323
H	 1.031864589	-1.3717157431	-1.7859168586	 0.133509
H	-0.2869515216	 1.3569944088	-1.3302955372	 0.14382
H	 0.3538777992	 0.8209031206	-2.875050313	 0.18864
H	 2.9026778101	-0.5562891116	 0.3691740938	 0.266303
H	 4.1580109805	 0.3501106291	-0.4717927204	 0.26408
34.348	76.6213	102.4732	138.2855	209.0965	249.0966	260.2305	329.7097	375.189	397.1338	411.3695	452.0809	515.6363	590.4081	655.7042	720.729	785.1408	856.2566	907.7412	970.258	1019.5654	1040.8853	1099.6903	1143.0362	1154.9578	1174.7629	1241.7324	1267.23	1331.758	1354.6609	1371.1082	1458.3678	1461.9325	1491.4038	1497.2722	1523.4859	1571.2056	1795.4449	2355.7147	3020.4818	3036.3218	3048.6395	3085.1367	3100.8298	3110.35	3516.5712	3580.1644	3730.2288
CNC(CC#N)C(N)=O	CN[C@@H](CC#N)C(=O)N	
InChI=1S/C5H9N3O/c1-8-4(2-3-6)5(7)9/h4,8H,2H2,1H3,(H2,7,9)	InChI=1S/C5H9N3O/c1-8-4(2-3-6)5(7)9/h4,8H,2H2,1H3,(H2,7,9)/t4-/m0/s1
