19
gdb 92516	2.41422	1.6662	1.32788	3.0604	74.68	-0.2101	-0.0209	0.1892	1042.0935	0.160914	-419.194684	-419.186407	-419.185463	-419.228082	31.513	
C	-0.0858209318	 1.532258681	-0.0557445386	-0.370984
C	-0.0213378204	-0.0023108367	-0.0286552573	-0.090917
N	 0.6194013916	-0.576404472	-1.2274074718	-0.31427
C	 1.8902961947	-1.2310169747	-0.8890352569	-0.012219
C	 3.1606295299	-0.3547637731	-1.0673237308	-0.155965
N	 3.0674949907	 0.0270976314	 0.3628238581	-0.316233
C	 2.1039554884	-1.0723667112	 0.6379800801	-0.127163
C	 0.7993553249	-0.492024	 1.1780760636	 0.435334
O	 0.4681038286	-0.4082536266	 2.3323814071	-0.326686
H	 0.9199424325	 1.9498207918	-0.144833449	 0.137273
H	-0.6830358885	 1.8691392239	-0.9075967484	 0.112484
H	-0.5403589322	 1.9045522236	 0.867387801	 0.126245
H	-1.040039347	-0.3926197101	 0.0868361054	 0.096683
H	-0.0010969065	-1.2270429066	-1.6865779833	 0.22444
H	 1.9471631609	-2.2315965314	-1.3191629804	 0.077352
H	 4.0484890283	-0.9507995558	-1.3195242536	 0.090271
H	 3.0708201357	 0.481935318	-1.7668687618	 0.108435
H	 3.9236313063	 0.003742166	 0.9024364315	 0.227725
H	 2.4731909938	-1.9241841874	 1.2162564451	 0.078195
42.3699	103.5621	202.7406	231.8584	258.6749	354.656	392.2409	453.3655	563.2369	574.4954	651.1186	688.4982	727.1386	796.3904	820.5689	867.1286	912.7302	948.9625	983.2288	1006.7316	1040.11	1060.6674	1078.1726	1107.8906	1133.0175	1153.343	1181.5723	1202.1085	1225.3579	1271.3867	1278.5674	1324.3939	1329.0649	1377.3714	1386.8695	1395.1422	1455.3715	1488.1009	1497.4906	1508.0182	1847.5965	3003.6257	3029.1004	3042.9325	3065.2739	3078.4271	3099.1795	3118.7696	3132.7893	3555.876	3585.6341
CC1NC2CNC2C1=O	C[C@H]1N[C@H]2CN[C@H]2C1=O	
InChI=1S/C6H10N2O/c1-3-6(9)5-4(8-3)2-7-5/h3-5,7-8H,2H2,1H3	InChI=1S/C6H10N2O/c1-3-6(9)5-4(8-3)2-7-5/h3-5,7-8H,2H2,1H3/t3-,4+,5-/m1/s1
