16
gdb 126033	3.01192	1.63774	1.11314	2.9594	70.43	-0.2276	-0.0109	0.2167	1050.2855	0.125866	-437.868268	-437.860991	-437.860047	-437.900251	27.684	
C	-0.0104619903	 1.5841316227	-0.033029022	-0.401088
C	 0.0163720704	 0.0569432374	 0.0632651793	-0.14962
C	 0.7441645772	-0.6339260499	-1.1428544894	-0.108586
O	 1.525703735	-1.7598562703	-0.6429794466	-0.284991
C	 1.6438366071	-1.5520062732	 0.6887672966	 0.223993
C	 2.3102556545	-2.024143441	 1.7664737224	-0.082055
O	 1.9000327165	-1.3088547087	 2.855764591	-0.181563
N	 0.9525071737	-0.3511185884	 2.4759638808	-0.244711
C	 0.8236192758	-0.5217886086	 1.1902836278	 0.3205
H	 1.0047278247	 1.9896489881	-0.081770795	 0.128867
H	-0.5542353	 1.9089723952	-0.9258416513	 0.121376
H	-0.5048762843	 2.0151951345	 0.8411714291	 0.143804
H	-1.0127140015	-0.3174717076	 0.1309933492	 0.114004
H	 0.0587564782	-1.0237037095	-1.8973275047	 0.12763
H	 1.4370411224	 0.0706584438	-1.6189721798	 0.119548
H	 3.0444617907	-2.7888266345	 1.9520412825	 0.152891
85.5397	164.9296	212.7964	259.8073	347.3152	431.3114	510.7411	579.3525	604.5029	663.6853	732.753	748.7856	774.5132	889.4674	904.9069	938.8133	955.0698	976.9013	1040.4001	1080.9812	1112.0023	1140.3055	1173.6179	1234.7176	1276.3975	1300.5902	1334.4321	1388.7456	1414.8866	1455.9769	1493.3311	1497.3198	1508.3088	1572.5751	1698.382	3026.3669	3033.5767	3041.3106	3110.434	3119.1794	3124.6271	3289.2503
CC1COC2=CON=C12	C[C@H]1COc2conc12	
InChI=1S/C6H7NO2/c1-4-2-8-5-3-9-7-6(4)5/h3-4H,2H2,1H3	InChI=1S/C6H7NO2/c1-4-2-8-5-3-9-7-6(4)5/h3-4H,2H2,1H3/t4-/m0/s1
