18
gdb 26953	2.93389	1.38006	0.99329	3.3182	78.96	-0.186	0.0471	0.2331	1176.7792	0.150468	-398.128405	-398.120016	-398.119072	-398.161601	31.947	
N	-0.0019349338	 1.3309192364	-0.2465032054	-0.610598
C	-0.0660226998	-0.068691774	-0.1056541624	 0.194676
C	-1.1277312484	-0.9417599099	 0.0523870423	 0.217194
C	-0.5591662736	-2.2416514043	 0.2627085739	-0.24467
C	 0.8037408347	-2.1224415257	 0.2040306262	-0.090517
N	 1.0947064688	-0.7922622423	-0.0170093139	-0.267733
C	-2.5707804729	-0.6042405862	 0.0359230505	-0.141508
C	-3.1456828381	 0.2568012852	-1.0363342296	-0.244077
N	-3.4584723611	-1.1800879465	-1.0025975121	-0.313649
H	 0.3144943421	 1.6177526264	-1.1688008654	 0.241253
H	-0.9157738655	 1.7388239745	-0.0924851219	 0.251624
H	-1.1112456434	-3.1564910667	 0.4170594289	 0.096806
H	 1.5892114364	-2.8552131212	 0.2887764014	 0.115875
H	 2.0109561766	-0.3791316679	-0.0084034157	 0.258276
H	-3.066423238	-0.5716535813	 1.0057475662	 0.096221
H	-3.9846191062	 0.912727702	-0.8194470291	 0.112621
H	-2.4736746012	 0.6202840293	-1.8090540285	 0.100119
H	-2.8736769265	-1.6571486276	-1.6857769853	 0.228089
64.4598	147.3751	165.7491	185.9514	262.3221	335.9649	395.4609	458.9838	506.169	608.0135	631.3063	674.2749	710.4157	734.2122	819.9673	830.6061	837.4706	870.9355	917.0452	963.0776	1002.1017	1057.5233	1090.542	1108.3145	1148.2198	1150.9305	1179.4534	1206.314	1240.4159	1282.5201	1307.0923	1322.391	1405.8147	1422.4328	1504.8286	1514.6436	1527.9109	1622.1911	1661.6228	3099.7183	3106.5304	3189.9888	3243.9535	3273.8094	3487.2983	3490.3141	3601.0066	3680.2027
NC1=C(C=CN1)C1CN1	Nc1c(cc[nH]1)[C@H]1CN1	
InChI=1S/C6H9N3/c7-6-4(1-2-8-6)5-3-9-5/h1-2,5,8-9H,3,7H2	InChI=1S/C6H9N3/c7-6-4(1-2-8-6)5-3-9-5/h1-2,5,8-9H,3,7H2/t5-/m1/s1
