17
gdb 126935	3.35969	1.00827	0.78502	3.0779	71.93	-0.2044	0.0097	0.2141	1420.3474	0.136026	-455.130742	-455.121981	-455.121037	-455.164787	32.09	
C	-0.0199453098	 1.5457800752	 0.0068914472	-0.401042
C	-0.0521637509	 0.0271465413	-0.1191865073	-0.115908
N	-1.3713855675	-0.4936570901	 0.2117722798	-0.416808
C	-1.5690791662	-1.8629529147	 0.1072756449	 0.134067
C	-0.6987481189	-2.9087782818	 0.0506872162	 0.003371
O	-1.3698150212	-4.0876680512	 0.0211710681	-0.188204
N	-2.7349774794	-3.8276674241	 0.0419885669	-0.246846
C	-2.8354534678	-2.5259141789	 0.0954753682	 0.37902
O	-4.0139955487	-1.8768948686	 0.1197930329	-0.428409
H	 0.979830801	 1.9280773617	-0.2158064024	 0.124692
H	-0.7181607407	 2.0146936549	-0.6960359381	 0.119135
H	-0.2950408657	 1.8572907369	 1.0184995773	 0.133759
H	 0.2660168511	-0.278792091	-1.1311488565	 0.095294
H	 0.6667039932	-0.4172595642	 0.5813162486	 0.114195
H	-2.1290951972	 0.0358131262	-0.1998095057	 0.240963
H	 0.3759137729	-2.9796391141	 0.0330584266	 0.139786
H	-4.7162215044	-2.5396553177	 0.0840575735	 0.312936
72.2994	85.0621	118.3535	253.8048	274.6382	285.2206	341.6081	367.7264	450.7472	526.4652	568.0623	592.3024	677.2859	728.7137	766.6773	816.7433	832.1862	915.2149	932.4665	974.4731	1079.8947	1132.0437	1152.058	1169.1578	1212.4524	1269.3759	1295.8858	1314.7664	1387.8533	1416.1017	1480.4647	1494.8287	1500.6158	1521.7462	1527.051	1587.1563	1703.0542	2950.6922	3030.6036	3038.4542	3105.039	3124.9134	3279.7962	3567.4669	3787.0902
CCNC1=CON=C1O	CCNc1conc1O	
InChI=1S/C5H8N2O2/c1-2-6-4-3-9-7-5(4)8/h3,6H,2H2,1H3,(H,7,8)	InChI=1S/C5H8N2O2/c1-2-6-4-3-9-7-5(4)8/h3,6H,2H2,1H3,(H,7,8)
