19
gdb 15111	8.28916	0.72919	0.69935	1.4181	78.69	-0.2348	0.0577	0.2925	1596.6751	0.163951	-327.8607	-327.851746	-327.850802	-327.894957	32.3	
C	 0.0664755188	-1.1859962815	-0.2751095772	-0.435298
C	 0.0208785622	 0.0002036485	-0.0863265972	 0.292009
C	-0.0032741794	 1.440586975	 0.1366139868	-0.353931
C	 1.3926529507	 2.0873125149	 0.0418751522	-0.173077
C	 1.3428250727	 3.5981987224	 0.2662671949	-0.141791
N	 2.6811643038	 4.1740406773	 0.214062958	-0.061866
C	 3.1494533176	 4.6002878006	-1.1010837187	-0.219536
C	 2.7599596993	 5.6018287437	-0.0705001925	-0.220881
H	 0.0960954396	-2.2344243321	-0.4391257979	 0.19281
H	-0.6765425293	 1.9096474143	-0.593493301	 0.128031
H	-0.4373728718	 1.6487897693	 1.1236986483	 0.129898
H	 2.0605046944	 1.6347531445	 0.7812442212	 0.122572
H	 1.8230057891	 1.8741893803	-0.9429337235	 0.111597
H	 0.6638962631	 4.0639602384	-0.4743451608	 0.075418
H	 0.9252331237	 3.8143294275	 1.2581536352	 0.102871
H	 4.1956933149	 4.4068471431	-1.3191686567	 0.118096
H	 2.475899451	 4.4741977547	-1.9480366015	 0.10791
H	 1.8282600806	 6.142290178	-0.2326439469	 0.107797
H	 3.516339459	 6.153564421	 0.4803187075	 0.117368
57.7078	87.5046	97.8097	142.3432	212.6748	314.9369	347.6955	386.3149	418.8182	546.0296	615.5561	633.9629	751.7675	768.9705	833.1402	870.0072	900.571	956.9417	1018.3337	1030.1642	1047.276	1075.8257	1109.49	1116.8032	1119.1173	1165.6858	1177.5559	1233.8176	1271.4057	1305.0745	1317.697	1326.5416	1364.7248	1408.4624	1474.2653	1486.3961	1493.3209	1506.4318	1523.6337	2239.5973	2912.9866	3012.5771	3034.9747	3040.1047	3051.7553	3090.9915	3096.0429	3098.5108	3175.878	3190.1119	3507.9909
C#CCCCN1CC1	C#CCCCN1CC1	
InChI=1S/C7H11N/c1-2-3-4-5-8-6-7-8/h1H,3-7H2	InChI=1S/C7H11N/c1-2-3-4-5-8-6-7-8/h1H,3-7H2
