20
gdb 68492	2.67256	1.7099	1.29548	1.1252	74.2	-0.2076	0.0651	0.2726	1024.1183	0.172857	-440.246355	-440.238675	-440.237731	-440.277826	31.621	
O	 0.0084815357	 1.4531658018	-0.0636064428	-0.473617
C	 0.0019804757	 0.0495232774	 0.0459801242	 0.360342
C	 0.2019098023	-0.6368212997	 1.4248726707	-0.22899
N	-0.9692380899	-1.5289692487	 1.1362562505	-0.101467
C	-1.4166258243	-0.5486474675	 0.0956843805	-0.221203
C	-0.5846318775	-2.8327919314	 0.5924728358	-0.170367
C	 0.1536016157	-2.8358905718	-0.7636587506	-0.085624
O	 1.2502795598	-1.9352474881	-0.8040022585	-0.240216
C	 0.9021030221	-0.5847782203	-1.034131072	-0.144189
H	 0.9211518158	 1.7618926581	-0.04326738	 0.278789
H	 1.1479404184	-1.1521515824	 1.6062899641	 0.10828
H	-0.0301698229	 0.0388992141	 2.2549068048	 0.102331
H	-2.1305508861	 0.1624262071	 0.5229506814	 0.113616
H	-1.8386415356	-0.9712229316	-0.8208806966	 0.099567
H	 0.0455690354	-3.3211149031	 1.3441146304	 0.110354
H	-1.4869563459	-3.4497725749	 0.4842665996	 0.100774
H	 0.5658769114	-3.8346260407	-0.9445358808	 0.106628
H	-0.5402240694	-2.6174486116	-1.5902907004	 0.091943
H	 0.4228771724	-0.4624217923	-2.0194964973	 0.098874
H	 1.8565473469	-0.0437618743	-1.0574794429	 0.094175
200.6907	233.1791	273.4176	293.5817	315.9017	360.785	413.0715	418.0163	440.7405	522.0751	582.956	640.4398	756.56	844.8877	859.78	907.5981	911.9846	947.4373	957.5536	983.4542	991.6705	1069.824	1101.1737	1111.2869	1143.2598	1163.5369	1178.3574	1233.1557	1259.9161	1267.554	1291.6709	1304.4288	1310.3647	1323.3999	1370.8497	1379.7638	1398.1234	1417.5926	1472.7817	1481.8066	1483.2043	1494.5232	1517.879	2971.9564	2982.3031	3016.9872	3038.4874	3045.8308	3047.5728	3062.1791	3075.2132	3096.6808	3110.7671	3797.2515
OC12CN(C1)CCOC2	O[C@@]12CN(C1)CCOC2	
InChI=1S/C6H11NO2/c8-6-3-7(4-6)1-2-9-5-6/h8H,1-5H2	InChI=1S/C6H11NO2/c8-6-3-7(4-6)1-2-9-5-6/h8H,1-5H2
