16
gdb 79697	2.76655	1.80866	1.41509	3.0859	68.36	-0.227	-0.0174	0.2097	923.245	0.125263	-437.822782	-437.815747	-437.814803	-437.853922	28.272	
O	 0.0123105789	 1.5117675415	 0.0876117314	-0.430478
C	 0.0386663212	 0.1093880287	 0.0255405922	 0.112974
C	-1.3140355404	-0.6541638477	 0.0234406609	-0.201413
C	-1.9489447541	-0.3697481204	-1.3381322514	-0.037811
C	-1.5227963868	 0.7880648855	-2.1607369655	-0.245794
N	-0.759698408	-0.4727522209	-2.284299064	-0.129688
C	 0.3214789143	-0.7055276917	-1.2934620602	-0.173108
C	-0.4017427857	-1.8289998995	-0.481636162	 0.445657
O	-0.2978659097	-2.99829713	-0.3006280993	-0.302151
H	 0.9220158208	 1.8269273245	 0.0942068253	 0.292955
H	 0.6739127557	-0.2944174697	 0.826908174	 0.09861
H	-1.9484009809	-0.7277766895	 0.902515327	 0.094387
H	-2.831730507	-0.9427459472	-1.6042209619	 0.113096
H	-2.1054535565	 0.9792851325	-3.0580099172	 0.119659
H	-1.0789342942	 1.6542075975	-1.6947595253	 0.151968
H	 1.3111237823	-0.8148746135	-1.7304134041	 0.091137
151.1281	238.3858	261.4282	287.7402	315.5218	440.6761	551.7062	559.1384	663.0624	677.2945	701.3335	711.4542	789.798	815.2566	830.1907	926.8775	978.0144	1015.7934	1041.0164	1047.8237	1086.5615	1097.2023	1119.8437	1131.3526	1160.0651	1166.2001	1189.7484	1240.3662	1242.7318	1283.6959	1321.0364	1366.8623	1458.7144	1500.1911	1923.6813	2999.3364	3130.6363	3154.2863	3157.5099	3167.0002	3265.4773	3818.1151
OC1C2C3CN3C1C2=O	O[C@H]1[C@H]2[C@H]3CN3[C@@H]1C2=O	
InChI=1S/C6H7NO2/c8-5-3-2-1-7(2)4(5)6(3)9/h2-5,8H,1H2	InChI=1S/C6H7NO2/c8-5-3-2-1-7(2)4(5)6(3)9/h2-5,8H,1H2/t2-,3-,4+,5+,7?/m1/s1
