21
gdb 93746	1.87887	1.72675	0.94688	0.8237	95.53	-0.215	-0.0096	0.2054	1288.8141	0.181172	-349.960333	-349.950618	-349.949674	-349.994527	36.672	
C	-0.075286582	 1.5785192055	-0.0146501284	-0.399086
C	 0.0388571011	 0.0530460035	 0.0300304555	-0.087797
C	 0.7825872267	-0.5593341456	-1.182763427	-0.220132
C	 1.5365087267	-1.7889862325	-0.6326985299	-0.295429
C	 1.6597833964	-1.5008507162	 0.8457645799	 0.206803
C	 2.5490747346	-2.3050761424	 1.7352492673	-0.51256
C	 0.8405097896	-0.4951762748	 1.2104344115	 0.121644
C	 0.6565619634	-0.0093813996	 2.5273451265	 0.209525
C	 0.469041189	 0.4326012761	 3.6342267825	-0.435345
H	 0.9156956607	 2.0420508018	-0.0745647469	 0.112992
H	-0.6520997913	 1.8984197559	-0.888839765	 0.109631
H	-0.5726678858	 1.9638324794	 0.8802517205	 0.124644
H	-0.979572859	-0.3600332166	 0.0897309634	 0.081483
H	 0.1099590298	-0.8016215949	-2.0098858581	 0.095982
H	 1.5071232976	 0.172549593	-1.557860137	 0.101844
H	 0.9716463536	-2.7211154516	-0.7856929131	 0.107413
H	 2.5100378965	-1.9444656229	-1.1131794724	 0.10192
H	 3.5943517319	-2.2406078689	 1.4064584206	 0.126369
H	 2.4896860723	-1.9684041046	 2.7726476325	 0.137437
H	 2.2795581865	-3.36893097	 1.7000777229	 0.127005
H	 0.3120030716	 0.8137133852	 4.6124966947	 0.185655
82.4304	136.9195	152.7018	163.0564	185.3225	239.9048	273.5606	357.2234	403.0894	426.4246	503.441	537.678	558.5814	602.5706	638.0113	645.0293	688.9461	825.0605	903.1289	915.6444	957.0094	998.2718	1004.7475	1028.5053	1083.1076	1114.5165	1120.8655	1178.2544	1208.3659	1227.9144	1263.9591	1310.8633	1321.5251	1349.4817	1364.4145	1408.3623	1413.1902	1479.1383	1480.9143	1482.5267	1494.0075	1496.8569	1500.9995	1687.9096	2211.2493	2983.5811	2994.3487	3015.5549	3030.2928	3036.2687	3050.4312	3059.2624	3093.6378	3098.875	3110.3434	3123.7932	3503.3068
CC1CCC(C)=C1C#C	C[C@H]1CCC(=C1C#C)C	
InChI=1S/C9H12/c1-4-9-7(2)5-6-8(9)3/h1,7H,5-6H2,2-3H3	InChI=1S/C9H12/c1-4-9-7(2)5-6-8(9)3/h1,7H,5-6H2,2-3H3/t7-/m0/s1
