16
gdb 34348	2.91209	1.6525	1.32601	4.3755	72.65	-0.2497	0.0028	0.2525	968.6885	0.126028	-396.848195	-396.841142	-396.840197	-396.879509	28.034	
N	-0.0130734704	-1.1457421664	 0.1028095318	-0.339891
C	-0.0278204048	 0.0100838859	 0.0742546588	 0.248137
C	-0.0155739459	 1.452417882	-0.0073684642	 0.186336
C	-0.3696379179	 2.0944976747	-1.3818011544	-0.232615
N	 0.8133206334	 2.9965999514	-1.2723237851	-0.321363
C	 1.2781532335	 2.30478383	-0.0458874011	-0.068986
C	 0.813862313	 2.9370968765	 1.2814805159	-0.015219
C	-0.5100743464	 3.5592273486	 1.1426482678	-0.251361
N	-0.461101509	 2.0892006274	 1.3038928537	-0.183472
H	-0.3117068323	 1.360890215	-2.1922158432	 0.129563
H	-1.3315054232	 2.6139223959	-1.4408816969	 0.126256
H	 1.4552303533	 2.922661668	-2.0514928529	 0.234422
H	 2.2743196975	 1.8636261363	-0.0586063117	 0.10001
H	 1.4322255442	 3.0341825181	 2.1674502972	 0.108266
H	-0.9338958064	 4.0331594581	 2.0221479327	 0.133603
H	-0.7924288084	 4.0102275185	 0.1979995216	 0.146313
147.6287	154.2899	239.325	319.4051	409.1919	476.1506	527.8609	547.5084	587.7305	648.5426	724.945	754.9271	790.5163	866.9505	911.6835	920.4934	977.2675	1003.1147	1027.9547	1048.1571	1055.9531	1077.4408	1107.9177	1131.6411	1153.3096	1163.5719	1227.6051	1249.8914	1288.7426	1341.4687	1355.5694	1387.2428	1493.0716	1510.4853	2354.3002	3039.7087	3088.6456	3120.2307	3135.1856	3171.1131	3223.5574	3559.7947
N#CC12CNC1C1CN21	N#C[C@]12CN[C@H]1[C@H]1CN21	
InChI=1S/C6H7N3/c7-2-6-3-8-5(6)4-1-9(4)6/h4-5,8H,1,3H2	InChI=1S/C6H7N3/c7-2-6-3-8-5(6)4-1-9(4)6/h4-5,8H,1,3H2/t4-,5+,6+,9?/m1/s1
