23
gdb 95748	2.43042	1.29928	1.07611	1.6466	81.7	-0.2466	0.077	0.3236	1254.4302	0.205282	-425.445173	-425.435626	-425.434682	-425.478577	37.714	
C	 0.0705631644	 1.4855962149	 0.0418682591	-0.409849
C	-0.0713484736	-0.0364887033	-0.0187034652	 0.345848
C	-1.5620195033	-0.417869891	 0.0300010741	-0.420573
C	 0.6280313106	-0.5821741756	-1.2834424832	-0.204565
C	 0.8542329956	-2.0919745002	-1.2404288492	 0.107927
O	 1.6152807003	-2.4275711521	-2.3943728675	-0.439165
C	 1.564829039	-2.4630286282	 0.0633917892	-0.231628
C	 0.787283708	-1.9029591526	 1.2571606408	-0.084835
O	 0.6095055138	-0.5023546906	 1.1589972115	-0.28508
H	 1.1270977641	 1.7632167331	 0.0859128491	 0.119393
H	-0.3785288188	 1.9527840563	-0.8397121062	 0.110447
H	-0.4242899713	 1.8784218964	 0.9347963743	 0.116832
H	-2.1011461255	 0.0520611349	-0.7983613724	 0.115293
H	-1.7275949055	-1.4957178561	-0.0423991852	 0.113858
H	-2.0012762974	-0.0692881645	 0.9692301768	 0.120131
H	 0.0530947253	-0.3179769372	-2.1772009737	 0.09877
H	 1.6109392083	-0.1063173882	-1.3783167023	 0.104763
H	-0.1183865317	-2.6111856529	-1.2731078617	 0.061653
H	 1.7896872462	-3.3740889242	-2.3688592319	 0.277289
H	 1.661739081	-3.5524489248	 0.1602724552	 0.08082
H	 2.5744266313	-2.0361355143	 0.0456938679	 0.109439
H	-0.180343304	-2.421904609	 1.3518201305	 0.085864
H	 1.3339016632	-2.0673672706	 2.1905294099	 0.107369
139.0314	145.8305	194.8844	234.3095	274.0288	286.8127	293.0197	324.7884	340.3914	408.0224	419.8397	470.96	488.8592	498.1448	606.7571	759.6009	827.3249	867.0247	886.5253	918.3425	930.2551	959.5572	995.5491	1013.5667	1064.3709	1082.1348	1089.0632	1122.7314	1173.0326	1204.035	1225.8026	1243.3206	1261.1903	1283.4231	1304.2873	1339.132	1346.5567	1390.0235	1396.1447	1408.1232	1416.9766	1438.9539	1469.9831	1477.0901	1486.3806	1492.1185	1495.1685	1505.1649	1515.4243	2955.4492	2975.0904	3020.1712	3037.4091	3040.2816	3046.6427	3071.7359	3081.0643	3084.8778	3111.0898	3117.1826	3120.7725	3121.2903	3811.089
CC1(C)CC(O)CCO1	CC1(C)C[C@@H](O)CCO1	
InChI=1S/C7H14O2/c1-7(2)5-6(8)3-4-9-7/h6,8H,3-5H2,1-2H3	InChI=1S/C7H14O2/c1-7(2)5-6(8)3-4-9-7/h6,8H,3-5H2,1-2H3/t6-/m0/s1
