21
gdb 61540	3.44155	0.86763	0.82963	2.1758	80.33	-0.2598	-0.0367	0.2231	1479.6936	0.179953	-424.225596	-424.215693	-424.214749	-424.260943	36.7	
C	 0.1565806688	 1.4410448193	 0.0284190705	-0.469623
C	 0.1106942214	-0.0747642135	-0.0115384886	 0.396749
C	-1.1905597136	-0.6761111866	-0.5225820879	-0.295254
C	-1.4667098633	-0.4105615668	-2.0176195862	 0.05088
O	-0.5089908655	-1.0173644791	-2.8423075206	-0.429501
C	-2.8540212578	-0.8907582168	-2.3874395236	 0.137087
O	-3.0387619851	-1.6834290429	-3.2798547712	-0.262685
C	 1.3902978154	-0.8186081584	-0.3037443847	-0.277792
C	 0.8191160856	-0.8279913765	 1.093410813	-0.32639
H	 1.1028851237	 1.7910416684	 0.4515253812	 0.117001
H	 0.0691985016	 1.8791422526	-0.9724774507	 0.121324
H	-0.6539923449	 1.8492263957	 0.6448349953	 0.110151
H	-1.1796209303	-1.762404302	-0.3763700235	 0.106505
H	-2.0304364708	-0.2786960585	 0.0657133681	 0.093152
H	-1.4765727257	 0.6836710496	-2.1809388179	 0.093034
H	-1.0132015438	-1.5689886211	-3.4615905082	 0.292863
H	-3.6940475456	-0.4743752884	-1.7940819457	 0.096563
H	 1.3230141602	-1.7207419125	-0.8989928074	 0.12386
H	 2.285790626	-0.233906659	-0.4857544794	 0.107497
H	 1.3242304869	-0.2489222076	 1.8594286594	 0.107653
H	 0.3716858768	-1.7468609261	 1.4585953182	 0.106928
40.8692	84.1421	112.2823	188.2235	225.607	277.0178	305.3161	329.0094	361.5886	375.3355	410.421	450.155	515.6389	718.4878	752.6584	781.2554	839.5402	864.4538	880.9454	936.5544	949.2515	956.7428	1015.0866	1019.6197	1051.9668	1076.5975	1090.3604	1119.0585	1165.8603	1186.719	1221.689	1259.291	1312.5096	1340.1293	1346.6087	1385.4195	1402.7187	1421.653	1438.472	1466.3471	1473.0716	1494.0663	1501.0837	1512.7366	1810.997	2921.1153	2940.4808	3004.341	3020.9288	3064.4248	3079.1347	3101.1169	3125.9099	3141.5086	3206.3483	3231.1174	3686.1937
CC1(CC(O)C=O)CC1	CC1(C[C@@H](O)C=O)CC1	
InChI=1S/C7H12O2/c1-7(2-3-7)4-6(9)5-8/h5-6,9H,2-4H2,1H3	InChI=1S/C7H12O2/c1-7(2-3-7)4-6(9)5-8/h5-6,9H,2-4H2,1H3/t6-/m1/s1
