20
gdb 78773	2.60089	1.75364	1.3344	1.5277	77.86	-0.2465	0.0597	0.3061	1029.2273	0.170637	-403.090963	-403.082504	-403.081559	-403.123259	33.494	
C	-0.0493398851	 1.6020147035	-0.0197931608	-0.464979
C	 0.072822058	 0.0795850601	-0.0019588873	 0.321568
C	-1.3047203023	-0.5684152439	 0.1964572472	-0.438786
C	 0.8343024646	-0.6312833433	-1.1185923054	-0.070481
C	 2.2886351275	-0.7071359583	-0.7906290025	-0.120808
C	 2.5251612073	-0.1194116018	 0.5914135317	 0.124585
O	 2.8006026796	 1.2446541408	 0.8096800146	-0.430474
C	 1.1155290894	-0.6348821946	 0.9076997434	-0.08638
N	 1.3272510026	-1.718526713	-0.2077437996	-0.169447
H	 0.9076564535	 2.0871369362	-0.2057706946	 0.139095
H	-0.7612486834	 1.9088262268	-0.7952214651	 0.103376
H	-0.4340665791	 1.9698813327	 0.9383180741	 0.110582
H	-1.9842611643	-0.2887152932	-0.6164006749	 0.109826
H	-1.2343092653	-1.6592034359	 0.2221350103	 0.132919
H	-1.7558423586	-0.2286088543	 1.1353466945	 0.110991
H	 0.4724719725	-0.8676280719	-2.1149301888	 0.087857
H	 3.0297006885	-1.0077874777	-1.5236305767	 0.090784
H	 3.2527857836	-0.75461971	 1.1141573418	 0.087101
H	 3.7526735373	 1.3741262137	 0.7679019128	 0.286287
H	 0.8480141938	-0.9454388559	 1.9169807452	 0.076384
167.0329	179.5748	196.9534	233.3407	259.5755	273.3959	355.4503	369.0646	374.9017	566.598	592.0541	634.723	740.8271	773.4157	799.1919	814.8182	897.1697	925.3824	955.6344	968.3218	981.0563	1018.2119	1025.0269	1049.2788	1054.5097	1127.6334	1141.7749	1147.9581	1182.652	1217.9327	1234.8198	1260.9572	1270.9884	1292.6337	1369.2683	1377.9374	1400.8767	1422.7052	1441.2842	1485.5557	1489.1699	1504.6779	1513.133	3017.14	3026.2557	3031.6564	3083.2879	3090.7353	3115.677	3127.0137	3157.1863	3160.8183	3175.5095	3828.2643
CC1(C)C2C3C(O)C1N23	CC1(C)[C@H]2[C@H]3[C@@H](O)[C@@H]1N23	
InChI=1S/C7H11NO/c1-7(2)5-3-4(9)6(7)8(3)5/h3-6,9H,1-2H3	InChI=1S/C7H11NO/c1-7(2)5-3-4(9)6(7)8(3)5/h3-6,9H,1-2H3/t3-,4-,5-,6+,8?/m1/s1
