22
gdb 109893	2.79507	1.30451	1.03149	1.9695	83.06	-0.2115	0.0736	0.2851	1253.5233	0.193575	-404.30307	-404.293916	-404.292972	-404.336997	34.573	
C	-0.1013482578	 1.5371984762	-0.0968636187	-0.383435
C	 0.041736135	 0.0167984696	-0.1334566196	-0.126628
N	 0.7135577496	-0.5000602385	 1.0456789956	-0.097009
C	 2.1870315494	-0.2744731232	 1.1762942938	 0.036584
C	 2.6249277121	 0.7431412271	 2.2146745592	-0.399679
C	 2.3696416033	-1.777113456	 1.5018862897	 0.082424
O	 2.1089812094	-2.1325802298	 2.8742573478	-0.295335
C	 0.7304194737	-2.4819348836	 2.5748372883	-0.07756
C	 0.8825669387	-1.9679279045	 1.134735998	-0.041109
H	 0.8762191876	 2.0295599226	-0.1106996794	 0.120334
H	-0.6607544901	 1.8903481019	-0.9687240726	 0.111731
H	-0.6266094227	 1.8515138458	 0.8095439491	 0.12503
H	-0.9538475886	-0.4425989777	-0.1730970584	 0.098934
H	 0.5611536316	-0.2776179202	-1.0685667634	 0.070278
H	 2.6430365382	-0.057166442	 0.1949382876	 0.05865
H	 2.2594139416	 0.4473923191	 3.2005360304	 0.135207
H	 3.718283791	 0.8048703969	 2.2534911262	 0.111073
H	 2.2371813813	 1.7387217354	 1.9805785415	 0.115827
H	 3.2300833113	-2.3065552149	 1.0874656943	 0.07757
H	 0.5728538981	-3.5643149805	 2.670380403	 0.095727
H	 0.0139152573	-1.9358311562	 3.1965671531	 0.107635
H	 0.4976510402	-2.5578083273	 0.3001032245	 0.07375
73.2311	108.3826	178.0051	199.3009	214.7407	235.6471	294.6635	335.9319	387.1026	439.4801	559.4143	667.7497	739.0448	803.1551	823.271	828.7952	885.6267	927.8884	952.9241	968.4499	998.7732	1034.2374	1059.7762	1070.4804	1108.386	1117.4453	1130.7153	1160.7958	1185.3753	1195.3866	1211.5209	1229.878	1280.3053	1296.8522	1319.5055	1337.3253	1355.4247	1366.4742	1399.1502	1404.2119	1418.6292	1483.9421	1489.3935	1490.5669	1498.2127	1505.1945	1513.2052	2887.7318	2950.161	3011.5604	3037.3278	3038.7981	3040.2894	3078.4112	3083.645	3092.3229	3104.6849	3109.0001	3118.3628	3133.2404
CCN1C(C)C2OCC12	CCN1[C@@H](C)[C@H]2OC[C@@H]12	
InChI=1S/C7H13NO/c1-3-8-5(2)7-6(8)4-9-7/h5-7H,3-4H2,1-2H3	InChI=1S/C7H13NO/c1-3-8-5(2)7-6(8)4-9-7/h5-7H,3-4H2,1-2H3/t5-,6+,7+/m0/s1
