14
gdb 16690	4.47302	1.77564	1.65923	4.2798	57.05	-0.2622	0.0095	0.2717	787.7978	0.108472	-419.682439	-419.676202	-419.675258	-419.712631	24.445	
O	-0.0003468508	 1.3918760087	-0.1266163856	-0.432501
C	 0.0237676665	-0.0051710476	-0.0331773067	 0.128562
C	 0.0181217374	-0.6171475246	 1.4030476782	 0.048439
C	-1.4629762565	-0.199057361	 1.5088584402	-0.245987
C	-1.4275123656	-0.6022187615	-0.0084279982	-0.206317
C	-1.0530529085	-2.0688679524	 0.1336951853	 0.448752
O	-1.437397292	-3.0633796216	-0.3995578969	-0.345368
O	-0.0623760342	-2.0373586983	 1.0958023578	-0.243581
H	 0.903095775	 1.7166069971	-0.0536361162	 0.294663
H	 0.7336606213	-0.4624917885	-0.7340116872	 0.094089
H	 0.7786284797	-0.4458351653	 2.1622082022	 0.096365
H	-2.0982677676	-0.7793517012	 2.1802733015	 0.120469
H	-1.5974097442	 0.8719437834	 1.6466694008	 0.135405
H	-2.1915061806	-0.3480319772	-0.7369989551	 0.10701
168.6112	278.9152	305.2485	308.084	458.0595	475.0278	545.9467	643.2619	744.1448	803.3254	865.676	874.2992	904.2945	932.4001	955.8277	1014.7835	1037.6787	1085.769	1117.1696	1125.1629	1147.5309	1195.9445	1229.6306	1247.0141	1257.2774	1310.9842	1317.9451	1426.0868	1488.7027	1917.1427	3031.3698	3091.1525	3147.118	3171.1705	3174.6845	3816.2149
OC1C2CC1C(=O)O2	O[C@H]1[C@H]2C[C@@H]1C(=O)O2	
InChI=1S/C5H6O3/c6-4-2-1-3(4)8-5(2)7/h2-4,6H,1H2	InChI=1S/C5H6O3/c6-4-2-1-3(4)8-5(2)7/h2-4,6H,1H2/t2-,3+,4+/m0/s1
