22
gdb 61584	3.79251	0.83184	0.72224	1.9241	83.27	-0.2329	0.0877	0.3206	1603.7352	0.192898	-404.291767	-404.282064	-404.28112	-404.327133	35.52	
C	 0.2285770219	 1.7346294346	-0.1135698411	-0.403744
C	 0.0549518097	 0.2173620704	 0.0358404132	-0.013225
C	 0.6153206193	-0.5768172786	-1.1551430228	-0.140658
N	-0.0829031829	-0.2648622404	-2.3979671192	-0.067849
C	 0.564973079	 0.670141019	-3.3138909418	-0.219738
C	 0.5224969366	-0.7851764749	-3.618339504	-0.222158
C	 0.708842059	-0.2646353545	 1.3134925094	 0.094108
C	-0.0406781943	-0.4511821046	 2.5614753942	-0.182932
O	 0.3542368539	-1.5734241365	 1.7692526739	-0.244257
H	 1.2873077853	 2.0063902748	-0.2037990653	 0.109274
H	-0.289920778	 2.099506589	-1.0029000866	 0.133974
H	-0.1770033275	 2.2626595591	 0.7554835336	 0.113878
H	-1.0151978791	-0.0135318179	 0.0999266616	 0.088229
H	 1.7060641103	-0.4040597059	-1.2396964224	 0.071841
H	 0.4729612083	-1.6434730192	-0.9500661758	 0.121895
H	-0.0932562661	 1.363649464	-3.8298604333	 0.115632
H	 1.5274656728	 1.0877425919	-3.0215982646	 0.108764
H	 1.456957706	-1.3373881915	-3.5275301786	 0.108743
H	-0.1676456444	-1.1776986675	-4.3598130084	 0.116312
H	 1.7772179945	-0.0483044427	 1.3977950227	 0.086174
H	 0.4640619739	-0.3557442295	 3.5219893414	 0.112643
H	-1.110519558	-0.2457388991	 2.5775237942	 0.113092
63.8054	65.735	107.8581	135.6345	212.0329	237.7487	276.6077	321.4367	380.4875	414.5624	485.6478	517.0173	768.3068	807.0603	838.8006	865.2863	894.5998	897.5868	930.2256	957.6992	973.4272	1029.4602	1037.186	1088.1115	1112.1373	1118.4038	1132.4167	1146.853	1154.5352	1165.7826	1177.3231	1191.1195	1199.5756	1275.1491	1287.2905	1301.397	1321.4527	1357.7017	1391.625	1412.0114	1447.1805	1486.4837	1493.8494	1500.7536	1502.9871	1523.5808	1528.7271	2913.0717	3029.4373	3039.4158	3066.4647	3074.4154	3080.6637	3091.1168	3094.0567	3096.05	3125.4102	3165.8454	3173.5597	3188.1707
CC(CN1CC1)C1CO1	C[C@@H](CN1CC1)[C@H]1CO1	
InChI=1S/C7H13NO/c1-6(7-5-9-7)4-8-2-3-8/h6-7H,2-5H2,1H3	InChI=1S/C7H13NO/c1-6(7-5-9-7)4-8-2-3-8/h6-7H,2-5H2,1H3/t6-,7+/m0/s1
