17
gdb 51808	4.21529	0.97743	0.8747	3.205	69.35	-0.2491	0.0044	0.2536	1297.1889	0.136123	-458.964511	-458.956568	-458.955624	-458.998145	29.111	
O	 0.0715860528	-0.0126907691	-0.1314955985	-0.273364
C	 0.0932880236	 1.1729843978	-0.2673880604	 0.167443
O	 0.9983774406	 1.9600776599	 0.3433718852	-0.186105
C	 0.9649998505	 3.3729041279	 0.0868631866	 0.081713
C	 1.0774270174	 4.1212515039	 1.4398990158	-0.125187
O	 1.8601822226	 5.2828618758	 1.2128709499	-0.251569
C	 2.6566104417	 5.0622112665	 0.0761919239	 0.11925
C	 3.4956121791	 3.8198201629	 0.0011438204	-0.323723
C	 2.1489482101	 3.8808534611	-0.7049158708	-0.096614
H	-0.6199729793	 1.7437841928	-0.894337247	 0.077259
H	 0.0312359555	 3.616031688	-0.4331904957	 0.096667
H	 0.110328938	 4.4340244457	 1.8420516359	 0.120318
H	 1.5516288856	 3.448140253	 2.165909633	 0.124483
H	 2.9834707944	 5.9900974504	-0.3767476778	 0.11113
H	 4.3756237349	 3.8538966693	-0.6311743273	 0.123547
H	 3.5955127579	 3.1871318121	 0.8757625648	 0.136482
H	 2.0994934347	 3.8690129419	-1.786661298	 0.098269
40.7421	102.6692	149.751	237.4247	278.1569	363.9286	407.2128	457.5618	630.2348	693.3128	732.756	778.1853	814.5729	897.5669	955.1731	972.0056	986.9619	1036.9509	1041.0207	1044.8308	1051.311	1076.696	1102.7457	1137.1677	1174.5387	1196.487	1202.6481	1239.2438	1304.1056	1319.0567	1361.5605	1382.9195	1405.7746	1445.0546	1482.2247	1525.1076	1867.3721	2942.7209	3024.9763	3041.5961	3095.7605	3141.939	3184.6292	3194.7535	3229.8218
O=COC1COC2CC12	O=CO[C@H]1CO[C@H]2C[C@@H]12	
InChI=1S/C6H8O3/c7-3-9-6-2-8-5-1-4(5)6/h3-6H,1-2H2	InChI=1S/C6H8O3/c7-3-9-6-2-8-5-1-4(5)6/h3-6H,1-2H2/t4-,5+,6+/m1/s1
