18
gdb 71175	2.56953	1.67549	1.34867	2.0523	80.99	-0.2353	0.029	0.2642	1019.1341	0.146922	-364.714067	-364.706154	-364.70521	-364.746085	31.492	
C	-0.0332097608	 1.5560157631	 0.0171031149	-0.516352
C	 0.0198645749	 0.0540619228	 0.0702852341	 0.2944
C	-1.2636042867	-0.8132489835	 0.2157092824	-0.292268
C	-0.346855009	-1.8805002376	 0.8049987867	-0.029509
C	 0.6925926911	-0.8870386233	 1.1535648222	-0.118594
N	 0.9745896424	-1.8802900896	 0.0784394319	-0.150738
C	 0.8534811208	-0.7766109209	-0.9460812629	-0.171576
C	 0.3050180565	-1.110235983	-2.2483136147	 0.337342
C	-0.1553985143	-1.3694668091	-3.3289409569	-0.443371
H	 0.9717287477	 1.9921588777	 0.0069970234	 0.120705
H	-0.5515682441	 1.8882699547	-0.8897267459	 0.132401
H	-0.5698990859	 1.9672998954	 0.8785061872	 0.121943
H	-1.9252856035	-0.4071346179	 0.9858838051	 0.103327
H	-1.8304860919	-1.0352267582	-0.6928853307	 0.112212
H	-0.6057022821	-2.8064153463	 1.3007517575	 0.099903
H	 1.3270494454	-0.7269991025	 2.015293935	 0.098409
H	 1.856159666	-0.3503182605	-1.0593871156	 0.1038
H	-0.5550733065	-1.6067707914	-4.2838932235	 0.197964
120.3651	148.6871	211.3774	266.7542	291.7062	374.8781	406.2467	534.4738	555.7679	623.1426	626.3193	653.2613	738.4368	757.2191	814.1315	834.1167	854.0383	926.0811	940.7803	969.8597	975.0537	1015.1458	1027.9625	1056.2135	1113.1743	1128.4729	1165.151	1181.8606	1202.0741	1222.2077	1259.5591	1314.0181	1341.8427	1375.4526	1415.0564	1488.079	1492.9895	1496.7993	2228.4102	3026.2164	3049.0905	3054.9698	3092.5117	3096.3757	3110.7627	3198.5948	3213.9227	3501.8398
CC12CC3C1N3C2C#C	C[C@]12C[C@@H]3[C@H]1N3[C@H]2C#C	
InChI=1S/C8H9N/c1-3-6-8(2)4-5-7(8)9(5)6/h1,5-7H,4H2,2H3	InChI=1S/C8H9N/c1-3-6-8(2)4-5-7(8)9(5)6/h1,5-7H,4H2,2H3/t5-,6+,7-,8-,9?/m1/s1
