17
gdb 6180	3.84856	1.59768	1.49402	4.3614	70.78	-0.2402	-0.0254	0.2149	922.1938	0.141995	-363.920944	-363.912984	-363.91204	-363.953178	30.213	
C	-0.0426319866	 1.557431956	 0.0128497384	-0.406261
C	-0.0265017674	 0.0158238821	 0.007754649	 0.211472
C	-1.4639591532	-0.5402868086	-0.0285774458	-0.40633
N	 0.7734693006	-0.5044265577	-1.0917344359	-0.342667
C	 1.8627768718	-1.250711811	-0.6982288878	 0.391636
O	 2.6738873226	-1.7872952304	-1.4232559785	-0.388419
C	 1.8030166171	-1.2398685497	 0.7974602709	-0.204392
C	 0.746465362	-0.531332145	 1.1926604406	-0.075751
H	 0.9760197153	 1.9526467924	 0.0282553668	 0.131831
H	-0.5493899947	 1.9368929834	-0.8808743535	 0.117451
H	-0.5792098961	 1.9374519815	 0.8879538815	 0.120014
H	-1.9878714057	-0.1861342223	-0.9228013558	 0.117459
H	-1.4533890393	-1.6328904979	-0.0424953064	 0.131842
H	-2.0318688578	-0.2064780291	 0.8456003618	 0.120051
H	 0.5651469998	-0.3457505732	-2.0632991682	 0.246682
H	 2.537289307	-1.7497061219	 1.4046613791	 0.122449
H	 0.4261629246	-0.3341999685	 2.2085633238	 0.112933
50.2115	203.0983	240.5735	267.0296	325.2414	340.4867	358.1545	393.977	501.1098	517.203	605.2718	686.5801	726.0022	834.5166	854.2396	920.5839	933.4417	948.5688	975.739	981.2688	1021.4068	1091.5175	1176.8804	1209.2934	1215.0923	1297.2776	1345.7531	1393.5786	1397.1819	1422.0876	1480.3976	1484.4765	1501.9296	1505.2514	1656.8647	1821.3794	3032.7946	3037.6099	3100.0414	3106.3185	3124.5342	3126.5715	3205.9115	3248.2114	3663.1416
CC1(C)NC(=O)C=C1	CC1(C)NC(=O)C=C1	
InChI=1S/C6H9NO/c1-6(2)4-3-5(8)7-6/h3-4H,1-2H3,(H,7,8)	InChI=1S/C6H9NO/c1-6(2)4-3-5(8)7-6/h3-4H,1-2H3,(H,7,8)
