16
gdb 10122	2.49865	1.60757	1.03228	5.3095	63.41	-0.2721	-0.0474	0.2247	1113.9447	0.127089	-420.907916	-420.89895	-420.898006	-420.942175	30.305	
C	-0.1489400285	 1.5853666813	 0.0108400994	-0.38909
C	 0.0556727624	 0.0697212075	 0.0581551215	-0.201749
C	 0.7646748442	-0.4749076387	-1.1852044017	 0.011713
O	 2.0675759231	 0.0902121348	-1.2369094648	-0.180849
C	 2.7719529474	-0.0498063523	-2.3849954164	 0.187084
O	 3.8931565175	 0.3397732624	-2.4920337429	-0.270866
C	 0.8264510273	-1.9991803991	-1.1764084988	 0.152599
O	 1.822240412	-2.6337462139	-1.3947424491	-0.226134
H	 0.8091300844	 2.1026237573	-0.0795624271	 0.149029
H	-0.7732302942	 1.8734746517	-0.842093754	 0.117907
H	-0.6426754413	 1.9356311712	 0.9213055783	 0.12465
H	 0.6486257594	-0.2062583224	 0.9375930302	 0.130372
H	-0.909674587	-0.4420314181	 0.149475873	 0.110086
H	 0.1858071933	-0.1883119988	-2.0807626075	 0.109316
H	 2.1902019817	-0.5240955516	-3.1962534672	 0.083019
H	-0.1505108119	-2.4890022014	-0.9650151529	 0.092913
80.7245	88.8048	116.9172	162.0897	192.1562	227.1527	255.8884	315.667	386.9214	463.5973	596.0302	703.9274	786.1411	861.728	949.0018	984.6135	1013.2288	1035.5156	1077.1731	1139.8117	1164.1614	1191.4314	1271.6534	1306.4344	1356.9726	1379.5971	1409.1354	1414.1199	1436.1391	1477.8841	1496.5212	1507.8781	1841.147	1876.0617	2885.0733	2959.6663	2975.2614	3037.1817	3041.6731	3077.4925	3111.0097	3131.847
CCC(OC=O)C=O	CC[C@@H](OC=O)C=O	
InChI=1S/C5H8O3/c1-2-5(3-6)8-4-7/h3-5H,2H2,1H3	InChI=1S/C5H8O3/c1-2-5(3-6)8-4-7/h3-5H,2H2,1H3/t5-/m1/s1
