18
gdb 40374	3.60353	1.28339	1.16298	3.4706	75.33	-0.2121	0.0565	0.2686	1104.5439	0.14718	-401.823459	-401.815943	-401.814999	-401.855801	29.939	
C	-0.0103117987	 1.5141715303	-0.1366762864	-0.27838
C	 1.3047015881	 0.7937452668	 0.0043182084	-0.26563
C	 0.0101744671	 0.0109616758	 0.0277846779	-0.126279
C	-0.4557351456	-0.6351391313	 1.2745470422	 0.339003
N	-0.277630303	-2.0793821261	 1.5614471012	-0.359403
C	-1.6379262372	-1.4814195699	 1.5668654089	-0.182637
C	-1.8268976771	-0.7471417438	 2.9414410688	 0.026488
O	-0.6372076741	-0.8895206142	 3.7160734889	-0.211908
C	-0.6545221498	 0.0827619696	 2.6741330623	-0.0352
H	-0.3533093725	 2.1188561139	 0.6955954076	 0.117106
H	-0.2824630637	 1.9103769742	-1.1084653628	 0.115963
H	 1.9432046242	 0.7018198918	-0.8670137806	 0.116486
H	 1.8413986128	 0.8974860665	 0.9412184979	 0.124015
H	-0.2151107063	-0.5630839907	-0.868123461	 0.080344
H	-0.1688263569	-2.5394583666	 0.6561505553	 0.226766
H	-2.4274661303	-1.8291974563	 0.9135210132	 0.096958
H	-2.7562008697	-0.5392797587	 3.4571782093	 0.109209
H	-0.4231536371	 1.1098166388	 2.9300585489	 0.107101
60.8216	144.6138	172.8253	342.3896	385.9444	420.8803	481.2337	550.0687	672.0588	757.5585	776.4273	801.4526	814.0326	827.5124	852.5015	883.3223	898.6014	902.9068	927.0429	960.0293	987.4694	997.3008	1029.7829	1063.4621	1079.513	1096.8871	1118.2597	1130.2212	1197.1863	1201.0609	1208.9699	1224.3396	1265.4541	1316.2342	1348.873	1379.6455	1466.7296	1468.7696	1508.0265	3128.3588	3135.1999	3139.8502	3181.4677	3195.7176	3204.4362	3213.5442	3228.4221	3457.0196
C1CC1C12NC1C1OC21	C1CC1[C@]12N[C@H]1[C@H]1O[C@@H]21	
InChI=1S/C7H9NO/c1-2-3(1)7-5(8-7)4-6(7)9-4/h3-6,8H,1-2H2	InChI=1S/C7H9NO/c1-2-3(1)7-5(8-7)4-6(7)9-4/h3-6,8H,1-2H2/t4-,5+,6-,7+/m1/s1
