17
gdb 80219	2.0857	1.6026	1.18601	3.0814	75.3	-0.2454	-0.0393	0.2061	1100.2933	0.134075	-421.832908	-421.824274	-421.82333	-421.866365	31.561	
C	-0.1218586907	 1.3105411261	-0.1351914072	-0.423023
C	 0.1861232631	-0.1507954506	 0.1129132822	-0.046524
C	 1.5014994913	-0.797999503	-0.0203430011	-0.100761
C	 2.6608258701	 0.1112061419	 0.4121978045	-0.36626
C	 2.004789755	 0.1852050828	 1.8152553069	 0.340615
O	 2.3913446339	 0.5872655258	 2.8767531292	-0.309369
C	 0.8319360593	-0.660398956	 1.4186010381	 0.084878
C	 0.1725748245	-1.7052780998	 2.2224444048	 0.05557
O	-0.62343558	-2.5013483683	 1.7774570775	-0.27321
H	 0.6952884747	 1.9740520386	 0.1562042972	 0.133001
H	-0.3256489363	 1.4741389737	-1.1988226621	 0.131655
H	-1.0111550389	 1.6113747771	 0.4262729979	 0.138207
H	-0.632986812	-0.8241803294	-0.1343068591	 0.133926
H	 1.6250284558	-1.7565832198	-0.5076168246	 0.127749
H	 3.621029671	-0.4075239991	 0.4796863101	 0.14174
H	 2.7997718352	 1.0438276058	-0.1398412286	 0.13095
H	 0.4772871739	-1.7228291158	 3.2894073742	 0.100856
89.1935	120.159	163.7482	182.186	200.695	266.0299	338.527	382.9607	504.4169	564.889	606.7205	625.4071	695.2992	732.1494	852.9646	871.7301	942.7524	973.7125	1001.9401	1023.3068	1048.6349	1061.9414	1109.235	1126.6848	1145.133	1215.6202	1242.3913	1287.5312	1338.5861	1415.9067	1424.254	1445.7071	1465.935	1492.2034	1503.0266	1788.975	1871.6938	2920.0588	3043.0908	3067.9089	3107.0088	3118.6418	3123.6545	3142.3888	3207.2077
CC1C2CC(=O)C12C=O	C[C@H]1[C@H]2CC(=O)[C@@]12C=O	
InChI=1S/C7H8O2/c1-4-5-2-6(9)7(4,5)3-8/h3-5H,2H2,1H3	InChI=1S/C7H8O2/c1-4-5-2-6(9)7(4,5)3-8/h3-5H,2H2,1H3/t4-,5+,7-/m0/s1
