15
gdb 123566	3.96785	1.64347	1.2697	4.4312	70.48	-0.2305	-0.006	0.2245	940.8732	0.115911	-416.766046	-416.759917	-416.758973	-416.79647	24.709	
C	 0.0282656637	 1.4671485296	 0.0028625662	-0.245283
C	 1.2751127328	 0.6670019104	 0.0288723563	-0.011465
C	 1.9844695709	 0.3751918495	 1.3766138693	-0.391584
C	 0.8956924866	-0.3727820862	 2.0979891716	 0.139344
C	-0.1576868035	-0.5379632944	 1.2597785713	 0.439411
O	-1.162941775	-1.1984212547	 1.8127254766	-0.227362
N	-0.7633759761	-1.5104860017	 3.1398185626	-0.151077
C	 0.4493524775	-1.0089395609	 3.2784057355	-0.123893
N	-0.0669670299	-0.0214693568	-0.0417817544	-0.19863
H	-0.2983157531	 1.9518010936	 0.9187377585	 0.135472
H	-0.275998791	 1.9565384545	-0.9167247241	 0.134431
H	 1.8632019152	 0.5983414189	-0.8796618057	 0.112902
H	 2.880940492	-0.2320150161	 1.2076764007	 0.127452
H	 2.3088808553	 1.2952645398	 1.8752353843	 0.127141
H	 0.9403017449	-1.1414491354	 4.2329250714	 0.133139
161.6099	236.3127	340.9294	421.6982	437.6558	600.8973	632.815	697.6001	738.0952	765.284	778.1249	825.5291	853.0179	906.3013	917.6958	958.9412	972.8028	1059.5849	1091.6318	1114.5424	1121.4965	1176.543	1179.6262	1202.086	1246.1107	1289.2791	1365.2715	1382.4434	1416.2291	1483.0377	1499.657	1512.5741	1647.6271	3036.3097	3066.8687	3118.7202	3175.0417	3213.1971	3235.9525
C1C2CC3=C(ON=C3)N12	C1[C@H]2Cc3c(onc3)N12	
InChI=1S/C6H6N2O/c1-4-2-7-9-6(4)8-3-5(1)8/h2,5H,1,3H2	InChI=1S/C6H6N2O/c1-4-2-7-9-6(4)8-3-5(1)8/h2,5H,1,3H2/t5-,8?/m1/s1
