16
gdb 12713	2.90457	2.22993	1.6867	1.9972	64.62	-0.2447	-0.0278	0.2169	821.7343	0.129278	-383.726087	-383.718628	-383.717684	-383.757858	27.598	
C	-0.190039133	 1.5440146285	-0.0701170792	-0.49863
C	 0.0224497946	 0.0507511537	 0.0143993172	 0.155891
C	-1.1755384761	-0.875450883	 0.3547346395	-0.117401
O	-0.4127979907	-1.6060058534	 1.3376260702	-0.288152
C	 0.7468216244	-0.7784906955	 1.1343944603	 0.064728
C	 1.7293274962	-1.3895031291	 0.1067387764	-0.362804
C	 0.9718553767	-0.6213173879	-0.9976272795	 0.360271
O	 1.1071401676	-0.5131950557	-2.1815131823	-0.297241
H	 0.7618932477	 2.0841105656	-0.0872693803	 0.127475
H	-0.7263384916	 1.7968649819	-0.9910850139	 0.142168
H	-0.7764905442	 1.9104479052	 0.7785867244	 0.125108
H	-2.0116439406	-0.3355169256	 0.817637412	 0.109563
H	-1.5610411531	-1.5150648736	-0.4476198388	 0.117461
H	 1.1467931111	-0.3646818903	 2.0621033275	 0.086327
H	 2.7578336042	-1.0230141618	 0.2036532331	 0.134396
H	 1.7406510871	-2.479833059	 0.0407045333	 0.140839
83.6214	170.4656	176.0361	259.4956	269.752	372.5632	466.848	508.9504	615.7483	675.4769	735.42	829.7415	859.2513	914.7373	955.5561	989.0797	1006.1949	1026.845	1045.3189	1113.5453	1140.2331	1157.9122	1174.4845	1205.6227	1234.6493	1279.2628	1316.6934	1366.7793	1409.0822	1415.6366	1488.233	1491.1066	1522.7811	1888.1508	3011.1554	3032.4404	3050.8377	3063.2729	3096.0849	3102.1446	3104.4784	3120.8528
CC12COC1CC2=O	C[C@]12CO[C@H]1CC2=O	
InChI=1S/C6H8O2/c1-6-3-8-5(6)2-4(6)7/h5H,2-3H2,1H3	InChI=1S/C6H8O2/c1-6-3-8-5(6)2-4(6)7/h5H,2-3H2,1H3/t5-,6+/m0/s1
