17
gdb 88719	2.60156	1.40539	1.12267	3.8354	73.38	-0.2339	-0.0098	0.224	1114.332	0.134812	-417.949547	-417.94086	-417.939916	-417.983345	31.507	
C	-0.7083873846	 1.0047121011	 0.2919540374	-0.334819
N	 0.0960464982	-0.2051668053	 0.1452097441	-0.080117
C	 1.4927713514	-0.0712898358	-0.2239210284	-0.248894
C	 1.1009292681	-0.6363843817	 1.1048627335	-0.041944
C	 1.5481493636	 0.0421330684	 2.3661564371	 0.050663
O	 1.1908834778	 1.3885618586	 2.6538633407	-0.2238
C	 0.6914297062	 0.3736208398	 3.5308397088	-0.115278
C	-0.7339840849	 0.1345623332	 3.541672306	 0.319615
N	-1.8694203978	-0.0739876174	 3.5983793277	-0.327734
H	-0.1621455689	 1.8661340468	 0.6942862458	 0.124041
H	-1.0929914749	 1.261537204	-0.7000188031	 0.12192
H	-1.5603729083	 0.793987723	 0.9422076745	 0.150024
H	 1.8584390358	-0.7195312851	-1.0166445375	 0.119382
H	 1.9240394194	 0.930448358	-0.2131205595	 0.116225
H	 1.1403215161	-1.7201688314	 1.2255486457	 0.10898
H	 2.5816288836	-0.2021683508	 2.6269603033	 0.117801
H	 1.1404339693	 0.3711372044	 4.5227239839	 0.143934
54.0415	105.1303	180.9813	200.6605	242.0175	262.1551	319.3411	354.5437	430.5774	562.1584	590.4351	670.3524	714.4238	759.6634	851.3688	887.2595	949.1892	973.9337	1041.3558	1047.975	1089.7161	1117.3441	1123.233	1137.815	1151.4016	1176.9476	1207.7309	1280.6527	1343.0489	1379.4539	1402.6376	1446.3284	1456.7908	1494.1444	1505.4358	1514.7715	2360.8066	3023.1537	3072.7916	3079.6653	3090.9691	3094.9503	3128.3047	3130.9163	3168.9614
CN1CC1C1OC1C#N	CN1C[C@H]1[C@H]1O[C@H]1C#N	
InChI=1S/C6H8N2O/c1-8-3-4(8)6-5(2-7)9-6/h4-6H,3H2,1H3	InChI=1S/C6H8N2O/c1-8-3-4(8)6-5(2-7)9-6/h4-6H,3H2,1H3/t4-,5-,6+,8?/m0/s1
