15
gdb 127826	4.53797	1.0939	0.88723	3.8292	72.34	-0.2483	-0.0561	0.1922	1251.9776	0.113173	-450.128603	-450.120322	-450.119377	-450.161917	29.618	
C	-0.0717349005	 1.3866137054	 0.0662828605	-0.343236
N	-0.0589587081	-0.0625273137	 0.0341400988	-0.271205
C	 0.5584761066	-0.6181459586	-0.9350118138	 0.250606
N	 1.2532292364	-0.0216195948	-1.9625923467	-0.566772
C	 0.6008622281	-2.0936671054	-1.0004085573	 0.461401
N	 1.1108103449	-2.8048683947	-1.9690181323	-0.339434
C	 0.8788349641	-4.0808857594	-1.5283627415	 0.034948
N	 0.2720386153	-4.1647477758	-0.3757525113	-0.103364
O	 0.0837336192	-2.8283516916	-0.0156367522	-0.183261
H	 0.9444476008	 1.810803565	 0.0730306342	 0.121924
H	-0.6007007658	 1.8171169827	-0.8002769421	 0.112917
H	-0.5881562224	 1.7261853416	 0.9664530493	 0.134529
H	 1.0383009769	 0.9359725475	-2.184308823	 0.2625
H	 1.5131838651	-0.6145495636	-2.7360751878	 0.276232
H	 1.1668202795	-4.9655182047	-2.0771017948	 0.152214
72.2279	136.2185	143.3426	163.1213	295.263	305.3147	385.5038	400.6248	481.3207	509.8021	646.9793	669.0885	746.8935	801.838	926.6507	928.779	975.4031	987.0797	1034.7626	1098.0639	1110.2384	1188.6568	1203.1302	1241.85	1292.0542	1388.852	1430.7974	1485.4726	1502.7635	1517.7139	1601.4005	1626.7503	1728.1136	2962.6074	3011.6361	3111.8534	3264.267	3588.756	3711.8687
CN=C(N)C1=NC=NO1	CN=C(N)c1ncno1	
InChI=1S/C4H6N4O/c1-6-3(5)4-7-2-8-9-4/h2H,1H3,(H2,5,6)	InChI=1S/C4H6N4O/c1-6-3(5)4-7-2-8-9-4/h2H,1H3,(H2,5,6)
