17
gdb 71798	3.94186	1.71334	1.57016	1.4122	69.12	-0.2472	0.0864	0.3336	884.4971	0.137923	-421.795907	-421.78967	-421.788726	-421.826191	26.412	
C	-0.0492699069	 1.4747041232	-0.001647178	-0.494696
C	-0.0073761758	-0.0214804703	 0.0020907257	 0.442717
O	-1.2028323483	-0.6451595261	-0.4371540176	-0.267953
C	-0.8500332407	-1.9843956645	-0.3192409416	 0.035449
C	 0.6089905555	-2.2388220476	-0.8356026914	 0.029893
O	 0.8222458686	-3.1440338505	 0.2795764461	-0.290599
C	-0.0616739747	-2.2530147404	 1.0098386885	 0.029892
C	 0.6509859248	-0.8917133891	 1.0516849176	-0.166357
C	 1.175520168	-0.8806127038	-0.3916516639	-0.166353
H	 0.9023326924	 1.8837754913	 0.347810323	 0.125762
H	-0.2373733765	 1.8530154781	-1.0111042657	 0.133258
H	-0.8440080191	 1.8401443486	 0.6558854901	 0.133267
H	-1.6443827952	-2.6634498701	-0.613142436	 0.099496
H	 0.8819275479	-2.6501318656	-1.8052036201	 0.082172
H	-0.4728790311	-2.6788050011	 1.9227511838	 0.082172
H	 1.1919816906	-0.509632101	 1.905872484	 0.09594
H	 2.1368015206	-0.489639841	-0.6939383945	 0.095941
184.7562	233.666	289.1724	492.998	536.0635	572.0664	609.9737	713.449	747.7295	758.5687	821.9995	822.3436	845.9328	851.3891	906.2582	911.4245	932.0374	953.4897	959.184	1008.7766	1032.8962	1043.0594	1100.9859	1123.2126	1134.1762	1155.4962	1178.6185	1192.1861	1223.757	1264.4052	1293.3397	1298.9461	1346.5148	1401.914	1441.533	1478.5832	1500.7393	3042.557	3109.8379	3122.7218	3144.4416	3146.2941	3182.2247	3211.856	3219.7687
CC12OC3C4OC3C1C24	C[C@]12O[C@H]3[C@@H]4O[C@H]3[C@H]1[C@H]24	
InChI=1S/C7H8O2/c1-7-2-3(7)5-6(9-7)4(2)8-5/h2-6H,1H3	InChI=1S/C7H8O2/c1-7-2-3(7)5-6(9-7)4(2)8-5/h2-6H,1H3/t2-,3+,4+,5-,6-,7+
