23
gdb 83511	2.77726	1.3972	1.3432	0.2589	90.15	-0.2209	0.0332	0.2541	1140.1761	0.208099	-351.181132	-351.172764	-351.17182	-351.2134	34.065	
C	-0.1555846064	 1.5311340934	-0.0046407885	-0.431941
C	 0.0521626012	 0.0187576352	-0.0081807286	 0.052331
C	 1.0907090757	-0.5689915962	-1.005910078	-0.059384
C	 2.4305759709	 0.0236471481	-0.4515931421	-0.202209
C	 2.2077152914	-0.0171309609	 1.0905290261	-0.209545
C	 0.7654250719	-0.6157007098	 1.2173098618	-0.113016
C	 0.8780933442	-2.0637130735	 0.7503155628	 0.347762
C	 0.8940572142	-3.2353059636	 1.6753817119	-0.512726
C	 1.0673356691	-2.0253760111	-0.5756275518	-0.194024
H	 0.7703019773	 2.0932335746	 0.1428944072	 0.116748
H	-0.5928603512	 1.8604954167	-0.9538229068	 0.112384
H	-0.848258738	 1.8222729149	 0.7929563736	 0.111669
H	-0.9155257056	-0.4708107136	-0.1610245087	 0.064766
H	 0.9186716031	-0.3755605795	-2.0664194018	 0.049848
H	 3.2904063077	-0.5692870608	-0.7712223246	 0.093614
H	 2.5886069362	 1.0462483805	-0.8079492667	 0.091855
H	 2.9442212811	-0.636318592	 1.6087770314	 0.093891
H	 2.2592869618	 0.9828309729	 1.531395599	 0.092659
H	 0.3014684761	-0.4652250369	 2.1948915998	 0.047312
H	-0.0408897051	-3.3092068942	 2.245755429	 0.122429
H	 1.0362388019	-4.1745646065	 1.1327623785	 0.121119
H	 1.7004949155	-3.1482563362	 2.4158760669	 0.123501
H	 1.2836232168	-2.8664901715	-1.2246171504	 0.080956
150.1435	178.7338	185.4993	236.7056	270.9045	286.8953	351.9671	435.4582	502.0292	543.9333	607.9323	712.8755	744.3913	808.4609	823.0199	843.7169	858.4808	889.055	897.6205	944.62	954.1331	973.2797	1006.313	1050.5218	1052.9414	1070.1349	1095.831	1115.7952	1136.1637	1160.6271	1194.7275	1202.5889	1238.6661	1260.0354	1282.2221	1292.4772	1311.3944	1333.5332	1339.3761	1384.9729	1410.814	1412.158	1477.9621	1485.0845	1487.4269	1495.5025	1508.1656	1516.0003	1693.1956	3010.361	3032.1307	3048.1019	3050.277	3054.4556	3060.2263	3085.0698	3088.6529	3089.6884	3095.2338	3102.6296	3106.5656	3116.5865	3190.6452
CC1C2CCC1C(C)=C2	C[C@H]1[C@H]2CC[C@@H]1C(=C2)C	
InChI=1S/C9H14/c1-6-5-8-3-4-9(6)7(8)2/h5,7-9H,3-4H2,1-2H3	InChI=1S/C9H14/c1-6-5-8-3-4-9(6)7(8)2/h5,7-9H,3-4H2,1-2H3/t7-,8-,9+/m0/s1
