19
gdb 23180	2.2631	1.59667	1.03698	1.4375	79.26	-0.2263	-0.0007	0.2256	1168.5205	0.160564	-419.160594	-419.152264	-419.151319	-419.193517	32.246	
O	-0.0920208103	 1.2908427429	 0.1847313157	-0.393051
N	 0.0156021044	-0.1101515204	 0.1882199235	-0.255227
C	-1.1124407954	-0.668416374	-0.0005125231	 0.358088
C	-2.4745502737	-0.0394954444	-0.1751928982	-0.307633
C	-3.3917715155	-1.2303244183	-0.5368313836	-0.224975
C	-2.7258865752	-2.4505078879	 0.1334421192	-0.294572
C	-1.2385654543	-2.1589928592	-0.0155129368	 0.296106
C	-0.304231684	-2.9734960781	-0.850025603	-0.277616
N	-0.232682351	-3.0130061349	 0.6161562477	-0.373829
H	 0.8175929341	 1.5674238592	 0.3386058864	 0.306413
H	-2.7732701758	 0.4280752944	 0.7718856297	 0.130013
H	-2.4603326901	 0.7592630223	-0.921259672	 0.129511
H	-4.4249681448	-1.0797678599	-0.2157834987	 0.103174
H	-3.4041261211	-1.3676590574	-1.6237014347	 0.108007
H	-2.9814678726	-2.4907340392	 1.1994302012	 0.11087
H	-3.0185519029	-3.4041693703	-0.3115016428	 0.10607
H	-0.6651181612	-3.8866889501	-1.3173567463	 0.115963
H	 0.4693975768	-2.4405428387	-1.3956366462	 0.12159
H	 0.5329937027	-2.417743906	 0.9300226721	 0.241099
79.5381	163.0563	183.3489	206.2467	307.8546	325.9482	369.7511	439.7121	504.7097	528.5596	571.3116	601.693	734.9163	820.1069	843.7478	881.4739	908.3301	926.2125	953.2374	985.3287	997.226	1013.7316	1069.068	1084.3466	1105.5734	1143.4142	1182.3734	1206.6915	1236.1433	1283.3132	1301.1311	1316.5572	1327.1768	1338.5568	1390.3573	1421.1517	1464.3481	1489.8038	1501.3552	1503.7245	1749.2627	3034.4141	3036.599	3048.2998	3094.6765	3101.6048	3102.2661	3108.8769	3196.1715	3478.1945	3818.0559
ON=C1CCCC11CN1	ON=C1CCC[C@]21CN2	
InChI=1S/C6H10N2O/c9-8-5-2-1-3-6(5)4-7-6/h7,9H,1-4H2	InChI=1S/C6H10N2O/c9-8-5-2-1-3-6(5)4-7-6/h7,9H,1-4H2/t6-/m1/s1
