17
gdb 81257	2.77091	1.48689	1.2276	4.8913	73.29	-0.2258	-0.0718	0.154	1058.9193	0.136404	-421.839771	-421.832074	-421.831129	-421.871864	29.673	
C	-0.1660974435	 1.5148834715	-0.0004789164	-0.430853
C	 0.0165386124	 0.0015833839	 0.0156705826	 0.010288
C	 1.1540391335	-0.5887751824	-0.8998520945	-0.147387
C	 2.139483811	-0.2901834098	 0.2784705027	-0.265571
C	 0.8957239505	-0.59778829	 1.1768818905	-0.147395
C	 0.7281775009	-2.0804516295	 0.889511131	 0.336497
O	 0.5027975165	-3.0083384712	 1.6120132488	-0.304712
C	 0.9227831918	-2.0736622266	-0.6749687907	 0.336498
O	 0.882245984	-2.9950986309	-1.4385729634	-0.304714
H	 0.7710884647	 2.0640704498	 0.1188662609	 0.125893
H	-0.6187502435	 1.8286569716	-0.9466438515	 0.13073
H	-0.8376729157	 1.8209432937	 0.8081545585	 0.130732
H	-0.963416487	-0.4734010287	-0.1082867754	 0.093791
H	 1.3247453233	-0.2561613012	-1.9215981422	 0.092894
H	 3.0201108023	-0.9290293515	 0.3852378977	 0.122813
H	 2.4401697664	 0.7558585663	 0.3204057472	 0.127601
H	 0.8105713824	-0.2741082049	 2.2121197341	 0.092896
118.0063	165.9172	198.3051	254.7813	289.0788	335.2905	472.6292	487.1571	529.9188	619.2173	705.4314	756.4112	772.6782	808.9399	869.1666	886.4935	945.7629	958.0865	989.6858	1051.7984	1074.2947	1079.0725	1104.8008	1106.9574	1204.1716	1210.4795	1239.4552	1248.9962	1254.3713	1269.3345	1399.1528	1409.9	1490.9414	1493.8117	1514.7069	1866.1617	1891.5842	3035.0468	3040.7599	3071.9693	3104.2987	3118.5369	3140.7002	3144.5463	3145.6813
CC1C2CC1C(=O)C2=O	C[C@H]1[C@H]2C[C@@H]1C(=O)C2=O	
InChI=1S/C7H8O2/c1-3-4-2-5(3)7(9)6(4)8/h3-5H,2H2,1H3	InChI=1S/C7H8O2/c1-3-4-2-5(3)7(9)6(4)8/h3-5H,2H2,1H3/t3-,4+,5-
