13
gdb 17607	4.49567	1.40937	1.1551	2.173	55.9	-0.2478	-0.0791	0.1687	980.3783	0.094278	-435.752531	-435.744681	-435.743737	-435.785602	27.325	
N	-0.1633586097	 1.3316618002	-0.2360204822	-0.5201
C	 0.0773398973	 0.0053908687	-0.1888288173	 0.327339
O	 1.1432710936	-0.5430428902	-0.4007808668	-0.347776
C	-1.1836521533	-0.8026571795	 0.1875590861	 0.280481
O	-2.2330657387	-0.2488353596	 0.4227263234	-0.310513
C	-0.9925644592	-2.2855175712	 0.2617668121	-0.020999
C	-1.62283161	-3.0147707275	 1.3872819958	-0.158015
O	-2.1782457231	-3.062367204	 0.0896420287	-0.21014
H	 0.577028909	 1.9712356896	-0.4691802975	 0.272391
H	-1.0927018185	 1.6645644107	-0.0349040844	 0.282471
H	-0.0874868517	-2.6770208369	-0.1896022845	 0.138742
H	-1.1492935923	-3.9285510827	 1.7425372216	 0.130699
H	-2.1947828333	-2.4458949676	 2.1180541649	 0.135419
55.3161	69.6	187.0943	244.9292	303.3264	340.6588	361.6886	483.4689	516.8257	618.8592	662.7615	775.0662	821.6428	873.1818	905.2929	1008.3438	1073.2382	1099.0199	1107.1518	1161.871	1172.7619	1262.5241	1362.8334	1418.9973	1508.9677	1590.4423	1793.5814	1809.2003	3088.8379	3181.7525	3191.9673	3595.6699	3736.5804
NC(=O)C(=O)C1CO1	NC(=O)C(=O)[C@H]1CO1	
InChI=1S/C4H5NO3/c5-4(7)3(6)2-1-8-2/h2H,1H2,(H2,5,7)	InChI=1S/C4H5NO3/c5-4(7)3(6)2-1-8-2/h2H,1H2,(H2,5,7)/t2-/m1/s1
