20
gdb 101807	4.68765	0.62482	0.56773	22.9605	86.34	-0.1287	-0.0499	0.0787	1883.8126	0.169633	-477.353919	-477.343626	-477.342682	-477.390913	36.502	
N	-0.2092915084	 1.0229724969	-0.086761471	-0.415805
H	-0.5026772523	 0.0909579582	-0.3812403526	 0.325233
H	 0.8054484771	 1.0960858031	-0.1795955775	 0.328867
H	-0.6427674182	 1.7643568182	-0.6759623691	 0.345186
C	-0.6741188425	 1.4066922525	 1.3153984369	-0.221609
C	-0.6338995731	 2.9300069344	 1.3799060839	 0.120247
O	-1.1543891341	 3.328438457	 0.097406939	-0.475739
C	-1.4264806126	 3.4882345179	 2.5437814106	-0.185973
C	-1.5107666194	 5.0148855095	 2.53783075	-0.375772
C	-1.5859799289	 5.5818538133	 4.047770405	 0.352975
O	-1.1096853407	 4.7991254232	 4.8953393039	-0.472441
O	-2.0722248689	 6.7131334487	 4.1314897873	-0.466539
H	-1.6992903062	 1.0416336192	 1.3987164	 0.171458
H	-0.0348171785	 0.9179098552	 2.0499947652	 0.175728
H	 0.4137387264	 3.2642279361	 1.4558578769	 0.094001
H	-1.5434411059	 4.2074722549	 0.2128974013	 0.309513
H	-2.4283612763	 3.0373618566	 2.5470821098	 0.080773
H	-0.9454031638	 3.2473289384	 3.5049049033	 0.144195
H	-0.5980809808	 5.450433137	 2.1047829312	 0.082748
H	-2.3660997026	 5.4039948995	 1.974147066	 0.082953
26.6232	63.8384	81.7075	107.3092	197.4252	246.8978	259.3818	296.3218	344.5057	381.8034	468.7476	495.7255	535.2253	600.54	666.3234	796.8621	825.7059	853.1496	866.9344	891.9711	951.2107	1000.1051	1032.3675	1076.7622	1084.7234	1130.985	1174.2124	1202.6974	1230.9856	1279.1755	1299.7283	1315.3032	1340.384	1355.9222	1381.3975	1406.9505	1449.4897	1462.7986	1480.8403	1487.6506	1628.2608	1662.1264	1795.9054	2974.1639	2983.4499	3000.6564	3036.8333	3066.7056	3099.5638	3171.1694	3184.8483	3456.9064	3524.2003	3724.9696
[NH3+]CC(O)CCC([O-])=O	[NH3]C[C@@H](O)CCC(=O)[O]	
InChI=1S/C5H11NO3/c6-3-4(7)1-2-5(8)9/h4,7H,1-3,6H2,(H,8,9)	InChI=1S/C5H11NO3/c6-3-4(7)1-2-5(8)9/h4,7H,1-3H2,6H3/t4-/m0/s1
