17
gdb 77137	2.72192	1.27582	0.94977	1.9155	70.34	-0.2527	0.0157	0.2685	1223.6986	0.135384	-455.184225	-455.1751	-455.174155	-455.218781	33.032	
C	-0.6299966182	 0.9529441313	 0.8559881956	-0.413125
C	 0.0577058031	-0.3305474948	 0.4122211306	-0.133639
C	 0.4112184217	-0.5051489969	-1.0887381028	 0.027761
O	 1.8324647035	-0.6226744927	-0.7453041106	-0.285347
C	 1.5599405189	-0.4209794722	 0.6027665393	 0.436189
N	 2.3342351755	-0.3275851889	 1.5809976543	-0.536305
C	-0.1761701653	-1.7212185424	-1.7871336804	 0.365068
N	 0.6926663272	-2.7438188299	-1.9769044447	-0.522794
O	-1.3490573656	-1.7287272094	-2.1071118127	-0.36719
H	-0.1278044014	 1.8340691899	 0.4448889604	 0.125954
H	-1.6722513724	 0.9619553256	 0.5249019175	 0.138729
H	-0.6107654801	 1.0316487021	 1.9462449617	 0.143812
H	-0.45790091	-1.2056695324	 0.8174773642	 0.124741
H	 0.2352629711	 0.3822610822	-1.7017999208	 0.123413
H	 3.3123900377	-0.4226089121	 1.3032457407	 0.230548
H	 1.6606419363	-2.6432305264	-1.7224892489	 0.275089
H	 0.3747068881	-3.5729363829	-2.4505780533	 0.267096
46.5652	78.0776	152.0625	218.2429	225.0994	262.0883	310.7152	326.6601	405.0985	483.6582	557.4638	617.5027	652.2022	720.0238	739.9966	821.07	869.0411	886.7044	938.7452	993.347	1011.2156	1074.159	1092.7795	1110.121	1128.3962	1198.9471	1239.6637	1276.4613	1331.112	1361.1379	1387.0747	1410.8875	1494.729	1496.29	1601.6315	1803.4714	1831.3155	3043.7431	3076.6156	3090.5525	3118.0254	3125.4913	3479.2189	3600.2306	3739.0787
CC1C(OC1=N)C(N)=O	C[C@H]1[C@@H](O[C]1[NH])C(=O)N	
InChI=1S/C5H8N2O2/c1-2-3(4(6)8)9-5(2)7/h2-3,7H,1H3,(H2,6,8)	InChI=1S/C5H8N2O2/c1-2-3(4(6)8)9-5(2)7/h2-3,7H,1H3,(H2,6,8)/t2-,3+/m0/s1
