19
gdb 95457	2.83172	1.43763	1.02648	2.2315	78.75	-0.2287	0.0161	0.2448	1177.0325	0.160346	-419.188689	-419.180128	-419.179184	-419.222183	31.879	
O	 0.0058783268	 1.3675386575	-0.3343085875	-0.431944
C	 0.0499225616	-0.0348700009	-0.1152583922	 0.028781
C	 0.4914685376	-0.4647398049	 1.2954604804	-0.258089
C	-0.4789167618	-1.6260867349	 1.6245098317	-0.159221
N	-1.647546194	-1.4626696252	 0.75193851	-0.269214
C	-1.356075093	-0.622230597	-0.1637804793	 0.343932
N	-2.1755705657	-0.3261843036	-1.2403342191	-0.121402
C	-2.8413546455	 0.9691756861	-1.3523464938	-0.21926
C	-3.6164215239	-0.2781652209	-1.0734941783	-0.222662
H	 0.9071764609	 1.6793556992	-0.4571614536	 0.288202
H	 0.6551657334	-0.5186141299	-0.898313562	 0.087072
H	 1.5455533862	-0.7460142703	 1.3603546236	 0.094658
H	 0.3191889424	 0.3820675249	 1.9675966626	 0.112854
H	-0.0198523751	-2.6039678003	 1.4261194637	 0.10679
H	-0.7928595036	-1.6367630922	 2.6733204103	 0.106991
H	-2.7028234262	 1.6733514626	-0.5383583248	 0.135801
H	-2.8426043401	 1.4069988517	-2.3460436885	 0.119995
H	-4.1923881884	-0.7465898779	-1.865935756	 0.119881
H	-3.9962556717	-0.431910394	-0.0677730472	 0.136836
81.9151	97.9927	166.086	192.2854	222.3202	287.2669	329.5327	420.1872	496.1614	544.4802	652.3148	703.7501	790.1158	815.936	864.4671	903.2647	928.051	950.7777	976.1791	1025.5842	1056.9724	1086.6593	1112.5959	1124.1724	1131.4518	1164.4014	1178.5055	1187.418	1212.2992	1218.8583	1236.5509	1289.8482	1322.9246	1343.2638	1400.3198	1443.2786	1486.1836	1495.0358	1506.4521	1521.3191	1699.8219	2976.5508	3017.3703	3052.838	3067.8813	3108.2362	3119.0432	3122.9703	3203.9357	3217.6834	3830.2275
OC1CCN=C1N1CC1	O[C@H]1CC[N][C]1N1CC1	
InChI=1S/C6H10N2O/c9-5-1-2-7-6(5)8-3-4-8/h5,9H,1-4H2	InChI=1S/C6H10N2O/c9-5-1-2-7-6(5)8-3-4-8/h5,9H,1-4H2/t5-/m0/s1
