19
gdb 78901	2.79963	2.0397	1.63288	1.3138	76.69	-0.237	0.0725	0.3095	890.1935	0.16248	-385.846479	-385.839992	-385.839048	-385.876894	28.075	
O	-0.1027477897	 1.4561037007	 0.003754487	-0.434982
C	 0.0091929754	 0.0398811888	-0.0437085236	 0.130688
C	-1.3608984329	-0.5997778034	-0.1101851876	-0.05948
C	-1.9857316323	-0.8965323266	-1.4671770264	-0.076254
C	-1.2637962485	-1.9828428163	-0.6719923987	-0.101463
C	-0.0689455554	-1.8375515239	-1.6528488087	-0.044418
C	-0.9284190769	-0.9410396706	-2.5955903218	-0.026987
C	 0.1496134735	 0.1621056936	-2.5758366513	-0.234901
C	 0.7229142279	-0.5141209354	-1.2970386563	-0.112505
H	 0.7851687583	 1.822554915	 0.0647532221	 0.280725
H	 0.5184031741	-0.3213934968	 0.8650637135	 0.058606
H	-2.0613615693	-0.4076957246	 0.6952685675	 0.085634
H	-3.0503129862	-0.7534645975	-1.6107325081	 0.081349
H	-1.6370374745	-2.882428728	-0.1999038892	 0.081449
H	 0.4798081242	-2.7075913924	-2.0058712418	 0.063306
H	-1.3154862349	-1.315186704	-3.5447482482	 0.060912
H	 0.8300399949	 0.0608810356	-3.426556538	 0.087592
H	-0.1644764051	 1.203152662	-2.4775645089	 0.10573
H	 1.8088600473	-0.5599879762	-1.1893532715	 0.055001
170.0207	280.6174	294.3675	388.8904	487.2778	522.2564	625.2468	665.3894	682.9261	750.2215	777.1723	814.8333	853.2947	874.4055	899.1157	918.1629	930.9284	957.5682	977.9228	991.6468	1012.6204	1051.2465	1058.5166	1068.8562	1099.7209	1105.1178	1122.0744	1129.4214	1196.9586	1205.9673	1231.2991	1239.9575	1250.304	1281.2382	1285.6218	1315.6155	1326.387	1355.8301	1409.8729	1430.6707	1484.8153	2956.4063	3053.721	3078.4821	3091.7103	3117.5123	3138.2946	3170.8519	3177.5321	3195.545	3815.9414
OC1C2C3C2C2C3CC12	O[C@H]1[C@H]2[C@@H]3[C@H]2[C@H]2[C@@H]3C[C@@H]12	
InChI=1S/C8H10O/c9-8-3-1-2-4(3)6-5(2)7(6)8/h2-9H,1H2	InChI=1S/C8H10O/c9-8-3-1-2-4(3)6-5(2)7(6)8/h2-9H,1H2/t2-,3+,4-,5-,6+,7-,8+/m0/s1
