23
gdb 104859	2.20161	1.38402	1.10743	1.5764	81.89	-0.2351	0.0683	0.3034	1247.5666	0.203617	-425.403173	-425.392635	-425.391691	-425.438296	38.862	
C	-0.2927320735	 1.3533823315	 0.180004243	-0.246243
O	-0.516051825	 0.0306132967	-0.2758468684	-0.301701
C	 0.4239401483	-0.5013231022	-1.1826410291	 0.428886
C	 0.2742159254	 0.0916911212	-2.5844101587	-0.127723
O	 0.8023579722	 1.4127516113	-2.6092648448	-0.42259
C	 1.9105339437	-0.5966111493	-0.7258616549	-0.2808
C	 1.921767686	-2.0763759209	-1.1978114838	-0.231823
C	 0.3641648441	-2.0633794906	-1.2389003703	-0.04532
C	-0.2984785491	-2.7235417937	-0.0346363363	-0.390827
H	 0.7145955931	 1.4736842008	 0.6029551127	 0.104661
H	-0.4182548234	 2.0936673014	-0.6163353448	 0.122581
H	-1.0266391727	 1.5349584716	 0.9700263929	 0.113622
H	 0.8036318286	-0.5497001893	-3.305993431	 0.084636
H	-0.7957972279	 0.0798564282	-2.8423486031	 0.09416
H	 0.6767519012	 1.770338794	-3.4930059733	 0.288216
H	 2.6119183991	 0.0979230393	-1.1902498623	 0.108958
H	 1.9929297081	-0.515097119	 0.3604046125	 0.105164
H	 2.3758960333	-2.2025829182	-2.183954695	 0.097948
H	 2.3732989083	-2.802767404	-0.5174821484	 0.096343
H	-0.0801837724	-2.4573183575	-2.1598908364	 0.059748
H	 0.1317341665	-2.3680639484	 0.9062499216	 0.115638
H	-1.3699094473	-2.509210405	-0.0045229265	 0.123222
H	-0.1625223167	-3.8095992779	-0.0816143757	 0.103244
87.0436	101.8808	138.0835	177.0136	188.8634	221.0056	234.1419	244.4824	287.5557	317.5888	378.4878	420.2846	453.0936	525.6715	665.3543	733.2448	803.1172	878.5723	892.6738	925.9686	959.1857	967.9044	1004.97	1048.7868	1082.7039	1095.7279	1115.974	1168.816	1184.0405	1185.7915	1202.6362	1217.5904	1227.6955	1253.1582	1255.225	1282.5831	1292.154	1311.6014	1369.0071	1408.4397	1451.0733	1477.1267	1481.6171	1486.1407	1489.8466	1494.6285	1497.5238	1504.9072	1515.1622	2973.1382	3004.2915	3012.3366	3033.25	3036.6311	3060.6264	3072.0832	3076.5078	3103.2093	3106.0326	3112.3084	3118.5571	3133.213	3829.3387
COC1(CO)CCC1C	CO[C@@]1(CO)CC[C@H]1C	
InChI=1S/C7H14O2/c1-6-3-4-7(6,5-8)9-2/h6,8H,3-5H2,1-2H3	InChI=1S/C7H14O2/c1-6-3-4-7(6,5-8)9-2/h6,8H,3-5H2,1-2H3/t6-,7-/m1/s1
