16
gdb 71426	4.80486	1.16576	1.0642	2.2951	74.94	-0.2272	0.0322	0.2594	1114.6084	0.123246	-400.620471	-400.612861	-400.611917	-400.652232	30.306	
O	-0.026121276	 1.3551043309	 0.0175751598	-0.458568
C	 0.0728714516	-0.0167230506	-0.0225929385	 0.357864
C	 0.8469483232	-0.9026090092	-0.9837531843	-0.240035
N	-0.0642674916	-2.0467635073	-0.5705821088	-0.168638
C	-1.0616466857	-0.985867125	-0.0514775867	-0.072094
C	-0.2454869178	-0.9076435734	 1.2091200304	-0.153328
C	 0.3663865958	-2.2661440336	 0.8888083888	-0.189222
C	-0.3017180075	-3.402975644	 1.4959458246	 0.341764
C	-0.8492894206	-4.3325171099	 2.0255626106	-0.429572
H	 0.6850748167	 1.7010682018	 0.5683792241	 0.291029
H	 0.6542012568	-0.6497922159	-2.0294592751	 0.117873
H	 1.9166979533	-1.0901608874	-0.8345141803	 0.0972
H	-2.1138807818	-0.9335529445	-0.2876797546	 0.111091
H	-0.5168471104	-0.4716379176	 2.1624691066	 0.101325
H	 1.4531605705	-2.3729601531	 0.9955714346	 0.097421
H	-1.3338134463	-5.1593618812	 2.4829315788	 0.195889
120.3299	140.9176	264.5637	320.1969	349.8704	404.5099	450.3351	476.5617	511.2721	624.1744	634.3798	651.8011	762.0084	802.3945	838.3833	866.0721	893.0482	900.3786	934.2744	967.4014	1016.0503	1036.8558	1059.9017	1091.4356	1121.2532	1154.763	1193.5434	1230.1524	1252.3868	1284.7012	1303.769	1357.9847	1444.2099	1513.0453	2238.8858	3023.2422	3036.1558	3104.5214	3193.7037	3233.0343	3503.9175	3792.3553
OC12CN3C1C2C3C#C	O[C@]12CN3[C@H]1[C@H]2[C@H]3C#C	
InChI=1S/C7H7NO/c1-2-4-5-6-7(5,9)3-8(4)6/h1,4-6,9H,3H2	InChI=1S/C7H7NO/c1-2-4-5-6-7(5,9)3-8(4)6/h1,4-6,9H,3H2/t4-,5-,6+,7+/m1/s1
