16
gdb 16821	3.56959	2.07961	1.5091	3.7107	66.5	-0.2474	0.0181	0.2655	848.8032	0.132298	-379.916605	-379.909712	-379.908767	-379.947554	26.638	
C	 0.2004185411	 1.5234839542	-0.0728441748	-0.401367
C	-0.0340852483	 0.0325325217	 0.0989501352	 0.124709
O	 0.4305260884	-0.6618437903	-1.0872072373	-0.264078
C	 1.1365781008	-1.7906392118	-0.7758752401	 0.461442
N	 1.4542173754	-2.7035822434	-1.5880714287	-0.554368
C	 1.4459318957	-1.7770735125	 0.6807424732	-0.131681
N	 2.1710713339	-0.5344222486	 1.0689609604	-0.330902
C	 0.7153702078	-0.622172931	 1.2498856083	-0.070632
H	 1.2722170423	 1.7269452982	-0.1200906722	 0.14909
H	-0.2739067894	 1.8803437058	-0.9905698268	 0.129702
H	-0.229795248	 2.0714835096	 0.7717969036	 0.114746
H	-1.1068036867	-0.1799059807	 0.2014375329	 0.089644
H	 1.0875475212	-2.4965337997	-2.5190513341	 0.222497
H	 1.6379444339	-2.7078547907	 1.1969033049	 0.117659
H	 2.630154675	-0.7033087324	 1.9614965664	 0.240896
H	 0.279978597	-0.6293083685	 2.242640389	 0.102643
121.2831	201.1265	234.4016	270.3614	363.6663	455.0176	520.2274	606.8806	696.0552	741.4201	816.8974	839.0287	872.0662	887.2485	900.9957	928.5419	942.5842	1037.9325	1040.7638	1100.6897	1108.7279	1129.8669	1146.1313	1169.6822	1255.9351	1281.2319	1354.8979	1381.6052	1391.3129	1405.2397	1413.6275	1485.5741	1499.7038	1782.5001	3017.6536	3047.0904	3117.7674	3142.9797	3179.7579	3216.4096	3470.0769	3497.3041
CC1OC(=N)C2NC12	C[C@H]1O[C]([NH])[C@H]2N[C@@H]12	
InChI=1S/C5H8N2O/c1-2-3-4(7-3)5(6)8-2/h2-4,6-7H,1H3	InChI=1S/C5H8N2O/c1-2-3-4(7-3)5(6)8-2/h2-4,6-7H,1H3/t2-,3+,4+/m1/s1
