21
gdb 39540	3.27354	1.44718	1.0575	0.359	93.24	-0.2024	-0.0051	0.1973	1167.0651	0.1865	-349.997411	-349.990037	-349.989093	-350.028971	30.456	
C	-0.011087228	 1.5930002494	-0.003938976	-0.307435
C	 1.4694378887	 1.9107448815	-0.0135655462	-0.082185
C	 2.2090221669	 0.8498623526	 0.3424762258	-0.15724
C	 1.3553419044	-0.30416579	 0.6134667727	 0.348962
C	 1.6253165733	-1.4232570146	 1.2928065837	-0.215911
C	 0.5632916554	-2.4316729817	 1.6509304472	-0.234256
C	-0.8029399599	-2.1460804867	 0.994055688	-0.207154
C	-1.117126982	-0.6416590744	 0.9142768785	-0.22296
C	-0.03076763	 0.0446825214	 0.0872584043	-0.049023
H	-0.4934476956	 2.0537089567	 0.8713534898	 0.107048
H	-0.5409756344	 1.9736078479	-0.8840477203	 0.101322
H	 1.8564375862	 2.8999165408	-0.2306250874	 0.094336
H	 3.2856776454	 0.8430079585	 0.4699579695	 0.092685
H	 2.6288291509	-1.6016123332	 1.6741446369	 0.073325
H	 0.8939282059	-3.4458952483	 1.3889646763	 0.100818
H	 0.4539847732	-2.4441201083	 2.7467090889	 0.104671
H	-0.8044044412	-2.5527383209	-0.0254734547	 0.097785
H	-1.5912927198	-2.6761494787	 1.5389770439	 0.089796
H	-2.1087681538	-0.4837441609	 0.4746006127	 0.08812
H	-1.1406674339	-0.20853442	 1.923229439	 0.093369
H	-0.096896392	-0.3355449112	-0.9432546226	 0.083928
117.3497	189.2337	268.0645	317.7101	340.9711	428.3645	452.7912	518.9845	613.752	677.4293	728.4473	753.8667	798.6817	835.8575	860.0288	878.6685	908.9569	944.1742	962.8052	970.5654	977.5189	1058.3687	1062.4803	1086.7356	1105.2442	1125.542	1143.931	1162.9986	1196.1806	1240.1433	1264.6948	1297.3519	1310.2847	1318.2363	1359.4277	1361.5101	1374.6905	1380.6308	1390.1597	1477.108	1484.4311	1490.9017	1497.9653	1638.5103	1733.731	2983.2125	2984.813	2997.5571	3014.1818	3018.8045	3030.2348	3057.5764	3063.1682	3071.0665	3142.6292	3185.7609	3209.6287
C1C=CC2=CCCCC12	C1C=CC2=CCCC[C@@H]12	
InChI=1S/C9H12/c1-2-5-9-7-3-6-8(9)4-1/h3-4,6,9H,1-2,5,7H2	InChI=1S/C9H12/c1-2-5-9-7-3-6-8(9)4-1/h3-4,6,9H,1-2,5,7H2/t9-/m0/s1
