17
gdb 50381	2.99857	1.36777	1.22559	3.487	68.01	-0.2534	-0.0336	0.2198	1055.1858	0.136281	-458.942569	-458.934874	-458.93393	-458.97567	28.13	
O	-0.015517498	-0.0706153671	-0.258114848	-0.236059
C	-0.0092712467	 1.108196302	-0.025089544	 0.14321
C	 1.2111332808	 1.9953916467	-0.0393293648	 0.040999
O	 2.4486520069	 1.3324876214	-0.3076562998	-0.287277
C	 2.8180151499	 2.3336856165	-1.2888308755	 0.112573
C	 2.9905797015	 1.8021456505	-2.7203269469	-0.101909
O	 1.9387863149	 2.3908097562	-3.4762568395	-0.245884
C	 0.817872444	 2.5296592629	-2.6143450027	-0.108621
C	 1.4033615844	 2.9547989912	-1.2521766099	-0.134149
H	-0.9436750986	 1.665335518	 0.228585858	 0.073904
H	 1.2372733864	 2.5411846456	 0.9185930539	 0.095123
H	 3.6529064955	 2.9451708232	-0.9336917006	 0.0908
H	 3.9345077754	 2.094136692	-3.1873219146	 0.112439
H	 2.9160216726	 0.7050453129	-2.7005185535	 0.118043
H	 0.1522604118	 3.2758957348	-3.0539856633	 0.116593
H	 0.27277194	 1.577140579	-2.5336199507	 0.115992
H	 1.3100595192	 4.0207957543	-1.051495258	 0.094222
59.0548	90.6784	179.985	219.3823	251.8483	397.9096	424.3477	630.2484	663.6953	695.6225	761.709	814.9006	867.2759	913.4602	933.9479	953.1958	989.932	1027.7646	1058.8233	1074.3816	1099.3316	1117.2054	1130.973	1194.8947	1221.1952	1229.8438	1272.1262	1285.2644	1315.8322	1327.6944	1356.7985	1381.2497	1401.5618	1417.3486	1500.1613	1515.6404	1839.5532	2840.7002	2971.4111	2995.9305	3006.6028	3061.7306	3099.5396	3101.2691	3128.2587
O=CC1OC2COCC12	O=C[C@H]1O[C@H]2COC[C@@H]12	
InChI=1S/C6H8O3/c7-1-5-4-2-8-3-6(4)9-5/h1,4-6H,2-3H2	InChI=1S/C6H8O3/c7-1-5-4-2-8-3-6(4)9-5/h1,4-6H,2-3H2/t4-,5+,6-/m0/s1
