21
gdb 79881	2.36746	1.7128	1.36315	1.9204	82.05	-0.2349	0.0658	0.3006	1065.906	0.182727	-387.027603	-387.019273	-387.018328	-387.059885	33.129	
C	-0.2322451103	 1.5555866654	-0.0823849326	-0.442057
C	 0.0714993425	 0.0705377277	 0.0702370908	-0.053192
C	 1.3152462855	-0.6753314067	-0.3375881651	-0.149668
C	 2.6317785927	-0.0542805154	 0.1683991055	 0.124039
O	 2.7649176643	 1.3952870592	 0.2234687907	-0.301485
C	 2.4134768508	 1.4074273285	 1.6349443079	-0.113557
C	 2.1479407794	-0.1099306043	 1.6201068791	-0.130765
C	 0.7985843842	-0.7086242452	 1.1372710513	 0.307676
C	 0.1338058672	-1.8242650042	 1.8971311807	-0.493643
H	 0.6650853355	 2.1662985282	-0.1311240095	 0.158757
H	-0.7823192531	 1.7082408348	-1.0176900367	 0.109455
H	-0.8748902664	 1.9115193422	 0.7309923789	 0.108074
H	-0.7972194474	-0.5219326214	-0.2228144679	 0.08571
H	 1.2833663081	-1.4560748913	-1.0910489383	 0.077094
H	 3.5446757661	-0.5393963409	-0.186035007	 0.079983
H	 3.2775767846	 1.6978978104	 2.2451304887	 0.101185
H	 1.5753821849	 2.07562753	 1.8554405335	 0.10413
H	 2.6522084945	-0.7213470641	 2.3679662706	 0.074391
H	-0.3647952106	-1.4471198284	 2.7993230772	 0.120286
H	-0.6257224706	-2.3228143801	 1.2861699488	 0.118564
H	 0.8586788281	-2.5826822243	 2.2159070436	 0.115023
151.8529	192.1728	193.262	222.8401	271.1874	293.2513	318.1461	350.8674	501.388	565.064	655.4217	684.888	705.8548	819.7192	857.4029	863.2489	901.7987	921.3516	943.7342	972.1732	984.0991	1011.5738	1045.6817	1061.3442	1078.0012	1103.9872	1124.157	1155.2122	1168.5198	1193.597	1211.8967	1239.2324	1274.579	1308.6289	1327.2542	1347.4974	1358.6748	1406.2172	1416.6164	1468.6534	1484.5477	1495.7184	1500.2047	1511.5447	1531.6275	3014.851	3022.0236	3033.073	3070.2211	3074.5993	3077.5444	3080.7568	3087.099	3096.0647	3113.4924	3156.4042	3187.0518
CC1C2C3OCC3C12C	C[C@H]1[C@H]2[C@H]3OC[C@H]3[C@@]12C	
InChI=1S/C8H12O/c1-4-6-7-5(3-9-7)8(4,6)2/h4-7H,3H2,1-2H3	InChI=1S/C8H12O/c1-4-6-7-5(3-9-7)8(4,6)2/h4-7H,3H2,1-2H3/t4-,5+,6-,7-,8+/m0/s1
