22
gdb 69825	2.98807	1.51897	1.24017	1.2746	85.44	-0.2143	0.0848	0.2991	1106.3324	0.196518	-367.184986	-367.177089	-367.176145	-367.216635	32.943	
C	 0.1243944416	 1.52054208	-0.029336714	-0.466139
C	-0.0384878948	 0.0158333637	 0.0243667243	 0.346184
C	-0.9690939452	-0.5732939504	 1.0645685181	-0.354537
C	 0.536233976	-0.7352533544	 1.2028180476	-0.014754
N	 1.2801765344	-1.9558284134	 0.9980109197	-0.092799
C	 0.6509078287	-3.2669221788	 1.0973945075	-0.254165
C	 1.0548422073	-2.720548456	-0.2311384369	 0.012276
C	 0.0234959094	-2.2139681035	-1.2305987725	-0.267323
C	 0.0607556669	-0.6783525362	-1.3282811531	-0.249875
H	 1.0857261364	 1.7984951907	-0.4776675057	 0.115612
H	-0.6684860866	 1.9836624977	-0.6293129106	 0.112458
H	 0.0835791543	 1.9617839247	 0.9715875189	 0.11221
H	-1.4544985093	 0.1066118981	 1.7574389121	 0.104405
H	-1.5773929196	-1.4314350618	 0.8039974163	 0.106185
H	 0.991653035	-0.1300835812	 1.982540223	 0.088827
H	 1.2436389191	-4.0332984951	 1.5911018297	 0.109946
H	-0.4156201722	-3.3157240858	 1.3100616501	 0.106608
H	 1.9787710498	-3.0871820418	-0.6762321432	 0.085478
H	 0.2262035799	-2.6485755024	-2.2141104099	 0.101491
H	-0.9837914418	-2.5441174797	-0.956186627	 0.104379
H	-0.7464807447	-0.3296462741	-1.9846015698	 0.095077
H	 1.0024479556	-0.3706151703	-1.8042589746	 0.098456
173.6966	210.4497	230.9315	266.8173	339.7155	362.5676	399.7155	449.0198	484.4302	517.235	612.7068	677.7942	734.8828	782.7128	850.9724	877.2306	909.0384	928.811	932.9542	967.6058	973.1941	1029.9665	1046.0473	1048.3704	1064.8158	1088.2714	1119.0257	1126.0972	1136.9856	1164.1603	1165.085	1219.6233	1246.6613	1265.5875	1324.2528	1345.0327	1360.6948	1373.6799	1411.6612	1415.1911	1418.2942	1481.9888	1486.2029	1492.1049	1499.7537	1507.0284	1516.3964	3007.0069	3019.0446	3038.6037	3052.5239	3078.0525	3080.1724	3091.8474	3096.6229	3108.6411	3129.2475	3134.319	3173.9364	3216.1647
CC12CC1N1CC1CC2	C[C@]12C[C@H]1N1C[C@H]1CC2	
InChI=1S/C8H13N/c1-8-3-2-6-5-9(6)7(8)4-8/h6-7H,2-5H2,1H3	InChI=1S/C8H13N/c1-8-3-2-6-5-9(6)7(8)4-8/h6-7H,2-5H2,1H3/t6-,7-,8+,9?/m1/s1
