20
gdb 70185	3.34087	1.29559	1.10228	2.9992	78.69	-0.2141	-0.014	0.2001	1155.8516	0.171657	-403.157407	-403.149053	-403.148109	-403.190203	33.018	
C	-0.284974017	 1.5419752979	 0.1029497127	-0.461799
C	-0.0248674616	 0.0542980839	 0.0638351387	 0.356207
C	-0.801081387	-0.8545206357	 1.0057872486	-0.357451
C	 0.6877341353	-0.6093035012	 1.2045033397	-0.067037
C	 1.7073986595	-1.681267185	 0.8698659603	-0.316206
C	 1.3743713469	-2.4966771389	-0.3719673895	 0.382734
O	 1.7494289273	-3.6360168014	-0.5145102198	-0.309921
C	 0.5236571918	-1.8222599466	-1.4489062808	-0.276819
N	 0.3770895004	-0.3844475941	-1.2605193152	-0.353332
H	 0.586941383	 2.094450005	-0.2621064638	 0.127302
H	-1.1430209229	 1.8098821948	-0.5266551418	 0.111943
H	-0.5065900081	 1.8738780834	 1.1206225031	 0.119036
H	-1.489587297	-0.3984091273	 1.7091106042	 0.109084
H	-1.1167175799	-1.8344888824	 0.6636741312	 0.114313
H	 0.9631204248	 0.0194711839	 2.0464523374	 0.087583
H	 2.6759047904	-1.2008995811	 0.6650008382	 0.135296
H	 1.8735765666	-2.3813804674	 1.6945712854	 0.127491
H	 1.004510114	-2.0149637896	-2.4133970711	 0.134744
H	-0.4322978484	-2.3779257654	-1.4654314747	 0.116731
H	-0.2713791381	-0.0185732826	-1.9501150129	 0.220103
59.8061	192.5105	216.9721	234.077	300.8565	349.7916	376.3995	454.8482	480.8451	493.7111	566.8443	622.6858	672.7831	715.3567	792.2782	804.2425	874.7397	906.4674	930.68	963.7698	975.6815	1035.4753	1059.2705	1083.3416	1120.2719	1123.0797	1137.8206	1196.0986	1220.0071	1246.3491	1263.9242	1301.7835	1329.2072	1360.0691	1411.4823	1425.619	1450.2816	1472.7661	1476.2757	1488.2031	1502.9502	1521.2744	1818.1033	2932.8642	3009.3991	3023.2276	3072.9434	3080.6199	3085.9584	3117.8767	3130.2139	3142.5459	3211.698	3512.4864
CC12CC1CC(=O)CN2	C[C@]12C[C@H]1CC(=O)CN2	
InChI=1S/C7H11NO/c1-7-3-5(7)2-6(9)4-8-7/h5,8H,2-4H2,1H3	InChI=1S/C7H11NO/c1-7-3-5(7)2-6(9)4-8-7/h5,8H,2-4H2,1H3/t5-,7+/m1/s1
