17
gdb 106638	2.6941	1.30561	1.04956	3.0367	69.12	-0.2746	0.0003	0.2749	1168.3693	0.134228	-458.961879	-458.952966	-458.952022	-458.995796	32.444	
C	 0.0242874604	 1.5225082735	 0.0128044946	-0.492752
C	 0.0474824335	 0.0242187129	 0.0806811163	 0.018772
C	 1.2361616716	-0.8608959807	-0.3518698222	-0.365926
C	 0.6737269335	-0.9926567237	 1.0146665748	 0.410513
C	 1.3300270854	-0.9191746753	 2.3543835356	-0.175494
O	 1.974708278	-2.1313483242	 2.7019614847	-0.403729
O	-0.5114234204	-1.8513824272	 0.9255254092	-0.314629
C	-1.1528819032	-0.8877898185	 0.1519477568	 0.439389
O	-2.2863559116	-0.8848216184	-0.2015376584	-0.326008
H	 1.015697134	 1.9395628455	 0.2128284012	 0.127637
H	-0.2827888674	 1.8574853978	-0.9831741012	 0.146046
H	-0.6776557994	 1.9439677388	 0.7385068031	 0.139059
H	 1.1006878708	-1.6626266343	-1.0704897519	 0.137182
H	 2.1709541563	-0.3136508145	-0.4380252208	 0.131703
H	 2.1060378228	-0.1475170448	 2.3346941964	 0.121799
H	 0.5824582867	-0.6276423801	 3.1070230356	 0.108473
H	 1.2982421288	-2.8169294769	 2.7365279361	 0.297964
70.4011	115.0177	146.9004	167.1007	226.6744	276.7436	328.0166	379.895	424.4063	474.1255	524.8126	640.4206	699.7079	754.4925	784.6894	863.7025	881.9457	940.5808	964.1233	999.3796	1030.8915	1060.2159	1089.5709	1105.3849	1141.9165	1178.2819	1262.9756	1343.2714	1383.9774	1397.8569	1418.7292	1441.339	1482.8821	1486.8978	1497.5174	1508.9255	1939.3894	2998.4063	3039.4173	3085.427	3105.4125	3112.9011	3122.2755	3214.4028	3807.987
CC12CC1(CO)OC2=O	C[C@@]12C[C@]1(CO)OC2=O	
InChI=1S/C6H8O3/c1-5-2-6(5,3-7)9-4(5)8/h7H,2-3H2,1H3	InChI=1S/C6H8O3/c1-5-2-6(5,3-7)9-4(5)8/h7H,2-3H2,1H3/t5-,6+/m0/s1
