14
gdb 83085	2.6701	1.78679	1.59406	1.5564	61.	-0.2384	-0.0505	0.1878	870.0119	0.101753	-473.805892	-473.798872	-473.797927	-473.837198	26.901	
O	 0.1593191751	 1.4149450973	-0.045324596	-0.440257
C	 0.0333526368	 0.0335974443	 0.0325543194	 0.145315
C	 0.2131021515	-0.6837307367	 1.4222757403	-0.06949
O	-0.4867632221	 0.0811762492	 2.4395765057	-0.223395
C	-1.7194485654	 0.4492032011	 2.0298995985	 0.106329
N	-2.2594595476	 0.1721116278	 0.912619062	-0.27083
C	-1.393176104	-0.6187363366	-0.004785336	-0.187016
C	-0.762017222	-1.7309395176	 0.8360456305	 0.441715
O	-0.865519448	-2.918971413	 0.9085103287	-0.299536
H	-0.6669577635	 1.8129271349	 0.255602836	 0.30086
H	 0.6998501817	-0.4210631782	-0.7047881681	 0.120426
H	 1.1876863059	-0.9484635998	 1.8245174628	 0.117814
H	-2.2317477996	 1.0426679838	 2.7829928345	 0.152361
H	-1.9049648087	-0.8252524266	-0.9420642582	 0.105704
140.7947	205.8976	221.1051	290.5544	330.7051	445.9063	481.7002	568.3903	589.4611	654.5695	733.6794	784.1991	841.9428	857.2449	889.4174	967.3989	982.87	1060.7829	1088.943	1114.7337	1137.9787	1166.0079	1214.5612	1231.4305	1279.7954	1317.0971	1327.3039	1370.52	1425.5855	1686.3035	1903.7741	3087.1157	3144.5794	3159.7753	3183.4908	3778.8126
OC1C2OC=NC1C2=O	O[C@H]1[C@H]2O[CH][N][C@@H]1C2=O	
InChI=1S/C5H5NO3/c7-3-2-4(8)5(3)9-1-6-2/h1-3,5,7H	InChI=1S/C5H5NO3/c7-3-2-4(8)5(3)9-1-6-2/h1-3,5,7H/t2-,3+,5+/m0/s1
