19
gdb 17708	5.87324	1.48317	1.44252	1.1736	76.	-0.2087	0.0867	0.2954	956.6325	0.165401	-327.82707	-327.81985	-327.818906	-327.857986	28.735	
C	-0.1572341595	 1.6435873993	-0.1349776923	-0.414894
C	-0.0653635881	 0.1274013463	-0.0439880846	-0.013419
C	 1.1629576265	-0.5920850388	-0.6426626496	-0.061871
C	 2.062438523	-0.2873467669	 0.5963293453	-0.010972
C	 0.6152958391	-0.5159013488	 1.1855206371	-0.079942
C	 1.0458972373	-1.7825030536	 0.3547258722	-0.011953
N	 2.5015252746	-1.7135077519	 0.6886546363	-0.11929
C	 2.8746697529	-2.1801521774	 2.0198106328	-0.324487
H	 0.7914077199	 2.1232999077	 0.128779945	 0.113582
H	-0.4196683421	 1.962337505	-1.1499274554	 0.115723
H	-0.9263784911	 2.0334946685	 0.5409883084	 0.114602
H	-1.0233229724	-0.336171242	-0.3114600682	 0.063828
H	 1.5076645851	-0.6616892446	-1.6746187786	 0.076306
H	 2.7432437421	 0.5501704006	 0.7561584538	 0.077965
H	 0.3006365445	-0.4718482943	 2.2286044052	 0.072976
H	 0.5025245037	-2.7201427117	 0.2212283361	 0.075564
H	 2.8986432527	-3.2751638903	 2.0234772301	 0.116893
H	 3.8842593577	-1.8260547593	 2.2545458152	 0.116791
H	 2.2001440442	-1.8501674179	 2.8281004412	 0.092597
178.079	197.7661	218.7534	236.2938	300.8076	349.9008	511.919	574.469	712.8128	750.0104	810.2032	820.5622	822.3799	846.6384	878.2423	899.271	965.2792	1018.2783	1041.1919	1053.8284	1090.4077	1103.7321	1124.3533	1141.0309	1142.1233	1163.3454	1174.7336	1179.4558	1192.3889	1209.4294	1253.5783	1292.1913	1325.7222	1399.7162	1416.0418	1446.9242	1491.374	1494.5502	1498.0489	1499.9339	2962.4476	3023.7603	3027.6309	3059.0581	3089.9035	3092.4188	3094.3203	3094.4795	3101.211	3110.1081	3121.3391
CC1C2C3C1C2N3C	C[C@H]1[C@H]2[C@H]3[C@@H]1[C@@H]2N3C	
InChI=1S/C7H11N/c1-3-4-6-5(3)7(4)8(6)2/h3-7H,1-2H3	InChI=1S/C7H11N/c1-3-4-6-5(3)7(4)8(6)2/h3-7H,1-2H3/t3-,4-,5+,6-,7+
