21
gdb 108579	2.524	1.36577	1.15624	1.8847	77.48	-0.233	0.0789	0.3119	1181.3103	0.182803	-424.213303	-424.20444	-424.203496	-424.246676	34.123	
C	 0.1099757937	 1.4548169467	-0.1628216133	-0.37336
C	-0.0977578951	-0.0048301128	 0.2606538017	-0.286701
C	-1.5165114367	-0.4900965405	 0.0554816671	 0.282786
C	-2.6599717512	 0.089440784	 0.8968916679	-0.310406
C	-3.3789019622	-1.167457575	 1.4213801171	-0.075843
O	-3.1284406373	-2.2020050336	 0.4532385517	-0.278326
C	-1.8630493723	-1.9532737957	-0.1180244362	-0.045267
C	-1.9426796739	-1.0325529125	-1.3077081181	 0.059774
O	-3.194796039	-0.7477805752	-1.8425074851	-0.432601
H	 1.1481612069	 1.7650482713	-0.0097486904	 0.111392
H	-0.134012656	 1.5941639141	-1.2208970727	 0.124242
H	-0.5284124623	 2.1313483799	 0.4148531391	 0.11852
H	 0.586157018	-0.647407063	-0.3083324726	 0.095713
H	 0.1814059228	-0.1277865428	 1.3162811625	 0.09463
H	-2.2798422106	 0.7073163861	 1.7148875679	 0.102885
H	-3.3294430707	 0.7006880379	 0.2845573038	 0.121848
H	-2.9718852757	-1.4747451724	 2.3955004256	 0.100858
H	-4.4629007905	-1.0597567471	 1.5149707699	 0.110749
H	-1.1520366688	-2.7701716224	-0.0338540462	 0.093664
H	-1.1668317661	-1.1034438029	-2.0668777879	 0.092817
H	-3.813436363	-1.3364050738	-1.3857602318	 0.292626
94.0339	142.8738	149.8249	203.8898	229.0901	280.3415	330.673	353.2255	458.2069	504.2461	607.577	633.6263	667.5263	753.8456	787.1498	832.4537	871.5026	885.052	950.7299	968.7754	988.7961	1019.1479	1043.2197	1046.8458	1088.2233	1112.647	1130.6678	1168.38	1204.0405	1236.2975	1250.6006	1265.5707	1294.7157	1319.5638	1335.5114	1355.8011	1375.2609	1396.8912	1411.9491	1442.2093	1480.6238	1491.1459	1498.3574	1507.0713	1517.0243	3001.4292	3009.1137	3035.9256	3044.1381	3055.5708	3090.555	3104.6293	3106.6182	3107.9083	3130.5852	3147.0928	3722.2537
CCC12CCOC1C2O	CC[C@]12CCO[C@H]1[C@H]2O	
InChI=1S/C7H12O2/c1-2-7-3-4-9-6(7)5(7)8/h5-6,8H,2-4H2,1H3	InChI=1S/C7H12O2/c1-2-7-3-4-9-6(7)5(7)8/h5-6,8H,2-4H2,1H3/t5-,6+,7-/m1/s1
