14
gdb 28750	5.67968	0.84626	0.76043	4.2043	66.89	-0.1964	-0.004	0.1924	1390.2301	0.100261	-473.86743	-473.859129	-473.858184	-473.900895	29.905	
O	-0.0709380183	 1.4398683298	-0.1487257522	-0.432728
C	 0.0172633468	 0.0891708951	-0.0852425299	 0.382553
C	 0.4139420067	-0.879971196	-0.9711911361	-0.285694
C	 0.2609771475	-2.1418947071	-0.3027457584	-0.24816
C	-0.2104283633	-1.871461304	 0.9498953994	 0.35434
N	-0.3545918473	-0.5062567278	 1.0902061813	-0.347978
O	-0.5637136484	-2.6750334249	 2.0011467573	-0.218652
C	 0.4089312289	-3.4872257674	 2.5188056401	 0.155505
O	 0.1766840442	-4.2785703792	 3.3759798429	-0.255566
H	 0.1899554544	 1.7202785636	-1.031238471	 0.310862
H	 0.7655340309	-0.7209410951	-1.9782974557	 0.09663
H	 0.4573134934	-3.1206091327	-0.7100646494	 0.111199
H	-0.7168338175	-0.0313801596	 1.8993413059	 0.278153
H	 1.3853482019	-3.3092396748	 2.0350895859	 0.099537
56.0556	124.2329	159.8289	231.6633	262.3381	322.7272	398.421	410.9872	465.6959	507.6012	625.3898	673.4133	689.5538	731.4855	796.2463	818.2652	1008.4152	1023.3968	1043.9885	1058.61	1110.117	1163.5958	1230.7161	1274.8664	1303.8855	1396.5413	1447.774	1526.5578	1588.7227	1643.1224	1877.3883	2992.7941	3250.0725	3265.7938	3681.9433	3847.3967
OC1=CC=C(N1)OC=O	Oc1ccc([nH]1)OC=O	
InChI=1S/C5H5NO3/c7-3-9-5-2-1-4(8)6-5/h1-3,6,8H	InChI=1S/C5H5NO3/c7-3-9-5-2-1-4(8)6-5/h1-3,6,8H
