17
gdb 65289	2.70491	1.34017	1.08519	2.3859	73.6	-0.2628	0.0058	0.2686	1138.7893	0.135079	-417.970853	-417.962131	-417.961187	-418.004436	31.64	
C	-0.0732197194	 1.5387448088	-0.0047852937	-0.457702
C	-0.0264066217	 0.0259117911	 0.0513055628	 0.099806
N	 1.299494087	-0.5992915156	-0.207066098	-0.396349
C	 0.725131888	-0.7073881328	 1.1152480412	 0.245958
C	 1.3427743872	-0.1924031119	 2.4106796322	-0.132471
O	 0.8538370742	-1.3561336992	 3.1137520413	-0.270365
C	 0.318932638	-1.9456530192	 1.9090637582	-0.154172
C	-1.1874260227	-0.659574507	-0.4726956112	 0.247164
N	-2.1124565965	-1.2162539427	-0.8891994247	-0.34087
H	 0.8525302904	 1.947503151	 0.4054039835	 0.141494
H	-0.1721322074	 1.8827278113	-1.0380765529	 0.146152
H	-0.9198553114	 1.9243256208	 0.5705276051	 0.140994
H	 1.200097911	-1.470103018	-0.7259518595	 0.251978
H	 2.4382504024	-0.1388322232	 2.3973175224	 0.119552
H	 0.9324153827	 0.7396053018	 2.816763296	 0.114248
H	-0.7554594311	-2.1503486962	 1.9795165615	 0.131757
H	 0.8479197092	-2.8662651689	 1.6281373858	 0.112826
91.2027	118.4756	146.7571	177.2244	206.2588	240.8714	372.1043	391.2748	436.3368	508.1534	584.8363	626.6563	668.6964	802.7798	877.5395	924.1161	946.6056	992.7958	1010.1742	1028.4337	1070.5541	1096.8122	1130.0352	1143.9772	1146.0462	1164.102	1236.6603	1295.1278	1312.7889	1351.5564	1414.2431	1461.1421	1482.5285	1495.7775	1502.6059	1526.9984	2345.5594	3008.7418	3022.5959	3049.1735	3066.1306	3068.224	3120.8975	3137.8381	3491.2465
CC1(NC11COC1)C#N	C[C@]1(NC21COC2)C#N	
InChI=1S/C6H8N2O/c1-5(2-7)6(8-5)3-9-4-6/h8H,3-4H2,1H3	InChI=1S/C6H8N2O/c1-5(2-7)6(8-5)3-9-4-6/h8H,3-4H2,1H3/t5-/m0/s1
