16
gdb 51208	3.75351	1.15033	1.03998	3.3975	69.08	-0.2455	-0.0278	0.2177	1147.2188	0.12254	-437.771331	-437.763645	-437.762701	-437.804797	28.405	
O	-0.0610014009	-0.0637353216	 0.0459221527	-0.23595
C	-0.0180470113	 1.1264409985	-0.1241776046	 0.154696
C	 1.2667513547	 1.9395539048	-0.1303435617	-0.433577
C	 1.3059677551	 2.9353954405	-1.2492934158	 0.485933
O	 0.288282063	 3.9828532192	-1.3164451137	-0.356402
C	 1.1237043194	 4.2449391817	-2.4814109265	 0.072124
C	 2.4605278286	 3.8490509174	-1.7717471225	-0.131848
N	 2.8753263648	 2.8311411801	-2.789500094	-0.344764
C	 1.379926379	 2.7375060263	-2.8017111105	-0.120207
H	-0.9405649082	 1.7255374729	-0.2817917284	 0.102452
H	 1.3199914288	 2.4851545522	 0.822659606	 0.140507
H	 2.1252807608	 1.2654433161	-0.1920396729	 0.150674
H	 0.8748101663	 5.0862863431	-3.12873753	 0.102076
H	 3.1565607878	 4.4663343608	-1.2030182614	 0.096118
H	 3.2090972394	 3.2934240154	-3.638445614	 0.217306
H	 0.8148666227	 2.0548962427	-3.4369374129	 0.100861
46.7198	65.5934	149.5625	246.9431	330.5309	448.0512	516.6793	542.9027	662.7928	754.6967	765.0579	775.4517	820.3843	846.8863	869.4483	906.6598	938.2946	963.2516	1016.5644	1065.0159	1083.3694	1096.7414	1123.4153	1136.5126	1152.5654	1199.9659	1208.9286	1260.4191	1275.0095	1292.6134	1306.8069	1401.6937	1426.8801	1436.5251	1836.0252	2908.468	3020.6299	3111.2317	3112.6451	3118.8993	3131.1487	3416.9507
O=CCC12OC3C1NC23	O=CC[C@@]12O[C@H]3[C@@H]1N[C@@H]23	
InChI=1S/C6H7NO2/c8-2-1-6-4-3(9-6)5(6)7-4/h2-5,7H,1H2	InChI=1S/C6H7NO2/c8-2-1-6-4-3(9-6)5(6)7-4/h2-5,7H,1H2/t3-,4-,5+,6+
