20
gdb 103905	2.64871	0.98077	0.86153	3.0403	78.06	-0.2506	0.0203	0.2708	1438.4231	0.16798	-440.263999	-440.253747	-440.252803	-440.299976	36.783	
C	 0.2282282635	 1.2395126004	-0.0994439773	-0.397238
C	 0.0049962724	-0.2419236711	 0.2260905548	-0.229925
C	-1.4446010865	-0.6620096447	 0.0907043107	 0.359232
O	-2.3349609127	-0.0479034621	 0.9872072302	-0.470098
C	-1.9953978296	-1.0523481539	-1.2717033545	-0.382683
C	-1.8090696338	-2.0901911758	-0.2024407066	 0.061122
O	-0.8044319571	-3.0460100978	-0.4363636863	-0.186129
C	-0.3635956438	-3.7126173616	 0.6554763054	 0.127273
N	 0.5423538254	-4.5814657505	 0.5340974772	-0.440295
H	 1.2819742681	 1.5098666541	 0.0120883359	 0.121898
H	-0.0706154949	 1.4698725189	-1.1278037474	 0.118809
H	-0.3457499545	 1.8851804713	 0.5743337505	 0.111129
H	 0.6200026952	-0.8677682472	-0.4273848213	 0.122436
H	 0.3281850421	-0.4432255074	 1.2552457346	 0.104262
H	-2.4892013873	 0.8532875655	 0.6833668508	 0.286691
H	-3.012341468	-0.7702619996	-1.519232824	 0.119425
H	-1.3013015554	-1.0833914936	-2.1045422835	 0.132924
H	-2.6979292504	-2.4768641734	 0.2899063546	 0.114559
H	-0.8716285163	-3.4139304227	 1.58187613	 0.096403
H	 0.7514544137	-4.9922849387	 1.4416669961	 0.230206
49.7423	83.1183	92.8885	128.1117	179.562	220.1973	269.1813	290.0527	338.5402	382.3401	421.7478	460.3562	567.7114	634.2345	700.8198	784.0378	825.1434	850.9075	905.9896	908.2839	993.0574	1011.4399	1041.1887	1048.3709	1065.5183	1080.6762	1092.5368	1125.829	1187.9186	1229.8667	1283.8543	1293.9997	1308.7175	1329.7913	1378.9063	1402.8927	1407.914	1419.6044	1479.3284	1481.7966	1499.2377	1509.6228	1747.1516	3030.258	3032.7076	3035.065	3082.6463	3104.1462	3110.6391	3136.9281	3140.7094	3232.1903	3517.9997	3799.004
CCC1(O)CC1OC=N	CC[C@@]1(O)C[C@H]1O[CH][NH]	
InChI=1S/C6H11NO2/c1-2-6(8)3-5(6)9-4-7/h4-5,7-8H,2-3H2,1H3	InChI=1S/C6H11NO2/c1-2-6(8)3-5(6)9-4-7/h4-5,7-8H,2-3H2,1H3/t5-,6-/m1/s1
