19
gdb 26249	3.82654	1.10965	0.88705	2.5999	81.62	-0.1869	0.0256	0.2125	1338.2025	0.158756	-419.239625	-419.230192	-419.229248	-419.274077	33.731	
C	-0.0702363514	 1.3551757648	 0.0645939751	-0.331929
N	-0.2554470379	-0.0834221126	 0.001817729	-0.170028
C	 0.229273825	-0.8214122103	 1.1630870474	-0.343
C	-0.0249816673	-0.6357715018	-1.2393552076	 0.409591
C	 0.2712519691	-0.1400629317	-2.472829181	-0.234031
N	 0.2831816044	-1.1927514566	-3.3881661302	-0.29537
C	 0.0206174515	-2.2477396771	-2.6953601043	 0.372578
C	-0.0716341099	-3.6634115186	-3.1330117438	-0.489178
O	-0.1860088443	-1.9876221953	-1.3610030094	-0.226137
H	 0.9847571024	 1.6583371871	-0.0430679768	 0.113098
H	-0.6493604926	 1.8340076017	-0.7296947794	 0.139526
H	-0.4374166635	 1.7197410772	 1.0274005664	 0.126799
H	-0.2559111956	-0.4279676824	 2.0607078871	 0.125044
H	-0.0302091434	-1.8752893701	 1.0620034509	 0.150185
H	 1.3211362143	-0.7390816958	 1.2929026995	 0.111808
H	 0.4752533671	 0.8744710635	-2.7690518432	 0.109038
H	 0.6671424328	-4.2893635579	-2.6201514727	 0.137917
H	-1.0609718332	-4.0843554218	-2.922870584	 0.139449
H	 0.1117077826	-3.7088779622	-4.206945533	 0.154641
62.704	123.3576	137.225	173.7142	194.5345	226.9084	247.9556	323.5668	367.4162	381.6719	518.8701	597.9069	680.7519	702.6696	710.5646	768.8929	935.0995	960.5122	997.6787	1043.3907	1064.3408	1080.5328	1124.6606	1142.6407	1177.0578	1210.4252	1234.4466	1256.8867	1345.8827	1388.9917	1413.797	1444.2408	1468.4543	1474.6538	1483.6604	1485.5653	1494.5647	1502.0822	1514.6563	1646.3362	1652.8086	2965.6652	2971.7059	3035.9339	3076.5209	3084.9202	3086.4057	3121.2938	3149.9671	3153.4367	3278.1002
CN(C)C1=CN=C(C)O1	CN(C)c1cnc(C)o1	
InChI=1S/C6H10N2O/c1-5-7-4-6(9-5)8(2)3/h4H,1-3H3	InChI=1S/C6H10N2O/c1-5-7-4-6(9-5)8(2)3/h4H,1-3H3
