19
gdb 63761	2.94053	1.42604	1.19083	3.252	79.86	-0.2525	0.0086	0.2611	1097.6242	0.15864	-382.043935	-382.035255	-382.034311	-382.076714	33.477	
C	-0.42284618	 1.5785479144	-0.0095665212	-0.462368
C	-0.0691442784	 0.0988147975	-0.0265126579	 0.3338
C	-1.3368932338	-0.752877215	-0.053629545	-0.411091
C	 0.9964630405	-0.4381670229	-1.0353096768	-0.323831
C	 1.7182933108	-1.0150811628	 0.1778552559	-0.022135
C	 2.1512993354	 0.0462062779	 1.1192805158	-0.154884
C	 2.6220032597	 1.3344008627	 0.6755228426	 0.303582
N	 3.0575349501	 2.3522644208	 0.3386149805	-0.350851
N	 0.7401718132	-0.4243976568	 1.1654709615	-0.173934
H	 0.4488810802	 2.2305214535	-0.0499147241	 0.154848
H	-1.0561136131	 1.8132058519	-0.8720646801	 0.120193
H	-0.9910002975	 1.8155990547	 0.8962467245	 0.127422
H	-1.9040626331	-0.5586409242	-0.9697872089	 0.116383
H	-1.0968935163	-1.8194460584	-0.0141072489	 0.118339
H	-1.9719087668	-0.5182263	 0.8058017014	 0.126768
H	 0.6043222233	-1.1900037	-1.721592481	 0.11495
H	 1.5631078445	 0.3034892533	-1.6040638319	 0.128965
H	 2.0957947653	-2.0276174927	 0.279168534	 0.109666
H	 2.677969296	-0.294340334	 2.0071794796	 0.144178
116.191	145.7654	189.1356	229.9011	254.7591	286.8962	359.726	385.6678	409.6129	434.2917	576.2689	618.6733	644.9512	751.1504	761.0001	827.189	871.1692	901.1918	945.4215	970.4156	987.6478	1001.6895	1036.7312	1054.2114	1064.7705	1140.719	1179.3503	1224.6864	1251.7574	1274.5058	1292.4796	1343.9209	1395.9081	1405.1847	1421.0977	1477.6735	1483.3508	1491.2007	1499.9358	1511.8074	2345.0885	3035.0022	3042.6014	3069.1792	3099.9868	3111.1258	3114.1972	3127.9606	3147.5275	3159.184	3164.9719
CC1(C)CC2C(C#N)N12	CC1(C)C[C@H]2[C@@H](C#N)N12	
InChI=1S/C7H10N2/c1-7(2)3-5-6(4-8)9(5)7/h5-6H,3H2,1-2H3	InChI=1S/C7H10N2/c1-7(2)3-5-6(4-8)9(5)7/h5-6H,3H2,1-2H3/t5-,6+,9?/m0/s1
