17
gdb 127967	2.39047	1.50985	0.93866	2.6725	75.63	-0.1851	0.0394	0.2245	1231.7083	0.135388	-451.333181	-451.323464	-451.32252	-451.368929	33.322	
C	 0.0187178553	 1.4399199398	 0.0085977469	-0.326127
N	 0.0484244072	-0.0094052644	 0.0049368694	-0.390895
C	 0.5651945567	-0.6247644361	-0.9651215243	 0.504763
O	 1.1385098965	-0.0578144504	-2.1192231025	-0.237634
C	 1.4934868681	-1.1124731822	-2.8999819918	 0.460855
N	 1.9872555871	-0.8152556323	-4.1437644164	-0.586332
N	 1.2660276994	-2.2714410513	-2.3960796476	-0.32611
N	 0.7094097714	-1.9745222158	-1.1461129046	-0.095048
C	 0.0791019418	-2.9997973575	-0.3580667869	-0.324685
H	 0.8720290036	 1.8490222889	 0.5676906027	 0.115224
H	 0.0343871263	 1.8859979121	-0.9948900245	 0.111576
H	-0.8884130432	 1.7792342317	 0.5188966883	 0.119434
H	 2.5489033174	 0.0243227199	-4.1744665381	 0.269018
H	 2.4335874993	-1.6057074816	-4.587053688	 0.27329
H	 0.7817882675	-3.8177332092	-0.1764310093	 0.136859
H	-0.2106633107	-2.5453483967	 0.5902345915	 0.166494
H	-0.8132419836	-3.4018940748	-0.8541651748	 0.129317
39.9264	56.6198	117.653	174.9745	183.3119	203.7981	247.2225	290.4841	330.4793	395.985	578.7294	621.4562	644.7491	662.3508	691.1759	734.4237	839.6769	984.0482	995.6217	1066.1501	1094.1702	1132.6061	1153.634	1159.1242	1177.9846	1288.4957	1420.7523	1442.135	1447.0413	1450.8483	1484.5159	1493.6851	1504.1267	1518.3556	1621.1738	1730.7091	1831.9427	2993.7148	3021.5682	3042.9552	3080.8443	3091.3511	3154.4179	3563.6459	3669.6315
CN=C1OC(N)=NN1C	CN=c1oc(N)nn1C	
InChI=1S/C4H8N4O/c1-6-4-8(2)7-3(5)9-4/h1-2H3,(H2,5,7)	InChI=1S/C4H8N4O/c1-6-4-8(2)7-3(5)9-4/h1-2H3,(H2,5,7)
