20
gdb 106692	2.4649	1.49937	1.19403	2.3713	78.85	-0.2356	0.0685	0.3042	1125.1996	0.170539	-403.082512	-403.073746	-403.072802	-403.115867	33.7	
C	 0.027578394	 1.5456192824	 0.0009279356	-0.493826
C	 0.0086824568	 0.0462003884	 0.1138526305	 0.250104
C	 1.1900871632	-0.8439605099	-0.2278444907	-0.372035
C	 0.5855739453	-0.935063482	 1.1409720816	 0.295452
C	 1.3307485397	-0.7974517178	 2.4323965282	-0.167113
O	 2.057157537	-1.9754833684	 2.7530624417	-0.414214
N	-0.5976222551	-1.8361997655	 1.0725504787	-0.17138
C	-1.7508175324	-1.01134675	 1.4910812208	-0.24663
C	-1.2258234017	-0.8239092315	 0.1197985972	-0.090851
H	 1.0040349108	 1.9509938506	 0.2844611817	 0.122159
H	-0.1713764797	 1.8658636465	-1.0288994946	 0.124422
H	-0.728384286	 2.0073375764	 0.6453519578	 0.118893
H	 1.0779172703	-1.6743191233	-0.9197792705	 0.114261
H	 2.1504512431	-0.3383085372	-0.2772152724	 0.113247
H	 2.066075762	 0.0108225071	 2.3616308	 0.109686
H	 0.6320205174	-0.5348423257	 3.2438448821	 0.084219
H	 1.4418050221	-2.7129988656	 2.6734993127	 0.293783
H	-2.663208307	-1.5888147319	 1.6075995031	 0.119796
H	-1.6017874968	-0.2339529753	 2.2370373557	 0.114057
H	-1.7733846429	-1.1554624372	-0.7581676592	 0.095972
66.8101	130.6882	192.4488	220.5628	248.2361	268.2145	354.7627	398.6213	418.5486	523.126	566.6317	589.9078	730.3229	757.4701	805.2289	836.3372	876.9189	935.4846	958.8613	976.5588	1002.1747	1027.6969	1050.4999	1056.1991	1081.0091	1112.3118	1114.5296	1133.9522	1150.7037	1206.4319	1223.146	1271.0087	1286.2951	1359.669	1374.9423	1392.3689	1417.7031	1439.6803	1485.9582	1493.5955	1495.5398	1500.6105	1504.3156	2967.2072	3023.8381	3072.1445	3082.8995	3100.2516	3108.1756	3112.7132	3150.2849	3200.037	3200.2962	3804.0655
CC12CC1(CO)N1CC21	C[C@@]12C[C@]1(CO)N1C[C@@H]21	
InChI=1S/C7H11NO/c1-6-3-7(6,4-9)8-2-5(6)8/h5,9H,2-4H2,1H3	InChI=1S/C7H11NO/c1-6-3-7(6,4-9)8-2-5(6)8/h5,9H,2-4H2,1H3/t5-,6-,7+,8?/m0/s1
