19
gdb 41594	2.83	1.75263	1.64273	2.7465	72.75	-0.2281	0.0613	0.2894	924.4081	0.162479	-422.987217	-422.980443	-422.979499	-423.018363	27.531	
C	 0.3844396824	 1.6418838006	-0.1392625908	-0.089611
O	 1.6972983548	 1.3557971418	 0.4039609231	-0.286353
C	 1.3385170174	-0.0168476276	 0.6659473044	 0.083699
C	-0.0159159074	 0.1616299588	-0.0795280034	-0.09949
C	 0.5043079295	-0.7667015337	-1.2275734589	-0.063557
C	 1.0050658292	-0.1797992399	-2.5574923748	-0.255739
C	 2.4827565414	 0.1801755165	-2.275574696	-0.080918
O	 2.9186248605	-0.6887891378	-1.2268987868	-0.252789
C	 1.8183095476	-1.0265583026	-0.4261157021	 0.107083
H	-0.1917393125	 2.2825787878	 0.5409466888	 0.103855
H	 0.4351186102	 2.1265950881	-1.1207877471	 0.103354
H	 1.4612008429	-0.287128135	 1.7188848853	 0.070929
H	-0.9882810842	-0.0876804449	 0.3419339308	 0.07622
H	-0.1349053915	-1.6375729318	-1.3782736428	 0.077457
H	 0.9455639837	-0.9459160923	-3.3358598489	 0.107736
H	 0.4289582375	 0.6827665683	-2.9033622333	 0.10452
H	 3.1334357862	 0.0040009252	-3.1374380717	 0.101673
H	 2.5890890603	 1.225079482	-1.9651478889	 0.115614
H	 1.9706684419	-2.0355729637	-0.0300307769	 0.076319
109.7642	215.2173	243.7869	277.7167	440.9688	538.7208	618.4099	671.4659	714.6651	744.7634	810.1499	847.5369	878.557	894.2159	921.279	945.6593	972.3808	990.571	997.6303	1020.6242	1059.4736	1094.7751	1117.5393	1140.4705	1143.2942	1168.8033	1192.458	1215.0061	1224.2126	1246.4902	1266.7278	1282.781	1305.415	1323.2554	1331.9348	1349.9367	1364.9888	1399.1852	1487.7182	1521.4199	1529.1021	3012.6638	3041.1718	3052.5522	3056.7213	3060.3844	3067.0345	3083.5719	3094.7971	3107.5485	3124.4196
C1OC2C1C1CCOC21	C1O[C@H]2[C@@H]1[C@H]1CCO[C@@H]21	
InChI=1S/C7H10O2/c1-2-8-6-4(1)5-3-9-7(5)6/h4-7H,1-3H2	InChI=1S/C7H10O2/c1-2-8-6-4(1)5-3-9-7(5)6/h4-7H,1-3H2/t4-,5+,6-,7+/m1/s1
