16
gdb 67871	2.68471	1.651	1.3802	3.1529	70.18	-0.2398	-0.0042	0.2356	970.6643	0.124809	-437.913568	-437.905668	-437.904724	-437.946003	29.856	
O	 0.1426246589	 1.4235612896	-0.1729289229	-0.481416
C	 0.0826688008	 0.0277042164	-0.0966611176	 0.241842
C	 0.7942277977	-0.6767578245	-1.2165306782	-0.12222
C	 0.0391348098	-1.6049955255	-1.804595606	-0.057704
C	-1.3521243917	-1.7042801324	-1.2186940704	-0.283663
C	-1.3073931815	-0.7298144544	-0.0332921995	-0.026868
N	-0.8389772011	-1.2946183516	 1.2413192264	-0.332841
C	 0.3166482862	-0.5662910044	 1.3275202347	 0.347687
O	 1.133805106	-0.3905560799	 2.1931353509	-0.369699
H	 0.4473394451	 1.7524976729	 0.6807067114	 0.298532
H	 1.8164423461	-0.427511347	-1.4742236818	 0.107982
H	 0.367973665	-2.2469881868	-2.6146848545	 0.103218
H	-2.1205482852	-1.4301869493	-1.9521215509	 0.117047
H	-1.5877787937	-2.7224585885	-0.884017926	 0.112165
H	-2.1806841481	-0.0831866497	 0.0724167597	 0.094259
H	-1.2918055543	-1.8961055249	 1.9138465547	 0.251679
93.1042	128.7198	186.6305	242.7739	316.2234	329.2072	418.4416	444.9093	540.1459	655.7198	693.6506	729.5499	745.0652	787.8968	836.0886	876.1719	933.1062	956.8853	975.4763	1026.1312	1043.4285	1101.6094	1124.0026	1160.08	1180.16	1225.0882	1252.7085	1310.4118	1335.5316	1350.498	1373.8119	1399.2927	1468.6531	1675.6641	1884.8201	3025.8103	3056.4947	3092.7533	3188.3101	3218.0416	3606.6285	3795.2905
OC12C=CCC1NC2=O	O[C@]12C=CC[C@H]1NC2=O	
InChI=1S/C6H7NO2/c8-5-6(9)3-1-2-4(6)7-5/h1,3-4,9H,2H2,(H,7,8)	InChI=1S/C6H7NO2/c8-5-6(9)3-1-2-4(6)7-5/h1,3-4,9H,2H2,(H,7,8)/t4-,6-/m1/s1
