23
gdb 100990	2.51652	1.07944	1.02196	1.7165	81.29	-0.2546	0.0672	0.3219	1342.3292	0.203924	-425.413088	-425.402701	-425.401757	-425.448041	39.199	
C	-1.4667146664	-0.0951684696	-0.201762569	-0.412506
C	 0.0628394569	-0.0673722028	-0.0699186782	 0.027323
C	 0.4866335734	-0.6209254774	 1.2952309826	-0.09103
O	 0.0289413428	 0.2887379628	 2.2911678331	-0.427194
C	 0.7686889399	-0.8195682423	-1.2093271367	 0.404226
O	 0.4109211559	-2.1823770865	-1.0678269997	-0.489009
C	 0.5705882017	-0.175856505	-2.6188716832	-0.282461
C	 1.9606340648	 0.4969158228	-2.4802945137	-0.213263
C	 2.2942273276	-0.4946692944	-1.3356841359	-0.280596
H	-1.8122985701	 0.4487173806	-1.0854683813	 0.104832
H	-1.8222801353	-1.1267398061	-0.2785055777	 0.125585
H	-1.9186072275	 0.3666764917	 0.6788379464	 0.127894
H	 0.4019942111	 0.9763828886	-0.1038921947	 0.078697
H	 0.0517182045	-1.6198492367	 1.4335932572	 0.102158
H	 1.5806685017	-0.7287428489	 1.3429826403	 0.081146
H	 0.1553027432	-0.1226142685	 3.1505395832	 0.284389
H	 0.817504315	-2.6758552623	-1.7867642196	 0.273024
H	 0.5696123905	-0.9503204151	-3.393894705	 0.087209
H	-0.3007821396	 0.4635778126	-2.7744195327	 0.10268
H	 2.6107768192	 0.4821169284	-3.3571378345	 0.097911
H	 1.8874221087	 1.5278677465	-2.1256191695	 0.109561
H	 2.8116501968	-0.1074713839	-0.4547594706	 0.101691
H	 2.8434042551	-1.3693452943	-1.7005958808	 0.087734
85.8127	95.224	136.7127	192.6403	217.4032	240.1845	255.9167	286.1498	316.7095	333.3079	349.2936	466.812	479.0763	492.7829	663.3608	745.465	781.7596	828.7968	883.1343	926.3794	934.6252	938.413	978.2225	1014.7004	1021.6939	1039.6876	1061.6815	1103.9393	1128.8647	1166.311	1191.6709	1197.7989	1217.1392	1244.5286	1250.6575	1271.3507	1275.6985	1286.8206	1333.8156	1354.9489	1395.8154	1410.8455	1453.992	1468.8923	1484.5942	1498.9419	1504.0599	1508.7098	1523.4877	2984.7931	3019.2707	3036.6381	3041.5245	3046.1275	3048.6551	3067.8598	3100.0629	3105.9637	3115.1751	3122.9254	3130.9902	3817.8511	3835.7844
CC(CO)C1(O)CCC1	C[C@@H](CO)C1(O)CCC1	
InChI=1S/C7H14O2/c1-6(5-8)7(9)3-2-4-7/h6,8-9H,2-5H2,1H3	InChI=1S/C7H14O2/c1-6(5-8)7(9)3-2-4-7/h6,8-9H,2-5H2,1H3/t6-/m0/s1
