19
gdb 68098	2.40163	1.68202	1.36982	2.3282	75.62	-0.2379	-0.0063	0.2316	1048.2931	0.15778	-423.040102	-423.031308	-423.030364	-423.073054	33.37	
C	 0.0620820752	 1.5240294434	 0.1113270877	-0.498857
C	-0.0127410877	 0.032033239	-0.0080817923	 0.29859
C	 0.5751022292	-0.7036906662	-1.2303134201	-0.265754
C	 0.4186404063	-2.1751640818	-0.726949852	-0.265756
C	-0.2172710709	-1.8916393849	 0.649976566	 0.298591
C	-0.4174353557	-2.9859551963	 1.6541265269	-0.498857
O	 0.5733722173	-0.7325029691	 1.1116572424	-0.366014
C	-1.2687396815	-0.8088300252	 0.3159938094	 0.363051
O	-2.4332236705	-0.6233688955	 0.4962185743	-0.324924
H	 1.1015941316	 1.865784039	 0.0800771913	 0.131296
H	-0.4749499748	 1.9894259439	-0.7208595297	 0.134772
H	-0.3914975797	 1.8628301664	 1.0460530797	 0.140455
H	 0.0200209254	-0.4957112397	-2.1495029841	 0.111281
H	 1.6200104333	-0.4227317623	-1.3842049841	 0.112161
H	-0.2237813941	-2.7885714765	-1.3651556681	 0.111282
H	 1.3797331937	-2.6824650899	-0.6111947333	 0.112161
H	 0.5348264128	-3.4648182246	 1.9036175243	 0.131296
H	-0.8655329437	-2.5954304164	 2.5711500007	 0.140455
H	-1.0850527561	-3.7488931834	 1.2421258409	 0.134772
134.6376	164.2816	164.5248	205.3837	223.7694	238.8261	259.8968	365.6455	475.8291	517.5318	603.0226	610.5752	668.2364	752.5508	758.3187	838.8937	879.505	891.7637	899.3941	911.0085	956.9361	1000.1595	1079.2385	1100.9931	1149.7805	1171.6944	1227.4346	1229.0905	1251.9198	1253.306	1337.0715	1376.4183	1410.9363	1427.0428	1473.3684	1479.7195	1481.4389	1489.8415	1491.1221	1497.8984	1908.0383	3042.6806	3043.0417	3056.0168	3065.2447	3099.8287	3111.7216	3112.3426	3117.6019	3125.9176	3126.132
CC12CCC(C)(O1)C2=O	C[C@@]12CC[C@@](C)(O1)C2=O	
InChI=1S/C7H10O2/c1-6-3-4-7(2,9-6)5(6)8/h3-4H2,1-2H3	InChI=1S/C7H10O2/c1-6-3-4-7(2,9-6)5(6)8/h3-4H2,1-2H3/t6-,7+
