18
gdb 82543	2.36949	1.63596	1.36498	1.303	71.74	-0.2234	0.0688	0.2922	1023.1189	0.146738	-439.004076	-438.995717	-438.994773	-439.036554	32.998	
O	 0.0247987069	 1.3702525402	 0.0532800557	-0.4385
C	-0.0576268154	-0.0172802444	 0.0293326216	 0.065417
C	-0.4946738175	-0.8114094541	 1.2255327658	-0.147321
N	-1.4943845249	 0.0303785353	 1.9369687484	-0.410768
C	-2.413300742	-0.1060714546	 0.7720249567	 0.312681
C	-3.8490092592	-0.5032402812	 0.8532590249	-0.34376
C	-3.4558470458	 0.8789658972	 0.353839813	-0.316393
C	-1.350592263	-0.8018832483	-0.0531599063	 0.231027
O	-1.6256180692	-1.786068905	-0.9822254076	-0.453686
H	-0.3991428155	 1.6371755293	 0.883255995	 0.298557
H	 0.7528880515	-0.4695758547	-0.5382688277	 0.103372
H	 0.089842383	-1.5683142922	 1.733808469	 0.102236
H	-1.8665414786	-0.4608708757	 2.7442852192	 0.228594
H	-4.2037991565	-1.2349066251	 0.1350572048	 0.129691
H	-4.3086788499	-0.5720314546	 1.8346490523	 0.111805
H	-3.6428630835	 1.719662372	 1.0135031356	 0.118051
H	-3.5642566565	 1.0998958143	-0.7029934096	 0.115989
H	-1.4232968839	-1.4415596885	-1.8588674809	 0.293009
106.8137	189.1251	199.1417	221.0534	273.2411	312.1552	388.3479	415.5308	472.3026	555.6792	584.5317	632.9777	679.0972	763.573	813.4843	823.3016	870.2474	906.9111	921.7381	935.9074	982.7526	986.9264	1019.3953	1049.9565	1063.4333	1071.9164	1104.0039	1174.2892	1186.5937	1230.2533	1252.8945	1297.9937	1311.4894	1321.6258	1400.8863	1419.8789	1452.0077	1482.3646	1503.6885	3123.4707	3129.4521	3143.2096	3189.6536	3206.5544	3221.2704	3511.0323	3710.2146	3798.0712
OC1C2NC3(CC3)C12O	O[C@H]1[C@H]2NC3(CC3)[C@@]12O	
InChI=1S/C6H9NO2/c8-4-3-6(4,9)5(7-3)1-2-5/h3-4,7-9H,1-2H2	InChI=1S/C6H9NO2/c8-4-3-6(4,9)5(7-3)1-2-5/h3-4,7-9H,1-2H2/t3-,4+,6+/m1/s1
