19
gdb 7534	4.91518	1.0871	1.01906	2.544	72.72	-0.2452	-0.0265	0.2187	1199.3747	0.162786	-365.053702	-365.044371	-365.043427	-365.088059	33.178	
C	 0.0057515009	 1.4284370966	-0.3516306575	-0.402037
C	 0.0399021956	-0.0154088047	 0.0885762308	-0.037114
N	 1.3482466617	-0.6983017337	 0.0895732633	-0.369087
C	 0.6272549693	-0.510481735	 1.3684596789	 0.307431
C	 1.2927137178	 0.4255531307	 2.3590110474	-0.446983
C	-0.0223134294	-1.7313751578	 2.0112533863	-0.349198
C	 0.988215845	-2.6517852302	 2.6703364924	 0.163805
O	 0.8773432648	-3.1145093437	 3.7758587233	-0.239295
H	 0.8864972743	 1.9753814683	-0.0104891358	 0.128976
H	-0.0176262583	 1.48908218	-1.4449996407	 0.123772
H	-0.8883537982	 1.9322057112	 0.03160223	 0.117736
H	-0.8077639606	-0.5987097059	-0.2726515015	 0.077855
H	 1.2517543686	-1.6533252846	-0.2472605861	 0.22385
H	 1.815439138	 1.2358545947	 1.8500442709	 0.132686
H	 0.5534608643	 0.8576721322	 3.0425486429	 0.120849
H	 2.0300100302	-0.1115238478	 2.9664133305	 0.127571
H	-0.7668962068	-1.4475350615	 2.7622100414	 0.12453
H	-0.5362118809	-2.3196989202	 1.2369177689	 0.114096
H	 1.8737171237	-2.8909580986	 2.0363185745	 0.080558
57.4776	79.0094	151.7073	165.3622	171.4724	259.2835	276.4422	343.184	376.6857	470.2844	480.5886	538.9847	699.5362	772.3355	808.5736	871.114	952.8211	974.5464	1002.2368	1024.9204	1048.5137	1085.9087	1104.4463	1119.7006	1147.5473	1206.0849	1243.6049	1264.7403	1325.4671	1364.9455	1412.2358	1424.095	1428.7976	1451.1466	1456.9814	1481.4087	1486.5363	1500.34	1509.8037	1834.8491	2861.3164	3009.1248	3034.6679	3038.2446	3085.2617	3091.6751	3094.2009	3096.4986	3133.3438	3146.3078	3490.3623
CC1NC1(C)CC=O	C[C@H]1N[C@]1(C)CC=O	
InChI=1S/C6H11NO/c1-5-6(2,7-5)3-4-8/h4-5,7H,3H2,1-2H3	InChI=1S/C6H11NO/c1-5-6(2,7-5)3-4-8/h4-5,7H,3H2,1-2H3/t5-,6-/m1/s1
