19
gdb 128217	2.44962	1.34877	0.8832	1.5661	81.95	-0.1734	0.0407	0.2141	1325.4707	0.160657	-415.396206	-415.386567	-415.385623	-415.430931	34.733	
C	-0.0238797057	 1.4315741898	 0.0752742568	-0.321296
N	-0.1040526094	-0.0170843727	 0.0079133809	-0.400944
C	 0.5685562694	-0.6325602258	-1.0564518374	 0.164079
C	 1.1431242616	-0.09742392	-2.1932191576	-0.115558
N	 1.6028632628	-1.1458582656	-2.9358150813	 0.040779
C	 2.4109889791	-1.0915946702	-4.127826473	-0.315471
N	 1.3764740757	-2.3364555977	-2.3318076787	-0.345553
C	 0.7451267649	-2.0323347496	-1.2041423517	 0.293067
N	 0.362561055	-2.9954545029	-0.2592624682	-0.604261
H	 1.0089619305	 1.8199179535	 0.0804562913	 0.104737
H	-0.5388288009	 1.8662958443	-0.7889100206	 0.127691
H	-0.5318411258	 1.7820291676	 0.9771695078	 0.12009
H	 0.1475202807	-0.4540890855	 0.8870625909	 0.235339
H	 1.2540760226	 0.9210442046	-2.5277446288	 0.11733
H	 3.484261525	-1.1049494238	-3.8986235248	 0.131051
H	 2.1773074728	-1.9557956543	-4.7528934155	 0.147584
H	 2.179492918	-0.1772765799	-4.6797401198	 0.130121
H	 0.531291782	-3.9291607857	-0.6153869124	 0.247038
H	-0.6167473983	-2.905787206	-0.0085596178	 0.244178
69.748	94.9166	135.4458	158.3469	208.9474	246.2278	284.0049	295.789	345.278	365.316	556.4968	588.3272	600.874	651.4278	699.2014	719.8578	752.2183	838.1438	862.1124	1008.1795	1066.6118	1080.9476	1144.1093	1150.2819	1153.736	1161.6415	1227.621	1247.15	1357.8132	1436.2646	1443.2761	1457.3224	1469.8535	1484.2953	1485.7842	1489.6963	1520.2318	1520.6565	1561.1898	1628.7327	1663.1921	2957.5683	3018.373	3057.4682	3095.5835	3113.7231	3138.1608	3264.4864	3504.9779	3535.486	3602.976
CNC1=CN(C)N=C1N	CNc1cn(C)nc1N	
InChI=1S/C5H10N4/c1-7-4-3-9(2)8-5(4)6/h3,7H,1-2H3,(H2,6,8)	InChI=1S/C5H10N4/c1-7-4-3-9(2)8-5(4)6/h3,7H,1-2H3,(H2,6,8)
