16
gdb 57000	3.01293	1.23316	0.98842	4.3123	68.51	-0.2707	0.0089	0.2796	1169.2558	0.123496	-437.845298	-437.837019	-437.836075	-437.878701	30.4	
O	-0.2675625263	 1.3020823003	 0.0026185516	-0.411483
C	 0.0306851451	-0.0804679267	-0.0627341802	-0.017197
C	 0.8122652211	-0.4050487228	-1.2744951668	 0.250702
N	 1.4632315577	-0.6411814219	-2.1998710903	-0.319359
C	 0.7515635819	-0.5947990035	 1.186887471	-0.050211
C	-0.0178441577	-0.4551270452	 2.5503137314	-0.285387
C	 0.0362109004	-1.9828773501	 2.6760673168	 0.03888
O	-0.6160195503	-2.5234153863	 1.5200840096	-0.238499
C	 0.7522221707	-2.1226912103	 1.3971289213	 0.011084
H	 0.5626890343	 1.7921949279	 0.0180465539	 0.293944
H	-0.9357884958	-0.5889083664	-0.1310757862	 0.15534
H	 1.7600452427	-0.1739690434	 1.2453647757	 0.092629
H	 0.5711226551	 0.0696780955	 3.305048994	 0.11497
H	-1.0197088152	-0.0238300141	 2.5017761751	 0.128676
H	 0.0573285638	-2.6008766631	 3.5653815097	 0.115118
H	 1.4615329724	-2.86052081	 1.0427243034	 0.120794
64.7705	122.1451	139.64	217.5918	263.0936	319.6213	376.9941	428.5541	494.69	564.1489	623.2166	748.8803	823.2504	850.1954	862.553	923.8187	931.7476	946.3548	1003.8413	1023.632	1054.3347	1073.9139	1114.9563	1153.6785	1202.9508	1238.4359	1239.6945	1250.3999	1279.2278	1302.0954	1367.813	1390.2128	1424.45	1474.9974	2352.5051	3064.2258	3077.6438	3086.1119	3134.8673	3191.2863	3206.0225	3800.0057
OC(C#N)C1CC2OC12	O[C@@H](C#N)[C@H]1C[C@H]2O[C@@H]12	
InChI=1S/C6H7NO2/c7-2-4(8)3-1-5-6(3)9-5/h3-6,8H,1H2	InChI=1S/C6H7NO2/c7-2-4(8)3-1-5-6(3)9-5/h3-6,8H,1H2/t3-,4+,5-,6+/m1/s1
