24
gdb 60051	2.56908	0.99736	0.9	1.9685	86.3	-0.2191	0.0643	0.2833	1474.04	0.21423	-405.522481	-405.511357	-405.510412	-405.558654	41.096	
C	-2.4504620793	 0.4890697226	 2.6290466292	-0.398081
C	-1.938706849	-0.8311830874	 2.0504755752	 0.130994
O	-2.8118440391	-1.9099238824	 2.3744327282	-0.425563
C	-1.6823804321	-0.7294226059	 0.5362148276	-0.295448
C	-1.2588958678	-2.0391825915	-0.1161095653	 0.374333
C	-0.0522136381	-2.7128510287	 0.5102942924	-0.457317
C	-2.3003024681	-2.8932975785	-0.761937161	-0.280935
N	-1.3167132353	-2.1922197692	-1.5792929195	-0.125045
C	-1.7796718161	-1.1155754102	-2.4397890877	-0.312366
H	-2.6242177244	 0.3880035577	 3.7036224793	 0.123977
H	-1.7329399589	 1.3001933289	 2.4665643667	 0.114856
H	-3.3965699867	 0.7806375906	 2.1558016537	 0.104724
H	-0.9998136665	-1.0904507869	 2.552501978	 0.094756
H	-3.6471783153	-1.7603391754	 1.9179894227	 0.275187
H	-2.5909048828	-0.3431699144	 0.0592778228	 0.085061
H	-0.9028870906	 0.0285356465	 0.374308704	 0.098746
H	-0.2849620379	-3.0841003702	 1.5130725009	 0.131318
H	 0.2633542009	-3.5550087494	-0.1093963682	 0.122913
H	 0.7925454153	-2.0176426022	 0.5883030588	 0.106609
H	-2.2257767185	-3.978157634	-0.7382232529	 0.108759
H	-3.3239241268	-2.5160596327	-0.7686807746	 0.085088
H	-2.6723804021	-0.5800373364	-2.080197063	 0.095667
H	-0.9758074599	-0.3849751708	-2.5794678641	 0.11964
H	-2.0222744609	-1.5368416602	-3.4212089333	 0.122127
43.9111	89.4221	131.7549	177.8286	196.9419	234.321	242.966	243.9885	257.3085	311.8308	365.2497	408.485	439.8135	454.1733	475.0348	523.228	725.7158	753.7371	846.3433	896.1172	906.5026	930.2396	964.115	998.4883	1035.984	1053.9915	1082.0341	1115.4341	1117.8289	1132.6235	1152.2664	1170.8249	1192.4927	1233.995	1291.8099	1316.4372	1336.4592	1370.9102	1399.9698	1404.4122	1415.4775	1425.4933	1447.9695	1471.4541	1487.9986	1491.0377	1493.8842	1494.9167	1497.7259	1502.7801	1517.1057	2973.287	3010.1623	3024.8574	3028.4468	3043.4268	3057.8708	3064.9049	3072.7847	3093.9746	3094.7601	3095.9222	3118.4641	3127.4081	3158.9384	3799.867
CC(O)CC1(C)CN1C	C[C@@H](O)C[C@@]1(C)CN1C	
InChI=1S/C7H15NO/c1-6(9)4-7(2)5-8(7)3/h6,9H,4-5H2,1-3H3	InChI=1S/C7H15NO/c1-6(9)4-7(2)5-8(7)3/h6,9H,4-5H2,1-3H3/t6-,7+,8?/m1/s1
