17
gdb 39452	2.51334	1.97743	1.33524	0.7382	67.36	-0.2533	0.0566	0.3099	955.5049	0.137282	-458.912643	-458.90571	-458.904766	-458.943898	27.485	
C	-0.0177727489	 1.5120843437	 0.0835357676	-0.171127
O	 1.4200048175	 1.4792606417	-0.1103491497	-0.292857
C	 1.3972547062	 0.0780530566	-0.5004250477	 0.048762
C	 2.4327183397	-0.8289103402	 0.1653255514	-0.115285
O	 2.0453725858	-1.293933421	 1.4457699001	-0.240854
C	 0.7843091728	-1.9545028432	 1.4283158192	-0.114644
C	-0.3224451118	-0.9542632172	 1.1371329991	-0.051903
O	-0.9712627049	-0.990365361	-0.1637298266	-0.288961
C	-0.0057638028	-0.0069154297	 0.0781039743	 0.355086
H	-0.3049054791	 2.0213831838	 1.0087359003	 0.118816
H	-0.5359837762	 1.9670639925	-0.7712447659	 0.111668
H	 1.4509350354	-0.0151308974	-1.5938525124	 0.084317
H	 2.6197000187	-1.6869519589	-0.5022281141	 0.094068
H	 3.3707374339	-0.282726676	 0.2990474164	 0.129614
H	 0.7673371979	-2.7547760328	 0.6718215389	 0.10687
H	 0.6670113003	-2.4037159331	 2.417032579	 0.117682
H	-0.9860295647	-0.6606906578	 1.9470010202	 0.108747
133.8467	203.2345	253.6059	340.3077	378.2535	447.694	467.6332	514.1163	584.2703	720.4956	812.4181	829.2086	859.4214	899.6393	937.9127	970.2443	982.6393	1043.1025	1063.7131	1082.8075	1090.9891	1100.9302	1143.4834	1151.4355	1175.7149	1250.6195	1283.5373	1313.1953	1320.8788	1348.4366	1362.8994	1378.8486	1409.4264	1469.0011	1482.9372	1513.2597	1529.293	2965.132	2988.6889	3010.6295	3018.3778	3081.6244	3096.1531	3104.9594	3144.9661
C1OC2COCC3OC123	C1O[C@H]2COC[C@@H]3O[C@]123	
InChI=1S/C6H8O3/c1-4-6(3-8-4)5(9-6)2-7-1/h4-5H,1-3H2	InChI=1S/C6H8O3/c1-4-6(3-8-4)5(9-6)2-7-1/h4-5H,1-3H2/t4-,5-,6+/m0/s1
