19
gdb 83173	2.90281	1.43082	1.22513	3.3437	77.2	-0.2252	0.03	0.2552	1091.9785	0.161105	-419.194222	-419.18605	-419.185106	-419.227046	31.528	
C	-0.5631722621	 1.3845461732	 0.0776789787	-0.403332
C	-0.0995265567	-0.0496250196	-0.0170281307	-0.058731
C	 0.7241592111	-0.544678226	-1.2026530327	-0.066283
N	 1.2497066635	 0.4151672382	-2.1334399937	-0.303082
C	 2.7084122141	 0.4717958726	-2.0588186653	-0.255699
C	 3.1103083867	 0.9699669819	-0.6877225836	 0.430048
N	 4.1173828201	 1.7139463006	-0.5184433065	-0.519811
O	 2.3025963857	 0.5991497202	 0.3541517673	-0.243583
C	 1.3508104616	-0.4243326348	 0.1585853036	 0.076785
H	 0.1165622484	 2.0493114488	-0.4564166371	 0.141775
H	-1.5584917268	 1.4938946068	-0.3652572064	 0.113965
H	-0.6203490953	 1.709745977	 1.1213404666	 0.119284
H	-0.7891955982	-0.7860761709	 0.3882405811	 0.087198
H	 0.5332587098	-1.553599706	-1.5707165587	 0.082816
H	 0.9236275987	 0.2534809611	-3.0762909011	 0.232413
H	 3.1934568451	-0.5049176895	-2.2385961518	 0.10423
H	 3.102813423	 1.1784878587	-2.7898268501	 0.139195
H	 4.2357219904	 1.9251413551	 0.4748890246	 0.219247
H	 1.6067601008	-1.3180519373	 0.7194346359	 0.103566
76.8185	139.4315	166.3627	200.7755	291.4525	392.846	423.7536	473.5516	522.9959	590.1774	616.3855	647.7859	752.3297	777.4724	807.0755	879.1129	906.292	928.1692	978.4123	990.4843	1036.1513	1050.1985	1093.9878	1113.511	1123.6308	1145.141	1167.8115	1183.1525	1242.2906	1265.517	1303.0397	1321.9657	1378.4242	1387.1664	1417.2098	1443.5184	1477.3683	1491.4639	1494.6369	1501.5285	1763.7526	2936.7152	3042.1156	3080.976	3099.0884	3125.7863	3132.3608	3146.6426	3152.9115	3461.2164	3576.0347
CC1C2NCC(=N)OC12	C[C@H]1[C@H]2NC[C]([NH])O[C@@H]12	
InChI=1S/C6H10N2O/c1-3-5-6(3)9-4(7)2-8-5/h3,5-8H,2H2,1H3	InChI=1S/C6H10N2O/c1-3-5-6(3)9-4(7)2-8-5/h3,5-8H,2H2,1H3/t3-,5+,6-/m0/s1
