18
gdb 128116	1.88009	1.73326	0.94491	2.4932	75.94	-0.1915	0.0393	0.2307	1229.3378	0.149387	-435.272164	-435.263003	-435.262059	-435.306596	33.044	
C	-0.258634934	 1.064874139	 0.0947225484	-0.336835
N	-0.3699828247	-0.3248636043	-0.313654079	-0.389747
C	 0.5658210459	-0.8801636956	-1.1626838089	 0.37555
C	 1.0451718776	-2.1866247968	-1.2322763879	 0.060916
C	 0.7410704212	-3.2824640252	-0.2617360385	-0.204048
O	-0.6270180957	-3.2733516706	 0.1693735505	-0.416983
C	 1.8973185306	-2.1765484414	-2.3605663907	-0.082808
N	 1.9729150132	-0.9887591836	-2.9433351039	-0.25069
N	 1.1454294838	-0.2084305951	-2.1891370776	-0.267454
H	 0.7184235252	 1.3186381979	 0.5335689865	 0.121908
H	-0.4341788842	 1.7355008968	-0.7550546532	 0.123901
H	-1.0360250682	 1.2770105632	 0.8316081447	 0.136342
H	-0.6464766305	-0.9795944482	 0.4047054902	 0.256363
H	 1.0148137348	-4.2567908242	-0.6928339051	 0.102785
H	 1.3129525683	-3.1775075235	 0.6690889381	 0.114941
H	-1.1707793049	-3.3158160015	-0.6255343065	 0.285109
H	 2.4710790292	-3.0023607536	-2.7590860543	 0.103898
H	 0.9924432823	 0.7450641367	-2.4661481727	 0.266851
59.627	93.5963	153.6968	163.6839	195.4536	262.4139	314.6551	391.9452	420.5039	446.6732	488.9347	617.3359	672.4962	688.4018	724.2554	783.9528	887.3435	949.9283	977.4048	1028.3115	1070.5794	1097.4393	1147.9414	1162.7346	1187.8355	1230.9639	1245.2104	1329.7964	1334.6779	1391.3913	1419.185	1428.4806	1466.9575	1490.0853	1501.0147	1509.3416	1521.5921	1577.4426	1644.1397	2985.9783	2994.6308	3035.4043	3050.6764	3123.603	3228.504	3592.2684	3687.7185	3797.164
CNC1=C(CO)C=NN1	CNc1c(CO)cn[nH]1	
InChI=1S/C5H9N3O/c1-6-5-4(3-9)2-7-8-5/h2,9H,3H2,1H3,(H2,6,7,8)	InChI=1S/C5H9N3O/c1-6-5-4(3-9)2-7-8-5/h2,9H,3H2,1H3,(H2,6,7,8)
