21
gdb 85429	2.31011	1.46982	1.17565	4.46	77.74	-0.2595	0.0182	0.2777	1163.2306	0.181659	-424.29209	-424.282883	-424.281939	-424.325427	35.681	
C	 0.2193998406	 1.6928301888	-0.1406960405	-0.413243
C	 0.0487578177	 0.1967885001	 0.0977659968	 0.103073
O	 0.5771695492	-0.5183156835	-1.0440823454	-0.228787
C	 1.801174337	-1.0493924187	-0.7730658128	 0.423129
O	 2.4454935805	-1.6275210128	-1.5989158928	-0.339191
C	 2.1448870746	-0.7733568358	 0.6848247635	-0.397435
C	 0.7927075237	-0.4142637674	 1.3260957484	 0.26947
C	 0.9160736116	 0.5366780485	 2.5196687875	-0.448742
C	 0.0612204464	-1.6997327974	 1.7556018732	-0.432563
H	 1.2750947755	 1.9809915197	-0.1660772347	 0.123293
H	-0.2252630607	 1.959864807	-1.1028356888	 0.136458
H	-0.2787791743	 2.2730325585	 0.6409517461	 0.123794
H	-1.0182633753	-0.045122197	 0.1361329922	 0.091252
H	 2.6409128464	-1.639051527	 1.1276518152	 0.133594
H	 2.8528872245	 0.0629295903	 0.7178069888	 0.129976
H	 1.4677224918	 1.4461798274	 2.266449921	 0.118806
H	-0.0697289524	 0.8312921084	 2.8966033376	 0.117834
H	 1.446146959	 0.0449656384	 3.3419249414	 0.12128
H	 0.6219250737	-2.2238641987	 2.5363282103	 0.117649
H	-0.9319763328	-1.4670751228	 2.1539685497	 0.116688
H	-0.0674350965	-2.3871713862	 0.9134936733	 0.133665
102.6936	122.6204	231.9379	241.2988	261.1342	288.9119	309.7816	336.7898	343.6886	412.8193	490.1037	516.682	546.7568	598.6652	684.1165	762.3995	835.4232	877.3333	933.1836	956.1959	962.3357	981.9847	1024.0504	1044.5448	1090.2804	1122.2346	1139.9163	1174.2863	1215.1442	1244.0238	1264.5962	1307.0726	1364.9566	1382.072	1406.7322	1412.1221	1427.6657	1464.5534	1481.2102	1489.2326	1492.8128	1499.5571	1509.1825	1512.1992	1882.0092	3029.5366	3034.0023	3043.6859	3051.6681	3055.264	3094.4452	3102.0654	3107.1121	3111.7369	3117.0905	3119.252	3125.7714
CC1OC(=O)CC1(C)C	C[C@H]1OC(=O)CC1(C)C	
InChI=1S/C7H12O2/c1-5-7(2,3)4-6(8)9-5/h5H,4H2,1-3H3	InChI=1S/C7H12O2/c1-5-7(2,3)4-6(8)9-5/h5H,4H2,1-3H3/t5-/m1/s1
