18
gdb 30822	2.32725	1.37554	0.91299	0.7342	77.11	-0.1743	0.0407	0.215	1289.9368	0.148474	-435.311615	-435.302237	-435.301293	-435.345948	34.522	
C	 0.3040948923	 1.5804773309	-0.1913082013	-0.365472
C	-0.0092962098	 0.09239735	 0.0511058298	-0.305712
C	 0.562561062	-0.4565403468	 1.3054344752	 0.272986
C	 0.0792506639	-0.9663128139	 2.4669214005	 0.163873
N	-1.2353087228	-1.1974303604	 2.8739615748	-0.602519
N	 1.1247742545	-1.3602194535	 3.2998931519	-0.38005
C	 2.1868436605	-1.0653026278	 2.6134556265	 0.448168
N	 3.49631475	-1.1856239629	 3.0117857134	-0.590202
O	 1.9658997268	-0.5215485571	 1.4087769616	-0.228591
H	 1.3848040068	 1.7445623957	-0.2325023502	 0.127328
H	-0.127732423	 1.9229982924	-1.1372570404	 0.107776
H	-0.0964203275	 2.2017715309	 0.6157636895	 0.114157
H	-1.0945301922	-0.0592154044	 0.0885679931	 0.105364
H	 0.3423610685	-0.4913268735	-0.8118075545	 0.110129
H	-1.891934323	-0.5057183744	 2.5390786409	 0.242681
H	-1.2886829847	-1.2740003447	 3.8813577299	 0.250354
H	 3.6148381025	-1.8428151096	 3.7685429228	 0.267979
H	 4.1515974253	-1.322645261	 2.2559898364	 0.261751
53.9609	113.3823	187.9993	191.6446	236.1211	275.9142	282.4343	309.877	334.7271	428.5665	531.9087	603.9791	620.3711	651.6742	674.5755	750.3466	766.7781	776.1833	825.7969	962.6375	1009.3397	1029.0209	1079.6464	1085.5212	1149.4369	1178.367	1261.6874	1298.6791	1360.0494	1401.3656	1408.7057	1455.3925	1470.4422	1495.4167	1506.9411	1603.8604	1636.4309	1680.3289	1721.6648	3000.7845	3036.0604	3056.9491	3106.6221	3115.642	3546.9884	3573.7349	3642.7134	3682.0843
CCC1=C(N)N=C(N)O1	CCc1c(N)nc(N)o1	
InChI=1S/C5H9N3O/c1-2-3-4(6)8-5(7)9-3/h2,6H2,1H3,(H2,7,8)	InChI=1S/C5H9N3O/c1-2-3-4(6)8-5(7)9-3/h2,6H2,1H3,(H2,7,8)
