23
gdb 104458	2.28576	1.43266	1.27363	1.1216	81.56	-0.238	0.0789	0.3169	1172.0336	0.205957	-425.429786	-425.420425	-425.419481	-425.4633	36.275	
C	 0.0813244971	 1.3393567384	-0.1908780151	-0.249132
O	-0.0945685943	-0.0274146604	 0.1099088806	-0.278843
C	 0.6427945041	-0.5761370829	 1.2087440951	 0.356776
C	-0.0201990425	-0.1936881857	 2.5366170929	-0.435182
C	 0.5951480547	-2.0952617192	 0.9684138658	-0.220423
C	 1.3929865871	-2.4682987439	-0.2880944914	-0.211442
C	 2.8050380486	-1.8870176298	-0.2130047893	-0.066661
O	 2.7866351733	-0.4829766446	 0.0053208576	-0.246803
C	 2.1213400972	-0.1401343117	 1.2026462857	-0.11511
H	 1.0728994681	 1.5443541675	-0.6148271583	 0.125015
H	-0.6745492015	 1.588377935	-0.9408176383	 0.122289
H	-0.0760550864	 1.9944576466	 0.6786638746	 0.099614
H	-1.0607335691	-0.530573687	 2.5419541794	 0.123405
H	 0.4963747416	-0.6540055726	 3.3847937163	 0.11341
H	-0.0129144471	 0.889803776	 2.6927409744	 0.114282
H	 1.0110555762	-2.6056334492	 1.8465021438	 0.088252
H	-0.450166962	-2.4065189492	 0.8736688916	 0.101655
H	 1.4479899654	-3.5566200046	-0.4046920311	 0.088571
H	 0.8864471435	-2.0613951983	-1.1679865854	 0.120244
H	 3.3739806939	-2.3792859189	 0.596444883	 0.079367
H	 3.3516969924	-2.0404860469	-1.1478329616	 0.104448
H	 2.2181276924	 0.9437860631	 1.3120020129	 0.103219
H	 2.6192757573	-0.6041906615	 2.0718151268	 0.083048
96.0944	151.2032	189.1015	207.4179	225.307	289.5558	311.9368	326.1976	371.5605	412.854	448.6538	501.9589	535.0174	602.1076	734.0177	836.5091	859.0126	886.2434	905.1359	920.2373	990.4502	1020.2333	1041.6738	1058.3371	1119.1356	1130.0872	1142.7957	1180.6798	1189.9553	1214.3482	1217.8156	1248.2986	1295.3688	1308.9235	1333.3949	1358.2259	1379.7321	1395.7242	1405.3963	1420.7443	1470.2836	1476.3744	1481.1576	1485.8782	1490.5678	1496.3307	1501.0837	1505.7636	1517.5048	2945.2377	2957.6688	2987.7656	3026.7219	3037.4892	3044.357	3047.9637	3077.4159	3083.1949	3085.9535	3100.9461	3103.0795	3105.0483	3115.3917
COC1(C)CCCOC1	CO[C@@]1(C)CCCOC1	
InChI=1S/C7H14O2/c1-7(8-2)4-3-5-9-6-7/h3-6H2,1-2H3	InChI=1S/C7H14O2/c1-7(8-2)4-3-5-9-6-7/h3-6H2,1-2H3/t7-/m0/s1
