23
gdb 89890	4.33346	1.00867	0.96945	0.1868	89.97	-0.245	0.0876	0.3326	1351.7317	0.206378	-351.121266	-351.112736	-351.111792	-351.154302	34.271	
C	 0.0032167662	 1.5878222609	 0.0171756219	-0.407935
C	 0.0834064161	 0.0696198875	-0.0065624495	 0.061693
C	 1.144295126	-0.6180521062	-0.9119038298	-0.304677
C	 1.3865576262	-1.6564893	 0.2158822223	 0.394732
C	 0.758847546	-3.0911484209	 0.121484879	-0.307874
C	 2.1292514048	-3.6917775125	 0.4539809614	-0.033046
C	 3.1448828612	-3.2457079877	-0.5585529669	-0.283284
C	 2.7393812291	-2.2909389879	 0.5325751732	-0.128495
C	 0.7138953726	-0.6719533183	 1.2059722595	-0.311673
H	 0.9848946851	 2.028613601	 0.2268336883	 0.108779
H	-0.3404948704	 1.9846845641	-0.9449065956	 0.111965
H	-0.6910951906	 1.9398921294	 0.7887882496	 0.111475
H	-0.9068244971	-0.3498820333	-0.2181525226	 0.069889
H	 0.8201868126	-0.9912576018	-1.8875712012	 0.089528
H	 2.0211010728	 0.0234881389	-1.0577519626	 0.092736
H	 0.010039348	-3.2618649626	 0.8995471313	 0.099471
H	 0.332136685	-3.3822668666	-0.8455498389	 0.089046
H	 2.3017640621	-4.5458522047	 1.0975094536	 0.081434
H	 4.1346597368	-3.6781197105	-0.4500591825	 0.106738
H	 2.8511258693	-3.0613810806	-1.5899064182	 0.103114
H	 3.4591777626	-1.8930417995	 1.2398209299	 0.07525
H	 1.4599969026	-0.042842914	 1.7064398926	 0.09045
H	 0.0456719031	-1.0883787848	 1.9658012352	 0.090686
70.9226	115.08	215.5914	244.1333	292.1588	313.9659	378.8444	410.833	447.0515	511.4821	677.4389	745.8126	787.2084	819.2992	836.5042	850.4369	891.7424	900.1553	928.4307	943.5656	954.2653	970.3816	986.6999	1025.5913	1055.1888	1061.3125	1082.7899	1083.2981	1122.1907	1143.9692	1164.4125	1186.4435	1198.8081	1225.9029	1230.7092	1250.269	1260.5286	1282.7467	1288.373	1319.4204	1360.0052	1379.8453	1410.0787	1470.5204	1478.3084	1492.0784	1493.4909	1496.235	1499.4747	3019.5278	3027.3194	3028.9745	3033.1346	3038.6566	3082.6916	3086.2476	3087.4938	3092.5441	3094.1577	3103.2822	3163.6306	3180.4377	3197.3914
CC1CC2(CC3CC23)C1	C[C@H]1C[C@]2(C[C@H]3C[C@@H]23)C1	
InChI=1S/C9H14/c1-6-3-9(4-6)5-7-2-8(7)9/h6-8H,2-5H2,1H3	InChI=1S/C9H14/c1-6-3-9(4-6)5-7-2-8(7)9/h6-8H,2-5H2,1H3/t6-,7-,8-,9+/m1/s1
