22
gdb 123188	13.34489	0.39428	0.3876	3.7818	86.25	-0.2469	0.0259	0.2727	2813.5791	0.190794	-441.466094	-441.454529	-441.453585	-441.505429	38.093	
C	-0.0208808176	 1.3345146517	 0.0516470308	-0.229638
O	-0.0429733775	-0.0698706387	-0.0316954662	-0.228305
C	 0.68773691	-0.5665672628	-1.1287523544	-0.051911
C	 0.5916606395	-2.0868652264	-1.1149470262	-0.211827
C	 1.353222353	-2.7216525897	-2.2677233609	-0.076974
O	 1.1996982976	-4.1375822458	-2.1621528173	-0.204694
C	 1.8144555349	-4.8682814925	-3.1131998963	 0.133913
N	 1.7403244105	-6.1233638031	-3.1092024109	-0.204216
C	 2.4279113238	-6.8339207281	-4.165940219	-0.314319
H	 1.0036753412	 1.721803221	 0.1715183971	 0.103555
H	-0.4613858356	 1.8049950918	-0.8420419355	 0.103553
H	-0.6099734139	 1.6194711996	 0.9265482258	 0.129868
H	 0.2857439328	-0.1606121047	-2.0744307369	 0.084676
H	 1.7424848768	-0.2435283464	-1.0666147696	 0.084683
H	 0.9860813812	-2.4663146883	-0.167032925	 0.125774
H	-0.460469648	-2.3840165172	-1.1679949019	 0.125755
H	 0.9602778563	-2.3741238473	-3.2340428771	 0.106382
H	 2.4195661312	-2.4571178656	-2.2242830094	 0.106399
H	 2.3638337432	-4.2742739622	-3.8619143316	 0.069035
H	 2.9564203321	-6.1790068828	-4.8788118149	 0.093441
H	 3.1580585147	-7.5257799585	-3.7303589947	 0.12742
H	 1.7105809437	-7.4433092641	-4.7277286658	 0.127431
16.9407	50.0892	72.8064	93.8158	105.2764	145.1511	188.4285	206.9217	237.7225	266.2965	309.229	338.7993	442.1617	523.6325	617.6063	778.4177	889.7063	979.3199	982.4721	1032.0777	1059.5814	1069.262	1113.9146	1140.9357	1156.4632	1167.56	1167.9924	1192.0225	1228.2006	1237.5771	1253.3055	1301.6821	1305.0468	1310.9413	1396.3333	1428.9982	1440.8456	1451.4787	1480.2021	1482.6704	1485.9006	1498.0608	1504.7263	1505.6655	1521.8294	1536.1821	1782.2164	2936.7998	2960.6927	2962.1539	2968.7521	2977.0945	2995.3256	3010.9574	3028.2006	3055.9441	3058.5212	3075.4415	3106.1629	3116.1712
COCCCOC=NC	COCCCOC=NC	
InChI=1S/C6H13NO2/c1-7-6-9-5-3-4-8-2/h6H,3-5H2,1-2H3	InChI=1S/C6H13NO2/c1-7-6-9-5-3-4-8-2/h6H,3-5H2,1-2H3
