14
gdb 11263	5.09943	1.41293	1.1894	5.1896	64.72	-0.274	-0.0548	0.2192	979.9807	0.107874	-378.748845	-378.741523	-378.740579	-378.781017	25.969	
C	-0.2572778308	 1.5367466472	-0.0449924304	-0.399672
C	 0.0747141102	 0.0572825121	 0.038950322	 0.090604
C	 0.9237607658	-0.4981654525	-1.1399663523	-0.205161
N	 2.1941661961	-0.9346452096	-0.5399609549	-0.300549
C	 2.0707072903	-0.7139816625	 0.7045159544	 0.320519
O	 0.9328782029	-0.1799820923	 1.2003396098	-0.259152
C	 3.0908437232	-0.9974640382	 1.6777139767	 0.287177
N	 3.9064589191	-1.2237297198	 2.4633546441	-0.311569
H	 0.650288667	 2.1286985166	-0.1984599526	 0.135005
H	-0.9325191033	 1.7160310826	-0.8880517677	 0.130393
H	-0.7482958765	 1.8799660821	 0.8690593512	 0.140464
H	-0.8308428922	-0.5326762565	 0.2063017046	 0.107447
H	 0.4499166804	-1.3473450925	-1.6421663853	 0.134183
H	 1.1226164777	 0.2641373433	-1.9014121094	 0.130311
54.9699	152.3339	169.3027	244.7331	332.8309	400.9684	453.1081	559.137	570.5062	710.2734	727.3624	835.6017	907.6934	930.8664	962.9914	1018.6351	1063.6547	1118.6705	1139.5387	1229.3441	1246.6786	1332.7637	1351.8641	1391.4655	1412.965	1485.0828	1492.8396	1497.9477	1701.4141	2374.3347	3041.2596	3045.6524	3064.8488	3085.5663	3115.6748	3128.2862
CC1CN=C(O1)C#N	C[C@H]1CN=C(O1)C#N	
InChI=1S/C5H6N2O/c1-4-3-7-5(2-6)8-4/h4H,3H2,1H3	InChI=1S/C5H6N2O/c1-4-3-7-5(2-6)8-4/h4H,3H2,1H3/t4-/m0/s1
