18
gdb 119188	1.94365	1.21805	0.84717	3.1101	73.62	-0.2773	0.0042	0.2816	1385.0905	0.144911	-439.073805	-439.063744	-439.0628	-439.10943	35.17	
C	 0.0669288774	 1.5117011148	-0.1324549868	-0.431809
C	 0.0939927882	 0.0201816323	 0.0673610203	 0.039555
O	 1.3641221002	-0.6342250842	 0.1085297321	-0.273615
C	 0.566381378	-0.6584320862	 1.3023623303	 0.208254
C	 1.1147566501	 0.0588088365	 2.5187442232	-0.273525
C	 2.308597459	-0.6699992247	 3.1338916643	-0.078964
O	 2.7376664681	 0.1095714188	 4.2371296935	-0.419894
C	-0.0200991013	-1.9635783287	 1.5868112924	 0.268627
N	-0.4940633433	-2.9878846732	 1.8367353944	-0.338308
H	 0.8412947471	 2.0200171031	 0.4433973051	 0.139441
H	 0.2272583099	 1.739529944	-1.1910737973	 0.142656
H	-0.9108098689	 1.9132917433	 0.1524782914	 0.137558
H	-0.6510870175	-0.5286906023	-0.5108989313	 0.113699
H	 1.4283385652	 1.0671316898	 2.24251916	 0.125324
H	 0.3243644475	 0.151833216	 3.2717105751	 0.129569
H	 2.0093608735	-1.6821106154	 3.4457354085	 0.111687
H	 3.0995843478	-0.773893836	 2.3760697127	 0.10832
H	 3.4798848892	-0.3389071878	 4.6525421521	 0.291425
64.7345	87.5791	123.1515	143.148	171.7475	174.7382	253.4293	276.5853	348.2002	386.9607	409.1502	498.5584	566.2204	601.2067	724.8961	781.728	819.5281	914.1295	970.612	997.1917	1030.7316	1073.7659	1088.7367	1132.1228	1168.7536	1212.77	1246.2375	1254.8332	1309.4428	1321.9838	1363.3941	1409.2332	1450.9069	1464.1675	1473.0931	1486.0729	1502.8847	1530.568	2353.7899	2983.2718	3016.7886	3047.157	3058.6419	3100.7055	3109.5078	3122.6149	3149.4894	3833.4488
CC1OC1(CCO)C#N	C[C@H]1O[C@]1(CCO)C#N	
InChI=1S/C6H9NO2/c1-5-6(4-7,9-5)2-3-8/h5,8H,2-3H2,1H3	InChI=1S/C6H9NO2/c1-5-6(4-7,9-5)2-3-8/h5,8H,2-3H2,1H3/t5-,6-/m1/s1
