23
gdb 63260	2.0187	1.47735	1.33884	2.807	85.37	-0.2316	-0.0122	0.2193	1171.0993	0.202506	-388.315351	-388.304984	-388.304039	-388.349674	39.826	
C	-0.1876077227	 1.5490682085	-0.0156913539	-0.439526
C	-0.0313987849	 0.0238687099	-0.0232549145	 0.279363
C	-1.3655781994	-0.6322036815	-0.3739373238	-0.45707
C	 1.1956940538	-0.3911280991	-0.9059830146	-0.396887
C	 2.006543718	-0.5241091035	 0.3874066441	 0.39085
O	 3.1780090516	-0.5249383397	 0.6409338547	-0.314927
C	 0.7413763204	-0.5243208066	 1.2653682577	 0.156482
C	 0.7930772208	 0.3285497312	 2.5313789602	-0.451112
C	 0.3839853318	-1.9766392806	 1.6317303607	-0.43777
H	 0.7628478128	 2.0605907327	 0.1677329492	 0.120403
H	-0.5599049471	 1.8920488554	-0.9873052071	 0.114127
H	-0.8988667183	 1.8785579668	 0.7488805465	 0.116758
H	-1.7307401921	-0.2584088269	-1.3371566529	 0.115723
H	-1.2900484163	-1.7196554035	-0.4512158507	 0.113496
H	-2.1311512165	-0.4016509524	 0.3760249246	 0.115213
H	 1.0657556118	-1.3593289992	-1.4014171899	 0.122821
H	 1.5645883707	 0.3289503645	-1.6410458568	 0.121226
H	 1.077124085	 1.3633003043	 2.3291211949	 0.120439
H	-0.1771683086	 0.3343634774	 3.0411352885	 0.113206
H	 1.5326162709	-0.0843537802	 3.2244780839	 0.130399
H	 1.0963156447	-2.3550524575	 2.3712524048	 0.129276
H	-0.6193029557	-2.0314833614	 2.0671867639	 0.120011
H	 0.4146536193	-2.6510099486	 0.7711376608	 0.1175
71.8709	158.1168	166.4877	212.5177	244.5588	257.0487	277.3504	300.009	316.9332	339.3306	364.699	401.5055	420.9965	505.0271	559.7683	607.2111	663.8225	743.7829	828.4284	861.6209	942.49	953.811	963.8852	982.3801	992.1185	1031.9128	1044.7686	1072.5911	1163.7798	1175.7976	1183.1336	1204.8954	1267.6076	1276.2285	1287.3372	1394.8761	1405.8904	1413.1159	1425.3868	1446.7211	1477.8673	1481.4355	1487.8076	1491.2437	1500.8742	1505.9993	1510.9574	1516.9346	1880.5304	3024.9639	3029.2026	3031.8472	3036.2837	3049.9168	3085.1256	3093.255	3097.5189	3099.7796	3103.5552	3106.5394	3108.1474	3115.6906	3124.7212	71.8709	158.1169	166.488	212.5181	244.5591	257.049	277.3511	300.0093	316.9335	339.3307	364.6991	401.5056	420.9965	505.0269	559.7684	607.2111	663.8226	743.7831	828.4286	861.621	942.4901	953.8107	963.885	982.3801	992.1182	1031.9124	1044.7685	1072.5911	1163.7799	1175.7972	1183.1336	1204.8953	1267.6076	1276.2282	1287.3372	1394.8758	1405.89	1413.1155	1425.3866	1446.7215	1477.8668	1481.4351	1487.807	1491.2431	1500.8736	1505.9987	1510.9567	1516.9341	1880.5301	3024.964	3029.2027	3031.8472	3036.2838	3049.9169	3085.1257	3093.255	3097.519	3099.7797	3103.5552	3106.5394	3108.1473	3115.6906	3124.7212
CC1(C)CC(=O)C1(C)C	CC1(C)CC(=O)C1(C)C	
InChI=1S/C8H14O/c1-7(2)5-6(9)8(7,3)4/h5H2,1-4H3	InChI=1S/C8H14O/c1-7(2)5-6(9)8(7,3)4/h5H2,1-4H3
