17
gdb 24119	4.84102	0.91069	0.88024	2.5029	74.18	-0.2408	0.0014	0.2422	1340.2572	0.138129	-418.007972	-418.000218	-417.999274	-418.041602	28.332	
C	-0.0780910992	 1.544940455	 0.2031295385	-0.370179
C	-0.1229905342	 0.0329668169	 0.3614417242	 0.040056
C	-1.3090235215	-0.7271698887	-0.099972067	-0.246171
N	-0.0233528838	-0.8417945124	-0.8133008806	-0.3064
C	 1.288209915	 2.0725611391	-0.0660099812	 0.358047
C	 1.8858520237	 2.7117476284	-1.1017235626	-0.197076
N	 3.2213081339	 2.9551052767	-0.7963207053	-0.254738
C	 3.3635494604	 2.4586204343	 0.3863949798	 0.073461
O	 2.2425754068	 1.9046028309	 0.9071204514	-0.179895
H	-0.7259630434	 1.8491068999	-0.6268613184	 0.114878
H	-0.4846136043	 2.0124821164	 1.1101287669	 0.128305
H	 0.4300865805	-0.3396932683	 1.2208350221	 0.106741
H	-1.6252266703	-1.625267519	 0.422799923	 0.122748
H	-2.1181526902	-0.1685931667	-0.5651258541	 0.109956
H	-0.043727137	-0.2839761741	-1.6646046726	 0.22768
H	 1.4543006376	 3.0192823945	-2.0412264916	 0.121899
H	 4.248366026	 2.4307884571	 1.0026244774	 0.150689
54.5095	63.0866	115.8672	265.7692	322.3198	361.1406	444.69	650.385	669.1023	750.8712	791.4671	827.6158	836.443	854.6985	917.3938	935.6555	941.8995	966.5804	990.0238	1049.5234	1116.113	1125.6664	1132.7278	1141.3693	1166.233	1233.354	1241.3836	1255.8461	1274.6249	1310.278	1331.8535	1359.0894	1422.2803	1461.1713	1514.4738	1552.8148	1637.8102	3017.6809	3071.0564	3105.3435	3135.181	3190.4758	3261.6122	3277.964	3486.3933
C(C1CN1)C1=CN=CO1	C([C@H]1CN1)c1cnco1	
InChI=1S/C6H8N2O/c1(5-2-8-5)6-3-7-4-9-6/h3-5,8H,1-2H2	InChI=1S/C6H8N2O/c1(5-2-8-5)6-3-7-4-9-6/h3-5,8H,1-2H2/t5-/m0/s1
