23
gdb 95317	2.48116	1.62564	1.41122	1.6736	82.8	-0.2523	0.0602	0.3125	1061.0474	0.210332	-388.323191	-388.315377	-388.314433	-388.354905	32.711	
O	 0.1380765506	 1.386802595	-0.2899639062	-0.44755
C	 0.0688243581	-0.0085645642	-0.0044686982	 0.141578
C	 0.8367447198	-0.3840687941	 1.278966766	-0.227822
C	 0.0183147015	-0.151822193	 2.5651343821	-0.218348
C	-1.4292010812	-0.6653944462	 2.4214721116	 0.023605
C	-1.481994255	-2.1300642262	 1.9150176286	-0.211838
C	-1.4586185072	-2.0258935806	 0.3564218999	-0.225571
C	-1.3914865865	-0.5087611182	 0.0484537849	-0.005999
C	-2.1101764545	 0.0959565113	 1.2698353684	-0.228619
H	-0.2429173923	 1.8663150091	 0.4521051922	 0.276539
H	 0.5677035679	-0.4759254456	-0.8613366119	 0.078368
H	 1.114799776	-1.4424057795	 1.2191452895	 0.100145
H	 1.7744918482	 0.1800200708	 1.3026154703	 0.100038
H	 0.5174290352	-0.6418149846	 3.4092041322	 0.093634
H	-0.010693195	 0.9189246962	 2.8106958121	 0.083726
H	-1.9552933728	-0.5472282205	 3.3735979144	 0.056631
H	-0.6564714812	-2.730858138	 2.3084081236	 0.094842
H	-2.4063043429	-2.60922808	 2.2509954714	 0.095078
H	-0.6209972736	-2.572459846	-0.0884745773	 0.095945
H	-2.3715901776	-2.4523759676	-0.0695371473	 0.096573
H	-1.8760536536	-0.2537886148	-0.8978841422	 0.064555
H	-3.1831849884	-0.1241442732	 1.2289472842	 0.090629
H	-2.0145567754	 1.18489326	 1.3520925017	 0.073863
151.3856	192.4659	239.2605	265.3705	345.7397	369.9014	413.1148	445.3345	494.4749	608.3561	726.4007	743.7882	771.8915	798.795	811.9079	881.5453	889.1806	891.2738	938.5866	971.331	977.95	1010.6392	1030.1044	1043.9549	1052.8034	1093.9628	1114.4726	1127.0079	1175.9857	1190.6341	1198.2994	1238.6233	1256.6395	1272.4715	1294.0096	1310.1628	1326.7536	1337.8434	1343.9137	1351.584	1372.9905	1384.5266	1392.2022	1430.8661	1482.2332	1492.0734	1496.3251	1504.3412	1522.4317	3008.2581	3029.4494	3033.6329	3042.9262	3045.3597	3051.0988	3055.9247	3063.0596	3065.2201	3073.0379	3077.3941	3083.382	3097.8999	3822.4153
OC1CCC2CCC1C2	O[C@H]1CC[C@@H]2CC[C@H]1C2	
InChI=1S/C8H14O/c9-8-4-2-6-1-3-7(8)5-6/h6-9H,1-5H2	InChI=1S/C8H14O/c9-8-4-2-6-1-3-7(8)5-6/h6-9H,1-5H2/t6-,7-,8-/m0/s1
