16
gdb 12393	3.00019	2.18433	1.35017	1.9335	60.74	-0.2377	-0.0328	0.2048	891.7779	0.130192	-420.890041	-420.88251	-420.881565	-420.922144	27.55	
C	 0.1434931525	 1.5590642876	-0.0885331225	-0.40122
C	 0.1149340885	 0.0436234653	 0.0059617528	 0.013631
O	 0.6971114685	-0.5021019906	-1.177194363	-0.240724
C	 0.857709315	-1.8901218475	-1.1101906475	 0.014887
O	 1.7945329306	-2.2660671445	-0.1367886568	-0.225839
C	 1.3661972628	-1.9107053175	 1.1658516295	-0.18958
C	 0.8089026002	-0.4903167412	 1.2669048623	 0.353153
O	 0.8406232905	 0.1273288006	 2.3032158523	-0.295704
H	 1.1727231824	 1.909298781	-0.2020467619	 0.135463
H	-0.4366331334	 1.8908146856	-0.9525585004	 0.126373
H	-0.273933886	 1.9946353337	 0.8206636092	 0.143096
H	-0.9334365177	-0.30640128	 0.0821934595	 0.097228
H	-0.116090548	-2.3795863895	-0.911288186	 0.07646
H	 1.2534977411	-2.2148339347	-2.0738070668	 0.126509
H	 0.5692780073	-2.5928943387	 1.5157801028	 0.119767
H	 2.2154113256	-2.0121204497	 1.8444297066	 0.146498
65.7037	151.6498	196.4813	266.3111	339.2842	384.4622	421.8792	454.8966	515.4204	593.5835	673.7557	779.3596	875.5634	924.8065	970.9258	1032.174	1087.0155	1103.6701	1110.4609	1165.9909	1197.8308	1215.8143	1263.7046	1316.3101	1337.8969	1355.5393	1365.7018	1403.3386	1439.0178	1464.1	1482.9257	1496.0383	1509.062	1827.8568	2911.2661	2918.3867	2945.9071	3059.0985	3117.2674	3122.6866	3133.45	3151.3044
CC1OCOCC1=O	C[C@H]1OCOCC1=O	
InChI=1S/C5H8O3/c1-4-5(6)2-7-3-8-4/h4H,2-3H2,1H3	InChI=1S/C5H8O3/c1-4-5(6)2-7-3-8-4/h4H,2-3H2,1H3/t4-/m1/s1
