17
gdb 22293	2.82446	1.26379	0.9215	2.9109	73.6	-0.2508	-0.0024	0.2485	1224.9515	0.136505	-455.123447	-455.115186	-455.114242	-455.156828	31.073	
O	-0.0097959223	 1.3203966064	 0.2856734091	-0.39195
N	-0.005147227	-0.0734404691	 0.4481166752	-0.204139
C	-1.0563641905	-0.605109278	-0.0400475571	 0.376135
C	-1.1999610505	-2.100365581	 0.0176951378	-0.295353
C	-1.9172604977	-2.560970568	-1.2485769954	-0.088215
O	-3.2306572576	-1.9920085211	-1.3262021382	-0.246632
C	-3.395559542	-0.6701897622	-1.0220550596	 0.37165
N	-4.5432156479	-0.1377428863	-0.9954392618	-0.511364
C	-2.1568035997	 0.1517241786	-0.743930169	-0.370231
H	 0.8162747068	 1.5780852641	 0.7083032241	 0.310172
H	-0.2218128459	-2.5761687238	 0.119494393	 0.129927
H	-1.8097816626	-2.3938123841	 0.8826714617	 0.132891
H	-1.3407764133	-2.2925595175	-2.1443168953	 0.116058
H	-2.0710578965	-3.6420232313	-1.2543030747	 0.127029
H	-5.2557633425	-0.8303356233	-1.2359745128	 0.219175
H	-2.4493646389	 1.0414089538	-0.1849365737	 0.169496
H	-1.7577080319	 0.5236608728	-1.6991437533	 0.155349
60.4181	94.9066	212.6912	216.8281	339.2655	385.1094	394.6406	438.8957	474.8976	536.384	545.6447	591.2283	659.6216	780.3127	853.8809	906.616	914.2698	936.27	979.6448	995.4426	1045.0939	1077.0146	1138.4357	1183.4222	1220.248	1253.4246	1270.3002	1297.4328	1327.4473	1349.4952	1411.1113	1422.6819	1441.9878	1463.2371	1516.9029	1738.2734	1755.4713	3013.5856	3016.4837	3028.3593	3109.1597	3110.7499	3127.677	3462.3286	3821.635
ON=C1CCOC(=N)C1	ON=C1CCO[C]([NH])C1	
InChI=1S/C5H8N2O2/c6-5-3-4(7-8)1-2-9-5/h6,8H,1-3H2	InChI=1S/C5H8N2O2/c6-5-3-4(7-8)1-2-9-5/h6,8H,1-3H2
