20
gdb 84919	2.25658	1.8481	1.30336	2.9799	79.42	-0.2388	0.0165	0.2553	1042.3121	0.174079	-403.127832	-403.120155	-403.119211	-403.159562	31.417	
O	 0.0698140954	 1.2884407165	-0.3853153113	-0.441698
C	 0.0134687136	-0.08232157	-0.0111114358	 0.081602
C	 0.8477129962	-0.3233129367	 1.2341378625	-0.073939
C	 0.5210002461	-0.0605801766	 2.5021080622	-0.024666
C	-0.7281945566	 0.5475219187	 3.0935392651	-0.248723
C	-1.7411976301	 1.1531819365	 2.1095189921	-0.22831
C	-2.3073421954	 0.0970409484	 1.1854786415	 0.004476
N	-2.4622208113	 0.4217727613	-0.2507589361	-0.368348
C	-1.4358921794	-0.5460286364	 0.1777441163	-0.061093
H	-0.8107499237	 1.4835409664	-0.7471713637	 0.289079
H	 0.4456062507	-0.6879299847	-0.8242100348	 0.06009
H	 1.833431582	-0.7445721429	 1.0517011129	 0.08528
H	 1.2690774133	-0.3087579504	 3.2554063798	 0.086465
H	-1.2206083024	-0.2164463424	 3.7160648893	 0.104841
H	-0.415944084	 1.3238104342	 3.8054613617	 0.108909
H	-2.549928735	 1.6380310284	 2.6687755452	 0.087501
H	-1.2436383698	 1.9192756131	 1.512213564	 0.132447
H	-3.0818812398	-0.5332846654	 1.6203456053	 0.082938
H	-3.2680234376	-0.0458593342	-0.6542698982	 0.236446
H	-1.6045548622	-1.5985456937	-0.036349848	 0.086702
126.2506	206.0561	235.6935	293.0532	322.9031	389.5114	441.2393	487.9302	529.3229	558.6582	665.5508	723.0433	756.1645	791.0807	834.8296	851.8954	903.3628	918.8768	952.8132	985.9266	1004.6398	1020.7701	1035.2862	1057.3843	1079.7934	1133.0337	1156.0497	1190.9516	1239.29	1255.7452	1265.8514	1293.7464	1326.0221	1351.7724	1367.9698	1384.0198	1403.1153	1429.0338	1457.2369	1465.7581	1477.3523	1489.6971	1722.4666	2956.629	2987.2898	3023.7442	3040.6466	3107.672	3117.6143	3124.8154	3139.1573	3156.0611	3521.3782	3655.7589
OC1C=CCCC2NC12	O[C@H]1C=CCC[C@H]2N[C@@H]12	
InChI=1S/C7H11NO/c9-6-4-2-1-3-5-7(6)8-5/h2,4-9H,1,3H2	InChI=1S/C7H11NO/c9-6-4-2-1-3-5-7(6)8-5/h2,4-9H,1,3H2/t5-,6+,7-/m1/s1
