15
gdb 99455	3.13419	0.71649	0.60957	2.3909	79.87	-0.2716	-0.0687	0.2029	1732.9149	0.108816	-420.555385	-420.545321	-420.544376	-420.592639	33.938	
O	 0.177532871	 1.3490734838	-0.1399861996	-0.406597
C	 0.0991002181	-0.0490790896	-0.0708152169	-0.059664
C	-1.387368839	-0.5323486083	 0.0397507175	-0.372276
C	-2.1476641673	-0.0526392775	-1.1171385551	 0.313634
C	-2.7164161412	 0.3889917801	-2.0790266657	-0.44071
C	-1.4416901205	-1.9838979305	 0.1867885732	 0.118951
C	-1.4380493784	-3.1851339195	 0.3056161086	 0.038749
C	-1.4351742121	-4.6156559339	 0.4879555362	 0.021737
O	-1.7145967712	-5.4152216091	-0.3746725379	-0.22277
H	-0.285108609	 1.6278768813	-0.9398098544	 0.292768
H	 0.5612876499	-0.5441528469	-0.9356364887	 0.116815
H	 0.6316174521	-0.3579096145	 0.8320472342	 0.129489
H	-1.7955999258	-0.0665407186	 0.9472613841	 0.154619
H	-3.247896429	 0.7544936592	-2.923430131	 0.21276
H	-1.1484585776	-4.940663636	 1.5085857456	 0.102494
17.2234	65.5821	91.4289	119.6945	165.7853	201.2353	247.9958	337.7671	359.4218	416.7468	444.1658	526.0357	559.0678	645.3838	668.6811	677.65	814.1466	875.2351	1015.6245	1022.5881	1029.8496	1096.3766	1157.4486	1195.9263	1264.5823	1329.3842	1384.0018	1419.9216	1422.8171	1504.2376	1770.0922	2238.0513	2333.4225	2921.865	3011.0213	3023.9678	3107.5464	3499.9306	3782.629
OCC(C#C)C#CC=O	OC[C@@H](C#C)C#CC=O	
InChI=1S/C7H6O2/c1-2-7(6-9)4-3-5-8/h1,5,7,9H,6H2	InChI=1S/C7H6O2/c1-2-7(6-9)4-3-5-8/h1,5,7,9H,6H2/t7-/m0/s1
