20
gdb 46777	2.71667	1.67905	1.33633	2.6573	79.11	-0.2568	0.0148	0.2716	1024.4249	0.174057	-403.151244	-403.143756	-403.142812	-403.183136	30.17	
N	-0.1719212033	 1.3451081195	-0.1100075142	-0.474622
C	-0.0367997428	 0.088483176	-0.0551718559	 0.35548
C	-1.2288897489	-0.8268345186	 0.1243488653	-0.260778
C	-1.2329038214	-2.0816459445	-0.7581525012	-0.008095
C	-0.0268560298	-3.0369710798	-0.5204328439	-0.227965
C	 0.7093623569	-2.31903828	-1.685967199	-0.013877
C	-0.6763622315	-1.8170021183	-2.1868191162	-0.242214
C	 1.6470886124	-1.2180869719	-1.2005874392	-0.103762
O	 1.2036812751	-0.5184673405	-0.0284923019	-0.260098
H	 0.7500918357	 1.7832632046	-0.1803667035	 0.218499
H	-1.2564305591	-1.1312006382	 1.1798807838	 0.120944
H	-2.1209196608	-0.223840795	-0.0612140581	 0.127727
H	-2.2203498166	-2.5463092911	-0.7007673471	 0.071032
H	 0.4489554226	-3.0125721267	 0.4630618438	 0.1047
H	-0.2757999672	-4.0701760979	-0.7748046026	 0.097786
H	 1.2686014402	-2.950041358	-2.3838519896	 0.070301
H	-1.1035549137	-2.4972720682	-2.9278213562	 0.099106
H	-0.7411447788	-0.794513215	-2.5722332283	 0.107011
H	 2.6089936886	-1.6469828704	-0.904814786	 0.116569
H	 1.8310906221	-0.4922222662	-2.0066689699	 0.102256
84.6709	160.0057	288.923	305.2607	331.6431	378.6789	467.8726	505.876	546.4939	698.0831	749.6959	799.0684	809.0864	845.1813	879.9704	891.7567	899.3956	951.3263	979.1513	991.1483	1037.4903	1056.7472	1076.2659	1096.6309	1128.2724	1142.4824	1165.7038	1178.3903	1219.4831	1257.4677	1280.5986	1285.3492	1310.1172	1321.6965	1327.9773	1356.7855	1385.1059	1419.1991	1464.2484	1472.9843	1495.6329	1503.1788	1738.3596	2997.839	3020.2538	3048.3874	3054.1293	3062.1052	3073.1164	3086.1996	3105.0991	3105.8722	3115.765	3450.0843
N=C1CC2CC(C2)CO1	[NH][C]1C[C@@H]2C[C@@H](C2)CO1	
InChI=1S/C7H11NO/c8-7-3-5-1-6(2-5)4-9-7/h5-6,8H,1-4H2	InChI=1S/C7H11NO/c8-7-3-5-1-6(2-5)4-9-7/h5-6,8H,1-4H2/t5-,6+
