17
gdb 22989	2.62088	1.25287	0.90072	2.9255	72.96	-0.2398	-0.0097	0.2301	1253.4505	0.135144	-455.128494	-455.119434	-455.11849	-455.163085	33.22	
N	 0.0306501337	 1.2114558367	 0.4919237801	-0.521052
C	 0.0665098546	-0.0260829276	-0.0778071066	 0.376914
O	 1.0380553072	-0.4896344025	-0.6405843827	-0.357263
C	-1.2645860572	-0.7795078138	-0.0041970754	-0.196328
C	-1.1938770135	-2.3362283538	 0.0009649963	-0.22959
C	-2.0415638133	-2.3727256432	 1.3149015928	-0.322999
C	-1.9707069959	-0.8610769651	 1.3378016844	 0.412668
N	-2.2615878082	 0.0739786548	 2.1410119672	-0.246552
O	-2.8581337307	-0.4141154149	 3.314778167	-0.388216
H	 0.9031252499	 1.7116291507	 0.5591387263	 0.257512
H	-0.7048512364	 1.433119374	 1.1482316853	 0.269146
H	-1.9130517325	-0.3757742857	-0.7906575248	 0.125062
H	-1.6445260634	-2.8257291653	-0.8624818993	 0.111154
H	-0.1701048616	-2.6929084248	 0.1159592192	 0.136423
H	-3.059449736	-2.7566973174	 1.1976155854	 0.130758
H	-1.5908222149	-2.8673536658	 2.1795288125	 0.13449
H	-3.0221487518	 0.3920236837	 3.8160850822	 0.307874
50.3619	66.4903	131.4361	196.1153	243.6919	321.9917	369.3777	399.1464	443.9736	483.2094	495.3512	597.1251	612.5673	674.773	747.697	759.1827	792.3858	912.9307	937.2211	995.8464	1024.0631	1049.939	1081.5926	1137.6292	1168.7738	1198.407	1210.9034	1244.8976	1259.5039	1281.6642	1352.5998	1404.0385	1457.3188	1494.8261	1629.9576	1777.6355	1801.4158	3044.5902	3059.8707	3094.8237	3104.1505	3151.6842	3551.2103	3691.9068	3816.993
NC(=O)C1CCC1=NO	NC(=O)[C@H]1CCC1=NO	
InChI=1S/C5H8N2O2/c6-5(8)3-1-2-4(3)7-9/h3,9H,1-2H2,(H2,6,8)	InChI=1S/C5H8N2O2/c6-5(8)3-1-2-4(3)7-9/h3,9H,1-2H2,(H2,6,8)/t3-/m0/s1
