16
gdb 26109	4.67762	1.07626	0.88391	4.4619	81.32	-0.1983	-0.015	0.1833	1262.8368	0.12485	-434.113907	-434.10543	-434.104486	-434.148329	30.933	
C	-0.8203487118	 1.3204130144	 0.2105532182	-0.462641
C	 0.0117693868	 0.0773870093	-0.0153674557	 0.383807
N	 0.4086022942	-0.5627236947	 1.1208535335	-0.518318
N	 0.4076276057	-0.4254693703	-1.1358585318	-0.385545
C	 0.1977529086	 0.11490195	-2.3601536222	 0.463062
N	 0.4550310179	-0.4706457361	-3.498413791	-0.331156
C	 0.1049868568	 0.4552280005	-4.4640005055	-0.107019
C	-0.3497554074	 1.5829666546	-3.8727353501	-0.055189
O	-0.3014932787	 1.3921554034	-2.5178450209	-0.196152
H	-0.2476381302	 2.2103601565	-0.0617794432	 0.163086
H	-1.7047343981	 1.306568584	-0.4284625479	 0.158536
H	-1.1307127581	 1.4097964867	 1.2545205972	 0.110543
H	-0.0526285526	-0.3830676037	 1.9946288786	 0.26024
H	 0.8711947266	-1.450740308	 1.0046565343	 0.266992
H	 0.2098255922	 0.2432714544	-5.5166549379	 0.116071
H	-0.7121156519	 2.537446069	-4.2138216457	 0.133683
17.6935	129.9245	155.7576	177.8395	282.4865	349.0903	381.8708	415.282	515.6795	555.911	624.7788	634.6098	711.5209	748.0825	773.1529	866.6533	878.6122	911.1882	940.5317	1016.4296	1051.6197	1096.8614	1135.4548	1147.3746	1158.4805	1287.5854	1374.754	1388.0672	1409.3999	1471.9892	1487.477	1555.0372	1593.4511	1639.2525	1706.2583	3056.3209	3128.5759	3143.1274	3255.0882	3293.2322	3599.5031	3736.6286
CC(N)=NC1=NC=CO1	CC(=Nc1ncco1)N	
InChI=1S/C5H7N3O/c1-4(6)8-5-7-2-3-9-5/h2-3H,1H3,(H2,6,7,8)	InChI=1S/C5H7N3O/c1-4(6)8-5-7-2-3-9-5/h2-3H,1H3,(H2,6,7,8)
