19
gdb 57816	3.66202	0.57964	0.54706	4.3664	82.91	-0.265	0.0023	0.2673	2061.5653	0.15606	-423.024029	-423.013307	-423.012363	-423.062702	36.211	
C	-0.1071159912	 1.3467511555	-0.2223050538	-0.375937
C	-0.2314987481	-0.1706958043	 0.023098895	-0.126575
C	 0.6534598111	-0.6270934198	 1.2000464078	-0.376144
C	-1.6281031462	-0.5502274012	 0.236732931	 0.094091
C	-2.7780615992	-0.8518481856	 0.4319384143	 0.056848
C	-4.1638313788	-1.237708501	 0.6535949707	-0.248798
O	-4.3305345704	-2.6649869417	 0.785364164	-0.166712
C	-4.3893078203	-3.3689601008	-0.3628265619	 0.182571
O	-4.4881050187	-4.5581018301	-0.3825584757	-0.270155
H	 0.9357754429	 1.6096372624	-0.4241769792	 0.118013
H	-0.7144582126	 1.6606305773	-1.0751750622	 0.12506
H	-0.4385269237	 1.9078901798	 0.6567243115	 0.126473
H	 0.1180765013	-0.6866108189	-0.8819309581	 0.111449
H	 0.5774638744	-1.7062579261	 1.3549446451	 0.130873
H	 1.7006044766	-0.3779249083	 1.0019896754	 0.116128
H	 0.3503511467	-0.1287037941	 2.1258272959	 0.126171
H	-4.5446877614	-0.8258608035	 1.5917853909	 0.155916
H	-4.8071536837	-0.8653812235	-0.1547119147	 0.139324
H	-4.3478803586	-2.7286623562	-1.2654476759	 0.081403
12.7328	35.7088	85.9651	127.7895	143.8147	210.2463	227.3412	257.5529	292.9762	344.6981	354.7555	465.7874	523.4551	553.427	671.3548	725.2027	882.6464	932.996	966.1476	985.289	1021.9065	1044.065	1072.8429	1119.469	1148.3711	1151.8735	1209.695	1296.0824	1322.7641	1350.2862	1390.1252	1396.6984	1418.7826	1433.7811	1485.94	1486.1324	1488.9242	1498.7162	1510.1854	1870.2704	2362.208	2950.036	3008.803	3021.549	3038.3796	3041.5355	3093.728	3110.3133	3115.3157	3120.4858	3123.2484	12.7277	35.707	85.9636	127.7894	143.815	210.2462	227.3405	257.5525	292.9764	344.6982	354.7556	465.7875	523.4551	553.4273	671.3548	725.2025	882.6463	932.9961	966.1478	985.2889	1021.906	1044.0655	1072.843	1119.4692	1148.3707	1151.8735	1209.6953	1296.0823	1322.7646	1350.2866	1390.1252	1396.6987	1418.7829	1433.7814	1485.9403	1486.1325	1488.9247	1498.7168	1510.186	1870.2716	2362.2082	2950.0361	3008.8029	3021.5488	3038.3796	3041.5355	3093.7279	3110.3133	3115.3157	3120.4858	3123.2483
CC(C)C#CCOC=O	CC(C)C#CCOC=O	
InChI=1S/C7H10O2/c1-7(2)4-3-5-9-6-8/h6-7H,5H2,1-2H3	InChI=1S/C7H10O2/c1-7(2)4-3-5-9-6-8/h6-7H,5H2,1-2H3
