21
gdb 89507	2.52327	1.52753	1.15786	1.5297	85.32	-0.2278	0.0176	0.2455	1156.3827	0.182496	-387.078326	-387.069616	-387.068672	-387.111228	34.347	
C	 0.000836853	 1.5764891253	 0.1535784705	-0.409421
C	-0.0063596945	 0.0610180436	 0.0318659504	-0.066131
C	 1.0299823004	-0.6523168357	-0.9281428176	-0.311299
C	 1.2052948743	-1.7748590448	 0.1593265868	 0.362344
O	 0.3172208443	-2.8658998351	-0.0636587424	-0.493099
C	 2.5377699537	-2.1911758318	 0.819202124	-0.288762
C	 2.3206787171	-1.8418248642	 2.3276351062	-0.243336
C	 1.2590387425	-0.7433015995	 2.2886552209	-0.232893
C	 0.6220896527	-0.7789448087	 1.1236966982	 0.286395
H	 1.0038894254	 1.9434707457	 0.3961210017	 0.114029
H	-0.3183067148	 2.048604501	-0.7819001295	 0.114439
H	-0.6789672491	 1.9123572611	 0.9440640657	 0.119173
H	-1.0108657878	-0.3016711669	-0.2125944372	 0.094986
H	 0.6524963651	-0.976377797	-1.9024458824	 0.089625
H	 1.9326365519	-0.0488056257	-1.0587506344	 0.099533
H	 0.6339541068	-3.3408065745	-0.8397941772	 0.27412
H	 2.7687061652	-3.2475734215	 0.6537776073	 0.089614
H	 3.3687783961	-1.5970625229	 0.4248307276	 0.096801
H	 1.991341456	-2.7151523931	 2.9059125197	 0.113144
H	 3.2444162061	-1.489632842	 2.7995987871	 0.099807
H	 1.1399746354	-0.0144016932	 3.0828552747	 0.090931
102.8707	132.5737	213.9162	239.2084	261.4586	292.5257	333.5146	360.4392	413.5789	522.521	595.5783	634.0445	682.3833	742.8068	806.4925	852.7878	857.2775	874.6349	904.5887	930.4495	945.1822	972.1129	998.919	1044.2042	1082.8509	1103.5431	1126.6329	1156.6383	1178.8714	1200.8162	1210.98	1242.5786	1256.4015	1278.0799	1299.8366	1317.1445	1356.2614	1388.3886	1408.7409	1461.4969	1470.7121	1490.3707	1492.4889	1497.2199	1734.277	3020.6813	3027.862	3043.3779	3043.987	3046.8767	3064.246	3095.5257	3096.633	3099.5956	3112.48	3189.7524	3797.2703
CC1CC2(O)CCC=C12	C[C@H]1C[C@@]2(O)CC[CH][C]12	
InChI=1S/C8H12O/c1-6-5-8(9)4-2-3-7(6)8/h3,6,9H,2,4-5H2,1H3	InChI=1S/C8H12O/c1-6-5-8(9)4-2-3-7(6)8/h3,6,9H,2,4-5H2,1H3/t6-,8-/m0/s1
