20
gdb 36736	5.34974	0.67145	0.62425	3.1462	79.45	-0.2598	0.0326	0.2924	1740.7027	0.172254	-403.171951	-403.162802	-403.161857	-403.20747	32.468	
N	 0.0129224142	-1.222443903	 0.064742203	-0.30275
C	-0.0204197211	-0.0680828736	 0.0239079233	 0.259518
C	-0.0359948685	 1.392149457	-0.0267946734	-0.349096
C	 1.3833960709	 1.9987138355	 0.0013077304	-0.209882
C	 1.3723747221	 3.5279484745	 0.0017283066	 0.021855
C	 2.7852236357	 4.1626033594	 0.0802730387	-0.272396
C	 2.7052649841	 5.3763751117	-0.8802880885	-0.073777
O	 1.3454804723	 5.4881028799	-1.2872196048	-0.243281
C	 0.8047501321	 4.182387876	-1.2717643543	-0.090258
H	-0.5699714144	 1.6986774378	-0.9333465765	 0.157311
H	-0.621929272	 1.7626616778	 0.8228604299	 0.153355
H	 1.9047247932	 1.6301652881	 0.8910788818	 0.124643
H	 1.9474577896	 1.6319862111	-0.864608344	 0.120264
H	 0.7784197271	 3.8806203526	 0.8537197234	 0.082423
H	 3.0346999149	 4.4591989487	 1.1014665532	 0.114019
H	 3.5516889303	 3.4542252888	-0.2492525224	 0.107448
H	 2.9887921825	 6.3232216002	-0.4132891391	 0.11226
H	 3.3526604259	 5.2210909503	-1.7565369487	 0.094736
H	 1.1154360475	 3.6101239344	-2.1657015297	 0.084095
H	-0.2847137964	 4.2737886427	-1.2842787989	 0.109513
40.1083	67.2368	93.9441	122.8536	216.2184	222.8533	348.413	389.871	418.4012	526.2478	636.2804	694.6703	761.1355	814.3209	872.3639	931.0522	945.5257	956.3539	971.7185	999.047	1027.4626	1086.9347	1097.9977	1127.3979	1140.6594	1196.0683	1235.6295	1247.0344	1274.8256	1283.0571	1303.7125	1312.2039	1337.7187	1344.8797	1379.5771	1387.1015	1409.6503	1467.93	1492.1065	1499.0512	1509.5319	1528.0045	2362.8754	2933.2338	2988.4312	3027.1261	3035.2604	3044.9309	3058.1066	3069.0763	3084.4222	3088.8619	3091.6287	3109.85
N#CCCC1CCOC1	N#CCC[C@H]1CCOC1	
InChI=1S/C7H11NO/c8-4-1-2-7-3-5-9-6-7/h7H,1-3,5-6H2	InChI=1S/C7H11NO/c8-4-1-2-7-3-5-9-6-7/h7H,1-3,5-6H2/t7-/m0/s1
