19
gdb 62261	2.12828	1.13762	0.88513	5.128	75.28	-0.2482	0.0196	0.2678	1368.2709	0.157785	-456.358665	-456.348461	-456.347517	-456.395735	34.599	
C	-0.3884074496	 1.2321304045	-0.0432512566	-0.349832
N	-0.1366857039	-0.1983235889	-0.0046247106	-0.037643
C	 0.060691168	-0.8421282989	 1.2781769005	-0.178841
C	-1.2350667967	-1.0991370964	 2.0543848445	-0.087224
O	-2.0090208364	-2.1111792765	 1.4272077216	-0.179518
C	-3.0282562646	-1.726193697	 0.6279644663	 0.134884
N	-3.6627731631	-2.5880622399	-0.036790648	-0.437374
C	-0.0118640247	-0.8947542323	-1.1782729223	 0.155862
O	-0.1349092226	-0.4228201105	-2.2871636694	-0.33691
H	 0.4287238262	 1.7832250362	 0.4383630762	 0.12676
H	-0.458030183	 1.525417796	-1.0907899082	 0.1748
H	-1.3243813354	 1.4933576109	 0.4642758727	 0.119916
H	 0.5547079468	-1.8048854468	 1.1137061241	 0.137353
H	 0.7293940803	-0.2296194983	 1.8984662305	 0.110915
H	-0.9908362688	-1.4652881135	 3.0564149545	 0.12623
H	-1.819781206	-0.1766250736	 2.1654544662	 0.110658
H	-3.2191109193	-0.6443935372	 0.6551417936	 0.08687
H	-4.4059563352	-2.1413272361	-0.5691968123	 0.233666
H	 0.218093238	-1.9613183616	-0.9968460133	 0.089428
34.7737	54.7552	69.9094	120.9169	137.2178	178.6012	264.2662	325.476	344.4459	368.2012	415.5148	488.0133	612.223	645.2528	814.3854	852.0828	883.6168	967.776	992.9355	1027.2588	1040.8095	1080.2775	1097.1146	1148.147	1158.4653	1224.9665	1271.6567	1281.3915	1335.5573	1392.9907	1398.8793	1420.9457	1428.807	1436.8665	1442.3313	1475.5406	1492.3748	1501.8887	1519.2224	1746.9069	1798.0085	2959.8656	3015.0576	3015.9759	3020.6115	3028.7854	3068.2723	3085.1241	3093.9305	3156.5306	3524.731
CN(CCOC=N)C=O	CN(CCO[CH][NH])C=O	
InChI=1S/C5H10N2O2/c1-7(5-8)2-3-9-4-6/h4-6H,2-3H2,1H3	InChI=1S/C5H10N2O2/c1-7(5-8)2-3-9-4-6/h4-6H,2-3H2,1H3
