17
gdb 18674	3.0573	2.2365	1.51793	3.3017	68.03	-0.2327	-0.0125	0.2202	852.3817	0.144919	-363.872877	-363.866092	-363.865148	-363.903843	26.508	
O	 0.0323047697	-0.0023005441	-0.4156612909	-0.32992
C	 0.0080778179	 1.1705291187	-0.1146195633	 0.433756
C	-1.2678732899	 1.9509011656	 0.1422234873	-0.310424
C	-1.3011261891	 3.1825656843	-0.7884447136	-0.212369
C	-0.1451412576	 4.1612296777	-0.5127801108	-0.199858
C	 1.1872222278	 3.471813748	-0.2369975272	-0.027413
N	 1.3480310389	 2.9185790921	 1.1064847393	-0.329633
C	 1.2643997311	 1.9836670795	-0.0441261334	-0.141046
H	-2.1178700619	 1.2878656411	-0.0323061772	 0.115665
H	-1.2803749788	 2.2776885441	 1.1885129821	 0.134539
H	-1.244531997	 2.8345549055	-1.8274338933	 0.110517
H	-2.2599146834	 3.7010054391	-0.6874779855	 0.105117
H	-0.0315484155	 4.8375884274	-1.366525859	 0.101993
H	-0.3832828156	 4.7844269504	 0.3566690007	 0.115741
H	 2.0632584468	 3.9297383857	-0.6912798152	 0.09495
H	 2.3156774966	 2.9810415235	 1.4117321869	 0.240815
H	 2.16022573	 1.4531429415	-0.3532191768	 0.097572
97.5631	193.041	249.5349	377.3206	411.705	463.3468	488.8503	564.8669	717.1414	747.6998	768.1929	845.3157	874.3856	908.4807	921.8911	936.881	979.6742	1038.1574	1062.0466	1109.4697	1131.1653	1164.1652	1185.6882	1221.8578	1250.0225	1263.8681	1285.8236	1342.9059	1369.9181	1374.0945	1392.0379	1436.0362	1463.8793	1481.1202	1499.7409	1808.479	3028.7966	3037.4208	3048.0051	3072.6773	3085.0454	3117.2391	3128.3051	3160.9744	3507.0875
O=C1CCCC2NC12	O=C1CCC[C@H]2N[C@@H]12	
InChI=1S/C6H9NO/c8-5-3-1-2-4-6(5)7-4/h4,6-7H,1-3H2	InChI=1S/C6H9NO/c8-5-3-1-2-4-6(5)7-4/h4,6-7H,1-3H2/t4-,6-/m1/s1
