21
gdb 63304	2.48426	1.49864	1.22454	3.2406	81.99	-0.2334	-0.0076	0.2258	1125.1986	0.18233	-387.123508	-387.114885	-387.113941	-387.156175	34.463	
C	 0.0511683466	 1.5530935332	-0.0191788558	-0.426861
C	-0.0228454924	 0.021247074	 0.0002575104	 0.280378
C	-1.4923177235	-0.4342861053	 0.0473039867	-0.423398
C	 0.6853695799	-0.632477086	-1.2159528181	-0.384242
C	 1.2628365344	-1.9598897652	-0.6983609973	 0.417921
O	 1.4557740616	-2.9505895168	-1.3590495409	-0.335346
C	 1.4686981741	-1.8260644203	 0.7752315197	-0.147753
C	 2.2056972836	-0.5630110765	 1.212206862	-0.315202
C	 0.7145603845	-0.5791817494	 1.2119830243	-0.03592
H	 1.0884803318	 1.9027258411	-0.025855513	 0.111703
H	-0.4472971014	 1.9591845728	-0.9061253685	 0.114827
H	-0.4396336356	 1.9803725981	 0.8624832096	 0.111963
H	-2.0457283893	-0.0580405987	-0.8194429485	 0.115144
H	-1.5713808523	-1.5267322961	 0.0478921671	 0.122149
H	-1.9890082407	-0.0616379005	 0.9498776288	 0.112015
H	 0.0200042451	-0.8163188273	-2.0621554312	 0.123781
H	 1.5092258375	-0.0112787721	-1.5883286478	 0.119984
H	 1.558708048	-2.7251739397	 1.3711476167	 0.104023
H	 2.7101179617	-0.6262865082	 2.1697882334	 0.12487
H	 2.745358468	 0.0116959996	 0.4669312827	 0.120934
H	 0.1993059785	-0.5652076366	 2.1671062796	 0.089027
94.2254	177.1379	234.0158	243.4421	277.1674	325.7869	343.5368	372.6206	452.79	473.2965	533.145	557.9198	654.7601	734.2641	784.7947	836.7593	861.4942	896.3839	939.4035	944.2478	954.0137	971.7965	984.9788	1039.3275	1059.4527	1072.0664	1106.9985	1122.1286	1182.1984	1191.892	1216.1785	1243.9926	1259.1611	1288.7226	1329.9751	1370.7164	1401.3843	1422.9503	1460.2042	1483.6131	1486.8968	1496.365	1504.2948	1507.5669	1832.6085	3024.3565	3028.7503	3041.2594	3091.5633	3097.0573	3098.8913	3100.885	3111.1504	3134.0903	3159.4286	3200.4451	3219.1385
CC1(C)CC(=O)C2CC12	CC1(C)CC(=O)[C@H]2C[C@@H]12	
InChI=1S/C8H12O/c1-8(2)4-7(9)5-3-6(5)8/h5-6H,3-4H2,1-2H3	InChI=1S/C8H12O/c1-8(2)4-7(9)5-3-6(5)8/h5-6H,3-4H2,1-2H3/t5-,6+/m0/s1
