18
gdb 97778	2.50582	0.961	0.75526	3.6137	86.32	-0.2462	0.0174	0.2637	1540.3743	0.146621	-364.79525	-364.785533	-364.784589	-364.832034	34.043	
C	 0.3093894849	 0.6503613278	-0.615161277	-0.366713
C	-0.394214007	 0.5623901836	 0.7523089966	-0.318819
C	-1.6019844658	-0.2540315418	 0.7083346576	 0.107227
C	-2.587575019	-0.942893665	 0.6316316853	 0.06192
C	-3.7448406415	-1.7813487983	 0.5365100287	-0.188407
C	-4.6561236202	-1.7088795332	-0.6649314655	-0.284584
C	-3.7860225706	-2.9348974993	-0.4833328882	-0.170283
C	-2.6680730887	-3.157531532	-1.3543855303	 0.296697
N	-1.7680659366	-3.3493324387	-2.0553121507	-0.336602
H	 1.2208383964	 1.249803627	-0.5345721628	 0.114668
H	 0.5765567772	-0.3455057468	-0.9774067494	 0.145147
H	-0.3443904294	 1.1139750661	-1.3586807789	 0.128053
H	 0.2973446111	 0.1451005593	 1.4953455472	 0.132651
H	-0.6453056379	 1.5709998711	 1.1050077739	 0.129109
H	-4.2256920288	-2.0266533333	 1.4792619491	 0.12571
H	-5.7213118347	-1.8344493747	-0.5104478073	 0.133753
H	-4.3780773614	-1.0199771714	-1.4524497339	 0.151849
H	-4.2750280081	-3.8435456504	-0.1494071142	 0.138623
16.6441	47.4093	104.8729	146.146	204.5507	236.2633	247.7009	331.3811	396.0844	471.9238	536.056	569.6127	626.822	703.6297	765.1121	787.3208	827.663	887.1475	940.3983	982.8514	1035.428	1079.7006	1087.1329	1105.1738	1116.5623	1133.5732	1170.4179	1231.176	1283.2713	1346.3379	1373.1321	1396.1962	1410.403	1476.0249	1479.7663	1494.1112	1505.4339	2356.8451	2368.0623	3019.9476	3046.3033	3047.7731	3120.1841	3128.8719	3145.4341	3150.6699	3173.0637	3248.4941
CCC#CC1CC1C#N	CCC#C[C@H]1C[C@H]1C#N	
InChI=1S/C8H9N/c1-2-3-4-7-5-8(7)6-9/h7-8H,2,5H2,1H3	InChI=1S/C8H9N/c1-2-3-4-7-5-8(7)6-9/h7-8H,2,5H2,1H3/t7-,8-/m0/s1
