19
gdb 108600	2.68256	1.30377	0.89671	5.0284	80.98	-0.2314	-0.0328	0.1986	1278.2379	0.157842	-423.070492	-423.060761	-423.059816	-423.10626	34.236	
C	 0.1788607422	 1.5823402829	 0.0079774763	-0.498047
C	 0.0144436422	 0.0916403471	 0.0012205774	 0.113298
C	-1.0870614013	-0.683404046	 0.0021052529	 0.204073
C	-2.5276288656	-0.2862423721	 0.0103403079	-0.169231
O	-2.6837566052	 1.1177479146	 0.0180173124	-0.411755
C	-0.772411183	-2.1674160362	-0.0066970307	-0.310713
C	 0.7619090611	-2.2394850466	-0.0137099387	-0.338389
C	 1.2214960304	-0.778324873	-0.0083672186	 0.350916
O	 2.3714082067	-0.3989418455	-0.0114327771	-0.338519
H	 1.2468920233	 1.8145719364	 0.0047776534	 0.137128
H	-0.290309628	 2.042986103	-0.8648287885	 0.133847
H	-0.2832015449	 2.0342650306	 0.889088597	 0.133853
H	-3.0142937374	-0.7431413053	-0.8709583166	 0.104462
H	-3.0066383136	-0.7519228409	 0.8912379026	 0.104463
H	-3.6247364661	 1.3146453338	 0.0230072261	 0.292986
H	-1.2117755426	-2.6630614742	 0.8685011417	 0.114121
H	-1.2193711092	-2.6542819512	-0.8829763746	 0.11412
H	 1.1730198884	-2.7536234534	 0.8597680152	 0.131694
H	 1.1654066326	-2.7448087041	-0.8958390381	 0.131694
41.0191	66.0218	91.6519	125.8453	200.6594	235.8774	274.907	296.8327	390.41	461.2234	504.936	588.0329	603.6024	664.5848	700.0268	830.0936	893.9863	952.7359	1003.5105	1047.5809	1054.4169	1062.4054	1077.1735	1109.2244	1153.3532	1156.8619	1231.4174	1242.1261	1265.2383	1272.7674	1303.2297	1333.9723	1407.166	1454.6147	1468.0456	1480.9517	1488.0413	1492.3768	1500.7308	1706.34	1803.8724	2932.5375	2943.923	3019.7251	3043.2232	3052.0059	3065.864	3105.5635	3117.1358	3130.3135	3836.4001
CC1=C(CO)CCC1=O	CC1=C(CO)CCC1=O	
InChI=1S/C7H10O2/c1-5-6(4-8)2-3-7(5)9/h8H,2-4H2,1H3	InChI=1S/C7H10O2/c1-5-6(4-8)2-3-7(5)9/h8H,2-4H2,1H3
