19
gdb 13707	5.65201	0.87519	0.80944	2.7508	79.94	-0.2254	0.0226	0.248	1465.2774	0.16341	-365.044874	-365.035534	-365.03459	-365.079718	32.565	
C	 0.0227462702	 1.4371071523	 0.0702582677	-0.248034
O	-0.2754716372	 0.0563984547	-0.0841977202	-0.196397
C	 0.3917677708	-0.5742142663	-1.0733616632	 0.119395
N	 0.2093820272	-1.8011702034	-1.2860419565	-0.211889
C	 0.9318996853	-2.4164993905	-2.3418170094	 0.05688
C	 1.3909254377	-3.8457834909	-2.1324579731	-0.309277
C	 0.2729818891	-3.5557250472	-3.0995018022	-0.011362
C	-1.1464048028	-3.9791003142	-2.7975014888	-0.400513
H	 1.0790041349	 1.5959283524	 0.3210340824	 0.12579
H	-0.2218269204	 2.0067110296	-0.8350661572	 0.12546
H	-0.5960810798	 1.7954874476	 0.8937497232	 0.145514
H	 1.079358643	 0.0686451077	-1.6446877523	 0.072429
H	 1.5969258613	-1.7713884381	-2.9219113825	 0.066707
H	 2.3648978683	-4.1330748554	-2.5135595403	 0.106199
H	 1.1227297467	-4.2926383582	-1.1813691579	 0.120478
H	 0.5443653888	-3.6020522186	-4.1514935052	 0.080311
H	-1.3766010391	-3.8405805703	-1.7391313494	 0.139157
H	-1.8661879608	-3.3864198832	-3.3731749564	 0.11063
H	-1.3011035035	-5.033382098	-3.0526016787	 0.108523
47.0226	81.2561	127.3563	149.4891	191.2015	219.3557	242.6855	347.1512	385.0282	439.4801	522.6957	615.6363	762.722	835.3435	871.0023	921.5628	965.5382	993.3897	1034.3724	1056.2226	1064.4655	1107.1122	1141.6197	1162.8889	1177.0224	1193.6689	1196.6092	1240.5481	1275.0897	1371.8603	1390.9111	1419.3219	1434.2193	1479.9881	1489.0773	1494.2895	1495.2417	1501.8231	1503.0777	1771.0226	2992.4765	3012.9968	3031.4535	3055.3591	3071.845	3086.6529	3122.0886	3132.5786	3139.2126	3143.349	3222.4733
COC=NC1CC1C	COC=N[C@H]1C[C@H]1C	
InChI=1S/C6H11NO/c1-5-3-6(5)7-4-8-2/h4-6H,3H2,1-2H3	InChI=1S/C6H11NO/c1-5-3-6(5)7-4-8-2/h4-6H,3H2,1-2H3/t5-,6+/m1/s1
