16
gdb 79387	3.302	1.39066	1.10976	1.7354	75.88	-0.2537	0.0278	0.2815	1076.6585	0.123739	-400.609174	-400.60173	-400.600786	-400.640925	29.681	
O	 0.1599572487	 1.4503459442	-0.0902613608	-0.448015
C	 0.1166429829	 0.0563869066	-0.0653037083	 0.161553
C	 0.0495139494	-0.6553249849	 1.2941426724	-0.11004
N	-1.4429157639	-0.2470484379	 1.4627608213	-0.20883
C	-1.7879397337	-1.6924325881	 1.7834271634	-0.226955
C	-0.7048876815	-1.9046994136	 0.7169094764	 0.253837
C	-0.1587672707	-3.1119511119	 0.1652450474	 0.050962
C	 0.2894122104	-4.1325317504	-0.2878676389	-0.364734
C	-1.2526603117	-0.638598087	-0.0315485042	-0.11004
H	-0.4910214341	 1.760539777	 0.5530846143	 0.297103
H	 0.8444117065	-0.3239047213	-0.7849604485	 0.104749
H	 0.7286375129	-0.6373910108	 2.1482306535	 0.0946
H	-1.5528627841	-1.9835625023	 2.8117268934	 0.112024
H	-2.8154381266	-1.9673439797	 1.5263494463	 0.112024
H	 0.6866415714	-5.0319702019	-0.6894260102	 0.187162
H	-2.094107866	-0.6011318582	-0.7254930074	 0.0946
112.3908	159.2819	224.7164	321.604	409.8269	431.9459	484.5061	529.36	541.0163	628.1107	631.0896	657.961	727.4753	798.2834	855.2479	894.9584	896.1109	917.3607	952.2339	1031.0528	1067.8625	1074.9022	1077.7386	1117.1557	1124.228	1174.6664	1187.8958	1205.4005	1241.5902	1282.5956	1289.3017	1326.5838	1449.4455	1521.1435	2229.0182	3043.9214	3100.4591	3105.624	3107.2517	3113.3621	3499.6172	3770.6613
OC1C2N3CC2(C#C)C13	O[C@H]1[C@H]2N3C[C@@]2(C#C)[C@H]13	
InChI=1S/C7H7NO/c1-2-7-3-8-5(7)4(9)6(7)8/h1,4-6,9H,3H2	InChI=1S/C7H7NO/c1-2-7-3-8-5(7)4(9)6(7)8/h1,4-6,9H,3H2/t4-,5+,6-,7+
