16
gdb 108740	3.14732	1.2247	0.94503	3.0589	75.71	-0.2824	-0.0861	0.1963	1222.4855	0.124682	-437.956601	-437.948386	-437.947442	-437.989958	30.012	
C	-0.1940661877	 1.5318091648	-0.0512150823	-0.383302
C	 0.0557068878	 0.0120068832	 0.0136152484	-0.293912
C	 0.7773475471	-0.5007361663	-1.1886178847	 0.306995
C	 2.0430464759	-0.919178819	-1.3355939907	-0.399835
C	 2.2635969382	-1.3097356965	-2.742364318	 0.439793
O	 3.2302203654	-1.7300253297	-3.3013287514	-0.315326
O	 1.054605387	-1.1021705524	-3.4184182946	-0.231409
C	 0.1306096083	-0.6192458584	-2.5179417956	 0.351857
N	-1.0689897106	-0.3361207299	-2.7909117244	-0.514699
H	 0.7493925493	 2.0827794189	-0.1094174074	 0.123146
H	-0.7988446705	 1.7840408844	-0.9249708671	 0.152369
H	-0.7269945064	 1.8614144669	 0.844868684	 0.12414
H	 0.6304797972	-0.2366214273	 0.9111848038	 0.114498
H	-0.9093896649	-0.501731823	 0.0833107865	 0.138555
H	 2.8246564319	-0.9885235454	-0.5933367871	 0.143464
H	-1.2729114179	-0.5119208402	-3.7763343192	 0.243665
60.0325	129.605	171.3942	201.4173	246.7365	293.5663	375.5031	457.1632	574.0599	598.0824	658.5846	730.0686	770.2071	786.3062	813.5301	891.1328	900.971	918.11	949.4089	1017.5657	1072.1421	1091.5043	1135.6763	1185.0375	1261.1155	1314.3951	1346.74	1383.5805	1406.9	1477.6365	1496.3417	1510.2842	1681.0489	1758.4269	1895.4498	3044.9489	3047.8184	3089.1423	3118.4281	3137.9834	3249.6901	3481.527
CCC1=CC(=O)OC1=N	CCC1=C(OC(=O)[CH]1)[NH]	
InChI=1S/C6H7NO2/c1-2-4-3-5(8)9-6(4)7/h3,7H,2H2,1H3	InChI=1S/C6H7NO2/c1-2-4-3-5(8)9-6(4)7/h3,7H,2H2,1H3
