20
gdb 56285	6.7866	0.48024	0.45474	3.7882	81.14	-0.2536	-0.0186	0.2351	2303.9147	0.16814	-403.197007	-403.186203	-403.185258	-403.235322	36.46	
C	 0.0057590368	 1.5399580473	-0.0300900018	-0.473477
C	 0.0016235167	 0.0261940445	 0.0871502477	 0.377474
O	-0.0206221805	-0.5340038403	 1.1589545878	-0.287789
C	 0.0271561222	-0.75204514	-1.2247465087	-0.310928
C	 0.0213857567	-2.2681808239	-1.0348944828	-0.175201
C	 0.0474700125	-3.0285925877	-2.3629348841	-0.190318
C	 0.0411506985	-4.5556180013	-2.1492529799	-0.341946
C	 0.0658425707	-5.3000191137	-3.4063737834	 0.256801
N	 0.0856031721	-5.8699955288	-4.4114571372	-0.304745
H	 0.8967430476	 1.8791377521	-0.57045727	 0.139531
H	-0.862021544	 1.8812207708	-0.6057487978	 0.139536
H	-0.0136448652	 1.9887747356	 0.9635269696	 0.145522
H	-0.8316346229	-0.4270550494	-1.829499162	 0.122608
H	 0.9105426865	-0.4292813811	-1.7942375849	 0.122614
H	 0.8816949928	-2.5551139642	-0.4194231555	 0.11669
H	-0.8639924183	-2.5529216431	-0.4549792803	 0.116676
H	-0.8175463706	-2.7519490342	-2.9768198159	 0.119429
H	 0.9374954852	-2.7542167263	-2.9410440578	 0.119431
H	 0.9072513119	-4.8579333014	-1.54883831	 0.154046
H	-0.8494903687	-4.8556716348	-1.584673793	 0.154044
25.1967	48.2539	77.5579	98.9719	118.3861	134.0398	165.1395	275.6026	318.5414	400.7576	441.7581	479.8441	544.0195	603.8904	721.7836	761.6244	825.7159	867.9633	927.761	950.5332	982.0925	1023.0787	1060.416	1087.3272	1121.0442	1169.3652	1177.1414	1259.2318	1271.6056	1323.94	1326.0327	1330.6982	1380.1597	1387.7837	1402.2566	1451.1549	1465.5655	1468.871	1477.9163	1483.849	1504.0234	1812.2546	2362.5221	3011.0696	3032.365	3037.176	3037.5324	3039.8017	3047.5925	3061.0781	3077.4151	3094.4691	3097.5056	3153.3271
CC(=O)CCCCC#N	CC(=O)CCCCC#N	
InChI=1S/C7H11NO/c1-7(9)5-3-2-4-6-8/h2-5H2,1H3	InChI=1S/C7H11NO/c1-7(9)5-3-2-4-6-8/h2-5H2,1H3
