19
gdb 56897	2.60747	1.1279	0.98259	4.6451	75.55	-0.2561	0.0288	0.2849	1269.9334	0.159382	-419.195475	-419.186128	-419.185184	-419.229809	34.716	
N	 0.3187724585	 1.1594220339	 0.4201298369	-0.509433
C	 0.1787852596	-0.2191197856	-0.0532441354	-0.14279
C	-1.1894923254	-0.6869773218	 0.2324132302	 0.299483
N	-2.265500642	-1.0677053184	 0.4126064392	-0.3292
C	 0.4984146823	-0.4539315876	-1.5464719774	 0.009455
C	 2.01665724	-0.3335774205	-1.8742944121	-0.251771
C	 2.1223278262	-1.8758563194	-1.8683680564	 0.128632
O	 2.6381639645	-2.2851499715	-0.6112172376	-0.430335
C	 0.5719770725	-1.9539447038	-1.9590389089	-0.267889
H	 1.2878245824	 1.4471116098	 0.3258531443	 0.239828
H	-0.2349175344	 1.7844678745	-0.1595275019	 0.236092
H	 0.8619165524	-0.8413601674	 0.5371353041	 0.146467
H	-0.1691843065	 0.1684181373	-2.1494854826	 0.077622
H	 2.1965263868	 0.0937793176	-2.8630751185	 0.107787
H	 2.6571869173	 0.1727176258	-1.1469710275	 0.105708
H	 2.6847481987	-2.3356398403	-2.6907477732	 0.07141
H	 2.5004179793	-3.2347601404	-0.5262925674	 0.287145
H	 0.0821544229	-2.6751405342	-1.2983161179	 0.113762
H	 0.2209166849	-2.1201290482	-2.9805648479	 0.108027
65.9437	92.3656	136.2351	215.3263	247.9939	266.367	327.6661	346.3493	386.4228	405.5679	428.2674	531.0132	596.7767	780.105	791.5376	823.1473	843.7321	878.7364	931.6566	946.0551	980.4406	1001.9869	1050.7661	1080.5769	1129.7273	1142.4684	1172.6426	1195.6964	1229.8603	1241.877	1262.2262	1280.5837	1298.0006	1331.4719	1372.1241	1413.1733	1415.755	1459.5722	1481.1903	1655.5185	2358.9916	3016.5494	3047.8804	3058.1258	3063.2321	3069.3847	3114.2721	3120.6168	3489.9689	3577.4981	3807.2182
NC(C#N)C1CC(O)C1	N[C@@H](C#N)[C@H]1C[C@@H](O)C1	
InChI=1S/C6H10N2O/c7-3-6(8)4-1-5(9)2-4/h4-6,9H,1-2,8H2	InChI=1S/C6H10N2O/c7-3-6(8)4-1-5(9)2-4/h4-6,9H,1-2,8H2/t4-,5+,6-/m0/s1
