16
gdb 28589	3.86302	1.1223	0.92358	2.0065	75.56	-0.1865	0.0185	0.205	1237.0975	0.124834	-437.88675	-437.87872	-437.877776	-437.919743	29.993	
N	 0.1541251923	 1.2630398697	-0.4302172644	-0.59723
C	-0.052212972	-0.0741330467	-0.132982296	 0.36925
C	-1.1197063003	-0.7821765443	 0.3396593023	-0.257946
C	-0.6999933956	-2.1532089473	 0.3358026072	-0.257546
C	 0.574360725	-2.183309448	-0.1334035207	 0.367065
O	 0.9787965818	-0.8966911979	-0.4307476805	-0.209897
C	 1.5259635182	-3.2681148111	-0.3650437754	-0.048501
C	 2.7031044921	-3.1438788414	-1.2386784006	-0.181101
O	 2.8580371543	-3.1374651342	 0.1786911169	-0.239962
H	 1.1229626623	 1.540053862	-0.3357788152	 0.259202
H	-0.4512497542	 1.8808925373	 0.0918134272	 0.257916
H	-2.0711165203	-0.3834264663	 0.6518251871	 0.09902
H	-1.2768976648	-3.0088447259	 0.6520519893	 0.108742
H	 1.0884992907	-4.2562528098	-0.2283947678	 0.098481
H	 3.085197676	-4.0251103553	-1.7539720069	 0.111292
H	 2.8936745945	-2.1933995409	-1.7335934823	 0.121214
74.6103	132.2962	154.574	198.8797	280.9862	373.2475	426.5842	462.2703	622.9075	643.4027	680.5607	699.702	737.8657	758.1579	800.6805	833.9679	896.937	975.4594	981.5163	1016.9441	1042.8756	1091.7685	1107.1169	1156.1632	1164.0979	1232.1768	1254.0026	1296.9988	1308.1112	1404.3739	1452.1085	1519.0969	1605.7124	1646.4632	1671.4153	3079.9141	3123.8166	3171.9055	3249.3442	3267.1626	3549.0189	3650.7347
NC1=CC=C(O1)C1CO1	Nc1ccc(o1)[C@H]1CO1	
InChI=1S/C6H7NO2/c7-6-2-1-4(9-6)5-3-8-5/h1-2,5H,3,7H2	InChI=1S/C6H7NO2/c7-6-2-1-4(9-6)5-3-8-5/h1-2,5H,3,7H2/t5-/m1/s1
