14
gdb 18662	3.40816	2.57058	1.59262	3.9499	63.7	-0.2186	-0.0096	0.209	764.5948	0.109765	-378.739131	-378.732806	-378.731861	-378.769707	24.35	
O	-0.0199708443	-0.0178676282	 0.2747322729	-0.352323
C	-0.0373359476	 1.1705011541	 0.0640504163	 0.425688
N	-1.2207941632	 1.8629200641	-0.1442385815	-0.349647
C	-1.3289831153	 3.2527218109	-0.0676290555	 0.008177
C	-0.2523455037	 4.0365128323	 0.0173817168	-0.131974
C	 1.0886570654	 3.4109446677	-0.0187289848	-0.054575
C	 1.6487735062	 2.6407312945	 1.1401998207	-0.250873
N	 1.1453201486	 1.939941692	-0.0453329921	-0.15442
H	-2.049299863	 1.2901651022	-0.1232280209	 0.261389
H	-2.3437497088	 3.631920872	-0.0756714356	 0.124712
H	-0.3483648417	 5.1131077595	 0.0640045214	 0.10419
H	 1.8132410319	 3.8731053117	-0.6883614575	 0.109229
H	 2.7223954456	 2.5747526833	 1.2905380675	 0.129737
H	 1.04874415	 2.5959196338	 2.0449649323	 0.13069
82.7926	228.4237	294.4944	447.3758	501.552	549.9667	561.5536	573.2808	708.9419	733.7375	785.2862	813.8834	886.6693	940.3377	951.1799	1003.0449	1062.3148	1083.0818	1100.1539	1114.3366	1163.2892	1184.564	1242.029	1332.3336	1392.7903	1426.0888	1466.8807	1504.1029	1724.8753	1826.155	3106.8521	3110.8255	3202.4439	3203.5623	3225.0003	3647.1994
O=C1NC=CC2CN12	O=C1NC=C[C@H]2CN12	
InChI=1S/C5H6N2O/c8-5-6-2-1-4-3-7(4)5/h1-2,4H,3H2,(H,6,8)	InChI=1S/C5H6N2O/c8-5-6-2-1-4-3-7(4)5/h1-2,4H,3H2,(H,6,8)/t4-,7?/m0/s1
