21
gdb 59408	2.88442	1.01451	0.98212	4.3965	85.25	-0.2316	0.0367	0.2683	1352.4638	0.180871	-383.264868	-383.254702	-383.253758	-383.299596	37.313	
C	 0.3758343507	 0.6572299787	-1.6485040452	-0.317761
N	 0.0209602905	-0.1132708126	-0.4617157458	-0.058323
C	 0.292531377	 0.6264428699	 0.7658045676	-0.324357
C	-1.3236867591	-0.5981195212	-0.5077680608	 0.006541
C	-1.6520762003	-1.7520458354	-1.4036713304	-0.339862
C	-1.6311341008	-1.9712284584	 0.1057522184	 0.138942
C	-0.5209068038	-2.8173420661	 0.7086455432	-0.462816
C	-2.9117743526	-2.0902650951	 0.7571412698	 0.240393
N	-3.9348520478	-2.1856158321	 1.2898095748	-0.349265
H	 1.4382890511	 0.9167004432	-1.6086611489	 0.122539
H	 0.20125124	 0.0592774652	-2.5466486947	 0.124045
H	-0.2000118695	 1.5959588181	-1.7434089551	 0.099393
H	-0.3050442909	 1.5528263331	 0.849109232	 0.102409
H	 0.0712730398	 0.0010779358	 1.6345821887	 0.128555
H	 1.3506928298	 0.9025172098	 0.801357427	 0.122067
H	-2.1180360634	 0.1446010994	-0.3760662228	 0.093318
H	-2.6073507723	-1.7589881065	-1.9140286452	 0.137556
H	-0.8311508362	-2.2094326565	-1.9449332279	 0.130162
H	 0.4287578945	-2.5557286	 0.2394477777	 0.140063
H	-0.4354304947	-2.6451119201	 1.7855283182	 0.133318
H	-0.7189371421	-3.8816552691	 0.5519718095	 0.13308
88.9787	107.0925	142.8767	193.5793	201.9083	235.7221	238.1909	273.7646	330.1703	342.8815	368.496	472.0423	491.3691	576.3474	584.5672	698.0846	787.4474	866.1762	922.3353	951.1177	983.3878	1046.6126	1063.5346	1071.6433	1114.5189	1116.5337	1124.3042	1142.2385	1192.3203	1243.7181	1275.5825	1293.8851	1322.5114	1401.7733	1411.3649	1442.466	1468.1894	1480.2743	1484.4307	1492.3486	1497.1911	1501.2167	1503.1819	1515.7162	2346.8008	2940.1119	2946.8476	3037.4115	3047.0227	3068.3036	3071.5385	3111.0712	3116.3003	3119.2408	3142.7152	3145.4998	3238.0499
CN(C)C1CC1(C)C#N	CN(C)[C@H]1C[C@]1(C)C#N	
InChI=1S/C7H12N2/c1-7(5-8)4-6(7)9(2)3/h6H,4H2,1-3H3	InChI=1S/C7H12N2/c1-7(5-8)4-6(7)9(2)3/h6H,4H2,1-3H3/t6-,7+/m0/s1
