14
gdb 124148	6.74135	0.75889	0.68502	4.0652	78.54	-0.2268	-0.0282	0.1987	1571.2515	0.101759	-432.877409	-432.868935	-432.86799	-432.912364	29.596	
C	-0.0437293897	 1.4349503128	 0.0099301467	-0.511783
C	 0.0183585947	-0.0163510995	 0.0086249348	 0.257639
C	 0.0831881646	-1.2204057732	 0.0088018941	-0.055709
C	 0.1331114321	-2.6305504377	 0.0071266617	 0.193954
N	 1.2112669131	-3.4114232986	 0.0877114497	-0.40542
C	 0.6784777437	-4.6567254573	 0.0415067005	 0.383893
O	 1.429057473	-5.7633120506	 0.0954236514	-0.415475
N	-0.6399123806	-4.727928336	-0.0610548732	-0.258231
N	-0.9687308178	-3.4107512164	-0.0814149617	-0.266474
H	 0.96157165	 1.8666752963	-0.035570919	 0.164597
H	-0.6086429938	 1.8078640459	-0.8513821131	 0.158792
H	-0.5292624019	 1.8101747047	 0.917559105	 0.159364
H	 2.3453374538	-5.4699064672	 0.1677279975	 0.311939
H	-1.9324366013	-3.1301442533	-0.1551055045	 0.282913
17.494	87.7188	94.459	252.5166	301.377	358.9765	410.3588	414.4504	460.682	477.8347	540.0042	571.8025	730.5592	760.1695	775.0447	976.1297	1031.1594	1050.0331	1051.2029	1114.8018	1175.005	1218.6764	1307.5434	1409.0385	1414.873	1455.4563	1471.859	1473.1397	1573.0618	1620.2366	2364.9625	3030.4084	3091.7519	3098.8857	3670.9764	3814.2798
CC#CC1=NC(O)=NN1	CC#Cc1nc(O)n[nH]1	
InChI=1S/C5H5N3O/c1-2-3-4-6-5(9)8-7-4/h1H3,(H2,6,7,8,9)	InChI=1S/C5H5N3O/c1-2-3-4-6-5(9)8-7-4/h1H3,(H2,6,7,8,9)
