18
gdb 16461	3.17062	2.68272	1.77445	2.0098	70.66	-0.2274	0.08	0.3074	788.4781	0.155087	-347.755727	-347.749216	-347.748272	-347.785873	26.792	
C	 0.0046754796	 1.514579411	-0.0108928332	-0.503391
C	 0.0468247511	 0.0070712934	-0.0428665352	 0.358703
C	 0.4646379333	-0.7175193399	-1.3220155859	-0.292182
C	 0.3556307884	-2.2062156018	-0.8747000275	-0.254208
C	-0.1016152442	-2.0183488596	 0.5660082583	-0.029565
C	 0.6087254891	-0.7839323321	 1.189214831	 0.01432
O	-0.5820862423	-0.4593151718	 1.9878436664	-0.321334
C	-1.0879239726	-0.8200361089	 0.6554644569	 0.014324
H	 0.9900037255	 1.9422653746	-0.2284032253	 0.113307
H	-0.6946788705	 1.9063923528	-0.758211967	 0.113308
H	-0.3133130732	 1.8581049332	 0.9769599748	 0.136899
H	-0.2007928515	-0.4786422526	-2.1584580938	 0.10026
H	 1.4791233152	-0.4428603763	-1.6300326859	 0.10026
H	-0.3698668792	-2.7717984042	-1.4674262629	 0.103245
H	 1.3110603192	-2.7359627921	-0.938586742	 0.103245
H	-0.2849678165	-2.8796084597	 1.2070934056	 0.076783
H	 1.58333097	-0.7109831545	 1.67583229	 0.083013
H	-2.1675708612	-0.7907965314	 0.4958347957	 0.083012
200.0212	242.873	286.8132	314.1984	369.4138	490.3439	659.3304	680.5109	710.0146	724.9005	790.6722	820.7948	887.2433	893.7821	915.1318	929.4497	945.8393	990.0787	1014.7255	1063.849	1081.995	1095.3347	1155.745	1170.8092	1182.6669	1222.4748	1237.591	1246.6298	1252.2386	1275.2296	1292.2073	1344.7114	1369.4325	1405.5191	1486.2322	1492.8812	1500.2376	1510.3298	3028.436	3039.7052	3052.4942	3072.2108	3085.8539	3093.899	3094.7639	3100.0746	3119.0431	3136.4321
CC12CCC3C1OC23	C[C@@]12CC[C@H]3[C@@H]1O[C@@H]23	
InChI=1S/C7H10O/c1-7-3-2-4-5(7)8-6(4)7/h4-6H,2-3H2,1H3	InChI=1S/C7H10O/c1-7-3-2-4-5(7)8-6(4)7/h4-6H,2-3H2,1H3/t4-,5-,6+,7+
