16
gdb 117020	4.2533	0.83831	0.70643	3.702	74.77	-0.2499	-0.1158	0.1341	1538.8058	0.122637	-434.091908	-434.081927	-434.080982	-434.128604	33.743	
C	-0.0939592454	 1.5253539158	 0.1523476273	-0.411802
C	-0.0205520888	 0.0096689235	 0.0101207265	-0.097265
N	 0.6426399331	-0.5823833302	 1.1592170231	-0.324889
C	 0.8367087088	-1.9129231129	 1.2807843225	 0.30221
N	 0.4574706218	-2.7692395095	 0.4021535357	-0.542086
C	 1.5486987068	-2.2744071016	 2.5651173364	 0.264007
O	 1.9046602213	-1.4696178898	 3.389809692	-0.283883
C	 1.7941244235	-3.7163220302	 2.7637514436	 0.243968
N	 2.0050848641	-4.836877517	 2.9565466724	-0.30319
H	 0.9062112964	 1.9659933054	 0.2210646033	 0.128526
H	-0.5940636848	 1.9610383778	-0.7160405683	 0.1343
H	-0.658688985	 1.8128213856	 1.0454667137	 0.128532
H	-1.0241063189	-0.4230333325	-0.0874114559	 0.127847
H	 0.5212705018	-0.2718237546	-0.9015053742	 0.127835
H	 0.9804338019	 0.0006635102	 1.9082466223	 0.26349
H	 0.6971759334	-3.7195561	 0.6810148596	 0.242399
22.4777	66.4719	85.1281	111.7651	180.7196	251.1385	281.0434	301.7578	362.683	388.6065	432.2384	491.9641	503.844	667.7851	785.501	812.8146	817.3734	851.0645	913.4895	1042.51	1129.0158	1173.2255	1174.7613	1191.3315	1292.9689	1313.344	1391.7584	1418.8961	1494.8431	1500.035	1526.3391	1554.2801	1694.6531	1777.3879	2338.667	3025.7305	3039.3305	3048.9523	3106.6229	3125.0827	3501.404	3642.5201
CCNC(=N)C(=O)C#N	CCNC(=N)C(=O)C#N	
InChI=1S/C5H7N3O/c1-2-8-5(7)4(9)3-6/h2H2,1H3,(H2,7,8)	InChI=1S/C5H7N3O/c1-2-8-5(7)4(9)3-6/h2H2,1H3,(H2,7,8)
