18
gdb 117601	2.08843	1.19326	0.99696	3.2094	79.27	-0.2819	-0.0047	0.2772	1315.6512	0.143221	-401.912585	-401.902105	-401.901161	-401.948241	37.198	
C	-0.0576177781	 1.5353922063	 0.1651621949	-0.385201
C	 0.055549406	 0.0367459543	-0.0530104525	-0.061159
O	 0.7491904262	-0.5029299745	 1.0747803308	-0.272055
C	 0.7920101892	-1.9154933981	 1.1889031936	 0.039037
C	 1.5270762668	-2.5956000608	 0.0102105214	-0.420118
C	 1.489516301	-2.211372336	 2.4469662213	 0.326405
C	 2.0822904162	-2.4816734001	 3.4541030624	-0.410997
C	-0.5930756282	-2.4671682991	 1.2768609264	 0.273479
N	-1.6715378626	-2.8801846449	 1.3098387804	-0.343707
H	 0.9338741893	 1.9859567804	 0.2635053826	 0.131211
H	-0.5678597442	 1.9996119209	-0.6838632567	 0.121493
H	-0.6256076463	 1.749228437	 1.0742213484	 0.136252
H	-0.9397822798	-0.4206130855	-0.1377725794	 0.120704
H	 0.6062272632	-0.1763645397	-0.979392113	 0.100411
H	 2.5220199077	-2.1536992088	-0.076552347	 0.14484
H	 1.6238613754	-3.666424905	 0.1993935701	 0.150062
H	 0.9792171366	-2.4553885587	-0.923560651	 0.139512
H	 2.5969079916	-2.7115423378	 4.3548969172	 0.209831
58.1102	97.7734	121.6428	132.4811	186.4926	217.0107	243.1701	251.7994	304.9468	348.8228	426.5667	476.6973	505.0805	569.5563	613.1095	651.4298	683.6918	703.0459	828.2957	874.8301	926.2358	967.0931	1059.4749	1106.1465	1131.1503	1154.0174	1186.187	1227.7598	1306.4679	1395.664	1402.6616	1426.8538	1481.5112	1483.0036	1488.578	1500.1249	1526.684	2252.2101	2352.6352	3002.284	3041.0659	3048.4609	3059.8678	3122.9151	3129.3475	3145.5156	3148.1525	3500.1445
CCOC(C)(C#C)C#N	CCO[C@@](C)(C#C)C#N	
InChI=1S/C7H9NO/c1-4-7(3,6-8)9-5-2/h1H,5H2,2-3H3	InChI=1S/C7H9NO/c1-4-7(3,6-8)9-5-2/h1H,5H2,2-3H3/t7-/m0/s1
