18
gdb 107085	3.78848	1.00628	0.919	4.9397	77.42	-0.2642	0.0303	0.2945	1305.2011	0.147009	-401.920627	-401.911956	-401.911012	-401.954346	31.989	
C	 0.0210576894	 1.3811135256	 0.3431509885	-0.260169
O	 0.0100176701	 0.0575774026	-0.1717796916	-0.278739
C	-1.2288126952	-0.5324259446	-0.1498882038	 0.469081
C	-1.8341799144	-1.0985420427	 1.1057943622	-0.353802
C	-1.5323847738	-2.0154643878	-0.0603975374	-0.142819
C	-2.6559354783	-1.8650746244	-1.1090697373	-0.14699
C	-2.2956884925	-0.3347069037	-1.2373393796	-0.32394
C	-2.4630459184	-2.627869805	-2.3316492541	 0.267803
N	-2.3056863438	-3.2368711085	-3.3018120525	-0.325175
H	 1.0551911748	 1.7281280745	 0.3006063152	 0.135102
H	-0.6055352775	 2.0551989033	-0.2570471791	 0.116091
H	-0.3293751999	 1.4079558888	 1.3838840323	 0.114959
H	-1.1336863752	-1.192798273	 1.9290850901	 0.127284
H	-2.8609634061	-0.8904464825	 1.4003952328	 0.108827
H	-0.8660783517	-2.8639592912	 0.0176403708	 0.120647
H	-3.6594323149	-2.0680659861	-0.7209617464	 0.121978
H	-3.1077818649	 0.3690793471	-1.0350481201	 0.108745
H	-1.8494481776	-0.1148004324	-2.2081297701	 0.141119
72.1516	92.2785	173.6204	179.3153	219.8351	309.8081	372.8968	410.4229	434.1787	506.0257	556.9653	654.0511	740.3656	801.4111	869.9632	909.4367	926.1966	969.0688	995.6712	1033.8851	1046.1515	1074.8722	1085.171	1103.0853	1149.5976	1180.622	1204.2104	1205.2299	1232.9713	1249.3061	1281.6659	1343.7854	1382.2066	1471.7121	1480.2846	1489.2809	1503.7987	1508.6874	2356.3366	2997.1092	3052.3965	3054.5417	3063.6184	3102.7333	3129.8445	3135.8561	3204.1648	3212.8484
COC12CC1C(C2)C#N	CO[C@]12C[C@H]1[C@@H](C2)C#N	
InChI=1S/C7H9NO/c1-9-7-2-5(4-8)6(7)3-7/h5-6H,2-3H2,1H3	InChI=1S/C7H9NO/c1-9-7-2-5(4-8)6(7)3-7/h5-6H,2-3H2,1H3/t5-,6-,7+/m0/s1
