13
gdb 123712	4.18251	1.65818	1.29542	5.1616	63.14	-0.2653	-0.0428	0.2225	897.1687	0.091098	-452.671718	-452.665878	-452.664934	-452.701876	23.551	
C	 0.0046800994	 1.4778082704	 0.1013729594	-0.317084
C	 1.2916675243	 0.7274217596	 0.025820944	 0.081569
O	 1.9939134948	 0.4736363372	 1.2568354857	-0.248436
C	 1.1986583371	-0.3512194943	 1.958952065	 0.419949
N	 1.2908432009	-0.9052579215	 3.1241794936	-0.225368
O	 0.1287633965	-1.6844291197	 3.1812928117	-0.169337
N	-0.6494822319	-1.5622134675	 2.0376857476	-0.208034
C	 0.008410404	-0.7344487717	 1.2898903188	 0.311794
C	-0.0332306753	-0.0485535468	-0.0122802105	-0.205877
H	-0.2826365474	 1.9310415441	 1.0434622765	 0.151324
H	-0.2885935598	 2.0313690358	-0.7834447192	 0.142103
H	 1.9736199557	 0.8191457307	-0.8084171652	 0.133891
H	-0.4160376784	-0.5230374064	-0.9056193376	 0.133506
176.2572	272.0356	415.0949	461.7464	483.7201	585.2858	643.71	698.6752	766.3377	784.826	797.334	819.4677	843.7375	865.753	956.0026	964.7928	1035.1185	1055.8805	1061.729	1086.9222	1121.4541	1184.2515	1212.7108	1314.439	1359.286	1450.9739	1468.6779	1605.1788	1691.3784	3142.6197	3209.0841	3216.75	3236.2881
C1C2OC3=NON=C3C12	C1[C@H]2Oc3nonc3[C@@H]12	
InChI=1S/C5H4N2O2/c1-2-3(1)8-5-4(2)6-9-7-5/h2-3H,1H2	InChI=1S/C5H4N2O2/c1-2-3(1)8-5-4(2)6-9-7-5/h2-3H,1H2/t2-,3+/m0/s1
