16
gdb 108736	3.21038	1.22645	0.94899	2.5579	76.74	-0.2826	-0.0855	0.1971	1223.7708	0.124643	-437.956429	-437.948203	-437.947259	-437.989795	30.02	
C	 0.0198253075	 1.5042949258	 0.2498751232	-0.385795
C	-0.0207318928	 0.0020683804	-0.0905534096	-0.295524
C	-1.4110051259	-0.5412488224	-0.1201002112	 0.197536
C	-2.1708836708	-0.9884805755	-1.1290239524	-0.300494
C	-3.474756535	-1.4006898273	-0.5994895183	 0.41862
N	-4.4500489339	-1.8717498181	-1.2461017656	-0.515958
O	-3.4667376733	-1.184846003	 0.7714445305	-0.229756
C	-2.2293952407	-0.6620938235	 1.1238072603	 0.393541
O	-1.9495380067	-0.3885365671	 2.2530419155	-0.321229
H	 1.0547164641	 1.8558864456	 0.2795744787	 0.124401
H	-0.5191252623	 2.0911299557	-0.499919185	 0.123955
H	-0.434120283	 1.6896238217	 1.2262269094	 0.152036
H	 0.4602287071	-0.1815372421	-1.0562691777	 0.115799
H	 0.5500856806	-0.5468465428	 0.6679337259	 0.134096
H	-1.92810813	-1.0647858539	-2.1791944389	 0.146231
H	-5.236026775	-2.0734692836	-0.6252305646	 0.242542
59.5699	129.3814	173.2711	196.1737	245.8821	293.6342	370.2232	464.551	561.055	613.4703	658.579	685.979	775.5708	799.1174	814.2033	896.209	919.1283	931.862	947.4684	1028.0199	1067.4317	1090.4634	1114.2408	1187.743	1266.337	1345.1629	1347.6463	1348.8482	1406.3736	1477.7626	1496.8725	1510.2921	1691.0313	1765.1944	1882.6045	3038.4155	3047.1395	3084.4178	3118.5548	3134.7399	3247.1301	3480.1429
CCC1=CC(=N)OC1=O	CC[C]1C=C([NH])OC1=O	
InChI=1S/C6H7NO2/c1-2-4-3-5(7)9-6(4)8/h3,7H,2H2,1H3	InChI=1S/C6H7NO2/c1-2-4-3-5(7)9-6(4)8/h3,7H,2H2,1H3
