17
gdb 17588	2.72071	2.44781	1.81324	1.0783	67.24	-0.2457	0.0701	0.3158	814.5777	0.141253	-363.797944	-363.790417	-363.789473	-363.829225	28.943	
C	 0.0111651366	 1.5160560979	 0.0209909125	-0.48906
C	-0.0376453016	 0.0191623689	 0.0588122577	 0.259226
N	 1.1528206256	-0.771067391	-0.2892742681	-0.402786
C	 0.5614046149	-0.966093908	 1.0430278258	 0.259222
C	 1.3832069541	-0.7405518952	 2.2752106698	-0.489059
C	-0.7050866936	-1.8100177427	 0.934370695	-0.051024
O	-1.8341754298	-0.9989664501	 1.3006174161	-0.241498
C	-1.2863248018	-0.8540476435	-0.0206083879	-0.051027
H	 0.9869929793	 1.8780493076	 0.3546588714	 0.132674
H	-0.1519034584	 1.890412001	-0.9961807645	 0.122948
H	-0.7628866703	 1.9398537217	 0.6682610314	 0.131994
H	 0.9395860409	-1.5368945514	-0.9261256205	 0.223177
H	 2.0690451781	 0.0984024762	 2.1324019459	 0.132674
H	 0.736451978	-0.5260994298	 3.1316201727	 0.131994
H	 1.9852027756	-1.6245462518	 2.5150588402	 0.122948
H	-0.8264490814	-2.8855993887	 1.0009905039	 0.103798
H	-1.9563965762	-1.0271586909	-0.8555211314	 0.103799
181.0998	193.7698	196.856	207.8801	233.9004	375.3411	458.4024	506.5866	606.7452	618.0186	698.7853	782.156	805.3038	844.0037	873.2356	881.2252	968.7726	975.9928	1056.1447	1059.8715	1090.9785	1106.575	1152.6737	1165.1855	1197.4403	1234.9587	1257.8889	1337.6395	1356.5942	1408.7163	1415.0704	1460.282	1482.5927	1489.6747	1492.0368	1497.8598	3033.3807	3034.5906	3096.0697	3097.0173	3121.7588	3123.4652	3174.8581	3189.4493	3462.0851
CC12NC1(C)C1OC21	C[C@@]12N[C@]1(C)[C@H]1O[C@@H]21	
InChI=1S/C6H9NO/c1-5-3-4(8-3)6(5,2)7-5/h3-4,7H,1-2H3	InChI=1S/C6H9NO/c1-5-3-4(8-3)6(5,2)7-5/h3-4,7H,1-2H3/t3-,4+,5+,6-
