23
gdb 92634	3.03293	1.30142	0.99796	0.2033	92.68	-0.2245	0.0319	0.2564	1280.2986	0.208192	-351.169163	-351.160782	-351.159838	-351.201761	33.772	
C	-0.0429109709	 1.5896817884	 0.0636717746	-0.405957
C	 0.0126720629	 0.0704501645	 0.0004898283	-0.055813
C	 1.0824587044	-0.631976598	-0.9120344906	-0.272599
C	 1.2922175594	-1.6998169393	 0.2088286713	-0.030931
C	 2.6545433504	-2.1511079056	 0.7252510933	-0.229572
C	 2.4825950138	-2.5488094886	 2.2063375153	-0.201093
C	 1.9928429299	-1.379432919	 3.0908593561	-0.228441
C	 0.9800743606	-0.4883654104	 2.4068550327	-0.234283
C	 0.6352072108	-0.7089859978	 1.1450463782	 0.331635
H	 0.9405730096	 2.0049851887	 0.3075326047	 0.113517
H	-0.3643642165	 2.0132670606	-0.894164153	 0.112279
H	-0.7487111909	 1.9295138667	 0.8295416271	 0.116121
H	-0.9808267456	-0.329334955	-0.244341874	 0.077592
H	 0.7556444331	-0.9814387386	-1.8946713935	 0.092251
H	 1.9681442761	 0.0003419555	-1.0304357682	 0.099355
H	 0.6499031598	-2.5701778626	 0.0176796733	 0.071757
H	 3.0633378318	-2.988286097	 0.1483378864	 0.087788
H	 3.3703003108	-1.3224357641	 0.6451112999	 0.09047
H	 1.7555044491	-3.3693507352	 2.2598321105	 0.098101
H	 3.4214982579	-2.941708967	 2.6108485439	 0.089796
H	 1.5870115258	-1.7769014931	 4.0308959033	 0.100485
H	 2.8504276537	-0.757928463	 3.3902073398	 0.102113
H	 0.6079417142	 0.3719197901	 2.9597266608	 0.075426
104.1001	155.2524	213.5308	247.6259	262.3439	321.8371	385.6531	426.9596	469.6902	521.26	604.6426	660.6781	765.0822	799.6419	813.0999	860.787	880.5307	906.0245	922.8785	947.5602	984.1024	1001.0894	1012.7924	1071.2086	1089.2263	1110.5021	1115.0537	1140.2092	1153.6028	1181.8416	1215.5577	1237.8426	1263.7409	1265.8762	1280.5429	1303.3587	1350.3773	1359.8572	1366.3083	1375.8922	1385.1067	1407.0038	1478.067	1483.499	1491.4329	1493.4262	1497.4826	1498.7537	1768.6024	2993.1235	3005.1294	3009.8674	3016.4201	3020.7188	3027.0795	3032.1521	3048.8693	3065.6701	3071.3104	3092.8989	3099.8345	3108.364	3142.6188
CC1CC2CCCC=C12	C[C@H]1C[C@H]2CCC[CH][C]12	
InChI=1S/C9H14/c1-7-6-8-4-2-3-5-9(7)8/h5,7-8H,2-4,6H2,1H3	InChI=1S/C9H14/c1-7-6-8-4-2-3-5-9(7)8/h5,7-8H,2-4,6H2,1H3/t7-,8+/m0/s1
