18
gdb 81887	3.11653	1.26115	1.0565	1.3614	73.76	-0.2511	-0.0414	0.2097	1156.5482	0.146859	-439.054234	-439.045559	-439.044614	-439.08747	32.494	
C	-0.1997502372	 1.6087153172	-0.1636831473	-0.409451
C	-0.0525398603	 0.0982003388	-0.0650902885	-0.115844
C	 1.0933445094	-0.6056886081	-0.914475797	 0.13595
O	 1.9809162202	 0.2026416285	-1.6295345133	-0.42665
C	 1.6407637572	-1.2175818712	 0.3839891396	-0.121651
N	 2.0075239876	-0.0820009066	 1.221940846	-0.383823
C	 0.5840929686	-0.4919791362	 1.1981419536	 0.255938
C	-0.0247772659	-1.0546454316	 2.4109760167	 0.045271
O	 0.614088082	-1.3846863741	 3.3868606649	-0.282186
H	 0.7223729864	 2.1138844763	 0.1336909104	 0.12913
H	-0.4339865622	 1.9061833261	-1.1900223471	 0.128387
H	-1.0047634826	 1.966262311	 0.4868343431	 0.115417
H	-1.0054855903	-0.4011799638	-0.2709116831	 0.080204
H	 0.6933268946	-1.3452920878	-1.610527095	 0.095959
H	 2.4705452511	 0.7112315421	-0.9691427523	 0.296463
H	 2.0502721538	-2.2052364267	 0.5611353549	 0.116022
H	 2.3903197924	-0.4384769854	 2.0991693727	 0.257144
H	-1.1274433148	-1.1829224384	 2.3689909817	 0.083722
102.9782	130.705	176.3302	201.5943	225.8461	253.83	316.503	373.1582	488.8316	531.6093	578.199	639.5436	702.4605	745.291	802.4585	822.8685	913.7991	927.6631	970.5035	1012.1815	1035.2987	1067.933	1104.6602	1127.4874	1129.6999	1155.2668	1200.8025	1232.8197	1271.8255	1298.2626	1336.6698	1370.9264	1394.7182	1412.7011	1435.6567	1446.3491	1488.8611	1503.9961	1781.1962	2906.2254	3041.3079	3050.9448	3100.0181	3107.5612	3126.0058	3189.868	3467.1129	3763.127
CC1C(O)C2NC12C=O	C[C@H]1[C@@H](O)[C@H]2N[C@@]12C=O	
InChI=1S/C6H9NO2/c1-3-4(9)5-6(3,2-8)7-5/h2-5,7,9H,1H3	InChI=1S/C6H9NO2/c1-3-4(9)5-6(3,2-8)7-5/h2-5,7,9H,1H3/t3-,4+,5+,6-/m0/s1
