16
gdb 92818	2.87621	1.88721	1.67847	3.6015	67.57	-0.244	-0.0396	0.2044	856.4285	0.125303	-437.790985	-437.784322	-437.783378	-437.821737	27.454	
O	 0.1914293692	 1.4554766906	-0.0783423258	-0.432155
C	 0.0443906423	 0.0558139302	-0.0075078967	 0.109192
C	 0.8239499851	-0.5330598247	 1.2312879092	-0.199784
N	 0.0996196663	 0.0669193506	 2.367054297	-0.234517
C	-1.1063304115	-0.2852746873	 2.2821372698	 0.30246
O	-2.1578885293	 0.6388261647	 2.2707654777	-0.267948
C	-2.5868381869	-0.0432274645	 1.0505419715	 0.076752
C	-1.4312146777	-0.4393159761	 0.0679429398	-0.074929
C	-1.7716294549	-1.2492751158	 1.2989543873	-0.250385
H	-0.0213332775	 1.8011621919	 0.7989183138	 0.29902
H	 0.4747340589	-0.3320692209	-0.9380682562	 0.085248
H	 0.8087601957	-1.6302880242	 1.19691914	 0.107886
H	 1.8596608734	-0.1899233964	 1.2353916261	 0.122461
H	-3.6146372492	 0.1079746935	 0.749025201	 0.130272
H	-1.8330306255	-0.8134436152	-0.8716129397	 0.104952
H	-1.9960507785	-2.3022140662	 1.3922072651	 0.121474
127.1983	243.5506	348.6533	400.3977	436.5872	439.3557	541.7849	583.496	631.9303	700.8282	782.2346	790.6691	806.8462	822.6477	874.6716	918.2573	946.1917	964.3233	1005.9146	1015.1633	1049.4418	1056.6632	1080.4076	1125.038	1143.1048	1205.6237	1230.4271	1247.0496	1303.3669	1312.03	1331.094	1373.2804	1439.9877	1493.0687	1714.7025	3017.9728	3046.7537	3121.7578	3136.192	3208.7957	3221.2273	3762.8341
OC1CN=C2OC3C1C23	O[C@H]1C[N][C]2O[C@H]3[C@@H]1[C@@H]23	
InChI=1S/C6H7NO2/c8-2-1-7-6-4-3(2)5(4)9-6/h2-5,8H,1H2	InChI=1S/C6H7NO2/c8-2-1-7-6-4-3(2)5(4)9-6/h2-5,8H,1H2/t2-,3-,4+,5-/m0/s1
