18
gdb 98868	3.28163	1.1438	0.95555	3.1318	74.93	-0.2273	0.0068	0.2341	1267.1823	0.147861	-439.119828	-439.110899	-439.109955	-439.154409	31.759	
C	 0.8675374528	 1.3858583459	 0.6220154759	-0.332078
N	 0.8129985077	-0.0582561508	 0.7030618998	-0.300434
C	-0.3434804684	-0.7541549057	 0.6160841598	 0.36445
O	-1.4543323093	-0.270930903	 0.4765069198	-0.39441
C	-0.1749052128	-2.2822197824	 0.7112795606	-0.009941
O	 1.1910253395	-2.6852245066	 0.846670983	-0.288452
C	 1.3539426046	-3.5021182699	 2.0125737171	-0.122478
C	-0.0028713004	-3.5328107799	 2.6567150567	-0.093864
C	-0.8690918918	-2.847966171	 1.9208798906	-0.081954
H	 1.288496129	 1.821755724	 1.535087928	 0.124578
H	 1.4707875659	 1.7151024441	-0.231445085	 0.126073
H	-0.1549201952	 1.7449494636	 0.4948767918	 0.167809
H	 1.6543349216	-0.6076123707	 0.7881329895	 0.258571
H	-0.5903770164	-2.6893419557	-0.2234073998	 0.115386
H	 1.7049655144	-4.5020544154	 1.7147215311	 0.113437
H	 2.1262694224	-3.0661605493	 2.6635360204	 0.109838
H	-0.2032418696	-4.0516196981	 3.5851095148	 0.112206
H	-1.9182553041	-2.6717984389	 2.1101524858	 0.131264
62.4311	83.8734	105.0413	136.3069	196.7423	254.6919	327.1388	404.5334	455.9415	575.5167	635.2929	703.6055	755.7081	798.47	824.9034	893.6689	938.5593	951.1283	964.9804	1015.0599	1046.7756	1101.7017	1108.1379	1123.3983	1153.7376	1181.059	1198.9802	1253.7068	1276.9548	1322.8178	1342.0434	1381.8949	1440.8564	1495.2842	1500.3957	1520.679	1568.9436	1691.5595	1781.488	2983.7015	2988.9663	3005.9776	3026.5999	3078.0848	3147.472	3219.1049	3252.3061	3627.3767
CNC(=O)C1OCC=C1	CNC(=O)[C@H]1OCC=C1	
InChI=1S/C6H9NO2/c1-7-6(8)5-3-2-4-9-5/h2-3,5H,4H2,1H3,(H,7,8)	InChI=1S/C6H9NO2/c1-7-6(8)5-3-2-4-9-5/h2-3,5H,4H2,1H3,(H,7,8)/t5-/m0/s1
