21
gdb 58660	1.85241	1.47301	1.14549	1.2217	85.56	-0.2452	0.0434	0.2886	1233.8834	0.179116	-387.050476	-387.039959	-387.039015	-387.085533	39.358	
C	 0.0768170448	 1.4838491534	-0.337231007	-0.406047
C	 0.0119483099	 0.0337773665	 0.1478617343	 0.067209
O	 0.535849996	-0.1025912321	 1.4623327327	-0.437972
C	-1.4037863014	-0.5480068648	 0.0665236075	 0.126462
C	-1.8995034601	-1.1289150917	-1.2524301225	-0.331062
C	-1.6113817519	-2.0536743319	-0.1044454854	-0.036263
C	-0.4606087043	-3.0357044193	-0.1256773295	-0.413805
C	-2.3511975738	 0.1356560426	 0.908531347	 0.263657
C	-3.1025259252	 0.7176211484	 1.6488943053	-0.459924
H	 1.0982261996	 1.8603652774	-0.2382387872	 0.120407
H	-0.2275204294	 1.5625757036	-1.3859450499	 0.113905
H	-0.5882881707	 2.1199866305	 0.2557257917	 0.123594
H	 0.6690940117	-0.5758030275	-0.4791784259	 0.082296
H	-0.0864788224	 0.3300847528	 2.0600676597	 0.28198
H	-2.9271659803	-0.9372262022	-1.5378798343	 0.122659
H	-1.1925831094	-1.1154086528	-2.0772112344	 0.114888
H	-2.4904099618	-2.4206863332	 0.4174625998	 0.0998
H	 0.355950254	-2.7046090851	-0.7725156745	 0.119819
H	-0.0515035332	-3.1867268007	 0.8778444028	 0.13663
H	-0.8019282268	-4.0046008857	-0.5057385732	 0.117625
H	-3.7846558154	 1.2252063519	 2.285015373	 0.194142
64.7545	122.3569	140.3077	143.4965	202.3328	217.47	249.6649	323.0404	345.2576	360.7275	381.6558	473.7417	482.1313	560.4623	567.4816	589.4765	658.2178	687.4539	806.8567	872.7852	892.238	909.9233	936.5816	1007.7563	1033.6531	1064.2977	1084.3627	1103.5635	1120.4244	1127.8113	1190.281	1237.9311	1288.1247	1312.4923	1355.6529	1401.7097	1405.2075	1421.1514	1429.4069	1482.9461	1490.4252	1493.6443	1496.478	1499.5077	2220.4727	3037.858	3038.2293	3067.8492	3100.8877	3110.204	3114.7088	3122.5604	3126.2671	3151.4093	3218.8497	3500.8818	3777.2738
CC(O)C1(CC1C)C#C	C[C@@H](O)[C@]1(C[C@H]1C)C#C	
InChI=1S/C8H12O/c1-4-8(7(3)9)5-6(8)2/h1,6-7,9H,5H2,2-3H3	InChI=1S/C8H12O/c1-4-8(7(3)9)5-6(8)2/h1,6-7,9H,5H2,2-3H3/t6-,7-,8+/m1/s1
