16
gdb 43332	3.35891	1.46206	1.07429	4.2831	80.52	-0.2284	-0.067	0.1614	1076.3409	0.126256	-400.742353	-400.735165	-400.734221	-400.774142	27.877	
O	-0.0315714716	-0.1474386086	-0.1123881401	-0.338411
C	-0.0126936663	 1.0630066899	 0.0627292336	 0.328523
C	-1.3194945912	 1.7493106958	 0.2796854379	-0.154459
C	-1.604782704	 3.0528643249	 0.299015925	-0.072541
C	-0.7147715456	 4.2035329831	 0.0252192729	-0.062028
C	 0.0631682874	 4.9262581186	 1.0966840481	-0.25167
N	 0.728979297	 4.1681406824	 0.0419309495	-0.092033
C	 1.5445309726	 3.0727118825	 0.2770987625	-0.012042
C	 1.2796569163	 1.7590934168	 0.1736822126	-0.182068
H	-2.1238210247	 1.0339729538	 0.4264433788	 0.114749
H	-2.6424115561	 3.343006374	 0.460377462	 0.111526
H	-1.0986395917	 4.8440761662	-0.7711721943	 0.117795
H	 0.171725893	 6.0066584078	 1.0593181325	 0.13071
H	 0.0515308111	 4.4847042444	 2.0898345572	 0.134648
H	 2.5676115133	 3.3791729647	 0.4894505502	 0.11987
H	 2.1185915903	 1.0731609137	 0.2311467017	 0.10743
78.6078	199.9544	227.574	346.6344	382.4011	396.4429	459.245	483.8703	685.3804	692.4264	722.2081	794.3982	803.6246	839.548	856.5714	892.5111	970.7484	990.6915	1027.0825	1045.9037	1069.5141	1101.5766	1116.2275	1162.6211	1218.6778	1238.4199	1295.7279	1384.3931	1411.4031	1429.7956	1449.3497	1506.0053	1665.6956	1709.9075	1727.895	3083.8146	3106.5462	3134.4294	3141.5947	3178.8198	3189.3028	3202.5071
O=C1C=CC2CN2C=C1	O=C1C=C[C@H]2CN2C=C1	
InChI=1S/C7H7NO/c9-7-2-1-6-5-8(6)4-3-7/h1-4,6H,5H2	InChI=1S/C7H7NO/c9-7-2-1-6-5-8(6)4-3-7/h1-4,6H,5H2/t6-,8?/m0/s1
