16
gdb 65800	2.1781	1.70507	1.39177	2.923	72.3	-0.2327	-0.0506	0.1821	998.29	0.123624	-437.933672	-437.925318	-437.924374	-437.966617	30.821	
C	 0.061882802	 1.7108481794	 0.2953270632	-0.425715
C	 0.0294784273	 0.1899503126	 0.0817729401	 0.044094
N	 0.7280972474	-0.2597642731	-1.1140189236	-0.304025
C	 1.6234077809	-1.2340509201	-0.7469938536	 0.008835
C	 1.7625461246	-1.3904046875	 0.5950268563	-0.263128
C	 0.7988039209	-0.5256887479	 1.2494572202	 0.360814
O	 0.5664652781	-0.3144761725	 2.4208976502	-0.365778
C	-1.4118096335	-0.2966213978	 0.0792799738	 0.1579
O	-1.9346865258	-0.8441724871	-0.8579162403	-0.267615
H	 1.0949030603	 2.0643586647	 0.2547590813	 0.141732
H	-0.518130329	 2.2364750094	-0.4687520238	 0.125804
H	-0.3436250321	 1.9420498313	 1.2837321586	 0.151156
H	 0.1469591892	-0.4332444247	-1.9249513512	 0.259955
H	 2.151260947	-1.7706625856	-1.5265637691	 0.140733
H	 2.4660908283	-2.0307922678	 1.1030683799	 0.12087
H	-1.9524156855	-0.0894232431	 1.0248683382	 0.114369
91.2628	124.3918	193.6729	207.216	253.9368	282.8382	319.8992	434.6164	508.4181	575.7362	607.6556	646.7381	730.2469	770.124	796.5206	819.9396	916.7389	934.5958	968.1145	1010.1293	1094.2298	1118.0652	1140.0595	1178.8711	1202.1515	1233.6241	1376.027	1388.8006	1406.2722	1445.8511	1486.6292	1493.4029	1608.5866	1787.5812	1821.134	2939.17	3045.6719	3123.6874	3135.5862	3212.3844	3264.5132	3569.629
CC1(NC=CC1=O)C=O	C[C@]1(NC=CC1=O)C=O	
InChI=1S/C6H7NO2/c1-6(4-8)5(9)2-3-7-6/h2-4,7H,1H3	InChI=1S/C6H7NO2/c1-6(4-8)5(9)2-3-7-6/h2-4,7H,1H3/t6-/m0/s1
