16
gdb 24199	4.14923	1.62436	1.40086	1.1033	74.34	-0.1989	0.016	0.215	918.9805	0.127749	-400.682138	-400.676026	-400.675082	-400.712873	25.145	
C	-0.0159350226	 1.5214648296	-0.0649242116	-0.163447
C	 1.5437188649	 1.3296892277	-0.0166828094	-0.200638
C	 1.1438261202	 0.1661408542	 0.9620168639	-0.163445
N	-0.0992424648	-0.0140863458	 0.0652995776	-0.238059
C	 0.6053351825	-0.3598538068	-1.1867423455	 0.279553
C	 1.6592532507	 0.4787921557	-1.2701331474	 0.339647
O	 2.394567419	 0.2720321361	-2.3736210001	-0.212951
C	 1.7560163419	-0.7676410481	-3.0247225795	-0.024349
C	 0.6480416862	-1.1949538402	-2.3373301628	-0.400497
H	-0.4393427469	 1.9989601999	 0.8241403739	 0.108209
H	-0.4602855525	 1.9212825142	-0.9778337717	 0.114767
H	 2.2583870536	 2.1172508649	 0.2156212142	 0.084566
H	 1.7915922608	-0.7103138878	 1.0161570821	 0.114766
H	 0.8437089412	 0.4995581276	 1.9602517809	 0.108209
H	 2.2146369212	-1.0752915488	-3.9487632461	 0.13452
H	-0.0135013454	-1.9909342025	-2.6408086287	 0.119149
67.7071	302.6984	407.2109	505.1846	543.9217	602.642	668.4354	670.5974	705.1305	740.7587	802.2251	814.9424	823.0064	837.6386	890.1618	926.0905	992.4452	1007.7306	1023.519	1035.0425	1092.55	1104.4653	1142.189	1169.0724	1191.8634	1217.4687	1237.2321	1257.6332	1294.6239	1375.8295	1462.9614	1480.4112	1486.3922	1525.1733	1613.5441	3046.5044	3058.2656	3130.4242	3135.097	3135.1975	3257.9112	3293.6221
C1C2CN1C1=C2OC=C1	C1[C@H]2CN1c1c2occ1	
InChI=1S/C7H7NO/c1-2-9-7-5-3-8(4-5)6(1)7/h1-2,5H,3-4H2	InChI=1S/C7H7NO/c1-2-9-7-5-3-8(4-5)6(1)7/h1-2,5H,3-4H2
