19
gdb 94224	3.40569	1.07241	0.97837	1.933	77.15	-0.2474	0.0326	0.2801	1270.5018	0.156055	-422.97633	-422.966615	-422.965671	-423.011071	35.947	
C	-0.2108582252	 1.490813929	 0.0438480027	-0.397422
C	 0.0665670724	 0.0007764999	 0.0028145806	 0.102083
O	 1.1768041827	-0.3431307401	-0.8650718277	-0.293814
C	 1.9971654629	-0.7522845023	 0.2476949486	-0.12338
C	 0.7988930315	-0.6231801405	 1.2205545756	 0.336349
O	 0.9411099435	 0.2621069859	 2.2993879276	-0.473176
C	 0.1992869215	-1.968039281	 1.6746455425	-0.40723
C	 1.0171721178	-2.5875453329	 2.7112003993	 0.253472
C	 1.7282601441	-3.0227202544	 3.5787061827	-0.418002
H	 0.6665348479	 2.0464439559	 0.3812271231	 0.131733
H	-0.4874623457	 1.8372290868	-0.9565655457	 0.121212
H	-1.0372025985	 1.7073287589	 0.7281282609	 0.120457
H	-0.8371337443	-0.5464286488	-0.3001442779	 0.071633
H	 2.4242762311	-1.7519062902	 0.1063256896	 0.101616
H	 2.7993716092	-0.0350760919	 0.4605860548	 0.101931
H	 1.3572746665	-0.2231181718	 3.0236358513	 0.285696
H	-0.8129196883	-1.7876310822	 2.0580737967	 0.139155
H	 0.1038173169	-2.635762822	 0.8107798736	 0.143447
H	 2.3404702238	-3.4442300282	 4.3375564419	 0.204239
57.6966	79.6912	116.1936	204.1487	221.7255	275.0294	324.9294	364.233	367.8729	398.2244	435.3723	468.8237	561.3324	631.8449	661.0446	710.5427	812.9394	877.2495	894.3673	915.7111	967.8055	1001.56	1018.375	1057.1219	1089.0783	1128.9977	1141.1185	1157.8522	1219.5698	1267.6836	1297.5278	1301.0649	1345.8857	1372.9007	1405.7127	1417.7085	1463.1231	1484.2726	1488.2416	1517.5434	2229.9698	3001.236	3017.4681	3029.4987	3044.7881	3066.928	3072.8011	3113.7741	3135.5754	3503.3651	3762.78
CC1OCC1(O)CC#C	C[C@H]1OC[C@]1(O)CC#C	
InChI=1S/C7H10O2/c1-3-4-7(8)5-9-6(7)2/h1,6,8H,4-5H2,2H3	InChI=1S/C7H10O2/c1-3-4-7(8)5-9-6(7)2/h1,6,8H,4-5H2,2H3/t6-,7-/m1/s1
