15
gdb 17149	4.08461	2.01089	1.61877	4.2327	70.49	-0.2983	0.0208	0.3191	798.9671	0.120621	-325.467378	-325.461273	-325.460328	-325.497509	24.16	
N	 0.0338798896	-1.0983510196	-0.0299069548	-0.350398
C	-0.0052633542	 0.0574786779	 0.0089979824	 0.156113
C	-0.057041516	 1.4935787941	 0.0620162447	 0.247748
C	-0.7552437451	 2.4023372327	 1.0974376916	-0.304273
C	-0.1052458738	 3.3813084843	 0.1018093332	-0.064488
C	 1.1664438949	 2.4807088908	-0.0886366357	-0.066945
C	 1.0513362859	 2.50776767	-1.6243539826	-0.265985
C	-0.4082733825	 2.4625458331	-1.1345536173	-0.066945
H	-1.8478763513	 2.3623616415	 1.1145413153	 0.11161
H	-0.3468085046	 2.3796755957	 2.1115401672	 0.11161
H	-0.1172258088	 4.4701647629	 0.1009383802	 0.088122
H	 2.0523140192	 2.4690496758	 0.5468924242	 0.091722
H	 1.3685663616	 3.430684158	-2.1179979222	 0.103669
H	 1.4195893614	 1.630739795	-2.1635600661	 0.116719
H	-1.3372405761	 2.4299533077	-1.7044278001	 0.091722
145.7004	179.7369	389.212	399.6273	535.4753	537.714	556.3662	720.0683	767.6992	866.815	871.8388	880.1007	914.2635	926.7557	992.2429	1007.2942	1026.3803	1042.1974	1087.991	1102.2556	1127.0682	1160.9012	1164.5106	1188.132	1223.4131	1240.7319	1245.0375	1270.4848	1312.1705	1507.3633	1510.6152	2344.5584	3052.7239	3054.4532	3114.0547	3114.9579	3115.5302	3116.0408	3134.2288
N#CC12CC3C1CC23	N#C[C@@]12C[C@H]3[C@@H]1C[C@@H]23	
InChI=1S/C7H7N/c8-3-7-2-4-5(7)1-6(4)7/h4-6H,1-2H2	InChI=1S/C7H7N/c8-3-7-2-4-5(7)1-6(4)7/h4-6H,1-2H2/t4-,5-,6+,7-
