19
gdb 39702	4.19511	1.52388	1.4848	0.1474	82.18	-0.237	0.0957	0.3328	957.3583	0.161184	-348.659455	-348.653036	-348.652092	-348.689892	27.847	
C	-0.0765553407	 1.536952728	 0.0110375745	-0.346794
C	 1.2573417001	 0.8063630388	-0.0063324194	-0.343791
C	-0.0325710007	 0.044474984	 0.0023635834	 0.436876
C	-0.4639802426	-0.9908802949	 1.0442814531	-0.164326
C	-1.9622555277	-1.2912599914	 0.7811243644	-0.068753
C	-1.696989931	-2.5608367459	 0.0041887315	-0.116057
C	-1.9775599926	-1.2822224909	-0.7522669367	-0.068791
C	-0.4847250944	-0.9793381919	-1.0420830356	-0.164261
C	-0.1955820975	-2.1381063521	-0.0080378364	-0.033301
H	-0.3662708423	 2.0417375655	 0.9275496673	 0.107758
H	-0.3844818307	 2.0517869293	-0.8938725292	 0.107755
H	 1.8392112804	 0.8338894241	-0.9225963696	 0.108222
H	 1.8574080199	 0.8237879035	 0.8983683388	 0.108219
H	-0.0882418133	-0.9970588147	 2.0670014449	 0.05987
H	-2.8266222912	-1.0201628878	 1.3725574595	 0.082702
H	-2.201297591	-3.5174729676	 0.0035446981	 0.084059
H	-2.8535281608	-1.0041752201	-1.3230490102	 0.0827
H	-0.1294708105	-0.9741950341	-2.0721060353	 0.059894
H	 0.6888445967	-2.7692166719	-0.0203041732	 0.068019
150.8146	242.9889	253.9388	466.8804	560.6508	575.7063	730.0947	767.2217	773.6355	790.5231	794.7557	820.0501	855.0179	860.6262	870.7898	903.8477	907.3503	943.2152	967.3874	974.0481	993.2103	993.6154	1028.4196	1033.6196	1046.9372	1067.4521	1073.3324	1074.4826	1156.5659	1167.3453	1176.3891	1181.8064	1199.667	1221.7607	1235.4199	1254.6377	1281.4488	1341.3764	1409.9827	1463.5305	1508.4484	3117.5524	3117.5655	3118.2021	3121.8953	3152.2116	3193.6301	3194.9286	3195.9112	3208.3714	3212.4005
C1CC11C2C3C4C3C1C24	C1CC21[C@H]1[C@@H]3[C@H]4[C@@H]3[C@@H]2[C@@H]14	
InChI=1S/C9H10/c1-2-9(1)7-4-3-5(4)8(9)6(3)7/h3-8H,1-2H2	InChI=1S/C9H10/c1-2-9(1)7-4-3-5(4)8(9)6(3)7/h3-8H,1-2H2/t3-,4+,5-,6+,7-,8+
