16
gdb 28520	3.16082	1.39657	0.97184	2.3028	77.9	-0.1838	0.0004	0.1842	1149.0003	0.127515	-434.143503	-434.135668	-434.134724	-434.17535	31.271	
N	 0.0351210656	 1.4390271365	-0.0283420104	-0.615011
C	-0.0327621315	 0.022901012	-0.0120130205	 0.205101
C	-1.210853832	-0.7099107643	-0.0570754872	-0.134994
C	-1.1799769952	-2.1026175848	-0.083960371	-0.233552
C	 0.0701006794	-2.709910931	-0.0439732119	 0.415753
O	 0.1527477564	-4.0630768401	-0.0485604385	-0.428775
N	 1.2182275666	-2.037421518	-0.0123525351	-0.432418
C	 1.1748102277	-0.7049768089	-0.0073988899	 0.330508
N	 2.3786386339	-0.0144004702	 0.0554832821	-0.577141
H	 0.5819177052	 1.7968239192	 0.7496527639	 0.247055
H	-0.8840425815	 1.8630447676	 0.0034045012	 0.239775
H	-2.164824184	-0.1893349868	-0.0672257272	 0.08941
H	-2.0809750261	-2.6999535806	-0.1229807105	 0.099661
H	 1.0968108553	-4.2675625859	-0.0238630495	 0.291065
H	 3.1721430395	-0.5984583297	-0.1696681931	 0.24914
H	 2.3687017606	 0.858149365	-0.4579290324	 0.254423
141.7952	211.8985	241.6316	303.9724	340.6322	369.5035	450.4883	483.2348	489.7272	504.224	526.0615	593.6333	667.5682	713.6374	752.8235	780.278	800.4571	817.1902	852.7738	939.8213	993.8187	1078.6342	1139.0051	1165.404	1218.1086	1266.7603	1323.9165	1353.5882	1411.1047	1498.2989	1514.9962	1618.0422	1643.7856	1656.4561	1667.1938	3164.2048	3220.8036	3492.9913	3535.8078	3596.9351	3650.0233	3781.2033
NC1=CC=C(O)N=C1N	Nc1ccc(O)nc1N	
InChI=1S/C5H7N3O/c6-3-1-2-4(9)8-5(3)7/h1-2H,6H2,(H3,7,8,9)	InChI=1S/C5H7N3O/c6-3-1-2-4(9)8-5(3)7/h1-2H,6H2,(H3,7,8,9)
