17
gdb 45414	2.64675	1.73386	1.69853	2.1764	71.56	-0.2342	-0.0226	0.2115	902.3829	0.138347	-421.85202	-421.845217	-421.844273	-421.883114	27.564	
O	 0.0083961829	-0.0318295957	-0.0199350258	-0.325511
C	-0.0139059921	 1.1720147334	-0.0032815695	 0.424631
C	-1.2866445279	 2.0221192792	 0.0424422353	-0.326633
C	-0.850744897	 3.4996335312	 0.0179925432	 0.045305
O	-0.0690156458	 3.7429537289	 1.2069802738	-0.272503
C	 1.1295966905	 2.974900513	 1.2460034078	-0.0796
C	 1.2366281639	 2.0648005342	-0.0103231169	-0.185033
C	 1.107456226	 2.9640763052	-1.2188835741	-0.092948
C	 0.0121713098	 3.7261571797	-1.2047133546	-0.0665
H	-1.9380312026	 1.7675729339	-0.7993126754	 0.13254
H	-1.8273932988	 1.7908674327	 0.9662674053	 0.136
H	-1.6996500752	 4.1810325937	 0.0815683049	 0.086197
H	 1.992866869	 3.6518966607	 1.2798010518	 0.107271
H	 1.1315995482	 2.3666866454	 2.1597212258	 0.112053
H	 2.1394308638	 1.4551414535	 0.0086093507	 0.090012
H	 1.8640793449	 2.9753445973	-1.9945386954	 0.109299
H	-0.2482189296	 4.4525761936	-1.9653237969	 0.105419
101.9776	208.7747	338.6832	370.0018	413.5437	450.9396	561.1858	588.9995	622.3729	666.3354	719.5102	757.1518	840.3077	874.2872	903.1046	953.5028	965.5926	990.3502	992.5022	1023.99	1049.1322	1056.2436	1116.9514	1171.6165	1178.8289	1217.7291	1250.1148	1272.8873	1300.6138	1332.2094	1344.1042	1379.7165	1398.8632	1438.1406	1522.9138	1673.782	1837.8666	3008.4979	3045.9613	3052.9153	3100.3364	3110.0811	3124.4503	3188.7897	3211.6551
O=C1CC2OCC1C=C2	O=C1C[C@H]2OC[C@@H]1C=C2	
InChI=1S/C7H8O2/c8-7-3-6-2-1-5(7)4-9-6/h1-2,5-6H,3-4H2	InChI=1S/C7H8O2/c8-7-3-6-2-1-5(7)4-9-6/h1-2,5-6H,3-4H2/t5-,6-/m0/s1
