19
gdb 87924	4.16328	1.03095	0.93009	3.2941	76.29	-0.2406	0.0348	0.2754	1290.1902	0.160553	-419.233946	-419.225368	-419.224423	-419.267486	32.408	
C	 0.2065503091	 1.519461673	-0.3613935695	-0.398879
C	 0.1059685001	 0.0411367672	-0.06830503	-0.053368
N	 1.373196144	-0.6910346717	 0.1340687891	-0.366694
C	 0.4218225341	-0.5584313998	 1.2499950076	 0.316952
C	 0.9107834706	 0.253883016	 2.456585518	-0.219146
N	 0.8619207914	-0.7204751169	 3.5322826433	-0.31458
C	 0.1717623433	-1.871352589	 3.2675326576	 0.415433
O	-0.0290398194	-2.7792836397	 4.0430674019	-0.378889
C	-0.3077846589	-1.769218611	 1.8141804709	-0.437259
H	 1.0126105136	 1.9805559602	 0.2147587703	 0.127475
H	 0.418447494	 1.6869818863	-1.4225074071	 0.125187
H	-0.731437138	 2.0315550593	-0.1205097809	 0.11824
H	-0.6686030658	-0.4762637194	-0.6348857628	 0.083502
H	 1.315861752	-1.6229027151	-0.2703330564	 0.228575
H	 1.9259652188	 0.6222312328	 2.2844552421	 0.128565
H	 0.2578996161	 1.115060747	 2.6603011334	 0.106925
H	 1.1995445957	-0.5371432236	 4.4637035545	 0.252133
H	-1.395904213	-1.6358272366	 1.8235041267	 0.135649
H	-0.0984265078	-2.6989763388	 1.2787180712	 0.130179
53.8958	131.699	169.4631	191.92	233.3419	348.8365	393.8322	463.7649	482.1362	506.9067	538.1253	596.9091	687.8497	762.0368	809.1468	874.0182	879.3483	935.9002	970.6651	1027.2973	1034.1329	1071.1037	1075.4404	1092.9639	1128.5369	1174.0841	1225.7604	1242.2068	1248.7917	1261.9526	1291.2628	1346.1888	1359.397	1412.1431	1449.4772	1457.3485	1471.9836	1491.1081	1504.5136	1529.1621	1834.417	2994.8558	3036.5219	3046.0497	3080.1443	3098.4206	3098.7452	3099.9556	3126.1952	3490.9055	3643.681
CC1NC11CNC(=O)C1	C[C@H]1N[C@]21CNC(=O)C2	
InChI=1S/C6H10N2O/c1-4-6(8-4)2-5(9)7-3-6/h4,8H,2-3H2,1H3,(H,7,9)	InChI=1S/C6H10N2O/c1-4-6(8-4)2-5(9)7-3-6/h4,8H,2-3H2,1H3,(H,7,9)/t4-,6+/m1/s1
