18
gdb 55869	2.41254	1.24221	1.02467	2.1613	79.15	-0.2459	0.0293	0.2752	1247.9926	0.144927	-401.906435	-401.896928	-401.895983	-401.941311	34.779	
C	-0.2420900504	 1.3519094812	 0.1493901052	-0.44569
C	-0.1486123403	-0.1191940649	-0.1275204888	 0.416229
N	 0.6855795877	-0.6102629337	-0.9417084388	-0.514092
O	-1.0793075216	-0.7883655788	 0.6339328449	-0.241705
C	-1.0996599617	-2.1792261657	 0.557006983	 0.10974
C	-2.3774380385	-2.8301189671	 0.9515623033	-0.331398
C	-1.9498398689	-2.859612829	-0.5153396513	-0.23798
C	-2.6566081546	-2.0764915458	-1.4829918664	 0.339059
C	-3.245779475	-1.4286648981	-2.3071157009	-0.451668
H	 0.5023696349	 1.8820490988	-0.4425164649	 0.147849
H	-1.2430747623	 1.7156487828	-0.1026669904	 0.143354
H	-0.0824815385	 1.5505056206	 1.2136339322	 0.137656
H	 0.5931504935	-1.6208881713	-1.034899584	 0.219255
H	-0.1587155103	-2.656909961	 0.8211149947	 0.114121
H	-2.3406451811	-3.7567074495	 1.512057918	 0.128146
H	-3.1977625477	-2.1666731973	 1.196824136	 0.146352
H	-1.5640155589	-3.8074545293	-0.880617491	 0.120933
H	-3.7613822064	-0.853644582	-3.0355715208	 0.199837
61.6175	66.8852	146.4949	155.2751	161.7933	229.9887	330.6343	384.5508	422.365	521.7693	551.1774	579.385	596.3349	656.3248	681.0792	774.2778	782.4925	829.8256	880.4493	910.5591	978.452	1032.2069	1045.7446	1070.6118	1076.7923	1103.3496	1124.1107	1130.6975	1176.4347	1236.655	1310.6467	1371.3161	1395.9234	1416.3604	1474.4068	1477.8187	1478.0233	1747.8117	2240.9288	3051.8491	3110.2383	3128.3135	3144.2005	3149.6148	3170.6555	3244.9919	3499.0655	3505.1317
CC(=N)OC1CC1C#C	C[C]([NH])O[C@H]1C[C@H]1C#C	
InChI=1S/C7H9NO/c1-3-6-4-7(6)9-5(2)8/h1,6-8H,4H2,2H3	InChI=1S/C7H9NO/c1-3-6-4-7(6)9-5(2)8/h1,6-8H,4H2,2H3/t6-,7+/m1/s1
