19
gdb 68674	2.3436	1.77674	1.40628	3.2718	74.9	-0.2222	-0.0188	0.2033	1011.0929	0.15983	-423.029169	-423.021086	-423.020142	-423.061424	31.41	
C	-0.0155552219	 1.5865840884	 0.0317948952	-0.478608
C	 0.0284777277	 0.0739410953	-0.0431847908	 0.179456
C	 0.6987337896	-0.6706026162	-1.252295721	-0.314759
C	-0.3392036684	-1.8130077473	-1.0390525601	 0.003036
O	 0.0215726323	-2.6972705145	 0.0199981902	-0.274925
C	 0.8518040805	-2.0914686386	 1.0116619765	-0.074927
C	 0.5117091902	-0.6093894224	 1.2676973087	-0.269009
C	-1.2419775396	-0.6981457922	-0.4555075718	 0.407362
O	-2.4118580567	-0.4486525442	-0.4499131279	-0.321689
H	 0.9813126068	 2.0041722532	 0.2105436779	 0.117255
H	-0.4054074051	 2.0151452707	-0.8965458631	 0.123807
H	-0.669067794	 1.9133904689	 0.8474180995	 0.132748
H	 0.5177105495	-0.152651319	-2.197865806	 0.11457
H	 1.7561212767	-0.9281251535	-1.1736305751	 0.11262
H	-0.6790159403	-2.4207780681	-1.8783308225	 0.096721
H	 0.7257201997	-2.6909144928	 1.9171711554	 0.117606
H	 1.9041750458	-2.1799161491	 0.708578825	 0.101231
H	 1.4035037995	-0.0951175659	 1.6470045965	 0.105368
H	-0.2673372024	-0.5072412327	 2.0311686234	 0.122138
125.0528	178.9712	197.3275	236.4251	252.501	302.4587	394.3888	426.4106	491.3707	556.2858	663.5743	711.4801	778.4866	816.9633	825.1284	880.3206	892.5098	929.8874	975.3859	1011.432	1031.828	1050.9309	1068.1295	1137.0397	1155.9793	1193.7956	1213.8676	1216.4248	1244.3554	1265.4337	1296.0454	1337.5012	1365.5869	1404.9717	1411.1116	1482.7149	1487.7415	1490.1365	1495.4941	1525.5092	1890.7092	3001.3944	3027.2277	3032.0106	3069.9551	3070.7022	3091.9641	3099.1872	3106.9948	3114.8752	3131.1202
CC12CC(OCC1)C2=O	C[C@@]12C[C@@H](OCC1)C2=O	
InChI=1S/C7H10O2/c1-7-2-3-9-5(4-7)6(7)8/h5H,2-4H2,1H3	InChI=1S/C7H10O2/c1-7-2-3-9-5(4-7)6(7)8/h5H,2-4H2,1H3/t5-,7+/m1/s1
