17
gdb 56865	2.66707	1.24805	1.05234	5.0048	73.69	-0.2746	0.0187	0.2933	1190.0933	0.135571	-418.026041	-418.017263	-418.016319	-418.060046	31.787	
C	 0.1655862663	 1.6489978145	 0.0941532165	-0.395318
C	-0.0928704667	 0.1317910963	 0.0042759012	-0.163983
C	 0.1415600761	-0.3593134256	-1.3582466468	 0.280593
N	 0.3160759228	-0.7472808071	-2.4325113918	-0.323467
C	 0.7465227928	-0.6352480489	 1.0317070383	 0.130414
C	 0.9071861091	-2.1662145144	 0.9163432163	-0.401032
C	 2.3755895549	-1.8382690255	 0.7445892349	 0.461405
N	 3.4244327184	-2.5038220756	 0.6086997981	-0.533501
O	 2.1799526378	-0.4639931048	 0.8115086469	-0.26328
H	 1.2192753169	 1.8629972874	-0.0965108467	 0.16074
H	-0.4408750625	 2.1907680792	-0.634549515	 0.142616
H	-0.0887356306	 2.008906157	 1.0951554463	 0.128102
H	-1.1466363279	-0.068546246	 0.2412482458	 0.13583
H	 0.4813710105	-0.2800158559	 2.0326971161	 0.10375
H	 0.6613214148	-2.7445433857	 1.8075001597	 0.142096
H	 0.4473003818	-2.6225446602	 0.0380450481	 0.160557
H	 4.2458723756	-1.9031352847	 0.5259691921	 0.234479
65.4851	84.2392	157.51	193.0133	214.0303	253.5286	367.7014	381.4085	479.2372	495.2105	575.0871	660.4897	684.0348	783.1658	858.7753	868.2758	933.4294	953.3202	997.5625	1006.8533	1023.0108	1067.2074	1088.7532	1137.7089	1163.8113	1218.8105	1245.1369	1284.1628	1321.0644	1340.0531	1388.5644	1413.0353	1464.8071	1492.0597	1502.14	1839.2561	2360.6806	3027.6635	3053.6991	3061.9541	3092.3663	3129.7339	3145.3026	3149.8941	3485.3441
CC(C#N)C1CC(=N)O1	C[C@@H](C#N)[C@H]1C[C]([NH])O1	
InChI=1S/C6H8N2O/c1-4(3-7)5-2-6(8)9-5/h4-5,8H,2H2,1H3	InChI=1S/C6H8N2O/c1-4(3-7)5-2-6(8)9-5/h4-5,8H,2H2,1H3/t4-,5+/m0/s1
