16
gdb 66003	2.87348	1.30843	1.17996	2.9256	64.49	-0.257	-0.004	0.253	1080.5644	0.124131	-475.006842	-474.998627	-474.997683	-475.039947	30.309	
N	-0.0946101703	 1.4544538267	 0.0886215054	-0.576037
C	-0.0121701816	 0.0236284555	 0.0132121188	 0.071988
C	 0.8994610597	-0.6930568215	-1.0356783599	-0.126451
O	 1.6501749664	-1.331603412	 0.0430060653	-0.242207
C	 0.9583870159	-0.6566155845	 1.017571494	 0.433486
O	 1.1394549103	-0.6763753143	 2.189731274	-0.315231
C	-1.4038820001	-0.5822955745	 0.1007735776	 0.069996
C	-2.469486347	 0.0363977925	 0.892077636	-0.17971
O	-2.4432579894	 0.1548786129	-0.54197966	-0.25102
H	 0.7961505697	 1.9044332131	-0.0826830266	 0.24097
H	-0.7823747084	 1.7948573517	-0.575752822	 0.251961
H	 0.4352760582	-1.4397873919	-1.6834513008	 0.1263
H	 1.5418817169	-0.0242191401	-1.6135347352	 0.118923
H	-1.4392152123	-1.6584896178	-0.0694046784	 0.105977
H	-3.2690996943	-0.5874142973	 1.2857572739	 0.125299
H	-2.2567020738	 0.9533939814	 1.4330188382	 0.145756
81.459	119.3467	149.8745	246.0813	273.8505	324.0598	348.6571	411.2783	446.2736	623.1677	695.5866	718.639	791.6351	816.3234	856.4405	882.1544	925.9629	952.536	971.7773	1045.4877	1075.0871	1102.5119	1120.3092	1155.5482	1162.2673	1175.1749	1261.3498	1295.9341	1315.2592	1349.9199	1438.1528	1514.7206	1516.154	1638.6435	1941.9868	3063.6408	3105.8693	3113.6113	3129.1861	3210.4867	3513.0098	3607.8083
NC1(COC1=O)C1CO1	N[C@]1(COC1=O)[C@H]1CO1	
InChI=1S/C5H7NO3/c6-5(3-1-8-3)2-9-4(5)7/h3H,1-2,6H2	InChI=1S/C5H7NO3/c6-5(3-1-8-3)2-9-4(5)7/h3H,1-2,6H2/t3-,5-/m1/s1
