17
gdb 102449	2.48076	1.09483	0.82748	0.9331	72.23	-0.2569	-0.0649	0.192	1356.0604	0.132818	-458.926521	-458.916462	-458.915518	-458.962286	35.485	
O	 0.0032966596	 1.363938194	 0.4275551631	-0.422244
C	-0.0360673987	-0.0169399702	 0.1653455422	-0.061817
C	-1.4812121204	-0.5386187172	-0.0663757928	-0.134959
C	-2.0446660924	-0.0970278033	-1.4170530327	-0.10084
O	-2.018689052	 1.331975426	-1.4597356265	-0.431571
C	-1.530444431	-2.0539213107	 0.0447357263	 0.213019
O	-1.7544019492	-2.7807741901	-0.9013868367	-0.298183
C	-1.280433699	-2.5971563341	 1.3703042322	 0.267997
C	-1.0850373915	-3.0397599147	 2.4725839691	-0.392112
H	-0.5169816551	 1.7850079671	-0.2706001294	 0.292231
H	 0.5754584145	-0.2916299193	-0.7115429276	 0.091136
H	 0.3989909076	-0.5166758109	 1.0365156576	 0.118659
H	-2.0896059267	-0.1194966993	 0.7455747456	 0.117511
H	-1.4359990682	-0.5284295528	-2.2219656128	 0.115028
H	-3.0688982686	-0.4722144509	-1.5415021793	 0.110957
H	-2.2310090304	 1.6147659829	-2.3536781206	 0.297374
H	-0.9122199486	-3.4439138166	 3.440808992	 0.217815
38.7245	94.4373	106.5363	152.3125	203.3252	235.9161	268.3974	277.517	347.4593	383.6719	409.0368	489.6368	570.7813	628.7052	651.1675	700.1894	716.4112	855.6736	895.4225	927.2863	1040.7214	1067.1913	1093.8442	1108.5692	1144.288	1215.8928	1242.4007	1279.0418	1289.1568	1357.2369	1382.4508	1458.367	1469.6657	1506.1549	1518.4751	1754.4487	2211.4699	2955.2543	3011.9955	3034.9448	3055.3798	3078.3178	3491.8849	3741.9336	3838.8573
OCC(CO)C(=O)C#C	OCC(CO)C(=O)C#C	
InChI=1S/C6H8O3/c1-2-6(9)5(3-7)4-8/h1,5,7-8H,3-4H2	InChI=1S/C6H8O3/c1-2-6(9)5(3-7)4-8/h1,5,7-8H,3-4H2
