17
gdb 52670	3.46001	0.8091	0.6781	3.0328	75.13	-0.2515	-0.0393	0.2122	1619.1764	0.131403	-458.93646	-458.925716	-458.924772	-458.975224	36.172	
C	-0.1027192167	 1.5040931687	 0.0365409294	-0.501006
C	-0.0563025156	 0.0499709053	 0.020374066	 0.105943
C	 0.0021000346	-1.152991042	 0.0206963855	 0.03127
C	 0.0136652729	-2.6095533331	-0.0264640371	-0.076089
O	-1.3019920121	-3.1617757865	-0.0819207161	-0.42705
C	 0.8460730945	-3.1265717541	-1.240207558	 0.040837
O	 2.1555126138	-2.6488375085	-1.1958311827	-0.427694
C	 0.8367333788	-4.6451520563	-1.2651155117	 0.126221
O	 1.8715540395	-5.2701583412	-1.2698799865	-0.263858
H	 0.9083360637	 1.9235557302	 0.0752431284	 0.160452
H	-0.5911293191	 1.8979654743	-0.8612266072	 0.151319
H	-0.6521417468	 1.8756886242	 0.9081460413	 0.153346
H	 0.4786346755	-3.0060787857	 0.884773394	 0.124829
H	-1.8618293381	-2.5237825216	-0.536444071	 0.290839
H	 0.3234415366	-2.7833647455	-2.1511974897	 0.092299
H	 2.7184757661	-3.4407646351	-1.2010960906	 0.296098
H	-0.1518366277	-5.1356088429	-1.274067304	 0.122243
6.793	54.1227	73.0734	125.0823	150.2925	215.0623	230.1395	293.2936	326.2695	334.094	375.2788	422.5196	477.7171	495.3556	577.0773	769.5352	774.1329	851.2018	985.0807	1027.492	1050.515	1054.4162	1070.4494	1162.3743	1182.4804	1235.4403	1263.2031	1296.5676	1346.9119	1381.4517	1403.5403	1413.6623	1442.4514	1475.4069	1476.8807	1803.911	2368.6668	2949.2488	2996.7309	3030.5005	3034.6788	3092.7547	3094.8648	3668.3175	3820.3041
CC#CC(O)C(O)C=O	CC#C[C@@H](O)[C@@H](O)C=O	
InChI=1S/C6H8O3/c1-2-3-5(8)6(9)4-7/h4-6,8-9H,1H3	InChI=1S/C6H8O3/c1-2-3-5(8)6(9)4-7/h4-6,8-9H,1H3/t5-,6+/m1/s1
