21
gdb 101335	3.15196	0.77327	0.7454	2.2339	75.51	-0.2619	0.0608	0.3227	1644.028	0.179796	-461.33343	-461.322761	-461.321817	-461.370243	37.896	
C	 0.0454790867	 1.478549119	 0.258078783	-0.386214
C	-0.1440100621	-0.0395068192	 0.2252478956	-0.193311
C	-1.4665905243	-0.46686993	-0.4209840707	 0.09564
O	-1.5895475183	-0.0116307664	-1.7659273895	-0.429297
C	-1.6324670045	-1.9751016767	-0.371088637	 0.037294
O	-1.9274489847	-2.5673424809	 0.8967887585	-0.274655
C	-2.8990662495	-2.6905748449	-0.1629876821	 0.032383
C	-4.2383219473	-2.0498054969	 0.0993535199	-0.087938
O	-4.9859628024	-2.8127199793	 1.0329757029	-0.419025
H	 1.0188518672	 1.7456328805	 0.6795266933	 0.11329
H	-0.0220096541	 1.9008391965	-0.7481730729	 0.125688
H	-0.7269307924	 1.9569975582	 0.8699950403	 0.118518
H	 0.6829763124	-0.511699543	-0.3267278093	 0.084512
H	-0.1105704282	-0.455406818	 1.2389727266	 0.119614
H	-2.2920445769	 0.0096881435	 0.1161557736	 0.093899
H	-0.8178230509	-0.3204416738	-2.2544372585	 0.280435
H	-0.859871682	-2.5095910738	-0.934277439	 0.081201
H	-2.9713900105	-3.7043750894	-0.561055893	 0.099234
H	-4.1140054896	-1.0133162585	 0.4389850008	 0.096505
H	-4.8256677004	-2.0316806388	-0.8248041993	 0.119929
H	-4.4530269282	-2.8723295781	 1.8339058969	 0.2923
36.3817	69.5005	92.6224	126.0386	171.3492	221.0558	247.6081	276.7966	281.4641	381.6944	410.1768	417.7962	492.3766	524.792	582.3984	778.4008	800.3249	856.3009	903.7842	949.3754	986.9601	1039.8509	1045.3211	1067.4984	1081.0521	1101.1134	1128.183	1162.2962	1173.3703	1228.92	1247.6589	1283.9654	1297.1507	1333.6363	1358.0819	1385.1143	1402.1523	1403.6536	1413.1462	1434.0221	1482.4035	1490.8807	1495.6998	1501.1844	1508.1265	2997.7749	3018.7874	3039.2647	3048.1532	3061.9652	3076.6859	3081.1659	3102.7161	3105.5268	3120.5335	3793.927	3803.0342
CCC(O)C1OC1CO	CC[C@@H](O)[C@H]1O[C@H]1CO	
InChI=1S/C6H12O3/c1-2-4(8)6-5(3-7)9-6/h4-8H,2-3H2,1H3	InChI=1S/C6H12O3/c1-2-4(8)6-5(3-7)9-6/h4-8H,2-3H2,1H3/t4-,5+,6-/m1/s1
