17
gdb 96948	4.20579	1.35416	1.21033	3.2356	74.64	-0.2257	0.0188	0.2445	1055.4242	0.137683	-417.953041	-417.94578	-417.944836	-417.985053	28.14	
C	 0.0924988925	 1.4094585826	 0.0538105059	-0.333131
N	 0.0688429626	-0.045090098	 0.0281705611	-0.350067
C	 0.5108337662	-0.6481033841	-0.9802249532	 0.531687
O	 1.0361067734	-0.0613545763	-2.1195152027	-0.256443
C	 1.1805600332	-1.0800200549	-3.0939118861	 0.095889
C	 1.9814193895	-2.3210773163	-2.7513769072	-0.061122
N	 2.130848317	-2.3820119089	-1.2851449783	-0.324687
C	 0.6271918244	-2.1377997698	-1.1814711815	-0.178747
C	 0.4555925385	-2.3313248345	-2.7157042199	-0.147282
H	 0.9337809894	 1.7490478861	 0.6701726224	 0.130027
H	 0.1874176671	 1.8700459857	-0.9363844309	 0.122221
H	-0.8228956858	 1.7699236941	 0.5332285205	 0.120567
H	 1.188314042	-0.6974140881	-4.1056926754	 0.116753
H	 2.6987967823	-2.7688134189	-3.4297398764	 0.101659
H	 2.2891183123	-3.3543797255	-1.0296587727	 0.228373
H	 0.0913572614	-2.7459885752	-0.4596912456	 0.100966
H	-0.3263757362	-2.8360117878	-3.2686782298	 0.103339
81.7462	115.0064	224.9349	267.1934	388.1331	441.5676	513.1804	662.1652	713.4241	726.1118	762.2725	799.0523	813.8598	840.8039	867.9907	920.4553	978.7217	1011.0506	1019.3107	1030.7565	1048.6201	1057.5312	1094.0888	1120.6786	1124.9754	1149.2744	1183.1158	1199.9302	1235.3035	1246.7492	1334.3176	1362.7748	1422.6548	1438.3614	1490.9038	1498.1673	1817.795	3016.5469	3076.5859	3094.3699	3175.4489	3178.8585	3190.3769	3215.5966	3484.8742
CN=C1OC2C3NC1C23	CN=C1O[C@H]2[C@H]3N[C@@H]1[C@@H]23	
InChI=1S/C6H8N2O/c1-7-6-4-2-3(8-4)5(2)9-6/h2-5,8H,1H3	InChI=1S/C6H8N2O/c1-7-6-4-2-3(8-4)5(2)9-6/h2-5,8H,1H3/t2-,3-,4+,5+/m0/s1
