21
gdb 92531	2.2507	1.78232	1.45488	2.4994	76.62	-0.2524	0.0708	0.3232	1025.5546	0.184682	-424.225878	-424.217844	-424.2169	-424.258021	32.27	
C	-0.7337933344	 1.3499555001	 0.159344876	-0.410929
C	-0.0294951217	-0.0006475633	 0.050321869	 0.00418
C	 0.8021233784	-0.2381705139	-1.2334518058	-0.078186
C	 1.8797669789	 0.8033734282	-1.5866581921	-0.097629
O	 2.9085243732	 0.0289378139	-0.9160096068	-0.312735
C	 2.0056111278	-1.1130012488	-0.7799511815	 0.11938
C	 1.7787379906	-1.4899667297	 0.6784406565	-0.270172
C	 0.9440404156	-0.3151709016	 1.2236956362	 0.119482
O	 1.7657532754	 0.7880907747	 1.5811303976	-0.447717
H	-0.0125748982	 2.1619464424	 0.2758443194	 0.132719
H	-1.3509056951	 1.551199311	-0.7226999909	 0.105537
H	-1.3888391904	 1.3726246987	 1.0363463902	 0.115869
H	-0.7929308976	-0.7912471646	 0.068294055	 0.071136
H	 0.1944160638	-0.5849482117	-2.0703454095	 0.073876
H	 2.0880264099	 0.8842438686	-2.6607253715	 0.10485
H	 1.7831016617	 1.8077524585	-1.1635570293	 0.114129
H	 2.3222350445	-1.9371483084	-1.4273102351	 0.073415
H	 1.2108418275	-2.4269202058	 0.7265203706	 0.101863
H	 2.7127696624	-1.6290953719	 1.2305120348	 0.114834
H	 0.3865541635	-0.5802348186	 2.1278028649	 0.074604
H	 2.4903673443	 0.8088776323	 0.9403692625	 0.291495
121.306	186.8862	207.4619	246.8834	256.9504	360.1164	406.1495	422.4814	518.1758	600.1429	622.659	735.1925	769.1069	823.4651	839.7018	888.3807	894.3636	919.4459	974.5919	981.4312	1002.4342	1024.5816	1030.0524	1038.2914	1102.3427	1134.7072	1141.2958	1171.5743	1198.1706	1218.8836	1239.0104	1266.6676	1290.6924	1321.6825	1337.5635	1355.2275	1359.0438	1368.5138	1377.4334	1410.8741	1459.3987	1468.2836	1490.0802	1503.8671	1526.9481	3002.7044	3022.7741	3037.4817	3038.3666	3055.1507	3062.8379	3082.0581	3098.1614	3099.2023	3099.7537	3126.821	3728.1977
CC1C2COC2CC1O	C[C@H]1[C@H]2CO[C@H]2C[C@H]1O	
InChI=1S/C7H12O2/c1-4-5-3-9-7(5)2-6(4)8/h4-8H,2-3H2,1H3	InChI=1S/C7H12O2/c1-4-5-3-9-7(5)2-6(4)8/h4-8H,2-3H2,1H3/t4-,5+,6+,7-/m0/s1
