15
gdb 19130	2.83844	2.0041	1.41377	4.4555	65.7	-0.2801	0.0268	0.3068	894.0629	0.11854	-362.637033	-362.629556	-362.628612	-362.669095	27.277	
N	-0.011168212	-1.1394752085	 0.1294371897	-0.354169
C	-0.0222977842	 0.016473576	 0.0905175649	 0.235283
C	-0.0449292602	 1.4568954836	 0.0585253368	 0.176653
C	 0.5586952504	 2.1926474891	 1.2507555047	-0.297297
C	 1.2968523681	 2.1742977795	-0.0494462751	-0.28964
C	-1.2303021205	 2.0816797589	-0.6237446865	 0.028367
O	-1.5796987963	 1.5861343303	-1.9088629409	-0.228505
C	-2.5049005087	 1.3857122396	-0.8324526963	-0.199085
H	 0.0587913757	 3.1059266378	 1.5543376197	 0.133773
H	 0.9308146699	 1.5869107008	 2.0676381509	 0.147813
H	 2.1828476141	 1.5570972416	-0.1323478496	 0.14884
H	 1.3089414472	 3.0729858844	-0.6559409835	 0.137927
H	-1.2422197944	 3.1701697672	-0.5383240821	 0.09515
H	-2.612464045	 0.354627907	-0.5027096887	 0.14274
H	-3.426050234	 1.9626412728	-0.894296194	 0.122151
73.094	140.2707	204.7161	235.0336	255.6847	383.4039	458.145	574.447	598.3476	670.1815	778.8669	849.9563	874.431	886.479	944.8551	971.493	988.6568	1026.4786	1074.9624	1093.399	1103.3534	1162.1825	1171.075	1195.6531	1268.5581	1284.1858	1344.5198	1434.8211	1467.7149	1496.1536	1527.4524	2354.1217	3088.0377	3095.3065	3144.4659	3148.5678	3187.1219	3231.5659	3245.1777
N#CC1(CC1)C1OC1	N#CC1(CC1)[C@H]1OC1	
InChI=1S/C6H7NO/c7-4-6(1-2-6)5-3-8-5/h5H,1-3H2	InChI=1S/C6H7NO/c7-4-6(1-2-6)5-3-8-5/h5H,1-3H2/t5-/m0/s1
