16
gdb 73879	2.16552	1.68867	0.96002	8.6275	77.41	-0.2189	-0.0428	0.1761	1162.3451	0.123754	-437.947618	-437.938788	-437.937844	-437.981623	31.556	
N	 0.0257903825	 1.3028916087	 0.0071297468	-0.57369
C	-0.0434637875	-0.0384184456	 0.0002413684	 0.317996
C	-1.1621707754	-0.8393191717	 0.001822107	 0.007284
C	-2.5326952493	-0.3459344094	 0.0115959649	 0.06271
O	-3.5427342657	-1.0109679506	 0.0129137779	-0.258515
C	-0.7535761333	-2.2590761378	-0.0077895802	 0.320889
O	-1.4548555776	-3.2409760302	-0.0101577369	-0.318946
C	 0.7913024128	-2.2999152268	-0.0162702213	-0.334301
C	 1.2445755652	-0.8333890498	-0.0110499801	-0.322981
H	 0.9162023837	 1.7690576946	 0.0049053529	 0.271938
H	-0.7992096096	 1.8779560729	 0.0145985709	 0.277505
H	-2.6138118963	 0.7734282877	 0.0176725646	 0.018757
H	 1.1396084679	-2.8559034061	 0.857904549	 0.135718
H	 1.1304120162	-2.8469229823	-0.8996693487	 0.135743
H	 1.839765528	-0.5650702148	-0.89203237	 0.129965
H	 1.8496812386	-0.5742614188	 0.8659138048	 0.129929
72.5144	96.9279	129.8594	185.5417	212.8493	254.1932	323.3091	454.5297	482.1653	520.6907	576.7457	600.7893	624.4411	665.4191	715.289	840.4927	931.5944	1008.0654	1018.3008	1021.9787	1050.8766	1155.5369	1160.8265	1240.4973	1264.4455	1267.4473	1315.9277	1430.8444	1458.8538	1473.8744	1480.7278	1615.2425	1674.6893	1774.349	1835.7501	2757.0519	3033.0606	3064.1889	3073.8114	3116.4475	3611.6991	3729.9723
NC1=C(C=O)C(=O)CC1	NC1=C(C=O)C(=O)CC1	
InChI=1S/C6H7NO2/c7-5-1-2-6(9)4(5)3-8/h3H,1-2,7H2	InChI=1S/C6H7NO2/c7-5-1-2-6(9)4(5)3-8/h3H,1-2,7H2
