21
gdb 120994	3.75832	0.87361	0.81428	2.9518	78.41	-0.2405	0.0728	0.3133	1475.1714	0.182636	-424.182214	-424.173225	-424.17228	-424.216805	33.225	
O	-0.2360480374	 1.4395393572	 0.1353347393	-0.419461
C	-0.0812647964	 0.0280619138	 0.125666744	-0.074065
C	-1.4566228723	-0.5935834032	-0.0811078604	-0.187379
C	-1.4242188589	-2.1152035246	-0.0918878308	 0.004284
C	-1.0913807791	-2.8897038322	 1.2301366237	-0.258585
C	-2.3826223849	-3.7403551885	 1.0636996239	-0.07904
C	-3.6231922668	-3.1222330937	 1.7221970213	-0.073347
O	-3.8330287031	-2.2329772963	 0.5988235011	-0.290425
C	-2.7777120409	-2.8645750782	-0.159633665	 0.09689
H	 0.6293938997	 1.8359487926	 0.2709305105	 0.283816
H	 0.5982151708	-0.2919259072	-0.6822532019	 0.079164
H	 0.3536654266	-0.3297466867	 1.0735548598	 0.08455
H	-2.1316608465	-0.2460157242	 0.7075182316	 0.117579
H	-1.8673282826	-0.2222420489	-1.0282808148	 0.104106
H	-0.7794943585	-2.4741183793	-0.9042584412	 0.067937
H	-0.1610804028	-3.4607633577	 1.1979967753	 0.101306
H	-1.0824218789	-2.2730098247	 2.1348069377	 0.099665
H	-2.2866533939	-4.8248507376	 1.0486783443	 0.075426
H	-4.4703087129	-3.8105009942	 1.8431141139	 0.098713
H	-3.4657344606	-2.5790302984	 2.6626942242	 0.099843
H	-3.1328617106	-3.225997048	-1.1294402063	 0.069023
62.6391	92.0006	102.6177	134.1055	259.3735	266.138	333.8355	362.5039	414.3999	535.446	682.7746	768.8431	789.0868	811.982	842.8496	913.413	914.4741	930.8271	984.5749	1001.1023	1013.8085	1031.5073	1060.8086	1084.0858	1101.7911	1138.9462	1148.6552	1183.6639	1186.7727	1218.0389	1227.2972	1240.382	1264.6049	1281.6011	1299.6165	1305.5797	1310.5154	1339.6067	1361.221	1379.9784	1461.5784	1479.8559	1495.7539	1522.3137	1527.0376	2953.9067	2978.3322	3002.9976	3021.6785	3037.0359	3047.2687	3049.9556	3061.0085	3089.9078	3104.9061	3123.964	3828.908
OCCC1CC2COC12	OCC[C@H]1C[C@H]2CO[C@@H]12	
InChI=1S/C7H12O2/c8-2-1-5-3-6-4-9-7(5)6/h5-8H,1-4H2	InChI=1S/C7H12O2/c8-2-1-5-3-6-4-9-7(5)6/h5-8H,1-4H2/t5-,6-,7-/m0/s1
