16
gdb 29759	4.74693	1.24412	1.13595	2.1936	76.07	-0.2009	0.0232	0.2242	1067.5312	0.125921	-400.705809	-400.69889	-400.697945	-400.736967	27.827	
O	-0.045284634	 1.2288909961	-0.2747957875	-0.420956
C	-0.0979666087	-0.1443449587	-0.059947881	 0.091212
C	-0.4776372384	-0.5993945749	 1.3401562516	-0.092259
C	-1.4954943265	-0.6715995597	 0.1976323976	-0.229337
C	-1.3815871266	-2.1727357527	 0.3377707466	 0.230093
C	-1.2413493393	-3.420934192	-0.223443901	-0.270758
C	-0.247759431	-4.0833565337	 0.570004424	-0.123939
C	 0.2445553637	-3.2038094903	 1.5182273003	-0.153608
N	-0.5178644525	-2.0658386452	 1.4122066014	 0.019705
H	 0.8354935193	 1.5396744767	-0.0386307692	 0.294612
H	 0.597278628	-0.7524938226	-0.6402074784	 0.113249
H	-0.4564564777	 0.0343624956	 2.2169157674	 0.11858
H	-2.371145408	-0.0574927165	 0.0413588708	 0.116738
H	-1.7719204687	-3.8367200748	-1.0657070857	 0.097747
H	 0.0381336827	-5.1219955219	 0.4815456662	 0.093636
H	 0.9705427577	-3.3495981554	 2.3023465268	 0.115284
116.0103	238.6598	292.3393	301.4435	331.907	483.528	503.9582	615.7514	704.9933	724.1449	765.9917	786.7079	814.2907	829.5231	848.3398	875.422	905.0813	955.7247	1009.6898	1032.7665	1058.2332	1089.3618	1112.3231	1127.1949	1165.1092	1195.4984	1243.0733	1248.4245	1269.8638	1279.2604	1380.6859	1420.7151	1431.3518	1463.1978	1576.8014	3097.6891	3204.4468	3220.7049	3229.8183	3255.1711	3263.6133	3804.1802
OC1C2C1C1=CC=CN21	O[C@H]1[C@H]2[C@@H]1c1cccn21	
InChI=1S/C7H7NO/c9-7-5-4-2-1-3-8(4)6(5)7/h1-3,5-7,9H	InChI=1S/C7H7NO/c9-7-5-4-2-1-3-8(4)6(5)7/h1-3,5-7,9H/t5-,6+,7+/m0/s1
