20
gdb 93604	2.78346	1.24383	0.90434	4.6926	89.11	-0.2476	-0.0318	0.2158	1307.8338	0.171289	-366.06628	-366.05703	-366.056086	-366.100165	34.349	
C	-0.0761574705	 1.5719406674	-0.030611992	-0.406172
C	 0.0412202783	 0.0448939761	 0.0321197178	-0.053761
C	 0.7812757946	-0.5747235597	-1.1800003439	-0.227186
C	 1.5143071925	-1.8199325175	-0.6342145977	-0.318946
C	 1.6163549108	-1.5100883197	 0.84821215	 0.100895
C	 2.4325977515	-2.2703101896	 1.7280114331	 0.194108
N	 3.1078052799	-2.900751992	 2.4287707458	-0.353792
C	 0.8161311927	-0.4948415552	 1.2229976161	 0.245571
C	 0.621629579	 0.0237946096	 2.6092836499	-0.517957
H	 0.9138126917	 2.0407702635	-0.0516859176	 0.120967
H	-0.6100365401	 1.8763265418	-0.9363246445	 0.122049
H	-0.6243019379	 1.9736208958	 0.8270929124	 0.119546
H	-0.9796705662	-0.3663899991	 0.0946107912	 0.089776
H	 0.109560204	-0.8062612566	-2.0102262347	 0.104899
H	 1.5179227354	 0.1478782226	-1.5489567994	 0.108622
H	 0.9368670938	-2.740669296	-0.7890942205	 0.120645
H	 2.49067089	-1.9803406925	-1.1009627102	 0.121851
H	 1.2125515241	-0.5364657991	 3.3371347972	 0.152479
H	 0.9016183561	 1.0815562295	 2.6773507114	 0.140484
H	-0.43518026	-0.0372251492	 2.8991674756	 0.13592
89.5098	131.5494	142.2034	175.1912	227.5003	263.3265	267.4084	351.6915	374.2092	483.3365	532.0222	564.7275	599.5295	633.5845	689.0871	823.309	890.2238	912.2957	966.861	996.5472	1012.8284	1057.2343	1073.0059	1107.7375	1126.4529	1178.342	1196.7551	1234.1472	1264.4405	1311.0464	1325.3767	1339.2304	1360.8125	1410.0645	1415.1134	1477.8204	1480.9446	1487.1879	1500.6653	1501.4226	1504.4998	1689.7361	2328.391	2968.6633	3024.2084	3024.8971	3032.8977	3044.7993	3073.6713	3080.1861	3100.8479	3104.5797	3107.2368	3127.6237
CC1CCC(C#N)=C1C	C[C@H]1CCC(=C1C)C#N	
InChI=1S/C8H11N/c1-6-3-4-8(5-9)7(6)2/h6H,3-4H2,1-2H3	InChI=1S/C8H11N/c1-6-3-4-8(5-9)7(6)2/h6H,3-4H2,1-2H3/t6-/m0/s1
