19
gdb 84514	2.90801	1.6664	1.39977	1.4606	79.67	-0.2174	0.0078	0.2252	992.8304	0.160644	-385.849076	-385.841542	-385.840598	-385.880593	30.764	
O	-0.0701048346	 1.4800031044	-0.0397546685	-0.43294
C	 0.0434323892	 0.05618817	 0.0067231137	-0.031655
C	 0.6698280389	-0.4478991054	 1.3156080537	-0.103105
C	-0.1283202492	-1.2761080189	 2.0022263216	-0.180469
C	-1.4298732549	-1.4493995341	 1.3045404801	 0.220927
C	-2.2923882471	-0.2251545158	 1.1201317881	-0.351088
C	-1.3260986367	-0.5971817203	 0.0337111873	 0.290735
C	-1.8478598166	-1.7733598851	-0.8120564613	-0.296658
C	-1.9664148358	-2.6441895921	 0.4865393644	-0.285753
H	 0.8174029898	 1.8491356557	 0.0169245761	 0.279514
H	 0.6198127119	-0.2942595612	-0.8656628322	 0.066862
H	 1.6429484073	-0.0984677549	 1.6520294764	 0.086187
H	 0.1225555083	-1.7275217671	 2.9574074916	 0.096745
H	-3.3580974171	-0.3442493462	 0.9386798067	 0.106167
H	-2.02495667	 0.6415337621	 1.7118720221	 0.130144
H	-2.7694732758	-1.5901524107	-1.3744328174	 0.097634
H	-1.0952245844	-2.1612899676	-1.5030021922	 0.10336
H	-1.2871658547	-3.4988763133	 0.4823561259	 0.105815
H	-2.9666978185	-2.9964304394	 0.7569877438	 0.097577
127.6672	212.77	247.7994	263.1096	323.9501	388.7334	427.1935	553.3443	582.8088	655.9058	688.3784	749.5005	768.5136	792.1732	831.4492	878.6529	927.3744	942.3234	947.8816	962.1852	971.5937	978.6954	1051.0632	1073.0285	1100.1316	1123.2108	1141.3492	1200.3051	1221.9974	1241.5182	1244.4006	1273.5015	1286.4296	1327.9046	1362.7337	1379.1622	1423.7299	1475.6022	1478.1031	1499.4632	1643.2715	2955.0932	3040.6832	3051.8707	3094.5841	3113.371	3116.7212	3154.7847	3182.519	3225.8118	3810.1535
OC1C=CC23CC12CC3	O[C@H]1C=C[C@@]23C[C@@]12CC3	
InChI=1S/C8H10O/c9-6-1-2-7-3-4-8(6,7)5-7/h1-2,6,9H,3-5H2	InChI=1S/C8H10O/c9-6-1-2-7-3-4-8(6,7)5-7/h1-2,6,9H,3-5H2/t6-,7+,8-/m0/s1
