19
gdb 57669	3.93982	0.89638	0.87188	4.1697	76.58	-0.2626	0.0129	0.2755	1364.0179	0.157113	-419.25569	-419.245451	-419.244507	-419.290891	36.689	
C	 0.0006944295	 1.5973196878	 0.0826300161	-0.414593
C	 0.0398928195	 0.0600438742	 0.0852110527	 0.267537
C	 0.7707678304	-0.4694643122	 1.3302854959	-0.414625
C	-1.4020534872	-0.5163631684	 0.0198205114	-0.390601
C	-2.2317469735	-0.1380899231	 1.1589232212	 0.285334
N	-2.8879431121	 0.1618430287	 2.0613354961	-0.311778
N	 0.6968667902	-0.4348311499	-1.1404800242	-0.314161
C	 1.9816706244	-0.1745841694	-1.5028333366	 0.161498
O	 2.7749696479	 0.5000033763	-0.8803019694	-0.326849
H	 1.0178428169	 1.9904065886	 0.0707748443	 0.162264
H	-0.527118581	 1.9700903132	-0.8009431718	 0.111505
H	-0.5129640714	 1.9658648413	 0.9747406401	 0.138594
H	 0.2682018667	-0.1289819871	 2.2396992723	 0.138648
H	 0.789304439	-1.5639596102	 1.3328415329	 0.111389
H	 1.7985710311	-0.104891571	 1.3350796161	 0.162162
H	-1.8963805992	-0.1686185067	-0.8957262817	 0.152568
H	-1.3591079956	-1.6116939118	-0.0248994137	 0.152367
H	 0.16374588	-1.0183428238	-1.7662976597	 0.245468
H	 2.2354521845	-0.6638019966	-2.4654381521	 0.083273
62.1967	86.3698	120.3634	186.8457	218.0147	235.4885	269.9229	288.1085	335.6161	387.3486	400.387	401.1664	404.9215	520.1581	551.99	736.4338	833.4363	881.5054	895.1109	950.9321	975.3409	1018.0982	1030.3898	1045.6762	1160.6976	1184.5169	1209.8109	1260.0961	1292.1422	1336.4848	1400.5194	1420.6519	1435.0986	1469.8368	1476.0959	1487.9427	1499.9551	1519.4925	1528.1604	1801.6415	2365.084	2925.5835	3028.7718	3044.4247	3048.6935	3071.2003	3115.222	3119.073	3151.0229	3154.4953	3621.8919
CC(C)(CC#N)NC=O	CC(C)(CC#N)NC=O	
InChI=1S/C6H10N2O/c1-6(2,3-4-7)8-5-9/h5H,3H2,1-2H3,(H,8,9)	InChI=1S/C6H10N2O/c1-6(2,3-4-7)8-5-9/h5H,3H2,1-2H3,(H,8,9)
