21
gdb 122690	3.71602	0.82542	0.76065	1.3472	75.49	-0.2483	0.0738	0.3221	1551.0998	0.182624	-461.350432	-461.34096	-461.340016	-461.386538	33.854	
O	-0.1430946908	 1.4294015579	-0.3088553608	-0.420558
C	 0.0059712365	 0.0369896343	-0.496917892	-0.057471
C	-1.2991830389	-0.7012073156	-0.2403149441	-0.082107
O	-2.2474644312	-0.1748965979	-1.1535868599	-0.278481
C	-3.591194529	-0.5853764695	-0.9361683455	 0.104199
C	-4.4888842296	 0.2839761899	-1.8211913628	-0.243658
C	-4.4286941986	-0.4713130242	-3.1503792821	-0.062506
O	-4.4254196252	-1.8501705676	-2.7914347805	-0.260092
C	-3.871958075	-2.0004177464	-1.4863756855	-0.078835
H	-0.9291679924	 1.6745086901	-0.8111104978	 0.286862
H	 0.3557427254	-0.1984870298	-1.5148333892	 0.094685
H	 0.7688154198	-0.3080911733	 0.2086567796	 0.108864
H	-1.1613297106	-1.7851139066	-0.3766627567	 0.09118
H	-1.63491394	-0.5237680304	 0.7938394029	 0.09667
H	-3.8299629445	-0.5060404869	 0.1331704606	 0.071906
H	-5.5099812176	 0.2842876349	-1.4277776875	 0.110306
H	-4.1276738505	 1.3125467678	-1.8751316546	 0.109264
H	-5.2902291213	-0.2927500743	-3.8000058726	 0.106596
H	-3.5132924935	-0.2103803397	-3.7018339476	 0.100648
H	-2.9490852451	-2.5925837471	-1.5324696838	 0.102795
H	-4.5917949279	-2.5399946356	-0.8570379602	 0.099734
34.4963	52.0695	86.3154	136.6462	182.3451	239.3591	302.2569	384.2559	441.6371	449.0162	534.5241	645.6881	751.6027	834.8009	865.5653	899.1097	910.0813	931.5127	932.0863	986.4238	1004.3841	1061.4153	1087.3266	1113.6463	1116.3082	1141.113	1158.1396	1190.3648	1225.0839	1242.6461	1255.0461	1265.5266	1297.1169	1324.0057	1356.8098	1370.6667	1386.585	1404.4038	1422.5323	1441.6799	1470.6856	1499.5954	1506.1159	1512.0973	1523.7163	2972.2636	2979.4004	2995.6877	3005.8947	3014.332	3020.1568	3047.3699	3063.1321	3079.9018	3086.6693	3126.8468	3794.1877
OCCOC1CCOC1	OCCO[C@H]1CCOC1	
InChI=1S/C6H12O3/c7-2-4-9-6-1-3-8-5-6/h6-7H,1-5H2	InChI=1S/C6H12O3/c7-2-4-9-6-1-3-8-5-6/h6-7H,1-5H2/t6-/m0/s1
