14
gdb 98967	5.15911	0.76234	0.70886	2.1205	61.39	-0.285	-0.1019	0.1831	1512.0429	0.097147	-510.982781	-510.973339	-510.972395	-511.018786	31.374	
O	 0.4047699012	 1.1606895475	-0.1980829492	-0.413871
C	 0.0122225048	-0.0946481151	 0.2716476416	-0.145231
C	-1.4214808061	-0.3950590467	-0.1066776479	 0.416995
O	-2.1545838437	 0.3859393057	-0.637247277	-0.314303
O	-1.7465983375	-1.6912854947	 0.2167857731	-0.260006
C	-3.0575153149	-2.110996818	 0.2613136014	 0.315582
N	-3.9808806528	-1.4355796729	 0.7812197581	-0.427557
C	-3.2047302912	-3.4983554759	-0.3261386394	 0.104347
O	-4.2618159166	-4.0703774699	-0.3198090082	-0.22558
H	-0.3981772009	 1.5995779878	-0.5124225808	 0.302016
H	 0.6586047683	-0.8836628311	-0.1361635298	 0.135693
H	 0.0804081313	-0.1687466172	 1.3698992155	 0.133915
H	-4.8467298547	-1.9803726208	 0.7216546526	 0.261837
H	-2.2809997072	-3.9347318987	-0.7530217001	 0.116162
37.0877	55.5191	93.3834	135.0707	171.7557	267.1505	274.8965	300.9217	377.1096	437.7399	519.4769	554.1231	690.2592	734.2698	880.4769	911.0677	948.431	1033.0543	1044.7941	1057.1301	1126.7682	1177.0459	1242.2626	1307.7098	1322.2449	1412.866	1456.6886	1490.6758	1725.0193	1828.8024	1864.1865	2956.8855	2979.621	3034.6496	3447.8584	3745.4948
OCC(=O)OC(=N)C=O	OCC(=O)O[C]([NH])C=O	
InChI=1S/C4H5NO4/c5-3(1-6)9-4(8)2-7/h1,5,7H,2H2	InChI=1S/C4H5NO4/c5-3(1-6)9-4(8)2-7/h1,5,7H,2H2
