13
gdb 133263	1.55437	1.05352	0.64199	4.5958	65.89	-0.2521	-0.0352	0.2168	1589.4533	0.081963	-494.087819	-494.076274	-494.07533	-494.12972	33.747	
C	 0.0223639471	 1.2296895854	-0.2760459355	-0.336897
N	-0.0377668237	-0.022472355	 0.4538800397	-0.26616
C	-0.3862140992	-1.1215781884	 0.1311895296	 0.483147
C	-0.7513264828	-2.3761170401	-0.1178122625	-0.499098
C	-2.134512362	-2.7746648129	 0.065176762	 0.421163
F	-2.284858994	-4.0852831242	-0.2354664114	-0.091119
O	-3.0690789683	-2.1224890232	 0.4193565789	-0.336278
N	-4.3886529399	 0.7984238369	 1.418363524	 0.012585
N	-3.4128708513	 1.0103062165	 0.9605431259	-0.012238
H	-0.7290709276	 1.9012519015	 0.1456286691	 0.174502
H	 1.0069531435	 1.6767981113	-0.122672107	 0.156739
H	-0.1651964951	 1.0975604362	-1.3457952608	 0.146527
H	-0.0192401366	-3.094530144	-0.4605287922	 0.147128
14.1841	44.1215	50.4329	51.9364	71.8501	85.6098	101.1109	110.7749	200.5067	238.6883	399.5563	496.7609	609.3987	666.2879	687.1025	768.9574	891.0036	960.6643	1131.2497	1139.4495	1144.817	1216.3719	1438.6733	1460.2139	1487.4483	1496.798	1856.5034	2197.5282	2433.9845	3042.7773	3126.3776	3135.7046	3220.5443	14.1862	44.1208	50.4322	51.9355	71.8491	85.6092	101.11	110.7739	200.5063	238.6877	399.5561	496.7606	609.3984	666.2878	687.102	768.9564	891.003	960.6637	1131.2492	1139.4493	1144.8174	1216.3712	1438.6736	1460.2139	1487.4488	1496.7984	1856.5033	2197.5272	2433.9845	3042.7772	3126.3776	3135.7046	3220.5443
CN=C1C=C(F)ON=N1	C[N][C][CH]C(=O)F.N#N	
InChI=1S/C4H4FN3O/c1-6-4-2-3(5)9-8-7-4/h2H,1H3	InChI=1S/C4H4FNO.N2/c1-6-3-2-4(5)7;1-2/h2H,1H3;
