23
gdb 90147	3.17348	1.39522	1.23788	0.4373	88.58	-0.2193	0.0827	0.3019	1147.5277	0.20813	-351.139919	-351.131827	-351.130883	-351.171878	33.515	
C	-0.118848127	 1.5855264328	 0.0475751517	-0.404307
C	 0.0660854335	 0.0748136706	-0.016739135	-0.027256
C	 1.1719563775	-0.5294931862	-0.9596225135	-0.32249
C	 1.7582027696	-1.2883395566	 0.2457634351	 0.292643
C	 2.1765143699	-0.3204299809	 1.3166380213	-0.385473
C	 0.7169706249	-0.663509189	 1.1757464275	 0.276485
C	 0.1335614085	-1.7524073001	 2.0531032101	-0.300178
C	 1.1538128795	-2.927025986	 1.9215089495	-0.215879
C	 1.8181267884	-2.7769551343	 0.5181413674	-0.297086
H	 0.8206995212	 2.0983124912	 0.2794799609	 0.112626
H	-0.4814927181	 1.9788008775	-0.9089066361	 0.109569
H	-0.8460380732	 1.8602365546	 0.8198954542	 0.112591
H	-0.8968908427	-0.3955980862	-0.2438090013	 0.068065
H	 0.7605133228	-1.184995971	-1.7313658957	 0.096611
H	 1.8444691423	 0.1887450736	-1.4422261947	 0.090135
H	 2.6887616213	-0.7294689504	 2.1806767229	 0.109974
H	 2.5325821861	 0.665482211	 1.0313512555	 0.104216
H	-0.0258831872	-1.4735546484	 3.1008775057	 0.093981
H	-0.8420668491	-2.0526774338	 1.6506712263	 0.094449
H	 1.9152991756	-2.8479628786	 2.7043833915	 0.104845
H	 0.6797854408	-3.9040507172	 2.0527014522	 0.09652
H	 1.2253989401	-3.3039492104	-0.23991713	 0.095197
H	 2.8227490052	-3.214662642	 0.4979998543	 0.094764
140.2704	204.1943	217.6815	234.8715	283.5621	323.2733	422.9301	444.3991	548.0229	590.0293	615.3328	688.491	742.853	815.54	829.0148	856.0136	867.5213	888.8508	913.2424	924.1521	955.1942	981.295	1001.8338	1046.5108	1063.1377	1073.8935	1085.9342	1101.8964	1167.0327	1183.1944	1219.014	1229.3259	1233.4408	1252.8144	1263.7034	1292.2604	1326.7096	1328.9758	1352.4177	1367.014	1388.2409	1412.3872	1477.1615	1490.1425	1492.0225	1493.7015	1496.2125	1497.9979	1516.1672	3023.5102	3024.9726	3025.2537	3035.2318	3037.911	3044.877	3060.6385	3064.1358	3089.8508	3093.5344	3094.307	3099.177	3120.1347	3205.291
CC1CC23CC12CCC3	C[C@H]1C[C@@]23C[C@@]12CCC3	
InChI=1S/C9H14/c1-7-5-8-3-2-4-9(7,8)6-8/h7H,2-6H2,1H3	InChI=1S/C9H14/c1-7-5-8-3-2-4-9(7,8)6-8/h7H,2-6H2,1H3/t7-,8-,9-/m0/s1
