18
gdb 15346	6.27068	0.89996	0.85862	4.6483	73.29	-0.2633	0.0375	0.3008	1353.9066	0.15381	-343.980117	-343.971348	-343.970403	-344.014324	31.026	
C	-0.0955346632	 1.5073609199	-0.4456989921	-0.379408
C	 0.0120456169	 0.1529018472	 0.264436718	-0.184977
C	-1.3269720026	-0.5469964593	 0.3453687275	-0.004663
N	-1.7832124614	-1.274525913	-0.8513728389	-0.326108
C	-1.5293728645	-2.0212240148	 0.3845718855	-0.024345
C	-0.3866284305	-3.0267889902	 0.3502646927	-0.342281
C	-0.8338824	-4.3394748733	-0.1170819734	 0.259503
N	-1.206773258	-5.3729222599	-0.4748376207	-0.305062
H	 0.877359054	 2.0045473775	-0.4982001516	 0.11618
H	-0.4668946791	 1.376071313	-1.466571408	 0.133063
H	-0.7847261577	 2.1774786143	 0.0802000629	 0.113593
H	 0.7284488801	-0.4789383813	-0.2696977624	 0.10349
H	 0.4030940445	 0.2922770822	 1.2806285957	 0.099983
H	-2.0830911961	 0.0247428526	 0.8853357291	 0.087029
H	-2.7792829423	-1.1559958009	-1.0095762865	 0.23908
H	-2.391589609	-2.3722954714	 0.9484757512	 0.103057
H	 0.4054446211	-2.6722168086	-0.3139724426	 0.160804
H	 0.0470466478	-3.1443011739	 1.3505208734	 0.151064
45.039	83.2876	107.2628	182.0744	224.4682	270.0185	360.2021	385.7633	448.1363	501.9682	571.8495	757.7988	815.6562	833.7908	879.5283	931.3635	960.1789	972.0224	998.1764	1045.6798	1057.7777	1108.2202	1153.6474	1197.0321	1245.9433	1266.1302	1274.1022	1304.6108	1317.1794	1345.6212	1407.9828	1421.4113	1451.8834	1476.6817	1483.9034	1498.6747	1509.0276	2363.0886	3027.8003	3035.0928	3047.8659	3074.0889	3095.6814	3105.4965	3107.9746	3115.7514	3128.8919	3519.0321
CCC1NC1CC#N	CC[C@H]1N[C@H]1CC#N	
InChI=1S/C6H10N2/c1-2-5-6(8-5)3-4-7/h5-6,8H,2-3H2,1H3	InChI=1S/C6H10N2/c1-2-5-6(8-5)3-4-7/h5-6,8H,2-3H2,1H3/t5-,6+/m1/s1
