19
gdb 63020	2.22095	1.77598	1.39842	2.8409	74.13	-0.2443	-0.0198	0.2244	1023.7922	0.157898	-423.048645	-423.040021	-423.039077	-423.081604	33.056	
C	 0.1800856176	 1.5427243741	-0.0558936181	-0.425583
C	 0.0137382096	 0.0186347506	-0.0316501947	 0.135756
C	-1.474359141	-0.379541739	 0.0348153082	-0.435264
C	 0.7049667172	-0.6815148379	-1.1880502732	 0.022056
O	 2.1280283007	-0.5138112654	-1.1893383057	-0.267247
C	 1.5926074788	-1.7532891507	-0.7037199324	 0.03276
C	 1.5561256949	-1.8149272085	 0.8029417878	-0.358031
C	 0.7304519886	-0.5811965669	 1.2067662469	 0.381657
O	 0.6288957707	-0.1496023723	 2.3244183833	-0.320485
H	 1.2282449494	 1.8118439807	-0.209732143	 0.135828
H	-0.4138994409	 1.9872477461	-0.8611134525	 0.109358
H	-0.1495057143	 1.9654589142	 0.8969642909	 0.136185
H	-2.011645022	 0.0062242084	-0.837991865	 0.121155
H	-1.6068013103	-1.4667641507	 0.0574266847	 0.116184
H	-1.9343047881	 0.0377628598	 0.9344879866	 0.141297
H	 0.2364834738	-0.7097773238	-2.1695788039	 0.095628
H	 1.8305149025	-2.6308772577	-1.2983772159	 0.102181
H	 1.0548207362	-2.7220461197	 1.1635152721	 0.131855
H	 2.5452127565	-1.7793231912	 1.2678347338	 0.144711
71.725	193.6949	202.849	222.1011	240.4478	291.7882	310.2651	358.6895	478.5705	494.001	583.0763	597.7174	682.2716	708.7171	825.3263	851.2458	879.6419	935.2936	954.6465	963.0624	996.24	1022.9629	1029.2923	1086.7176	1117.1531	1165.1345	1197.0342	1229.3941	1255.2565	1261.5461	1288.4846	1351.0536	1388.9074	1407.6384	1432.3362	1442.2154	1482.789	1488.4093	1501.1932	1511.1295	1847.1314	3030.7961	3039.8218	3042.9141	3096.513	3101.5511	3111.7522	3119.539	3127.5962	3135.3186	3156.2347
CC1(C)C2OC2CC1=O	CC1(C)[C@H]2O[C@H]2CC1=O	
InChI=1S/C7H10O2/c1-7(2)5(8)3-4-6(7)9-4/h4,6H,3H2,1-2H3	InChI=1S/C7H10O2/c1-7(2)5(8)3-4-6(7)9-4/h4,6H,3H2,1-2H3/t4-,6-/m0/s1
