18
gdb 77134	2.64892	1.22902	0.93447	4.5595	73.47	-0.2483	-0.0281	0.2202	1270.1505	0.145189	-439.132488	-439.122756	-439.121812	-439.168013	34.126	
C	-0.0331886708	 1.61079742	-0.0193773991	-0.414837
C	 0.0142927951	 0.0908239451	 0.0070993851	-0.157532
C	 0.7068329069	-0.6648704841	-1.1888563281	-0.077208
N	 1.7106835966	-1.1324338407	-0.2392875324	-0.320493
C	 1.1178145793	-0.5730545832	 0.873475333	 0.4309
O	 1.3785026811	-0.6047513592	 2.0438066135	-0.351479
C	-0.1272943367	-1.7582555782	-1.8409040246	 0.367502
C	-1.1318735434	-1.2975996639	-2.878940128	-0.484776
O	 0.0225047863	-2.9201972483	-1.5426387676	-0.296231
H	 0.9406854966	 2.0318995914	-0.2886596254	 0.129846
H	-0.7747453963	 1.9778399407	-0.736264171	 0.120728
H	-0.3024279772	 1.9921375686	 0.9700344418	 0.145609
H	-0.9655422783	-0.332559418	 0.2505981565	 0.112497
H	 1.1021461692	 0.0140356029	-1.9554036344	 0.095006
H	 2.2892825441	-1.9580194492	-0.3049393774	 0.259376
H	-1.7357139024	-0.4645156635	-2.503478704	 0.142149
H	-0.6019398253	-0.9312504342	-3.7662183037	 0.148067
H	-1.7766867147	-2.1290609561	-3.1648868542	 0.150878
49.502	71.7713	98.6474	140.5973	211.6961	219.2018	238.8183	328.091	355.7438	421.1585	508.3253	578.5091	605.4895	690.0685	740.5966	809.1782	845.232	921.2724	945.7169	1007.3118	1061.7537	1070.0051	1099.1216	1117.2227	1173.5327	1202.5931	1208.0988	1257.7646	1337.3747	1355.4038	1378.6524	1388.7455	1409.7876	1462.2082	1474.2199	1494.3907	1495.2742	1813.6305	1900.6105	3023.493	3036.336	3037.9624	3064.4342	3097.4762	3105.3859	3115.1365	3155.4055	3607.7351
CC1C(NC1=O)C(C)=O	C[C@H]1[C@@H](NC1=O)C(=O)C	
InChI=1S/C6H9NO2/c1-3-5(4(2)8)7-6(3)9/h3,5H,1-2H3,(H,7,9)	InChI=1S/C6H9NO2/c1-3-5(4(2)8)7-6(3)9/h3,5H,1-2H3,(H,7,9)/t3-,5+/m0/s1
