17
gdb 110081	2.02778	1.34611	1.01471	3.9775	76.79	-0.2419	-0.0232	0.2187	1232.4508	0.132378	-421.770375	-421.760816	-421.759872	-421.805141	33.992	
C	 0.0889457002	 1.1274209982	 0.5171189295	-0.242655
O	-0.1298166755	 0.0888113547	-0.4273902613	-0.232994
C	-1.3294556142	-0.56806971	-0.2397271309	 0.106487
C	-1.430919351	-1.9636079008	-0.7927408725	-0.192714
C	-0.2538162624	-2.5934060103	-1.4531453532	 0.174921
O	-0.3587822528	-3.3401945625	-2.395097686	-0.27005
C	-1.4125711111	-1.7227211456	 0.7396533714	-0.279744
C	-0.279234718	-2.0998200784	 1.5308811142	 0.341556
C	 0.6494192053	-2.4129641248	 2.2283900546	-0.444935
H	 1.044648535	 1.588094701	 0.2610164953	 0.137125
H	-0.7034658953	 1.8876537273	 0.4587779346	 0.11157
H	 0.1350940383	 0.7329922794	 1.5390167499	 0.13076
H	-2.217560015	 0.0615700114	-0.3214170566	 0.104554
H	-2.3814472622	-2.2645874477	-1.2182869683	 0.118829
H	 0.7296854119	-2.331674479	-1.0205047012	 0.104724
H	-2.3754928332	-1.8723984093	 1.2198451686	 0.128959
H	 1.4731204002	-2.6969469638	 2.835505972	 0.203606
73.5913	101.7933	124.4586	147.2723	181.2035	211.0746	282.8581	321.2041	380.4485	442.4172	504.1522	591.7417	623.0727	660.2718	669.0082	783.6467	797.3792	897.5815	957.7589	1007.8929	1054.4565	1073.7462	1123.05	1130.2347	1164.7625	1183.7173	1212.5032	1263.3609	1325.2467	1360.3242	1403.0426	1439.2544	1485.2974	1489.3303	1505.5464	1813.8693	2235.4892	2963.4157	2998.2272	3068.9911	3084.5211	3135.2461	3146.6522	3185.4881	3502.6485
COC1C(C=O)C1C#C	CO[C@H]1[C@@H](C=O)[C@H]1C#C	
InChI=1S/C7H8O2/c1-3-5-6(4-8)7(5)9-2/h1,4-7H,2H3	InChI=1S/C7H8O2/c1-3-5-6(4-8)7(5)9-2/h1,4-7H,2H3/t5-,6+,7-/m1/s1
