23
gdb 68920	2.24307	1.69981	1.20159	1.333	85.33	-0.2414	0.0847	0.3261	1149.2107	0.206576	-388.293827	-388.284835	-388.28389	-388.326789	35.666	
C	 0.0175030257	 1.5426105892	-0.1233532592	-0.472237
C	 0.0120307581	 0.030218354	 0.0049105292	 0.311451
C	 1.3222218911	-0.7074999092	-0.195383246	-0.361733
C	 0.7030898485	-0.6558773606	 1.1798452109	 0.27003
C	 1.3742284106	 0.1305031766	 2.2880099782	-0.472216
C	 0.0767687599	-1.9477197401	 1.6881646824	-0.140457
O	-0.6974760284	-2.6215852825	 0.7171738637	-0.241184
C	-1.7600407875	-1.7992149128	 0.2663269393	-0.078645
C	-1.252294684	-0.6236017359	-0.5726677054	-0.285968
H	 0.965633185	 1.987514076	 0.1881592158	 0.112951
H	-0.1492446925	 1.831835672	-1.1681210408	 0.116402
H	-0.7807668861	 1.9995598445	 0.4739728848	 0.112148
H	 1.29095684	-1.6542563424	-0.7259141112	 0.114673
H	 2.214746379	-0.1155237921	-0.3756256652	 0.097684
H	 1.8999699335	 1.011608144	 1.9146333045	 0.118165
H	 0.6484743354	 0.4663719966	 3.0385576605	 0.114398
H	 2.1145131383	-0.4936350916	 2.8040236709	 0.116508
H	 0.8602197674	-2.6494667029	 1.9974678687	 0.103771
H	-0.5458836396	-1.7284504675	 2.5750286291	 0.079496
H	-2.427826128	-2.4404247833	-0.3164005324	 0.103199
H	-2.326671861	-1.4255337069	 1.1362513204	 0.083479
H	-2.0529521776	 0.1225806228	-0.6418062888	 0.093553
H	-1.051487458	-0.9586455177	-1.5974531192	 0.104533
116.3479	165.1706	174.4116	205.5343	285.9162	315.192	349.5737	361.5688	410.6318	420.5986	471.1408	522.6474	601.3747	655.6912	733.7855	855.1491	868.1412	915.9976	927.9623	944.1076	957.3841	996.9828	1029.5979	1038.0751	1066.8694	1073.6062	1121.8916	1144.4064	1152.0842	1185.9514	1212.4858	1266.9119	1271.5428	1298.189	1324.8433	1365.2359	1387.037	1404.4727	1410.6539	1421.2229	1428.1173	1478.9048	1485.7884	1489.5535	1493.4441	1494.3081	1501.3344	1503.55	1513.8963	2935.1128	2959.1328	3018.4203	3021.4456	3025.2959	3052.8622	3060.3505	3073.1054	3075.2172	3082.9656	3107.6698	3116.9197	3123.5404	3205.1884
CC12CC1(C)COCC2	C[C@@]12C[C@]1(C)COCC2	
InChI=1S/C8H14O/c1-7-3-4-9-6-8(7,2)5-7/h3-6H2,1-2H3	InChI=1S/C8H14O/c1-7-3-4-9-6-8(7,2)5-7/h3-6H2,1-2H3/t7-,8-/m1/s1
