20
gdb 75548	2.40978	1.69014	1.11447	2.2516	82.25	-0.2256	0.016	0.2416	1128.9968	0.172169	-403.129216	-403.120912	-403.119967	-403.161857	32.469	
C	-0.0661130091	 1.519307843	 0.0247534158	-0.514314
C	 0.0076611899	 0.0149814073	 0.0048816334	 0.259995
C	-0.0297348644	-0.6828775464	-1.1349894856	-0.181796
C	 0.0541692863	-2.1827914416	-1.1924278544	-0.127098
O	 0.4260208451	-2.7748676498	 0.0362962396	-0.246056
C	-0.2661404234	-2.2050271619	 1.1312678881	-0.148388
C	 0.0909605962	-0.7384939063	 1.2941282532	 0.244224
C	 1.0537924116	-0.3258452855	 2.3563864696	-0.275788
N	-0.3918658196	-0.1613923535	 2.5640273365	-0.363525
H	 0.7697286319	 1.9667932483	 0.5764630124	 0.128465
H	-0.0402067721	 1.9192472705	-0.9916409148	 0.129439
H	-0.990391815	 1.8783631826	 0.4952631806	 0.129906
H	-0.1286744786	-0.1718497306	-2.0900044673	 0.085751
H	-0.9116396466	-2.5945304066	-1.543131014	 0.096769
H	 0.8104229993	-2.49482778	-1.9229260375	 0.116689
H	-1.3568515544	-2.2972752841	 0.9978275568	 0.091094
H	 0.0155340031	-2.7751798928	 2.0196404249	 0.110954
H	 1.524957833	-1.0891209162	 2.9704812274	 0.121571
H	 1.6636534287	 0.5578456939	 2.1891587201	 0.111624
H	-0.6534027521	 0.8129445999	 2.4394081453	 0.230484
84.0188	172.6523	222.4379	270.1349	282.8743	291.7744	368.9159	385.12	448.2309	508.4093	593.5365	658.6089	732.1158	808.6867	834.8278	894.6533	919.041	934.5938	982.8452	991.5908	1027.6144	1042.4264	1057.1725	1064.2352	1073.2142	1124.2266	1158.2773	1186.3863	1237.565	1261.6012	1286.9216	1309.7607	1353.5676	1377.2259	1401.6714	1410.6617	1423.8231	1480.5382	1486.242	1492.4813	1496.1182	1515.9017	1725.902	2922.3021	2971.1058	3017.4658	3045.9684	3064.6305	3099.853	3105.7367	3115.7008	3152.4615	3190.0874	3509.4322
CC1=CCOCC11CN1	CC1=CCOC[C@]21CN2	
InChI=1S/C7H11NO/c1-6-2-3-9-5-7(6)4-8-7/h2,8H,3-5H2,1H3	InChI=1S/C7H11NO/c1-6-2-3-9-5-7(6)4-8-7/h2,8H,3-5H2,1H3/t7-/m0/s1
