15
gdb 30228	3.6984	1.30329	1.01274	3.1265	69.1	-0.2042	0.0234	0.2277	1110.3813	0.11379	-453.929674	-453.921906	-453.920962	-453.962149	28.945	
O	 0.2472592746	 1.418918517	 0.2233298592	-0.41718
C	 0.105793196	 0.0467990794	-0.0050611779	 0.016519
C	-1.3538441531	-0.5893131657	 0.1096867673	-0.209139
N	-1.198914112	-0.9838821365	-1.3073912167	-0.046273
C	 0.0683597138	-0.4898831842	-1.4319833212	 0.279141
N	 0.6822455877	-0.8713116961	-2.5218997883	-0.349404
C	-0.2672700612	-1.6694415261	-3.1478925965	-0.22987
C	-1.4212469572	-1.7863844862	-2.3851402668	 0.29809
O	-2.5933985528	-2.4419757038	-2.5398132099	-0.430241
H	-0.1596040536	 1.8887808356	-0.5132889696	 0.288709
H	 0.8238871235	-0.4497863098	 0.6528273104	 0.120355
H	-1.4429828135	-1.4364268676	 0.7940750127	 0.136414
H	-2.1574992112	 0.1301406127	 0.2823776911	 0.129805
H	-0.0834949807	-2.1055827736	-4.1190097714	 0.101287
H	-2.5634851303	-2.9289846453	-3.3696615722	 0.311787
90.586	119.6448	241.1696	253.5945	292.322	351.5386	379.4784	462.2993	570.1522	646.5758	659.5501	698.801	762.5164	777.6606	786.1761	866.5992	977.3836	1038.2433	1103.3571	1135.0549	1152.0907	1166.0442	1207.0665	1239.4499	1269.9407	1284.0351	1302.578	1368.5081	1428.092	1486.8846	1518.0483	1567.2639	1591.3507	3065.1107	3085.4643	3128.4753	3235.4013	3802.8591	3836.579
OC1CN2C1=NC=C2O	O[C@H]1Cn2c1ncc2O	
InChI=1S/C5H6N2O2/c8-3-2-7-4(9)1-6-5(3)7/h1,3,8-9H,2H2	InChI=1S/C5H6N2O2/c8-3-2-7-4(9)1-6-5(3)7/h1,3,8-9H,2H2/t3-/m0/s1
