16
gdb 45669	3.18876	1.73687	1.14026	1.2205	79.64	-0.2061	-0.0074	0.1987	1020.1611	0.127361	-396.966604	-396.959664	-396.958719	-396.997993	27.188	
N	-0.1063256218	 1.308288469	 0.0097874979	-0.54673
C	-0.0116514646	 0.0408186705	 0.002643027	 0.320159
C	 1.1785426045	-0.945463323	-0.0077549204	-0.277286
N	 0.6204918608	-2.3116420357	-0.0129576668	-0.350908
C	-0.643365737	-2.1446304514	-0.0065344327	 0.414476
C	-1.8635696981	-3.037303186	-0.0064398785	-0.400317
C	-2.9917886363	-2.0141832834	 0.0036055122	-0.145934
C	-2.4917640125	-0.7709717966	 0.008524087	-0.017882
N	-1.0944522965	-0.8216016052	 0.0027998813	-0.06794
H	 0.8183161159	 1.7367688364	 0.0080311631	 0.221881
H	 1.808293953	-0.7867739453	-0.8908666829	 0.140196
H	 1.8156173564	-0.7964780438	 0.8717917794	 0.140203
H	-1.880682026	-3.6880800169	-0.8884620734	 0.149956
H	-1.873673006	-3.6974387116	 0.8687212982	 0.149951
H	-4.0400786185	-2.2705574869	 0.0063638354	 0.11547
H	-2.9899681334	 0.1864238498	 0.0158042632	 0.154704
123.9381	148.0956	248.9361	291.7145	444.4072	513.7142	536.21	622.5865	645.456	661.5213	714.2409	748.3836	827.2144	873.3881	923.8824	940.037	956.1049	972.1813	983.3701	1020.2714	1051.5782	1152.7551	1162.4213	1186.8176	1227.384	1262.4962	1275.8398	1300.2372	1376.0325	1441.509	1451.0184	1461.311	1646.5004	1728.6024	1745.9385	3040.4902	3041.8273	3069.4855	3073.5127	3249.018	3271.516	3492.9261
N=C1CN=C2CC=CN12	[NH][C]1CN=C2CC=CN12	
InChI=1S/C6H7N3/c7-5-4-8-6-2-1-3-9(5)6/h1,3,7H,2,4H2	InChI=1S/C6H7N3/c7-5-4-8-6-2-1-3-9(5)6/h1,3,7H,2,4H2
