20
gdb 54146	2.39354	1.42385	1.11914	2.7056	76.57	-0.2368	0.0269	0.2637	1175.3548	0.168624	-440.317125	-440.307033	-440.306089	-440.351287	38.446	
C	-0.0196547195	 1.5190310273	 0.1576736959	-0.43626
C	-0.0393963937	 0.0050625833	 0.0387119543	 0.298907
C	-1.3304646572	-0.5448993301	-0.5388594862	-0.467757
C	 1.2605218885	-0.6890498986	-0.2864359405	-0.377837
C	 0.7141608868	-0.7741487709	 1.1222958288	 0.228018
O	 1.306792568	 0.0088312011	 2.1339301766	-0.46895
C	 0.1938434127	-2.1122382893	 1.5968337894	 0.346915
N	 0.1529663788	-2.2317404661	 2.9531247081	-0.533271
O	-0.1381547382	-3.0076841459	 0.8375038867	-0.378991
H	 0.907700781	 1.884066515	 0.6002482623	 0.122994
H	-0.1353829429	 1.9691194968	-0.8347197435	 0.113941
H	-0.8495775356	 1.8717488185	 0.7802050524	 0.115882
H	-1.4770644044	-0.1496619043	-1.5506834551	 0.110088
H	-1.321769513	-1.6334825955	-0.5860672878	 0.159457
H	-2.1907844192	-0.2312919457	 0.0640325978	 0.109175
H	 1.222976621	-1.6080977906	-0.8605575303	 0.138461
H	 2.1454788791	-0.0757734837	-0.4251883697	 0.106283
H	 2.2134503201	-0.297484005	 2.2488859507	 0.288622
H	 0.3212271704	-1.4235796031	 3.5276131056	 0.264865
H	-0.2806041427	-3.0519372731	 3.3425193143	 0.259457
82.1075	138.7836	180.9236	198.5994	224.9314	259.4331	294.731	309.3872	370.3805	376.617	389.5639	441.1604	477.1252	483.2592	568.9492	622.0165	682.6003	698.1517	796.4511	879.3229	921.0609	924.8183	976.9202	997.8167	1041.7446	1064.9443	1093.4182	1150.1558	1155.4056	1193.7637	1291.4097	1312.2931	1363.8234	1384.3252	1407.6883	1421.1141	1463.4847	1484.3269	1491.7063	1508.0274	1513.843	1589.2922	1777.5283	3027.2157	3034.0066	3081.0893	3088.8412	3127.0168	3141.1616	3153.847	3226.4278	3600.6654	3741.2966	3792.5045
CC1(C)CC1(O)C(N)=O	CC1(C)C[C@]1(O)C(=O)N	
InChI=1S/C6H11NO2/c1-5(2)3-6(5,9)4(7)8/h9H,3H2,1-2H3,(H2,7,8)	InChI=1S/C6H11NO2/c1-5(2)3-6(5,9)4(7)8/h9H,3H2,1-2H3,(H2,7,8)/t6-/m0/s1
