21
gdb 108319	3.04846	1.20213	1.01672	3.0868	78.21	-0.2388	0.0577	0.2965	1254.2984	0.181598	-424.188053	-424.178844	-424.1779	-424.222148	34.588	
C	 0.0891103572	 1.6107577796	-0.0491202396	-0.380771
C	 0.0768060567	 0.0764228017	-0.0570556844	-0.300542
C	 0.6402532849	-0.5216397436	 1.2142318688	 0.32492
C	 2.1514922146	-0.4345184683	 1.4963407405	-0.115863
O	 2.2011922825	-1.8180167193	 1.9100341479	-0.284367
C	 0.8429313074	-2.0485778069	 1.4980231992	 0.028689
C	-0.1799922551	-1.9783597865	 2.6454568775	 0.146901
O	 0.2299661499	-2.5903456551	 3.8374685907	-0.427669
C	-0.1944536393	-0.4193380689	 2.532614633	-0.349918
H	 1.1084432501	 1.9991988403	 0.0513685768	 0.120579
H	-0.3295546789	 2.0136494787	-0.9760783711	 0.115829
H	-0.5000404993	 2.0075578924	 0.7844260103	 0.120495
H	-0.9514289463	-0.2796657822	-0.203409163	 0.095577
H	 0.654058788	-0.291193126	-0.9154638882	 0.099812
H	 2.7680467224	-0.2648939917	 0.6012567038	 0.091004
H	 2.4752424703	 0.2505061384	 2.2896556792	 0.099941
H	 0.7626204481	-2.8604733554	 0.7683000328	 0.067325
H	-1.1378658887	-2.3869190206	 2.2847118885	 0.063736
H	-0.4759376272	-2.4949310274	 4.4845424459	 0.28444
H	 0.3326284453	 0.0776654424	 3.351270372	 0.104855
H	-1.1871722724	 0.0258451082	 2.4249248195	 0.095024
65.6618	100.8282	158.3361	215.8638	222.4071	240.8987	319.7198	326.3969	383.2214	415.0014	565.162	633.3019	650.9863	788.8092	805.3882	867.7882	891.7343	927.7108	957.6068	979.2329	992.5067	1015.181	1041.0409	1062.4614	1091.7992	1116.6126	1152.412	1179.5044	1194.0944	1207.3037	1219.8638	1241.7998	1281.4814	1315.1345	1328.9441	1332.9221	1363.1214	1383.9878	1411.1863	1431.25	1474.8927	1486.6755	1499.894	1507.0838	1523.5956	2964.7025	2987.0335	3014.4511	3033.987	3044.3957	3047.7811	3052.9422	3059.0761	3100.5649	3107.5821	3110.7719	3818.1101
CCC12COC1C(O)C2	CC[C@]12CO[C@H]1[C@@H](O)C2	
InChI=1S/C7H12O2/c1-2-7-3-5(8)6(7)9-4-7/h5-6,8H,2-4H2,1H3	InChI=1S/C7H12O2/c1-2-7-3-5(8)6(7)9-4-7/h5-6,8H,2-4H2,1H3/t5-,6-,7-/m0/s1
