17
gdb 83389	2.81293	1.7696	1.59339	1.7363	67.37	-0.2349	0.0458	0.2808	903.544	0.136633	-458.859647	-458.85261	-458.851666	-458.890706	28.529	
O	-0.1213573411	 1.4860878271	 0.0032253628	-0.439441
C	-0.0326007241	 0.0874436657	 0.0098339956	 0.098264
C	 0.1068992306	-0.6595336553	 1.3596719698	-0.218709
C	-1.1391596031	-0.0160494862	 2.0786481235	-0.087409
O	-2.1631083823	 0.0143559409	 1.015222232	-0.346097
C	-1.4159160086	-0.6630666462	 0.0379706042	 0.38335
C	-1.640797646	-1.588486051	-1.1508685452	-0.187834
O	-0.4955193034	-2.3703888742	-0.6538426591	-0.309619
C	-0.6870015215	-1.8190997891	 0.6964869359	 0.085851
H	 0.7533977952	 1.8418144966	-0.1769239586	 0.288658
H	 0.6322871408	-0.2996528837	-0.7626906734	 0.098587
H	 1.0195382766	-0.7301154369	 1.9547201902	 0.072124
H	-1.514013135	-0.6099128418	 2.9184255057	 0.108932
H	-0.9302281535	 1.0067158398	 2.3956633938	 0.128797
H	-2.563810062	-2.1787308165	-1.1151895949	 0.118908
H	-1.4661315283	-1.1989298486	-2.1576962467	 0.118209
H	-1.1922222442	-2.5389532206	 1.3442409145	 0.08743
168.2925	244.4487	262.4434	304.9295	325.8271	386.2296	463.872	558.9322	625.5398	729.1136	754.8892	806.1179	834.7819	864.2152	889.3501	915.9027	926.9422	959.6443	997.1309	1006.2459	1072.3219	1105.53	1132.9502	1150.4685	1169.8136	1173.078	1196.8263	1225.3916	1246.6279	1275.5558	1295.444	1323.6329	1328.7477	1368.2039	1438.5777	1497.3563	1510.2474	3033.5333	3052.3772	3083.0891	3097.4811	3100.9901	3107.1938	3127.9818	3836.7121
OC1C2COC11COC21	O[C@H]1[C@H]2CO[C@]31CO[C@@H]23	
InChI=1S/C6H8O3/c7-4-3-1-9-6(4)2-8-5(3)6/h3-5,7H,1-2H2	InChI=1S/C6H8O3/c7-4-3-1-9-6(4)2-8-5(3)6/h3-5,7H,1-2H2/t3-,4+,5+,6+/m1/s1
