12
gdb 132647	3.23709	1.38711	0.97143	2.3484	61.92	-0.2297	-0.0453	0.1844	1055.157	0.077642	-518.115497	-518.108486	-518.107542	-518.146948	26.83	
N	-0.0520868714	 1.3712872546	-0.1228567877	-0.568026
C	-0.0290712507	 0.0088697864	-0.0495306551	 0.271549
N	-1.1728016156	-0.6713057061	-0.0301426429	-0.362245
C	-1.0806284601	-1.9886880814	-0.0101133762	 0.298455
F	-2.2281868864	-2.6555172441	 0.0071271213	-0.066292
C	 0.1152111979	-2.6861432562	-0.000212005	-0.179439
N	 1.2703051149	-1.9977129276	-0.0077672831	-0.270782
C	 1.1921803073	-0.7049203097	-0.0326125142	 0.282795
F	 2.3235313805	 0.0112311183	-0.0328442859	-0.081202
H	 0.7894414697	 1.8657977661	 0.1211952493	 0.271705
H	-0.9286377401	 1.8182976851	 0.0931365214	 0.270672
H	 0.152785734	-3.7679875254	 0.0182731181	 0.13281
134.6002	240.5486	291.4441	362.8486	389.1529	409.924	452.128	497.23	509.7533	546.414	610.6821	687.8309	734.4175	793.3722	802.6352	869.0992	1008.7546	1126.5458	1229.1303	1269.5812	1319.21	1367.4009	1493.2028	1512.9351	1603.7989	1620.624	1660.895	3209.5586	3600.8564	3726.3226
NC1=NC(F)=CN=C1F	Nc1nc(F)cnc1F	
InChI=1S/C4H3F2N3/c5-2-1-8-3(6)4(7)9-2/h1H,(H2,7,9)	InChI=1S/C4H3F2N3/c5-2-1-8-3(6)4(7)9-2/h1H,(H2,7,9)
