19
gdb 62221	6.10239	0.54643	0.51921	2.0737	79.73	-0.2615	-0.0408	0.2207	2034.8736	0.15552	-423.003631	-422.993288	-422.992344	-423.040104	36.5	
O	-0.0017688209	 1.478987972	-0.0068326062	-0.431536
C	 0.0176514349	 0.0781124985	 0.0211616609	 0.042812
C	 0.6655658409	-0.5036414633	-1.2489439027	-0.210801
C	-0.0864716865	-0.0902222605	-2.5166930455	-0.173053
C	 0.5954354488	-0.6135008206	-3.7965444108	-0.359256
C	-0.1197330531	-0.2432844453	-5.0116384464	 0.291303
C	-0.7294670839	 0.0732437455	-5.9978762245	-0.432695
C	 0.742942498	-0.4134349099	 1.2567498812	 0.13726
O	 1.2250269089	 0.3494889333	 2.0587514899	-0.259394
H	 0.4649672331	 1.7634643699	 0.7949647259	 0.295248
H	-1.0140334932	-0.3173930734	 0.0890634417	 0.093666
H	 1.704150755	-0.1519792728	-1.2978972822	 0.110918
H	 0.6964395629	-1.5988254519	-1.1677942969	 0.096304
H	-1.1152376325	-0.4675665592	-2.4784229799	 0.108959
H	-0.1517931005	 1.0004906731	-2.556682545	 0.139226
H	 1.622709756	-0.2286185572	-3.8456524088	 0.131856
H	 0.684958709	-1.707091378	-3.7457426709	 0.126633
H	-1.2592436579	 0.3496854633	-6.8753688352	 0.194477
H	 0.811136811	-1.5135652733	 1.3831583353	 0.098075
45.1223	71.7052	84.7524	117.3355	146.0656	223.8853	280.7663	319.9637	348.1473	365.1376	418.1039	503.0166	529.2546	617.3663	637.4878	740.6615	752.1688	837.6261	842.4127	951.8924	968.8854	984.3836	1037.9516	1069.1234	1110.8922	1155.3287	1196.0218	1238.8952	1280.5387	1296.4339	1324.8186	1340.766	1364.376	1387.3696	1404.3703	1438.2916	1472.4118	1474.7492	1503.724	1813.508	2239.9376	2919.6123	2936.0046	3011.2377	3014.1834	3037.6774	3046.2666	3058.8818	3107.4724	3507.5186	3690.8778
OC(CCCC#C)C=O	O[C@@H](CCCC#C)C=O	
InChI=1S/C7H10O2/c1-2-3-4-5-7(9)6-8/h1,6-7,9H,3-5H2	InChI=1S/C7H10O2/c1-2-3-4-5-7(9)6-8/h1,6-7,9H,3-5H2/t7-/m0/s1
