17
gdb 36389	2.19188	1.29383	1.03185	4.0083	77.81	-0.2484	0.0217	0.2701	1208.0392	0.134481	-380.810872	-380.801748	-380.800804	-380.845373	33.131	
C	-0.7886048198	 0.0047628108	-0.8996282288	-0.454533
C	-0.0390569146	 0.4079105639	-0.0489281425	 0.291647
C	 0.9052182179	 0.8804824294	 0.9684700425	-0.295309
N	 1.7911390393	 2.0030189933	 0.6242416415	-0.083307
C	 1.9671600735	 2.4338256037	-0.7559731701	-0.266925
C	 1.2805380677	 3.3118333129	 0.2352208463	 0.022602
C	-0.2051325717	 3.6241421288	 0.0869363656	-0.378573
C	-0.8533261865	 3.8525728541	 1.3799102864	 0.264609
N	-1.3509620943	 4.0237956372	 2.4088289953	-0.310305
H	-1.4597852151	-0.3619369128	-1.6371873168	 0.207897
H	 0.3617903356	 1.1544871988	 1.8800422994	 0.163176
H	 1.5580435963	 0.0419747542	 1.2397290198	 0.150218
H	 2.989659557	 2.6365867132	-1.063152678	 0.122899
H	 1.3403556442	 1.9709271084	-1.5159851539	 0.126835
H	 1.8411274257	 4.1305956689	 0.6830065232	 0.11269
H	-0.3211812035	 4.5282359476	-0.5223854081	 0.155853
H	-0.7290419117	 2.8151244575	-0.4284399819	 0.170528
46.4063	86.4333	142.9768	169.4076	228.6335	316.5047	334.0086	391.1996	396.1253	439.5993	548.9263	595.216	620.8111	670.871	758.8538	790.0803	885.0175	926.722	955.499	969.2558	1000.0939	1069.0248	1089.3978	1132.6839	1141.6099	1167.787	1246.7578	1286.2988	1315.1436	1333.8492	1367.7883	1420.7184	1460.1795	1472.7361	1509.5344	2222.127	2360.1145	3032.5913	3047.8251	3069.2652	3098.6524	3104.288	3124.3789	3185.3701	3499.3808
C#CCN1CC1CC#N	C#CCN1C[C@H]1CC#N	
InChI=1S/C7H8N2/c1-2-5-9-6-7(9)3-4-8/h1,7H,3,5-6H2	InChI=1S/C7H8N2/c1-2-5-9-6-7(9)3-4-8/h1,7H,3,5-6H2/t7-,9?/m1/s1
