15
gdb 129398	2.69753	1.56127	1.00698	4.8289	70.14	-0.228	-0.0359	0.1921	1103.7822	0.115107	-450.11957	-450.111651	-450.110707	-450.152173	30.174	
N	 1.1658943967	-0.6807902407	-0.1679437907	-0.54976
C	-0.0121252073	 0.0290847638	 0.0600980506	 0.256676
N	 0.0335391948	 1.2529780516	 0.4132637204	-0.50813
C	-1.246579423	-0.7854746787	-0.0766221344	 0.319512
N	-2.411632047	-0.1833865385	-0.2008090019	-0.204018
O	-3.3528728075	-1.1725679273	-0.2821655701	-0.163223
C	-2.7435083027	-2.3771502019	-0.1990363553	 0.011167
C	-1.3975965396	-2.2128473373	-0.0701164885	 0.038108
N	-0.3767736377	-3.1648921041	-0.0198676672	-0.6224
H	 1.9694764987	-0.0663752219	-0.2038463452	 0.258255
H	 1.136868762	-1.3434674573	-0.9318278332	 0.263386
H	-0.9051761571	 1.5920632472	 0.6196491949	 0.237974
H	-3.3884655025	-3.2394907307	-0.2474700432	 0.14599
H	-0.697228208	-4.0851375978	 0.2495967967	 0.251608
H	 0.3980287401	-2.8692902564	 0.5615043772	 0.264853
65.7845	182.8927	210.0897	248.6358	331.328	355.2333	399.209	498.0155	538.0909	608.3492	622.9692	642.3688	695.8713	717.0651	761.0993	794.5426	805.3592	886.3831	933.7366	998.9999	1098.5151	1129.4569	1141.8659	1167.145	1229.2707	1312.6639	1410.3856	1443.6069	1511.1536	1626.0899	1642.2121	1670.503	1724.0892	3273.0373	3502.1567	3532.5357	3537.1006	3632.1302	3646.2507
NC(=N)C1=NOC=C1N	NC(=N)c1nocc1N	
InChI=1S/C4H6N4O/c5-2-1-9-8-3(2)4(6)7/h1H,5H2,(H3,6,7)	InChI=1S/C4H6N4O/c5-2-1-9-8-3(2)4(6)7/h1H,5H2,(H3,6,7)
