23
gdb 105082	2.43651	1.1498	1.06702	0.4775	85.42	-0.2376	0.074	0.3117	1322.6216	0.205515	-384.420974	-384.410986	-384.410042	-384.45665	37.468	
C	-3.9407895796	 0.8994618403	-0.2909743201	-0.410139
C	-2.804891567	-0.11783007	-0.1551292583	-0.237064
C	-1.8716076739	-0.2690992335	-1.352433706	 0.301241
C	-2.2866831213	 0.154885502	-2.7196254039	-0.267394
N	-1.2805438716	 0.9331706658	-1.9766186261	-0.358773
C	-0.8505353662	-1.3876876969	-1.2380725237	-0.080803
N	-1.0828389093	-2.4606017249	-0.2556905929	-0.349383
C	-1.0792579834	-2.7924103419	-1.687467969	 0.015732
C	-2.3789262477	-3.2800114078	-2.2808038085	-0.394775
H	-4.4818961926	 0.9832705288	 0.6560892705	 0.119433
H	-3.5818894465	 1.9048781002	-0.5411464497	 0.109284
H	-4.6647745311	 0.6032215812	-1.0561773194	 0.121408
H	-2.1850271013	 0.1400815091	 0.7141989361	 0.101624
H	-3.2195046526	-1.1024966063	 0.078719485	 0.125684
H	-1.9001386476	-0.378702894	-3.5840529466	 0.110809
H	-3.2743842257	 0.5831309077	-2.8619055634	 0.107008
H	-1.7110425793	 1.7735248499	-1.5978212791	 0.225118
H	 0.1668851381	-1.0166057565	-1.3424503886	 0.092614
H	-0.2108564899	-2.7330549471	 0.1879740998	 0.230313
H	-0.1959070758	-3.3065241969	-2.0661510841	 0.079127
H	-3.2270740317	-2.7030958939	-1.9051692008	 0.126522
H	-2.3638099489	-3.1941592553	-3.3727049209	 0.114271
H	-2.5474974052	-4.3322807999	-2.0278137303	 0.118144
26.8574	67.4747	148.6904	183.1989	211.4123	239.6335	295.9864	322.7193	367.8557	382.3199	423.8451	497.6672	566.6739	683.3498	772.8043	787.9812	830.9519	867.4976	893.5963	917.1958	955.6188	981.0282	990.8399	1017.4434	1028.3608	1038.9036	1081.0296	1085.9657	1125.6504	1133.1236	1157.9641	1197.4097	1246.5044	1261.1882	1269.3716	1292.0121	1309.1967	1343.1047	1379.8341	1401.332	1414.3859	1427.1652	1460.6874	1484.8134	1488.0481	1497.294	1500.0405	1502.1787	1516.3957	3023.0501	3029.6782	3035.9604	3078.2277	3095.8615	3098.3324	3099.161	3107.2246	3112.3052	3126.6664	3130.7862	3194.4165	3492.342	3511.8646
CCC1(CN1)C1NC1C	CC[C@]1(CN1)[C@H]1N[C@H]1C	
InChI=1S/C7H14N2/c1-3-7(4-8-7)6-5(2)9-6/h5-6,8-9H,3-4H2,1-2H3	InChI=1S/C7H14N2/c1-3-7(4-8-7)6-5(2)9-6/h5-6,8-9H,3-4H2,1-2H3/t5-,6-,7-/m0/s1
