22
gdb 57493	3.36437	1.01145	0.9518	2.192	85.86	-0.2429	0.028	0.2709	1385.4975	0.192194	-404.355294	-404.345309	-404.344365	-404.389947	37.447	
C	-0.2033961302	 1.5387507028	 0.0369756283	-0.403523
C	 0.0048821262	 0.0117583115	 0.0464507507	 0.263118
C	 0.8040096991	-0.4155274225	 1.2930405278	-0.403526
C	-1.3603268673	-0.6942988837	 0.0428638352	-0.386341
N	 0.6976732831	-0.4216593269	-1.1835109916	-0.347296
C	 1.8399660654	-0.034953165	-1.4978017328	 0.462736
C	 2.7705819157	-0.3055325356	-2.6651133899	-0.368451
C	 3.718842723	 0.6584388488	-1.9254631417	-0.078643
O	 2.7329983293	 0.8320390612	-0.8647990503	-0.267154
H	 0.752662206	 2.0666954565	 0.0591481154	 0.128515
H	-0.7468064284	 1.8433155491	-0.863061277	 0.110646
H	-0.7902964242	 1.8476005256	 0.9083870404	 0.105735
H	 0.2486447217	-0.1677442186	 2.2037371934	 0.10573
H	 0.9748559387	-1.4966597667	 1.2836587706	 0.110642
H	 1.7729018423	 0.0875254331	 1.3311490937	 0.128525
H	-1.9326655046	-0.415753532	-0.8469148677	 0.110846
H	-1.2292181641	-1.7803528047	 0.0301340597	 0.110846
H	-1.9427242811	-0.4243134497	 0.9300505468	 0.099866
H	 3.1081345746	-1.3398502438	-2.7495828718	 0.1371
H	 2.3995577319	 0.0351952425	-3.6331727953	 0.137099
H	 4.6426933049	 0.2253122584	-1.5339849594	 0.121765
H	 3.929987648	 1.6084019997	-2.4227960145	 0.121765
61.9893	121.3402	144.4532	179.3283	212.8753	269.5789	276.5468	300.6024	344.7642	346.6298	411.3112	439.5944	521.8724	601.8097	730.8805	787.247	791.6497	896.7636	922.8572	926.565	938.2624	957.9511	964.8509	1026.2314	1050.9971	1056.4667	1060.8187	1106.4283	1159.2177	1200.3591	1233.1746	1240.1852	1245.1538	1267.7001	1345.5259	1394.2851	1396.5242	1426.9805	1468.3038	1473.1693	1486.1859	1489.5294	1501.7344	1502.0852	1521.3077	1523.468	1843.4397	3032.4692	3034.3531	3041.0086	3061.8605	3087.1887	3100.6657	3101.4776	3110.4601	3111.9922	3114.0131	3126.171	3129.8617	3142.7023
CC(C)(C)N=C1CCO1	CC(C)(C)N=C1CCO1	
InChI=1S/C7H13NO/c1-7(2,3)8-6-4-5-9-6/h4-5H2,1-3H3	InChI=1S/C7H13NO/c1-7(2,3)8-6-4-5-9-6/h4-5H2,1-3H3
