17
gdb 132358	1.88919	1.73648	0.91504	3.2184	79.09	-0.2464	-0.022	0.2244	1240.4712	0.135186	-426.059415	-426.050787	-426.049843	-426.094015	31.15	
C	-0.089623383	 1.5295859714	-0.0082228941	-0.493086
C	-0.0178230706	 0.0249313293	-0.0169353738	 0.347096
C	 0.0218651601	-0.6932989857	-1.2056739448	-0.372614
C	 0.0877231117	-2.0814835592	-1.1132181747	 0.343822
F	 0.126260303	-2.7808108549	-2.2472830263	-0.077039
N	 0.115922718	-2.7776650799	-0.0055689165	-0.378605
C	 0.077836969	-2.0901782917	 1.152548322	 0.334898
C	 0.1114585668	-2.9144259782	 2.4112440333	-0.465385
C	 0.0114274813	-0.7018991535	 1.1809998651	-0.253907
H	 0.7694926196	 1.9592910089	 0.5182648709	 0.140806
H	-0.1053788856	 1.9368357778	-1.021830289	 0.130469
H	-0.9894637126	 1.8754223134	 0.511954447	 0.14078
H	 0.0032306145	-0.2109417905	-2.1753103178	 0.108517
H	 1.0206632067	-3.5233884263	 2.442083494	 0.142778
H	 0.0774327297	-2.288520776	 3.3058623477	 0.118243
H	-0.7357587774	-3.6073494864	 2.4340161091	 0.142779
H	-0.017705211	-0.1825800485	 2.133111138	 0.09045
26.1881	82.6011	183.1914	212.6106	243.5159	272.8317	313.0408	505.531	514.8355	555.3075	561.8764	596.6709	634.3491	759.0508	862.7803	890.0773	959.6328	972.9498	1005.6446	1036.982	1059.8108	1061.1926	1068.5677	1169.6143	1235.594	1309.1688	1376.6015	1409.3462	1414.7937	1440.496	1473.7502	1475.1313	1483.0454	1493.2818	1503.0998	1616.9202	1649.9911	3036.4408	3041.7381	3092.3043	3101.5167	3123.2083	3128.212	3181.8324	3204.5915
CC1=CC(F)=NC(C)=C1	Cc1cc(F)nc(C)c1	
InChI=1S/C7H8FN/c1-5-3-6(2)9-7(8)4-5/h3-4H,1-2H3	InChI=1S/C7H8FN/c1-5-3-6(2)9-7(8)4-5/h3-4H,1-2H3
