19
gdb 111715	2.23154	1.4642	1.08849	0.3849	84.05	-0.2245	0.0358	0.2603	1187.6489	0.157663	-385.817987	-385.808922	-385.807977	-385.851727	34.033	
C	 0.0166913921	 0.9936180388	 0.4436908724	-0.238764
O	-0.2214461623	 0.0063767923	-0.5435431868	-0.233588
C	-1.399720471	-0.6954216184	-0.3307342704	 0.074842
C	-1.5777747743	-2.0375922857	-0.9326422605	-0.174969
C	-0.2574560967	-2.813552381	-0.9429507204	-0.220811
C	-0.135978586	-2.640530253	 0.6007767892	-0.289252
C	-1.4737469969	-1.8727765131	 0.6279270988	 0.135852
C	-2.4733831704	-1.9872231425	 1.6311418228	 0.182548
C	-3.3138060433	-2.0877996113	 2.488616205	-0.411566
H	 0.9623068969	 1.4782895785	 0.1914611848	 0.129019
H	-0.7817141153	 1.7503006247	 0.4549115074	 0.111271
H	 0.0900362017	 0.5522804627	 1.4470432769	 0.119127
H	-2.2964629188	-0.0733894576	-0.3111694895	 0.092804
H	-2.4569421093	-2.2816335574	-1.5173469861	 0.100607
H	-0.3909805123	-3.8573915706	-1.2317374753	 0.105532
H	 0.5375814478	-2.3714899339	-1.5471236931	 0.115644
H	-0.2016325192	-3.5886311981	 1.135938969	 0.115366
H	 0.7300718598	-2.0826095982	 0.9653897135	 0.104305
H	-4.0545536125	-2.1769348564	 3.2436159125	 0.182033
94.3038	110.7894	153.3666	182.1064	187.4224	249.7805	309.5544	463.0972	492.694	510.0057	535.5582	555.8919	609.4865	646.551	776.0323	794.0901	807.6858	882.9205	955.2072	956.9304	1003.9034	1043.2236	1053.3842	1097.3787	1127.7552	1150.6699	1182.0839	1213.1864	1221.1316	1237.7997	1247.0191	1269.2138	1299.386	1334.8384	1434.0787	1474.2848	1484.4247	1486.5763	1501.7952	1510.8821	2224.1856	2989.8414	3044.409	3066.9497	3074.8639	3094.4989	3117.767	3123.8035	3135.3059	3183.892	3503.8452
COC1C2CCC12C#C	CO[C@H]1[C@H]2CC[C@@]12C#C	
InChI=1S/C8H10O/c1-3-8-5-4-6(8)7(8)9-2/h1,6-7H,4-5H2,2H3	InChI=1S/C8H10O/c1-3-8-5-4-6(8)7(8)9-2/h1,6-7H,4-5H2,2H3/t6-,7+,8-/m1/s1
