14
gdb 24017	4.36106	1.24683	1.04005	2.5445	72.75	-0.2381	-0.0108	0.2273	1083.5661	0.103468	-395.735938	-395.728939	-395.727994	-395.768075	25.785	
N	-0.8470695574	-1.1881462755	-0.160101101	-0.304948
C	-0.450609417	-0.1062692764	-0.0790087058	 0.301201
C	 0.028722476	 1.2691340859	 0.0248423098	-0.13249
C	-0.1590817138	 2.0053478686	 1.4257807861	-0.383506
C	 1.3519385946	 2.1425642784	 1.3747786201	 0.378354
N	 2.4564134648	 2.7130898851	 1.7734806893	-0.357249
C	 3.3642737437	 2.3172967552	 0.7955236023	-0.080596
C	 2.7864671254	 1.5507984804	-0.1969875547	-0.171738
N	 1.482073245	 1.4256387876	 0.2347943567	 0.020672
H	-0.3475189667	 1.854472951	-0.818866452	 0.156149
H	-0.7343689965	 2.9304381901	 1.3578366669	 0.150996
H	-0.5683627272	 1.370156086	 2.2131647028	 0.157216
H	 4.4040001745	 2.5997361796	 0.8683080648	 0.119563
H	 3.1868839445	 1.0700981739	-1.0723673552	 0.146378
57.8452	139.0141	198.8345	276.8488	423.3564	499.6326	565.6676	615.8303	693.0387	722.3329	742.9434	763.2605	847.7785	863.3751	945.0505	992.2495	1027.7838	1066.1758	1109.1003	1120.4338	1141.4393	1191.5464	1233.439	1267.8474	1338.569	1396.0574	1413.6772	1470.4605	1486.738	1593.2729	2365.0895	3078.7844	3084.2956	3140.7758	3249.8622	3294.6593
N#CC1CC2=NC=CN12	N#C[C@H]1Cc2nccn12	
InChI=1S/C6H5N3/c7-4-5-3-6-8-1-2-9(5)6/h1-2,5H,3H2	InChI=1S/C6H5N3/c7-4-5-3-6-8-1-2-9(5)6/h1-2,5H,3H2/t5-/m1/s1
