18
gdb 34533	3.9201	1.16468	0.98716	1.9349	88.46	-0.2174	-0.0203	0.1971	1205.8005	0.149213	-364.774949	-364.767132	-364.766187	-364.807047	31.189	
C	 0.0297859053	-1.219525052	 0.0868266293	-0.413477
C	-0.0310460096	-0.0162644034	 0.0391850194	 0.218755
C	-0.0409732298	 1.4030851742	-0.0232964342	 0.121789
C	-1.1871066507	 2.1056322632	 0.0406110042	-0.105176
C	-1.1957023126	 3.5829933666	-0.0101076725	-0.077046
N	-0.2859094742	 4.2992806323	 0.9364372162	-0.335011
C	 0.0282387042	 4.2839330665	-0.4952676672	-0.02163
C	 1.2023370702	 3.4324723657	-0.9264483608	-0.221293
C	 1.2987466264	 2.1129861956	-0.1357551738	-0.307791
H	 0.0655501468	-2.27943803	 0.1339905903	 0.189984
H	-2.1371744599	 1.5882693811	 0.1236214797	 0.095049
H	-2.1577000087	 4.0478356418	-0.2047680836	 0.083225
H	-0.7055329872	 5.1899313369	 1.1920115325	 0.231246
H	-0.1198390273	 5.2025522405	-1.0599562024	 0.083421
H	 1.0846166024	 3.2135167354	-1.9954013238	 0.105704
H	 2.1386940944	 3.9911058519	-0.8169653484	 0.103868
H	 1.6681536293	 2.3230680502	 0.8735059622	 0.139396
H	 2.0283769709	 1.4496386934	-0.608203057	 0.108987
104.1407	153.3332	205.7556	287.4479	352.1405	403.0906	462.9091	528.5929	547.2688	582.3531	620.4385	632.2691	662.1865	760.5927	768.7441	834.3155	860.9991	913.8167	925.8785	973.5217	990.3751	1022.7806	1059.3622	1114.6454	1141.0953	1169.1649	1190.5985	1216.767	1248.4672	1283.6768	1326.3274	1355.4239	1386.055	1404.5899	1451.8342	1477.9015	1487.4472	1677.7657	2215.0996	3026.9235	3050.3887	3068.3399	3095.1439	3122.2318	3149.1372	3185.0945	3496.3141	3504.3754
C#CC1=CC2NC2CC1	C#CC1=C[C@H]2N[C@H]2CC1	
InChI=1S/C8H9N/c1-2-6-3-4-7-8(5-6)9-7/h1,5,7-9H,3-4H2	InChI=1S/C8H9N/c1-2-6-3-4-7-8(5-6)9-7/h1,5,7-9H,3-4H2/t7-,8+/m0/s1
