17
gdb 116592	4.60285	0.85972	0.7344	2.7735	73.61	-0.2618	-0.008	0.2538	1508.9832	0.136266	-455.209025	-455.20025	-455.199306	-455.243973	31.087	
C	 0.0209636083	 1.601804359	 0.3855184858	-0.373603
C	-0.1460955281	 0.3823605926	-0.5159455577	-0.141198
N	-1.5383278923	-0.0582603187	-0.5336009127	-0.323106
C	-1.8415990051	-1.0607282618	-1.2367814362	 0.401106
C	-3.2341352224	-1.6497824179	-1.3692448089	-0.171082
O	-3.0892880345	-2.7643853214	-2.2608110161	-0.237225
C	-1.7948177658	-2.8905110877	-2.6573678169	 0.503736
O	-1.389173821	-3.7336756014	-3.4001892462	-0.374704
N	-1.0631488657	-1.8767793079	-2.0464843523	-0.432852
H	 1.0629958585	 1.9356792013	 0.4019514027	 0.10955
H	-0.603343146	 2.4268656728	 0.0311051699	 0.126104
H	-0.2848735775	 1.3650408747	 1.4085011827	 0.126107
H	 0.1897815901	 0.6296084694	-1.5363571708	 0.098645
H	 0.5079221596	-0.4308351564	-0.1607742737	 0.098615
H	-3.6194341507	-2.0006804884	-0.4080499651	 0.153923
H	-3.9393260166	-0.9316698509	-1.7965195961	 0.153894
H	-0.0740500709	-1.7879633673	-2.2046775585	 0.282088
24.8343	109.8179	127.1496	166.6872	198.4878	277.4722	334.0121	416.779	497.5229	548.9155	601.0735	690.5611	721.6839	770.7926	799.2402	892.5993	926.4473	955.2004	1024.0858	1062.324	1088.7631	1119.2141	1137.0051	1170.0674	1200.5917	1306.5979	1327.3761	1355.1222	1387.9034	1391.655	1413.9837	1481.5668	1487.33	1499.3846	1504.0668	1799.0396	1911.7015	2958.8978	2989.1302	3043.1929	3064.5227	3110.5371	3116.5719	3121.1099	3682.6801
CCN=C1COC(=O)N1	CCN=C1COC(=O)N1	
InChI=1S/C5H8N2O2/c1-2-6-4-3-9-5(8)7-4/h2-3H2,1H3,(H,6,7,8)	InChI=1S/C5H8N2O2/c1-2-6-4-3-9-5(8)7-4/h2-3H2,1H3,(H,6,7,8)
