21
gdb 102055	2.1795	1.31782	1.03428	2.6671	75.6	-0.235	-0.0214	0.2135	1268.0246	0.177061	-461.362133	-461.350895	-461.349951	-461.398274	39.97	
C	-0.1806522061	 1.3684948435	 0.0080082784	-0.242501
O	 0.110103453	-0.0142935662	-0.0946359304	-0.242412
C	 0.6299377809	-0.5979432208	 1.0673501372	 0.033828
C	-0.4091135797	-0.768494826	 2.1763456813	 0.136592
O	-1.5618261399	-0.4323086933	 2.0772275806	-0.25658
C	 1.2636047009	-1.9613962689	 0.6770424973	 0.311786
C	 0.2007938148	-2.9159238682	 0.1195959559	-0.421291
C	 2.3947978443	-1.7419622741	-0.3327396548	-0.420081
O	 1.793075488	-2.4536420444	 1.9136123058	-0.475205
H	 0.7098688483	 1.9386541091	 0.3146903212	 0.101726
H	-0.4830363606	 1.699488592	-0.9881364106	 0.128018
H	-0.9942952387	 1.5605797149	 0.7142259816	 0.138687
H	 1.4416558594	 0.017454665	 1.5003171967	 0.083808
H	-0.0072131427	-1.224109564	 3.10395655	 0.106149
H	-0.2873130958	-2.478655805	-0.7543215018	 0.145111
H	 0.6619981941	-3.8634535148	-0.1812798361	 0.102882
H	-0.5643983398	-3.1316599416	 0.8705311728	 0.129577
H	 3.173121476	-1.108677916	 0.1027653239	 0.117873
H	 2.8474988576	-2.7021244709	-0.6058194474	 0.102338
H	 2.01971867	-1.2668998672	-1.241358318	 0.13856
H	 2.1668697458	-3.324965093	 1.7467580665	 0.281137
64.0206	84.1877	116.8978	185.7444	195.838	209.6131	232.0749	243.3688	252.8604	280.7462	338.1405	347.0516	349.8453	446.7593	466.2124	543.8506	708.796	778.3675	836.4263	923.5507	947.2	977.5053	1000.9531	1039.2033	1042.6304	1136.5069	1161.4593	1178.7289	1205.2905	1219.0473	1245.9522	1309.5572	1356.8851	1374.5821	1394.9297	1407.0231	1414.3797	1478.1933	1479.9141	1483.6866	1484.5436	1499.4247	1510.057	1514.6723	1826.8189	2922.5032	2939.7347	2988.1888	3032.8446	3038.3109	3080.912	3102.3514	3106.7745	3125.6479	3133.6836	3139.238	3817.0201
COC(C=O)C(C)(C)O	CO[C@@H](C=O)C(C)(C)O	
InChI=1S/C6H12O3/c1-6(2,8)5(4-7)9-3/h4-5,8H,1-3H3	InChI=1S/C6H12O3/c1-6(2,8)5(4-7)9-3/h4-5,8H,1-3H3/t5-/m0/s1
