18
gdb 69202	2.72504	1.56054	1.16196	4.0373	79.15	-0.2429	-0.0539	0.189	1084.0163	0.148812	-401.967438	-401.959559	-401.958615	-401.999585	30.804	
C	-0.0924760189	 1.5149252096	 0.0547594553	-0.449447
C	-0.0114720415	 0.0039509931	 0.0225140526	 0.308638
C	-1.1493288347	-0.6855657706	-0.7158635948	-0.345373
C	-1.262421185	-2.1625639949	-0.4754283804	-0.050622
C	-0.664769294	-2.799137775	 0.5382661282	-0.18752
C	 0.1564528193	-2.0859370769	 1.5440308868	 0.405952
O	 0.4243670997	-2.5803967469	 2.622895832	-0.341981
C	 0.6337680409	-0.7182587085	 1.1713446927	-0.177942
N	 1.3402292024	-0.5313751164	-0.1232588522	-0.362893
H	 0.7890206394	 1.9335426614	 0.5450965968	 0.136937
H	-0.1368589564	 1.9202896177	-0.9625961881	 0.121979
H	-0.986455871	 1.8481321641	 0.5924744569	 0.120135
H	-2.1027685617	-0.2133139466	-0.4360470158	 0.133094
H	-1.0464823649	-0.4938350759	-1.7937292581	 0.124385
H	-1.8987707747	-2.7165797404	-1.1618915912	 0.112707
H	-0.810147712	-3.8599885935	 0.7145390532	 0.115275
H	 1.0588276638	-0.1595742309	 1.9999860016	 0.104045
H	 1.3276244895	-1.4083931396	-0.6421902257	 0.232631
110.1714	161.5726	211.9225	281.1476	331.4299	366.8447	384.4837	458.5205	485.8936	525.7186	655.5357	658.6434	737.8097	826.1333	835.3894	891.4878	902.789	954.3899	985.5605	1020.5878	1030.1759	1045.9821	1090.0686	1127.3816	1168.7012	1182.1804	1222.5401	1267.3656	1287.4235	1333.362	1368.4378	1406.5132	1411.4225	1429.1592	1462.5312	1488.005	1494.3205	1685.9393	1766.5053	3001.976	3024.5135	3032.9869	3095.544	3129.5124	3153.7532	3159.6047	3193.2389	3475.785
CC12CC=CC(=O)C1N2	C[C@]12CC=CC(=O)[C@H]1N2	
InChI=1S/C7H9NO/c1-7-4-2-3-5(9)6(7)8-7/h2-3,6,8H,4H2,1H3	InChI=1S/C7H9NO/c1-7-4-2-3-5(9)6(7)8-7/h2-3,6,8H,4H2,1H3/t6-,7+/m1/s1
