20
gdb 36341	4.78415	0.81931	0.77914	1.8837	86.22	-0.2392	0.0584	0.2975	1517.5886	0.170023	-365.942508	-365.9334	-365.932456	-365.976921	34.407	
C	 0.0174167884	-1.1763894208	-0.5144564207	-0.447598
C	-0.0096557802	-0.0342423605	-0.1413537383	 0.303691
C	-0.009224466	 1.3485995467	 0.3249030788	-0.353908
C	 1.3763542788	 1.9752413648	 0.3000192661	-0.093789
N	 1.7756594182	 2.6243913266	-0.9617584284	-0.379341
C	 1.5879437035	 3.4400754409	 0.2326422337	 0.36546
C	 0.5629323723	 4.5710913815	 0.3875308575	-0.287092
C	 1.4859889548	 5.1801927139	 1.4848966491	-0.205362
C	 2.6362488625	 4.2372433361	 1.0202702268	-0.307702
H	 0.0286011239	-2.1825041831	-0.8528849061	 0.193093
H	-0.6767213396	 1.9515117571	-0.3006953502	 0.139158
H	-0.4086807226	 1.388848184	 1.3475745323	 0.125978
H	 2.1340289366	 1.399801226	 0.8301047389	 0.090626
H	 2.764832227	 2.4769476815	-1.148384976	 0.228805
H	 0.5089047032	 5.1900815036	-0.5126942047	 0.110692
H	-0.4529493125	 4.297964321	 0.6842821052	 0.101695
H	 1.6782205085	 6.2528247823	 1.4259769318	 0.102673
H	 1.1416969876	 4.9419222579	 2.4939139834	 0.106446
H	 3.1997029879	 3.7053706742	 1.79185834	 0.101625
H	 3.3447732477	 4.7470923261	 0.3582791508	 0.104852
50.2098	90.9782	108.996	190.3155	220.2211	335.999	345.8906	411.9995	444.0084	508.9196	575.2555	614.3818	637.0699	713.5512	786.5713	836.26	845.8798	889.5184	929.8375	941.999	952.9381	973.2248	994.1525	1014.4898	1052.3153	1089.3202	1137.446	1177.4041	1200.3686	1217.9081	1248.3603	1252.6079	1260.4795	1275.0994	1295.9735	1318.1656	1359.1779	1457.2334	1472.6601	1477.1627	1481.1106	1508.0409	2239.2883	3017.0155	3041.2918	3056.4967	3067.7013	3071.0458	3092.9827	3104.0378	3118.7183	3128.2228	3493.4783	3507.6818
C#CCC1NC11CCC1	C#CC[C@H]1NC21CCC2	
InChI=1S/C8H11N/c1-2-4-7-8(9-7)5-3-6-8/h1,7,9H,3-6H2	InChI=1S/C8H11N/c1-2-4-7-8(9-7)5-3-6-8/h1,7,9H,3-6H2/t7-/m1/s1
