17
gdb 50686	2.03257	1.60035	0.95462	5.0502	74.23	-0.2612	0.0073	0.2685	1195.3488	0.137618	-418.055754	-418.047361	-418.046417	-418.089727	30.01	
O	 0.0246130275	-0.056654476	-0.139685423	-0.327172
C	 0.0501965353	 1.154895567	-0.1189173764	 0.142993
N	 1.194773893	 1.8929882963	-0.0864378549	-0.052296
C	 2.5225969435	 1.27635836	 0.0058393215	-0.155039
C	 3.3917246295	 2.3998267171	 0.5831159446	-0.237081
C	 2.7545744057	 3.6705540215	 0.0006545371	-0.227161
C	 1.2379139029	 3.3534251592	 0.042579007	-0.126088
C	 0.4863684182	 4.0453235762	-1.0129853662	 0.288715
N	-0.1058988727	 4.6055373808	-1.8316810256	-0.316821
H	-0.8601838553	 1.7850251083	-0.1277451349	 0.092055
H	 2.4674561142	 0.3846738611	 0.6331737176	 0.144205
H	 2.8698153836	 0.9637561992	-0.9868166893	 0.126406
H	 3.3224010585	 2.4065398716	 1.6760367553	 0.120108
H	 4.4447678039	 2.2985636434	 0.3138685841	 0.122011
H	 2.9878095783	 4.5823790157	 0.5525831797	 0.130144
H	 3.0643010341	 3.8135215003	-1.0383877269	 0.138128
H	 0.8161337597	 3.6716999184	 1.0061164202	 0.136892
46.4643	96.9491	149.6361	220.8395	242.4263	282.649	326.0753	457.264	505.607	553.2214	594.7502	721.2029	817.277	879.8941	906.0561	925.7167	942.3221	1009.1977	1032.5755	1043.0868	1116.8982	1176.9898	1189.2716	1218.0354	1262.1837	1299.8491	1332.2146	1341.0932	1358.9559	1369.6636	1393.2216	1445.7353	1491.1671	1499.1276	1525.6485	1795.3019	2360.1765	2949.6353	3005.845	3030.9904	3055.4756	3072.6133	3112.3794	3119.7398	3131.9585
O=CN1CCCC1C#N	O=CN1CCC[C@H]1C#N	
InChI=1S/C6H8N2O/c7-4-6-2-1-3-8(6)5-9/h5-6H,1-3H2	InChI=1S/C6H8N2O/c7-4-6-2-1-3-8(6)5-9/h5-6H,1-3H2/t6-/m0/s1
