21
gdb 111452	2.54283	1.45507	1.03101	1.3677	84.33	-0.2142	0.0298	0.244	1206.2259	0.182951	-387.087419	-387.078509	-387.077564	-387.1207	34.434	
C	 0.1394358871	 1.4953951911	-0.082012379	-0.475447
C	 0.0737906874	-0.0001292435	-0.0756334173	 0.309926
C	-0.0013626856	-0.7991491694	-1.1473763155	-0.186983
C	 0.0008365515	-2.2462682678	-0.7893169031	-0.07351
C	 1.265679459	-2.7385228371	-0.1133175151	-0.284619
C	 0.0966938506	-2.2680267195	 0.7227782082	-0.063873
C	 0.064223756	-0.8190713976	 1.2157439395	-0.086852
C	 1.1862199046	-0.504067893	 2.2094920792	-0.084343
O	 0.9449196561	 0.7782544139	 2.7762625799	-0.420381
H	 0.0928658729	 1.8867821925	-1.1024951895	 0.108341
H	-0.687673454	 1.9275838593	 0.4944464312	 0.125085
H	 1.0544879823	 1.8628273568	 0.3933982396	 0.128468
H	-0.0268814533	-0.4485157528	-2.1741580817	 0.082792
H	-0.6105894321	-2.9510322795	-1.3423388894	 0.082309
H	 1.4576705899	-3.8069513986	-0.1136272322	 0.105212
H	 2.1527453527	-2.1200512214	-0.1988029283	 0.108452
H	-0.4302758396	-3.0173409788	 1.3021361084	 0.081843
H	-0.8758692732	-0.6313278958	 1.7562753389	 0.08456
H	 1.1977080754	-1.2806949368	 2.9904374805	 0.087018
H	 2.160016245	-0.536326656	 1.6985897819	 0.086079
H	 1.6806980473	 0.9932994139	 3.356697984	 0.285921
103.893	134.1411	185.9549	196.3343	225.7998	264.9891	331.6449	360.7989	432.2534	440.5297	581.559	628.7531	697.6258	793.1077	797.2717	816.7653	854.2056	927.1196	949.4114	990.5709	1012.2543	1029.8652	1050.4007	1060.1938	1070.0436	1076.3751	1086.748	1106.3677	1124.4561	1186.9425	1214.0123	1239.5999	1248.4717	1285.5709	1320.2276	1336.3987	1357.1885	1382.6804	1418.7551	1451.4677	1474.9941	1477.953	1484.4073	1520.0101	1700.7932	2972.4425	2988.8352	3013.2638	3027.3579	3081.1863	3109.59	3124.3989	3161.9403	3172.6725	3182.5944	3212.9905	3830.2439
CC1=CC2CC2C1CO	CC1=C[C@H]2C[C@H]2[C@H]1CO	
InChI=1S/C8H12O/c1-5-2-6-3-7(6)8(5)4-9/h2,6-9H,3-4H2,1H3	InChI=1S/C8H12O/c1-5-2-6-3-7(6)8(5)4-9/h2,6-9H,3-4H2,1H3/t6-,7+,8-/m0/s1
