21
gdb 121794	2.52838	0.95533	0.85614	2.3588	81.49	-0.2595	0.038	0.2975	1474.184	0.178138	-424.179426	-424.168468	-424.167524	-424.216047	39.983	
C	 0.1055016511	 1.5357330074	 0.0765990052	-0.416411
C	-0.0241127607	 0.0002597086	 0.0848180878	 0.174869
C	 0.7285779483	-0.6143656574	 1.2823959907	-0.412337
O	-1.4031250183	-0.4086382456	 0.0704485195	-0.302614
C	-2.2542294581	 0.0448509505	 1.1135670002	-0.082493
C	-3.5355470431	-0.7668499191	 0.9733331849	-0.055908
O	-3.2826202393	-2.1511409493	 1.0933775897	-0.421652
C	 0.5348334655	-0.5405757987	-1.1623322756	 0.344021
C	 1.0255281704	-0.9706086266	-2.17063328	-0.472818
H	 1.1525156621	 1.8210048931	-0.0514177864	 0.130847
H	-0.473374483	 1.9577979318	-0.7483500386	 0.13421
H	-0.2506238443	 1.9621227947	 1.0186504026	 0.118705
H	 0.3815913832	-0.1889134442	 2.2278631461	 0.119546
H	 0.5782791351	-1.6961774383	 1.30335254	 0.133282
H	 1.7990244686	-0.4129644465	 1.1933683722	 0.130097
H	-1.8123488668	-0.141423508	 2.1014512848	 0.09905
H	-2.4701622497	 1.1192100565	 1.0220278279	 0.092114
H	-4.2345721947	-0.4914555154	 1.7700440501	 0.105885
H	-4.0076925061	-0.5240121106	 0.0081011236	 0.094238
H	-2.5562949861	-2.3313692803	 0.4842337153	 0.288939
H	 1.4494197559	-1.3539599127	-3.0658903701	 0.198431
29.6037	68.8117	122.5504	169.6065	179.1408	242.4885	247.7791	263.9213	293.4876	357.0462	391.0907	446.0505	449.1319	497.2486	559.8458	574.9618	626.8916	667.7962	725.6375	837.3982	910.2347	920.6523	927.5957	981.8687	1014.8043	1077.9835	1104.5629	1136.3118	1178.43	1183.9798	1229.8744	1260.6026	1274.4171	1387.5741	1390.1366	1398.1473	1414.0287	1438.7168	1477.5053	1482.4323	1496.4508	1498.1295	1500.7871	1511.5194	2242.1126	2981.6719	2994.2406	3040.9426	3048.7669	3052.4558	3078.1578	3120.7342	3126.3887	3133.6147	3135.9995	3501.826	3789.3693
CC(C)(OCCO)C#C	CC(C)(OCCO)C#C	
InChI=1S/C7H12O2/c1-4-7(2,3)9-6-5-8/h1,8H,5-6H2,2-3H3	InChI=1S/C7H12O2/c1-4-7(2,3)9-6-5-8/h1,8H,5-6H2,2-3H3
