19
gdb 97887	6.33779	0.51321	0.48966	1.3611	82.31	-0.2404	-0.012	0.2284	2242.839	0.154903	-423.009842	-422.998563	-422.997618	-423.049752	37.37	
C	 0.2038250551	 1.4973281759	-0.1587795134	-0.379732
C	-0.0423781004	-0.0069054562	-0.0756152005	-0.277564
C	-1.5153518043	-0.3731898737	 0.0573840523	 0.385641
O	-2.3982654728	 0.4429451247	-0.0186067207	-0.276131
C	-1.7884806344	-1.8696152433	 0.3065108321	-0.487914
C	-3.1887115635	-2.2498652887	 0.25090558	 0.056121
C	-4.3469787349	-2.5669105431	 0.1924657343	 0.159961
C	-5.7592074065	-2.9196593871	 0.1363299256	-0.218171
O	-5.9316207721	-4.0847258837	-0.6632597752	-0.410771
H	 1.2697264745	 1.7080494328	-0.281565838	 0.111255
H	-0.3374361337	 1.9322475404	-1.0022006762	 0.136723
H	-0.1460805043	 2.0013157611	 0.7459998711	 0.13042
H	 0.3411895225	-0.5180857057	-0.9703077625	 0.126486
H	 0.5039553533	-0.4578761889	 0.7639343618	 0.118792
H	-1.2008650394	-2.4519715743	-0.4163057096	 0.149076
H	-1.3540657229	-2.1144350461	 1.2871526543	 0.150273
H	-6.1318965751	-3.0821516626	 1.1610379713	 0.11468
H	-6.3221901483	-2.0662252349	-0.2750638846	 0.121757
H	-6.8753251728	-4.2721588867	-0.693890702	 0.2891
13.6924	26.7614	52.5797	68.9389	139.9773	192.4831	206.3882	231.307	247.8332	332.0171	356.7096	417.2735	460.2252	546.3529	651.2767	734.2771	783.1405	827.0911	896.1765	989.1018	1026.2317	1029.6832	1049.8997	1085.2034	1122.7315	1159.6915	1215.4711	1245.4	1257.4188	1289.8396	1328.8683	1370.6827	1414.1952	1436.4547	1454.5477	1460.4817	1492.6385	1498.3801	1503.6461	1825.9982	2383.4637	2963.0771	2982.5618	3004.3564	3016.0395	3035.4862	3045.72	3052.0344	3122.1027	3130.4942	3817.9481
CCC(=O)CC#CCO	CCC(=O)CC#CCO	
InChI=1S/C7H10O2/c1-2-7(9)5-3-4-6-8/h8H,2,5-6H2,1H3	InChI=1S/C7H10O2/c1-2-7(9)5-3-4-6-8/h8H,2,5-6H2,1H3
