16
gdb 62309	3.54079	1.46277	1.19211	3.3741	73.32	-0.2869	0.0158	0.3027	1020.528	0.124426	-400.679838	-400.672525	-400.671581	-400.711429	28.758	
O	 0.003403603	 1.4299634946	-0.0880953957	-0.473733
C	 0.0469981118	 0.0263851378	-0.0280715887	 0.297614
C	 1.0107011687	-0.5185785101	-0.9965046966	 0.213482
N	 1.7939602419	-0.9309722557	-1.7403643863	-0.34127
C	 0.0124893918	-0.6578360987	 1.3619460203	-0.11042
C	-1.5024383286	-0.2943409957	 1.5539586333	-0.055352
C	-1.8715676351	-1.7497103287	 1.9014922603	-0.273102
C	-0.7952434764	-1.8812037206	 0.8057166509	-0.053006
C	-1.3413616216	-0.6326223119	 0.0296071403	-0.075009
H	 0.8971335371	 1.7756863242	 0.0151071018	 0.294067
H	 0.7901346114	-0.6781001999	 2.125747485	 0.08642
H	-1.8880459952	 0.6380795191	 1.9606319596	 0.093927
H	-1.6006228113	-2.1016306422	 2.9014279463	 0.101687
H	-2.8821729744	-2.0769024829	 1.6391939737	 0.102859
H	-0.3678149889	-2.7751094337	 0.3531881658	 0.099169
H	-2.1155421544	-0.6182612259	-0.73657657	 0.092668
127.7565	157.7214	242.0676	288.3941	320.7308	414.7493	497.9395	515.6026	578.6812	658.5493	757.1964	817.4508	846.3099	853.6534	876.8534	920.9146	968.7644	974.234	995.1426	1034.3533	1041.0185	1067.8707	1121.5287	1145.3993	1150.771	1156.8939	1169.0496	1194.9209	1199.3919	1246.0916	1272.1468	1306.8783	1368.283	1513.4878	2346.6241	3046.2369	3103.9493	3114.483	3124.0014	3131.1899	3143.9319	3805.3048
OC1(C#N)C2C3CC2C13	O[C@@]1(C#N)[C@H]2[C@@H]3C[C@H]2[C@H]13	
InChI=1S/C7H7NO/c8-2-7(9)5-3-1-4(5)6(3)7/h3-6,9H,1H2	InChI=1S/C7H7NO/c8-2-7(9)5-3-1-4(5)6(3)7/h3-6,9H,1H2/t3-,4+,5-,6+,7-
