16
gdb 98817	3.0847	1.15992	0.93176	2.4768	67.51	-0.2501	-0.0365	0.2136	1254.3251	0.122365	-475.035756	-475.026627	-475.025682	-475.071162	31.216	
C	-0.4307847462	 1.3420757724	-0.0772996841	-0.238895
O	-0.2495591132	-0.0632530777	-0.2980151099	-0.22859
C	 0.6154977979	-0.3855766912	-1.2786763986	 0.445183
O	 1.1897073074	 0.405395186	-1.9758258144	-0.343289
C	 0.7666693126	-1.896361761	-1.3234974707	-0.224721
N	 1.6321034948	-2.434352674	-2.3853649279	-0.300444
C	 2.4464699366	-3.2497338847	-1.450379557	-0.277439
C	 1.7478707025	-2.5288910947	-0.2896538164	 0.382773
O	 1.8887229705	-2.4599738506	 0.8889865319	-0.262937
H	-0.8269480556	 1.8235179369	-0.9749268706	 0.141483
H	-1.139816134	 1.4239027493	 0.7461791361	 0.136719
H	 0.5184994605	 1.8148293239	 0.1862564707	 0.14512
H	-0.2270514186	-2.3539542381	-1.2176614019	 0.120105
H	 1.1474745816	-2.957204833	-3.1031112031	 0.23282
H	 2.2407874807	-4.3296232185	-1.4400828057	 0.127939
H	 3.5282078724	-3.0975885151	-1.5336344882	 0.144173
37.4351	87.6974	95.1558	111.43	184.2147	220.9017	318.812	402.9165	424.347	507.0862	590.6175	662.8535	745.0805	779.4322	839.9804	941.4205	986.606	1007.7073	1029.0404	1056.7721	1093.38	1103.7962	1178.765	1182.0672	1201.5454	1219.6387	1268.5899	1347.6131	1385.4484	1472.3526	1477.2466	1482.1125	1496.2759	1839.3282	1926.8825	3007.9428	3015.5613	3053.2529	3069.7554	3128.625	3162.2007	3570.1832
COC(=O)C1NCC1=O	COC(=O)[C@H]1NCC1=O	
InChI=1S/C5H7NO3/c1-9-5(8)4-3(7)2-6-4/h4,6H,2H2,1H3	InChI=1S/C5H7NO3/c1-9-5(8)4-3(7)2-6-4/h4,6H,2H2,1H3/t4-/m0/s1
