23
gdb 122364	5.28156	0.71014	0.70216	0.9069	87.72	-0.2467	0.0925	0.3392	1751.9678	0.205922	-388.237665	-388.228456	-388.227512	-388.272732	34.477	
C	 0.1922796618	 1.4281273414	 0.2034209147	-0.382441
C	-0.1652729455	-0.0094333552	-0.1807648264	-0.182915
C	 0.7874640557	-0.5896219768	-1.2167498802	-0.046984
O	 0.3850756898	-1.9143552222	-1.5129737141	-0.27114
C	 1.1517141036	-2.5263562629	-2.5070577124	 0.20023
C	 2.5205538633	-3.1986011939	-2.145029114	-0.089457
C	 1.6983352804	-4.2700381458	-1.3671075285	-0.216943
C	 0.9229121885	-4.0431636712	-2.7018636826	-0.087771
C	 2.3039077429	-4.0619424804	-3.4189732479	-0.223074
H	 1.2013898669	 1.4899767605	 0.6258018656	 0.115984
H	 0.1560603508	 2.0953344017	-0.6650012275	 0.11599
H	-0.5037378184	 1.8197857435	 0.9507200715	 0.11714
H	-0.1499718005	-0.6548053321	 0.7051172862	 0.106229
H	-1.1842502243	-0.0552600167	-0.5818388429	 0.106607
H	 0.7758778467	 0.0236388613	-2.1346088505	 0.083439
H	 1.821993049	-0.57716654	-0.8355043264	 0.087088
H	 1.1582869251	-1.9162638612	-3.4233866621	 0.055817
H	 3.445202303	-2.7117541272	-1.8319199291	 0.066433
H	 2.1738871498	-5.2469231022	-1.2454959818	 0.084775
H	 1.2009910957	-3.9398088703	-0.4559104137	 0.107018
H	 0.0007064047	-4.5266650373	-3.0261058841	 0.0708
H	 2.3703762326	-3.553461939	-4.3857232909	 0.088029
H	 2.8189162085	-5.0246176241	-3.4366578029	 0.095148
52.9578	60.4665	108.147	137.1954	229.5864	270.4827	319.6341	359.9651	457.1468	546.6796	637.3991	763.6539	771.8841	806.9053	876.9022	895.9102	900.5067	903.3223	909.4976	933.0528	1006.3424	1019.1798	1024.6156	1046.2522	1075.8344	1091.7709	1104.3289	1117.0974	1143.1641	1161.9669	1183.3254	1194.2074	1198.2089	1216.9296	1248.1251	1258.2708	1267.5095	1279.2382	1313.6873	1332.3246	1392.5305	1413.1346	1444.7357	1492.2234	1494.4202	1500.1701	1507.4973	1525.3913	1534.4113	2950.623	2981.0112	2986.3903	3031.4992	3038.5809	3050.5565	3064.5452	3070.989	3099.1814	3100.8604	3108.0038	3109.226	3121.0211	3148.6615
CCCOC1C2CC1C2	CCCO[C@H]1[C@H]2C[C@@H]1C2	
InChI=1S/C8H14O/c1-2-3-9-8-6-4-7(8)5-6/h6-8H,2-5H2,1H3	InChI=1S/C8H14O/c1-2-3-9-8-6-4-7(8)5-6/h6-8H,2-5H2,1H3/t6-,7+,8-
