21
gdb 113724	3.29802	0.89239	0.78608	4.728	84.39	-0.2462	0.0321	0.2783	1527.2141	0.181049	-383.258202	-383.248037	-383.247093	-383.293792	36.647	
C	 0.275484589	 0.3920867164	-1.8492966953	-0.386326
C	-0.2864832534	 0.8323168152	-0.4911819525	-0.205767
C	-1.569776181	 0.0932408314	-0.1640215376	 0.023611
C	-1.5509511613	-1.1876359361	 0.5992542279	-0.248706
N	-2.1694303334	 0.0046840039	 1.175512993	-0.096438
C	-1.507608546	 0.6387516565	 2.3154815197	-0.107906
C	-2.0053587063	 2.0828710313	 2.4764594869	-0.392893
C	-1.8082003492	-0.149270064	 3.5239268395	 0.300729
N	-2.0236407149	-0.7594095984	 4.4808602333	-0.323721
H	 1.185229203	 0.9468231207	-2.0959790294	 0.119386
H	 0.5187115065	-0.675127129	-1.8470876897	 0.1253
H	-0.4498198859	 0.5663314511	-2.6511610514	 0.122704
H	 0.4693645032	 0.6603763487	 0.2821982233	 0.104246
H	-0.4780338576	 1.9130081427	-0.5110578699	 0.107145
H	-2.3330327956	 0.2024880371	-0.9343535912	 0.097669
H	-2.228621715	-2.0030318967	 0.3637078188	 0.125478
H	-0.5877335019	-1.5025184115	 1.000530108	 0.11526
H	-0.4089167356	 0.6485516714	 2.2263031715	 0.107826
H	-3.0920650356	 2.0929729784	 2.5831169525	 0.14907
H	-1.5546935153	 2.5521956531	 3.3543641566	 0.134892
H	-1.7355530237	 2.6635148576	 1.590910636	 0.128443
52.2833	81.8516	117.4395	158.7254	210.7459	220.054	240.815	262.2226	304.4724	377.1115	447.1633	483.4581	563.8645	595.6215	746.1069	784.3968	821.9023	858.1592	921.1361	963.7741	970.6301	1023.0325	1055.7582	1065.5692	1107.61	1116.4125	1122.7006	1150.4012	1185.7781	1195.5765	1290.2182	1321.2708	1334.0376	1344.1976	1355.3774	1405.6527	1411.5439	1428.7278	1484.0887	1487.2195	1495.3452	1499.6094	1507.5244	1511.1446	2362.4189	2967.2009	3023.5482	3037.308	3055.5024	3067.358	3090.5437	3103.062	3111.2163	3113.0303	3133.2268	3143.2754	3182.7417
CCC1CN1C(C)C#N	CC[C@H]1CN1[C@@H](C)C#N	
InChI=1S/C7H12N2/c1-3-7-5-9(7)6(2)4-8/h6-7H,3,5H2,1-2H3	InChI=1S/C7H12N2/c1-3-7-5-9(7)6(2)4-8/h6-7H,3,5H2,1-2H3/t6-,7-,9?/m0/s1
