23
gdb 93676	2.45967	1.42622	1.18506	1.6562	81.15	-0.2391	0.0654	0.3045	1191.1239	0.204274	-425.440626	-425.430529	-425.429585	-425.474862	38.604	
C	-0.3172155364	 1.3720331782	-0.1241626787	-0.432577
C	-0.0284383012	-0.0935504677	 0.1747383386	 0.141426
O	 0.4012114845	-0.7544508999	-1.0214104071	-0.287841
C	 1.6176117317	-1.4553886	-0.7780372753	-0.089032
C	 1.6885888529	-1.6875871636	 0.7428659148	 0.25781
C	 0.7822137391	-2.8652172187	 1.1439658175	-0.434899
C	 3.1158125586	-1.9257754718	 1.2428840588	-0.446615
C	 1.0718405114	-0.3543847419	 1.2315841972	 0.057961
O	 2.0934836612	 0.6339327671	 1.224107087	-0.4378
H	 0.5879411221	 1.8830838033	-0.4624598783	 0.127956
H	-1.066413449	 1.4474636359	-0.9163305452	 0.130843
H	-0.7132973734	 1.8846805729	 0.7610103866	 0.103637
H	-0.9585738621	-0.5723989311	 0.5174477731	 0.069606
H	 1.5976018443	-2.3897029668	-1.3502144737	 0.095102
H	 2.476616358	-0.8584445057	-1.1163719025	 0.09416
H	 1.2060338665	-3.8068552494	 0.7798623638	 0.114937
H	 0.6915341533	-2.9411509718	 2.2328984478	 0.110695
H	-0.2219962997	-2.7715145469	 0.7217557736	 0.128017
H	 3.7671197381	-1.0840146858	 1.0041970213	 0.135949
H	 3.1319741154	-2.0681372701	 2.3287868814	 0.110114
H	 3.5314692778	-2.830956563	 0.7860602731	 0.107111
H	 0.6378978648	-0.4491232603	 2.2375680777	 0.057046
H	 1.7008154222	 1.474011977	 1.4787732184	 0.286396
75.2717	134.8641	185.258	216.8404	227.1125	248.39	281.8808	312.2056	328.9358	341.9353	355.4435	409.4007	492.5402	506.5621	607.3771	730.1381	811.2371	829.6243	887.5846	911.9595	945.0723	957.7634	989.451	1003.638	1035.9782	1042.2088	1101.3017	1130.9108	1156.7133	1176.4376	1210.0363	1234.5337	1269.926	1293.8753	1322.7307	1345.8857	1380.8543	1390.8803	1395.5425	1400.7873	1413.6707	1432.0466	1485.3519	1486.6461	1490.4705	1502.1202	1504.3421	1510.0816	1521.8907	2975.8807	2997.4285	3000.2821	3031.1259	3031.5353	3036.3925	3060.2826	3090.2861	3098.5121	3105.1542	3115.5295	3127.0518	3138.6104	3831.9924
CC1OCC(C)(C)C1O	C[C@H]1OCC(C)(C)[C@H]1O	
InChI=1S/C7H14O2/c1-5-6(8)7(2,3)4-9-5/h5-6,8H,4H2,1-3H3	InChI=1S/C7H14O2/c1-5-6(8)7(2,3)4-9-5/h5-6,8H,4H2,1-3H3/t5-,6+/m1/s1
