16
gdb 45270	3.20094	1.68944	1.38819	2.8845	66.8	-0.2434	0.0038	0.2472	926.7696	0.126787	-437.886582	-437.879989	-437.879045	-437.917672	26.096	
O	-0.1715187243	 0.1117235334	 0.2955509947	-0.318116
C	-0.0418827278	 1.2578814279	 0.0160436852	 0.452312
O	-1.0020370566	 2.1188956077	-0.4667828305	-0.264834
C	-0.0086391214	 3.1941624075	-0.6617522511	 0.098983
C	-0.2042435034	 4.4371375972	 0.2063249288	-0.193815
N	 0.5625419222	 4.2763237603	 1.4569594404	-0.09648
C	 0.1387805449	 3.1520387834	 2.2986782654	-0.254056
C	 1.2980604494	 2.9920577537	 1.3797157339	-0.033856
C	 1.0629673816	 2.3209028757	 0.0275423761	-0.235841
H	 0.092381174	 3.3960434496	-1.7292369199	 0.108959
H	 0.1997717507	 5.3072971869	-0.3222305658	 0.12072
H	-1.2615710011	 4.6293815554	 0.4119992097	 0.133503
H	 0.3135098758	 3.292541801	 3.3616482739	 0.124614
H	-0.7893978503	 2.6397070645	 2.0589863372	 0.140701
H	 2.3086773519	 2.9843013252	 1.7741332096	 0.106277
H	 1.9806032044	 2.0692792407	-0.5017289576	 0.110928
116.8608	167.9791	287.1892	366.7105	420.1905	493.8986	641.8765	697.2446	714.1551	755.8775	777.2079	837.1912	846.5769	874.2481	943.9239	958.1804	991.9241	1009.5243	1050.4009	1062.2875	1112.2614	1121.9711	1129.8427	1159.3586	1199.8399	1230.3748	1256.5583	1271.5634	1300.5544	1335.3338	1350.8881	1384.679	1479.6075	1512.3138	1941.671	3047.3502	3096.1706	3105.91	3109.801	3133.3855	3164.0464	3195.9383
O=C1OC2CN3CC3C12	O=C1O[C@H]2CN3C[C@H]3[C@@H]12	
InChI=1S/C6H7NO2/c8-6-5-3-1-7(3)2-4(5)9-6/h3-5H,1-2H2	InChI=1S/C6H7NO2/c8-6-5-3-1-7(3)2-4(5)9-6/h3-5H,1-2H2/t3-,4-,5+,7?/m0/s1
