21
gdb 110941	2.53892	1.17939	0.99722	2.7385	78.57	-0.2413	0.0717	0.313	1294.6337	0.181951	-424.17428	-424.164873	-424.163929	-424.208716	34.818	
C	-0.4622586711	 1.1322326149	 0.2506244827	-0.23936
O	 0.4251981868	 0.0912698508	-0.109673761	-0.23572
C	 0.9201070099	-0.5967575108	 0.9994724927	 0.14018
C	 0.1548141345	-1.6824147252	 1.6914688102	-0.114671
C	-0.6691257127	-2.4870282037	 0.6763226017	-0.270006
C	 0.6483686849	-2.8699153619	-0.0793968296	 0.024168
C	 0.7559632553	-2.6427496575	-1.5823940075	-0.100952
O	-0.0349975465	-3.575438014	-2.3133628143	-0.422711
C	 1.4521650061	-1.9828502156	 0.8845420587	-0.160197
H	 0.0374949395	 1.8887253197	 0.8745615497	 0.107551
H	-0.7995801028	 1.6045010767	-0.6747373493	 0.127832
H	-1.3332774243	 0.7510274522	 0.8023542979	 0.112001
H	 1.4960056864	 0.0382505333	 1.6771641262	 0.085437
H	 0.0021810345	-1.6894117668	 2.7644342582	 0.085509
H	-1.1751992433	-3.3494075787	 1.113037616	 0.105284
H	-1.3988086491	-1.9002541895	 0.107430262	 0.092866
H	 0.8763091517	-3.9218715846	 0.1185405681	 0.082004
H	 0.4959139627	-1.6074860775	-1.8318974035	 0.111231
H	 1.7893182079	-2.8124923445	-1.9066472074	 0.101964
H	-0.9580963406	-3.3759173083	-2.1287474851	 0.281076
H	 2.4448000404	-2.2236332089	 1.2489876133	 0.086516
79.4128	108.0732	128.0926	160.958	198.21	248.0274	275.0635	307.4454	399.1541	424.7678	524.5077	602.8591	725.3869	753.5688	819.2729	853.1299	883.5696	949.3444	963.5222	987.9763	1016.4842	1045.5451	1052.8579	1075.2578	1094.0549	1105.5257	1130.4015	1162.8096	1182.7024	1196.8722	1236.0443	1239.4384	1251.123	1271.5641	1295.3998	1331.6664	1361.2499	1396.0572	1417.5412	1432.6107	1479.5211	1485.8249	1491.6383	1509.2294	1511.3715	2983.8255	3032.3192	3035.4104	3041.8924	3054.0711	3076.3075	3080.384	3114.2018	3120.3061	3165.9719	3179.4217	3818.2199
COC1C2CC(CO)C12	CO[C@H]1[C@H]2C[C@@H](CO)[C@@H]12	
InChI=1S/C7H12O2/c1-9-7-5-2-4(3-8)6(5)7/h4-8H,2-3H2,1H3	InChI=1S/C7H12O2/c1-9-7-5-2-4(3-8)6(5)7/h4-8H,2-3H2,1H3/t4-,5-,6+,7-/m0/s1
