21
gdb 74401	2.74133	1.48997	1.1519	1.3147	84.37	-0.2155	0.0212	0.2368	1153.9323	0.181008	-387.072576	-387.063484	-387.06254	-387.105485	35.917	
C	 0.0035291903	 1.4769225499	 0.0583721685	-0.521927
C	-0.0088813176	-0.0086225595	-0.0208268818	 0.275093
C	-0.01713769	-0.8716829025	-1.0398527154	-0.254361
C	-0.0046676831	-2.2552759761	-0.3591890613	 0.299335
C	 0.0003970721	-3.4993611203	-1.2162764583	-0.500286
C	 1.0704843013	-1.9921951181	 0.7604490547	-0.273
C	 0.0054940054	-0.9537582293	 1.2081649236	 0.318445
O	 0.0919410861	-0.409165142	 2.4881369957	-0.483419
C	-1.0694874499	-2.009789047	 0.7713068051	-0.309819
H	 0.8642189802	 1.8345114258	 0.6367488638	 0.136988
H	 0.0429895716	 1.9296215426	-0.9362043633	 0.127266
H	-0.890651833	 1.866143848	 0.5650873482	 0.114912
H	-0.0227461617	-0.6882740399	-2.106747462	 0.091675
H	 0.88091576	-3.525586962	-1.8684155568	 0.116887
H	 0.0126140999	-4.4058967875	-0.6027572336	 0.113399
H	-0.888088267	-3.5414265254	-1.8566048491	 0.116013
H	 1.1764323916	-2.8245320194	 1.4642388942	 0.091728
H	 2.0450349505	-1.6116314749	 0.4462503275	 0.090423
H	-0.6896204252	 0.1318094293	 2.6436558814	 0.278309
H	-2.0525065826	-1.6426577422	 0.4638450139	 0.082134
H	-1.157219759	-2.8445360696	 1.4749735548	 0.090205
149.8708	169.5987	206.4917	209.6267	219.4568	248.9959	262.8694	386.9566	443.0792	498.9084	510.7803	565.9394	580.7959	610.5301	673.8172	774.5711	782.8015	827.0805	893.2814	929.7505	952.5026	993.9156	1002.8252	1043.6464	1048.1181	1068.7769	1107.9651	1129.9909	1155.5024	1175.5046	1192.5112	1213.7587	1243.4229	1313.4965	1337.0156	1355.851	1410.0243	1415.0218	1473.3596	1476.0572	1485.2256	1493.907	1494.0268	1518.2501	1701.179	3007.8035	3024.7222	3035.1396	3048.5801	3056.5396	3087.2204	3097.0388	3107.6791	3109.2021	3118.453	3206.7201	3806.9637
CC1=CC2(C)CC1(O)C2	CC1=C[C@@]2(C)C[C@]1(O)C2	
InChI=1S/C8H12O/c1-6-3-7(2)4-8(6,9)5-7/h3,9H,4-5H2,1-2H3	InChI=1S/C8H12O/c1-6-3-7(2)4-8(6,9)5-7/h3,9H,4-5H2,1-2H3/t7-,8-
