20
gdb 39938	2.865	1.57499	1.2176	1.7195	85.18	-0.2248	0.0222	0.247	1080.9768	0.173743	-365.988227	-365.980726	-365.979781	-366.020049	30.775	
C	-0.2348771948	 1.466075187	 0.0066961489	-0.28438
N	 1.1550388376	 0.9891240184	 0.0021719963	-0.366199
C	 0.0397723732	 0.0001791264	 0.0226140105	 0.333971
C	-0.0649064178	-0.7584808451	 1.2937113464	-0.092232
C	-0.1461095173	-2.087001123	 1.3583860764	-0.078939
C	-0.111761363	-3.001305274	 0.1630137427	-0.293137
C	-0.335385198	-2.2914740831	-1.1614509194	-0.030233
C	-1.5875137591	-1.4800993935	-1.3767787848	-0.298966
C	-0.2531670335	-0.7826292332	-1.2260723194	-0.115699
H	-0.5411707652	 1.9744181205	 0.917989279	 0.11316
H	-0.6525436731	 1.8860289826	-0.9054782656	 0.107988
H	 1.5371778703	 1.0446846519	-0.9396002719	 0.226846
H	-0.0462503569	-0.1661143045	 2.2042447863	 0.088532
H	-0.2066877968	-2.5685588149	 2.331328253	 0.08817
H	 0.8641137966	-3.5089059044	 0.1430666953	 0.114439
H	-0.8512142789	-3.8050155571	 0.2872809875	 0.106293
H	 0.0369585681	-2.8296442503	-2.0280129061	 0.082794
H	-2.0505900499	-1.492442074	-2.3571917528	 0.107435
H	-2.2848588632	-1.4011167346	-0.5491285954	 0.119134
H	 0.1638484315	-0.3481912853	-2.131516137	 0.071022
77.322	217.2288	267.7131	313.1489	325.049	409.1735	443.1746	526.0811	561.2309	669.3702	729.2257	754.8063	820.5717	832.3955	864.0864	888.2095	907.2673	938.0825	958.0922	979.9504	1000.0123	1020.6109	1033.7283	1057.7689	1070.8429	1088.0595	1122.5865	1129.8879	1141.1078	1203.8741	1221.2063	1241.3488	1257.2785	1297.492	1341.3067	1368.4915	1395.5848	1420.3365	1443.9477	1478.3465	1490.7867	1508.6971	1723.8532	2996.0903	3017.4104	3096.3038	3126.9326	3131.3848	3148.4565	3149.3122	3173.6535	3180.9976	3218.0153	3486.332
C1NC11C=CCC2CC12	C1N[C@]21C=CC[C@H]1C[C@@H]21	
InChI=1S/C8H11N/c1-2-6-4-7(6)8(3-1)5-9-8/h1,3,6-7,9H,2,4-5H2	InChI=1S/C8H11N/c1-2-6-4-7(6)8(3-1)5-9-8/h1,3,6-7,9H,2,4-5H2/t6-,7+,8-/m0/s1
