19
gdb 29752	2.994	1.51505	1.09854	3.8732	82.12	-0.2127	0.0423	0.2549	1131.2741	0.160854	-382.084599	-382.076343	-382.075399	-382.117543	31.248	
C	-0.4519437675	 1.6556087788	-0.1303418954	-0.400594
C	 0.0288476894	 0.2237512246	 0.014261836	 0.035287
C	 0.8262706365	-0.4726738906	-1.1857763238	-0.170921
C	 1.0907312085	 0.3261101604	-2.4568846234	-0.401892
C	 1.9437489303	-0.5988585869	-0.162212547	 0.377907
N	 3.0869016243	-1.1130218717	 0.2242458965	-0.375936
C	 3.1270833297	-0.7660336414	 1.5679354227	-0.089885
C	 1.9986492827	-0.0774460479	 1.9753060596	-0.185163
N	 1.2674332767	 0.0391076151	 0.8150322426	 0.008571
H	 0.3506584754	 2.3168485582	-0.4657913418	 0.133331
H	-1.271875197	 1.7069668455	-0.8539145516	 0.128136
H	-0.8266795369	 2.0324878735	 0.8265858272	 0.12817
H	-0.7788065332	-0.416361372	 0.3846990931	 0.102985
H	 0.3749339368	-1.4372670872	-1.4418283497	 0.099535
H	 1.5577389256	 1.2909964721	-2.2423150687	 0.125458
H	 1.7697824139	-0.2310139652	-3.1091177792	 0.137801
H	 0.163940189	 0.5044103863	-3.0122151587	 0.116451
H	 3.9816543336	-1.0229608879	 2.1768146649	 0.10421
H	 1.7106463123	 0.3438339164	 2.9231548966	 0.126551
74.8072	119.7185	209.1239	223.3264	250.8628	263.5547	382.8607	466.1135	535.3344	623.8331	684.8738	715.5428	717.4854	736.8723	776.9544	837.5445	942.7326	985.3839	999.2898	1045.2344	1057.3605	1076.5657	1118.0607	1138.1065	1144.264	1169.3256	1216.9904	1251.9297	1273.1416	1346.4068	1367.9678	1402.2231	1408.0449	1414.379	1425.5116	1478.4377	1482.3103	1491.0393	1497.1606	1505.21	1575.3288	3038.7237	3042.3719	3045.9964	3058.0605	3107.0745	3109.3683	3118.4231	3129.3417	3241.6289	3284.6642
CC1C(C)C2=NC=CN12	C[C@H]1[C@@H](C)c2nccn12	
InChI=1S/C7H10N2/c1-5-6(2)9-4-3-8-7(5)9/h3-6H,1-2H3	InChI=1S/C7H10N2/c1-5-6(2)9-4-3-8-7(5)9/h3-6H,1-2H3/t5-,6+/m1/s1
