15
gdb 48963	3.2381	1.67899	1.4165	2.6412	64.84	-0.2515	-0.0493	0.2022	911.3431	0.112473	-457.708827	-457.702143	-457.701199	-457.740201	26.	
O	-0.1376556758	 0.0880918276	-0.220149448	-0.242401
C	 0.0321727857	 1.1846705988	 0.250013899	 0.044187
C	 1.285602636	 1.9710891089	 0.0733256191	 0.32191
O	 1.5189610128	 3.0489247874	 0.9751925034	-0.326352
C	 2.5362875033	 3.4880969455	 0.0239950018	 0.019844
C	 3.6140986641	 2.4001467645	 0.2051804392	-0.215444
C	 2.6833093886	 1.3039745195	-0.3390561185	 0.000649
O	 2.4955285057	 1.7491654905	-1.7178489108	-0.280102
C	 1.7204454863	 2.7960534462	-1.1664160611	 0.023194
H	-0.7508761442	 1.7088724968	 0.8396594361	 0.094803
H	 2.7772012398	 4.5463923685	 0.0914179111	 0.096863
H	 4.4961801035	 2.5091779494	-0.4278100152	 0.121141
H	 3.8903309696	 2.3003028167	 1.2560274988	 0.120573
H	 2.8996148585	 0.2440520428	-0.2393159319	 0.110597
H	 1.0933114561	 3.3626441569	-1.851918243	 0.110539
92.3444	160.5054	212.6749	437.2198	468.261	521.9289	531.4763	645.8184	718.6508	765.6493	817.0594	847.0247	855.0117	917.2783	920.8876	937.1143	975.4221	996.3991	1024.9369	1060.247	1095.4372	1111.7262	1123.8838	1161.412	1223.9736	1244.2313	1259.5823	1282.3197	1309.6263	1339.2643	1413.429	1461.5844	1819.0031	2903.1745	3085.8613	3146.795	3150.3197	3158.2846	3174.0329
O=CC12OC3CC1OC23	O=C[C@@]12O[C@H]3C[C@@H]1O[C@@H]23	
InChI=1S/C6H6O3/c7-2-6-4-1-3(9-6)5(6)8-4/h2-5H,1H2	InChI=1S/C6H6O3/c7-2-6-4-1-3(9-6)5(6)8-4/h2-5H,1H2/t3-,4-,5+,6+/m0/s1
