22
gdb 8880	4.00285	1.00676	0.96569	2.3918	78.76	-0.2363	-0.0059	0.2304	1368.7753	0.197317	-350.241575	-350.231015	-350.230071	-350.278334	36.83	
C	-0.0138533733	 1.5767813205	 0.0937508394	-0.397335
C	-0.0533614801	 0.0464749829	 0.0659557537	-0.159991
C	-1.4648204457	-0.5513749967	-0.0875443905	-0.062445
C	-2.1394416246	-0.1659773493	-1.4198637743	-0.392126
C	-1.3999606907	-2.0805338784	-0.018963684	 0.387043
O	-0.5575843798	-2.7027372713	-0.6273874145	-0.32294
C	-2.4560989539	-2.7731562296	 0.8304371239	-0.287624
C	-2.4189483175	-4.2960388543	 0.7442557299	-0.376729
H	 1.0060163392	 1.9323826566	 0.2704172954	 0.115972
H	-0.3524174292	 2.0144494647	-0.850213095	 0.119427
H	-0.6471173528	 1.979113624	 0.893004227	 0.110985
H	 0.5722987565	-0.3392619898	-0.7456341773	 0.119566
H	 0.3880115716	-0.3390795102	 0.9936504523	 0.094139
H	-2.0986842381	-0.1937597374	 0.7349770086	 0.069289
H	-1.5268327669	-0.4989498211	-2.263353824	 0.135608
H	-3.1270222245	-0.6293165259	-1.5171559079	 0.114372
H	-2.2762186162	 0.9157848744	-1.4948454671	 0.121105
H	-2.3114642978	-2.429524973	 1.8654500108	 0.122669
H	-3.4389291057	-2.3750204212	 0.5413287464	 0.119078
H	-3.1799416464	-4.7415884448	 1.3910873876	 0.108156
H	-2.5956999074	-4.633372628	-0.2805795477	 0.128618
H	-1.4397217865	-4.676985022	 1.0443550672	 0.133162
20.1455	71.5981	78.4918	160.709	181.3434	216.1304	227.0808	253.9497	278.7207	324.1904	339.8817	463.2893	564.5293	653.2847	763.879	804.3213	807.8001	840.882	963.3116	975.7547	991.6156	1024.4939	1041.8075	1063.5892	1110.2031	1125.8747	1141.8763	1195.6408	1276.356	1288.1132	1323.8818	1351.9854	1366.8053	1388.5338	1404.2961	1412.3306	1413.4687	1447.452	1483.8237	1491.4699	1494.8258	1496.6892	1500.6356	1506.129	1512.2872	1802.8675	3007.6834	3017.2072	3028.2693	3031.5427	3036.2204	3038.6841	3050.3535	3075.5692	3099.4368	3102.6597	3108.512	3120.1844	3122.1698	3127.3782
CCC(C)C(=O)CC	CC[C@@H](C)C(=O)CC	
InChI=1S/C7H14O/c1-4-6(3)7(8)5-2/h6H,4-5H2,1-3H3	InChI=1S/C7H14O/c1-4-6(3)7(8)5-2/h6H,4-5H2,1-3H3/t6-/m1/s1
