20
gdb 94886	2.52821	1.82111	1.44994	2.7214	77.86	-0.2142	0.066	0.2802	989.4831	0.173076	-403.102536	-403.094825	-403.093881	-403.13423	31.556	
O	 0.0564580974	 1.4548855889	 0.0047538815	-0.434286
C	 0.0617896699	 0.0295734106	 0.0230152469	 0.004765
C	 0.6622444002	-0.5285414396	 1.3548971074	-0.267308
C	-0.5087278418	-0.5476794376	 2.3887499716	-0.299844
C	-1.7275796673	-0.7226213731	 1.5143245589	 0.258572
C	-3.0769256269	 0.011982292	 1.3951496861	-0.272859
C	-2.7106144352	 0.3598087334	-0.0976201788	-0.274034
C	-1.3856138322	-0.395744917	 0.1037944829	 0.281509
N	-1.718656037	-1.7799728447	 0.4819276832	-0.412324
H	 0.9664452718	 1.7523021542	-0.0894170143	 0.284334
H	 0.6058079217	-0.3576491803	-0.8522150392	 0.064303
H	 1.0710550405	-1.533287809	 1.2002694016	 0.102667
H	 1.497493981	 0.0954202165	 1.6866193859	 0.098059
H	-0.366932216	-1.3191387701	 3.1538192926	 0.099648
H	-0.5723733633	 0.4159856303	 2.9053666389	 0.113605
H	-3.9654296142	-0.6027480019	 1.5564568362	 0.102812
H	-3.1293009124	 0.9017761105	 2.0265571067	 0.102781
H	-3.367512108	-0.0415386396	-0.8725966877	 0.100178
H	-2.5585552544	 1.4278884712	-0.2520757502	 0.121158
H	-0.8644978238	-2.3249401245	 0.5675898696	 0.226264
125.3562	193.3987	241.4598	269.1728	308.978	401.6447	451.681	480.2098	507.7362	640.0458	682.6218	721.4158	764.6939	776.9868	820.941	841.0118	908.217	929.569	943.6655	963.6054	987.2267	1028.8322	1059.3055	1070.0127	1100.4705	1120.0425	1187.0343	1193.386	1210.4314	1226.1561	1232.203	1239.3923	1280.2043	1300.178	1315.0295	1363.6152	1366.6904	1389.768	1433.8614	1463.8385	1479.4936	1485.2729	1495.4123	2977.746	3036.5777	3045.6821	3063.7334	3074.4166	3074.5939	3093.0351	3118.7676	3147.2954	3514.224	3825.1041
OC1CCC23CCC12N3	O[C@H]1CC[C@@]23CC[C@@]12N3	
InChI=1S/C7H11NO/c9-5-1-2-6-3-4-7(5,6)8-6/h5,8-9H,1-4H2	InChI=1S/C7H11NO/c9-5-1-2-6-3-4-7(5,6)8-6/h5,8-9H,1-4H2/t5-,6+,7+/m0/s1
