19
gdb 74921	2.84081	1.4998	1.33261	1.0651	80.68	-0.2133	0.0248	0.2381	1057.0213	0.159783	-385.865566	-385.857782	-385.856837	-385.897292	31.646	
C	 0.0652794629	 1.4727844441	 0.0401012205	-0.502184
C	-0.0323397726	-0.0175324777	-0.0469153186	 0.339519
C	-0.0869677702	-0.784945178	-1.1485941962	-0.203331
C	-0.0235445618	-2.2372319522	-0.7608823709	-0.173426
C	 1.4172334929	-2.5183967895	-0.1652152112	-0.218472
C	 0.8807918496	-2.1638789505	 1.2109804837	-0.117791
C	-0.0660785015	-0.9039856355	 1.15187579	-0.230592
C	-0.5314566338	-2.2742646172	 0.7392548979	 0.391292
O	-1.5593581681	-3.013176279	 1.275217569	-0.462387
H	 1.004421643	 1.7847920777	 0.5144300199	 0.127729
H	 0.0179321939	 1.9346806018	-0.9499655365	 0.122087
H	-0.7448217804	 1.8929831169	 0.650066361	 0.120226
H	-0.0306524591	-0.4292299721	-2.1709923822	 0.085179
H	-0.4038765012	-2.9713023873	-1.4700467642	 0.068678
H	 1.6580932426	-3.5833765258	-0.2153041276	 0.105827
H	 2.23832726	-1.9284613534	-0.5843701216	 0.090507
H	 1.3083331413	-2.4349741577	 2.1685712968	 0.091034
H	-0.3444632229	-0.5296211345	 2.1314765286	 0.078973
H	-2.3917662546	-2.5827274301	 1.0469278116	 0.287131
153.394	172.1738	243.0532	272.2944	321.2643	359.733	424.3923	446.527	549.55	580.0381	630.4209	704.2314	737.414	801.3438	837.5252	877.9491	890.6716	925.7641	940.7458	970.5007	1004.2747	1022.655	1039.3942	1060.7681	1066.3289	1120.918	1136.3552	1146.8719	1182.2861	1209.5813	1251.7038	1278.0652	1298.5166	1314.2037	1352.3506	1413.1881	1463.9734	1479.0203	1487.8194	1496.6337	1677.6097	3015.2489	3045.5369	3060.0023	3104.7145	3107.982	3122.6033	3172.1845	3190.9503	3194.8342	3781.0992
CC1=CC2CC3C1C23O	CC1=C[C@H]2C[C@H]3[C@@H]1[C@@]23O	
InChI=1S/C8H10O/c1-4-2-5-3-6-7(4)8(5,6)9/h2,5-7,9H,3H2,1H3	InChI=1S/C8H10O/c1-4-2-5-3-6-7(4)8(5,6)9/h2,5-7,9H,3H2,1H3/t5-,6-,7+,8+/m0/s1
