21
gdb 106578	2.65544	1.39878	1.24001	1.4106	82.5	-0.2341	0.0035	0.2376	1139.1353	0.183024	-387.064895	-387.056492	-387.055548	-387.097666	33.755	
C	 0.0669747216	 1.5397426119	 0.0774682115	-0.382819
C	-0.0083005826	 0.0160547161	-0.0814763095	-0.303849
C	-1.4154991386	-0.5404168502	-0.0124230415	 0.269877
C	-2.3259861442	-0.4599706974	 1.2666740855	-0.25394
C	-3.1270053484	-1.5779482349	 0.5229735566	-0.128118
C	-3.5531003754	-0.8180288344	-0.7379441273	-0.113817
C	-2.4480321593	-0.1464660831	-1.0852468962	-0.14133
C	-1.7102462153	-2.0958775871	 0.0670313444	 0.137985
O	-1.5547810719	-2.9174627268	-1.0426533682	-0.442034
H	 1.1012234275	 1.8916832969	 0.0146575274	 0.112984
H	-0.5069725157	 2.0535161391	-0.7009589417	 0.115374
H	-0.3354634021	 1.8568959537	 1.0453912679	 0.119016
H	 0.4415852488	-0.2795487518	-1.0384930284	 0.101893
H	 0.6006586702	-0.4605713888	 0.6971520238	 0.094668
H	-1.8272835976	-0.8048750632	 2.17902713	 0.093096
H	-2.8509677054	 0.4808792217	 1.4405340456	 0.098204
H	-3.8524895237	-2.2168067286	 1.0251150238	 0.06208
H	-4.5242600878	-0.8468315896	-1.2121673549	 0.102648
H	-2.2766809698	 0.5176204179	-1.921670952	 0.100887
H	-1.1591052531	-2.5715663429	 0.8839041204	 0.085046
H	-2.048886337	-2.5013220687	-1.7628714872	 0.272149
74.6074	149.6638	200.758	257.2065	272.247	327.4715	404.4014	483.5338	494.2258	574.1512	594.2286	629.9533	737.6121	769.1806	792.3865	808.6341	833.0555	871.0029	895.0639	918.531	947.2742	961.8691	978.7246	1029.6858	1064.6999	1085.2351	1110.0541	1134.8013	1161.7876	1180.2918	1198.9502	1217.79	1255.9143	1263.9001	1297.0207	1313.1956	1354.2913	1372.4892	1410.8281	1446.3662	1484.1264	1498.8416	1499.7483	1506.4041	1615.0205	3017.1747	3033.5772	3045.4831	3047.9828	3077.3001	3100.8541	3104.3436	3124.6418	3125.4374	3211.0064	3238.4656	3734.7593
CCC12CC(C=C1)C2O	CC[C@@]12C[C@@H](C=C1)[C@H]2O	
InChI=1S/C8H12O/c1-2-8-4-3-6(5-8)7(8)9/h3-4,6-7,9H,2,5H2,1H3	InChI=1S/C8H12O/c1-2-8-4-3-6(5-8)7(8)9/h3-4,6-7,9H,2,5H2,1H3/t6-,7-,8+/m1/s1
