18
gdb 40750	3.85341	1.17162	1.05368	0.7573	71.98	-0.2437	0.0551	0.2988	1172.6931	0.148752	-439.003427	-438.995817	-438.994873	-439.036244	28.788	
C	-0.0861982942	 1.4264190584	-0.0422147754	-0.23999
N	 1.1309444233	 0.6031495531	-0.1078419818	-0.32041
C	-0.1836050595	-0.0523906432	 0.0315461617	-0.024698
C	-0.4014938496	-0.750438042	 1.3378689892	 0.130045
O	-1.809005976	-0.8667863519	 1.7175533197	-0.321665
C	-1.6965927004	-2.2872502257	 1.9112996207	 0.07197
C	-2.0150925971	-3.0898872317	 0.6435161387	-0.093704
O	-0.6454848387	-2.948646302	 0.1760316388	-0.293844
C	-0.2473474816	-2.2847848264	 1.391719429	 0.032882
H	-0.1857932341	 2.0212710874	 0.8615935959	 0.12279
H	-0.4440112226	 1.9127725339	-0.9456194375	 0.114778
H	 1.4514898712	 0.52617683	-1.069026494	 0.236786
H	-0.5885509689	-0.5738928871	-0.8309137011	 0.099024
H	 0.1668371561	-0.2436172609	 2.1289207164	 0.085131
H	-2.0626853149	-2.6240520002	 2.8822297184	 0.089945
H	-2.2649802771	-4.145286652	 0.8109421668	 0.105284
H	-2.7449216525	-2.6293087773	-0.0301288742	 0.114799
H	 0.6403200066	-2.7234144423	 1.849130529	 0.090876
66.3998	103.6816	161.8909	256.6808	310.9309	395.3775	447.3361	541.6131	725.0973	800.5206	808.5399	873.7964	880.153	896.5212	926.6371	943.278	953.0625	996.082	1001.0479	1010.0915	1040.5129	1076.1405	1082.7151	1119.2472	1148.2236	1163.8806	1193.4605	1223.776	1238.2336	1249.8101	1278.1629	1285.0662	1297.2581	1317.6254	1336.046	1356.7665	1462.4541	1501.7148	1515.0763	3018.7201	3023.1948	3084.3326	3097.5436	3110.1757	3110.9672	3157.7187	3195.4299	3511.3941
C1NC1C1OC2COC12	C1N[C@H]1[C@H]1O[C@H]2CO[C@@H]12	
InChI=1S/C6H9NO2/c1-3(7-1)5-6-4(9-5)2-8-6/h3-7H,1-2H2	InChI=1S/C6H9NO2/c1-3(7-1)5-6-4(9-5)2-8-6/h3-7H,1-2H2/t3-,4+,5-,6-/m1/s1
