17
gdb 67881	2.85325	2.10726	1.4068	3.4538	71.9	-0.2237	0.0187	0.2423	910.2891	0.137034	-417.953957	-417.946648	-417.945704	-417.985412	29.036	
C	-0.0030241172	 1.5253193917	-0.0830574009	-0.467448
C	 0.006386308	 0.0125729445	-0.0344260976	 0.356067
N	 0.342814371	-0.5446987508	-1.3348767108	-0.344237
C	 0.3792084692	-1.8219710052	-1.3928755166	 0.076725
N	 0.0938007482	-2.6241045439	-0.3263355227	-0.312405
C	-0.2017786552	-1.9495289862	 0.9023932255	 0.01956
C	 0.6252107047	-0.6724820794	 1.2419933773	-0.025828
O	-0.5087715517	-0.2044173502	 2.0485341329	-0.299398
C	-1.1204252968	-0.6970684522	 0.8082847294	-0.020634
H	 0.9789737841	 1.8917716765	-0.3982449045	 0.118679
H	-0.7299255365	 1.8672777934	-0.8264600979	 0.118836
H	-0.2530776284	 1.9477007097	 0.8910479631	 0.128932
H	 0.6332199743	-2.3291890329	-2.3225255846	 0.117706
H	 0.2353240223	-3.6187209439	-0.3597627262	 0.251389
H	-0.4003900377	-2.6268921517	 1.730728259	 0.099084
H	 1.6284279887	-0.5848664205	 1.6590491777	 0.090935
H	-2.2041614971	-0.639901129	 0.7072382769	 0.092037
103.9993	212.5805	223.6512	325.0275	349.6876	385.2727	447.9597	585.3705	594.7806	629.0856	667.9953	776.4021	821.0803	843.6385	885.4047	901.4285	926.9599	960.8056	963.3199	1011.5576	1042.8476	1100.1272	1134.5397	1141.5604	1145.3521	1172.9701	1207.044	1227.4028	1256.8961	1298.9154	1355.8798	1399.0718	1404.5822	1489.5494	1490.5654	1494.2304	1688.8219	3044.7791	3104.5747	3116.5019	3121.73	3143.5447	3145.8343	3147.5163	3659.955
CC12N=CNC3C1OC23	C[C@@]12N=CN[C@H]3[C@@H]1O[C@@H]23	
InChI=1S/C6H8N2O/c1-6-4-3(5(6)9-4)7-2-8-6/h2-5H,1H3,(H,7,8)	InChI=1S/C6H8N2O/c1-6-4-3(5(6)9-4)7-2-8-6/h2-5H,1H3,(H,7,8)/t3-,4-,5+,6+
