18
gdb 49646	3.65522	1.50807	1.44176	3.251	75.25	-0.2371	-0.0298	0.2073	959.0236	0.149715	-401.898876	-401.892065	-401.891121	-401.930224	27.302	
O	-0.2349005753	 0.035261443	 0.1532437388	-0.245594
C	-0.0678715526	 1.193894867	-0.1359952945	 0.139123
C	 1.2278189196	 1.9342764986	 0.0212239619	-0.03911
C	 1.5047026074	 2.7899005466	 1.2971078109	-0.094536
C	 1.2812104761	 1.7354843901	 2.3973230619	-0.229379
C	 2.3838800633	 0.7931823885	 1.8597677191	 0.010505
C	 3.6538221023	 1.642384507	 2.0862985062	-0.24024
C	 3.0210328848	 2.469496128	 0.969710226	 0.01193
N	 2.4718398589	 1.1769120136	 0.356298229	-0.151477
H	-0.9036987525	 1.81384479	-0.5384601346	 0.073233
H	 1.4147385296	 2.5153763373	-0.8915248219	 0.09551
H	 1.1092271489	 3.7971555662	 1.4309998316	 0.069312
H	 1.5030320782	 2.1012436911	 3.4028634749	 0.099572
H	 0.2789015745	 1.3051380784	 2.3967369539	 0.116938
H	 2.3271297426	-0.2694471038	 2.0813611673	 0.089364
H	 3.8184296452	 2.0801652924	 3.0730106884	 0.097525
H	 4.5574735231	 1.1494784651	 1.7222214621	 0.117888
H	 3.5656384758	 3.1549358708	 0.3189461291	 0.079438
98.9311	142.0634	242.1206	367.7202	445.6757	494.8964	606.4843	697.9102	749.2628	781.0839	818.1138	833.0304	887.5894	893.0352	915.7011	943.7121	955.8783	973.453	992.3735	1008.3135	1021.8351	1050.875	1096.8577	1108.5941	1124.0702	1183.7063	1188.1742	1200.4014	1223.706	1231.5161	1254.978	1276.3979	1299.003	1331.1624	1375.3502	1420.7249	1481.8655	1519.2399	1820.5267	2852.2094	3030.4052	3069.6273	3075.1567	3104.1269	3114.4965	3125.7455	3134.2176	3154.9201
O=CC1C2CC3CC2N13	O=C[C@H]1[C@H]2C[C@@H]3C[C@H]2N13	
InChI=1S/C7H9NO/c9-3-7-5-1-4-2-6(5)8(4)7/h3-7H,1-2H2	InChI=1S/C7H9NO/c9-3-7-5-1-4-2-6(5)8(4)7/h3-7H,1-2H2/t4-,5+,6-,7+/m1/s1
