16
gdb 34584	3.58134	1.19138	0.92504	5.1665	85.05	-0.2419	-0.0748	0.1671	1207.8857	0.125929	-400.765548	-400.757783	-400.756838	-400.798232	28.892	
N	 0.1328720153	-1.1737945959	 0.0375629328	-0.336102
C	 0.0128312426	-0.0202583515	 0.0295620841	 0.214981
C	-0.0852491902	 1.4002013443	 0.0002334891	 0.125425
C	-1.2894271647	 1.9975934141	 0.1324313201	-0.124492
C	-1.5703688739	 3.420474817	 0.0762538917	-0.074156
C	-0.7151223452	 4.4557977433	 0.1259379394	-0.076781
C	 0.7647711804	 4.4545159868	 0.3633488501	-0.13788
O	 1.3451049877	 3.2321531873	 0.7440435663	-0.228301
C	 1.2071248745	 2.175008183	-0.187327662	-0.198691
H	-2.1554532377	 1.3533487129	 0.2539911148	 0.119309
H	-2.623790475	 3.6617475169	-0.0411094507	 0.104243
H	-1.1296794753	 5.4565486786	 0.0136999047	 0.109572
H	 1.2694584761	 4.8794017783	-0.5242036754	 0.110084
H	 0.9838127304	 5.1422796672	 1.1910139048	 0.135647
H	 2.0603825828	 1.5093831168	-0.0351435072	 0.137743
H	 1.260255422	 2.556326061	-1.2188952326	 0.1194
68.2386	151.3387	164.0793	265.3532	333.7554	369.9741	401.5903	500.9402	557.2694	576.3685	599.102	724.6932	791.7072	842.343	901.8548	954.3847	971.2102	992.0935	1011.2102	1041.6226	1069.1799	1144.2781	1201.3371	1250.9324	1278.9166	1329.454	1372.1805	1392.0459	1414.0981	1444.7938	1467.571	1481.6672	1651.2816	1698.683	2322.1599	2934.8765	2987.9851	3039.042	3098.3817	3138.9998	3161.2512	3178.4006
N#CC1=CC=CCOC1	N#CC1=CC=CCOC1	
InChI=1S/C7H7NO/c8-5-7-3-1-2-4-9-6-7/h1-3H,4,6H2	InChI=1S/C7H7NO/c8-5-7-3-1-2-4-9-6-7/h1-3H,4,6H2
