17
gdb 30757	3.09898	1.17622	0.88776	2.0593	72.74	-0.1867	0.0378	0.2245	1264.1492	0.136182	-455.159084	-455.149449	-455.148504	-455.193587	34.911	
N	-0.1154461163	 1.4541398743	-0.2034727353	-0.625538
C	-0.0645285298	 0.0456672005	-0.0362310023	 0.071085
C	-1.1393273822	-0.79290761	 0.191655226	 0.241016
C	-2.5942786944	-0.4998613535	 0.3238882316	-0.184544
O	-3.4016056839	-1.4314921618	-0.4018544559	-0.421091
N	-0.6539411764	-2.074659536	 0.2930207593	-0.299766
C	 0.7083916028	-2.087515337	 0.0817717653	-0.22828
C	 1.0958585919	-0.7791150929	-0.1017004889	 0.250803
O	 2.3408033158	-0.2502006007	-0.3148956707	-0.459652
H	 0.7567759302	 1.7783798044	-0.6077807346	 0.244396
H	-0.2229105576	 1.9367102373	 0.6832483793	 0.238391
H	-2.9432413719	-0.5894986788	 1.3606422447	 0.112174
H	-2.7690005743	 0.5381141846	 0.0078712211	 0.11443
H	-3.1365708992	-1.3675389304	-1.3261487295	 0.281789
H	-1.2514864773	-2.8818484558	 0.3251708621	 0.26225
H	 1.2766933502	-3.00346138	 0.0897945502	 0.107335
H	 2.9677784825	-0.9662816743	-0.4504352424	 0.295203
65.1399	122.8799	128.0102	197.9751	209.9284	255.8166	270.1386	303.4738	355.0129	391.4148	469.0172	543.1116	598.9618	626.2923	658.9434	704.5352	758.895	771.5192	861.4141	969.1273	993.3241	1049.181	1104.5042	1146.982	1191.2765	1236.2481	1256.6596	1305.3257	1344.2078	1377.4929	1416.141	1468.1507	1501.3881	1510.2662	1588.8792	1644.0064	1672.4418	3007.313	3042.5382	3257.8763	3496.9191	3574.8998	3685.8302	3800.8079	3842.5257
NC1=C(CO)NC=C1O	Nc1c(CO)[nH]cc1O	
InChI=1S/C5H8N2O2/c6-5-3(2-8)7-1-4(5)9/h1,7-9H,2,6H2	InChI=1S/C5H8N2O2/c6-5-3(2-8)7-1-4(5)9/h1,7-9H,2,6H2
