15
gdb 131714	2.72404	1.53357	0.9871	3.3691	73.14	-0.2366	-0.0753	0.1613	1115.9705	0.114366	-450.125934	-450.118144	-450.1172	-450.15851	28.998	
O	 0.1193817132	 1.3679687753	-0.1635276383	-0.426365
C	 0.0355414339	-0.0281273682	-0.1450238409	-0.111752
C	-1.3749766373	-0.5220315701	-0.0039419169	 0.302024
N	-2.3261301234	 0.3499450805	 0.0823287315	-0.349405
C	-3.6187770421	-0.1117941902	 0.2115762187	 0.072452
N	-3.9795584961	-1.3535010922	 0.2559398857	-0.17978
N	-2.9779258082	-2.2527037302	 0.1649468517	-0.292755
C	-1.6220166545	-1.9730208334	 0.0305929934	 0.346822
N	-0.6581768244	-2.8111117116	-0.0574633053	-0.547534
H	-0.7894051884	 1.6935787053	-0.0775959948	 0.293318
H	 0.457598903	-0.4699227157	-1.061663228	 0.135121
H	 0.6272128126	-0.4570220924	 0.6793142615	 0.135111
H	-4.4046592833	 0.6293685661	 0.2827165403	 0.142033
H	-3.2831218567	-3.2147797759	 0.201805105	 0.270814
H	-0.9774993582	-3.7802769674	-0.0193858936	 0.209895
91.3317	123.711	211.3417	228.4594	334.3417	347.0115	439.2665	508.955	544.4295	577.6912	602.4945	651.0382	751.3283	790.5236	810.0963	899.8291	915.5429	1009.5618	1080.4997	1111.8263	1136.3153	1189.3315	1221.058	1233.0991	1311.401	1374.0821	1395.9033	1446.0647	1462.3525	1480.5033	1582.0028	1649.1309	1706.0139	2990.1301	3000.6927	3221.7044	3463.4461	3606.8055	3701.4391
OCC1=NC=NNC1=N	OCc1ncn[nH]c1[NH]	
InChI=1S/C4H6N4O/c5-4-3(1-9)6-2-7-8-4/h2,9H,1H2,(H2,5,8)	InChI=1S/C4H11N4O/c5-4-3(1-9)6-2-7-8-4/h3-9H,1-2H2
