23
gdb 122346	3.3582	0.70254	0.66782	1.974	82.69	-0.2295	0.0518	0.2813	1816.3781	0.20411	-425.406241	-425.39559	-425.394646	-425.442695	38.949	
C	 0.2783270197	 1.4431692069	 0.2116259643	-0.379789
C	-0.0970206522	-0.0075966782	-0.1023479255	-0.161869
C	 0.7667007018	-0.6285292272	-1.2049993842	-0.155375
C	 0.3905253019	-2.0827566362	-1.5186805812	-0.201666
C	 1.2130011077	-2.6840355508	-2.6399369584	-0.096229
C	 2.6298049586	-3.163861776	-2.4218139675	 0.022146
O	 3.094235942	-3.1237902185	-1.0910976034	-0.423492
C	 1.5336471796	-4.1696300566	-2.6890257632	 0.072808
O	 1.160939024	-5.0025221483	-1.6334114561	-0.430016
H	 1.3199582589	 1.5190030215	 0.5432864166	 0.11284
H	 0.1679264169	 2.0807351389	-0.6728694412	 0.111112
H	-0.3539154932	 1.8595217289	 1.002337692	 0.1087
H	-0.009553507	-0.6144240815	 0.8087316858	 0.094296
H	-1.1538061276	-0.0573363428	-0.3975492891	 0.091647
H	 0.6802262424	-0.0221522987	-2.1178475375	 0.084243
H	 1.8229555539	-0.590770335	-0.9106178586	 0.10678
H	 0.4943887919	-2.6900524805	-0.6148085944	 0.098585
H	-0.6701171843	-2.1385869765	-1.7973947373	 0.095311
H	 1.0554122743	-2.2179768134	-3.6105437963	 0.084824
H	 3.386069798	-2.94652524	-3.1732852287	 0.088366
H	 3.8681359436	-3.6951198295	-1.0338367162	 0.296235
H	 1.4906285542	-4.6865383897	-3.6430467159	 0.097498
H	 1.684747245	-4.7162633368	-0.8722143843	 0.283046
49.0851	79.4156	91.936	123.8584	192.2485	210.5279	244.9028	270.8708	299.4255	332.3524	393.3139	508.2972	551.5637	618.381	656.5913	736.5652	764.9941	779.0553	801.9884	895.8067	918.7429	938.9571	1017.9857	1026.8856	1052.1594	1067.4514	1086.2006	1112.0616	1138.4046	1153.2453	1175.821	1232.59	1244.4213	1271.5354	1279.8284	1315.2345	1326.0319	1332.6077	1348.8899	1387.8924	1400.3827	1411.3992	1414.1169	1472.5306	1484.5595	1486.342	1499.0269	1499.447	1512.3669	3005.8319	3013.5436	3022.8544	3027.6074	3037.152	3059.3382	3088.1393	3094.6134	3099.0008	3114.9286	3127.9459	3153.5036	3739.6711	3801.6366
CCCCC1C(O)C1O	CCCC[C@H]1[C@@H](O)[C@H]1O	
InChI=1S/C7H14O2/c1-2-3-4-5-6(8)7(5)9/h5-9H,2-4H2,1H3	InChI=1S/C7H14O2/c1-2-3-4-5-6(8)7(5)9/h5-9H,2-4H2,1H3/t5-,6+,7-
