18
gdb 6143	4.46339	1.35033	1.24976	1.7497	74.07	-0.2504	0.0272	0.2776	1040.3887	0.150943	-347.763395	-347.75469	-347.753745	-347.796637	32.582	
C	-0.4268990701	 1.533869232	 0.0211642186	-0.430775
C	 0.0821135309	 0.102133755	-0.0647608352	 0.440964
C	-0.9818655379	-0.9176480551	 0.3173943931	-0.42511
C	 0.9024435948	-0.2425337248	-1.3350491973	-0.347717
C	 2.0981136153	-0.4125564616	-0.3626857291	-0.035883
O	 1.2710253499	-0.0662186931	 0.7731526617	-0.325935
C	 2.689175757	-1.7389908609	-0.26846104	 0.335662
C	 3.1773699012	-2.8357899567	-0.2034875055	-0.463676
H	 0.3625661753	 2.2441279816	-0.2407151816	 0.116892
H	-1.2717508237	 1.6873328226	-0.6592458819	 0.115007
H	-0.7623829793	 1.7567328103	 1.0390888281	 0.125613
H	-1.8380321629	-0.8589411688	-0.3637640442	 0.112757
H	-0.5735564545	-1.931077342	 0.2795690371	 0.126721
H	-1.3393452587	-0.7305276861	 1.3350921922	 0.123709
H	 0.6012820395	-1.1522657361	-1.8545184436	 0.11838
H	 1.0149720677	 0.571818416	-2.0522420672	 0.109753
H	 2.8932394323	 0.3313592913	-0.5014173999	 0.102891
H	 3.6118243631	-3.8027494137	-0.1390453053	 0.200746
38.7499	146.16	203.502	217.918	247.953	317.6951	332.7179	387.1925	423.8617	505.7652	541.2204	616.9876	662.9835	670.7471	781.1106	867.3845	888.6743	916.1377	958.4822	983.2525	993.2458	1019.1729	1058.3781	1111.445	1176.4173	1235.4142	1264.6739	1284.1661	1295.8511	1366.3048	1399.5732	1412.6179	1473.1679	1481.4745	1488.8731	1494.2241	1505.2018	2232.8361	3014.9077	3030.0817	3035.9075	3084.8581	3100.511	3107.7636	3112.6752	3119.0095	3145.6186	3503.47
CC1(C)CC(O1)C#C	CC1(C)C[C@@H](O1)C#C	
InChI=1S/C7H10O/c1-4-6-5-7(2,3)8-6/h1,6H,5H2,2-3H3	InChI=1S/C7H10O/c1-4-6-5-7(2,3)8-6/h1,6H,5H2,2-3H3/t6-/m0/s1
