15
gdb 128230	2.19618	1.5985	0.93325	6.3389	76.04	-0.212	-0.0235	0.1885	1187.005	0.114884	-413.01401	-413.005748	-413.004804	-413.047173	29.934	
C	 0.0309273905	 1.4102076154	 0.0871182481	-0.331106
N	-0.0098872289	-0.0105132798	-0.1997066062	-0.405154
C	-1.2042927093	-0.6858981634	-0.0730405075	 0.19912
C	-2.4954615104	-0.1878251209	-0.0275192213	-0.119133
N	-3.3159453548	-1.279185893	 0.0437147262	-0.181596
N	-2.6782852712	-2.4407848066	 0.0599795821	-0.280826
C	-1.3813769158	-2.1004705438	-0.010988319	 0.180306
C	-0.3385852295	-3.0598640946	-0.0067102677	 0.232724
N	 0.5725937225	-3.7756928771	 0.0001110723	-0.361708
H	 1.0575742021	 1.7665287437	-0.0170564523	 0.136038
H	-0.5839299953	 1.9559359282	-0.637765649	 0.133185
H	-0.328744976	 1.661766103	 1.0974952588	 0.116813
H	 0.7919311742	-0.5347254821	 0.1178141727	 0.255077
H	-2.8818083741	 0.8166475069	-0.044869904	 0.140358
H	-4.3212838741	-1.2808586059	 0.0894383068	 0.2859
92.9758	119.6457	168.1583	189.4985	229.1683	336.0604	403.0362	501.2816	511.0536	553.0425	565.6959	630.0665	662.0654	702.7666	756.4437	761.8208	950.6435	1067.427	1091.8308	1140.1907	1163.5946	1204.7054	1261.7812	1349.9412	1376.4579	1434.1823	1465.0209	1479.4843	1486.956	1518.0175	1555.0216	1634.4121	2340.9961	2978.9941	3058.9234	3127.4351	3284.5219	3605.2769	3669.8348
CNC1=CNN=C1C#N	CNc1c[nH]nc1C#N	
InChI=1S/C5H6N4/c1-7-5-3-8-9-4(5)2-6/h3,7H,1H3,(H,8,9)	InChI=1S/C5H6N4/c1-7-5-3-8-9-4(5)2-6/h3,7H,1H3,(H,8,9)
