19
gdb 110673	3.11942	1.50958	1.34432	2.4699	74.33	-0.2226	0.0806	0.3032	1029.6514	0.160371	-422.980953	-422.97335	-422.972406	-423.013188	29.52	
C	-0.0294015567	 1.3653158642	 0.1661936135	-0.240792
O	 0.0173760156	 0.0185649307	-0.2507069372	-0.242496
C	-1.2037047672	-0.6556837949	-0.1020446892	 0.179491
C	-1.2861134645	-2.036376968	-0.7195203242	-0.173233
C	-0.7091559029	-3.0792068566	 0.2184469288	 0.12997
O	 0.262872389	-2.7192435562	 1.1668556935	-0.266439
C	-0.3297950133	-1.737147771	 2.0253485371	-0.069087
C	-1.5893153287	-1.2723499327	 1.2921041344	-0.152679
C	-2.0551840007	-2.5392547124	 0.5263241551	-0.127345
H	 0.9522876686	 1.8018294485	-0.0318760911	 0.129857
H	-0.7912801956	 1.9351717233	-0.3890314429	 0.104214
H	-0.2464896854	 1.4624926205	 1.240869975	 0.103565
H	-2.0302003205	-0.0265698991	-0.4664126751	 0.066636
H	-1.4720424365	-2.2493007479	-1.7663406975	 0.084636
H	-0.5734463985	-4.0803917932	-0.1726266911	 0.105202
H	-0.5700850481	-2.1833607608	 3.0018868456	 0.089216
H	 0.3935293445	-0.9290276569	 2.1698927152	 0.113165
H	-2.3035984825	-0.7252068017	 1.905730886	 0.073206
H	-2.9901856167	-3.0739231457	 0.6150646139	 0.092914
94.9532	138.0383	167.3413	260.1626	269.3753	400.224	518.9821	537.117	659.9468	720.6243	769.4906	803.7215	833.343	838.8926	896.7019	931.5831	984.5573	987.8179	1019.932	1029.1463	1044.9171	1059.5103	1069.0426	1084.6086	1133.9564	1158.1916	1177.9908	1185.2438	1223.6394	1228.9299	1241.253	1252.9737	1296.3561	1340.5941	1369.8841	1390.741	1422.7857	1481.1518	1489.4925	1506.2317	1508.2783	2970.9197	2984.7488	2992.6024	3017.767	3081.7455	3116.498	3124.5931	3171.4483	3192.232	3214.4311
COC1C2C3OCC1C23	CO[C@H]1[C@H]2[C@H]3OC[C@@H]1[C@@H]23	
InChI=1S/C7H10O2/c1-8-6-3-2-9-7-4(3)5(6)7/h3-7H,2H2,1H3	InChI=1S/C7H10O2/c1-8-6-3-2-9-7-4(3)5(6)7/h3-7H,2H2,1H3/t3-,4+,5+,6-,7+/m1/s1
