19
gdb 88398	2.0959	1.32586	0.89076	2.2575	82.82	-0.2484	-0.0299	0.2185	1324.8546	0.155805	-385.850013	-385.839968	-385.839024	-385.885834	35.911	
C	 0.22242985	 1.5753621602	-0.3430253424	-0.40999
C	 0.0438749245	 0.1012076281	-0.0443468442	-0.005444
C	 1.2149590208	-0.851377265	-0.0843363088	-0.301042
C	 0.5334798154	-0.5548741577	 1.2290664588	-0.002551
C	 1.2543518296	 0.2298269399	 2.3289096312	-0.2839
C	 0.1959201247	 0.9292805528	 3.1938386159	 0.171391
O	-0.0313001725	 2.1078336542	 3.1579987926	-0.245112
C	 2.0717790156	-0.640281653	 3.1684240726	 0.301007
C	 2.7015236625	-1.3571196169	 3.8997468827	-0.430192
H	 1.2148496944	 1.9357117025	-0.057835133	 0.119283
H	 0.1080617122	 1.7595295016	-1.4165422817	 0.11702
H	-0.5140761788	 2.1869510074	 0.1871224486	 0.13692
H	-0.8961247134	-0.3039193623	-0.4108228497	 0.089063
H	 1.0900180775	-1.8370431461	-0.5186282116	 0.116319
H	 2.1991086355	-0.4199360124	-0.2406311844	 0.116881
H	-0.0937214361	-1.3477013802	 1.627535598	 0.096063
H	 1.8715927482	 1.0181612004	 1.8877577368	 0.121885
H	-0.3753158712	 0.2384398481	 3.8526534454	 0.091005
H	 3.278170121	-1.9869324815	 4.5312496331	 0.201392
45.1649	64.8243	108.6505	153.7463	165.8629	216.8797	236.6069	327.705	381.8794	442.6289	499.6594	510.3424	526.8411	633.7836	648.0714	771.9297	832.9226	871.362	901.7907	945.3928	961.1712	1021.5004	1061.4012	1070.6618	1073.5326	1113.38	1148.438	1157.7978	1197.8976	1233.2778	1245.3915	1288.3458	1384.6527	1409.6404	1420.9021	1427.8178	1489.1589	1492.5855	1503.2956	1836.8063	2233.3672	2890.155	3037.2057	3070.9054	3099.563	3109.213	3128.5017	3134.7877	3145.9137	3213.796	3503.4324
CC1CC1C(C=O)C#C	C[C@H]1C[C@H]1[C@@H](C=O)C#C	
InChI=1S/C8H10O/c1-3-7(5-9)8-4-6(8)2/h1,5-8H,4H2,2H3	InChI=1S/C8H10O/c1-3-7(5-9)8-4-6(8)2/h1,5-8H,4H2,2H3/t6-,7+,8+/m0/s1
