20
gdb 100243	2.60931	1.11412	0.96507	5.3196	79.19	-0.2644	-0.0395	0.2248	1313.7844	0.167746	-403.181519	-403.170937	-403.169992	-403.217578	37.349	
C	-0.2493754319	 1.620100163	-0.0497441678	-0.413623
C	-0.0629397417	 0.1023674206	 0.0629394163	-0.196903
C	 0.7393414925	-0.4098831419	 1.2975624781	 0.140367
C	 0.0446665861	-0.0344809555	 2.615375234	-0.446459
C	 0.8859248557	-1.9458313992	 1.1392869664	-0.363561
C	 1.5128602882	-2.5991746088	 2.2862674841	 0.269938
N	 1.99401683	-3.107043095	 3.2060373538	-0.317699
C	 2.1290693935	 0.228392871	 1.2451263586	 0.167657
O	 3.0907570724	-0.2803738396	 0.7305295922	-0.258006
H	 0.704580285	 2.1469454265	-0.1489469526	 0.129534
H	-0.8429108257	 1.8541857123	-0.9382016836	 0.128608
H	-0.7761555292	 2.0359997378	 0.8137193489	 0.127517
H	-1.0481598859	-0.379992685	 0.0932573644	 0.106531
H	 0.4365177296	-0.2652038561	-0.8415069828	 0.116832
H	-0.9885563181	-0.3964272064	 2.6224849895	 0.125835
H	 0.5612401505	-0.4716600725	 3.4744715987	 0.154437
H	 0.0196083953	 1.0497528585	 2.7566361918	 0.127408
H	-0.1015431757	-2.393856329	 0.9841270109	 0.144806
H	 1.4927369261	-2.1547670693	 0.2534002574	 0.168155
H	 2.1949338935	 1.2387401786	 1.7064195219	 0.088625
55.6678	73.8149	85.3969	130.6536	205.0277	245.6446	256.8585	269.4263	316.3972	348.8193	370.9341	387.2855	414.5139	558.0201	587.5246	782.1443	789.1563	849.7362	900.2419	933.9793	960.6982	998.0136	1020.2116	1051.3821	1083.5954	1172.6751	1188.2522	1221.8418	1269.9336	1327.3676	1343.54	1371.8876	1412.7299	1418.1845	1430.6337	1450.0709	1480.8288	1494.3181	1500.2829	1504.8937	1511.9764	1827.3969	2361.4793	2885.3368	3020.6373	3040.5735	3045.4654	3053.5278	3060.7404	3103.609	3109.6933	3111.6873	3116.2109	3121.1809
CCC(C)(CC#N)C=O	CC[C@@](C)(CC#N)C=O	
InChI=1S/C7H11NO/c1-3-7(2,6-9)4-5-8/h6H,3-4H2,1-2H3	InChI=1S/C7H11NO/c1-3-7(2,6-9)4-5-8/h6H,3-4H2,1-2H3/t7-/m0/s1
