17
gdb 70375	2.41168	1.60668	1.35681	3.7005	72.3	-0.2431	0.0067	0.2498	1020.1162	0.13491	-417.971998	-417.963378	-417.962434	-418.004714	32.992	
C	-0.0723074403	 1.5737907335	 0.0044520051	-0.450046
C	 0.0562323296	 0.0593111375	 0.04724771	 0.192196
O	 1.1010133105	-0.4650003346	-0.8185411491	-0.317691
C	 1.6653407056	-1.2296539797	 0.2594983101	 0.074723
C	 2.175188915	-0.3089908848	 1.3213003501	-0.346398
C	 0.7005902282	-0.6608320599	 1.2745415169	 0.222408
N	 0.0530831643	-1.27672891	 2.3665590188	-0.594962
C	-1.2260056855	-0.588638392	-0.2815589188	 0.27567
N	-2.2372315623	-1.1123248101	-0.4804901119	-0.343337
H	 0.8704444024	 2.0402201609	 0.2963014306	 0.133225
H	-0.3278349989	 1.9050149887	-1.0058538695	 0.149967
H	-0.8620289735	 1.9058975696	 0.6850758028	 0.137378
H	 2.0079302519	-2.2337489622	 0.0461944483	 0.122191
H	 2.6844999488	-0.7939068427	 2.1475997449	 0.134467
H	 2.5473066983	 0.6738663784	 1.0508264204	 0.11992
H	-0.1993976815	-0.6098454968	 3.0885084684	 0.238683
H	-0.7840691026	-1.7749394358	 2.0798980028	 0.251606
129.2058	135.0776	198.3519	219.4661	244.8122	310.3596	356.7237	386.9129	456.3577	478.0878	535.308	560.4995	648.8265	678.2706	774.8674	846.9436	862.9916	879.1821	913.8631	951.3742	988.8313	1026.7699	1052.2785	1084.0786	1112.2877	1178.75	1198.2359	1213.8794	1267.459	1300.458	1402.8432	1412.8595	1476.8281	1484.4902	1493.6657	1663.5585	2348.7548	3049.6673	3122.3094	3128.3068	3139.9896	3206.6115	3224.0873	3496.641	3577.3279
CC1(OC2CC12N)C#N	C[C@]1(O[C@H]2C[C@@]12N)C#N	
InChI=1S/C6H8N2O/c1-5(3-7)6(8)2-4(6)9-5/h4H,2,8H2,1H3	InChI=1S/C6H8N2O/c1-5(3-7)6(8)2-4(6)9-5/h4H,2,8H2,1H3/t4-,5-,6-/m0/s1
