19
gdb 66942	2.54537	1.93339	1.38807	2.5632	78.9	-0.226	0.0691	0.2951	987.8066	0.160406	-381.985208	-381.977599	-381.976655	-382.016855	30.499	
C	 0.0357106417	 1.493347115	 0.0835069083	-0.520123
C	-0.0600206619	 0.0069537596	-0.0607516223	 0.240998
C	-0.9763100431	-0.8557957709	 0.7570446622	-0.088168
C	-1.062610395	-2.2404272347	 0.1366641023	-0.245581
C	 0.4213665486	-2.0016609496	-0.2020802375	-0.1002
N	 0.5118100915	-0.9496433255	 0.9621150687	-0.196085
C	 0.4262700963	-0.8534378357	-1.1995270265	 0.372311
C	 0.2396758386	-0.7698189705	-2.6605513369	-0.329818
N	 1.575236218	-0.5610565547	-2.042139621	-0.382601
H	 1.0308933386	 1.8570181168	-0.1958359111	 0.125424
H	-0.7051343424	 2.0019247374	-0.5438345386	 0.124603
H	-0.1413399828	 1.7872015859	 1.1221451028	 0.138877
H	-1.6176773425	-0.4278935601	 1.5210263042	 0.093028
H	-1.1833670723	-3.003834303	 0.9094213834	 0.112789
H	-1.7594917	-2.4258503963	-0.68730483	 0.098427
H	 1.1548035141	-2.8020567307	-0.2660125934	 0.094602
H	 0.1556350336	-1.6711054459	-3.2621688735	 0.119759
H	-0.2886246297	 0.0920131094	-3.0618579819	 0.110706
H	 1.7981708585	 0.4318651834	-2.0166220591	 0.231051
154.7929	179.109	220.0078	235.6604	279.1002	366.0252	463.8729	506.4389	600.8585	629.6026	743.1541	789.0685	800.9227	823.2714	891.5869	923.7437	933.1809	945.4773	969.775	992.73	995.6986	1022.5352	1041.6912	1077.2199	1088.8618	1118.1144	1144.8394	1174.0644	1210.7403	1232.1588	1255.7397	1268.8929	1283.9089	1312.7409	1397.1057	1424.4765	1453.1941	1484.3795	1491.1962	1495.5137	1520.8396	3028.3655	3044.0647	3089.1574	3101.1981	3106.134	3110.8907	3151.8865	3164.4598	3185.0249	3486.5629
CC12C3CC(N13)C21CN1	C[C@]12[C@H]3C[C@H](N13)[C@]12CN1	
InChI=1S/C7H10N2/c1-6-4-2-5(9(4)6)7(6)3-8-7/h4-5,8H,2-3H2,1H3	InChI=1S/C7H10N2/c1-6-4-2-5(9(4)6)7(6)3-8-7/h4-5,8H,2-3H2,1H3/t4-,5+,6-,7+,9?/m1/s1
