21
gdb 72165	2.3195	2.11266	1.65862	1.6391	80.55	-0.2305	0.0841	0.3146	947.8178	0.185465	-387.092016	-387.084826	-387.083881	-387.123048	30.359	
C	-0.0155722015	 1.5441125498	-0.0117558096	-0.509862
C	-0.023765077	 0.0337592448	-0.0364674099	 0.303421
C	 0.2895001027	-0.800482404	-1.308294869	-0.287095
C	-0.3417650874	-1.9190140247	-0.4565629938	 0.08683
O	 0.6304119952	-2.0977972392	 0.5871584418	-0.294705
C	 0.71361768	-0.7394663733	 1.0959466946	 0.072053
C	-0.2236386483	-0.6899448934	 2.3045879426	-0.218423
C	-1.6045348811	-0.9966834937	 1.6474014385	-0.237563
C	-1.3111489956	-0.8524961273	 0.1481439013	-0.061002
H	 0.9957884179	 1.9356522876	-0.1731152322	 0.119226
H	-0.6584740301	 1.9535925893	-0.7978491184	 0.117484
H	-0.3730047326	 1.9381158364	 0.9457414404	 0.11878
H	-0.3269996922	-0.4921443039	-2.1566229472	 0.093313
H	 1.3304039283	-0.9391699235	-1.6114694442	 0.09467
H	-0.6573243656	-2.8876007121	-0.8432359262	 0.072266
H	 1.7570555193	-0.4724298223	 1.2809006339	 0.064996
H	 0.0676908571	-1.4293278059	 3.0541570846	 0.105016
H	-0.2084381218	 0.2961768077	 2.7825189283	 0.092064
H	-1.9570732736	-2.0023261731	 1.8941285691	 0.106903
H	-2.3778608051	-0.2944981289	 1.9720966039	 0.096041
H	-2.1520667085	-0.5995983102	-0.4987827585	 0.065586
189.5495	207.0843	249.1293	273.0115	395.7611	413.8443	489.5387	569.6211	625.991	693.3276	730.0944	798.21	817.7536	858.9243	883.3088	904.45	915.4963	921.3329	941.3352	981.3272	992.3585	1021.5915	1029.2938	1047.3654	1097.2224	1114.9915	1118.1929	1185.508	1209.2783	1214.5515	1228.2605	1246.1309	1253.206	1275.255	1297.5169	1300.567	1328.9453	1351.1945	1368.3176	1413.9821	1476.1479	1490.1172	1494.3053	1495.6285	1500.4218	3025.2362	3041.0602	3055.617	3057.9311	3083.3618	3087.7918	3088.9614	3095.7231	3107.7956	3109.2539	3120.4926	3126.9146
CC12CC3OC1CCC23	C[C@@]12C[C@H]3O[C@@H]1CC[C@@H]23	
InChI=1S/C8H12O/c1-8-4-6-5(8)2-3-7(8)9-6/h5-7H,2-4H2,1H3	InChI=1S/C8H12O/c1-8-4-6-5(8)2-3-7(8)9-6/h5-7H,2-4H2,1H3/t5-,6-,7-,8+/m1/s1
