18
gdb 91680	3.24161	1.27768	1.12912	5.3572	76.06	-0.2785	0.0356	0.3141	1111.7974	0.149928	-401.952037	-401.944435	-401.943491	-401.983982	30.043	
O	-0.1439420778	 1.4018284089	 0.013323325	-0.438373
C	-0.0342767636	-0.0101116055	 0.0223505919	 0.11832
C	 0.4802882954	-0.6078108407	 1.3795346308	-0.272655
C	-0.7789225246	-1.3879063482	 1.7951175599	-0.020018
C	-1.1668994258	-2.0854193575	 0.4587349466	-0.254106
C	-1.4399737904	-0.6264682164	-0.0011897128	-0.022993
C	-1.9053179778	-0.3401429675	 1.4707578712	-0.142673
C	-3.2540388836	-0.7741855867	 1.7868286194	 0.263796
N	-4.3294357572	-1.109579261	 2.0495253251	-0.337729
H	 0.7406523582	 1.7761999564	 0.0689810743	 0.287145
H	 0.5594283106	-0.357455825	-0.8339708947	 0.074812
H	 1.3460655416	-1.2645186689	 1.2573426317	 0.104993
H	 0.7421853015	 0.1906652397	 2.0798318244	 0.104582
H	-0.7676767844	-1.9162921757	 2.747290419	 0.0848
H	-0.3892311746	-2.6495938973	-0.063526709	 0.098035
H	-2.0795609555	-2.6780770727	 0.5321623525	 0.134513
H	-2.0735533067	-0.3812890648	-0.8514835699	 0.090132
H	-1.7508364252	 0.6806960228	 1.8265540245	 0.127417
129.4574	159.4143	199.3275	279.5802	318.0163	427.5489	446.9041	496.0689	530.8805	545.9511	670.2416	819.9766	838.8857	862.0684	887.8688	901.2301	946.4823	961.7138	987.0263	1011.2377	1041.7162	1057.6822	1086.5053	1089.4928	1138.2782	1179.5936	1181.2882	1227.742	1233.677	1255.5535	1271.4685	1282.9415	1308.7028	1336.3	1364.51	1422.6469	1487.2366	1512.5837	2351.4057	3007.4678	3055.6681	3065.3392	3095.5522	3105.6584	3129.5295	3136.4159	3142.4877	3823.5341
OC1CC2CC1C2C#N	O[C@H]1C[C@@H]2C[C@H]1[C@H]2C#N	
InChI=1S/C7H9NO/c8-3-6-4-1-5(6)7(9)2-4/h4-7,9H,1-2H2	InChI=1S/C7H9NO/c8-3-6-4-1-5(6)7(9)2-4/h4-7,9H,1-2H2/t4-,5-,6-,7-/m0/s1
