23
gdb 64018	1.88285	1.77903	1.4664	1.2638	85.85	-0.2362	0.0258	0.262	1099.7256	0.204132	-388.309388	-388.29971	-388.298766	-388.34254	38.999	
C	-0.0317373266	 1.5636678288	-0.0786684853	-0.439222
C	-0.0115993852	 0.0318001644	 0.0015834461	 0.351213
O	-1.3515785317	-0.4541359123	 0.0182352106	-0.478374
C	 0.8306941642	-0.5369805957	-1.1812784992	-0.315524
C	 2.2002163602	-0.703552229	-0.5736279342	-0.082146
C	 2.1473413506	-0.669939855	 0.7561735058	-0.081052
C	 0.7323009064	-0.5106192396	 1.2830413001	 0.228252
C	 0.65302403	 0.4151673937	 2.5070163242	-0.446863
C	 0.1854311575	-1.8998636721	 1.6859716012	-0.404682
H	 0.9795007759	 1.9803424146	-0.0684339969	 0.124449
H	-0.5052059354	 1.8752251153	-1.0182783432	 0.098039
H	-0.600656828	 1.9967399041	 0.7469311329	 0.122158
H	-1.8286549471	-0.0268528968	-0.7002775974	 0.274271
H	 0.4137372525	-1.4994188162	-1.5063461106	 0.109901
H	 0.8188394775	 0.125608384	-2.0555516089	 0.088516
H	 3.0960675366	-0.8567742652	-1.1654433199	 0.089354
H	 2.9924545303	-0.7965634557	 1.4256857661	 0.085581
H	 1.1270744313	 1.3842739684	 2.3306043751	 0.111521
H	-0.3877842708	 0.5888425936	 2.7999615061	 0.120602
H	 1.1605648726	-0.0490654857	 3.3596022682	 0.107119
H	 0.8098741717	-2.3290270073	 2.4769673798	 0.098556
H	-0.8398509057	-1.8222903608	 2.0560295606	 0.123881
H	 0.1867901632	-2.5939249453	 0.8419270888	 0.114448
96.8632	235.3826	246.7902	253.3678	264.2555	279.4517	301.3641	319.3522	346.0526	360.9282	382.3206	444.8148	494.296	524.5797	575.4524	650.3785	726.3867	758.622	845.0132	904.1035	939.6439	954.8365	956.6404	971.4114	974.5527	987.42	1018.2111	1083.0384	1100.5836	1133.9404	1156.9829	1191.4083	1228.0669	1238.5924	1248.0634	1294.6704	1354.0421	1382.325	1394.8867	1403.773	1422.5038	1479.107	1483.7691	1484.6673	1494.5575	1498.0659	1507.7034	1517.4867	1684.7705	3013.8064	3025.6168	3031.8518	3039.1103	3047.3676	3092.943	3095.5184	3107.8752	3114.2798	3125.8748	3130.3911	3171.2872	3198.4553	3813.7348
CC1(O)CC=CC1(C)C	C[C@@]1(O)CC=CC1(C)C	
InChI=1S/C8H14O/c1-7(2)5-4-6-8(7,3)9/h4-5,9H,6H2,1-3H3	InChI=1S/C8H14O/c1-7(2)5-4-6-8(7,3)9/h4-5,9H,6H2,1-3H3/t8-/m1/s1
