22
gdb 74414	2.67413	1.38016	1.0736	1.4992	88.98	-0.2159	0.0248	0.2407	1242.9352	0.19319	-367.218576	-367.209151	-367.208207	-367.251903	36.688	
C	 0.0481572292	 1.5056591622	 0.0515726743	-0.486003
C	-0.0452548848	 0.0148463958	-0.013065246	 0.312033
C	-0.1099398719	-0.7499509009	-1.1069602307	-0.209042
C	-0.1146151461	-2.207991905	-0.7685071109	 0.268301
C	-0.7997583382	-3.1913769148	-1.6809242969	-0.498464
N	 1.1533210062	-2.5948924985	-0.0656352737	-0.409866
C	-0.0631245635	-2.2763049355	 0.7252996517	 0.275894
C	-0.7033447112	-3.3442686884	 1.5734704387	-0.493488
C	-0.0444747266	-0.836735149	 1.2448573139	-0.350714
H	 0.9896268257	 1.8237781589	 0.5175137101	 0.128109
H	-0.0042178503	 1.955759453	-0.9435830974	 0.121787
H	-0.7592770243	 1.9298698957	 0.6627047849	 0.119805
H	-0.1164696306	-0.3832256434	-2.128128177	 0.083745
H	-0.2711126575	-3.2658967238	-2.6385852076	 0.12503
H	-0.836289171	-4.1947674215	-1.2458755602	 0.112961
H	-1.8279192691	-2.8792467589	-1.8948112484	 0.123911
H	 1.2360797305	-3.6121318293	-0.1030612915	 0.210749
H	-0.7639537777	-4.3015595982	 1.0463794116	 0.112486
H	-0.1261469907	-3.5092501675	 2.4912967387	 0.124298
H	-1.7189913699	-3.0594804674	 1.870220832	 0.120519
H	 0.84131229	-0.6459398475	 1.8639488548	 0.112647
H	-0.9220186183	-0.6231541461	 1.8722457895	 0.095301
138.3571	172.3428	181.7568	193.4638	219.0299	241.4099	254.5164	354.97	387.989	427.7119	467.3265	518.1971	556.2544	575.5019	714.0636	729.1278	826.828	861.469	891.5017	924.5598	947.388	974.2087	1018.4504	1030.5394	1047.8199	1072.8726	1104.6422	1117.7845	1137.168	1174.097	1204.0778	1241.8965	1311.4795	1344.068	1374.6114	1410.5451	1414.6829	1415.7655	1426.5126	1465.3442	1478.256	1480.0577	1487.629	1492.7067	1493.3283	1509.6119	1712.	3003.9479	3014.8103	3022.7346	3026.9948	3047.751	3059.6368	3081.6922	3084.7566	3097.36	3104.6876	3108.4655	3183.2218	3440.6996
CC1=CC2(C)NC2(C)C1	CC1=C[C@@]2(C)N[C@@]2(C)C1	
InChI=1S/C8H13N/c1-6-4-7(2)8(3,5-6)9-7/h4,9H,5H2,1-3H3	InChI=1S/C8H13N/c1-6-4-7(2)8(3,5-6)9-7/h4,9H,5H2,1-3H3/t7-,8+/m1/s1
