18
gdb 18128	3.40425	2.26706	1.78174	0.4262	66.4	-0.2454	0.0793	0.3247	799.6832	0.156783	-384.955577	-384.948891	-384.947947	-384.986712	25.735	
C	-0.0524104003	 1.3730484828	 0.1840709263	-0.0792
C	 1.3761498583	 1.9188135548	 0.1262186764	-0.237987
C	 2.2049020081	 0.6907962303	 0.5166932413	 0.099548
O	 2.3139961702	 0.5406933026	 1.9341311263	-0.281801
C	 1.525193551	-0.5621632873	 2.3811461366	-0.0792
C	 1.3927221285	-1.4902749463	 1.1715801483	-0.237986
C	 1.355999242	-0.4959055675	 0.0065875255	 0.099547
O	 0.0402980503	 0.0101415183	-0.2309166275	-0.281801
H	-0.4570522463	 1.4403327817	 1.2051401046	 0.097786
H	-0.7472704339	 1.8837114548	-0.4893497499	 0.105975
H	 1.6295449691	 2.2256089129	-0.8943116408	 0.103333
H	 1.5549137135	 2.7582392085	 0.800763067	 0.114409
H	 3.2168460818	 0.7166622386	 0.0997374711	 0.077938
H	 2.037025528	-1.0188343097	 3.2335436904	 0.105975
H	 0.5369978866	-0.2185546602	 2.722096453	 0.097786
H	 2.2755927732	-2.1322605413	 1.0809784064	 0.103332
H	 0.5009010697	-2.1193535083	 1.1943273436	 0.114409
H	 1.7261865102	-0.9294965546	-0.9280313585	 0.077937
78.305	178.6136	180.0861	369.8922	387.6739	570.3711	650.643	665.6874	823.5996	830.8547	848.7191	858.0604	908.455	909.9157	954.4706	961.8417	1018.1226	1027.3697	1053.4771	1071.3242	1129.5333	1136.4632	1194.5499	1216.5986	1219.9049	1232.6094	1290.085	1296.9477	1318.4841	1341.3606	1350.8055	1362.2294	1391.9732	1401.9534	1472.6444	1472.885	1520.1819	1530.9429	2985.9866	2992.0157	3042.9566	3046.6447	3054.9089	3063.9039	3077.8338	3081.2373	3123.0709	3123.7695
C1CC2OCCC2O1	C1C[C@H]2OCC[C@H]2O1	
InChI=1S/C6H10O2/c1-3-7-6-2-4-8-5(1)6/h5-6H,1-4H2	InChI=1S/C6H10O2/c1-3-7-6-2-4-8-5(1)6/h5-6H,1-4H2/t5-,6-/m1/s1
