20
gdb 82459	2.75141	1.69086	1.5261	1.0555	77.79	-0.2208	0.0687	0.2895	980.8995	0.172576	-403.096257	-403.088674	-403.087729	-403.127644	31.371	
C	-0.0175530418	 1.5318171261	-0.0258664401	-0.502575
C	 0.0221759888	 0.0278161697	-0.0512252287	 0.368487
C	 0.1274254643	-0.7903708729	-1.342207852	-0.277486
C	-0.4495480928	-1.887975534	-0.4312363521	-0.065605
C	 0.7480719045	-2.168500655	 0.5229149034	 0.145982
O	 1.9913956525	-2.4242203038	-0.1045386626	-0.446755
C	 0.6992316744	-0.7680704773	 1.1517901703	-0.115194
C	-0.718853023	-0.8212815627	 1.7437910755	-0.185393
N	-1.230561172	-0.7931870068	 0.328483113	-0.179838
H	 0.959858326	 1.9373856462	-0.3108291551	 0.123189
H	-0.7636107979	 1.9100821441	-0.7314540386	 0.125796
H	-0.2607632141	 1.9216106615	 0.9677558649	 0.119101
H	-0.6061127962	-0.4372709091	-2.0707041698	 0.102226
H	 1.1011072658	-0.9594492931	-1.7997774032	 0.108164
H	-1.0312570916	-2.7301417524	-0.8073822922	 0.064145
H	 0.5314973243	-2.9537663863	 1.2595809091	 0.063624
H	 1.9292589447	-3.2703910931	-0.5596450008	 0.282217
H	 1.5827968261	-0.425998009	 1.69235685	 0.067194
H	-1.0035056073	-1.6900403512	 2.3467383665	 0.094908
H	-1.0415073347	 0.090122709	 2.2520101923	 0.107814
180.3606	201.234	249.7148	287.1308	323.7163	350.6509	441.2842	468.1271	527.3338	608.7888	692.5987	731.4219	767.0274	830.6653	846.0334	891.9233	909.3054	940.781	951.5345	981.2709	997.7929	1017.3567	1043.8268	1077.56	1118.8628	1133.781	1153.5072	1166.336	1203.313	1219.3154	1225.451	1239.6636	1268.8939	1274.3693	1288.8307	1327.8622	1347.6895	1412.9223	1434.1853	1472.6676	1485.4775	1490.103	1516.7654	3004.1467	3031.8583	3046.9047	3077.7078	3097.1017	3105.2257	3106.6225	3109.8176	3111.874	3151.5855	3811.7637
CC12CC3C(O)C1CN23	C[C@@]12C[C@H]3[C@@H](O)[C@@H]1CN23	
InChI=1S/C7H11NO/c1-7-2-5-6(9)4(7)3-8(5)7/h4-6,9H,2-3H2,1H3	InChI=1S/C7H11NO/c1-7-2-5-6(9)4(7)3-8(5)7/h4-6,9H,2-3H2,1H3/t4-,5-,6-,7+/m0/s1
