21
gdb 9301	3.21826	1.0296	0.83283	2.731	80.46	-0.2473	0.0237	0.2711	1453.3284	0.185828	-366.267354	-366.256967	-366.256022	-366.303576	35.733	
C	 0.1115836644	 1.5760734726	 0.0209318644	-0.390463
C	 0.0157754939	 0.0495445212	 0.00561059	-0.150065
C	-1.4262369645	-0.4827239159	 0.0697288036	 0.055973
C	-1.4588696702	-2.010765943	-0.0554985289	-0.380973
N	-2.0305442822	-0.1020409358	 1.3391227515	-0.210665
C	-3.0959508917	 0.564526694	 1.309449609	 0.127235
O	-3.7139177874	 0.9305565294	 2.4512900408	-0.194363
C	-4.893620054	 1.7068626839	 2.2879184694	-0.249242
H	 1.1530940238	 1.9065592835	-0.0402417515	 0.109638
H	-0.4258698841	 2.0161487285	-0.827644512	 0.103307
H	-0.3183375931	 1.9860289324	 0.9393255479	 0.127977
H	 0.4846596663	-0.3428946771	-0.9053411929	 0.087447
H	 0.5712182338	-0.3669660817	 0.8544759708	 0.104562
H	-1.9879744459	-0.0513028232	-0.7810738595	 0.049727
H	-2.4881119194	-2.3811519432	-0.0332673368	 0.108788
H	-0.9962668787	-2.3328570598	-0.9941328453	 0.106671
H	-0.9178424072	-2.4714237495	 0.7767886984	 0.125786
H	-3.6062982233	 0.8945962871	 0.3899287098	 0.070436
H	-4.6797583558	 2.6676026692	 1.8035021123	 0.126505
H	-5.6523169759	 1.1703667195	 1.7047159944	 0.125801
H	-5.2811804287	 1.8922332179	 3.2903745145	 0.145919
40.9152	66.5913	107.5922	145.5509	161.0494	217.405	225.4172	252.3344	254.8505	354.9941	391.7497	477.1848	507.7979	580.6532	786.5683	838.4467	933.3234	983.6587	988.4184	1014.7237	1039.21	1058.2813	1123.0487	1154.1022	1176.8851	1184.002	1189.545	1274.4395	1298.5708	1325.056	1368.9883	1382.5018	1403.5358	1407.8615	1420.6965	1475.9702	1484.2512	1488.931	1494.6522	1498.2559	1500.8542	1501.3584	1508.9927	1770.4011	2909.5381	2981.0207	3013.4083	3025.6704	3029.8894	3035.8787	3065.0451	3074.2175	3095.5575	3107.6686	3113.2878	3114.3605	3143.7213
CCC(C)N=COC	CC[C@@H](C)N=COC	
InChI=1S/C6H13NO/c1-4-6(2)7-5-8-3/h5-6H,4H2,1-3H3	InChI=1S/C6H13NO/c1-4-6(2)7-5-8-3/h5-6H,4H2,1-3H3/t6-/m1/s1
