20
gdb 91550	3.01495	1.29959	1.09004	2.7054	78.97	-0.2279	0.0703	0.2982	1179.3237	0.171834	-403.087871	-403.079542	-403.078598	-403.121515	32.569	
O	 0.510709266	 1.1869217491	-0.1156821977	-0.438294
C	 0.2549926575	-0.1777947488	 0.0529010244	 0.100408
C	 0.2099967302	-0.7601458844	 1.5203337862	-0.260456
C	-1.2510172699	-1.1230212984	 1.2737745651	-0.108207
N	-1.9266399618	 0.1555715035	 0.9064201262	-0.399585
C	-1.2144590885	-0.6280857022	-0.1338514543	 0.332918
C	-1.8320949339	-1.0942160895	-1.3985540457	-0.141763
C	-3.3246144476	-1.1341794748	-1.6275676602	-0.28978
C	-2.4836947515	-0.1138990644	-2.3493913403	-0.253005
H	-0.2131021791	 1.635862397	 0.343272471	 0.286515
H	 0.9527841399	-0.7218620467	-0.588490244	 0.086567
H	 0.8636200011	-1.6262644532	 1.6487852435	 0.101128
H	 0.3929355151	-0.035096697	 2.317531772	 0.103365
H	-1.8285360274	-1.9355351932	 1.6976614776	 0.094825
H	-2.9221002757	-0.0422038295	 0.8194393262	 0.228621
H	-1.2715594951	-1.8958568157	-1.8733607102	 0.09001
H	-3.7214901473	-1.9720858473	-2.1896364789	 0.117504
H	-3.9910008623	-0.7815069935	-0.8472407014	 0.107973
H	-2.5570804075	 0.9175810974	-2.0237358092	 0.12442
H	-2.3126813023	-0.2378687384	-3.4125318901	 0.116836
31.9161	118.4575	189.5778	206.9484	318.9261	338.8593	443.2427	477.6754	528.8067	575.7272	674.9542	686.3578	781.4497	818.2599	832.6593	868.6047	888.6887	905.9675	930.6533	946.6755	991.1372	1023.3592	1038.1661	1058.9076	1078.8487	1095.2544	1123.4776	1131.3489	1135.2396	1165.8562	1185.4047	1195.1521	1219.444	1234.1683	1281.7028	1285.7508	1335.5039	1381.847	1441.9827	1461.1428	1468.9493	1483.4756	1510.0262	3061.4186	3084.8688	3121.3737	3130.9363	3132.8904	3141.7758	3189.7316	3209.5065	3229.9944	3488.8079	3744.5855
OC1CC2NC12C1CC1	O[C@H]1C[C@H]2N[C@@]12C1CC1	
InChI=1S/C7H11NO/c9-6-3-5-7(6,8-5)4-1-2-4/h4-6,8-9H,1-3H2	InChI=1S/C7H11NO/c9-6-3-5-7(6,8-5)4-1-2-4/h4-6,8-9H,1-3H2/t5-,6+,7-/m1/s1
