17
gdb 47370	2.29445	1.49653	1.20102	4.5882	72.01	-0.2526	-0.0305	0.2222	1081.6322	0.138013	-418.041829	-418.033789	-418.032845	-418.074811	30.125	
O	-0.0460205205	-0.0653631646	 0.169864719	-0.29494
C	-0.0525103499	 1.1357665522	 0.058381393	 0.388038
C	-1.3255273236	 1.9679315782	 0.0740759532	-0.275682
C	-1.3100707983	 3.0477201141	-1.0197105488	-0.190703
N	-0.0799442509	 3.8376598159	-0.9073468617	-0.282855
C	 1.1303096912	 3.0550556155	-1.1394156289	-0.152309
C	 1.2369756783	 1.9446368142	-0.0686625262	-0.29114
C	 1.1948738592	 2.4794193824	-2.5072631462	 0.270037
N	 1.2043257542	 2.0715612207	-3.5892111216	-0.320984
H	-2.1851383346	 1.3021362372	-0.0261275538	 0.128198
H	-1.3806101562	 2.4630462193	 1.0525729798	 0.130322
H	-1.4170853871	 2.5695250318	-2.0072652917	 0.123243
H	-2.1593367997	 3.724075775	-0.8900140906	 0.117158
H	-0.109008911	 4.6274637602	-1.5427430877	 0.238855
H	 1.9921913409	 3.7231878966	-1.0382079425	 0.134278
H	 1.4116734692	 2.4447421239	 0.8913645305	 0.137422
H	 2.0685987288	 1.2674510176	-0.2696767957	 0.141062
73.4271	102.5364	174.84	237.6048	333.7136	382.7915	404.1529	472.5898	492.1937	573.6317	612.5489	699.0923	748.1588	767.9263	809.8858	883.2773	926.2279	942.8057	1016.9028	1054.642	1088.1705	1126.134	1175.5935	1206.8652	1237.1847	1247.1649	1289.8181	1339.743	1345.1027	1352.1383	1403.6682	1447.7838	1458.8703	1483.5983	1514.2843	1827.6975	2342.7097	2973.9786	3032.7198	3046.6381	3057.7993	3086.042	3119.7738	3131.3632	3536.9899
O=C1CCNC(C1)C#N	O=C1CCN[C@@H](C1)C#N	
InChI=1S/C6H8N2O/c7-4-5-3-6(9)1-2-8-5/h5,8H,1-3H2	InChI=1S/C6H8N2O/c7-4-5-3-6(9)1-2-8-5/h5,8H,1-3H2/t5-/m0/s1
