21
gdb 60970	3.3336	0.96994	0.85675	4.5297	81.91	-0.2255	0.03	0.2555	1435.2292	0.181929	-420.398336	-420.388499	-420.387555	-420.434015	35.01	
C	 0.1388582554	 1.4778763073	-0.0252061618	-0.354383
N	-0.0183533035	 0.033777576	 0.0570118299	-0.051406
C	-0.0985599024	-0.5647747542	 1.2849622437	 0.134895
O	-0.0489160598	 0.0184039011	 2.3504678591	-0.352109
C	-0.0854948956	-0.7307737971	-1.1754489917	 0.009124
C	 0.8435456139	-1.9744742987	-1.3027526242	-0.1827
N	-0.3155225775	-2.839638126	-1.0207223562	-0.056318
C	-0.4426564279	-4.0967857987	-1.7204885486	-0.324649
C	-1.25545383	-1.7474651031	-1.3292268329	-0.182699
H	 1.0694330639	 1.7453349697	-0.5398339313	 0.122857
H	-0.6998100783	 1.9366483941	-0.5623335089	 0.122856
H	 0.167647272	 1.8638708695	 0.9935422355	 0.170052
H	-0.2159419134	-1.659806582	 1.2022330322	 0.104826
H	 0.0017518023	-0.0197091932	-1.9954909341	 0.093477
H	 1.2382905486	-2.0863016931	-2.3263193352	 0.08866
H	 1.670197268	-2.0558984745	-0.588677963	 0.112903
H	 0.3708898034	-4.7688000431	-1.4284086896	 0.126529
H	-1.3880566509	-4.578588124	-1.4505695101	 0.126529
H	-0.4165386047	-3.9835382757	-2.8214605334	 0.089992
H	-2.0979422467	-1.6483693617	-0.6362052418	 0.112903
H	-1.6393353169	-1.7750835027	-2.3626147477	 0.08866
31.5125	91.78	113.2135	147.1957	226.8353	227.1584	291.1537	325.1392	337.5931	348.7788	405.7545	443.962	638.0286	694.3134	837.7325	851.1972	925.4591	979.3893	998.426	1027.6058	1062.59	1063.6928	1108.4402	1138.0591	1143.4758	1158.4441	1191.2708	1201.9678	1237.0287	1260.0904	1260.5967	1302.9782	1334.2578	1345.8314	1427.8523	1449.0974	1454.3454	1468.633	1487.3627	1497.6116	1498.2318	1501.7423	1516.9426	1527.4764	1784.8915	2923.6469	2960.2638	2969.9344	2982.7972	3018.5019	3059.9888	3061.9795	3062.869	3069.2234	3102.6533	3122.3384	3158.1925
CN(C=O)C1CN(C)C1	CN(C=O)C1CN(C)C1	
InChI=1S/C6H12N2O/c1-7-3-6(4-7)8(2)5-9/h5-6H,3-4H2,1-2H3	InChI=1S/C6H12N2O/c1-7-3-6(4-7)8(2)5-9/h5-6H,3-4H2,1-2H3
