17
gdb 46003	4.51015	1.02725	0.87352	5.1522	78.63	-0.2271	-0.012	0.2151	1290.5101	0.137336	-418.025796	-418.017751	-418.016806	-418.058853	29.882	
O	 0.0120694886	 0.0438702351	 0.3114504252	-0.396248
C	 0.0640503403	 1.2465576889	 0.1610750725	 0.442641
N	-1.0243242859	 2.1100133602	 0.1812812124	-0.348454
C	-0.6662610976	 3.4649932676	-0.1637249772	-0.243414
C	 0.8438203199	 3.3793722147	-0.2529992739	 0.353771
C	 1.2474998587	 2.111079872	-0.0669043986	-0.359269
N	 1.5737559267	 4.5051458051	-0.590218235	-0.126978
C	 1.7105286315	 5.6395791538	 0.3188448759	-0.233799
C	 2.8785735313	 4.7671585741	-0.0132708504	-0.223631
H	-1.9616927857	 1.7505798543	 0.1194369069	 0.249583
H	-1.0875823339	 3.7919472793	-1.1250494049	 0.131677
H	-0.9848169072	 4.1922495387	 0.596946596	 0.118591
H	 2.2544782686	 1.7232609232	-0.0934881834	 0.110723
H	 1.610693806	 6.620729195	-0.1350663161	 0.131008
H	 1.2883892514	 5.5428308806	 1.3163049815	 0.129717
H	 3.2281849936	 4.088533784	 0.7611107446	 0.132457
H	 3.6384223537	 5.1145172334	-0.7064547155	 0.131625
80.451	125.0443	141.779	180.837	274.0641	394.3199	431.5812	469.6322	553.7068	559.9692	700.3778	744.3378	811.8129	852.5245	859.0992	924.2084	927.7154	949.7335	1014.9755	1040.8003	1087.4669	1108.7373	1137.1349	1144.6399	1171.3129	1183.6932	1189.0834	1205.0258	1301.3659	1330.2709	1393.9899	1423.6708	1489.9986	1502.5132	1517.4205	1672.2604	1819.8509	2998.6714	3023.5837	3108.8569	3113.0707	3195.4564	3208.8668	3252.3223	3667.4246
O=C1NCC(=C1)N1CC1	O=C1NCC(=C1)N1CC1	
InChI=1S/C6H8N2O/c9-6-3-5(4-7-6)8-1-2-8/h3H,1-2,4H2,(H,7,9)	InChI=1S/C6H8N2O/c9-6-3-5(4-7-6)8-1-2-8/h3H,1-2,4H2,(H,7,9)
