22
gdb 96671	3.41967	0.91557	0.78016	0.8249	86.3	-0.2391	0.0351	0.2742	1560.9664	0.192531	-404.349354	-404.339084	-404.33814	-404.385736	36.487	
C	 0.1847821208	 1.3094331787	 0.4282146404	-0.326446
N	 0.0199009108	-0.1141980989	 0.231770459	-0.289214
C	-1.0951053091	-0.588722394	-0.1360443391	 0.400039
C	-2.3947570999	 0.1325344893	-0.4192786164	-0.488053
O	-1.2478235799	-1.9212377937	-0.3348921286	-0.264769
C	-0.1008200847	-2.7420183767	-0.1445486984	 0.191616
C	 0.2928512112	-3.1474952813	 1.2943421888	-0.232535
C	 0.5281898816	-4.5881470693	 0.7570656709	-0.221272
C	-0.3423335636	-4.2248128538	-0.480223674	-0.257121
H	 1.0101518417	 1.6698579794	-0.1976369694	 0.123648
H	-0.6986642111	 1.9232493588	 0.203964697	 0.098933
H	 0.4745143817	 1.5040925462	 1.4683037019	 0.1232
H	-2.2854361849	 0.8089303381	-1.2725829035	 0.143252
H	-3.1772475603	-0.5913457751	-0.6459239869	 0.141083
H	-2.7051186322	 0.7338041398	 0.4397132497	 0.141647
H	 0.7459302387	-2.3081609069	-0.6821108546	 0.093377
H	 1.1227288011	-2.6131451498	 1.7576446753	 0.107892
H	-0.5791617586	-3.1034077909	 1.9534227399	 0.102683
H	 1.5735472219	-4.7580333145	 0.4860312214	 0.10513
H	 0.1916345322	-5.4197518847	 1.3787379887	 0.100368
H	-1.3932249149	-4.4811747798	-0.3191666649	 0.109316
H	-0.0334830525	-4.5848607911	-1.4640470173	 0.097226
61.1222	71.769	74.9007	102.5718	122.9041	186.4868	265.0118	298.779	362.8848	371.3533	480.4741	582.2581	605.7295	669.4744	766.3411	789.8634	832.3604	910.0745	922.1267	951.005	962.4019	1005.4923	1052.095	1064.7178	1109.3991	1124.7334	1134.3956	1151.3883	1168.5248	1192.6976	1241.7022	1246.927	1252.489	1271.0227	1290.2952	1301.096	1386.3738	1404.6244	1448.6304	1474.7639	1478.8593	1480.3547	1486.7386	1499.4271	1508.0759	1509.9673	1753.082	2997.2696	3051.2272	3059.3045	3061.3289	3064.4435	3064.7752	3068.0418	3079.5139	3110.6777	3112.7208	3122.952	3136.3461	3155.1537
CN=C(C)OC1CCC1	CN=C(C)OC1CCC1	
InChI=1S/C7H13NO/c1-6(8-2)9-7-4-3-5-7/h7H,3-5H2,1-2H3	InChI=1S/C7H13NO/c1-6(8-2)9-7-4-3-5-7/h7H,3-5H2,1-2H3
