15
gdb 49808	2.64331	1.58948	1.02024	2.5366	68.93	-0.2656	-0.0468	0.2188	1093.8429	0.114055	-454.013549	-454.005952	-454.005008	-454.046019	27.789	
O	-0.0313494967	-0.0528808744	-0.1247636958	-0.293976
C	-0.0250180637	 1.1487362467	-0.0621739112	 0.171584
N	 1.153940217	 1.9085654929	 0.0631038124	-0.188981
C	 2.4076072498	 1.2428821434	 0.0855101842	 0.110706
N	 3.5218546709	 1.7698674762	 0.3653619715	-0.2461
C	 3.5225088886	 3.1876122472	 0.7118882076	-0.174173
C	 2.429941912	 3.9886158707	-0.0072827799	-0.341541
C	 1.0773782045	 3.3231413456	 0.1045029543	 0.431909
O	 0.0213729939	 3.9002376744	 0.1809011847	-0.331713
H	-0.9154279913	 1.7898448977	-0.0973995458	 0.146447
H	 2.3173084338	 0.1854579405	-0.1427169783	 0.164296
H	 3.4039657045	 3.2686203086	 1.8017574812	 0.131007
H	 4.5066773282	 3.6020238738	 0.4775556151	 0.12915
H	 2.3402889085	 5.0107179416	 0.3650767091	 0.143842
H	 2.6678662699	 4.0461130252	-1.0783493989	 0.147543
87.9598	152.8954	185.6428	247.3151	265.0587	374.0816	446.3709	516.8403	555.345	586.8984	666.0653	760.8315	813.7429	870.7992	923.8604	967.9554	1027.7542	1051.8705	1075.112	1121.5744	1193.1749	1234.2609	1261.4922	1271.7927	1335.1905	1382.7488	1406.3284	1418.8024	1459.0615	1491.6148	1746.5717	1814.1107	1831.097	3015.2458	3031.4268	3067.9189	3086.058	3122.9152	3196.6089
O=CN1C=NCCC1=O	O=CN1C=NCCC1=O	
InChI=1S/C5H6N2O2/c8-4-7-3-6-2-1-5(7)9/h3-4H,1-2H2	InChI=1S/C5H6N2O2/c8-4-7-3-6-2-1-5(7)9/h3-4H,1-2H2
