17
gdb 34401	2.7885	1.5421	1.29016	2.2341	73.99	-0.2522	0.0188	0.2709	1023.4498	0.136089	-421.773143	-421.765443	-421.764498	-421.805276	29.804	
C	 0.0241539746	-1.1847626567	-0.2818631687	-0.412005
C	 0.0330360808	 0.0042036579	-0.104586381	 0.256058
C	 0.0363220091	 1.4399419177	 0.0887806878	 0.251539
C	-0.8201150769	 2.2254392534	-0.9207405187	-0.144275
O	-0.2541531173	 3.5250254358	-0.9638735807	-0.253072
C	 1.1569172189	 3.3517354852	-0.9072760931	-0.096142
C	 1.3867046832	 2.23671073	 0.1115053616	-0.157227
C	 0.9945407177	 2.56325526	 1.5638538095	-0.085908
O	-0.2484885081	 1.8370197376	 1.4529945247	-0.315012
H	 0.0141170884	-2.2367267962	-0.4287278806	 0.198157
H	-0.7750506126	 1.7347375433	-1.9056136684	 0.098161
H	-1.8595693441	 2.3070906573	-0.5967015329	 0.131148
H	 1.5571792101	 3.0585017864	-1.8915196324	 0.09758
H	 1.5998000125	 4.3098410664	-0.6211043351	 0.116227
H	 2.3075031801	 1.6745228573	-0.0332939898	 0.097437
H	 1.6462482454	 2.1313440688	 2.3320518109	 0.107534
H	 0.8272221984	 3.6249102257	 1.7793773169	 0.1098
109.981	145.3923	184.7066	244.0589	348.2825	374.3109	495.4071	498.394	555.3911	624.3144	637.8985	672.8119	719.056	834.0292	882.8531	897.0223	945.5197	951.469	1023.8168	1035.2032	1071.0332	1105.6318	1119.4599	1136.2488	1148.3977	1168.5953	1210.4915	1242.5161	1281.831	1328.6424	1344.8645	1358.2859	1398.3895	1484.5095	1506.35	1518.6118	2235.3474	2974.8978	2988.3792	3023.0796	3069.609	3090.3799	3116.7608	3134.1642	3499.68
C#CC12COCC1CO2	C#C[C@]12COC[C@H]1CO2	
InChI=1S/C7H8O2/c1-2-7-5-8-3-6(7)4-9-7/h1,6H,3-5H2	InChI=1S/C7H8O2/c1-2-7-5-8-3-6(7)4-9-7/h1,6H,3-5H2/t6-,7-/m0/s1
