15
gdb 9637	4.36822	1.20602	1.07766	3.5172	62.71	-0.2849	0.0003	0.2852	1086.2015	0.116709	-399.784084	-399.775497	-399.774553	-399.817507	30.092	
C	 0.0776445569	 1.5091786099	-0.2011754517	-0.469775
C	-0.0203460439	 0.0367374023	 0.1385351605	 0.221787
O	 1.1919465202	-0.7268722243	 0.1321548329	-0.274733
C	 0.4981375507	-0.5867300807	 1.3807311998	 0.001782
C	 1.2252674387	 0.1530694623	 2.4781382238	-0.095828
O	 2.2017261773	-0.6801102902	 3.0746344959	-0.408756
C	-1.1439435706	-0.6387596012	-0.5005028374	 0.258385
N	-2.0511978797	-1.1442564225	-1.007221759	-0.326323
H	 0.9471607802	 1.9612811535	 0.2755290964	 0.14158
H	 0.1728457865	 1.6326929704	-1.2835558091	 0.154023
H	-0.8244644696	 2.0359065189	 0.1232199124	 0.148525
H	 0.0131078965	-1.5054089331	 1.7123639939	 0.123999
H	 1.6651538541	 1.0830103212	 2.0959599257	 0.100745
H	 0.5174363462	 0.4139066451	 3.2721529012	 0.127336
H	 2.8402117062	-0.9125855116	 2.3910262548	 0.297252
63.195	128.6349	150.2749	163.5965	228.2534	275.8068	376.6098	384.689	420.6181	468.3515	579.76	612.6787	691.1336	818.0311	890.4561	922.3253	1018.4757	1063.8528	1098.237	1114.2567	1123.8541	1220.24	1239.7175	1326.3707	1368.4672	1415.3755	1416.0481	1457.4325	1482.6415	1489.4449	1499.4465	2358.469	3022.4533	3055.9362	3081.7638	3117.9119	3122.5683	3157.1533	3804.6323
CC1(OC1CO)C#N	C[C@]1(O[C@H]1CO)C#N	
InChI=1S/C5H7NO2/c1-5(3-6)4(2-7)8-5/h4,7H,2H2,1H3	InChI=1S/C5H7NO2/c1-5(3-6)4(2-7)8-5/h4,7H,2H2,1H3/t4-,5-/m0/s1
