21
gdb 111305	2.12647	1.53001	1.19109	2.237	77.86	-0.2398	0.0688	0.3086	1150.1221	0.180999	-424.189478	-424.18005	-424.179106	-424.223059	36.576	
C	-0.3352306713	 1.5617445552	 0.1882005691	-0.457157
C	-0.0666651733	 0.063399436	 0.1187389686	 0.401346
O	-1.2131090744	-0.6620588743	 0.5420476566	-0.48573
C	 0.38552742	-0.542578535	-1.2169904745	-0.061591
C	 1.7302677466	-0.021027706	-1.6315170156	-0.300829
C	 1.661086778	-1.0891721903	-0.5744374515	-0.085741
C	 1.2474142466	-0.5159973348	 0.7864818344	-0.028047
C	 2.2066132118	 0.384059404	 1.5405812526	-0.111302
O	 1.5380179988	 0.8135212567	 2.7247780058	-0.426448
H	 0.4841098359	 2.1500867181	-0.2345949087	 0.107552
H	-1.2483642131	 1.7968588953	-0.3670433503	 0.117716
H	-0.4595930339	 1.8756353589	 1.2297073701	 0.121273
H	-1.4011021642	-0.3965386614	 1.4495001165	 0.277315
H	-0.2946519843	-1.0285988277	-1.9052213444	 0.090797
H	 2.071680923	-0.3631625618	-2.6035446789	 0.112732
H	 2.0414324504	 0.9934450167	-1.3981329628	 0.103027
H	 2.1271745403	-2.0564017006	-0.7190967644	 0.083731
H	 0.9277169942	-1.3191513454	 1.4564733246	 0.084132
H	 3.12337312	-0.1776759213	 1.7835527537	 0.087335
H	 2.5075674397	 1.2448339241	 0.925291437	 0.082804
H	 2.1105374194	 1.4314607936	 3.1885401621	 0.287085
102.3945	122.5362	200.767	231.6536	244.7276	259.4952	289.1308	319.445	378.4396	411.8461	450.7218	494.6269	528.363	639.3203	720.7102	791.091	830.0089	884.4728	942.9893	966.5024	987.5388	993.4298	1019.1036	1029.4789	1060.8084	1070.0709	1086.3638	1110.1095	1120.9878	1167.7573	1183.1977	1189.8478	1245.5037	1251.8539	1267.0366	1286.1477	1346.2143	1361.3859	1392.7832	1407.1579	1454.9559	1484.7657	1493.5882	1500.8122	1519.9291	2967.3245	3001.5984	3037.3645	3072.7147	3108.3224	3112.833	3115.9545	3176.5292	3189.9895	3201.1612	3795.9349	3829.5006
CC1(O)C2CC2C1CO	C[C@@]1(O)[C@H]2C[C@H]2[C@H]1CO	
InChI=1S/C7H12O2/c1-7(9)5-2-4(5)6(7)3-8/h4-6,8-9H,2-3H2,1H3	InChI=1S/C7H12O2/c1-7(9)5-2-4(5)6(7)3-8/h4-6,8-9H,2-3H2,1H3/t4-,5+,6-,7-/m1/s1
