18
gdb 22605	2.901	1.24006	1.04592	1.9154	76.49	-0.2301	0.0127	0.2428	1184.0531	0.145342	-439.009866	-439.000712	-438.999767	-439.043342	34.625	
C	-0.1311104596	 1.5745937344	 0.0240471305	-0.419436
C	 0.053187545	 0.0614553443	-0.001141521	-0.149934
C	 1.1114886047	-0.5875225621	-0.9006500536	 0.449098
N	 1.340455561	-0.6389163536	-2.1460953562	-0.271841
O	 0.4305379551	 0.1768404692	-2.8569959342	-0.398703
C	 1.7564947299	-1.3208615576	 0.2184071722	-0.219276
C	 2.1901082904	-0.3174732746	 1.2877762198	-0.34948
C	 0.7427842929	-0.6710653335	 1.1778771439	 0.392149
O	 0.0465824747	-1.3059090087	 2.1867227322	-0.459705
H	 0.8087995002	 2.0931701604	 0.2371786354	 0.114434
H	-0.4941450407	 1.9276670177	-0.9439759265	 0.14362
H	-0.8579569645	 1.8630825822	 0.7913241322	 0.111724
H	-0.9041126015	-0.4347010998	-0.2024721218	 0.110057
H	 0.7093121404	 0.0385277438	-3.7681059511	 0.30515
H	 2.1553402183	-2.326175259	 0.1917531402	 0.112042
H	 2.6967341661	-0.7850609629	 2.1268678532	 0.120573
H	 2.5773642313	 0.6587431754	 1.0105468362	 0.119056
H	 0.0339957363	-0.7310271956	 2.9594549286	 0.290472
89.3397	171.1962	188.5682	201.4672	228.7089	246.8224	290.9252	367.0969	386.7309	424.8341	499.6669	524.9814	617.204	644.6098	714.0883	778.3074	815.5141	904.0467	923.7358	963.4931	974.795	1020.9686	1065.624	1075.9642	1098.235	1119.9441	1162.0478	1186.0898	1230.261	1267.7489	1314.3375	1345.7044	1402.7353	1406.2045	1409.917	1491.2382	1493.3963	1503.205	1785.3262	3036.6018	3043.3951	3100.9931	3116.0066	3126.6809	3203.1366	3211.2423	3801.5957	3823.1447
CC1C(=NO)C2CC12O	C[C@H]1C(=NO)[C@H]2C[C@@]12O	
InChI=1S/C6H9NO2/c1-3-5(7-9)4-2-6(3,4)8/h3-4,8-9H,2H2,1H3	InChI=1S/C6H9NO2/c1-3-5(7-9)4-2-6(3,4)8/h3-4,8-9H,2H2,1H3/t3-,4+,6+/m0/s1
