14
gdb 8572	4.37013	2.11413	1.82696	5.5478	56.98	-0.2844	0.0357	0.3201	731.8186	0.109319	-419.705283	-419.699558	-419.698614	-419.73508	22.756	
O	 0.0078556046	 0.0826654139	 0.4792744051	-0.362435
C	-0.0136983379	 1.1879890036	 0.0349391375	 0.471216
O	-1.1781171	 1.8406421964	-0.2174539406	-0.265504
C	-1.0872170815	 3.1741710919	-0.7545846363	 0.119392
C	-0.0688132161	 3.170126865	-1.9193505693	-0.262606
C	 0.9817996324	 3.2026887536	-0.7840119047	 0.119393
C	-0.0515187385	 3.9715545677	 0.0732754872	-0.262606
O	 1.1246463167	 1.872380795	-0.2502056053	-0.265504
H	-2.1115550261	 3.5187467563	-0.8842824229	 0.102662
H	-0.0665920929	 2.3125806407	-2.5942364029	 0.129498
H	-0.0896972448	 4.1055154031	-2.4812258063	 0.122166
H	 1.9921520097	 3.5753074581	-0.9426481419	 0.102662
H	-0.0696263462	 5.0356132926	-0.1686804413	 0.122166
H	-0.0340616594	 3.8200389621	 1.1538306618	 0.129497
135.5962	324.2581	434.964	449.6498	486.354	530.2778	649.7845	773.5707	808.286	816.6921	871.3784	878.6076	930.3897	967.4482	985.8487	997.9375	1068.1903	1112.388	1129.2502	1141.3792	1166.7873	1186.8933	1235.3307	1266.4699	1288.0759	1370.577	1392.9074	1462.4609	1493.8771	1899.5982	3079.017	3083.9279	3135.6363	3136.8779	3145.9649	3148.7527
O=C1OC2CC(C2)O1	O=C1O[C@@H]2C[C@@H](C2)O1	
InChI=1S/C5H6O3/c6-5-7-3-1-4(2-3)8-5/h3-4H,1-2H2	InChI=1S/C5H6O3/c6-5-7-3-1-4(2-3)8-5/h3-4H,1-2H2/t3-,4+
