16
gdb 32155	3.98473	1.21562	0.94239	1.0625	74.17	-0.2628	-0.0383	0.2245	1220.7588	0.125289	-434.134561	-434.126205	-434.12526	-434.168332	29.278	
C	-0.0074915229	 1.3860670289	 0.0374958252	-0.231869
O	-0.046601283	-0.0449899392	 0.050943482	-0.234685
C	-1.2401139757	-0.6273513009	 0.023927099	 0.473022
N	-2.3396135312	 0.1271237865	-0.0139996081	-0.34442
C	-3.470379559	-0.5805435003	-0.0379683655	 0.069086
N	-3.5765513247	-1.9017433635	-0.0274869319	-0.290276
C	-2.3966603239	-2.552571002	 0.0115752838	 0.355994
C	-2.4436135499	-4.0512191876	 0.0256031593	-0.459197
N	-1.2042376285	-1.9641106111	 0.0384792065	-0.325831
H	 1.0516073109	 1.6428855169	 0.064010777	 0.137829
H	-0.4742841276	 1.7809502728	-0.8681586788	 0.142317
H	-0.5231125592	 1.7989717674	 0.9079475972	 0.142314
H	-4.3965635687	-0.0095070229	-0.069238208	 0.127405
H	-2.968122185	-4.4144817551	-0.8637627736	 0.147833
H	-1.4365624318	-4.4661179085	 0.0574804619	 0.142639
H	-3.0163052999	-4.3965551712	 0.8920964939	 0.147839
49.4404	108.4943	156.1914	192.6464	232.3978	236.9538	348.9337	451.4822	508.2417	576.8846	640.9541	668.964	813.4226	848.9357	937.7785	997.366	1015.0778	1018.2615	1069.6794	1119.0823	1178.8558	1195.0889	1238.2085	1309.6868	1341.0847	1397.1421	1427.6759	1450.6516	1475.6448	1475.9529	1483.0037	1494.2734	1523.6191	1578.3124	1618.5978	3050.4403	3052.3002	3108.5043	3128.4696	3155.4417	3158.5139	3162.8417
COC1=NC=NC(C)=N1	COc1ncnc(C)n1	
InChI=1S/C5H7N3O/c1-4-6-3-7-5(8-4)9-2/h3H,1-2H3	InChI=1S/C5H7N3O/c1-4-6-3-7-5(8-4)9-2/h3H,1-2H3
