17
gdb 11000	4.10144	1.76091	1.50769	3.3961	70.04	-0.2505	0.0282	0.2788	886.1276	0.143595	-363.878418	-363.871258	-363.870314	-363.909515	27.738	
C	 0.0270119181	 1.5203134547	 0.0668460203	-0.488398
C	 0.0527768203	 0.0135940914	 0.0133510917	 0.315481
C	-0.8647071396	-0.8212603633	 0.8564446908	-0.329197
C	 0.6353905799	-0.8649825169	 1.1026767395	-0.15762
C	 1.3420645274	-1.9737311814	 0.4159504889	 0.425231
N	 2.0930841499	-2.8330120504	 0.9563061293	-0.553059
O	 1.0476271913	-1.9307997969	-0.9272921655	-0.252529
C	 0.4851173964	-0.658080364	-1.2835415196	-0.143878
H	 0.9981982645	 1.9457172	-0.2095868062	 0.125131
H	-0.7248656579	 1.9279647004	-0.6189215975	 0.125682
H	-0.2207611681	 1.8726810905	 1.0722900225	 0.126147
H	-1.4549980314	-0.3061673705	 1.6064460137	 0.120037
H	-1.3408920707	-1.6970736731	 0.4265893846	 0.127129
H	 1.0443760806	-0.4893639408	 2.030441381	 0.112927
H	 2.4809015627	-3.4594630115	 0.2487506894	 0.220622
H	-0.3396990606	-0.8387956267	-1.9809125496	 0.116631
H	 1.2510000871	-0.0604168615	-1.7953830733	 0.109664
135.1445	186.2706	207.2317	283.3689	366.3304	374.8023	448.4956	551.4309	653.155	702.1666	752.5868	819.8202	867.7345	889.8533	937.7132	955.8123	958.6308	1007.4294	1035.8136	1054.0115	1075.2492	1080.154	1117.2759	1139.9127	1225.9246	1252.6774	1270.1489	1327.7656	1380.4389	1417.3119	1427.3265	1489.9872	1493.3621	1501.5846	1520.4913	1779.0864	3016.1915	3027.7855	3070.9868	3086.9292	3107.5589	3128.2835	3212.9636	3221.0647	3472.4934
CC12CC1C(=N)OC2	C[C@]12C[C@H]1[C]([NH])OC2	
InChI=1S/C6H9NO/c1-6-2-4(6)5(7)8-3-6/h4,7H,2-3H2,1H3	InChI=1S/C6H9NO/c1-6-2-4(6)5(7)8-3-6/h4,7H,2-3H2,1H3/t4-,6+/m0/s1
