19
gdb 36655	4.32446	0.80396	0.77806	3.5965	79.48	-0.2412	0.0334	0.2747	1491.9699	0.160458	-382.037425	-382.02896	-382.028015	-382.071443	31.415	
N	 0.331753335	-1.2229016893	-1.1181981635	-0.303693
C	 0.3745475352	-0.0680732635	-1.1179523573	 0.254943
C	 0.450992031	 1.3903705514	-1.0979324807	-0.330248
C	 1.5026137126	 1.9137378853	-0.0934337777	-0.236863
C	 1.5327794842	 3.4255204923	-0.083157696	 0.01265
C	 2.7005321943	 4.2767638462	 0.2178005333	-0.051074
C	 4.0170247286	 3.6912066859	-0.2882133038	-0.252159
C	 3.3385965936	 3.6141916985	-1.6775823472	-0.15762
N	 2.0729387793	 4.2685725581	-1.1768983574	-0.156293
H	 0.6841829211	 1.746723718	-2.1072254523	 0.164897
H	-0.539095121	 1.7896181598	-0.8494217185	 0.154922
H	 1.2472388202	 1.5588570294	 0.9110324229	 0.127345
H	 2.4768566448	 1.4826790294	-0.3334198733	 0.126928
H	 0.5891289126	 3.8561702744	 0.2521035978	 0.098863
H	 2.6185894038	 5.1414575576	 0.8696750393	 0.098024
H	 4.8353341217	 4.4123059162	-0.2629791695	 0.118046
H	 4.3583103611	 2.7630367817	 0.1797456457	 0.108519
H	 3.7991062086	 4.2625122171	-2.4246608832	 0.119269
H	 3.1955031533	 2.6239929715	-2.1216041086	 0.103543
55.8016	91.7034	108.1497	212.1055	260.492	314.6282	398.4618	443.7348	501.6889	589.6224	701.9986	767.1048	786.6964	787.3073	788.3723	914.0087	938.5934	961.2039	986.577	1001.1342	1018.6413	1043.6425	1081.0807	1097.4437	1145.0451	1165.3183	1210.2515	1219.8182	1253.852	1272.0377	1279.7057	1300.3053	1311.4803	1360.3788	1373.833	1454.2873	1467.425	1485.1832	1495.2335	1517.6219	2362.5637	3045.6832	3050.8733	3056.3652	3059.4546	3083.6295	3102.8578	3108.2162	3119.2981	3126.3169	3155.8176
N#CCCC1C2CCN12	N#CCC[C@H]1[C@H]2CCN12	
InChI=1S/C7H10N2/c8-4-1-2-6-7-3-5-9(6)7/h6-7H,1-3,5H2	InChI=1S/C7H10N2/c8-4-1-2-6-7-3-5-9(6)7/h6-7H,1-3,5H2/t6-,7+,9?/m0/s1
