16
gdb 44120	2.41472	1.69672	1.35116	1.9386	73.7	-0.2323	-0.0243	0.208	985.901	0.123589	-400.712689	-400.704931	-400.703987	-400.745164	29.928	
O	-0.039158494	 0.1851773484	-0.9013056212	-0.300133
C	-0.0330327187	 1.223873876	-0.3004584521	 0.39885
C	-1.2681601487	 1.9874180452	 0.2128239725	-0.361877
C	-0.6978616709	 3.1713199771	 0.9571524181	-0.039141
C	 0.1674875711	 2.9079685093	 2.1529180322	-0.203073
C	 0.2501098681	 1.5974310825	 2.7310687674	 0.338491
C	 0.3369393597	 0.4992921364	 3.215572882	-0.449764
N	 0.7804854333	 3.2224917064	 0.8333998656	-0.121279
C	 1.210767795	 2.0539479264	 0.0626107109	-0.280458
H	-1.8755425225	 2.2995634699	-0.6431547509	 0.138539
H	-1.8799333763	 1.3217256488	 0.8275512344	 0.151806
H	-1.2065945068	 4.1286763856	 0.8962443112	 0.105738
H	 0.2947402838	 3.7219806154	 2.8624338969	 0.122212
H	 0.4089707124	-0.4688804222	 3.6469555772	 0.210221
H	 1.9302978388	 1.4376812768	 0.608627787	 0.150302
H	 1.6944806057	 2.3964280479	-0.8592351612	 0.139566
65.0213	138.2444	160.1092	323.0402	352.2935	449.4119	454.9996	538.9356	571.9072	616.1627	627.6286	675.2181	707.842	741.3678	774.44	799.8381	838.744	900.2146	975.4137	1032.5525	1073.4967	1091.307	1123.9584	1137.1362	1168.2632	1226.8514	1268.0879	1279.5344	1293.6751	1361.5726	1386.8507	1445.1235	1456.4444	1858.2413	2230.0623	3049.1424	3060.3394	3103.0487	3105.7312	3134.3106	3153.0335	3499.6564
O=C1CC2C(C#C)N2C1	O=C1C[C@H]2[C@@H](C#C)N2C1	
InChI=1S/C7H7NO/c1-2-6-7-3-5(9)4-8(6)7/h1,6-7H,3-4H2	InChI=1S/C7H7NO/c1-2-6-7-3-5(9)4-8(6)7/h1,6-7H,3-4H2/t6-,7+,8?/m1/s1
