17
gdb 111899	2.76267	1.38076	1.02512	3.9542	70.13	-0.2367	0.0034	0.2401	1150.182	0.137389	-455.130701	-455.122694	-455.12175	-455.163224	30.954	
N	-0.0709622866	 1.3033732162	 0.1167279115	-0.580095
C	-0.05998637	-0.0599767417	 0.0005872862	 0.401104
N	-1.109381809	-0.7867416142	-0.1292643857	-0.329284
C	-0.7251719982	-2.2102377918	-0.0735064955	-0.011359
C	-1.3354453931	-2.9376970858	-1.2784665763	-0.05663
O	-2.7324639766	-2.7386268477	-1.3257544733	-0.426642
C	 0.7980762188	-2.2345536473	-0.0069637507	 0.021008
O	 1.4273716097	-1.5987737589	-1.127274537	-0.244244
C	 1.2292333241	-0.8323411825	 0.0749766411	-0.087942
H	 0.7366114321	 1.8011239965	-0.2241019455	 0.261093
H	-0.9553044183	 1.7443860279	-0.0918921208	 0.262024
H	-1.1411016068	-2.6518871819	 0.8425752458	 0.08932
H	-0.8366082844	-2.5778776864	-2.1907648478	 0.097552
H	-1.1638811358	-4.0171333742	-1.2000364818	 0.099258
H	-2.8571456046	-1.7927736429	-1.1711177946	 0.289642
H	 1.3519844827	-3.0556469092	 0.4389447551	 0.10595
H	 2.124339886	-0.4682756862	 0.5708135093	 0.109246
109.735	155.0092	166.6299	240.0652	340.6778	376.7433	433.1602	478.9768	492.2899	517.2583	573.7531	645.9837	717.5211	780.0822	836.1598	867.9509	878.7189	913.0132	967.3213	1012.6008	1055.9874	1082.4645	1091.5018	1113.2842	1171.3164	1224.2331	1237.6216	1277.0951	1305.1418	1319.8047	1376.8951	1391.9398	1439.1135	1447.4527	1513.1992	1627.2864	1712.0847	2994.4041	3017.2851	3067.0947	3153.7414	3165.4187	3571.6696	3686.1279	3760.7777
NC1=NC(CO)C2OC12	NC1=N[C@@H](CO)[C@H]2O[C@@H]12	
InChI=1S/C5H8N2O2/c6-5-4-3(9-4)2(1-8)7-5/h2-4,8H,1H2,(H2,6,7)	InChI=1S/C5H8N2O2/c6-5-4-3(9-4)2(1-8)7-5/h2-4,8H,1H2,(H2,6,7)/t2-,3+,4+/m0/s1
