23
gdb 60370	3.0299	0.73727	0.68179	1.7742	83.73	-0.2503	-0.0212	0.229	1779.1064	0.201356	-425.441781	-425.430316	-425.429372	-425.479851	39.997	
C	 0.2495772961	 1.3174527156	 0.4054075761	-0.394186
C	-0.0066981118	-0.1288165887	-0.0289714603	 0.161069
C	-1.4834690793	-0.3906966693	-0.3038609712	-0.387772
O	 0.687777239	-0.456351698	-1.2295566824	-0.268775
C	 2.079774581	-0.6472694254	-1.0895661041	-0.059215
C	 2.6184793041	-1.1401289451	-2.4298089108	-0.096821
C	 2.4068486584	-0.1259004725	-3.5692408964	-0.401316
C	 4.0796467746	-1.5207215399	-2.3382323907	 0.152694
O	 4.7567620579	-1.4456781366	-1.3437294759	-0.248002
H	 1.3068808889	 1.4987528873	 0.6173785959	 0.120297
H	-0.0680731967	 2.0096857272	-0.3812638957	 0.120001
H	-0.3137638206	 1.5467685273	 1.3155063235	 0.115145
H	 0.3365897077	-0.8069134987	 0.7708109558	 0.065831
H	-1.8403410817	 0.261335887	-1.1076459987	 0.121063
H	-1.6368538129	-1.4282718838	-0.6118186862	 0.119071
H	-2.0840774383	-0.1975682559	 0.5898020998	 0.112833
H	 2.5951518559	 0.2829826996	-0.8073564563	 0.098281
H	 2.2965918939	-1.3844277062	-0.3018467657	 0.099577
H	 2.0783977681	-2.0605162517	-2.7021516516	 0.105701
H	 2.9344406599	 0.8110917284	-3.3602126446	 0.124424
H	 2.7733140006	-0.5165249223	-4.523843832	 0.116671
H	 1.3431496134	 0.0962046931	-3.6681012302	 0.146336
H	 4.5144635419	-1.8864930813	-3.2981496582	 0.077093
25.3945	58.3716	104.0256	112.1539	140.2464	204.6333	211.7363	223.3981	248.3302	281.7474	351.3231	391.7431	409.2309	468.3348	488.0189	674.313	811.4258	843.7893	919.9995	922.9751	926.2286	937.6352	945.5448	948.1795	1098.2798	1118.5195	1149.4404	1153.9562	1173.5877	1178.9841	1201.9037	1269.0922	1304.5132	1327.141	1365.4245	1372.03	1395.3613	1397.9602	1413.8448	1423.7225	1442.867	1480.9004	1484.85	1491.2817	1495.5599	1506.5946	1508.6999	1518.5734	1825.0498	2856.875	2957.6972	2985.3038	2995.0706	3020.378	3037.3801	3038.4742	3042.765	3103.0615	3107.6789	3114.0563	3116.2375	3122.7083	3140.2957
CC(C)OCC(C)C=O	CC(C)OC[C@@H](C)C=O	
InChI=1S/C7H14O2/c1-6(2)9-5-7(3)4-8/h4,6-7H,5H2,1-3H3	InChI=1S/C7H14O2/c1-6(2)9-5-7(3)4-8/h4,6-7H,5H2,1-3H3/t7-/m0/s1
