19
gdb 107978	2.6633	1.45485	1.41244	1.6597	75.77	-0.2482	0.08	0.3282	1052.0702	0.158123	-422.943095	-422.93469	-422.933746	-422.975949	32.394	
C	-0.0799094191	 1.2795012526	 0.0352406948	-0.26195
O	 0.0586753204	-0.1270323016	-0.0670839852	-0.302326
C	 0.6553087994	-0.5538418157	-1.2313448015	 0.379156
C	 0.1880487549	-0.40823557	-2.6979287614	-0.34109
C	 1.4601408517	-1.2841784051	-2.7590746704	-0.088136
C	 2.1831165786	-0.496274665	-1.614196103	-0.124689
C	 2.5119560644	-1.7811914863	-0.8212335987	-0.333779
C	 1.1169876078	-2.0347563264	-1.4369139254	 0.354342
O	 0.3210581846	-3.1617976852	-1.3921976839	-0.478168
H	 0.8966164526	 1.7829753234	 0.0151827292	 0.112701
H	-0.6998975985	 1.6840851033	-0.7762850974	 0.117021
H	-0.5675024228	 1.4846013556	 0.9906853244	 0.128619
H	-0.7527325478	-0.8992115259	-2.9606235761	 0.105833
H	 0.2570530118	 0.5839121556	-3.1541845478	 0.089725
H	 1.9512887948	-1.7195978332	-3.6261245948	 0.083962
H	 2.7860198317	 0.3983108199	-1.7520116555	 0.078063
H	 3.333066616	-2.3959458343	-1.2017913223	 0.094264
H	 2.5637601199	-1.6854046935	 0.26729319	 0.09682
H	-0.0500158003	-3.2306670881	-0.5052267551	 0.289634
80.4359	146.6758	175.7246	247.9128	269.4385	312.742	317.6351	431.9896	455.9	550.7312	631.1163	678.8296	724.2028	787.2671	877.921	891.9587	922.9338	935.8838	971.6158	996.3103	1047.2189	1062.7027	1071.5078	1102.1398	1114.6141	1116.4103	1137.6041	1181.7271	1182.4605	1197.3661	1213.0889	1231.2651	1264.9352	1297.804	1326.1805	1382.0465	1482.7969	1489.1707	1500.7931	1506.3161	1512.4813	2996.6664	3046.5555	3048.3642	3052.9195	3107.9686	3111.8357	3122.8578	3141.628	3151.0393	3800.296
COC12CC3C1CC23O	CO[C@@]12C[C@H]3[C@@H]1C[C@@]23O	
InChI=1S/C7H10O2/c1-9-7-3-4-5(7)2-6(4,7)8/h4-5,8H,2-3H2,1H3	InChI=1S/C7H10O2/c1-9-7-3-4-5(7)2-6(4,7)8/h4-5,8H,2-3H2,1H3/t4-,5-,6-,7-/m0/s1
