17
gdb 51708	2.98526	1.19255	0.95615	5.2641	68.78	-0.2465	-0.0374	0.2092	1213.5334	0.137168	-455.205751	-455.197459	-455.196515	-455.239264	30.427	
O	-0.7880718437	 1.0709624195	-0.8692778472	-0.242497
C	 0.0578422856	 1.1384543898	-0.0111945833	 0.154646
C	 1.2433954618	 2.0737448737	-0.0445741791	-0.302866
C	 1.224378387	 3.0729034529	-1.2127237482	 0.027626
C	 2.5298254218	 3.9022061751	-1.2988702892	-0.189431
N	 3.3375434124	 3.0695996153	-2.1777385431	-0.343262
C	 2.5183358259	 2.3182428478	-3.0248261733	 0.424913
O	 2.8705024434	 1.6939671484	-3.9989862469	-0.407059
N	 1.23394874	 2.4325329235	-2.5180308378	-0.331259
H	 0.0073607812	 0.4837552596	 0.8873041956	 0.09266
H	 1.2787712714	 2.6000482238	 0.9204430564	 0.125658
H	 2.1537323655	 1.4571160472	-0.0776418395	 0.149623
H	 0.3514469661	 3.723868669	-1.108854731	 0.099874
H	 2.3240323249	 4.8930768605	-1.7278083756	 0.111315
H	 2.9981583146	 4.0397729114	-0.3194860333	 0.110997
H	 4.1842504715	 3.430946688	-2.5880908588	 0.252265
H	 0.5470519504	 1.7297583746	-2.7395974057	 0.266797
69.2719	109.0449	165.3892	182.5143	215.9975	324.5475	418.5817	486.2587	543.3038	580.0909	634.6714	711.527	755.3839	773.643	798.2137	849.7246	946.098	968.4933	989.6516	998.4004	1078.4269	1119.6879	1132.3208	1213.559	1231.42	1250.7927	1276.1261	1334.8957	1358.5695	1396.5501	1416.6515	1424.2995	1435.9869	1441.8142	1527.269	1820.3458	1853.8637	2887.1877	3000.273	3011.4807	3042.0341	3067.6027	3072.6667	3639.4247	3655.8929
O=CCC1CNC(=O)N1	O=CC[C@H]1CNC(=O)N1	
InChI=1S/C5H8N2O2/c8-2-1-4-3-6-5(9)7-4/h2,4H,1,3H2,(H2,6,7,9)	InChI=1S/C5H8N2O2/c8-2-1-4-3-6-5(9)7-4/h2,4H,1,3H2,(H2,6,7,9)/t4-/m0/s1
