20
gdb 65666	3.30385	1.24289	1.05901	3.4776	81.68	-0.2568	0.0258	0.2826	1196.3791	0.170968	-403.09452	-403.08609	-403.085146	-403.127673	32.622	
C	-0.0838534125	 1.6542505554	 0.0893391109	-0.473074
C	 0.0087050409	 0.1356529623	 0.0317211921	 0.461504
O	-1.3326800757	-0.3733005864	-0.066550104	-0.243339
C	-1.9230357116	-0.3264897724	-1.2742250246	 0.115292
N	-3.133853769	-0.6649692569	-1.4018022096	-0.448298
C	 1.1070260152	-0.6070354251	-0.8074338878	-0.109115
C	 2.1240657077	-0.1894132938	 0.2948313207	-0.244041
C	 0.8550577308	-0.6625834845	 1.0645828732	-0.096563
C	 0.8206185273	-1.865615956	 0.0719474562	-0.230012
H	 0.8781273797	 2.140229407	 0.2522864423	 0.126329
H	-0.5042935381	 2.0478383353	-0.8421614358	 0.121051
H	-0.759027674	 1.9418387398	 0.9006665453	 0.139256
H	-1.2554462007	 0.0053238309	-2.0805493946	 0.085642
H	-3.4106299708	-0.5893170695	-2.3785646178	 0.225476
H	 1.2602117702	-0.5681952434	-1.8872064726	 0.073436
H	 2.9934591509	-0.842519278	 0.3910822658	 0.101688
H	 2.4179718861	 0.8574064354	 0.3636573314	 0.09682
H	 0.7013483636	-0.6857734184	 2.1438827313	 0.080043
H	-0.13282848	-2.3715206456	-0.0614328202	 0.124561
H	 1.64876511	-2.5719634061	 0.1598839977	 0.093347
71.683	144.3136	157.2663	184.15	260.3455	334.5899	423.9605	444.0161	463.6016	578.0087	620.3491	728.6623	787.5916	804.4551	821.9166	885.3116	899.257	905.2943	943.03	1002.948	1014.8842	1027.1224	1049.6652	1068.2987	1087.5406	1099.9363	1109.5509	1146.0998	1167.911	1191.4042	1197.1102	1209.003	1245.1531	1247.3278	1294.2782	1302.9161	1415.1757	1421.8139	1487.5941	1489.1601	1509.0093	1544.1789	1738.8423	3028.61	3046.0742	3078.2057	3079.0022	3099.1219	3106.3162	3113.9	3136.1902	3152.0564	3167.9872	3513.9447
CC1(OC=N)C2CC1C2	C[C@@]1(O[CH][NH])[C@H]2C[C@@H]1C2	
InChI=1S/C7H11NO/c1-7(9-4-8)5-2-6(7)3-5/h4-6,8H,2-3H2,1H3	InChI=1S/C7H11NO/c1-7(9-4-8)5-2-6(7)3-5/h4-6,8H,2-3H2,1H3/t5-,6+,7-
