19
gdb 99658	2.28292	1.24219	1.07759	4.2587	76.4	-0.2615	0.0194	0.2809	1247.4879	0.157633	-419.176411	-419.166408	-419.165464	-419.212157	35.047	
C	 0.8475822175	 1.9385308052	-0.8636293708	-0.247282
O	 0.0254074928	 0.8610278202	-1.2803197502	-0.233786
C	 0.6871434123	-0.3823143978	-1.3418005626	-0.010142
C	 1.0841121874	-0.8558640691	 0.004962346	 0.297406
N	 1.4397411897	-1.1386099695	 1.0673051724	-0.345407
C	-0.2132193117	-1.3374450029	-2.1105955207	-0.060348
N	-0.2163885049	-2.7502342394	-1.7283779298	-0.333962
C	-1.4564879136	-1.9678326353	-1.5872751102	 0.022843
C	-2.0316628042	-1.7708306869	-0.2058919263	-0.41531
H	 1.2154799138	 1.795883708	 0.1607798722	 0.137409
H	 1.7097214102	 2.0662294789	-1.5351777589	 0.111829
H	 0.2282439711	 2.8364709359	-0.9014605402	 0.138092
H	 1.630784977	-0.2782164757	-1.9062171538	 0.111771
H	-0.218854157	-1.0879173677	-3.1697916031	 0.096923
H	-0.2368502934	-3.3498018996	-2.5476775604	 0.237377
H	-2.2114820479	-2.1270971548	-2.3575354412	 0.088291
H	-1.2508151272	-1.6856513482	 0.549967286	 0.158993
H	-2.6487973841	-0.8671731161	-0.1765488183	 0.124944
H	-2.6648797277	-2.6237787253	 0.0603134099	 0.120358
32.5371	106.812	132.071	141.3782	178.2764	187.4999	226.9796	283.9805	359.4854	382.7068	409.4209	490.1197	605.8492	675.7956	764.9761	796.346	894.4924	924.2854	979.0691	995.4833	1044.2939	1054.4787	1094.8526	1136.4332	1157.5662	1182.8987	1191.9855	1217.3079	1246.4272	1288.0035	1342.1216	1364.6915	1402.0064	1429.694	1469.1579	1478.4583	1487.7754	1494.881	1503.6104	1508.4123	2354.3217	2949.8755	2991.3347	3043.1917	3055.4809	3099.1462	3102.8015	3127.1901	3132.5507	3156.5706	3517.9404
COC(C#N)C1NC1C	CO[C@@H](C#N)[C@H]1N[C@H]1C	
InChI=1S/C6H10N2O/c1-4-6(8-4)5(3-7)9-2/h4-6,8H,1-2H3	InChI=1S/C6H10N2O/c1-4-6(8-4)5(3-7)9-2/h4-6,8H,1-2H3/t4-,5-,6-/m0/s1
