21
gdb 82484	3.22246	1.48502	1.39655	1.5623	81.68	-0.2326	0.0815	0.3141	1055.0187	0.182737	-387.05727	-387.049235	-387.04829	-387.08924	32.482	
C	-0.0442638898	 1.6006274415	 0.0927589567	-0.417869
C	 0.0693723159	 0.088437678	-0.0044702822	 0.024604
C	 0.6690540859	-0.5998398712	-1.2698769615	-0.079031
C	 2.0486726152	-0.0298330621	-1.6962740592	-0.275021
C	 2.7076078562	-0.758407426	-0.4965903796	 0.454051
C	 4.1309608295	-1.2376159666	-0.5672106313	-0.485257
O	 2.4306451553	-0.0415065531	 0.7406210621	-0.342852
C	 1.1241096118	-0.6497675838	 0.8575839976	 0.090111
C	 1.4136139285	-1.6158606001	-0.3203552042	-0.153004
H	 0.9434330167	 2.0664047931	 0.0434617244	 0.130929
H	-0.6601011755	 2.0071634159	-0.7171156342	 0.110047
H	-0.5035218577	 1.8986245202	 1.0420232625	 0.112112
H	-0.9013105258	-0.3855944122	 0.1927317314	 0.069513
H	-0.0239117508	-0.887805556	-2.0605926996	 0.063192
H	 2.3717381702	-0.4798687982	-2.6413173908	 0.09616
H	 2.1803132172	 1.0541729405	-1.7534238371	 0.09934
H	 4.816226533	-0.3823699943	-0.5867652392	 0.127593
H	 4.377896632	-1.8501188603	 0.3049734564	 0.123517
H	 4.2979876428	-1.8295045931	-1.4726618774	 0.114897
H	 0.8915590321	-0.915678427	 1.891623686	 0.068364
H	 1.3406913973	-2.7003946254	-0.3229279309	 0.068603
145.7205	190.9343	201.7373	210.8	278.7999	326.2663	415.4461	439.4753	553.6572	575.7509	687.1673	710.1205	779.1327	829.1325	849.135	851.5269	893.5272	909.4676	940.6023	953.5677	965.5974	990.3198	1041.1906	1082.5396	1105.5299	1117.656	1139.4603	1152.4224	1170.4199	1178.9683	1203.7467	1217.4979	1258.5278	1266.6608	1321.1455	1326.9483	1340.6696	1366.3206	1405.569	1409.446	1471.6572	1479.1319	1489.0136	1489.5821	1507.2192	3019.7522	3031.0751	3031.5102	3042.6733	3075.9424	3090.6313	3097.7388	3100.566	3103.5148	3113.6127	3118.3122	3147.5732
CC1C2CC3(C)OC1C23	C[C@H]1[C@H]2C[C@@]3(C)O[C@@H]1[C@@H]23	
InChI=1S/C8H12O/c1-4-5-3-8(2)6(5)7(4)9-8/h4-7H,3H2,1-2H3	InChI=1S/C8H12O/c1-4-5-3-8(2)6(5)7(4)9-8/h4-7H,3H2,1-2H3/t4-,5+,6+,7-,8+/m0/s1
