16
gdb 45960	2.95172	1.52315	1.16674	1.3138	71.36	-0.2541	-0.0323	0.2218	1037.7316	0.125479	-437.90422	-437.896678	-437.895734	-437.936796	28.521	
N	 0.0442557629	 1.1540306472	-0.5284881542	-0.509861
C	-0.0506629812	 0.0714647089	 0.1177959538	 0.380919
O	 0.9219133699	-0.3516317816	 0.9917896769	-0.264585
C	 1.2883536916	-1.7340883251	 1.0093301098	-0.187326
C	 0.1966790036	-2.7564003119	 0.6858767666	 0.361505
O	 0.4888233458	-3.9282281347	 0.6209954865	-0.317209
C	-1.1626882207	-2.2380159898	 0.4119482739	-0.148618
C	-1.808599026	-1.2713642794	 1.3858550628	-0.300916
C	-1.2826667105	-0.7512940761	 0.0777997788	-0.078286
H	 0.9542089777	 1.5853987766	-0.3542367457	 0.225064
H	 2.1047087251	-1.9061448963	 0.2957209746	 0.148473
H	 1.6791337799	-1.9417328999	 2.0096512603	 0.152321
H	-1.8131462431	-2.938698752	-0.0979473036	 0.122974
H	-2.882074986	-1.3574941947	 1.5016717376	 0.140999
H	-1.2681950735	-1.0072754444	 2.2869003775	 0.145173
H	-1.9863655855	-0.4594976769	-0.6902837255	 0.129374
61.0941	112.522	193.4147	283.9395	399.7668	409.5902	470.486	494.017	591.1022	650.9799	713.5189	751.3128	802.2241	838.1264	906.335	921.2974	947.507	980.702	1013.2851	1024.4678	1080.2231	1100.6227	1124.4937	1145.3888	1193.1322	1254.788	1259.2636	1315.132	1361.2612	1370.1427	1407.7492	1471.3256	1481.2508	1753.6334	1807.271	3028.9034	3094.4615	3150.7088	3188.7731	3210.4391	3243.382	3470.8761
N=C1OCC(=O)C2CC12	[NH][C]1OCC(=O)[C@H]2C[C@@H]12	
InChI=1S/C6H7NO2/c7-6-4-1-3(4)5(8)2-9-6/h3-4,7H,1-2H2	InChI=1S/C6H7NO2/c7-6-4-1-3(4)5(8)2-9-6/h3-4,7H,1-2H2/t3-,4+/m0/s1
