19
gdb 90121	3.11852	1.55687	1.41703	1.1163	75.93	-0.2372	0.0422	0.2794	998.7907	0.159914	-422.900408	-422.893101	-422.892157	-422.931769	30.021	
C	-0.236641182	 1.6003531832	-0.2355536383	-0.408546
C	-0.0317284715	 0.1150395671	-0.0262854456	 0.051433
O	 0.9498285642	-0.5114495073	-0.9694714036	-0.368276
C	 1.8392081411	-0.7084556147	 0.152465795	 0.354225
C	 2.5220325009	-1.7688588969	 1.0974543781	-0.330715
C	 2.037407033	-0.6324722736	 2.1333500253	 0.041642
O	 2.8789101346	 0.4596044508	 1.837164287	-0.250287
C	 2.8144238932	 0.4728598236	 0.3982930536	-0.119554
C	 0.7643543514	-0.5579151332	 1.1707954413	-0.08322
H	 0.6497615502	 2.201222941	-0.0326324964	 0.132652
H	-0.5496416295	 1.7859404507	-1.2681279147	 0.13342
H	-1.0371737751	 1.9446231633	 0.4281605602	 0.125173
H	-0.9906074005	-0.3978902872	-0.1485577738	 0.096289
H	 1.9896301466	-2.7136550047	 1.1883486392	 0.117671
H	 3.6048882651	-1.9150498125	 1.043492472	 0.105598
H	 1.9761267388	-0.7988195854	 3.2079508692	 0.09536
H	 3.8052816353	 0.2883863592	-0.0329369391	 0.105917
H	 2.4528589847	 1.4396833818	 0.0460082288	 0.106643
H	 0.2643012695	-1.5186489452	 1.3096551819	 0.094576
139.435	195.3119	233.4678	348.0698	367.5164	443.8984	451.6462	491.3918	589.8521	631.5394	712.5287	728.4822	789.5511	831.0773	865.6035	922.8474	937.588	961.9708	983.5821	1013.933	1046.0595	1053.2702	1060.9466	1095.7657	1106.5452	1126.5383	1160.9129	1170.4636	1186.8675	1221.4345	1244.402	1267.0152	1289.2833	1364.755	1384.5956	1401.0527	1432.7716	1481.8645	1489.8514	1490.9836	1538.0448	3038.2148	3042.673	3051.789	3062.9789	3074.4534	3105.8398	3115.6061	3136.6455	3150.3665	3163.0631
CC1OC23CC(OC2)C13	C[C@H]1O[C@@]23C[C@@H](OC2)[C@@H]13	
InChI=1S/C7H10O2/c1-4-6-5-2-7(6,9-4)3-8-5/h4-6H,2-3H2,1H3	InChI=1S/C7H10O2/c1-4-6-5-2-7(6,9-4)3-8-5/h4-6H,2-3H2,1H3/t4-,5-,6-,7+/m1/s1
