16
gdb 127271	3.33395	1.38867	0.98646	3.12	81.91	-0.1947	-0.0292	0.1655	1149.3783	0.126082	-434.081265	-434.073313	-434.072368	-434.114325	29.742	
C	 0.0195651647	 1.4403273867	 0.2286490411	-0.323916
N	 0.0031142956	 0.0120011181	-0.0511307832	 0.015755
C	-1.1896384276	-0.6739087459	-0.1108539274	-0.104077
C	-1.196612699	-2.005438042	-0.3731859854	 0.32741
O	-2.3087305626	-2.7432890686	-0.44813149	-0.427534
C	 0.0561780404	-2.7070814536	-0.5911727714	 0.193111
N	-0.04369854	-3.9770015313	-0.8354622644	-0.618012
C	 1.2125637996	-1.8496981109	-0.4953559152	-0.076211
N	 1.1850443753	-0.5657206745	-0.2402567391	-0.210163
H	 1.0601831043	 1.7589472889	 0.2287897733	 0.164455
H	-0.5330199623	 1.9918539746	-0.5393649626	 0.143245
H	-0.4282054329	 1.6484406861	 1.2061420508	 0.143233
H	-2.0900541167	-0.099421546	 0.0597017468	 0.135906
H	-1.9612259754	-3.6427341715	-0.6476478436	 0.307442
H	 0.8599823403	-4.4226973598	-0.9807583457	 0.212091
H	 2.2056238662	-2.2649650903	-0.6402973041	 0.117264
43.7608	130.7851	194.5896	303.8799	332.9805	338.3157	411.0173	447.2935	542.5602	574.0177	601.8568	700.2248	763.2863	765.342	795.3224	833.7539	853.8269	900.7491	967.621	1086.3615	1123.2241	1149.2357	1199.5405	1252.4268	1324.5271	1365.2629	1387.2096	1434.3737	1449.833	1484.6756	1505.273	1533.7245	1546.2713	1644.7589	1700.1508	3033.9895	3091.961	3173.3211	3176.0285	3224.5819	3456.2773	3499.2373
CN1C=C(O)C(=N)C=N1	Cn1cc(O)c([NH])cn1	
InChI=1S/C5H7N3O/c1-8-3-5(9)4(6)2-7-8/h2-3,6,9H,1H3	InChI=1S/C5H12N3O/c1-8-3-5(9)4(6)2-7-8/h4-7,9H,2-3H2,1H3
