22
gdb 64429	2.52769	1.46133	1.19457	2.404	83.15	-0.2371	0.0205	0.2577	1159.5404	0.194463	-404.368237	-404.359088	-404.358144	-404.401712	35.528	
C	-0.1696970317	 1.6293370455	-0.0913358315	-0.417538
C	-0.045467718	 0.1009200655	-0.020071294	 0.35115
C	-1.4338694992	-0.5402562158	 0.0571462767	-0.405649
C	 0.7280489346	-0.4875548183	-1.2102497273	-0.200459
C	 2.1502433243	 0.0354932478	-1.4143211892	-0.232891
C	 3.1262381562	-0.3982457645	-0.3168340641	-0.140739
N	 2.9183676443	 0.113862795	 1.0278586386	-0.244573
C	 1.8112502078	 0.1203834389	 1.6296312234	 0.111317
O	 0.5530452801	-0.2485361558	 1.2582731762	-0.26854
H	 0.8034646264	 2.1193590505	-0.0137860266	 0.131593
H	-0.6299510203	 1.933017393	-1.0366704475	 0.116209
H	-0.7971802736	 1.9893590463	 0.7285614234	 0.122263
H	-2.0200148166	-0.2944894315	-0.8330845366	 0.114418
H	-1.3508538522	-1.6283538895	 0.1292004856	 0.121797
H	-1.970097307	-0.1787708278	 0.9383361713	 0.122759
H	 0.7590374308	-1.5779795239	-1.0883166108	 0.098551
H	 0.1338512265	-0.2918121563	-2.1109980077	 0.096831
H	 2.5316532411	-0.3474194158	-2.3688413304	 0.097479
H	 2.1559632332	 1.1278480409	-1.5018226633	 0.105825
H	 3.1252367686	-1.4981251772	-0.2603482267	 0.107767
H	 4.1406646255	-0.1114295606	-0.6146770467	 0.102817
H	 1.7958448493	 0.4129247336	 2.6815808973	 0.109616
81.0185	103.1467	216.0391	247.6421	261.6886	306.8384	316.911	379.5242	386.2244	418.9719	444.4267	506.9238	553.6316	691.9429	789.6905	818.4057	831.1737	881.7945	923.2507	933.6613	958.0575	985.0579	1006.6937	1024.9146	1077.306	1087.8963	1139.5511	1177.6434	1186.3561	1242.1662	1264.6283	1278.9268	1315.6658	1378.4341	1385.6717	1397.8045	1402.3601	1419.2134	1435.3946	1468.1656	1479.2438	1482.0435	1491.6852	1494.7557	1495.7338	1515.4054	1751.6974	2988.8659	3019.9905	3030.1793	3042.9438	3048.31	3054.9854	3060.9606	3074.2171	3113.611	3115.095	3120.1372	3125.0232	3129.7978
CC1(C)CCCN=CO1	CC1(C)CCCN=CO1	
InChI=1S/C7H13NO/c1-7(2)4-3-5-8-6-9-7/h6H,3-5H2,1-2H3	InChI=1S/C7H13NO/c1-7(2)4-3-5-8-6-9-7/h6H,3-5H2,1-2H3
