21
gdb 59543	2.66348	1.16996	1.12647	1.0399	78.39	-0.2356	0.0661	0.3016	1240.7807	0.180927	-424.180628	-424.171209	-424.170265	-424.214684	35.771	
C	-0.1688832561	 1.5822741113	 0.0125005051	-0.409534
C	-0.0353853755	 0.083495072	 0.2692621316	 0.096513
O	 0.410246488	-0.2045555241	 1.5928582687	-0.431255
C	-1.3570605038	-0.6456945879	 0.0340914985	 0.140239
O	-1.959722968	-0.4511368592	-1.2785115932	-0.309461
C	-2.2386987237	-1.8573232868	-1.3652052009	 0.070761
C	-0.9794321314	-2.6528627467	-1.4755516667	-0.012667
C	 0.2354043984	-2.2058150418	-2.2602819318	-0.423604
C	-1.4456659016	-2.1619520427	-0.1083787182	-0.182082
H	 0.7828350319	 2.0869431543	 0.1994225387	 0.12175
H	-0.4780189143	 1.7702545585	-1.0193979736	 0.140645
H	-0.9281153991	 2.0219519936	 0.6726565501	 0.103989
H	 0.7384223453	-0.331741839	-0.3804345994	 0.094416
H	-0.1664064467	 0.2676429133	 2.2042881324	 0.277715
H	-2.0737963069	-0.3007506109	 0.7982497449	 0.065667
H	-3.2262437259	-2.1476115099	-1.7059113722	 0.099639
H	-1.1938622217	-3.7178454225	-1.5587680339	 0.090246
H	 0.2278547832	-1.1237721624	-2.4047378648	 0.136424
H	 1.1697365416	-2.4877041757	-1.7638708449	 0.120585
H	 0.231740565	-2.6709381961	-3.2519841889	 0.112653
H	-1.6598441387	-2.8444204373	 0.7024769285	 0.097359
65.636	129.3253	152.8718	233.155	240.3427	262.8097	286.1247	305.3057	339.0122	436.5518	465.092	530.7674	618.5416	722.0778	765.4606	811.7078	864.3004	885.142	931.3287	986.8337	994.9389	1006.1442	1034.2927	1056.4038	1066.6883	1076.6938	1086.3081	1112.0606	1141.8098	1185.3396	1206.5298	1254.9451	1267.6764	1295.1446	1329.6338	1342.2404	1398.5661	1404.8768	1414.5808	1417.7548	1443.862	1491.1094	1494.5078	1498.3449	1507.3666	2959.5434	3022.64	3036.0576	3087.3328	3092.6131	3107.3309	3116.5453	3127.6743	3135.2424	3173.3901	3206.1934	3792.9377
CC(O)C1OC2C(C)C12	C[C@@H](O)[C@H]1O[C@H]2[C@@H](C)[C@@H]12	
InChI=1S/C7H12O2/c1-3-5-6(3)9-7(5)4(2)8/h3-8H,1-2H3	InChI=1S/C7H12O2/c1-3-5-6(3)9-7(5)4(2)8/h3-8H,1-2H3/t3-,4+,5+,6-,7+/m0/s1
