20
gdb 39633	3.92524	1.11812	1.06693	1.6399	78.22	-0.2306	0.0704	0.3011	1196.1542	0.172768	-403.038945	-403.031163	-403.030218	-403.072633	29.513	
C	-0.0201035584	 1.4566796229	-0.1861438712	-0.080209
O	 1.2992041966	 1.6018062154	 0.3742624036	-0.269592
C	 1.4405701459	 0.1776700591	 0.5402247299	-0.080207
C	 0.0131548715	-0.0805488309	-0.0019206097	-0.203375
C	-0.9812635935	-0.668568927	 0.9624463564	 0.3239
C	-1.3284223233	-0.2406004043	 2.4135824953	-0.203813
N	-2.2720566104	-1.4370651907	 2.2051121724	-0.142207
C	-2.5163582719	-0.825232293	 0.8149498	-0.214481
C	-1.0549915497	-2.1044321309	 1.5418287746	-0.214473
H	-0.7784533224	 1.9864052869	 0.4047025789	 0.09865
H	-0.0679086724	 1.8094558704	-1.2237009943	 0.100635
H	 2.2593602937	-0.2283689651	-0.0663856341	 0.100636
H	 1.6041302072	-0.0998576159	 1.5895248164	 0.098649
H	-0.0075368402	-0.6383147283	-0.9424525265	 0.079951
H	-0.5828316355	-0.407133276	 3.1960347877	 0.102987
H	-1.8547105759	 0.7062054268	 2.5634161496	 0.102985
H	-3.1340422569	 0.0772846231	 0.8392694831	 0.100574
H	-2.892648883	-1.5446639486	 0.0816843412	 0.099408
H	-1.3207706263	-2.9206015368	 0.8635345636	 0.099408
H	-0.2865185751	-2.4152702573	 2.255614453	 0.100574
37.8161	63.0825	160.6608	205.4802	350.9707	409.2646	568.9197	596.2631	613.6901	791.9357	795.7563	820.304	871.8789	884.4792	931.3732	958.6062	964.1869	969.7451	976.1633	1025.2851	1042.5159	1044.0817	1052.0909	1087.5822	1153.1559	1160.6226	1166.5228	1166.6214	1170.5688	1178.714	1200.1783	1203.554	1249.9361	1269.9107	1312.7113	1316.8065	1376.1247	1391.8898	1508.8865	1511.0697	1512.5276	1536.7767	1565.2718	3004.2414	3015.1598	3040.8284	3043.7804	3046.4252	3050.5593	3054.3911	3071.7578	3106.763	3112.5711	3115.8192
C1OCC1C12CN(C1)C2	C1OCC1[C@@]12CN(C1)C2	
InChI=1S/C7H11NO/c1-6(2-9-1)7-3-8(4-7)5-7/h6H,1-5H2	InChI=1S/C7H11NO/c1-6(2-9-1)7-3-8(4-7)5-7/h6H,1-5H2
