20
gdb 114088	3.84307	1.12223	1.03933	2.7204	74.34	-0.2413	0.0583	0.2995	1198.6273	0.172843	-440.24318	-440.235164	-440.234219	-440.275473	32.408	
O	 0.7173744089	-0.5532461426	-1.0931331658	-0.425523
C	 0.0707583108	-0.0254012062	 0.0462011573	-0.080794
C	-1.3981365314	-0.4247382975	 0.0596771922	 0.041
C	-2.3165215699	 0.2029297057	 1.1485980416	-0.285804
C	-3.3623206966	 0.8052996062	 0.1957706066	 0.391025
O	-4.4130434382	 1.4414468563	 0.8421345379	-0.477412
C	-3.5025727383	-0.3248210652	-0.8703665129	-0.239857
N	-2.0707214559	 0.016781176	-1.2216454192	-0.154031
C	-2.4423807145	 1.4474073156	-0.8796371836	-0.24871
H	 0.0871641817	-0.4405281757	-1.818019336	 0.288503
H	 0.5727978763	-0.4318667028	 0.9317751411	 0.106538
H	 0.1740273378	 1.0718476568	 0.0961768724	 0.081436
H	-1.4423906098	-1.5180002059	 0.0747022014	 0.088147
H	-2.7524951387	-0.5328277711	 1.8285565623	 0.108234
H	-1.8252662289	 0.9766997295	 1.7467293875	 0.107823
H	-5.0112246022	 1.8007184605	 0.1785090861	 0.283187
H	-3.6687469399	-1.3561773607	-0.5468651828	 0.105881
H	-4.169485325	-0.0700588714	-1.6989101754	 0.099686
H	-2.9827332448	 1.8967183375	-1.7172257823	 0.101557
H	-1.6219192512	 2.0974860651	-0.5681629383	 0.109114
99.8578	150.9486	247.4007	316.6703	318.8578	376.2644	425.9582	442.6773	489.8926	542.867	551.4395	633.8026	662.7834	797.0406	846.1508	858.4681	903.3598	940.2819	959.672	972.3754	1013.7504	1026.7131	1048.9243	1080.1373	1096.0748	1126.7149	1159.1609	1199.3426	1208.3514	1214.5365	1222.6971	1244.1963	1256.1979	1309.0885	1336.4023	1348.9887	1393.7864	1397.5046	1451.7262	1494.031	1499.869	1514.3581	1536.7028	2961.4487	3049.5097	3053.7675	3056.4284	3063.0159	3067.0939	3107.4131	3114.5544	3123.588	3746.4407	3810.1459
OCC1CC2(O)CN1C2	OC[C@H]1C[C@]2(O)CN1C2	
InChI=1S/C6H11NO2/c8-2-5-1-6(9)3-7(5)4-6/h5,8-9H,1-4H2	InChI=1S/C6H11NO2/c8-2-5-1-6(9)3-7(5)4-6/h5,8-9H,1-4H2/t5-/m1/s1
