18
gdb 50721	2.75497	1.46601	1.04471	6.4183	76.18	-0.2251	0.0054	0.2305	1142.6387	0.150376	-435.300219	-435.29202	-435.291076	-435.333436	30.68	
N	-0.0377438072	 1.3199766875	 0.1849843227	-0.501438
C	 0.0181296459	 0.0627027875	 0.0005696039	 0.402006
N	 1.1784054635	-0.7020337727	-0.1222366464	-0.344703
C	 1.2520294047	-1.9890112872	-0.8098774859	-0.157306
C	-0.024302723	-2.7864441328	-0.5686532916	-0.196352
C	-1.2177070132	-1.8865753545	-0.8783982744	-0.181953
N	-1.1795410358	-0.6981161833	-0.0292473265	-0.09705
C	-2.2706398002	-0.4167655091	 0.7853046028	 0.160387
O	-2.3603362056	 0.4306703539	 1.6305174093	-0.285009
H	 0.897173948	 1.7252277296	 0.2309118318	 0.204268
H	 1.9963019004	-0.1240050701	-0.2480430412	 0.236576
H	 1.3913066733	-1.8540846068	-1.8954026907	 0.103353
H	 2.1271635181	-2.5310892264	-0.4369332377	 0.116158
H	-0.0332030337	-3.6746943962	-1.2071842663	 0.110219
H	-0.0769781954	-3.1133915045	 0.4750683173	 0.122574
H	-1.2038085771	-1.5945205205	-1.9378379341	 0.116832
H	-2.1640623097	-2.4016693079	-0.6963000655	 0.121518
H	-3.0921375128	-1.1289540165	 0.5602656726	 0.069919
58.3522	113.1971	195.4411	236.6133	256.4144	346.5045	418.4563	456.4208	493.6889	536.6591	630.4205	693.2451	717.251	769.2624	818.6728	893.9185	910.4795	978.3933	986.1914	1021.3945	1072.7148	1122.1305	1169.6871	1190.8493	1206.0019	1241.067	1267.5789	1319.885	1362.9156	1382.0957	1401.4387	1442.0418	1465.2062	1476.9882	1486.8079	1509.4075	1524.6836	1717.928	1844.8903	2905.2894	2962.3047	3007.8801	3049.9333	3065.4862	3095.9579	3103.5052	3478.6395	3603.2809
N=C1NCCCN1C=O	[NH][C]1NCCCN1C=O	
InChI=1S/C5H9N3O/c6-5-7-2-1-3-8(5)4-9/h4H,1-3H2,(H2,6,7)	InChI=1S/C5H9N3O/c6-5-7-2-1-3-8(5)4-9/h4H,1-3H2,(H2,6,7)
