23
gdb 117998	3.24934	0.76886	0.65383	4.8181	86.88	-0.2594	0.0256	0.2849	1760.7543	0.204622	-384.487969	-384.476762	-384.475818	-384.524788	40.246	
C	-0.0037922363	 1.6092499814	-0.0515083231	-0.380861
C	 0.0338853331	 0.0826923598	 0.0659469401	-0.18083
C	-1.3668600272	-0.5439006855	 0.0458043945	-0.177759
C	-1.3852576232	-2.0827367467	 0.0366060279	 0.015317
C	-0.7566386958	-2.6786842282	 1.3041851441	-0.412795
C	-2.8449194449	-2.6073877295	-0.1533644814	-0.131555
N	-3.5823257741	-2.1450439843	-1.3314771766	-0.508189
C	-2.8524636059	-4.0821714177	-0.1762490797	 0.30465
N	-2.8276862781	-5.2369698274	-0.2074158954	-0.331273
H	 1.0044454122	 2.0339726519	-0.0343544664	 0.11635
H	-0.482396304	 1.9242550897	-0.9854833313	 0.114114
H	-0.566959986	 2.0564654097	 0.7751687505	 0.116361
H	 0.6263836936	-0.334563469	-0.7591073182	 0.098759
H	 0.5570308483	-0.1940655072	 0.98790776	 0.105769
H	-1.9396880331	-0.1821423496	 0.9128625391	 0.093539
H	-1.8887121234	-0.1710830302	-0.84439444	 0.08113
H	-0.8104161161	-2.4287791655	-0.8348791354	 0.081987
H	-1.2856511878	-2.3337063038	 2.2011073556	 0.115484
H	-0.7919650231	-3.7709393888	 1.2917595044	 0.14728
H	 0.2905182352	-2.3832707371	 1.4027516447	 0.124071
H	-3.4276477552	-2.3031215389	 0.7271559158	 0.128461
H	-3.7461813536	-1.1468372504	-1.2701031332	 0.24157
H	-3.0423093245	-2.3143325225	-2.1751937461	 0.238422
49.4761	72.7506	100.6549	124.8988	185.4288	215.6103	229.5522	247.2305	281.1308	308.7887	336.6872	385.9448	429.3142	442.9478	582.488	606.3247	748.3723	807.8579	838.8655	861.0514	884.5214	934.3761	958.2464	1008.6153	1036.7725	1075.268	1098.6489	1121.0916	1152.9291	1181.1871	1210.025	1249.9779	1286.0078	1317.1225	1331.6346	1361.306	1362.5418	1391.1707	1406.1396	1413.5941	1418.7831	1480.6834	1493.6448	1498.8437	1500.473	1508.0889	1512.0782	1655.2957	2358.8705	2994.4897	3002.0294	3022.7865	3025.1644	3030.5192	3035.1442	3041.099	3067.7566	3098.1776	3105.0269	3107.5843	3127.5041	3502.1085	3595.9898
CCCC(C)C(N)C#N	CCC[C@@H](C)[C@@H](N)C#N	
InChI=1S/C7H14N2/c1-3-4-6(2)7(9)5-8/h6-7H,3-4,9H2,1-2H3	InChI=1S/C7H14N2/c1-3-4-6(2)7(9)5-8/h6-7H,3-4,9H2,1-2H3/t6-,7+/m1/s1
