21
gdb 121269	4.00854	0.92161	0.82528	1.1183	78.86	-0.2519	0.0924	0.3443	1455.1945	0.182855	-424.211367	-424.202487	-424.201543	-424.245579	32.88	
C	 0.023259847	 1.3668889567	 0.0226566528	-0.225744
O	 0.0255004174	-0.0397574052	 0.0316773525	-0.23571
C	 0.682112806	-0.5817079238	 1.1585528827	-0.067353
C	 0.6605767203	-2.0995642112	 1.0469401143	-0.023631
C	 1.4093508571	-2.6473176077	-0.197213142	-0.216746
C	 1.9353424457	-4.0461899016	 0.2057528424	-0.250051
C	 2.101802159	-3.9519465174	 1.7093053379	 0.052684
O	 2.7762597191	-2.760394594	 2.1428838202	-0.264488
C	 1.3409548349	-2.8020593995	 2.2096473094	 0.024697
H	 1.0451563562	 1.7781224239	 0.0049629718	 0.104507
H	-0.5024522112	 1.6889829887	-0.8797063984	 0.125445
H	-0.4952329425	 1.7810732898	 0.9024187934	 0.101848
H	 1.725805986	-0.2284237929	 1.2082951314	 0.099539
H	 0.1813107179	-0.2541200707	 2.0868486606	 0.079709
H	-0.3884103691	-2.4256981214	 1.0277865951	 0.080386
H	 0.7709190611	-2.673033152	-1.0814112548	 0.108942
H	 2.2518276324	-1.9893267242	-0.4243123492	 0.115106
H	 1.2027027703	-4.8322306626	-0.0165884473	 0.102072
H	 2.8639767162	-4.3113220023	-0.3092636931	 0.108298
H	 2.2928372081	-4.8361993894	 2.3126644164	 0.091075
H	 0.9218624679	-2.7602631933	 3.2127483839	 0.089414
68.0987	100.3024	109.526	175.5077	235.0062	272.04	339.27	371.366	404.4756	540.4086	661.1162	684.5643	817.3283	830.506	856.0221	875.8552	931.5985	960.1349	973.2215	993.89	1024.6402	1052.0244	1090.5377	1118.7501	1136.7287	1166.408	1179.4793	1196.0572	1220.247	1228.5831	1256.7333	1264.4037	1302.663	1316.7161	1325.3311	1336.4404	1373.4199	1421.5582	1438.8603	1480.4757	1482.2861	1485.8685	1494.2269	1504.5598	1529.0908	2944.4071	2968.7253	2980.8681	3010.8461	3021.7537	3033.9621	3072.5281	3085.3878	3111.857	3125.9265	3133.1961	3148.1032
COCC1CCC2OC12	COC[C@H]1CC[C@H]2O[C@@H]12	
InChI=1S/C7H12O2/c1-8-4-5-2-3-6-7(5)9-6/h5-7H,2-4H2,1H3	InChI=1S/C7H12O2/c1-8-4-5-2-3-6-7(5)9-6/h5-7H,2-4H2,1H3/t5-,6-,7+/m1/s1
