19
gdb 104970	1.92818	1.63155	1.0743	1.6505	77.	-0.2486	-0.0918	0.1569	1184.8594	0.156712	-423.03726	-423.027617	-423.026672	-423.072564	34.642	
C	-1.1867279827	 0.1534700463	 0.1030100842	-0.385084
C	 0.3330198033	-0.0257567132	 0.0003859965	-0.271449
C	 0.7879616464	-0.6684475859	-1.3038240458	 0.22878
C	 2.0285035405	-1.5785446959	-1.2633699051	-0.286414
C	 0.6792979511	-2.1851887295	-1.4207123542	-0.278108
C	 0.6651954947	 0.0458307129	-2.6068927007	 0.226773
O	 0.7995800004	-0.502787832	-3.6849961264	-0.304722
C	 0.4418165284	 1.5679356762	-2.7004608097	 0.092523
O	 0.4432506547	 2.355214341	-1.7923279851	-0.229723
H	-1.5614054689	 0.8499001883	-0.6525641748	 0.12264
H	-1.7084667853	-0.800475768	-0.027456833	 0.115124
H	-1.4619937022	 0.5568014621	 1.0821459649	 0.11807
H	 0.8274910227	 0.9379969137	 0.1383137455	 0.128119
H	 0.6705127636	-0.6741959849	 0.8178956487	 0.089578
H	 2.6756222834	-1.5553978427	-2.1322507022	 0.136267
H	 2.5342268661	-1.6489170704	-0.3067888095	 0.124641
H	 0.2368039119	-2.6951283222	-0.572146193	 0.120526
H	 0.4162266776	-2.5750095763	-2.3964847525	 0.140752
H	 0.3167165045	 1.8667557003	-3.763195798	 0.111706
34.4681	86.6252	113.688	181.6694	206.7518	231.6274	276.2465	304.3225	360.6878	435.9116	497.3541	602.5257	627.4266	671.6008	776.6748	796.8384	839.0718	861.8281	937.7246	965.4231	1018.0544	1033.219	1063.1489	1089.7637	1098.9878	1121.613	1150.3483	1205.5335	1279.3107	1298.2909	1362.8197	1376.3683	1385.4793	1412.6416	1455.941	1480.4833	1488.7637	1499.9111	1505.9232	1751.6313	1826.67	2919.2862	3034.4285	3038.7362	3097.6682	3112.0088	3118.6392	3140.174	3142.2886	3228.9561	3243.0096
CCC1(CC1)C(=O)C=O	CCC1(CC1)C(=O)C=O	
InChI=1S/C7H10O2/c1-2-7(3-4-7)6(9)5-8/h5H,2-4H2,1H3	InChI=1S/C7H10O2/c1-2-7(3-4-7)6(9)5-8/h5H,2-4H2,1H3
