16
gdb 65007	1.99484	1.50503	1.0962	2.1312	74.18	-0.2826	0.0087	0.2914	1148.5616	0.121113	-400.701592	-400.692273	-400.691329	-400.735933	33.609	
C	-0.1259022019	 1.5189465241	-0.4045693869	-0.476111
C	-0.0220452325	 0.0426900531	-0.1122367024	 0.419073
C	 0.9402236688	-0.8153565695	-0.8147428902	-0.22358
O	 1.1640283887	-0.3974312184	 0.5388796335	-0.27094
C	-1.2934300204	-0.640123162	 0.4478569801	-0.393003
C	-1.7807337538	-0.0006127446	 1.6711341834	 0.32982
C	-2.1606598152	 0.5250168255	 2.6805913713	-0.415479
C	-2.3418960683	-0.6861493991	-0.5854515334	 0.295933
N	-3.1394016274	-0.7223324401	-1.4199744709	-0.322082
H	 0.8300831993	 1.8934788194	-0.7761706226	 0.134695
H	-0.8970430727	 1.7108283067	-1.1570866807	 0.148086
H	-0.3881331314	 2.069402704	 0.5031708267	 0.147347
H	 0.7343724397	-1.8762867745	-0.9494293403	 0.123172
H	 1.6030760521	-0.3737748351	-1.5561166947	 0.126661
H	-1.0145121207	-1.6755663087	 0.6804765602	 0.163403
H	-2.5020749444	 0.985275889	 3.5753225467	 0.213003
56.3663	124.5487	133.1525	156.5936	192.7105	324.9687	341.7092	359.6044	372.3757	392.3564	523.3424	538.1039	578.8813	654.1152	669.3305	766.7515	840.2876	895.7632	924.5927	963.7102	1035.1968	1040.0242	1117.3181	1135.1205	1167.1463	1229.9673	1262.6017	1300.2689	1400.3321	1426.6435	1481.0926	1495.3538	1534.679	2249.2042	2365.0803	3037.6446	3049.3022	3089.5973	3120.1964	3136.9628	3178.4603	3500.9691
CC1(CO1)C(C#C)C#N	C[C@]1(CO1)[C@@H](C#C)C#N	
InChI=1S/C7H7NO/c1-3-6(4-8)7(2)5-9-7/h1,6H,5H2,2H3	InChI=1S/C7H7NO/c1-3-6(4-8)7(2)5-9-7/h1,6H,5H2,2H3/t6-,7-/m0/s1
