20
gdb 78805	1.85739	1.82644	1.75148	1.4934	78.11	-0.2452	0.0616	0.3068	1007.6453	0.170348	-403.098656	-403.089908	-403.088964	-403.13135	33.842	
C	-0.0592987021	 1.6316874528	-0.0164273668	-0.431289
C	 0.1096413546	 0.1181612572	 0.0354813632	 0.000893
C	 1.1603782927	-0.614706694	-0.7796304953	-0.058433
C	 2.4177041099	-0.74187179	 0.0136299281	-0.107326
C	 2.195190278	-0.1520190581	 1.3927217579	 0.09546
O	 2.3969065749	 1.2131129733	 1.6834013495	-0.434109
C	 0.7427739369	-0.6409133083	 1.236702842	 0.279727
C	-0.0736342746	-1.0533081756	 2.4275352885	-0.507155
N	 1.2868659668	-1.7219401259	 0.2265711693	-0.197228
H	 0.8877281977	 2.1482703474	 0.1380576242	 0.141214
H	-0.4724861814	 1.9304718759	-0.9864987269	 0.106772
H	-0.759884797	 1.9712693861	 0.7545690946	 0.111584
H	-0.8532973795	-0.3698396976	-0.1626207362	 0.079025
H	 1.1455089474	-0.8334717776	-1.8423177299	 0.089833
H	 3.3520038399	-1.0659443626	-0.4318867347	 0.087698
H	 2.6978004651	-0.7893394488	 2.1335203478	 0.080172
H	 3.3142222323	 1.3391447233	 1.9435767134	 0.285736
H	-0.328331737	-0.1762888117	 3.0334358446	 0.130071
H	-1.0051218458	-1.5371457599	 2.1176321588	 0.12462
H	 0.4798192414	-1.754872496	 3.0600780381	 0.122734
170.576	177.1316	187.9074	198.4055	205.5263	247.6145	276.2383	346.1603	398.6927	556.5831	615.5402	636.9016	725.4214	748.9711	760.0292	808.9411	826.3795	899.3578	938.2724	992.1913	1022.7907	1038.1022	1056.1851	1092.7541	1098.5466	1112.8904	1134.9204	1155.3614	1172.7396	1222.4685	1252.875	1283.8599	1323.143	1341.3707	1384.7089	1397.2853	1407.4863	1417.053	1446.3849	1482.0495	1491.3906	1495.6637	1506.0966	3009.4932	3024.9051	3030.9789	3035.7606	3088.5718	3100.2186	3105.799	3154.3129	3165.5543	3178.9181	3826.8429
CC1C2C3C(O)C1(C)N23	C[C@H]1[C@H]2[C@H]3[C@@H](O)[C@]1(C)N23	
InChI=1S/C7H11NO/c1-3-4-5-6(9)7(3,2)8(4)5/h3-6,9H,1-2H3	InChI=1S/C7H11NO/c1-3-4-5-6(9)7(3,2)8(4)5/h3-6,9H,1-2H3/t3-,4-,5-,6+,7+,8?/m0/s1
