15
gdb 19670	4.90906	1.83274	1.7135	1.7583	69.88	-0.2297	0.0272	0.2569	788.6831	0.119425	-325.406282	-325.399984	-325.39904	-325.436457	25.331	
C	 0.0068228735	-1.2609250124	-0.0663161856	-0.440731
C	 0.0218176425	-0.0604419299	 0.006148781	 0.329152
C	 0.016908537	 1.3887926137	 0.0916358969	-0.146162
C	-0.1692682922	 2.1093225959	 1.4232788674	-0.089828
C	 1.2335424858	 2.2118375568	 2.0539324232	-0.081195
C	 2.1768667542	 1.545832581	 1.0691266967	-0.179425
N	 1.3538037571	 2.1287665089	-0.0674169281	-0.181764
C	 0.8066242882	 3.1471223487	 0.9628787055	-0.040792
H	-0.0042251992	-2.3209960267	-0.1310214072	 0.19902
H	-0.6574102367	 1.8017074018	-0.6651122128	 0.110443
H	-1.0692872475	 2.234825661	 2.0116272071	 0.09779
H	 1.3524833715	 2.4193520055	 3.1100596828	 0.092939
H	 3.1644967198	 2.0130513676	 1.0540948621	 0.110347
H	 2.2743802677	 0.4566746565	 1.0508609386	 0.116608
H	 0.7727691182	 4.2186815916	 0.8326829123	 0.103598
145.187	162.1309	366.8137	410.16	537.3151	546.9541	617.6102	660.4739	733.6358	777.862	808.7569	815.4533	822.7956	861.5535	929.2806	963.3725	980.5381	1005.5394	1026.1015	1033.9935	1049.0614	1094.63	1119.0743	1168.0869	1181.1717	1219.4652	1268.5872	1297.8404	1355.4453	1372.3018	1509.8201	2229.8317	3057.3726	3059.2317	3114.417	3190.6637	3197.7745	3229.6482	3501.6758
C#CC1C2C3CN1C23	C#C[C@H]1[C@H]2[C@H]3CN1[C@@H]23	
InChI=1S/C7H7N/c1-2-5-6-4-3-8(5)7(4)6/h1,4-7H,3H2	InChI=1S/C7H7N/c1-2-5-6-4-3-8(5)7(4)6/h1,4-7H,3H2/t4-,5+,6-,7-/m1/s1
