19
gdb 93516	2.36311	1.54413	1.15482	5.7565	71.77	-0.2761	0.0407	0.3168	1125.9008	0.159199	-460.219512	-460.210684	-460.20974	-460.253191	32.632	
C	 0.1182925694	 1.6342223128	-0.0727508057	-0.406173
C	-0.0042839369	 0.1055458154	-0.0220754689	-0.042851
C	 0.6625591855	-0.5724456258	-1.2123512643	-0.074713
O	 2.0933385868	-0.4574578628	-1.1596530932	-0.26047
C	 2.7709286142	-0.4344115403	 0.0093463931	 0.473308
O	 3.9649404343	-0.4061279868	 0.0207126999	-0.362275
O	 2.0676001785	-0.4041731554	 1.1618716231	-0.275642
C	 0.6275160644	-0.5426570108	 1.2126414976	 0.146723
C	 0.1971589357	 0.0095869924	 2.5610862117	-0.413583
H	 1.1599215078	 1.9605803414	-0.0097755916	 0.147953
H	-0.2939404758	 2.0149170256	-1.0120891238	 0.122133
H	-0.4316009219	 2.1053442621	 0.7455520704	 0.125953
H	-1.0651602649	-0.1734195768	-0.0369457419	 0.091238
H	 0.4011693914	-1.6376825153	-1.249001288	 0.115115
H	 0.3737602702	-0.1168786258	-2.1629073042	 0.124038
H	 0.4060094044	-1.6189009247	 1.1824314389	 0.091788
H	 0.4579511617	 1.0661485472	 2.6566354889	 0.137794
H	-0.8844502013	-0.1005847642	 2.6859478558	 0.120214
H	 0.6969138864	-0.5374457382	 3.3642386822	 0.13945
82.1281	95.5904	180.2377	188.4672	239.9837	276.3004	304.5622	358.4743	440.1079	510.012	556.9932	602.4389	735.5485	767.1939	797.321	824.282	895.2086	960.4448	983.255	1008.3044	1036.3856	1065.9346	1118.5058	1159.88	1171.9193	1173.0213	1216.9626	1268.6571	1315.0029	1355.1071	1387.8814	1392.2826	1414.1667	1416.2817	1434.4471	1484.7218	1493.5357	1500.5343	1508.3692	1517.4234	1877.3265	3002.2815	3024.1765	3041.7705	3048.1844	3051.1099	3096.6794	3115.0816	3124.4581	3126.0863	3135.321
CC1COC(=O)OC1C	C[C@H]1COC(=O)O[C@H]1C	
InChI=1S/C6H10O3/c1-4-3-8-6(7)9-5(4)2/h4-5H,3H2,1-2H3	InChI=1S/C6H10O3/c1-4-3-8-6(7)9-5(4)2/h4-5H,3H2,1-2H3/t4-,5-/m0/s1
