19
gdb 58828	3.3243	1.26458	1.09689	0.9882	74.07	-0.229	0.0619	0.291	1149.5792	0.157477	-422.941732	-422.93323	-422.932286	-422.974767	33.179	
C	-0.1296485063	 1.5263240251	 0.0496871582	-0.407459
C	 0.0761327468	 0.0094469653	 0.0646137893	 0.005681
O	-1.1483596076	-0.6810343321	 0.291944544	-0.424587
C	 0.7662087476	-0.4797245474	-1.187755919	 0.326151
C	 0.0732117193	-0.9217497862	-2.449018156	-0.346937
C	 0.9408901505	-1.902303311	-1.6959963447	-0.161967
C	 2.4562448753	-1.6104798324	-1.9243973176	 0.021034
O	 2.6021233308	-0.5047583901	-2.8297745318	-0.241324
C	 2.2970635098	-0.2406363718	-1.4540675195	-0.048197
H	 0.8231444309	 2.0558748181	-0.0519078418	 0.121128
H	-0.760800173	 1.8193018448	-0.7981240387	 0.113831
H	-0.6113212713	 1.8536249587	 0.9752711781	 0.123148
H	 0.7009427316	-0.2524947077	 0.929527042	 0.087985
H	-1.8027114292	-0.3169031024	-0.3141331858	 0.280705
H	-0.9892501288	-1.1142378854	-2.3405944887	 0.102247
H	 0.3837293053	-0.5431643458	-3.414531791	 0.134078
H	 0.5561179073	-2.8125493888	-1.2566828437	 0.103043
H	 3.2813714912	-2.3079560799	-1.8494897074	 0.108832
H	 2.9582584598	 0.423873969	-0.909773596	 0.102606
67.0716	143.0762	188.6479	248.3001	296.35	307.524	354.7587	423.0733	460.717	491.9025	591.1001	673.753	755.5028	801.8493	807.2584	828.9923	880.5444	900.6855	927.2139	958.1136	975.9289	992.0987	1020.7856	1052.095	1063.272	1086.3737	1100.09	1121.7939	1164.553	1215.6486	1251.9652	1260.0777	1304.8137	1347.5794	1369.3966	1395.9421	1401.673	1419.7248	1469.7397	1489.3169	1493.6903	3013.6719	3028.2134	3096.8802	3117.0802	3141.3914	3177.8308	3196.2583	3211.5162	3233.7475	3804.8539
CC(O)C12CC1C1OC21	C[C@@H](O)[C@]12C[C@H]1[C@H]1O[C@@H]21	
InChI=1S/C7H10O2/c1-3(8)7-2-4(7)5-6(7)9-5/h3-6,8H,2H2,1H3	InChI=1S/C7H10O2/c1-3(8)7-2-4(7)5-6(7)9-5/h3-6,8H,2H2,1H3/t3-,4+,5-,6-,7-/m1/s1
