17
gdb 63611	2.90848	1.06018	0.94661	4.8019	77.	-0.273	-0.0878	0.1852	1292.8552	0.133748	-418.007877	-417.998445	-417.9975	-418.042407	33.849	
C	-0.0504749179	 1.5809463228	-0.2552559535	-0.448019
C	-0.0495542544	 0.0865413351	-0.0173204886	 0.3148
C	-1.2633584421	-0.6535839931	-0.5439185447	-0.453908
N	 1.2564826575	-0.5524705855	-0.0986587717	-0.336211
C	 0.6104792183	-0.5001876266	 1.2240735766	-0.203153
C	 1.2451000835	 0.3552785787	 2.2615464804	 0.341286
O	 2.0323272111	 1.2494378849	 2.073075642	-0.280796
C	 0.7871875213	 0.0484679211	 3.6386270581	 0.20953
N	 0.4287107436	-0.2002966055	 4.7096165703	-0.302593
H	 0.8567799241	 2.0417078209	 0.1351326624	 0.166784
H	-0.0993286837	 1.7759821736	-1.332033282	 0.126345
H	-0.923019727	 2.0497206809	 0.2113190556	 0.121951
H	-1.3312847339	-0.5350796819	-1.6312768115	 0.135431
H	-1.2145194922	-1.723685815	-0.3192118992	 0.119414
H	-2.1864102829	-0.256278264	-0.1101783231	 0.138399
H	 1.1839571562	-1.4988297005	-0.466621035	 0.2407
H	 0.1450327085	-1.4000977059	 1.6190256737	 0.110042
50.6681	115.7727	159.1907	190.4228	219.7868	238.3586	292.652	320.3544	363.8327	407.7296	449.7776	488.7451	604.4892	661.5942	760.1929	827.3853	860.3379	926.1833	962.5301	972.0981	1021.0974	1054.6722	1084.0337	1122.2503	1151.6276	1198.1615	1301.4249	1349.6171	1414.0787	1424.7221	1447.8289	1479.3837	1485.4957	1502.2415	1508.5142	1786.2845	2335.3389	3030.6386	3041.4216	3097.4328	3101.9976	3109.2321	3140.0298	3157.0257	3492.1007
CC1(C)NC1C(=O)C#N	CC1(C)N[C@H]1C(=O)C#N	
InChI=1S/C6H8N2O/c1-6(2)5(8-6)4(9)3-7/h5,8H,1-2H3	InChI=1S/C6H8N2O/c1-6(2)5(8-6)4(9)3-7/h5,8H,1-2H3/t5-/m0/s1
