14
gdb 48452	1.93929	1.66226	1.27651	3.3865	68.79	-0.2761	-0.0757	0.2004	1033.9943	0.098719	-436.709561	-436.701078	-436.700133	-436.743285	29.759	
O	-0.4444740702	 0.5113367818	 0.6966102111	-0.235997
C	 0.1957405062	 0.9175900059	-0.2348523949	 0.125083
C	 1.2990406342	 1.9694639339	-0.0866849583	-0.073115
C	 1.3214518758	 2.6449400304	 1.3201121634	-0.271693
C	 2.4062371284	 1.6480770213	 1.8205273953	-0.333177
C	 2.633304308	 1.2056507605	 0.3821796961	 0.375905
O	 3.4679030065	 0.6239168867	-0.2254707812	-0.246221
C	 1.4239898969	 2.7859809818	-1.2729909137	 0.238866
N	 1.5262867762	 3.4349535506	-2.2248090457	-0.319752
H	 0.0664348201	 0.5317162829	-1.264306701	 0.128026
H	 1.6754652079	 3.6739671551	 1.2683515368	 0.142905
H	 0.3633157762	 2.5938219249	 1.8343578043	 0.149121
H	 3.2867362339	 2.0446787856	 2.3297548822	 0.152656
H	 1.9862419997	 0.8311913585	 2.4160236055	 0.167395
79.9809	92.8797	124.4116	170.7224	220.6765	273.2245	383.7781	466.5081	515.1021	538.7688	602.0976	628.4079	714.2226	753.8683	818.821	931.1224	944.3894	1028.1942	1036.2895	1093.3167	1137.2176	1194.9601	1226.1212	1247.0626	1275.7158	1409.525	1432.249	1474.0611	1815.3324	1921.6756	2350.31	2954.7559	3068.0194	3105.724	3130.2972	3172.9028
O=CC1(CCC1=O)C#N	O=C[C@]1(CCC1=O)C#N	
InChI=1S/C6H5NO2/c7-3-6(4-8)2-1-5(6)9/h4H,1-2H2	InChI=1S/C6H5NO2/c7-3-6(4-8)2-1-5(6)9/h4H,1-2H2/t6-/m0/s1
