18
gdb 71087	3.00599	1.6082	1.42739	3.6098	75.32	-0.2428	-0.021	0.2218	978.4297	0.148918	-401.911412	-401.904276	-401.903332	-401.942662	29.007	
C	-0.076607371	 1.4915082286	 0.1077112411	-0.509361
C	-0.0515709249	-0.0132979756	 0.0045320861	 0.307406
C	 0.3895490774	-0.7841262009	-1.2578793123	-0.194999
N	-0.4122240487	-1.9511397887	-0.7476200795	-0.162266
C	 0.0513742336	-2.1823157271	 0.710344669	-0.134254
C	 0.7242632326	-0.8310975475	 1.0714604324	-0.276613
C	-1.3869672439	-1.8416297707	 1.1202058579	 0.477672
O	-2.1835327405	-2.2123261248	 1.9269483003	-0.321182
C	-1.3579370028	-0.918608279	-0.0875316477	-0.189482
H	 0.9408548435	 1.8983459047	 0.0738594551	 0.124722
H	-0.6431156388	 1.9395359813	-0.7152208993	 0.122024
H	-0.5324923391	 1.8186560679	 1.0484166732	 0.127544
H	-0.0724428405	-0.4251470437	-2.1818853061	 0.112259
H	 1.4571135581	-0.9643559551	-1.4238804098	 0.101716
H	 0.5452885202	-3.1227666224	 0.9414569934	 0.097796
H	 1.80495811	-0.8089973604	 0.904684435	 0.106231
H	 0.5247767605	-0.5265748817	 2.1036443315	 0.115103
H	-2.2245618757	-0.5631848751	-0.6430734103	 0.095686
135.637	217.149	239.9914	289.516	368.7039	458.1957	512.6727	555.746	607.7462	653.2961	748.0258	790.5991	819.7568	826.4064	847.7676	908.9234	933.3576	952.3885	991.4238	1006.038	1034.3548	1071.3341	1080.461	1113.5023	1137.1677	1165.1369	1188.9827	1206.9235	1234.5177	1251.221	1264.2406	1272.0415	1346.9834	1416.0452	1488.7799	1493.9408	1499.6512	1522.0664	1914.9555	3026.6197	3040.6966	3051.4943	3091.6495	3096.2257	3099.4156	3102.8516	3136.027	3156.645
CC12CN3C(C1)C(=O)C23	C[C@@]12CN3[C@@H](C1)C(=O)[C@@H]23	
InChI=1S/C7H9NO/c1-7-2-4-5(9)6(7)8(4)3-7/h4,6H,2-3H2,1H3	InChI=1S/C7H9NO/c1-7-2-4-5(9)6(7)8(4)3-7/h4,6H,2-3H2,1H3/t4-,6-,7-/m0/s1
