21
gdb 109813	3.41432	0.8855	0.80514	4.831	83.73	-0.2384	0.0298	0.2682	1500.2402	0.180988	-383.255172	-383.244852	-383.243907	-383.291401	36.692	
C	 0.1149430221	 1.3641881174	-0.2411211175	-0.386077
C	-0.1860830864	 0.3422447018	 0.8630378174	-0.202245
C	-1.4237558788	-0.473281798	 0.5394630605	-0.00517
C	-1.3915885093	-1.7940448541	-0.1677506541	 0.004012
C	-0.1186374763	-2.475938557	-0.6223592525	-0.428752
N	-1.8076446962	-1.707029047	 1.2410717292	-0.119801
C	-0.9472525825	-2.2354986248	 2.2907752963	-0.289719
C	-1.2286943093	-3.6604404875	 2.5083238903	 0.284207
N	-1.4264319434	-4.7859979353	 2.675815884	-0.306258
H	 0.9771882134	 1.9837134366	 0.0216300791	 0.118915
H	 0.3328026724	 0.8666863271	-1.1915093113	 0.124191
H	-0.738653298	 2.0307546008	-0.4035509315	 0.123147
H	 0.6903434861	-0.2941436479	 1.014310794	 0.099163
H	-0.3492954839	 0.8703860496	 1.8117616419	 0.106978
H	-2.290428687	 0.1606436085	 0.3464565697	 0.093954
H	-2.2374206889	-2.0200251598	-0.8159582788	 0.098917
H	 0.7703062137	-2.1689477062	-0.0677563208	 0.120008
H	-0.2121037693	-3.5634213618	-0.5327844414	 0.146015
H	 0.0603822595	-2.2467423379	-1.6778074366	 0.129657
H	 0.1349798197	-2.1384804974	 2.1216212235	 0.132903
H	-1.1696368078	-1.697600857	 3.2198676087	 0.155956
39.3135	65.2802	97.8753	142.1431	194.1717	214.6792	242.9436	280.8767	299.2581	383.9494	437.244	490.6137	535.581	582.3968	731.072	782.4099	801.1812	854.4059	943.6647	966.0091	996.1281	1013.8729	1046.6989	1052.7154	1073.7612	1137.4611	1161.2171	1178.0094	1203.722	1254.6104	1288.8517	1341.7135	1346.3043	1363.2986	1400.3386	1410.958	1417.2438	1446.3775	1471.8699	1489.376	1498.5821	1499.7868	1500.8919	1512.144	2366.3336	2998.889	3024.7477	3036.9332	3042.8584	3058.3295	3074.207	3091.263	3101.094	3106.6956	3108.9457	3112.4222	3131.0242
CCC1C(C)N1CC#N	CC[C@H]1[C@@H](C)N1CC#N	
InChI=1S/C7H12N2/c1-3-7-6(2)9(7)5-4-8/h6-7H,3,5H2,1-2H3	InChI=1S/C7H12N2/c1-3-7-6(2)9(7)5-4-8/h6-7H,3,5H2,1-2H3/t6-,7+,9?/m1/s1
