21
gdb 68451	2.33043	1.88666	1.28047	2.8714	81.59	-0.2325	-0.0044	0.228	1058.6162	0.183973	-387.122457	-387.114279	-387.113335	-387.154909	32.615	
C	-0.0702291711	 1.5268677278	 0.0858868125	-0.478098
C	 0.0102805474	 0.0159026427	 0.0045860503	 0.210481
C	 1.1306060664	-0.6550624916	-0.868311124	-0.253768
C	 1.1256440164	-1.8221174721	 0.1510237225	-0.012159
C	 0.5953498558	-0.8074472477	 1.1997562044	-0.270724
C	 0.0366491991	-2.8359479728	-0.2220439458	-0.218886
C	-1.3511405911	-2.1538887654	-0.3076657473	-0.311793
C	-1.2961894161	-0.62820488	-0.4431473258	 0.379857
O	-2.2319219304	 0.0086677958	-0.8678244961	-0.333397
H	 0.9037695156	 1.9503514038	 0.3511860125	 0.102459
H	-0.3892810637	 1.9517091915	-0.8697363969	 0.132474
H	-0.7996375178	 1.8426525767	 0.8386560828	 0.122836
H	 0.9061951043	-0.880374792	-1.9158301569	 0.099529
H	 2.0485326052	-0.062468482	-0.8185256815	 0.10248
H	 2.0771466155	-2.3179823797	 0.3558478271	 0.06547
H	 1.4083240109	-0.2514020628	 1.6748509868	 0.102568
H	-0.0905544018	-1.1636909306	 1.9744455956	 0.095264
H	 0.2915916028	-3.2946375328	-1.1842872218	 0.105144
H	 0.0090885304	-3.6474378437	 0.5130666472	 0.100011
H	-1.9710915053	-2.5471418624	-1.116768837	 0.126516
H	-1.9169908024	-2.3384545227	 0.6146487713	 0.133734
78.7843	169.6308	199.098	273.8791	302.5546	372.2716	389.425	416.4217	493.9445	537.1185	601.33	667.074	764.5014	796.8114	827.2895	850.8588	892.1686	913.9816	919.0498	965.0575	1010.9129	1037.9531	1051.2438	1073.0261	1092.5273	1119.9495	1136.8939	1188.0262	1218.4108	1225.3565	1245.2092	1266.2126	1279.1332	1309.337	1339.0638	1350.1035	1374.4744	1411.8612	1455.5459	1481.8011	1484.1595	1488.7017	1497.2979	1514.7852	1808.784	3030.1412	3034.7783	3036.3734	3041.8784	3047.9538	3069.5501	3078.5155	3097.8386	3100.1736	3104.2153	3104.4861	3116.8642
CC12CC(C1)CCC2=O	C[C@@]12C[C@@H](C1)CCC2=O	
InChI=1S/C8H12O/c1-8-4-6(5-8)2-3-7(8)9/h6H,2-5H2,1H3	InChI=1S/C8H12O/c1-8-4-6(5-8)2-3-7(8)9/h6H,2-5H2,1H3/t6-,8+
