19
gdb 59288	2.58571	1.32113	1.08883	2.8327	77.12	-0.242	-0.014	0.228	1199.1139	0.159471	-419.266238	-419.257271	-419.256327	-419.300431	32.884	
C	 0.0128285984	 1.5538455045	-0.0163202655	-0.389174
C	-0.0088222275	 0.0223923214	 0.0537035609	 0.027515
C	 0.7875615839	-0.5203084231	 1.2461381226	-0.389269
N	-1.3794390884	-0.4895176846	 0.0536935542	-0.103806
C	-2.3759528317	-0.2847243782	 1.0046839885	 0.06956
N	-3.5056198549	-0.8397175001	 0.7834779562	-0.261069
C	-3.345493443	-1.5502263402	-0.4880850005	-0.292921
C	-1.9094988	-1.2968901297	-0.9537471741	 0.391363
O	-1.3242999062	-1.676310564	-1.9407199765	-0.374459
H	 1.0430152443	 1.9116898961	-0.1020467518	 0.126501
H	-0.5486427676	 1.9129746077	-0.8829118104	 0.132584
H	-0.4206955887	 2.0024961059	 0.8843019425	 0.11844
H	 0.4162055772	-0.3815403307	-0.8708050218	 0.12627
H	 1.8303400515	-0.1963206555	 1.1803694459	 0.126534
H	 0.3854435844	-0.153824204	 2.1970985028	 0.118457
H	 0.7680299428	-1.6132476348	 1.2637622412	 0.132545
H	-2.1646872731	 0.323148478	 1.878294181	 0.137183
H	-3.5275977211	-2.6233041476	-0.3641543007	 0.151875
H	-4.0625599903	-1.188730351	-1.2331621646	 0.151869
43.6693	106.3979	183.6829	187.4166	228.4946	256.659	294.3356	420.1971	423.869	468.278	543.8644	615.4695	622.4889	718.8161	872.7042	891.0793	926.9239	936.3749	951.704	983.7092	993.601	1049.6869	1097.297	1148.7595	1181.9109	1185.438	1228.9154	1273.0028	1299.4239	1365.1386	1380.5547	1402.4479	1421.5034	1427.4958	1437.6388	1483.9843	1490.8583	1502.412	1507.3058	1674.783	1830.1438	3035.9564	3038.9792	3054.3051	3067.5127	3089.2926	3103.5288	3112.4643	3121.2745	3123.8537	3193.8982
CC(C)N1C=NCC1=O	CC(C)N1C=NCC1=O	
InChI=1S/C6H10N2O/c1-5(2)8-4-7-3-6(8)9/h4-5H,3H2,1-2H3	InChI=1S/C6H10N2O/c1-5(2)8-4-7-3-6(8)9/h4-5H,3H2,1-2H3
