20
gdb 108023	3.87029	1.37961	1.27401	1.7273	80.24	-0.2221	0.0745	0.2966	1070.8828	0.172532	-365.959027	-365.9516	-365.950655	-365.990903	30.172	
C	 0.070763512	 1.4617286584	-0.2374575283	-0.377762
C	-0.0811319276	-0.0085692519	 0.1754872498	-0.294593
C	-1.5069851861	-0.5083774974	 0.1377439749	 0.334635
C	-2.6109201665	 0.0653472127	 1.0156206116	-0.227315
N	-3.7798008794	-0.733980274	 0.6301084683	-0.124927
C	-3.6569057064	-1.0985769542	-0.7938176344	-0.067184
C	-3.329499056	-2.0899813876	 0.2663923805	-0.068876
C	-1.8176733487	-1.9766906967	-0.0735640287	-0.152832
C	-2.1513072684	-0.9662716914	-1.1565318595	-0.132028
H	 1.1223025918	 1.7642345038	-0.2227404501	 0.112112
H	-0.3144587767	 1.6282042728	-1.2486611146	 0.118522
H	-0.4746907697	 2.1269581934	 0.4394121151	 0.120419
H	 0.5348029655	-0.6345300785	-0.4815308846	 0.098907
H	 0.3213690855	-0.1470564647	 1.1877037705	 0.100537
H	-2.4102142417	-0.0637654247	 2.0850945863	 0.102155
H	-2.8108280729	 1.123622122	 0.8188746707	 0.104883
H	-4.5092850052	-0.9937595631	-1.4527698382	 0.090983
H	-3.8612993303	-2.9542405955	 0.6431821115	 0.091409
H	-1.0831726397	-2.7697553071	-0.0716611992	 0.085531
H	-1.7234352693	-0.8434032664	-2.1415766115	 0.085425
78.4367	157.8169	210.3731	299.6198	348.0097	439.3022	547.691	592.113	725.2207	729.3521	774.8499	786.4378	797.5852	809.898	839.6058	866.3713	914.7868	924.9241	952.1905	972.506	988.9525	1006.359	1035.6085	1041.9024	1053.3228	1086.3576	1112.58	1152.6402	1192.4145	1207.2383	1216.2932	1244.654	1260.3968	1279.8966	1313.1942	1338.9396	1365.081	1410.462	1416.7818	1481.6736	1497.3203	1498.9627	1507.598	3016.7953	3035.8593	3041.9122	3050.2711	3087.7342	3106.5228	3106.8992	3186.1034	3198.6136	3207.6923	3218.4999
CCC12CN3C4C3C1C24	CC[C@]12CN3[C@@H]4[C@H]3[C@H]1[C@H]24	
InChI=1S/C8H11N/c1-2-8-3-9-6-4(8)5(8)7(6)9/h4-7H,2-3H2,1H3	InChI=1S/C8H11N/c1-2-8-3-9-6-4(8)5(8)7(6)9/h4-7H,2-3H2,1H3/t4-,5+,6-,7+,8+,9?
