17
gdb 26997	3.07542	1.2018	0.889	1.1255	81.27	-0.1845	0.0464	0.2309	1271.1108	0.136173	-380.86624	-380.857152	-380.856207	-380.900741	33.587	
N	 0.2406400955	 1.4962655357	 0.5852662868	-0.61384
C	 0.1580128867	 0.143816427	 0.1534453822	 0.137731
C	-1.0103032808	-0.4635579471	-0.2605457627	 0.294018
C	-2.4022410979	 0.0959732347	-0.3263857548	-0.473447
C	-3.2385142917	-0.5521363299	-1.3340960646	 0.287869
C	-3.9119551381	-1.1278984458	-2.1470486115	-0.445691
N	-0.7005304107	-1.7553330136	-0.6133359939	-0.29585
C	 0.6432969571	-1.9723493664	-0.4687226838	-0.089442
C	 1.2057300347	-0.8153384966	 0.0206668339	-0.223459
H	-0.0929528785	 1.6122838353	 1.537152979	 0.236371
H	 1.2007164151	 1.8201235417	 0.5674345853	 0.234737
H	-2.9131698657	 0.0197329908	 0.6463248707	 0.136219
H	-2.319388576	 1.1709589345	-0.5318443429	 0.159868
H	-4.5200253703	-1.6042663922	-2.8756534109	 0.197542
H	-1.3642090783	-2.3918692579	-1.0211105231	 0.261404
H	 1.0846807328	-2.9220699438	-0.7239608837	 0.113697
H	 2.248031096	-0.6650710364	 0.2605643137	 0.082273
36.1307	103.062	113.1628	213.7555	237.1267	288.6574	335.4725	393.2657	491.9981	518.2697	616.9543	635.3026	642.7829	654.0385	669.4412	699.8158	774.3579	800.0983	839.9028	916.7431	946.8884	955.7975	1069.7454	1088.8066	1145.2886	1196.953	1225.9593	1274.7935	1317.0959	1344.9783	1438.3038	1468.974	1495.173	1518.1432	1627.935	1663.3809	2235.5971	2977.2309	3041.9176	3236.7298	3268.7219	3497.1291	3505.3173	3582.4877	3669.4547
NC1=C(CC#C)NC=C1	Nc1c(CC#C)[nH]cc1	
InChI=1S/C7H8N2/c1-2-3-7-6(8)4-5-9-7/h1,4-5,9H,3,8H2	InChI=1S/C7H8N2/c1-2-3-7-6(8)4-5-9-7/h1,4-5,9H,3,8H2
