20
gdb 51872	4.34984	0.85795	0.75668	3.2935	78.44	-0.2584	0.0236	0.282	1497.2671	0.172249	-440.29189	-440.283246	-440.282301	-440.326002	32.13	
N	-0.1026608748	 1.3114674275	 0.1199604459	-0.443579
C	-0.0465120357	 0.0556831639	 0.0033183925	 0.119192
O	-1.174874702	-0.677015178	 0.0109570719	-0.188709
C	-1.0393417671	-2.1031460788	 0.0172875959	 0.111494
C	-0.9858955346	-2.6450425539	 1.4476688822	-0.217917
C	-1.0486872227	-4.1768981416	 1.4281825894	-0.080503
O	-2.1961322013	-4.6453254054	 0.7447116937	-0.237593
C	-2.2194155906	-4.2230230107	-0.6067790275	-0.085807
C	-2.2339580134	-2.6944452812	-0.7263287407	-0.219506
H	 0.8340703129	 1.7058423172	 0.0652929671	 0.227575
H	 0.8654222241	-0.5455333844	-0.1270887487	 0.081107
H	-0.112305781	-2.375223535	-0.5110980667	 0.078306
H	-0.0740362253	-2.3102830876	 1.9554986958	 0.098512
H	-1.8419964199	-2.2484943629	 2.0041444823	 0.1241
H	-0.135604012	-4.585564808	 0.9596673502	 0.085694
H	-1.1081420514	-4.576854837	 2.44389198	 0.115456
H	-1.3484180976	-4.6355674911	-1.1463161217	 0.086254
H	-3.1202270622	-4.655045843	-1.0504394443	 0.115627
H	-3.1543977243	-2.3014527822	-0.2814440121	 0.124
H	-2.2165440512	-2.3924663281	-1.7786588953	 0.106297
50.3703	108.4775	115.0521	226.1836	248.8351	328.6885	360.1247	390.6959	482.3595	491.9747	561.7041	684.0166	817.2072	822.6093	839.9436	887.3665	918.1451	982.8143	995.8326	1012.4061	1044.6015	1056.4564	1109.106	1133.9082	1155.0638	1171.8127	1190.2993	1259.3709	1276.1154	1295.5423	1316.6376	1330.7208	1350.8584	1371.3387	1391.8648	1393.9234	1425.4209	1431.775	1472.6651	1491.2557	1494.3349	1505.6761	1744.3682	2947.6557	2953.8493	2981.1066	3008.8141	3040.2549	3048.5344	3087.916	3092.51	3093.9567	3098.5118	3517.6565
N=COC1CCOCC1	[NH][CH]OC1CCOCC1	
InChI=1S/C6H11NO2/c7-5-9-6-1-3-8-4-2-6/h5-7H,1-4H2	InChI=1S/C6H11NO2/c7-5-9-6-1-3-8-4-2-6/h5-7H,1-4H2
