17
gdb 97319	4.65827	0.78634	0.67837	1.8998	77.88	-0.2381	-0.0752	0.1628	1638.9134	0.133056	-455.191416	-455.181318	-455.180374	-455.227518	34.233	
C	-0.0112624868	 1.6557995533	-0.288183281	-0.31167
N	-0.1569538818	 0.2432926972	-0.0135134834	-0.164049
C	 0.4993253227	-0.5562753459	-0.73497585	 0.100357
N	 0.4712384126	-1.9420618958	-0.6014548594	-0.355269
C	-0.2297810465	-2.7202176443	 0.286601314	 0.313614
O	-0.9856663997	-2.3595336237	 1.1583104507	-0.315473
C	 0.066536862	-4.2235264458	 0.0427177906	 0.314079
C	-0.6478535474	-5.1762876556	 0.9590698315	-0.471963
O	 0.8284352884	-4.5581020326	-0.8376365027	-0.305988
H	 0.6750649884	 1.882613931	-1.121142392	 0.095306
H	-0.9930711048	 2.0843633818	-0.5192108677	 0.134305
H	 0.3523361962	 2.1654011891	 0.6113333254	 0.134306
H	 1.168150685	-0.2450477996	-1.5514424253	 0.089418
H	 1.0401087161	-2.4870791138	-1.2377359157	 0.271633
H	-1.7292085305	-5.0287792058	 0.8753488378	 0.164856
H	-0.3783434077	-6.2031024872	 0.7126016454	 0.141675
H	-0.3947089062	-4.9483420524	 1.9992943018	 0.164862
56.6778	75.5438	105.0591	118.1367	118.3418	209.6009	243.3111	321.4677	332.8964	338.0457	440.8383	519.7478	557.7163	684.5542	703.7717	741.6961	880.4447	951.7492	975.0315	1031.9243	1060.4415	1087.0331	1139.3238	1156.6167	1226.5162	1262.0295	1385.0455	1412.3916	1444.553	1449.6406	1456.4348	1477.3841	1501.8566	1550.1351	1757.5956	1803.3032	1817.2198	2963.6447	3000.5326	3052.1552	3061.6429	3081.4223	3112.9609	3165.7623	3572.7615
CN=CNC(=O)C(C)=O	CN=CNC(=O)C(=O)C	
InChI=1S/C5H8N2O2/c1-4(8)5(9)7-3-6-2/h3H,1-2H3,(H,6,7,9)	InChI=1S/C5H8N2O2/c1-4(8)5(9)7-3-6-2/h3H,1-2H3,(H,6,7,9)
