21
gdb 117388	3.15512	0.74418	0.65379	1.1861	79.49	-0.239	-0.0106	0.2284	1757.0505	0.180421	-424.225597	-424.215252	-424.214308	-424.263031	36.453	
O	-0.46318184	 1.0280062927	 0.999271725	-0.426081
C	-0.1293000008	-0.1393131149	 0.2615165503	-0.073343
C	-1.4089351694	-0.9404898643	 0.0813717788	-0.292174
C	-1.21722101	-2.2212638285	-0.7074977534	 0.37839
O	-0.1463595427	-2.530241797	-1.1829740945	-0.316891
C	-2.4308894562	-3.1381324682	-0.847517324	-0.311709
C	-2.3445010806	-4.2814220805	 0.1523811991	 0.039793
C	-2.908367244	-4.1379891401	 1.5453738661	-0.257694
C	-3.5796492077	-5.0481296251	 0.5456173043	-0.278796
H	 0.3381373512	 1.5472349701	 1.1120582258	 0.286953
H	 0.2914131575	 0.1063622717	-0.723611072	 0.102664
H	 0.6184122219	-0.752440936	 0.7848497509	 0.10051
H	-1.8441902261	-1.1894936046	 1.0584111937	 0.134229
H	-2.1675957289	-0.3270741844	-0.4241312092	 0.130744
H	-3.3620292652	-2.5808460243	-0.6965010309	 0.097416
H	-2.4282631465	-3.5380305048	-1.8673269868	 0.123377
H	-1.4281995927	-4.8576697711	 0.0643852839	 0.103956
H	-2.3662789973	-4.585456787	 2.3708824929	 0.116932
H	-3.4150012391	-3.2123086081	 1.799707861	 0.112716
H	-4.5292292266	-4.7283371743	 0.1290203164	 0.112688
H	-3.4954904767	-6.1202579713	 0.6844846425	 0.116319
21.9311	64.7144	82.3573	93.8878	157.9237	185.793	276.6443	306.8884	333.7653	374.9351	415.7359	531.2474	640.8167	764.2586	786.8687	819.443	839.0003	855.598	902.4188	934.7888	988.853	1019.9228	1052.8944	1058.5974	1078.1209	1081.8752	1102.5005	1147.4288	1174.9873	1199.4782	1206.4288	1225.2094	1248.9839	1264.9199	1297.1405	1311.4139	1356.9587	1399.5989	1444.2293	1466.7871	1469.145	1475.457	1506.5033	1521.5026	1799.7688	2996.3409	3023.0462	3025.3192	3036.0096	3060.4282	3086.8996	3129.1542	3134.1273	3154.8567	3207.7485	3222.8554	3831.3662
OCCC(=O)CC1CC1	OCCC(=O)CC1CC1	
InChI=1S/C7H12O2/c8-4-3-7(9)5-6-1-2-6/h6,8H,1-5H2	InChI=1S/C7H12O2/c8-4-3-7(9)5-6-1-2-6/h6,8H,1-5H2
