17
gdb 50355	4.89706	0.98594	0.89341	2.2201	76.26	-0.2497	-0.0366	0.2131	1270.3598	0.135885	-421.79493	-421.787194	-421.78625	-421.827875	28.899	
O	 0.0209697799	-0.1039583858	-0.0214157948	-0.244177
C	 0.0379487033	 1.0970522455	 0.0396576338	 0.157296
C	 1.2888515824	 1.9542455182	 0.0422711647	-0.099966
C	 1.3019216355	 2.9304238263	-1.1953496344	-0.288532
C	 2.0524185774	 4.1524802241	-0.6483231358	 0.108932
O	 1.4684483152	 5.5039718908	-0.6525832284	-0.304674
C	 1.5962645279	 5.5889256501	 0.801894664	-0.155862
C	 1.7942928486	 4.0940563262	 0.8177502995	 0.194926
C	 1.3027173426	 2.9323488318	 1.2287877217	-0.231552
H	-0.9080847716	 1.6875724483	 0.0898760279	 0.075891
H	 2.1470779377	 1.2725688731	 0.0299012424	 0.10358
H	 1.7470223451	 2.4756309277	-2.083212285	 0.115213
H	 0.2732871224	 3.2264384634	-1.4326499115	 0.124754
H	 3.0949517536	 4.20796206	-0.9874687276	 0.088244
H	 2.4656183173	 6.1954959428	 1.085727319	 0.114543
H	 0.6963022074	 5.9806516279	 1.2861171796	 0.126322
H	 0.8682206653	 2.6941663795	 2.1922946547	 0.115064
65.1846	84.0282	200.2555	298.2026	306.1381	379.3763	409.3645	429.0756	609.3371	680.6145	761.6653	820.7185	862.3178	884.3484	901.9526	933.221	959.6496	979.8645	1002.9193	1051.8751	1067.2788	1093.008	1131.5502	1142.5786	1179.1594	1222.2948	1253.7193	1265.6352	1294.5259	1305.0955	1345.2069	1357.8842	1423.6694	1475.8792	1509.0401	1741.3263	1835.0428	2849.1921	3016.268	3023.1386	3044.8137	3047.6681	3083.3117	3114.3724	3204.8528
O=CC1CC2OCC2=C1	O=C[C@H]1C[C@H]2OC[C]2[CH]1	
InChI=1S/C7H8O2/c8-3-5-1-6-4-9-7(6)2-5/h1,3,5,7H,2,4H2	InChI=1S/C7H8O2/c8-3-5-1-6-4-9-7(6)2-5/h1,3,5,7H,2,4H2/t5-,7-/m1/s1
