20
gdb 9764	3.1764	1.62374	1.43725	1.7827	70.17	-0.2463	0.071	0.3173	976.2071	0.177325	-386.143089	-386.134491	-386.133547	-386.176116	32.03	
C	-0.2350239201	 1.6513508304	 0.0387723025	-0.453559
C	 0.029072845	 0.1431437755	 0.00742464	 0.320342
C	-1.291201432	-0.6390762974	-0.0129739876	-0.11155
O	-2.0527500113	-0.2823043924	 1.1323133911	-0.427374
C	 0.9008834185	-0.3093150118	-1.2019718664	-0.300307
C	 2.0032340591	-1.1903562363	-0.567722335	-0.070748
O	 1.5529768395	-1.5029813032	 0.742505781	-0.249208
C	 0.8822994107	-0.3413060146	 1.2027768839	-0.115337
H	 0.7054051427	 2.2119053458	 0.0620489295	 0.106727
H	-0.79303004	 1.969920065	-0.8486971474	 0.109836
H	-0.8244637295	 1.9259140543	 0.9172603162	 0.135944
H	-1.8392306214	-0.4037786752	-0.9401263965	 0.080857
H	-1.0633403858	-1.715592231	-0.0180969595	 0.096228
H	-2.8311630642	-0.8450003195	 1.1660202308	 0.28893
H	 0.3048428886	-0.8722982267	-1.9273673159	 0.100631
H	 1.3270122174	 0.5473920401	-1.730449831	 0.100466
H	 2.1799117445	-2.1304065659	-1.0968923513	 0.105209
H	 2.9566982603	-0.6396924043	-0.5213804867	 0.087576
H	 1.6071214283	 0.4366389816	 1.4975090747	 0.075245
H	 0.2800221697	-0.6102056444	 2.0725500576	 0.120093
58.6576	145.2272	211.2532	226.6345	237.7501	269.4717	317.4033	354.0424	387.3005	480.735	609.3702	681.6345	789.703	830.1796	906.16	924.6014	957.748	972.2011	974.4238	1014.5244	1058.2227	1081.4583	1108.1834	1162.2483	1183.035	1201.472	1237.7909	1255.9935	1275.888	1283.8123	1308.6188	1328.1375	1363.5935	1397.9349	1406.5503	1450.472	1490.0002	1496.8113	1503.7782	1511.0986	1517.1476	1525.1786	2958.6123	2963.5887	2972.0353	3008.412	3032.0719	3049.9028	3085.4829	3094.0633	3100.0538	3116.1508	3121.199	3838.7364
CC1(CO)CCOC1	C[C@@]1(CO)CCOC1	
InChI=1S/C6H12O2/c1-6(4-7)2-3-8-5-6/h7H,2-5H2,1H3	InChI=1S/C6H12O2/c1-6(4-7)2-3-8-5-6/h7H,2-5H2,1H3/t6-/m0/s1
