20
gdb 78380	2.3431	1.78997	1.41265	2.8172	78.44	-0.2117	0.0545	0.2662	1016.4694	0.171371	-403.05537	-403.047141	-403.046197	-403.087772	32.599	
C	-0.0442205372	 1.5357621827	 0.1450430956	-0.442963
C	 0.0464701811	 0.0381153037	-0.0656842076	 0.042402
C	 0.4457679649	-0.7992280933	-1.2149773289	-0.075225
C	 1.7336933577	-0.4537762606	-1.97673127	-0.024491
C	 2.1412109981	 1.033776757	-2.1835094296	-0.323739
C	 3.0392877168	 0.9105331021	-0.898757708	 0.119644
O	 3.0050332179	 1.8726746179	 0.1275361923	-0.412303
C	 2.4638640145	-0.5045370777	-0.6183716108	-0.000014
N	 1.1922231509	-0.8747940527	 0.141902788	-0.185595
H	 0.8736445733	 2.0772480301	-0.0576892476	 0.152755
H	-0.8572578684	 1.9445606386	-0.4662198583	 0.110576
H	-0.2973734723	 1.7226404856	 1.1942345913	 0.117889
H	-0.7957462865	-0.4464806749	 0.4340216726	 0.098953
H	-0.1891973338	-1.6243131728	-1.5310132974	 0.088563
H	 1.9772972824	-1.1517065629	-2.7760141758	 0.073491
H	 2.706166083	 1.2314298811	-3.0980259118	 0.096736
H	 1.3210270892	 1.7485650438	-2.124137116	 0.113217
H	 4.0787645066	 0.7446941853	-1.2198619364	 0.08097
H	 3.5258774469	 2.6321817928	-0.1528096231	 0.286584
H	 3.2070944549	-1.262310146	-0.3693262684	 0.08255
104.2341	146.0665	223.6578	244.4484	271.8072	296.6313	388.1184	438.6609	538.337	603.5628	615.3968	662.9001	703.6048	734.859	847.5209	863.0178	874.2617	908.8252	932.023	1000.0213	1019.7184	1037.8332	1066.3691	1086.7715	1092.3201	1125.8582	1144.8674	1173.527	1199.1964	1221.3651	1226.2476	1251.1467	1287.2766	1307.0777	1321.9936	1335.9586	1382.3854	1416.9888	1429.6134	1452.6001	1481.1833	1497.9049	1519.8981	2978.8034	3034.757	3069.7686	3072.5201	3088.0692	3099.0556	3116.1062	3129.7483	3139.4227	3205.1977	3813.8276
CC1C2C3CC(O)C3N12	C[C@H]1[C@H]2[C@H]3C[C@@H](O)[C@H]3N12	
InChI=1S/C7H11NO/c1-3-6-4-2-5(9)7(4)8(3)6/h3-7,9H,2H2,1H3	InChI=1S/C7H11NO/c1-3-6-4-2-5(9)7(4)8(3)6/h3-7,9H,2H2,1H3/t3-,4+,5+,6-,7-,8?/m0/s1
