15
gdb 64601	3.32909	1.36402	1.27033	3.1985	66.33	-0.2578	-0.0582	0.1997	1004.7527	0.111425	-457.742496	-457.734939	-457.733995	-457.774624	28.874	
O	 0.0155456974	 1.4917456655	-0.012105593	-0.471804
C	-0.0105870283	 0.0957667242	 0.0361478217	 0.275623
C	 0.7298787082	-0.4742604746	-1.1713449183	 0.109732
O	 1.2671072108	 0.2425763989	-1.9794816432	-0.267825
C	 0.631428593	-0.4856398935	 1.3003739957	-0.146773
C	-0.1528130442	-1.374540374	 1.9103430452	-0.090295
C	-1.4796242131	-1.4528174131	 1.2176846919	-0.005207
O	-2.1700716602	-0.1840124345	 1.2529468794	-0.241342
C	-1.4280901296	-0.5173452894	 0.0870053926	-0.025375
H	 0.5121656763	 1.7179272935	-0.8157441747	 0.294451
H	 0.7545405008	-1.5785033828	-1.2521930445	 0.108055
H	 1.6022453686	-0.1371346206	 1.6313072053	 0.123744
H	 0.0793380861	-1.9135754131	 2.8205062876	 0.118621
H	-2.1113587132	-2.3343029514	 1.2471218549	 0.108226
H	-2.0062508926	-0.6272554252	-0.8262032905	 0.110169
96.4371	120.5874	232.1164	303.094	367.0671	392.7399	426.7079	482.7045	512.9599	584.0119	732.4884	770.7268	792.7969	843.3347	855.723	868.2737	951.0671	969.6919	984.9025	1019.7576	1040.4976	1102.6834	1106.3627	1153.3167	1220.1001	1255.9811	1292.732	1359.9154	1381.1854	1403.1544	1437.643	1660.6425	1809.205	2948.8629	3151.3383	3176.9302	3201.7547	3225.0221	3675.3846
OC1(C=O)C=CC2OC12	O[C@@]1(C=O)C=C[C@H]2O[C@@H]12	
InChI=1S/C6H6O3/c7-3-6(8)2-1-4-5(6)9-4/h1-5,8H	InChI=1S/C6H6O3/c7-3-6(8)2-1-4-5(6)9-4/h1-5,8H/t4-,5-,6-/m1/s1
