16
gdb 116524	2.56248	1.10165	0.82385	5.6521	76.61	-0.2622	-0.1038	0.1583	1373.621	0.122496	-434.091562	-434.081688	-434.080743	-434.127309	34.233	
C	 0.3343554383	 1.6411414378	 0.0769047091	-0.373167
C	-0.0927222294	 0.2029261009	-0.2553859986	-0.164417
N	 0.7030587051	-0.346630871	-1.339327748	-0.267944
C	 1.7815328738	-0.9791276044	-1.072579951	 0.297993
N	 2.3585156303	-1.2988104627	 0.1233595444	-0.564478
C	 2.5452010798	-1.5044114816	-2.2519509318	 0.264238
O	 3.5970551649	-2.0917046309	-2.1500857433	-0.294429
C	 1.9377852839	-1.256435767	-3.5681543405	 0.274677
N	 1.5572692127	-1.1196663304	-4.65115507	-0.314996
H	 1.3658853705	 1.6785856997	 0.4424746001	 0.113099
H	 0.2725883368	 2.2695272878	-0.8152480252	 0.143097
H	-0.3174091699	 2.0632631242	 0.8474587525	 0.123706
H	-0.0509964158	-0.4226834473	 0.6509588852	 0.091392
H	-1.1360133924	 0.2098210046	-0.5865638544	 0.122869
H	 2.1147869991	-0.7903120664	 0.9544878569	 0.270625
H	 3.2821452123	-1.7014326333	 0.0779056045	 0.277733
37.481	79.3139	110.3262	135.1867	213.2699	268.9229	278.7211	301.6439	344.1295	389.6316	452.2788	494.091	504.4433	621.8321	656.5133	747.0307	814.5562	824.5564	890.4505	1010.604	1079.7448	1128.3278	1140.0788	1194.6836	1300.0651	1359.4067	1378.9203	1405.623	1488.8375	1498.6205	1526.3767	1611.837	1721.2611	1776.1278	2344.584	2971.7354	3039.1622	3066.315	3109.9528	3126.6729	3597.0285	3729.3287
CCN=C(N)C(=O)C#N	CCN=C(N)C(=O)C#N	
InChI=1S/C5H7N3O/c1-2-8-5(7)4(9)3-6/h2H2,1H3,(H2,7,8)	InChI=1S/C5H7N3O/c1-2-8-5(7)4(9)3-6/h2H2,1H3,(H2,7,8)
