15
gdb 45869	2.1247	1.73832	1.26289	3.2211	72.08	-0.2355	-0.0357	0.1999	1023.0589	0.112548	-416.788866	-416.780647	-416.779702	-416.822315	30.095	
O	 0.0210999104	-0.0003342044	 0.2422892164	-0.298322
C	-0.035970263	 1.1796777987	 0.0168473632	 0.379671
C	-1.3347262378	 1.9448738971	-0.184496014	-0.258171
N	-1.276879355	 3.1973033622	-0.9223946047	-0.251901
C	-0.1433171043	 3.6098159369	-1.3228356453	 0.092794
N	 1.0890140955	 3.007664436	-1.148476951	-0.293804
C	 1.2523379049	 2.0390177597	-0.0628267672	-0.259482
C	 1.4991126514	 2.6652163402	 1.2387874661	 0.337781
C	 1.6815853062	 3.1893768663	 2.3050811191	-0.46654
H	-2.0431769328	 1.2638582305	-0.6699153411	 0.14652
H	-1.7529535156	 2.1384535003	 0.8147268414	 0.151407
H	-0.0980014701	 4.5255806129	-1.9138505572	 0.117913
H	 1.8902614013	 3.5991149445	-1.3172245005	 0.251622
H	 2.0697757351	 1.353641126	-0.3060837168	 0.138943
H	 1.849344834	 3.6489956131	 3.2481915716	 0.211569
58.9025	85.6185	126.0732	215.5588	341.8084	420.7782	440.0526	479.4803	522.6283	578.118	592.7759	611.9866	643.3095	666.1817	734.1573	920.8863	946.1817	955.0064	985.8919	1016.4955	1027.3528	1154.9734	1214.2634	1238.7024	1251.8075	1319.3363	1336.0941	1417.1581	1439.3176	1489.5687	1750.1974	1836.9706	2228.4246	3007.2593	3063.4326	3067.0696	3125.0242	3500.0248	3593.8746
O=C1CN=CNC1C#C	O=C1CN=CN[C@H]1C#C	
InChI=1S/C6H6N2O/c1-2-5-6(9)3-7-4-8-5/h1,4-5H,3H2,(H,7,8)	InChI=1S/C6H6N2O/c1-2-5-6(9)3-7-4-8-5/h1,4-5H,3H2,(H,7,8)/t5-/m0/s1
