21
gdb 58533	2.07632	1.42722	1.36926	3.9082	77.33	-0.2652	0.0136	0.2788	1140.0465	0.181198	-424.263665	-424.253922	-424.252978	-424.298054	36.169	
C	-0.0240257902	 1.593603162	 0.0320005771	-0.40165
C	 0.0147809044	 0.0556793316	 0.0088650705	-0.02625
C	 0.8746479039	-0.4508075773	 1.1791375219	-0.417026
C	-1.4114475966	-0.5520208996	-0.0048540695	 0.112858
C	-2.3062383174	 0.0164740581	-1.1111958675	-0.463697
C	-1.5149106734	-2.0912813308	 0.1483186289	-0.130244
O	-2.1628305337	-1.9334289234	 1.4523719294	-0.248713
C	-2.1023020577	-0.5660218846	 1.3701013936	 0.455341
O	-2.4892506732	 0.2275634948	 2.1688007881	-0.342644
H	 0.9917694254	 1.9930467898	 0.1089848141	 0.113698
H	-0.4730086286	 2.0124585092	-0.8717459251	 0.115701
H	-0.5943558912	 1.9520670325	 0.8950999621	 0.145272
H	 0.4916851389	-0.2625019494	-0.929661897	 0.077403
H	 1.8851554339	-0.0385646665	 1.1036841257	 0.117168
H	 0.4574209971	-0.1291800946	 2.1392776917	 0.141772
H	 0.9694248453	-1.5398340362	 1.2007648951	 0.116335
H	-1.8194874914	-0.0778155124	-2.0881220726	 0.121806
H	-3.2607784383	-0.5168050501	-1.1548464117	 0.125704
H	-2.5259643344	 1.0718402293	-0.9383345342	 0.144945
H	-2.1853336546	-2.591394225	-0.554125129	 0.119716
H	-0.5832309382	-2.6495152575	 0.2464503886	 0.122506
66.8134	113.9635	142.0684	214.2939	220.7899	236.2005	249.3734	316.7942	381.3398	397.0525	415.9499	441.518	546.3215	670.3363	745.8383	776.885	853.9021	887.0452	932.007	944.2115	962.8268	968.762	984.1963	1069.9741	1100.049	1116.5467	1155.8742	1176.8561	1198.4207	1223.6071	1257.4496	1335.2919	1344.3911	1370.5094	1403.5423	1415.0205	1425.9853	1487.7241	1489.9988	1495.7064	1502.4968	1508.9555	1516.9353	1530.8512	1921.2616	2998.4904	3037.1346	3039.4353	3043.7274	3076.0132	3102.7667	3106.3032	3111.562	3113.9351	3120.2226	3132.3376	3138.7576
CC(C)C1(C)COC1=O	CC(C)[C@@]1(C)COC1=O	
InChI=1S/C7H12O2/c1-5(2)7(3)4-9-6(7)8/h5H,4H2,1-3H3	InChI=1S/C7H12O2/c1-5(2)7(3)4-9-6(7)8/h5H,4H2,1-3H3/t7-/m1/s1
