19
gdb 99137	3.9928	0.82833	0.72915	1.2876	73.17	-0.2513	0.007	0.2583	1579.5143	0.156035	-460.176425	-460.166242	-460.165298	-460.213588	35.484	
C	 0.1524179465	 1.2545881498	 0.3341596174	-0.37152
C	-0.0600129832	-0.1624755758	-0.1926498593	-0.307806
C	 0.8401580691	-0.4922563864	-1.3639518298	 0.452331
O	 1.6510721826	 0.2395865732	-1.8645587775	-0.339834
O	 0.6026388528	-1.758439932	-1.8041217545	-0.27063
C	 1.3831133616	-2.2125302844	-2.8955834073	 0.075681
C	 2.4822558496	-3.2000694819	-2.5946101633	-0.33835
C	 1.1684168923	-3.6650916748	-3.1929190037	 0.10251
O	 0.2700284166	-4.3943317583	-2.4167792303	-0.431103
H	 1.1830328108	 1.3975918927	 0.6681037225	 0.13527
H	-0.0447051258	 1.995224725	-0.4447633356	 0.134883
H	-0.5155191948	 1.4517470721	 1.1769047806	 0.11497
H	 0.1210619283	-0.9124474249	 0.5868605225	 0.1337
H	-1.0964753166	-0.3213979024	-0.5135447838	 0.134334
H	 1.5018444432	-1.4748965143	-3.6791807791	 0.125066
H	 3.3761800963	-3.1767209852	-3.2080690576	 0.122517
H	 2.6384977853	-3.4459654224	-1.5499176922	 0.126316
H	 1.159552328	-3.9745523595	-4.2342910574	 0.10636
H	-0.1842472326	-3.7676811406	-1.8412796217	 0.295304
23.9501	42.0532	90.1844	111.5743	199.6961	217.6141	220.6822	287.5642	340.382	397.6817	487.4389	579.1935	589.8673	675.57	763.3897	806.5205	809.2662	885.3857	909.4245	993.7436	1019.5586	1038.3046	1064.1172	1093.8546	1106.5763	1114.1525	1135.8773	1154.5349	1193.0454	1241.9239	1278.6115	1346.3695	1363.8185	1391.5976	1417.0131	1418.9092	1458.4884	1476.5572	1493.2186	1500.0448	1834.416	3040.5406	3054.0191	3070.0557	3126.2728	3131.0277	3135.9187	3147.2097	3192.7358	3231.2802	3790.3536
CCC(=O)OC1CC1O	CCC(=O)O[C@H]1C[C@H]1O	
InChI=1S/C6H10O3/c1-2-6(8)9-5-3-4(5)7/h4-5,7H,2-3H2,1H3	InChI=1S/C6H10O3/c1-2-6(8)9-5-3-4(5)7/h4-5,7H,2-3H2,1H3/t4-,5+/m1/s1
