17
gdb 86924	3.54086	1.00226	0.82794	2.4036	72.38	-0.2549	0.0149	0.2698	1361.0917	0.135643	-455.188678	-455.17933	-455.178386	-455.224247	31.86	
C	-0.3441309019	 1.3750276659	 0.1509435985	-0.344452
N	 0.0112556907	-0.0193095085	 0.0991008765	-0.079164
C	-0.7854935579	-1.2493831103	 0.2014630854	-0.178279
C	 0.5436830915	-2.0362723217	-0.0104726743	-0.08946
N	 0.6700006826	-2.8717430031	-1.1765696792	-0.292866
C	 0.0559941365	-4.0827182487	-1.2519275521	 0.153627
O	-0.7125236065	-4.5060097781	-0.4146239931	-0.322309
C	 1.1947607925	-0.6409177089	-0.1831748515	 0.37875
O	 2.2882608589	-0.237760053	-0.4905579308	-0.380513
H	 0.5640621896	 1.9574189604	-0.0210302179	 0.163971
H	-1.0797379979	 1.6296423124	-0.6216940941	 0.133382
H	-0.7600267704	 1.6445906357	 1.1287904533	 0.134794
H	-1.2707690432	-1.3964916876	 1.1706835972	 0.122335
H	-1.5130008322	-1.3758356764	-0.6059666172	 0.123105
H	 0.8604785831	-2.5651453544	 0.8932728184	 0.126843
H	 1.3670680417	-2.6198953453	-1.8612594817	 0.265325
H	 0.3252919429	-4.6358514982	-2.1727034674	 0.084911
29.5187	93.5852	126.329	144.0149	175.22	225.8979	250.3075	257.5594	418.0006	496.7704	543.9053	622.1472	738.209	776.2415	838.5304	904.7723	991.8084	1032.9508	1038.19	1075.7732	1112.8808	1130.1704	1166.1292	1177.7222	1234.7081	1260.8017	1295.9932	1373.0045	1421.0671	1425.432	1450.6452	1482.0776	1505.5911	1509.4592	1529.0419	1800.1457	1876.4587	2947.5383	3018.6431	3048.7033	3069.2018	3071.9538	3102.485	3131.5195	3619.2185
CN1CC(NC=O)C1=O	CN1C[C@@H](NC=O)C1=O	
InChI=1S/C5H8N2O2/c1-7-2-4(5(7)9)6-3-8/h3-4H,2H2,1H3,(H,6,8)	InChI=1S/C5H8N2O2/c1-7-2-4(5(7)9)6-3-8/h3-4H,2H2,1H3,(H,6,8)/t4-/m1/s1
