17
gdb 41109	3.04613	1.97775	1.79935	1.7484	75.22	-0.2277	-0.0135	0.2142	839.883	0.138197	-384.607545	-384.601489	-384.600545	-384.637397	26.627	
C	 0.0727331965	 1.5202728932	-0.1628658221	-0.188332
O	 1.4927317385	 1.4400018943	 0.2157057203	-0.313949
C	 1.1718241925	 0.226837208	 0.9461870896	 0.180974
C	 1.6481855971	-1.2599278173	 0.8598384414	-0.213882
C	 0.2808279993	-1.8104942427	 1.3875222404	-0.066976
C	-0.7298617176	-1.059414178	 0.9148646367	-0.195078
C	-0.0383127858	-0.0048117351	 0.043927042	 0.182225
C	 0.6444099879	-0.7228698445	-1.1392042728	-0.11069
C	 1.6471335335	-1.4516817942	-0.659749318	-0.050306
H	-0.4898970564	 2.1349152639	 0.5514599531	 0.104704
H	-0.0462249921	 1.9060144147	-1.1791543202	 0.110541
H	 0.943777438	 0.5009920348	 1.9817780237	 0.082763
H	 2.5280082942	-1.5986996207	 1.4061620111	 0.066315
H	 0.1997779335	-2.6949042185	 2.0056715016	 0.104787
H	-1.7897207058	-1.2059976262	 1.0732078154	 0.107243
H	 0.3098745173	-0.6207380888	-2.1632657171	 0.097176
H	 2.3305442293	-2.0973930328	-1.194101725	 0.102487
299.0461	301.4838	394.0662	418.7841	473.0459	545.0336	621.1124	677.6154	708.0301	736.7648	764.234	822.1848	841.2503	859.6423	882.9041	912.1164	925.2797	929.7745	941.3467	966.8755	1006.2285	1025.333	1080.6748	1114.9289	1123.7205	1166.0685	1192.4241	1208.519	1230.6398	1261.307	1283.3191	1315.3673	1336.8289	1395.2019	1508.749	1570.8167	1652.3679	3019.933	3049.0729	3095.1694	3120.4132	3206.7563	3209.2105	3232.4938	3235.5339
C1OC2C3C=CC12C=C3	C1O[C@@H]2[C@H]3C=C[C@@]12C=C3	
InChI=1S/C8H8O/c1-3-8-4-2-6(1)7(8)9-5-8/h1-4,6-7H,5H2	InChI=1S/C8H8O/c1-3-8-4-2-6(1)7(8)9-5-8/h1-4,6-7H,5H2/t6-,7-,8+/m1/s1
