15
gdb 49903	3.74332	1.0511	0.90464	4.9911	77.43	-0.2501	-0.028	0.2221	1263.931	0.1115	-416.787419	-416.778743	-416.777799	-416.821406	30.785	
N	 0.0894353685	 1.3240341807	-0.0993128203	-0.406843
C	 0.0209786467	 0.0593693808	-0.0483100149	 0.072118
N	-1.1827135493	-0.6231497727	 0.0344210604	-0.098909
C	-1.4338185505	-2.070563946	 0.0937627108	-0.190788
C	-2.9648696668	-1.756265552	 0.1221233409	-0.332281
C	-3.7256010805	-2.2091166467	 1.2631137746	 0.332255
C	-4.3484516095	-2.5756471133	 2.2230969932	-0.447962
C	-2.5309598509	-0.2498997565	 0.1049124806	 0.435075
O	-3.0930767393	 0.7987234797	 0.129993377	-0.311224
H	 1.0625530876	 1.6198816623	-0.155297699	 0.234132
H	 0.8694640036	-0.6371842769	-0.0628638801	 0.101321
H	-1.0911817181	-2.6170513212	-0.7890067046	 0.128084
H	-1.0604770269	-2.5454761407	 1.00397702	 0.137411
H	-3.4612053374	-2.0195457651	-0.8170864382	 0.140414
H	-4.9074847072	-2.8941160723	 3.0680718396	 0.207196
56.7366	121.056	136.0523	174.8211	188.7902	236.8017	380.8473	439.5412	493.659	561.8052	626.2501	644.1583	651.9751	765.2934	814.6142	819.1468	863.448	976.9849	1043.4414	1063.3971	1090.3546	1111.6837	1159.1999	1175.7315	1240.4549	1274.2047	1330.5313	1398.1078	1426.1353	1519.2236	1720.3628	1912.386	2242.4783	3033.0651	3057.8656	3068.7161	3116.266	3503.654	3503.7696
N=CN1CC(C#C)C1=O	[NH][CH]N1C[C@@H](C#C)C1=O	
InChI=1S/C6H6N2O/c1-2-5-3-8(4-7)6(5)9/h1,4-5,7H,3H2	InChI=1S/C6H6N2O/c1-2-5-3-8(4-7)6(5)9/h1,4-5,7H,3H2/t5-/m1/s1
