23
gdb 93165	2.48873	1.37105	1.0213	0.1199	93.34	-0.2331	0.0231	0.2562	1277.2207	0.207913	-351.163973	-351.155125	-351.154181	-351.197194	35.102	
C	-0.5099443232	 1.52358678	 0.078187597	-0.391113
C	-0.0496598747	 0.052299528	 0.0269455164	-0.006009
C	 0.4440015861	-0.3134643316	-1.3915232162	-0.265634
C	 0.7470784945	-1.7806174471	-1.5887663683	-0.071803
C	 1.8477909004	-2.4692992798	-1.2815704386	-0.01424
C	 3.1401401038	-2.0268456207	-0.6475758817	-0.237453
C	 3.1779075179	-0.6324460272	 0.0111067599	-0.268076
C	 2.2171915115	-0.4872992657	 1.169789877	-0.066203
C	 0.9086824645	-0.2263606173	 1.1610837915	-0.024765
H	 0.3251519039	 2.1988145958	-0.1374555813	 0.116762
H	-1.3006657742	 1.7135300628	-0.6555382374	 0.10908
H	-0.898895709	 1.7831012135	 1.0679221584	 0.111891
H	-0.9385701658	-0.5668264658	 0.2225156846	 0.07923
H	-0.3525311601	-0.034241832	-2.0913549754	 0.091212
H	 1.2949868786	 0.3174501847	-1.6581171386	 0.105973
H	-0.0701415361	-2.3510943188	-2.0277267391	 0.080256
H	 1.8335943313	-3.5332333875	-1.5179467299	 0.078875
H	 3.4111777591	-2.776552244	 0.1093945706	 0.105089
H	 3.9413460315	-2.0842561733	-1.4000788892	 0.104256
H	 4.1951922284	-0.47320946	 0.3860173721	 0.093403
H	 3.0214262147	 0.1393305667	-0.7443706345	 0.110434
H	 2.6664867198	-0.6578152273	 2.147207881	 0.080884
H	 0.4222354872	-0.1807929733	 2.1361866317	 0.077951
68.1777	171.5203	204.7586	243.0554	254.7619	311.9826	319.6882	345.3974	408.1039	494.5231	556.3374	652.3129	685.1329	716.9735	752.469	812.5147	825.5445	870.5592	907.6588	943.4255	971.1519	992.8855	1012.622	1016.5385	1038.4549	1072.5947	1079.2788	1110.5646	1161.957	1171.5577	1225.579	1256.4117	1300.1135	1304.0863	1307.1478	1344.7985	1356.2316	1386.1961	1391.1452	1403.8843	1433.0123	1436.4268	1470.2283	1484.6079	1495.4657	1498.9465	1524.4457	1729.8613	1734.4617	2983.2189	2993.2972	3019.0394	3027.7201	3036.996	3045.3978	3084.2584	3098.8143	3101.0071	3107.3868	3112.8388	3117.4108	3138.3061	3141.9133
CC1CC=CCCC=C1	C[C@H]1CC=CCCC=C1	
InChI=1S/C9H14/c1-9-7-5-3-2-4-6-8-9/h3,5-6,8-9H,2,4,7H2,1H3/b5-3-,8-6-	InChI=1S/C9H14/c1-9-7-5-3-2-4-6-8-9/h3,5-6,8-9H,2,4,7H2,1H3/b5-3-,8-6-/t9-/m0/s1
