18
gdb 44810	2.7295	1.50572	1.19197	3.4086	76.52	-0.2418	0.009	0.2508	1083.7417	0.14842	-401.927733	-401.919843	-401.918899	-401.960576	30.5	
O	 0.5072187763	 0.1932871266	 0.81748131	-0.353977
C	 0.2898794326	 1.2801603848	 0.3574818702	 0.373281
N	-0.8998618201	 1.898486453	-0.072514242	-0.345334
C	-0.2048915929	 3.1554351108	-0.3723345308	-0.054886
C	 0.5351308671	 3.6655219769	 0.8256144218	-0.339708
C	 1.1234807249	 2.5096350461	 0.0028578452	 0.206809
C	 2.4675589091	 2.5220147796	-0.6237730479	-0.118594
C	 3.4972165566	 1.4993153395	-0.1935855288	-0.268667
C	 2.887516521	 1.4192782318	-1.5684696886	-0.276055
H	-1.7625478555	 1.8479327516	 0.4593933814	 0.240907
H	-0.4522073974	 3.7269156541	-1.2569123764	 0.117192
H	 1.068216414	 4.6057548682	 0.7068747741	 0.123194
H	 0.1387606231	 3.4951871173	 1.8230740218	 0.121285
H	 2.845444609	 3.5153196764	-0.8499214808	 0.080833
H	 4.5274326021	 1.8236604538	-0.0980344483	 0.109267
H	 3.1802914574	 0.7583066059	 0.5311354996	 0.144356
H	 2.1822388333	 0.6175016235	-1.7571144036	 0.129569
H	 3.4951903195	 1.6915954599	-2.4242742869	 0.11053
55.5824	138.4381	164.2148	219.6126	342.0646	417.9148	455.1132	465.3638	610.2437	673.8819	711.9203	769.0788	796.7156	825.8434	855.1864	864.9076	915.2136	931.0565	937.8189	987.4684	1015.0079	1052.8835	1068.2789	1084.5781	1091.6754	1097.0969	1131.8863	1143.9605	1202.4145	1219.7419	1233.9503	1290.7234	1325.1402	1352.2276	1441.5709	1467.5556	1489.0786	1505.7548	1881.9521	3107.804	3135.7149	3137.2183	3142.3198	3194.7015	3210.1256	3218.569	3235.2575	3534.1006
O=C1NC2CC12C1CC1	O=C1N[C@H]2C[C@@]12C1CC1	
InChI=1S/C7H9NO/c9-6-7(4-1-2-4)3-5(7)8-6/h4-5H,1-3H2,(H,8,9)	InChI=1S/C7H9NO/c9-6-7(4-1-2-4)3-5(7)8-6/h4-5H,1-3H2,(H,8,9)/t5-,7-/m0/s1
