19
gdb 99555	2.24769	1.2043	0.93727	1.1748	83.92	-0.259	0.0294	0.2884	1327.5714	0.154545	-385.808842	-385.798147	-385.797203	-385.844511	38.413	
C	 0.561832346	 1.0899424038	 0.5785872588	-0.237321
O	-0.2917009222	 0.3940031193	-0.306038143	-0.225103
C	 0.3846147771	-0.2960011393	-1.3371254596	-0.078307
C	 1.1579071168	-1.4391584277	-0.8282012721	 0.347923
C	 1.7941526855	-2.3707364244	-0.4122980389	-0.46302
C	-0.6794550622	-0.7487050004	-2.3763299014	-0.187631
C	-1.7738490493	-1.6244617095	-1.7378578585	-0.390925
C	-1.2442235966	 0.4142851959	-3.0579273691	 0.337871
C	-1.7102437158	 1.3638516766	-3.6284077034	-0.468263
H	 1.2400081754	 0.4091097444	 1.1106146939	 0.119624
H	 1.1643222531	 1.8418333943	 0.0464180295	 0.108194
H	-0.0793910515	 1.59655622	 1.3029955852	 0.131013
H	 1.0804452901	 0.3904122125	-1.847015631	 0.101654
H	 2.3588226372	-3.1920888936	-0.0447944404	 0.200659
H	-0.137003392	-1.3504502515	-3.1167747891	 0.116092
H	-2.3138270488	-1.0592715843	-0.9765883958	 0.145173
H	-2.4835881383	-1.9546739058	-2.4998374704	 0.122129
H	-1.3239440008	-2.5041614249	-1.2700730146	 0.126731
H	-2.1244810137	 2.2021523849	-4.13135834	 0.193509
63.7749	92.7801	125.8663	159.772	184.1867	191.7881	228.7157	245.1525	290.5365	332.5999	390.782	485.8489	534.0597	580.6172	617.1398	633.305	645.0969	668.0259	676.1998	830.1308	895.6941	957.8222	990.9183	1068.9805	1103.1181	1122.5234	1156.2943	1184.595	1218.67	1295.2224	1313.1628	1353.8524	1369.0194	1404.515	1479.076	1485.2622	1493.3867	1502.0062	1510.1073	2227.3198	2238.0434	2968.2649	2986.3117	3028.0735	3045.3505	3055.9687	3124.0706	3129.35	3148.1071	3500.5379	3505.4409
COC(C#C)C(C)C#C	CO[C@@H](C#C)[C@@H](C)C#C	
InChI=1S/C8H10O/c1-5-7(3)8(6-2)9-4/h1-2,7-8H,3-4H3	InChI=1S/C8H10O/c1-5-7(3)8(6-2)9-4/h1-2,7-8H,3-4H3/t7-,8-/m0/s1
