21
gdb 38653	3.01905	1.83319	1.56031	0.2547	85.7	-0.2297	0.0288	0.2585	950.7222	0.187732	-349.961783	-349.955336	-349.954392	-349.992117	28.434	
C	-0.0709517379	 1.5940392237	 0.0852724691	-0.240151
C	 1.4744415358	 1.4540198156	-0.0222341257	-0.030765
C	 1.8019416611	 0.8143394615	 1.3390326826	-0.224366
C	 0.746004283	-0.3560456362	 1.3160756307	-0.036915
C	 1.4052944603	-1.6998529125	 1.1266870202	-0.081938
C	 2.0778793298	-1.956630844	 0.0052633959	-0.045183
C	 2.1809236514	-0.9421005938	-1.107483652	-0.31286
C	 1.1907697594	 0.2223051986	-0.9482817493	 0.031046
C	-0.0157471665	 0.0476187044	 0.0233457335	-0.028321
H	-0.4770855966	 2.0633868222	 0.9867985027	 0.083497
H	-0.5268152177	 2.0327400817	-0.8058626033	 0.092427
H	 2.1077435061	 2.2794365673	-0.3520201975	 0.052749
H	 2.8247355468	 0.4372566242	 1.4110032446	 0.098073
H	 1.639413612	 1.5152223748	 2.1639787967	 0.091261
H	 0.1017878016	-0.3474751427	 2.1982871222	 0.058755
H	 1.3344084969	-2.4405124864	 1.9180891515	 0.080131
H	 2.5680414849	-2.9148674712	-0.1467083581	 0.082117
H	 3.2091787601	-0.5547366115	-1.1750712859	 0.107372
H	 2.0057037338	-1.4468984428	-2.0671599464	 0.102115
H	 0.8531608121	 0.5742712387	-1.9271304758	 0.065819
H	-0.8818958465	-0.5626045118	-0.2346067256	 0.055137
178.0894	282.0563	344.975	444.9437	473.1631	475.2616	581.8829	669.7651	710.7127	741.115	808.0812	822.8538	843.1675	869.1605	911.3285	925.1537	939.614	961.5389	965.3109	983.7194	994.4554	1018.4213	1032.0932	1069.2587	1094.6638	1098.8271	1117.0434	1156.8615	1170.682	1189.6363	1218.0694	1230.6586	1243.7949	1266.9869	1281.2666	1309.9569	1321.878	1329.6843	1354.7002	1382.6073	1410.7614	1472.6876	1493.5173	1512.1895	1710.3949	2991.1323	3021.659	3045.8385	3049.2709	3065.9489	3074.2747	3097.7266	3101.8475	3107.1709	3112.2191	3149.8809	3175.0313
C1C2CC3C=CCC2C13	C1[C@H]2C[C@@H]3C=CC[C@H]2[C@H]13	
InChI=1S/C9H12/c1-2-6-4-7-5-9(6)8(7)3-1/h1-2,6-9H,3-5H2	InChI=1S/C9H12/c1-2-6-4-7-5-9(6)8(7)3-1/h1-2,6-9H,3-5H2/t6-,7+,8+,9+/m0/s1
