19
gdb 111254	3.08479	1.2436	0.99157	3.8468	76.24	-0.2437	-0.0198	0.2238	1227.2193	0.158241	-423.017429	-423.008345	-423.007401	-423.051289	33.709	
C	 0.0321911811	 1.5620249865	-0.0364176099	-0.499249
C	 0.0811320062	 0.0613350085	-0.0108495454	 0.224682
C	-0.8905625789	-0.7931633916	 0.8027038933	-0.324161
C	 0.5683870726	-0.9642686956	 1.0560530152	-0.136126
C	 1.2065263466	-1.8516917066	-0.0283892966	-0.125207
C	 0.8419903077	-3.3189201033	-0.2418825593	-0.083975
O	 1.3983486104	-3.7870837015	-1.4573778815	-0.423872
C	 0.6710785601	-0.8341511017	-1.0625564641	 0.350758
O	 0.795066914	-0.7612314735	-2.2579627949	-0.339863
H	 1.0044211706	 1.9875626487	-0.3045213354	 0.131739
H	-0.6989578975	 1.9147409291	-0.7715566499	 0.140319
H	-0.2573322185	 1.9616999165	 0.9404133725	 0.123524
H	-1.4397568956	-0.2198955092	 1.5436483511	 0.125977
H	-1.4795270954	-1.5749466084	 0.3332954844	 0.126633
H	 1.0261020562	-0.7289896575	 2.008277814	 0.104513
H	 2.2999259128	-1.7602364426	-0.0230285845	 0.112067
H	 1.2554253058	-3.9453134703	 0.5564012589	 0.108957
H	-0.251477461	-3.4505528923	-0.2223651859	 0.085757
H	 1.1914504227	-3.1358485652	-2.139902612	 0.297526
91.5671	106.2602	146.7415	166.8974	204.3166	269.5187	309.6569	382.8667	434.1701	473.6691	500.466	626.5584	641.9815	760.8402	766.7977	841.1656	908.8556	939.6028	954.8443	981.3161	1005.873	1057.8063	1069.3915	1086.623	1104.7356	1111.3274	1134.6168	1173.9341	1232.2186	1258.3649	1295.3252	1327.1557	1374.9988	1389.0136	1417.0738	1443.6319	1483.2999	1495.5642	1500.6152	1518.9413	1854.5609	2975.7831	3033.7996	3042.3474	3061.9778	3098.8345	3106.3512	3123.1425	3197.3145	3206.3242	3770.7832
CC12CC1C(CO)C2=O	C[C@]12C[C@H]1[C@@H](CO)C2=O	
InChI=1S/C7H10O2/c1-7-2-5(7)4(3-8)6(7)9/h4-5,8H,2-3H2,1H3	InChI=1S/C7H10O2/c1-7-2-5(7)4(3-8)6(7)9/h4-5,8H,2-3H2,1H3/t4-,5+,7+/m1/s1
