14
gdb 132884	3.27218	1.33269	0.94755	6.2923	73.22	-0.1803	-0.0319	0.1484	1116.6862	0.10167	-478.013914	-478.006452	-478.005508	-478.045582	29.327	
O	 0.1567528805	 0.0531485038	 0.033579837	-0.473833
C	-0.006538018	 1.2889147679	 0.0401503349	 0.342036
C	-1.2150108983	 2.0292011446	 0.0240907797	-0.373157
C	-1.2050812498	 3.422574202	 0.0226667231	 0.282107
F	-2.371394002	 4.078436912	 0.0056575452	-0.081393
C	-0.0554437284	 4.1679786876	 0.031903649	-0.205016
N	 1.1323822969	 3.4595659189	 0.047793064	-0.332281
C	 1.2085638862	 2.1289212023	 0.0488787043	 0.332309
N	 2.377535704	 1.4508498858	 0.1041632362	-0.553007
H	 3.2285105909	 1.8303422651	-0.2768489699	 0.256657
H	 2.1896733065	 0.4565392548	-0.0220912562	 0.283567
H	-2.1600697554	 1.5011451722	 0.0002366197	 0.115675
H	-0.0043661172	 5.2432679529	 0.027758918	 0.136918
H	 1.989947064	 3.9942446902	 0.0747395951	 0.269418
141.7139	213.3962	282.4582	343.6729	358.1402	379.6346	428.7578	453.3023	518.1993	591.6841	597.0152	649.7274	662.9997	702.1219	723.5414	771.9746	806.7746	859.1553	1004.2526	1061.2034	1193.5626	1205.0775	1269.457	1299.676	1348.427	1491.5957	1518.3738	1559.2614	1613.3663	1663.0732	1701.0134	3215.2708	3277.6438	3456.755	3592.8591	3672.726
[O-]C1=CC(F)=CNC1=[NH2+]	O=C1[CH]C(=CN[C]1N)F	
InChI=1S/C5H5FN2O/c6-3-1-4(9)5(7)8-2-3/h1-2,9H,(H2,7,8)	InChI=1S/C5H5FN2O/c6-3-1-4(9)5(7)8-2-3/h1-2,8H,7H2
