14
gdb 132452	3.29524	1.37817	0.97261	1.6629	70.75	-0.1951	-0.0207	0.1744	1097.9813	0.103064	-474.198127	-474.19075	-474.189806	-474.229786	28.913	
N	 0.0500498422	 1.3634184915	 0.003317948	-0.58883
C	-0.0130924299	-0.0151849389	 0.0231865429	 0.277068
C	-1.1522580212	-0.7608349519	 0.0779649841	-0.112409
N	-1.1747853862	-2.1445781693	 0.1617229036	-0.349704
C	-0.0419721098	-2.7124336055	 0.1824854581	 0.392395
F	 0.071330789	-4.030893223	 0.2672383897	-0.068167
N	 1.1672749109	-2.0850790434	 0.1221011843	-0.435183
C	 1.2853922767	-0.6941345442	 0.0217065023	 0.355734
N	 2.3783330518	-0.0304127161	-0.0739936197	-0.566831
H	 0.9514844204	 1.7076597648	-0.3009210093	 0.269551
H	-0.7428003574	 1.8453179233	-0.3904453268	 0.249482
H	-2.1269958858	-0.2845896591	 0.0645346259	 0.105378
H	 2.0050049997	-2.6491752415	 0.1314372522	 0.265776
H	 3.2065455195	-0.6238552069	-0.0749159053	 0.205739
136.8188	173.0842	323.9032	359.8908	360.7734	407.3599	423.8932	471.7725	550.2869	568.2749	586.6034	611.0469	691.9698	759.2568	772.9388	789.3208	794.4488	895.6328	1010.655	1107.8607	1120.8942	1263.358	1280.0364	1299.8704	1336.1727	1451.4615	1502.7969	1609.6997	1646.2509	1692.1461	1733.7058	3180.9693	3489.5239	3550.7622	3611.871	3674.5029
NC1=CN=C(F)NC1=N	NC1=C(NC(=NC1)F)[NH]	
InChI=1S/C4H5FN4/c5-4-8-1-2(6)3(7)9-4/h1H,6H2,(H2,7,8,9)	InChI=1S/C4H6FN4/c5-4-8-1-2(6)3(7)9-4/h7H,1,6H2,(H,8,9)
