22
gdb 5942	4.15459	1.11288	1.10387	0.6671	83.75	-0.2589	0.051	0.3099	1218.0776	0.197126	-313.051009	-313.04088	-313.039936	-313.08513	38.145	
C	-0.1263458104	 1.5267831547	-0.1721778771	-0.407534
C	 0.0233112825	 0.0158216247	 0.0366203717	-0.173807
C	 0.7812707831	-0.4362178568	 1.3100832662	 0.262873
C	 2.2295036665	 0.0822641166	 1.3015908296	-0.411322
C	 0.0581750575	 0.0436242362	 2.5801852843	-0.411317
C	 0.7922301122	-1.9964506342	 1.281556387	-0.376288
C	 1.4668605556	-2.6303933299	 2.4079298221	 0.309178
C	 2.0245488805	-3.1486690745	 3.3391260339	-0.449387
H	 0.843175543	 2.0271590591	-0.2539908208	 0.119273
H	-0.6755035336	 1.7269142991	-1.0976864658	 0.113751
H	-0.6800166446	 2.0004367585	 0.6440024127	 0.119271
H	-0.976946251	-0.4380106884	 0.0527273483	 0.089391
H	 0.5340449707	-0.4112772377	-0.8371555258	 0.089389
H	 2.2620225571	 1.1734393609	 1.3684914847	 0.112012
H	 2.7893858981	-0.321485108	 2.1498854852	 0.127197
H	 2.7505327029	-0.2139082443	 0.3837254682	 0.105341
H	-0.988944659	-0.2806742102	 2.585887108	 0.105344
H	 0.5392527447	-0.3613245671	 3.4749849191	 0.127194
H	 0.0718476319	 1.1344803162	 2.6579515987	 0.112012
H	-0.2445735249	-2.3561977462	 1.2395287551	 0.122954
H	 1.2674703304	-2.3292986987	 0.3490841547	 0.122957
H	 2.5150780071	-3.6143750103	 4.1573257402	 0.191517
84.3025	95.1864	136.3611	219.415	248.5951	277.1499	281.912	324.0863	339.6222	357.5512	389.6624	407.4104	412.2479	572.6059	609.1854	633.9312	737.4462	787.3098	855.9494	893.5889	950.7085	957.8344	974.5258	1003.4338	1034.8625	1078.2527	1085.0087	1189.4578	1206.7276	1247.1357	1269.9685	1336.5319	1349.8241	1374.7486	1401.4209	1412.1883	1425.4604	1463.3663	1482.7341	1485.7834	1491.68	1509.582	1510.6003	1512.016	1516.609	2231.9957	3004.2686	3011.4021	3029.8241	3035.0571	3037.197	3042.5273	3045.361	3098.0888	3099.9454	3105.4427	3110.6644	3117.0834	3117.7803	3507.522
CCC(C)(C)CC#C	CCC(C)(C)CC#C	
InChI=1S/C8H14/c1-5-7-8(3,4)6-2/h1H,6-7H2,2-4H3	InChI=1S/C8H14/c1-5-7-8(3,4)6-2/h1H,6-7H2,2-4H3
