16
gdb 28368	3.2198	1.40261	0.98891	2.2418	76.2	-0.2488	-0.0568	0.192	1167.8749	0.12369	-437.968408	-437.959961	-437.959017	-438.001624	30.534	
C	-0.0148451112	 1.4811493771	 0.0839304516	-0.470048
C	-0.0094870247	-0.0040049407	-0.0711334775	 0.417516
N	-0.1277771544	-0.5863039012	-1.2111539875	-0.316869
C	-0.1060356205	-1.9649722108	-1.2011244976	-0.071967
C	 0.0291765375	-2.7282601283	-0.0888832618	 0.095036
C	 0.0523116261	-4.2268455446	-0.0804438129	-0.478276
C	 0.161625852	-2.0512045873	 1.1898332941	 0.380054
O	 0.290054608	-2.5444396551	 2.2758747634	-0.331906
O	 0.131688393	-0.644034893	 1.1074431276	-0.228653
H	 0.9177260071	 1.8160830193	 0.5491515514	 0.155268
H	-0.1306279439	 1.9487817843	-0.8927394868	 0.155958
H	-0.8326095431	 1.7891779695	 0.7433403607	 0.155269
H	-0.2076683021	-2.4316108543	-2.1778244784	 0.119489
H	 0.9874916472	-4.5997634718	 0.350279267	 0.14768
H	-0.7554400601	-4.6256124502	 0.5422158507	 0.147648
H	-0.053265171	-4.625948753	-1.092237714	 0.123802
101.3342	124.8728	148.9148	159.0108	268.2934	310.7942	327.5909	403.8388	474.3512	542.6178	558.6568	656.7523	736.995	759.2681	789.1269	930.3727	967.0967	1019.665	1027.955	1039.304	1064.7145	1072.8394	1194.554	1262.8525	1324.4494	1399.1789	1412.996	1419.2593	1468.0945	1470.4165	1473.1874	1487.432	1622.3864	1677.3484	1847.3369	3038.8379	3049.7004	3094.5967	3107.2884	3124.6939	3163.861	3170.6111
CC1=NC=C(C)C(=O)O1	Cc1ncc(C)c(=O)o1	
InChI=1S/C6H7NO2/c1-4-3-7-5(2)9-6(4)8/h3H,1-2H3	InChI=1S/C6H7NO2/c1-4-3-7-5(2)9-6(4)8/h3H,1-2H3
