19
gdb 80972	2.86659	1.44574	1.17202	1.5654	77.18	-0.2335	0.0076	0.2411	1123.1539	0.157947	-422.995908	-422.987373	-422.986429	-423.028479	33.476	
C	-0.0373924579	 1.4679372062	 0.0731089131	-0.515409
C	-0.0174566335	-0.0187433963	-0.00072597	 0.364954
C	-0.0121541599	-0.8765343508	-1.0305656586	-0.262281
C	 0.0715338908	-2.2328691534	-0.3398660572	 0.328904
C	-0.0639783053	-3.5285594826	-1.0825072454	-0.513191
O	-0.8717600401	-2.053428279	 0.7963250477	-0.348381
C	 0.0603320238	-0.9869394794	 1.1805689252	-0.106385
C	 1.2157456098	-1.9456331247	 0.7201459085	 0.162364
O	 1.5137121901	-2.9979159142	 1.5777684217	-0.448478
H	 0.8406450814	 1.8536387046	 0.6064452065	 0.131601
H	-0.049469218	 1.9166315214	-0.9239733632	 0.129645
H	-0.917808316	 1.8283269487	 0.6198216821	 0.134689
H	-0.0164599049	-0.6903506221	-2.0955383276	 0.104813
H	 0.6058060337	-3.5426046079	-1.9480747311	 0.125214
H	 0.195464432	-4.3714397589	-0.4357076022	 0.126118
H	-1.0901025687	-3.6621167144	-1.4382089032	 0.135302
H	-0.0535437727	-0.6315569004	 2.2048943225	 0.077715
H	 2.1527196121	-1.509871973	 0.3673772828	 0.087302
H	 0.6585813532	-3.3344226938	 1.8818630785	 0.285504
155.4421	162.6492	183.2301	220.4292	233.8008	272.5507	358.4268	429.9593	497.7402	543.7187	567.074	591.2881	649.2343	694.42	763.1417	813.6276	823.5594	871.2227	906.2042	918.0554	976.9975	1030.9107	1059.0286	1093.9773	1109.0556	1133.2246	1160.6034	1187.8432	1193.0554	1246.9935	1283.8199	1306.5839	1344.0689	1413.3152	1417.0638	1432.9271	1478.6078	1481.5812	1486.49	1489.3921	1680.3131	3018.553	3041.4873	3065.0288	3103.2213	3110.0094	3113.6291	3117.6485	3125.3284	3228.0145	3745.9944
CC1=CC2(C)OC1C2O	CC1=C[C@]2(C)O[C@H]1[C@H]2O	
InChI=1S/C7H10O2/c1-4-3-7(2)6(8)5(4)9-7/h3,5-6,8H,1-2H3	InChI=1S/C7H10O2/c1-4-3-7(2)6(8)5(4)9-7/h3,5-6,8H,1-2H3/t5-,6-,7+/m1/s1
