18
gdb 102190	2.38033	1.1071	0.81738	4.7827	72.69	-0.2727	0.0342	0.3069	1386.1498	0.14538	-439.061212	-439.051458	-439.050514	-439.097017	33.563	
C	-0.6725466075	 0.0964478299	 0.7696458364	-0.243043
O	 0.0601139599	-0.9131159527	 0.1020219346	-0.238918
C	 0.5687146913	-0.5388583212	-1.1583565795	 0.087541
C	 1.6799310915	-1.5442271456	-1.5068751779	-0.358144
C	 2.8108457334	-1.4601233319	-0.5870036678	 0.266429
N	 3.7108555509	-1.3796076521	 0.1326214107	-0.307149
C	-0.5102716642	-0.5738852937	-2.2281215586	 0.059062
C	-1.1084476175	 0.6483031222	-2.7802204021	-0.179949
O	-0.1175138759	-0.0789854481	-3.5081338926	-0.23357
H	-0.0705914759	 1.0075238366	 0.8996616442	 0.117691
H	-1.598576614	 0.3589351651	 0.2400865411	 0.112841
H	-0.9300554169	-0.3003619463	 1.753648154	 0.140553
H	 1.0023777357	 0.4728927441	-1.1235100892	 0.09152
H	 1.2670163187	-2.5585428178	-1.4744392676	 0.157715
H	 2.0256602002	-1.3536815134	-2.5275326058	 0.171462
H	-1.091394429	-1.4976567092	-2.2500864736	 0.107149
H	-2.1128705537	 0.6155747896	-3.1987199772	 0.126432
H	-0.7897594869	 1.6195188844	-2.4041385091	 0.122378
59.9558	74.964	80.8012	129.2819	173.8067	218.3926	245.8319	344.27	369.9858	395.8648	442.3503	500.5354	593.4942	833.5625	865.9403	876.5018	933.069	969.3406	1034.3143	1062.8294	1099.7723	1133.5279	1153.8368	1162.3336	1175.4334	1182.2923	1205.8658	1255.8383	1279.8531	1291.6641	1345.276	1372.6409	1445.6737	1456.5712	1481.2878	1489.7372	1507.7207	1525.6459	2367.6689	2986.0233	2993.7875	3046.5054	3054.3909	3086.3753	3100.6746	3105.0404	3127.8792	3175.9867
COC(CC#N)C1CO1	CO[C@@H](CC#N)[C@H]1CO1	
InChI=1S/C6H9NO2/c1-8-5(2-3-7)6-4-9-6/h5-6H,2,4H2,1H3	InChI=1S/C6H9NO2/c1-8-5(2-3-7)6-4-9-6/h5-6H,2,4H2,1H3/t5-,6+/m0/s1
