16
gdb 77299	3.27756	0.94782	0.83122	3.2278	68.12	-0.2452	-0.0404	0.2049	1353.3543	0.122192	-475.042494	-475.033223	-475.032279	-475.078053	32.242	
O	 0.433176592	 0.7606350016	 0.7816390059	-0.418025
C	 0.1809463547	-0.3117981224	-0.0635758471	 0.041787
C	-1.2574230431	-0.9095462419	-0.2760784733	-0.003317
C	-0.9106198152	-1.1584902753	-1.7808646193	-0.372874
C	 0.2201326256	-0.1376359257	-1.5901267558	 0.341724
O	 0.7492770535	 0.6755477533	-2.2918493261	-0.293341
N	-1.6575684812	-2.0126969295	 0.5534290541	-0.292453
C	-2.8757504814	-2.0763023666	 1.1654696381	 0.155716
O	-3.752449304	-1.2477992188	 1.0571669676	-0.315288
H	 0.265120259	 1.5750669407	 0.2933958027	 0.29851
H	 0.852365387	-1.1360731942	 0.2222737357	 0.108013
H	-2.0241092827	-0.1400790699	-0.1753097834	 0.141118
H	-0.5282281194	-2.1682371641	-1.9641706353	 0.129905
H	-1.6681611792	-0.9192968841	-2.5279837262	 0.148886
H	-0.9997157677	-2.757007199	 0.7276425085	 0.248002
H	-2.9750066979	-2.9899593641	 1.7832441039	 0.081636
29.6239	79.5975	97.7064	166.6447	195.5811	260.788	328.8719	347.6337	370.3522	489.1026	518.0011	613.5482	651.1493	752.2305	788.1342	838.6638	907.9191	988.7161	1028.6291	1050.5699	1086.4123	1115.583	1158.7648	1182.1194	1208.318	1219.7424	1256.4573	1323.9602	1372.2771	1413.8148	1430.8979	1446.7877	1530.6326	1808.3075	1890.1122	2946.2875	3000.6842	3061.4662	3120.7886	3139.6928	3621.6072	3797.712
OC1C(CC1=O)NC=O	O[C@H]1[C@@H](CC1=O)NC=O	
InChI=1S/C5H7NO3/c7-2-6-3-1-4(8)5(3)9/h2-3,5,9H,1H2,(H,6,7)	InChI=1S/C5H7NO3/c7-2-6-3-1-4(8)5(3)9/h2-3,5,9H,1H2,(H,6,7)/t3-,5+/m1/s1
