17
gdb 77764	2.86419	1.51717	1.15122	4.1975	73.28	-0.2474	0.0037	0.2511	1077.7044	0.134749	-421.764393	-421.756582	-421.755637	-421.79649	30.32	
C	-0.081962205	 1.5799003622	 0.0060293025	-0.441542
C	 0.0264552328	 0.064908722	 0.0208228518	 0.036315
C	 1.2416730016	-0.6459709394	-0.6940446486	-0.301688
C	 2.0510301787	-0.1567881191	 0.5330480221	 0.449247
O	 3.0851594633	 0.3652547663	 0.8000234519	-0.319192
C	 0.7562839542	-0.6620299941	 1.2175041216	-0.301687
C	 0.8954420786	-1.8361827497	 0.2255078053	 0.541831
C	 0.1913265797	-3.0942703954	 0.0361476816	-0.308898
O	 1.5976540633	-3.0314959845	 0.3937742968	-0.294015
H	 0.86859822	 2.0630403117	 0.2513743582	 0.142804
H	-0.3946189494	 1.9329759025	-0.9820246838	 0.125929
H	-0.829394582	 1.9185858288	 0.7308088326	 0.12593
H	-0.9240786146	-0.4165211788	-0.2245867367	 0.086785
H	 1.4958790978	-0.6494388507	-1.7508213282	 0.101294
H	 0.4755727219	-0.6831946055	 2.2673436711	 0.101293
H	-0.4618099322	-3.4809595158	 0.8163071237	 0.127797
H	-0.0089668886	-3.4659804604	-0.9670862118	 0.127797
129.0304	174.6632	212.0508	232.155	252.4908	399.111	405.0696	474.5658	514.0676	584.0322	698.65	714.9601	770.9144	781.3197	830.5913	888.0851	929.0118	1006.7513	1014.2346	1035.4917	1059.0961	1099.2719	1110.3926	1113.485	1122.4932	1128.7901	1164.4666	1187.1282	1215.3095	1234.913	1387.9562	1423.5848	1460.0774	1494.1017	1500.6624	1556.049	1925.0145	3037.0642	3073.0512	3090.9194	3101.8624	3114.8965	3159.0842	3162.1989	3178.9316
CC1C2C(=O)C1C21CO1	C[C@H]1[C@H]2C(=O)[C@@H]1[C@]12CO1	
InChI=1S/C7H8O2/c1-3-4-6(8)5(3)7(4)2-9-7/h3-5H,2H2,1H3	InChI=1S/C7H8O2/c1-3-4-6(8)5(3)7(4)2-9-7/h3-5H,2H2,1H3/t3-,4-,5+,7+
