17
gdb 69610	3.49625	1.20465	1.15866	3.7538	78.68	-0.2304	0.0046	0.2351	1124.3857	0.135896	-380.804126	-380.796235	-380.795291	-380.836281	30.853	
C	-0.0469743998	 1.5329858252	 0.0289957523	-0.495237
C	 0.0140132205	 0.0344013604	 0.0134624697	 0.345536
C	-0.8827768224	-0.8835323822	 0.8022986173	-0.339313
C	 0.6054180393	-0.9339166262	 1.0318353946	-0.160581
C	 1.346723523	-1.6782227624	-0.1194386589	 0.237748
N	 0.3474070611	-2.1568029032	-1.1219072089	-0.366228
C	 0.7539909586	-0.7446524207	-1.1207629534	-0.171759
C	 2.6611451153	-2.212153073	-0.0579694936	 0.177601
N	 3.7350905394	-2.642200406	 0.0053179253	-0.347719
H	 0.9306689483	 1.9770272691	-0.1920172638	 0.124104
H	-0.7607889273	 1.9107336409	-0.7129711647	 0.127028
H	-0.3638767742	 1.8984422654	 1.0105812689	 0.12681
H	-1.4290656972	-0.3866350628	 1.5985002606	 0.115958
H	-1.4007055575	-1.710154913	 0.3336680574	 0.148327
H	 1.0820216471	-0.7195467978	 1.978790719	 0.108181
H	 0.8629178396	-2.6325520023	-1.8626976486	 0.250416
H	 1.2333774161	-0.2885756514	-1.9776995532	 0.119129
111.5191	154.4553	214.2851	252.3734	293.0557	391.224	438.7906	477.0215	529.133	555.1159	590.0424	646.8223	780.0373	796.3134	853.5887	864.5391	904.2014	927.0498	961.7661	976.0568	1010.5187	1040.9334	1065.9297	1096.4805	1108.2797	1139.0867	1211.1475	1217.5847	1258.5767	1331.336	1360.1132	1405.7616	1423.2807	1476.3355	1485.7009	1499.5097	2338.4906	3021.7369	3078.8733	3103.3327	3139.0814	3201.0322	3208.79	3234.0166	3478.3273
CC12CC1C1(NC21)C#N	C[C@]12C[C@H]1[C@]1(N[C@@H]21)C#N	
InChI=1S/C7H8N2/c1-6-2-4(6)7(3-8)5(6)9-7/h4-5,9H,2H2,1H3	InChI=1S/C7H8N2/c1-6-2-4(6)7(3-8)5(6)9-7/h4-5,9H,2H2,1H3/t4-,5+,6+,7-/m1/s1
