16
gdb 124133	7.01669	0.73556	0.6714	4.3141	86.95	-0.2243	-0.0044	0.2199	1662.1986	0.123973	-396.912921	-396.903766	-396.902822	-396.949232	30.965	
C	-0.0935851115	 1.4666980918	 0.0510078764	-0.507659
C	-0.0052220631	 0.0165778649	-0.003387808	 0.16523
C	 0.0604684934	-1.1863291433	-0.0504833672	-0.023148
C	 0.1327691446	-2.5963048989	-0.1069098915	 0.189229
C	 1.2165821111	-3.4209023476	 0.1310535438	-0.224594
N	 0.7447802411	-4.6713605485	-0.0584160403	 0.072871
C	 1.4331303368	-5.9415351386	 0.0528822385	-0.332592
N	-0.5638080242	-4.6387312761	-0.3971178843	-0.14794
N	-0.9382215824	-3.397538682	-0.4282935962	-0.268855
H	 0.5945923521	 1.9360706694	-0.6610430282	 0.150331
H	-1.1062546962	 1.8054273088	-0.1929731885	 0.157235
H	 0.151896512	 1.8448975998	 1.049814926	 0.150327
H	 2.2360614845	-3.2131517013	 0.4073668402	 0.145952
H	 1.8147227232	-6.0861714891	 1.0672597318	 0.150008
H	 0.7068304297	-6.720679374	-0.177630507	 0.173596
H	 2.2632272189	-5.9941846554	-0.6568091455	 0.150008
13.1944	86.1116	87.9435	91.0337	201.2941	284.9306	312.0429	372.0111	453.504	494.8566	548.3223	667.4979	716.9951	731.3458	807.3123	961.6311	1024.2662	1051.6559	1051.9267	1063.2602	1077.8641	1151.6344	1187.4729	1256.583	1291.0367	1380.8193	1412.9098	1440.2059	1474.7304	1476.279	1485.2316	1485.9572	1512.7191	1576.0802	2367.8231	3025.5358	3050.7006	3084.0266	3091.4104	3116.9019	3164.6024	3286.2236
CC#CC1=CN(C)N=N1	CC#Cc1cn(C)nn1	
InChI=1S/C6H7N3/c1-3-4-6-5-9(2)8-7-6/h5H,1-2H3	InChI=1S/C6H7N3/c1-3-4-6-5-9(2)8-7-6/h5H,1-2H3
