21
gdb 77476	1.99306	1.47506	1.36709	1.7221	79.04	-0.2332	0.0629	0.2962	1144.2915	0.180044	-424.197411	-424.187369	-424.186425	-424.231388	37.935	
C	-0.2253014563	 1.5853828634	 0.0066553898	-0.425887
C	 0.0584700838	 0.0865698502	-0.0106360634	-0.010092
C	 1.2115344277	-0.484976283	-0.9036850848	-0.302824
C	 1.7770295939	-1.2528761012	 0.3040645573	 0.251812
C	 2.2927635345	-2.6629092862	 0.2552458818	-0.496693
C	 2.1703681587	-0.2687347104	 1.3620194173	-0.026941
O	 2.7897905537	 0.9414892856	 1.0101421766	-0.418285
C	 0.7065434521	-0.5893694472	 1.2030246212	 0.256459
O	-0.020722573	-1.195077448	 2.2205646979	-0.46015
H	 0.6932912442	 2.1576807199	 0.1570875236	 0.118444
H	-0.6733868993	 1.9106477039	-0.938833047	 0.113321
H	-0.9305776585	 1.8434820907	 0.8058078001	 0.103431
H	-0.8639431209	-0.4596611989	-0.2353447288	 0.079093
H	 0.8515240955	-1.1439346147	-1.6972738472	 0.095913
H	 1.8863840093	 0.259611086	-1.3321558377	 0.110378
H	 3.2639892137	-2.7121125582	-0.2516186473	 0.121572
H	 2.4189124776	-3.0737771154	 1.2617452386	 0.12297
H	 1.6016094576	-3.317538679	-0.2874633415	 0.117835
H	 2.5967324016	-0.7491868133	 2.245547035	 0.083751
H	 2.5857399271	 1.5934653717	 1.6885699669	 0.283715
H	-0.114187073	-0.5718317559	 2.9490553316	 0.282179
144.6887	153.0573	167.7201	188.7923	202.6831	227.8908	249.3731	277.4442	307.2096	344.9004	361.3247	431.5236	548.2736	573.621	616.1509	717.6967	737.8994	796.4582	852.6092	896.2398	949.7137	996.0389	1032.8442	1061.9214	1105.0972	1111.0992	1122.5923	1170.051	1205.5406	1214.0757	1237.3696	1244.4	1290.6972	1306.3284	1327.1046	1340.4816	1384.6906	1401.6604	1414.457	1470.5247	1485.976	1493.9885	1495.2632	1506.4435	1518.3366	3022.6283	3026.781	3045.607	3064.1042	3080.9205	3081.6358	3084.1194	3101.287	3116.7299	3122.4036	3793.9193	3807.6552
CC1CC2(C)C(O)C12O	C[C@H]1C[C@@]2(C)[C@@H](O)[C@@]12O	
InChI=1S/C7H12O2/c1-4-3-6(2)5(8)7(4,6)9/h4-5,8-9H,3H2,1-2H3	InChI=1S/C7H12O2/c1-4-3-6(2)5(8)7(4,6)9/h4-5,8-9H,3H2,1-2H3/t4-,5+,6-,7-/m0/s1
