17
gdb 64942	3.96494	0.65592	0.64844	3.8886	82.79	-0.2525	0.0138	0.2664	1765.3613	0.134731	-380.82778	-380.818209	-380.817265	-380.864628	33.6	
C	-0.5743655248	 1.1678841404	-0.6937477106	-0.462602
C	 0.0321101652	-0.0641466416	-0.0441913894	 0.094644
C	 1.1993468409	-0.7280649913	-0.7026198972	-0.258282
N	 1.3944551829	 0.0272082901	 0.5400347636	-0.327142
C	-0.895937281	-0.8719183394	 0.712146938	 0.111414
C	-1.6987420057	-1.5318064834	 1.3176102755	 0.102753
C	-2.6532139087	-2.3410612384	 2.0705467163	-0.478241
C	-3.3822982392	-3.3038192484	 1.2328773895	 0.279124
N	-3.9625634266	-4.0627428162	 0.5845471028	-0.301453
H	 0.1785757126	 1.700954576	-1.2831933025	 0.115385
H	-1.3975994899	 0.8919527741	-1.3594533238	 0.140499
H	-0.9696978324	 1.8513125814	 0.0643866022	 0.134416
H	 1.3271668752	-1.8017844411	-0.6092386676	 0.131941
H	 1.5434905076	-0.3037179812	-1.6425997706	 0.118017
H	 1.7767756235	 0.947388097	 0.3316116631	 0.233572
H	-2.138581698	-2.8987140091	 2.8637524297	 0.184955
H	-3.3895623016	-1.702424879	 2.5755231709	 0.180999
9.1472	67.3157	104.5402	172.3572	226.4056	280.095	320.2067	338.9881	365.9527	374.7501	504.0836	548.6209	559.4647	661.5171	813.974	842.8993	921.0311	932.0996	935.6552	975.5024	999.1471	1055.3093	1089.6237	1127.1109	1154.9196	1234.3458	1263.3061	1316.476	1333.0718	1378.6124	1414.1911	1446.9191	1480.661	1500.5588	1507.8078	2369.4777	2379.6496	3024.6688	3034.0514	3054.8205	3106.4137	3110.2359	3110.9675	3203.1194	3490.1509
CC1(CN1)C#CCC#N	C[C@]1(CN1)C#CCC#N	
InChI=1S/C7H8N2/c1-7(6-9-7)4-2-3-5-8/h9H,3,6H2,1H3	InChI=1S/C7H8N2/c1-7(6-9-7)4-2-3-5-8/h9H,3,6H2,1H3/t7-/m1/s1
