16
gdb 22617	2.41899	1.55587	1.05881	1.0343	69.06	-0.2379	0.0006	0.2385	1104.1183	0.122058	-474.933645	-474.924826	-474.923882	-474.966887	33.095	
O	-0.2257333843	 1.3693656729	-0.1036540366	-0.412776
N	 0.0333187874	-0.0211231256	 0.0326606068	-0.279716
C	-1.0611928511	-0.6560479652	 0.0020179456	 0.342819
C	-2.538507556	-0.2528558551	-0.0327755343	 0.032618
O	-3.017531941	 0.4164723258	-1.1730435402	-0.433407
C	-2.8952623173	-1.7403885583	 0.0655643729	-0.123522
C	-2.2640256747	-2.491361763	-1.0715010243	-0.339454
C	-1.394549727	-2.1033391681	 0.1133887548	 0.293587
O	-0.7825627289	-3.0264271904	 0.9288191228	-0.445034
H	 0.6583362015	 1.7476042634	-0.0546274479	 0.308896
H	-2.793058219	 0.2820198825	 0.8944496845	 0.097099
H	-2.4864376979	 1.2165814457	-1.2628513136	 0.298061
H	-3.6974809197	-2.1505539591	 0.6635296444	 0.108193
H	-2.4923164726	-3.5523140346	-1.0933361399	 0.122636
H	-2.1477465612	-2.0183708335	-2.040809964	 0.132231
H	-0.0386754882	-3.4103076974	 0.4511998991	 0.297767
93.5789	140.1039	195.4719	220.9971	246.7631	281.2164	353.1044	375.8983	385.0816	436.0847	538.4657	543.3295	622.7579	654.4523	795.0945	833.2309	865.7701	911.9349	950.3341	958.2178	1011.1953	1038.8646	1081.001	1097.2159	1153.226	1180.4516	1228.4245	1281.5914	1311.4017	1319.5177	1378.0441	1406.2387	1428.9341	1493.251	1783.785	2996.552	3128.417	3212.5677	3221.8209	3798.	3800.0258	3824.6472
ON=C1C(O)C2CC12O	O[N][C]1[C@@H](O)[C@H]2C[C@@]12O	
InChI=1S/C5H7NO3/c7-3-2-1-5(2,8)4(3)6-9/h2-3,7-9H,1H2	InChI=1S/C5H7NO3/c7-3-2-1-5(2,8)4(3)6-9/h2-3,7-9H,1H2/t2-,3+,5+/m1/s1
