23
gdb 80426	2.40588	1.71475	1.26273	1.5529	84.46	-0.2391	0.083	0.3221	1119.5034	0.205953	-388.288878	-388.279988	-388.279044	-388.321543	35.866	
C	-0.0641894037	 1.5427085726	-0.1139082962	-0.411389
C	 0.04527919	 0.0218081216	-0.0268896359	 0.013258
C	 1.0037352299	-0.5698610846	-1.0851177923	 0.078271
C	 1.1738144682	-2.0388646134	-0.6641848626	-0.287692
C	 1.9238409292	-1.3090304006	 0.4773930351	 0.421688
C	 3.0672496101	-1.9206619357	 1.2385887878	-0.502638
O	 2.3170469212	-0.2865696007	-0.5084828126	-0.335213
C	 0.7790365759	-0.5760002983	 1.2399538078	-0.023803
C	 1.2790321145	 0.4268581667	 2.2778912763	-0.416429
H	 0.9257024039	 2.0067641141	-0.1241817217	 0.131402
H	-0.5814438122	 1.8328725066	-1.035214471	 0.106257
H	-0.6299589842	 1.9608135203	 0.7241383412	 0.111341
H	-0.954262245	-0.4157967591	-0.1296489106	 0.064741
H	 0.897048988	-0.2477386738	-2.1220271307	 0.070026
H	 0.2872381178	-2.6336109787	-0.426662903	 0.087933
H	 1.8592082462	-2.5819058324	-1.3167455397	 0.10215
H	 3.7884913824	-2.3737443141	 0.5530620532	 0.124994
H	 3.5890088957	-1.1665922697	 1.8354316773	 0.130538
H	 2.6983097454	-2.6969974745	 1.9175955755	 0.119507
H	 0.1347906556	-1.3095572842	 1.7382930803	 0.064568
H	 2.0268158614	 1.0997781291	 1.8490870199	 0.130229
H	 0.4607330589	 1.036514274	 2.6726115703	 0.111786
H	 1.7365936207	-0.0899779254	 3.1279346817	 0.108476
114.1372	195.693	234.0347	248.6601	270.3618	286.9165	302.6035	320.7324	404.3125	464.4257	476.9965	609.9839	634.8005	720.997	750.4474	797.2408	826.8216	838.7924	885.6861	925.0059	972.3626	1009.1459	1017.5929	1025.3863	1038.1693	1045.9605	1094.7572	1122.8551	1149.8416	1163.0685	1198.3949	1217.3154	1233.3693	1271.2582	1292.869	1306.7102	1331.8591	1369.4298	1371.4627	1405.5284	1412.5441	1414.8673	1478.6041	1488.1047	1488.8994	1493.9794	1501.912	1510.9195	1520.4551	3026.9621	3034.6764	3037.9868	3039.5377	3044.1703	3059.0195	3094.5379	3100.5351	3108.597	3109.8223	3115.7266	3117.8643	3123.8823	3133.2715
CC1C2CC(C)(O2)C1C	C[C@H]1[C@@H]2C[C@@](C)(O2)[C@H]1C	
InChI=1S/C8H14O/c1-5-6(2)8(3)4-7(5)9-8/h5-7H,4H2,1-3H3	InChI=1S/C8H14O/c1-5-6(2)8(3)4-7(5)9-8/h5-7H,4H2,1-3H3/t5-,6+,7+,8-/m1/s1
