18
gdb 43953	3.35718	1.45794	1.41099	3.4066	76.45	-0.2454	0.0052	0.2506	987.4188	0.150305	-401.880568	-401.873835	-401.872891	-401.911471	28.16	
O	-0.2964732063	-0.0595914516	-0.4102209233	-0.312234
C	-0.1219948261	 1.085704113	-0.1361035636	 0.317407
N	-1.0471507122	 2.1693168891	 0.0599263509	-0.421653
C	-0.012871672	 2.9045883031	 0.8193509859	 0.317153
C	 0.9532743148	 4.1401877131	 0.7437371031	-0.317268
C	 2.0306383988	 2.9768035902	 0.9982300448	-0.085387
C	 1.7053645612	 2.5488031172	 2.4303149174	-0.201549
C	 0.1560907204	 2.4677748965	 2.2984666867	-0.244827
C	 1.0505286027	 2.1374143978	 0.0735708555	-0.126568
H	-1.9815508701	 1.9849135047	 0.4105641505	 0.240688
H	 1.0387155371	 4.5868771002	-0.246564803	 0.117997
H	 0.8707303591	 4.9110455047	 1.5163861478	 0.09708
H	 3.0744678869	 3.1179603147	 0.7199276138	 0.08118
H	 2.1537900871	 1.5879957494	 2.6935916909	 0.111471
H	 2.0394959864	 3.2900749761	 3.1621122144	 0.101101
H	-0.3745047679	 3.1343660762	 2.9847472185	 0.099146
H	-0.2191522187	 1.4527507144	 2.4593714846	 0.109089
H	 1.1501155887	 2.5589629114	-0.9323278149	 0.117173
130.5989	216.1971	326.1765	407.9623	424.2767	517.6288	555.8071	591.5342	646.8923	658.3789	742.4869	794.2386	816.3021	842.499	867.9884	917.0891	948.3581	953.5693	966.6549	1016.7032	1029.6674	1044.9024	1070.6967	1125.7765	1134.7334	1163.2943	1189.6854	1192.5814	1222.7757	1248.1292	1267.5394	1308.4274	1320.9043	1329.3263	1378.4514	1488.9124	1491.1019	1515.4254	1897.9587	3043.0646	3049.9588	3053.1576	3061.2176	3089.9034	3110.2162	3125.9045	3144.9642	3536.0514
O=C1NC23CC(CC2)C13	O=C1N[C@@]23C[C@@H](CC2)[C@@H]13	
InChI=1S/C7H9NO/c9-6-5-4-1-2-7(5,3-4)8-6/h4-5H,1-3H2,(H,8,9)	InChI=1S/C7H9NO/c9-6-5-4-1-2-7(5,3-4)8-6/h4-5H,1-3H2,(H,8,9)/t4-,5+,7-/m1/s1
