19
gdb 19909	4.56686	1.50425	1.37005	0.8499	75.62	-0.2089	0.0689	0.2778	987.8404	0.165336	-327.825551	-327.818058	-327.817114	-327.8573	29.488	
C	 0.7288157446	 1.5978797614	-0.2282917604	-0.375605
C	-0.0298807031	 0.2702799807	-0.1661280482	-0.119429
N	 0.4404638295	-0.5210870459	 0.972545201	-0.063808
C	-0.2537788349	-1.2651890406	 1.9794304356	-0.068652
C	-1.3135927958	-2.3187031463	 1.4960649169	-0.06769
C	-1.5107942072	-2.392129117	 0.0071624073	-0.308855
C	-0.2581538079	-2.9632251102	 0.61202955	-0.067704
C	 0.7904731813	-1.9029178022	 1.1048547317	-0.06864
H	 1.8030893323	 1.422712444	-0.338465365	 0.118429
H	 0.3871244909	 2.2014552947	-1.0764058838	 0.103084
H	 0.5752172619	 2.172567934	 0.6898729905	 0.11843
H	-1.1041465394	 0.4680645913	-0.07138998	 0.108419
H	 0.1245729214	-0.282302107	-1.1004388352	 0.108418
H	-0.1920492698	-0.9485345853	 3.0160262451	 0.091467
H	-1.9820671265	-2.8091606638	 2.1918676527	 0.087497
H	-2.2283940766	-3.1499731051	-0.2970244622	 0.111218
H	-1.5151827232	-1.5224079841	-0.6321520297	 0.114457
H	-0.0090392977	-4.0140305241	 0.5392463803	 0.087496
H	 1.8161628904	-2.1749668443	 1.3341170934	 0.091468
69.2539	178.9032	195.9935	273.1883	331.3691	371.2356	482.185	646.4002	682.9331	695.5261	723.5714	745.4925	811.5258	848.0933	880.1596	924.0735	924.6551	960.078	975.5385	1017.6402	1029.8985	1057.6819	1058.4126	1083.0952	1092.0115	1108.3341	1177.2936	1178.6799	1250.8563	1267.1323	1279.0754	1319.9468	1330.7713	1380.6898	1402.9447	1433.0524	1479.1842	1486.776	1498.5582	1503.983	3014.7636	3034.1475	3063.1259	3105.3694	3117.3954	3136.3252	3147.3457	3157.8986	3189.2985	3200.1933	3252.1033
CCN1C2C3CC3C12	CCN1[C@H]2[C@H]3C[C@H]3[C@@H]12	
InChI=1S/C7H11N/c1-2-8-6-4-3-5(4)7(6)8/h4-7H,2-3H2,1H3	InChI=1S/C7H11N/c1-2-8-6-4-3-5(4)7(6)8/h4-7H,2-3H2,1H3/t4-,5+,6-,7+,8?
