18
gdb 74186	2.39181	1.64679	1.08117	5.5846	82.11	-0.213	-0.019	0.194	1114.9327	0.149834	-401.985231	-401.977398	-401.976453	-402.017424	31.276	
N	 0.0965612287	 1.3525069055	 0.2454637424	-0.571545
C	 0.0078412555	-0.0029584278	 0.0531047291	 0.411246
C	-1.1798461295	-0.6626872989	-0.0172865095	-0.316454
C	-1.2933233897	-2.1081140103	-0.0712450474	 0.368595
O	-2.3591705361	-2.6809582891	-0.238603748	-0.373383
C	-0.0203032964	-2.9355778029	 0.1621078703	-0.340189
C	 1.2939325147	-2.2196628674	-0.0660955389	-0.033765
C	 1.5852489429	-1.4877546853	-1.3414229731	-0.29069
C	 1.3064434574	-0.7053069264	-0.0620489166	-0.132727
H	 0.9274713455	 1.8202227661	-0.0804795742	 0.257408
H	-0.7509372941	 1.8920021672	 0.1582769425	 0.26014
H	-2.1160825956	-0.1122981435	-0.031603796	 0.076798
H	-0.0717343964	-3.2742375067	 1.205207894	 0.126655
H	-0.0956276375	-3.8374657367	-0.4533647124	 0.12586
H	 2.1530566034	-2.6842177613	 0.4082851912	 0.093724
H	 2.6030713249	-1.4897744352	-1.7160863712	 0.116509
H	 0.8153820934	-1.4549677476	-2.1048042493	 0.131274
H	 2.146702379	-0.2014636897	 0.4054601173	 0.090544
87.482	164.6856	241.6754	326.63	334.0691	415.1713	469.6827	484.6481	488.9902	505.1756	579.5383	637.0405	690.4224	774.901	822.5564	846.915	866.6269	878.5093	908.3169	998.6362	1015.4727	1060.2115	1080.8365	1103.0714	1127.7844	1133.1647	1214.1425	1229.9179	1254.7691	1282.5817	1321.6761	1356.0431	1403.2333	1453.5448	1463.1122	1487.3713	1636.2627	1670.423	1741.4017	3029.9815	3082.4135	3132.0096	3146.2682	3156.4243	3170.1178	3223.9366	3579.4148	3692.1144
NC1=CC(=O)CC2CC12	NC1=CC(=O)C[C@H]2C[C@@H]12	
InChI=1S/C7H9NO/c8-7-3-5(9)1-4-2-6(4)7/h3-4,6H,1-2,8H2	InChI=1S/C7H9NO/c8-7-3-5(9)1-4-2-6(4)7/h3-4,6H,1-2,8H2/t4-,6+/m0/s1
