19
gdb 18471	3.33753	1.55221	1.33519	0.3256	71.12	-0.2263	0.0697	0.296	1001.3188	0.165593	-365.003019	-364.994823	-364.993879	-365.035483	30.913	
C	-0.2347835388	 1.6236030873	 0.0479300683	-0.413192
C	-0.0322088096	 0.1175713079	 0.0236886164	 0.09954
C	 0.9331456026	-0.58912663	-0.9689994543	-0.293778
C	 1.5281193472	-1.2861084132	 0.2539826435	-0.028386
C	 2.0744762509	-0.3287644151	 1.2317041044	-0.005106
C	 2.8461698435	 0.9395439177	 0.9137461011	-0.103499
O	 4.2456361491	 0.6941000989	 0.9364807109	-0.414567
N	 0.6086639338	-0.5429784378	 1.2269485751	-0.188247
H	 0.69868383	 2.1898353735	 0.0352787022	 0.122148
H	-0.823550829	 1.9348272969	-0.8221334433	 0.117924
H	-0.790834479	 1.9089388481	 0.9473705055	 0.128393
H	-1.0185213157	-0.3512591765	-0.050618377	 0.089325
H	 0.4244584839	-1.2621807092	-1.6608708687	 0.109157
H	 1.6213603268	 0.039163205	-1.543247631	 0.107973
H	 1.6879644857	-2.3567412118	 0.335960127	 0.093087
H	 2.4754135193	-0.8053295358	 2.128507118	 0.083448
H	 2.6352376131	 1.3055726152	-0.092200275	 0.115487
H	 2.5660743474	 1.7359993327	 1.6206309729	 0.096591
H	 4.4901029686	 0.4557402162	 1.8365194737	 0.283702
83.3081	163.5014	196.1893	218.444	255.0606	293.2582	335.4642	402.6042	487.575	576.0207	696.2134	744.3347	769.5749	847.161	860.2661	931.5942	966.4615	985.5259	1005.7107	1059.3252	1075.0848	1088.1994	1108.0966	1130.67	1135.7755	1184.8431	1224.5092	1249.4155	1269.9373	1303.8745	1343.9224	1380.0989	1391.921	1406.9874	1415.6918	1454.7273	1488.6077	1496.7777	1497.2416	1516.143	2984.1432	3037.2976	3047.3269	3053.7853	3084.8619	3098.8629	3116.7094	3117.63	3133.6861	3157.9363	3814.6727
CC1CC2C(CO)N12	C[C@H]1C[C@H]2[C@@H](CO)N12	
InChI=1S/C6H11NO/c1-4-2-5-6(3-8)7(4)5/h4-6,8H,2-3H2,1H3	InChI=1S/C6H11NO/c1-4-2-5-6(3-8)7(4)5/h4-6,8H,2-3H2,1H3/t4-,5-,6+,7?/m0/s1
