17
gdb 41141	3.3035	1.7549	1.35841	1.2241	73.09	-0.2329	-0.0026	0.2304	946.9426	0.137572	-421.790382	-421.783709	-421.782765	-421.82134	26.987	
C	 0.0189692337	 1.5053858168	 0.0870278766	-0.117004
O	 1.4708718875	 1.506813732	-0.02702451	-0.343727
C	 1.5110224651	 0.0778708885	-0.0177431394	 0.409563
C	 2.4974019172	-0.6902426903	-0.8131955257	-0.194298
C	 2.8592784601	-1.8006151708	-0.1621999125	-0.064156
C	 2.1998776867	-1.9519292951	 1.1969912495	-0.301388
C	 1.4198344473	-0.631776313	 1.3596643786	 0.061064
O	-0.028329545	-0.7377299575	 1.2492170398	-0.307299
C	-0.034669397	-0.0358872664	-0.0013094598	 0.000455
H	-0.3308726565	 1.9200730444	 1.0384331861	 0.113678
H	-0.4388260671	 2.0439395395	-0.7503407198	 0.108785
H	 2.8245398542	-0.3937533504	-1.8020649977	 0.106716
H	 3.5373149917	-2.5512440241	-0.5542844833	 0.104918
H	 1.5001736491	-2.7958989067	 1.216676767	 0.130017
H	 2.9322602159	-2.1262192061	 1.994143675	 0.11066
H	 1.7141428779	-0.0474883758	 2.2360642875	 0.090258
H	-0.6780762506	-0.4989688152	-0.751137962	 0.091758
128.6376	198.085	278.6926	363.7957	443.0147	479.2962	498.4039	666.7037	727.6497	752.3653	806.8004	836.7133	855.2549	891.0111	934.6706	971.5094	982.1569	994.2847	1028.9463	1031.9073	1054.9669	1083.9374	1087.5862	1138.2032	1163.1044	1171.1153	1172.5959	1231.7692	1267.462	1306.8321	1323.8643	1339.394	1353.537	1395.4885	1470.6455	1504.3144	1659.757	3029.3995	3030.8521	3063.1189	3075.4866	3085.0753	3102.2782	3188.1066	3218.3258
C1OC23C=CCC2OC13	C1O[C@@]23C=CC[C@@H]2O[C@@H]13	
InChI=1S/C7H8O2/c1-2-5-7(3-1)6(9-5)4-8-7/h1,3,5-6H,2,4H2	InChI=1S/C7H8O2/c1-2-5-7(3-1)6(9-5)4-8-7/h1,3,5-6H,2,4H2/t5-,6-,7-/m0/s1
