21
gdb 95982	2.40655	1.37693	1.10018	3.0714	77.98	-0.2412	-0.0186	0.2226	1204.787	0.181884	-424.253849	-424.244235	-424.24329	-424.289684	34.81	
C	-0.6187091147	 1.4683765369	 0.0838072996	-0.432257
C	-0.1247028284	 0.0236133739	 0.0130095478	 0.025556
C	 0.7467635692	-0.2908230807	-1.2106069352	-0.088283
O	 1.3543574615	-1.5320022224	-0.9094014744	-0.247705
C	 1.7604272228	-1.4649294714	 0.4518876293	-0.089555
C	 0.7859984665	-0.4962445003	 1.1849627281	-0.149266
C	 1.5289286607	 0.6428387836	 1.8804371196	 0.384739
C	 1.0206722425	 1.0570917258	 3.2475419214	-0.483518
O	 2.4710962524	 1.1954129786	 1.3557926516	-0.311994
H	 0.212526645	 2.178094689	 0.1295804658	 0.140778
H	-1.212152963	 1.7067189734	-0.8050442181	 0.119712
H	-1.260894391	 1.6368690099	 0.9544560765	 0.115378
H	-0.992406976	-0.6442404244	-0.0235977232	 0.087194
H	 0.1720042929	-0.4080082848	-2.1337834939	 0.105784
H	 1.5000544829	 0.5000706269	-1.3574977803	 0.104587
H	 1.7286535003	-2.4794872213	 0.8583519375	 0.103675
H	 2.7845502319	-1.0782118676	 0.5260353288	 0.115801
H	 0.1717412275	-1.0237777482	 1.9189659116	 0.075436
H	 1.1304914976	 0.2230371839	 3.9512039891	 0.141559
H	 1.5783853987	 1.9205817377	 3.61177772	 0.141707
H	-0.0488071294	 1.2918807616	 3.2057431383	 0.140674
20.3293	58.2164	144.9617	175.7714	221.7544	254.6718	270.3715	316.1664	337.3014	433.7819	547.0183	597.2738	619.757	687.1558	762.2433	862.283	915.5489	930.9952	955.1118	972.0371	990.9128	1022.1524	1064.5524	1103.2149	1118.7343	1138.4997	1156.8073	1184.723	1227.7296	1260.2693	1291.3287	1321.2711	1335.1362	1370.8895	1377.6874	1390.4729	1402.8392	1415.5943	1460.3517	1473.8383	1498.9033	1503.6392	1507.1366	1515.8478	1800.3822	2979.8188	3025.5897	3032.6589	3035.9495	3039.4388	3069.4449	3088.2073	3092.3158	3093.4779	3097.4404	3115.1916	3152.5274
CC1COCC1C(C)=O	C[C@H]1COC[C@H]1C(=O)C	
InChI=1S/C7H12O2/c1-5-3-9-4-7(5)6(2)8/h5,7H,3-4H2,1-2H3	InChI=1S/C7H12O2/c1-5-3-9-4-7(5)6(2)8/h5,7H,3-4H2,1-2H3/t5-,7+/m0/s1
