15
gdb 36177	3.76935	1.22832	1.12642	2.5669	68.69	-0.2542	0.021	0.2752	1071.3265	0.112626	-416.699939	-416.692726	-416.691781	-416.732225	27.304	
N	-0.0066668198	-1.1574360965	 0.048266302	-0.303056
C	-0.0019105525	-0.0045329546	-0.0271060019	 0.255435
C	 0.050274987	 1.4541835909	-0.1210308889	-0.482914
C	 1.4679572815	 1.9705033329	-0.0821354357	 0.315664
N	 2.4985001077	 1.7207610377	-1.1365365232	-0.376541
C	 3.2255178304	 2.5727319371	-0.1369743728	-0.076552
C	 1.9610135606	 3.4359868461	 0.1370339426	 0.050417
O	 2.0340416737	 3.3225343271	 1.5847654794	-0.324605
C	 2.4780944079	 2.0155136711	 1.1194520883	 0.040806
H	-0.4379461379	 1.7717372086	-1.0490631873	 0.168849
H	-0.504992567	 1.8919279753	 0.716736008	 0.172982
H	 2.8288227447	 0.7535485027	-1.0895034189	 0.227095
H	 4.2617671663	 2.8884964186	-0.2460825004	 0.105117
H	 1.6256627948	 4.368613117	-0.3135340859	 0.112888
H	 2.7576359526	 1.255358586	 1.8496499648	 0.114414
65.7829	107.5536	226.9661	299.6163	391.8906	443.6706	488.7807	592.0016	697.4895	754.4321	773.1965	811.8813	831.4977	859.3055	894.1225	938.6497	945.5232	954.4747	1033.6786	1055.8291	1095.4472	1105.4406	1162.508	1168.2634	1183.4963	1232.771	1261.295	1279.0993	1308.4696	1323.3293	1383.2303	1448.5475	2364.0296	3044.788	3089.1818	3120.6756	3135.6682	3148.3932	3415.9048
N#CCC12NC3C1OC23	N#CC[C@@]12N[C@H]3[C@@H]1O[C@@H]23	
InChI=1S/C6H6N2O/c7-2-1-6-4-3(8-6)5(6)9-4/h3-5,8H,1H2	InChI=1S/C6H6N2O/c7-2-1-6-4-3(8-6)5(6)9-4/h3-5,8H,1H2/t3-,4-,5+,6+
