18
gdb 13538	2.88987	1.65779	1.17681	4.1354	72.44	-0.2397	0.0305	0.2702	1047.0084	0.152856	-343.968194	-343.959381	-343.958437	-344.001677	31.616	
C	-1.7884424867	-2.0980524124	 0.7660193083	-0.395543
C	-0.4461539272	-1.6689668243	 0.1390306805	-0.172331
C	-0.6303953929	-0.4820710495	-0.7076706325	 0.280542
N	-0.7797100727	 0.4540315566	-1.3690606529	-0.326634
C	 0.596663083	-1.3971948779	 1.2236485918	 0.031536
C	 1.4761400017	-2.5042033979	 1.700620447	-0.263069
N	 2.032015721	-1.3670049256	 0.9810811128	-0.076958
C	 2.5646750776	-1.5825101617	-0.3569535894	-0.326268
H	-2.1687494745	-1.3202262023	 1.4339149696	 0.141074
H	-2.5397486257	-2.2828187257	-0.0052961946	 0.138855
H	-1.6456696456	-3.013174104	 1.3463216588	 0.131108
H	-0.0935199834	-2.4751948547	-0.5127473306	 0.126207
H	 0.2658255508	-0.6460890542	 1.9401535761	 0.10649
H	 1.7457123339	-2.5944992606	 2.7495855434	 0.122193
H	 1.3987471929	-3.4540183227	 1.1692908276	 0.105854
H	 2.0870201331	-2.4029884596	-0.9160121518	 0.09871
H	 2.4633566925	-0.6624866431	-0.9395663169	 0.147533
H	 3.6295813719	-1.8179570401	-0.2701940471	 0.130701
59.0193	121.1236	188.654	203.6701	219.5618	230.5337	299.1192	335.7517	420.4088	477.6476	542.7644	601.4869	754.2188	803.8832	871.0993	920.2883	970.1807	1032.1468	1076.4141	1089.8732	1099.5755	1126.9061	1130.1981	1164.7354	1194.2727	1203.7508	1270.6922	1323.2282	1344.8801	1404.2586	1420.4377	1452.5733	1488.6632	1492.3233	1498.632	1502.3762	1513.1108	2355.2411	2972.5876	3050.0941	3058.7821	3075.344	3077.5484	3110.6186	3115.9926	3128.0735	3132.5695	3170.6636
CC(C#N)C1CN1C	C[C@@H](C#N)[C@H]1CN1C	
InChI=1S/C6H10N2/c1-5(3-7)6-4-8(6)2/h5-6H,4H2,1-2H3	InChI=1S/C6H10N2/c1-5(3-7)6-4-8(6)2/h5-6H,4H2,1-2H3/t5-,6+,8?/m0/s1
