22
gdb 8936	3.3921	1.17028	0.92954	2.7964	79.13	-0.2437	-0.0171	0.2266	1303.6273	0.197242	-350.226818	-350.216426	-350.215482	-350.262661	36.738	
C	 0.0384635747	 1.6042355992	-0.0126250108	-0.391932
C	-0.0183034169	 0.0730578556	 0.0451579311	-0.18072
C	-1.4405577866	-0.5180881018	-0.0112297673	 0.031581
C	-2.1778191627	-0.1054059317	-1.2962814176	-0.40658
C	-1.4369480461	-2.0644423712	 0.1287371198	-0.046531
C	-0.720269839	-2.5817674311	 1.3923635211	-0.425778
C	-2.864478116	-2.5754868812	 0.189050216	 0.158976
O	-3.3492425376	-3.3994030106	-0.542405001	-0.256043
H	 1.0645423589	 1.956309975	 0.1321129394	 0.114549
H	-0.3085443838	 1.9962810517	-0.9726526501	 0.121824
H	-0.5792417529	 2.0528793003	 0.7738233835	 0.114192
H	 0.5749048156	-0.3470435716	-0.7790110693	 0.095668
H	 0.471111264	-0.2504096701	 0.9693365749	 0.098689
H	-1.9996651595	-0.114979976	 0.8482757699	 0.070616
H	-1.6283519061	-0.442027161	-2.1833543203	 0.119568
H	-3.1793758721	-0.5431997661	-1.34869434	 0.126869
H	-2.2920606437	 0.9791704773	-1.364209294	 0.118242
H	-0.9765014516	-2.511123552	-0.7606311418	 0.08958
H	-1.1362747818	-2.127359641	 2.2989269122	 0.120069
H	-0.8282518247	-3.6673099828	 1.4799313677	 0.129891
H	 0.3482204145	-2.3590213183	 1.3638216344	 0.131758
H	-3.4625503365	-2.1283779727	 1.021749352	 0.065511
45.2228	65.5801	86.4403	174.6136	199.8631	215.8468	245.4719	303.9338	306.3541	330.7478	373.063	421.0895	461.1366	565.9244	776.3794	817.2601	870.044	912.1045	960.3309	965.5968	989.2633	1007.7579	1044.8794	1076.2036	1144.3263	1166.0094	1177.2107	1186.9409	1257.5289	1306.9882	1317.6787	1351.5357	1368.5132	1385.8702	1403.168	1413.3594	1419.9013	1428.4151	1481.7267	1495.7604	1496.641	1497.7801	1504.9714	1507.9334	1516.5755	1834.3162	2824.6773	2978.4644	3016.3463	3033.4325	3035.1218	3035.8126	3046.5632	3070.6302	3098.529	3099.4291	3102.0741	3111.4382	3120.5111	3127.8719
CCC(C)C(C)C=O	CC[C@@H](C)[C@@H](C)C=O	
InChI=1S/C7H14O/c1-4-6(2)7(3)5-8/h5-7H,4H2,1-3H3	InChI=1S/C7H14O/c1-4-6(2)7(3)5-8/h5-7H,4H2,1-3H3/t6-,7+/m1/s1
