22
gdb 87238	3.39444	0.78802	0.76512	1.8212	89.62	-0.225	0.0596	0.2846	1618.7185	0.191132	-367.154029	-367.143442	-367.142498	-367.189879	38.998	
C	-0.3374061621	 1.370198745	 0.0914074399	-0.315495
N	-0.0257594408	-0.0432137138	 0.2365037491	-0.104041
C	 1.2886614806	-0.5014510539	-0.2017824247	-0.307526
C	 0.9307379163	-0.5088832534	 1.2499802008	 0.334564
C	 1.63301321	 0.4669711437	 2.1795114415	-0.470307
C	 0.5149781366	-1.8275721567	 1.8877277697	-0.2339
C	-0.6566755565	-1.6642622161	 2.8806971629	-0.354911
C	-1.0892301879	-2.9303708293	 3.4576954902	 0.296674
C	-1.4245147403	-3.9885386243	 3.9195378608	-0.443197
H	 0.5278204667	 2.0459872657	 0.1734225065	 0.098981
H	-0.7882506605	 1.5269512273	-0.8940128161	 0.125473
H	-1.0735280755	 1.662962995	 0.8472887604	 0.121186
H	 1.3102999929	-1.4242075793	-0.7774661777	 0.109926
H	 2.0038055147	 0.2527624023	-0.5312981924	 0.100157
H	 1.9924801894	 1.355038846	 1.6562714444	 0.12118
H	 0.9758940583	 0.8006899611	 2.9902297653	 0.122842
H	 2.501323817	-0.0166950496	 2.6394072791	 0.124696
H	 0.2034689056	-2.5213380184	 1.1021148066	 0.113766
H	 1.3712410271	-2.2814789541	 2.4004051322	 0.10244
H	-0.3755733093	-0.9788635852	 3.6900626455	 0.124489
H	-1.4924592151	-1.1934108128	 2.3486409544	 0.142311
H	-1.7322583671	-4.9165055992	 4.3330270316	 0.190691
61.7641	66.5007	113.1729	169.672	179.2575	196.8858	266.2445	290.3243	338.1812	377.3513	427.769	456.9782	482.5448	525.7276	612.7651	632.3286	719.5198	755.0661	782.2886	899.7039	922.0356	961.2429	984.3911	1012.8452	1035.0337	1065.783	1101.2222	1121.9741	1151.2174	1169.2249	1194.8425	1217.3275	1281.1666	1285.0431	1324.3703	1366.724	1398.1869	1416.9188	1452.8737	1471.6471	1485.0453	1487.8326	1490.5086	1502.7282	1510.9497	1516.0823	2237.8652	2982.0212	3023.9004	3038.1312	3041.8968	3058.7643	3064.6317	3078.4553	3093.5244	3098.1336	3098.3097	3128.5198	3163.4877	3508.2863
CN1CC1(C)CCC#C	CN1C[C@]1(C)CCC#C	
InChI=1S/C8H13N/c1-4-5-6-8(2)7-9(8)3/h1H,5-7H2,2-3H3	InChI=1S/C8H13N/c1-4-5-6-8(2)7-9(8)3/h1H,5-7H2,2-3H3/t8-,9?/m0/s1
