18
gdb 86901	3.45073	1.07788	0.91508	1.7331	69.08	-0.25	0.0151	0.2651	1258.5014	0.148128	-476.248278	-476.239437	-476.238493	-476.282918	32.342	
O	 0.529005987	 0.5478494756	-0.9826970049	-0.435208
C	 0.0445589942	-0.3095696923	 0.0118891826	 0.122663
C	 0.410719479	 0.1150369669	 1.4539102419	-0.215973
N	-0.6503739434	-0.4869958683	 2.2578079417	-0.057018
C	-1.7982200212	-0.9269358168	 1.452918788	-0.203891
C	-1.5010940215	-0.3690314367	 0.0620412408	 0.067557
O	-2.0245239904	 0.9443806256	-0.1504154471	-0.446644
C	-0.5874635751	-0.7424068332	 3.5886137809	 0.139531
O	-1.4685940703	-1.2875443051	 4.2223531561	-0.336845
H	-0.1422040953	 1.2404813227	-1.0719396884	 0.286976
H	 0.4421451449	-1.3117848015	-0.1844486858	 0.099834
H	 1.3985275584	-0.238003725	 1.7599890863	 0.128513
H	 0.4118714046	 1.2127437064	 1.5172784964	 0.105209
H	-1.8659163961	-2.0212018722	 1.4456825749	 0.132162
H	-2.740572005	-0.5499401839	 1.8623449822	 0.136082
H	-1.9176599374	-0.9842305097	-0.7378006168	 0.105349
H	-2.0242256939	 1.4190612543	 0.6880873458	 0.296649
H	 0.3628971413	-0.3949405767	 4.0405764653	 0.075054
21.9521	120.4131	178.4215	200.9874	279.9596	286.809	319.3837	355.7011	414.3005	471.0614	533.1544	603.5117	694.8814	754.9605	831.9387	853.1287	899.4491	978.054	1008.4516	1036.0269	1082.2621	1109.1502	1137.0126	1184.1678	1193.8091	1209.8501	1261.2811	1268.5663	1312.3212	1317.2895	1351.3734	1375.1547	1399.2998	1423.4789	1444.0719	1446.8735	1510.4648	1523.635	1788.7948	2935.82	2998.7557	3038.6854	3051.4171	3081.3627	3093.7225	3103.2285	3727.1072	3809.284
OC1CN(CC1O)C=O	O[C@H]1CN(C[C@H]1O)C=O	
InChI=1S/C5H9NO3/c7-3-6-1-4(8)5(9)2-6/h3-5,8-9H,1-2H2	InChI=1S/C5H9NO3/c7-3-6-1-4(8)5(9)2-6/h3-5,8-9H,1-2H2/t4-,5+
