19
gdb 47896	2.61633	1.45751	1.03889	3.2716	79.57	-0.2362	-0.0568	0.1794	1163.5588	0.160675	-423.035748	-423.027535	-423.026591	-423.06894	31.283	
O	-0.0561394204	 0.8816965151	-1.5247804824	-0.314566
C	-0.0312213939	 1.4253116279	-0.4354485807	 0.306623
C	-1.4097164416	 1.7807139409	 0.1568813519	-0.180581
O	-1.496807282	 2.3595285834	 1.4314426397	-0.241113
C	-0.8964044442	 3.6414852821	 1.5711594463	-0.07405
C	 0.1144469525	 3.5826147846	 2.7182088108	-0.203675
C	 0.9338490541	 2.2754662409	 2.6617631537	-0.249309
C	 1.7084918887	 2.0933445852	 1.3851211838	-0.051024
C	 1.2958344442	 1.7466286619	 0.1555756064	-0.129869
H	-1.8957605029	 2.4070597764	-0.6082172889	 0.123255
H	-1.9762206815	 0.8452277317	 0.2006448675	 0.14105
H	-0.3984624074	 3.9358922252	 0.6396833402	 0.103522
H	-1.6779626049	 4.3852432263	 1.7753066733	 0.105237
H	 0.7638243935	 4.4650513361	 2.6789186701	 0.102239
H	-0.4102084244	 3.6108456927	 3.6794245325	 0.111411
H	 1.6305433108	 2.2553795409	 3.5047795074	 0.100815
H	 0.2341991368	 1.4474607548	 2.794423814	 0.13521
H	 2.7811203447	 2.2607028819	 1.4768212321	 0.10564
H	 2.0589885076	 1.626755182	-0.6104374277	 0.109185
47.9251	151.94	198.2768	242.5991	272.7332	354.097	370.966	469.8091	489.0742	538.2766	617.4236	642.7634	743.7898	788.1909	808.7163	858.1981	913.9833	965.3909	1014.6797	1035.9561	1042.1543	1060.127	1098.3824	1162.2368	1194.8744	1234.5983	1262.5288	1298.4051	1305.0465	1322.8641	1342.888	1367.1057	1383.2104	1411.7958	1425.8765	1457.1786	1480.8172	1494.872	1512.5688	1685.4545	1741.7515	2984.6826	3013.0308	3037.5598	3053.4891	3061.463	3082.705	3086.2557	3109.0694	3130.5957	3159.6161
O=C1COCCCC=C1	O=C1COCCCC=C1	
InChI=1S/C7H10O2/c8-7-4-2-1-3-5-9-6-7/h2,4H,1,3,5-6H2/b4-2-	InChI=1S/C7H10O2/c8-7-4-2-1-3-5-9-6-7/h2,4H,1,3,5-6H2/b4-2-
