14
gdb 44323	3.68513	1.86277	1.45432	2.6402	64.56	-0.2396	-0.0069	0.2327	848.0988	0.102637	-436.583834	-436.578102	-436.577157	-436.613828	23.634	
O	-0.1066979026	 0.0427206683	-0.2033432672	-0.336091
C	 0.0050364899	 1.213522448	-0.0182635143	 0.414921
O	-1.0697454726	 2.0978816402	 0.0406127576	-0.270041
C	-0.4930777936	 3.4257333956	 0.2819527491	 0.065229
C	 0.7750432064	 3.4869635046	-0.5608024278	-0.026736
N	 1.7434979934	 4.0169096731	 0.5276640253	-0.18861
C	 2.5679083453	 2.7194305219	 0.388764423	-0.261811
C	 1.1421033957	 2.1810144431	 0.2076516089	 0.05048
C	 0.6472271334	 3.2098043435	 1.2694693267	-0.026733
H	-1.2963595146	 4.157350694	 0.3366470381	 0.108607
H	 0.9262238648	 3.6946234125	-1.6195719194	 0.108004
H	 3.2295225022	 2.7139576179	-0.4806423219	 0.127388
H	 3.1051999297	 2.4444010651	 1.2994279083	 0.127389
H	 0.6488269426	 3.0930997221	 2.3526814837	 0.108004
180.2701	318.4648	370.4109	466.4476	546.302	643.3608	697.2141	715.0476	791.2379	819.277	843.7474	866.9491	891.4429	893.2955	898.4293	951.0967	1008.9245	1012.9914	1044.0684	1093.4401	1107.4712	1130.2077	1181.6711	1186.3686	1208.0193	1249.3282	1274.1959	1284.4443	1344.2928	1513.7644	1912.2353	3065.1849	3127.8214	3129.3232	3134.3736	3151.4232
O=C1OC2C3N4CC13C24	O=C1O[C@@H]2[C@H]3N4C[C@]13[C@H]24	
InChI=1S/C6H5NO2/c8-5-6-1-7-3(6)2(9-5)4(6)7/h2-4H,1H2	InChI=1S/C6H5NO2/c8-5-6-1-7-3(6)2(9-5)4(6)7/h2-4H,1H2/t2-,3-,4+,6+
