14
gdb 5454	3.40851	1.98324	1.26357	1.2414	75.18	-0.2117	-0.0153	0.1963	914.724	0.106396	-345.409214	-345.401755	-345.400811	-345.440923	27.535	
C	-0.0054938438	 1.5403144414	 0.0880680723	-0.519686
C	 0.0145672934	 0.0461347384	 0.0481868271	 0.1405
C	 0.0004375393	-0.7448309771	-1.0743275552	 0.150683
O	 0.027060894	-2.0721114583	-0.7193791613	-0.177413
C	 0.0580880295	-2.113189618	 0.6313361774	-0.02609
C	 0.0522547012	-0.8593379923	 1.1563621634	-0.247605
C	-0.0348760177	-0.4266167715	-2.4422289162	 0.265752
C	-0.0653269254	-0.1307482627	-3.6102966146	-0.438816
H	 0.8827264897	 1.9375319848	 0.5922144794	 0.133561
H	-0.0354323362	 1.9547247395	-0.9224017761	 0.139851
H	-0.8794309388	 1.912732578	 0.6343243173	 0.133532
H	 0.0817578285	-3.0986165617	 1.0675736097	 0.137049
H	 0.0721970723	-0.6014402497	 2.2041122174	 0.115127
H	-0.0920154162	 0.1258306992	-4.6402084106	 0.193556
107.5118	141.9439	161.1736	262.7087	310.74	450.4692	515.1984	524.0386	595.5667	615.8402	687.9685	690.6632	699.6833	766.1475	828.9808	909.1583	987.8944	1062.8082	1069.0188	1115.9507	1194.3513	1243.6568	1285.6553	1413.2904	1437.6559	1484.6842	1490.5794	1522.97	1630.5225	2225.7114	3031.5466	3082.1011	3123.2282	3250.0339	3280.1589	3502.9645
CC1=C(OC=C1)C#C	Cc1c(occ1)C#C	
InChI=1S/C7H6O/c1-3-7-6(2)4-5-8-7/h1,4-5H,2H3	InChI=1S/C7H6O/c1-3-7-6(2)4-5-8-7/h1,4-5H,2H3
