21
gdb 123106	3.6242	0.62792	0.57401	2.5775	77.72	-0.2579	0.0201	0.2779	2001.3582	0.178899	-461.396701	-461.385522	-461.384578	-461.435768	37.303	
C	 0.0441714403	 1.4932702646	 0.0852083971	-0.38439
C	-0.0425443349	-0.0232499259	 0.0976400996	-0.02658
O	 0.712283915	-0.5084238095	 1.1897719778	-0.239726
C	 0.7042418115	-1.9110229487	 1.2924540816	-0.068407
C	 1.4998402361	-2.3244852537	 2.5099206122	-0.071132
O	 0.7568188258	-1.9450325311	 3.6792070608	-0.235966
C	 1.3470450471	-2.2193914301	 4.8613632552	 0.432963
C	 0.482126508	-1.7543821392	 6.0083275899	-0.47748
O	 2.4189659335	-2.7609251023	 4.9621877885	-0.351748
H	 1.0836095349	 1.817269669	-0.0180524939	 0.127553
H	-0.5321345848	 1.9011967048	-0.7504810081	 0.114967
H	-0.352537071	 1.9069028984	 1.0165914228	 0.128494
H	-1.0922831792	-0.3509663531	 0.1866696229	 0.087133
H	 0.3445964633	-0.4415027452	-0.8475541824	 0.084818
H	-0.3260979433	-2.2956177868	 1.3724346372	 0.095273
H	 1.1612524037	-2.3745790249	 0.4007467445	 0.088871
H	 1.6631305125	-3.4069565811	 2.515035823	 0.11793
H	 2.4762852967	-1.8320096665	 2.5204612288	 0.131329
H	-0.5074577073	-2.2154584209	 5.9460272979	 0.147221
H	 0.9587880511	-2.0170225249	 6.9518580484	 0.146773
H	 0.3397107812	-0.6713743728	 5.9513976963	 0.152105
25.6162	46.9878	60.8043	69.6292	126.7817	153.201	200.0989	222.8539	245.3997	296.3885	410.8882	439.4653	512.7536	607.0931	643.7802	821.2127	841.0907	868.2161	936.0657	977.536	1011.2534	1064.1063	1067.342	1088.8664	1126.6784	1161.8363	1173.8043	1191.7748	1259.2851	1271.3241	1295.4297	1299.8512	1382.0103	1391.7618	1404.6898	1413.2529	1456.4577	1469.6463	1476.2894	1483.1937	1495.697	1498.9148	1504.2657	1535.0416	1824.0668	2947.7518	2959.7913	2976.7155	2988.549	3045.726	3056.734	3057.7069	3107.3039	3120.2952	3122.3368	3122.6545	3169.1027
CCOCCOC(C)=O	CCOCCOC(=O)C	
InChI=1S/C6H12O3/c1-3-8-4-5-9-6(2)7/h3-5H2,1-2H3	InChI=1S/C6H12O3/c1-3-8-4-5-9-6(2)7/h3-5H2,1-2H3
