16
gdb 87313	2.73724	1.24688	1.0008	4.2606	75.63	-0.2575	0.0097	0.2673	1178.4274	0.121999	-400.707552	-400.698437	-400.697493	-400.741303	33.744	
O	-0.8724735849	 1.1868497803	 0.7125123359	-0.416111
C	-0.4244806844	-0.0850597044	 0.4090082528	 0.126201
C	-0.899106259	-1.3268776372	 1.0913761655	-0.365332
C	-1.3003423313	-1.0838563395	-0.3692229747	 0.073329
C	-2.7503432481	-0.7208680938	-0.7378885755	-0.403506
C	-3.5293057948	-0.1162290498	 0.3371668851	 0.256757
C	-4.1745625012	 0.3710971054	 1.2285154244	-0.421841
C	-0.6441145167	-1.8709185333	-1.3767733745	 0.236511
N	-0.1134003476	-2.4960488831	-2.1940938107	-0.34239
H	-1.7628697145	 1.1347923906	 1.083676952	 0.295349
H	 0.6166228662	-0.0505613473	 0.1072903813	 0.135469
H	-0.1887928312	-2.1193510631	 1.2961940645	 0.142456
H	-1.7030334442	-1.2327465513	 1.8137108365	 0.141059
H	-2.7331717047	-0.0434366808	-1.6000800778	 0.164397
H	-3.2633874308	-1.6312722825	-1.0696402054	 0.163155
H	-4.7691742927	 0.7954860098	 2.0004780208	 0.214498
74.0434	131.8518	162.3575	176.6713	210.7003	307.7465	338.5018	382.0869	434.4335	477.1955	490.4796	555.5146	573.6552	627.9847	667.7865	711.5308	795.4365	862.2324	916.2834	966.2858	989.7555	1020.5667	1069.2458	1119.9914	1164.0991	1213.3462	1248.5893	1285.6845	1331.5556	1372.8924	1445.3241	1467.0565	1480.205	2228.9346	2342.6335	3033.5247	3067.3598	3139.355	3180.8677	3232.7679	3497.0076	3757.7626
OC1CC1(CC#C)C#N	O[C@H]1C[C@]1(CC#C)C#N	
InChI=1S/C7H7NO/c1-2-3-7(5-8)4-6(7)9/h1,6,9H,3-4H2	InChI=1S/C7H7NO/c1-2-3-7(5-8)4-6(7)9/h1,6,9H,3-4H2/t6-,7+/m0/s1
