18
gdb 50842	2.8869	0.94398	0.75511	1.7823	75.22	-0.2831	-0.0266	0.2565	1489.7742	0.146268	-439.096823	-439.087598	-439.086653	-439.132319	32.585	
N	 0.4736043798	 1.6065671446	 1.2093468197	-0.476122
C	-0.0176210549	 0.607215839	 0.6164906658	 0.391624
C	-1.2987921167	-0.0574170106	 1.0389080397	-0.278881
C	-2.4431383502	 0.2379235495	 0.0815539791	 0.027466
C	-2.6277474191	-0.5715378198	-1.1757064411	-0.245808
C	-3.5963322672	-0.7273177545	-0.0304688786	-0.279114
O	 0.5016220095	 0.0095743651	-0.5362932797	-0.197221
C	 1.8498517552	-0.1459716245	-0.6565171779	 0.155261
O	 2.3546198961	-0.5251321882	-1.6658834774	-0.251707
H	 1.3042054712	 1.9793615019	 0.7494367929	 0.231816
H	-1.1356435221	-1.1402426745	 1.0896231837	 0.114763
H	-1.5368327673	 0.3044396004	 2.0420898133	 0.135105
H	-2.691962322	 1.2934279908	 0.0164443398	 0.097836
H	-2.9625728193	-0.0584893849	-2.0700429911	 0.117437
H	-1.9260089614	-1.375927865	-1.3651318832	 0.123539
H	-3.5506609127	-1.6409645081	 0.553395408	 0.113249
H	-4.5954282772	-0.3197247843	-0.1357607261	 0.116984
H	 2.3879142882	 0.0856232829	 0.278532703	 0.103772
45.2068	70.5305	90.8597	142.5949	180.9123	255.6438	323.2079	326.9592	426.4855	539.2603	585.9224	718.2937	772.2549	812.6498	843.3102	896.3329	909.565	920.6375	952.2125	1006.0765	1048.2593	1062.2844	1068.7761	1082.8965	1127.6712	1139.4767	1152.6486	1197.5511	1226.7096	1248.6713	1304.2506	1328.6908	1405.9972	1415.4508	1466.4378	1475.2616	1508.2195	1749.4738	1873.4442	2997.703	3043.2587	3109.6081	3132.6993	3141.8519	3149.4085	3212.5124	3229.096	3487.1254
N=C(CC1CC1)OC=O	[NH][C](CC1CC1)OC=O	
InChI=1S/C6H9NO2/c7-6(9-4-8)3-5-1-2-5/h4-5,7H,1-3H2	InChI=1S/C6H9NO2/c7-6(9-4-8)3-5-1-2-5/h4-5,7H,1-3H2
