15
gdb 9226	4.16264	0.98532	0.84786	3.5501	59.95	-0.2524	-0.033	0.2194	1288.7078	0.116803	-436.966139	-436.957213	-436.956269	-437.001119	30.04	
O	 0.429581978	 0.1100027581	 0.8538188723	-0.41214
C	-0.1834549754	 0.230048644	-0.422034827	-0.176887
C	-1.535073051	-0.4826751701	-0.5446781513	 0.353523
O	-2.2598721499	-0.3106451122	-1.50688747	-0.36814
N	-1.8173158679	-1.3167435586	 0.4945456397	-0.312752
C	-3.0284104431	-2.1010321088	 0.5493958125	-0.242563
C	-2.7699947328	-3.5892892548	 0.3594531006	 0.153259
O	-3.3999504247	-4.4563349593	 0.9031072098	-0.228996
H	 0.0737965652	 0.7992396739	 1.423185949	 0.297098
H	-0.3280512253	 1.2720370731	-0.7282674827	 0.135029
H	 0.4961865552	-0.2281560508	-1.1483663237	 0.150674
H	-1.1193921955	-1.3830780477	 1.2205513513	 0.259572
H	-3.5796240451	-1.9503807684	 1.4829944038	 0.132682
H	-3.6545910773	-1.7592017357	-0.2852668543	 0.17335
H	-1.9360498403	-3.8144810827	-0.3442429701	 0.086291
49.9661	66.6277	91.8581	123.0042	210.8427	284.1548	313.7192	363.3234	481.3305	507.4856	566.8561	636.9937	670.5771	776.751	895.8839	977.872	1051.8478	1075.9871	1105.1292	1127.1602	1193.3832	1238.1525	1273.6143	1339.0017	1367.504	1388.5764	1411.9629	1445.5064	1473.5074	1540.142	1789.3764	1841.0569	2877.3582	3035.8287	3046.0976	3092.9121	3093.4391	3617.6596	3827.9445
OCC(=O)NCC=O	OCC(=O)NCC=O	
InChI=1S/C4H7NO3/c6-2-1-5-4(8)3-7/h2,7H,1,3H2,(H,5,8)	InChI=1S/C4H7NO3/c6-2-1-5-4(8)3-7/h2,7H,1,3H2,(H,5,8)
