21
gdb 100146	3.80175	0.71715	0.70028	3.0682	76.01	-0.2542	-0.0246	0.2296	1668.4635	0.176999	-461.358471	-461.347055	-461.346111	-461.396313	39.533	
C	-0.1078939733	 1.6131944793	 0.1541600089	-0.426271
C	 0.0386089313	 0.0879439555	 0.0923748979	 0.371073
C	 0.7837754701	-0.4567945977	 1.3169542511	-0.426308
C	-1.346006975	-0.5709723162	-0.0187980854	-0.104546
O	-2.0976368104	-0.2445342409	 1.1387726807	-0.420338
O	 0.6616439033	-0.3319625639	-1.1330867712	-0.302437
C	 1.9755660862	 0.0920335377	-1.3848984463	-0.160642
C	 2.3909234578	-0.4841876289	-2.7288483038	 0.144668
O	 3.46838766	-0.3011640565	-3.2292585282	-0.240775
H	 0.8503983966	 2.1118710654	 0.3259956619	 0.112909
H	-0.5350239519	 1.9907245486	-0.7802152246	 0.116863
H	-0.7796775327	 1.8797946762	 0.9730076177	 0.142532
H	 0.1670110109	-0.3181156843	 2.2076021867	 0.142555
H	 0.9801992907	-1.5267286517	 1.1957476556	 0.116867
H	 1.7359180259	 0.0561076006	 1.4809128188	 0.112916
H	-1.8304214612	-0.2054252739	-0.9357884819	 0.093643
H	-1.2052092749	-1.6567854227	-0.1205373841	 0.093634
H	-2.9617730876	-0.6579310936	 1.063952503	 0.293913
H	 2.0711795254	 1.1874097007	-1.4390447659	 0.123822
H	 2.6932275979	-0.2581015585	-0.6270811503	 0.123826
H	 1.5988208311	-1.0974325753	-3.2128191706	 0.092096
35.2837	48.4817	95.8555	117.4193	122.0706	210.2673	234.4907	249.7985	261.7285	302.9926	338.8101	360.1959	400.5333	450.8511	550.8801	591.3457	742.0723	754.9517	895.1991	912.0651	963.6478	981.8917	1039.8384	1055.5501	1082.9435	1116.0658	1139.2361	1179.7715	1197.4102	1239.0964	1243.2155	1295.0796	1295.6272	1353.7741	1393.5433	1399.324	1413.4643	1455.0153	1481.1306	1481.5153	1491.6878	1501.1595	1509.6014	1526.0753	1844.2973	2896.8996	2986.426	2988.9301	3017.9426	3027.3842	3041.1972	3045.791	3109.206	3112.86	3131.7289	3136.0259	3843.9865
CC(C)(CO)OCC=O	CC(C)(CO)OCC=O	
InChI=1S/C6H12O3/c1-6(2,5-8)9-4-3-7/h3,8H,4-5H2,1-2H3	InChI=1S/C6H12O3/c1-6(2,5-8)9-4-3-7/h3,8H,4-5H2,1-2H3
