12
gdb 52468	5.13509	0.55508	0.5025	6.713	96.49	-0.2751	-0.1169	0.1582	2048.3261	0.074927	-398.319528	-398.310077	-398.309132	-398.357422	30.477	
C	 0.0270040548	 1.4618008824	 0.0138028335	-0.521085
C	 0.0210652076	 0.0136090053	-0.002476153	 0.265681
C	 0.0161612299	-1.1981876907	-0.0150328051	-0.168562
C	 0.0093627088	-2.5496761671	-0.029255366	-0.321723
C	 0.0081383578	-3.7649626957	-0.0417954428	 0.446319
C	-0.0074429855	-5.1934973024	-0.0572400244	 0.115334
O	-1.0030709563	-5.8812435618	-0.1144093585	-0.243948
C	 1.3325287052	-5.8083298546	 0.0038977629	 0.225376
N	 2.379056963	-6.2979069081	 0.0515546393	-0.318412
H	 1.0403550233	 1.8545451245	-0.1214115647	 0.172613
H	-0.6051606076	 1.8629687047	-0.7858970965	 0.173789
H	-0.3590308911	 1.8385933336	 0.9674861853	 0.174618
6.5011	51.4361	73.422	132.7204	199.8358	227.045	299.6462	341.7176	395.8227	438.2609	516.4553	583.2711	615.014	663.9566	779.4452	821.6375	1040.7681	1045.2372	1086.1168	1323.2492	1409.6379	1462.6458	1465.2437	1730.3012	2257.9415	2339.4541	2356.7818	3030.1403	3096.164	3099.0907
CC#CC#CC(=O)C#N	CC#CC#CC(=O)C#N	
InChI=1S/C7H3NO/c1-2-3-4-5-7(9)6-8/h1H3	InChI=1S/C7H3NO/c1-2-3-4-5-7(9)6-8/h1H3
