17
gdb 31087	2.44166	1.36675	0.88633	2.4182	74.46	-0.1676	0.0449	0.2125	1277.5736	0.135539	-455.147566	-455.138161	-455.137217	-455.181769	34.297	
C	-0.0036216258	 1.4530403108	-0.0413301171	-0.242124
O	 0.0036142403	 0.0398301256	-0.0245434199	-0.261466
C	 0.6391577219	-0.5444443485	 1.0200230375	 0.33777
C	 0.7528837159	-1.8931347939	 1.1731576727	 0.146575
N	 0.3117210243	-2.9649040383	 0.4137621889	-0.59404
O	 1.4667809513	-2.1287426819	 2.3657703125	-0.200831
C	 1.7651190247	-0.9341730908	 2.9012415558	 0.387781
N	 2.5443033423	-0.9679103284	 4.0511067297	-0.593421
C	 1.2896683099	 0.0922022133	 2.1373163886	-0.422015
H	 1.0138543465	 1.8646973811	-0.0804534372	 0.118561
H	-0.5422422045	 1.7476109921	-0.9439732507	 0.131023
H	-0.5201165084	 1.8678351224	 0.8348974429	 0.116229
H	-0.3653261415	-3.5531166802	 0.8888044025	 0.236576
H	 1.06163083	-3.5520472722	 0.0635277393	 0.238394
H	 2.3731837266	-1.7966974935	 4.6066444899	 0.252744
H	 2.4471643229	-0.1343958301	 4.6144779117	 0.252494
H	 1.3919372336	 1.1451914728	 2.3376892231	 0.095751
61.9709	162.4248	183.1722	197.7471	202.365	221.6739	272.1922	284.036	383.5619	385.7369	566.7605	582.5901	637.3679	648.6304	676.7144	702.146	736.5331	741.7963	829.8113	1016.337	1029.3811	1107.1328	1122.9045	1179.3888	1189.1084	1210.0822	1225.8896	1256.0362	1392.2017	1454.4789	1489.4535	1499.9396	1508.7007	1612.0761	1651.9256	1666.5852	1735.6449	2997.3985	3053.0778	3128.1539	3269.5779	3486.8109	3542.9806	3548.5141	3643.9431
COC1=C(N)OC(N)=C1	COc1c(N)oc(N)c1	
InChI=1S/C5H8N2O2/c1-8-3-2-4(6)9-5(3)7/h2H,6-7H2,1H3	InChI=1S/C5H8N2O2/c1-8-3-2-4(6)9-5(3)7/h2H,6-7H2,1H3
