15
gdb 33959	3.38901	1.43868	1.25336	3.4911	69.72	-0.2664	0.0004	0.2668	994.1194	0.114204	-416.774718	-416.767823	-416.766879	-416.806001	27.027	
N	 0.0719505745	-1.1611008673	-0.061671218	-0.335578
C	 0.0676898956	-0.0060174326	 0.010877869	 0.183419
C	 0.0447540092	 1.4234593974	 0.1033281863	 0.19869
N	 0.2840093918	 2.2535505977	-1.1034071786	-0.336617
C	 1.2899315299	 2.2586751585	-0.040843677	-0.090355
C	 1.2087767748	 3.4304924512	 0.9371645444	-0.252707
C	-0.1398911177	 3.2948714853	 1.6380171047	 0.034562
O	-1.2807647313	 3.3950500817	 0.7803997651	-0.223364
C	-0.842530255	 2.0962971625	 1.1468167176	-0.031931
H	 0.5907277703	 1.6511423112	-1.8654798033	 0.252096
H	 2.2498735293	 1.788178364	-0.2282267394	 0.118481
H	 2.0138640847	 3.3501560976	 1.6751116239	 0.119189
H	 1.3071767837	 4.3935633937	 0.4277981144	 0.138736
H	-0.2756015516	 3.6980663514	 2.6386548204	 0.108809
H	-1.5260155483	 1.489262738	 1.7322594504	 0.116571
140.3	153.4971	267.3888	327.3079	407.9495	475.1527	517.0505	551.8751	612.6338	706.3949	745.23	804.8677	850.9661	861.6738	900.4127	921.045	964.5444	1010.0872	1039.3355	1058.9199	1073.8697	1112.8838	1162.3703	1211.2227	1244.2022	1271.4319	1279.4467	1317.5847	1344.0763	1421.2867	1427.6493	1463.7	2348.0928	3056.7342	3104.3421	3145.0111	3166.0313	3170.7373	3492.6085
N#CC12NC1CC1OC21	N#C[C@]12N[C@H]1C[C@H]1O[C@@H]21	
InChI=1S/C6H6N2O/c7-2-6-4(8-6)1-3-5(6)9-3/h3-5,8H,1H2	InChI=1S/C6H6N2O/c7-2-6-4(8-6)1-3-5(6)9-3/h3-5,8H,1H2/t3-,4+,5-,6+/m1/s1
