15
gdb 69188	2.09815	1.72469	1.17594	4.3876	70.49	-0.2716	-0.0364	0.2352	1058.6197	0.111749	-416.803768	-416.79561	-416.794666	-416.836682	29.829	
C	 6.3388*^-6	 1.5432455917	 0.0301485907	-0.493541
C	-0.0435468788	 0.0479283632	-0.0155580402	 0.336676
C	-0.8471780877	-0.8047044459	 0.8660241651	-0.290393
N	 0.6463467147	-0.8206989143	 1.0570245477	-0.204881
C	 1.1410919685	-1.6731455777	 0.0065112398	 0.416499
O	 1.8456569771	-2.6245282692	 0.0535826086	-0.272951
C	 0.5594629325	-0.7952487018	-1.1551412786	-0.362634
C	-0.327331018	-1.3930396108	-2.1340451134	 0.289432
N	-1.057157305	-1.8815242183	-2.8860896104	-0.321852
H	 0.9903098741	 1.9191235992	-0.2453071875	 0.138306
H	-0.7317825751	 1.9667856117	-0.6660710756	 0.147429
H	-0.2362434291	 1.9032040345	 1.0347201203	 0.146575
H	-1.3498080596	-0.3356506311	 1.7049174554	 0.151621
H	-1.3319844922	-1.7007158123	 0.4881585059	 0.158985
H	 1.38814447	-0.282406899	-1.6536616178	 0.160729
98.7251	121.1174	160.5792	189.7642	272.671	355.0353	389.1552	418.5473	536.2798	551.8136	621.6865	647.6321	698.7796	766.327	868.2087	923.8939	971.0523	1004.3035	1019.0228	1053.7552	1082.6207	1127.5132	1134.1056	1166.1468	1265.5449	1312.0138	1395.8809	1430.4376	1482.5813	1490.3798	1513.2849	1934.7758	2355.3139	3040.0319	3076.939	3105.9632	3124.862	3125.9622	3219.6385
CC12CN1C(=O)C2C#N	C[C@]12CN1C(=O)[C@H]2C#N	
InChI=1S/C6H6N2O/c1-6-3-8(6)5(9)4(6)2-7/h4H,3H2,1H3	InChI=1S/C6H6N2O/c1-6-3-8(6)5(9)4(6)2-7/h4H,3H2,1H3/t4-,6-,8?/m1/s1
