19
gdb 10697	2.44175	1.95579	1.38397	2.9488	71.64	-0.246	-0.0228	0.2232	981.4509	0.163988	-365.052393	-365.043584	-365.042639	-365.085441	32.622	
C	-0.1773204721	 1.523160382	 0.3858282069	-0.393109
C	-0.1262276052	 0.0499307823	-0.0582456659	-0.053032
C	 0.972365627	-0.7125233433	 0.6913415967	-0.418155
C	-1.5158458304	-0.5754144354	 0.0461968558	 0.214692
C	-1.7593526021	-1.9585588725	 0.5770182839	-0.2804
N	-2.1858650423	-0.7987927678	 1.3531388013	-0.34504
C	-2.5033774138	-0.1389856712	-0.9927560815	 0.158102
O	-2.2238890136	 0.4690845059	-1.9955974792	-0.274617
H	 0.7940036977	 2.0030031937	 0.2321348819	 0.114521
H	-0.9232075021	 2.0809657316	-0.1851313904	 0.137716
H	-0.426169225	 1.6100595172	 1.449990283	 0.108396
H	 0.1174096576	 0.0398854508	-1.1269317563	 0.103612
H	 0.7540254105	-0.8052724257	 1.7630943081	 0.106914
H	 1.1247950605	-1.7172682232	 0.2873700879	 0.121161
H	 1.9215563657	-0.1750866612	 0.6072457174	 0.122669
H	-2.5675693561	-2.5609438034	 0.1695982728	 0.124271
H	-0.891777171	-2.5245681505	 0.8989051758	 0.126516
H	-1.5211131071	-0.6154562044	 2.1017626935	 0.239285
H	-3.5478094381	-0.4420829551	-0.7579022017	 0.086498
76.0566	134.2393	195.6971	228.085	239.8887	258.5262	312.9608	350.6329	384.1853	447.3243	497.0688	596.8988	688.0547	801.4894	887.9165	896.4147	929.7826	960.8168	976.8913	980.0622	1047.6871	1056.98	1110.8135	1131.5997	1154.287	1191.202	1255.9494	1295.1716	1326.116	1346.1088	1395.1429	1402.9842	1416.2875	1429.0085	1485.988	1496.2638	1504.7699	1508.011	1519.5232	1821.1091	2893.9532	3022.9906	3033.4281	3046.9361	3090.087	3100.8243	3111.4852	3116.0507	3126.6173	3206.7362	3495.4794
CC(C)C1(CN1)C=O	CC(C)[C@]1(CN1)C=O	
InChI=1S/C6H11NO/c1-5(2)6(4-8)3-7-6/h4-5,7H,3H2,1-2H3	InChI=1S/C6H11NO/c1-5(2)6(4-8)3-7-6/h4-5,7H,3H2,1-2H3/t6-/m0/s1
