13
gdb 12959	2.7581	2.26005	1.69902	1.4855	55.48	-0.2487	0.0061	0.2547	783.7146	0.094145	-435.6832	-435.676038	-435.675094	-435.714319	27.019	
O	-0.0036364183	 1.3927715008	-0.0358173089	-0.419822
C	-0.106753774	 0.013702004	-0.0269612946	 0.051169
C	-0.5062716019	-0.7708970269	 1.1701103386	-0.035173
O	-1.4905787063	 0.0198453793	 1.8969778307	-0.293647
C	-2.4116919518	-0.126154464	 0.8419809674	 0.383913
N	-3.6197143832	 0.1824027967	 0.7723701856	-0.552661
C	-1.4208425352	-0.8021878877	-0.0545920446	 0.188848
O	-1.6732552999	-1.8210615899	-0.9338678741	-0.43393
H	-0.4309887052	 1.7157041026	 0.7682550103	 0.303015
H	 0.6483709858	-0.4547876599	-0.6536284569	 0.130378
H	 0.0193906325	-1.5388313747	 1.7216547177	 0.135709
H	-3.9535428193	 0.6168181612	 1.633914691	 0.236763
H	-1.8624712132	-1.4399518514	-1.7990698719	 0.305436
133.9302	215.1704	246.7041	265.8646	319.7282	388.9164	420.244	475.8459	646.9761	659.8912	715.689	753.3054	830.0091	863.8995	907.0753	938.3632	966.495	994.445	1021.9778	1109.487	1166.2686	1227.3667	1273.0248	1298.0613	1320.186	1412.2457	1487.7232	1841.9154	3158.0545	3211.3996	3485.4279	3773.0574	3796.3377
OC1C2OC(=N)C12O	O[C@H]1[C@H]2O[C]([NH])[C@@]12O	
InChI=1S/C4H5NO3/c5-3-4(7)1(6)2(4)8-3/h1-2,5-7H	InChI=1S/C4H5NO3/c5-3-4(7)1(6)2(4)8-3/h1-2,5-7H/t1-,2+,4+/m0/s1
