19
gdb 77994	2.2248	1.46413	1.05442	5.0361	81.92	-0.2595	0.0119	0.2714	1203.2591	0.158735	-382.042539	-382.033654	-382.03271	-382.075896	33.423	
C	-0.0599991355	 1.5721458588	-0.0100817708	-0.412439
C	-0.0014503315	 0.0492340815	-0.0171568972	 0.004787
C	 1.0866087902	-0.552804163	-0.963466804	-0.32025
C	 1.8219237816	-1.1251685863	 0.2702931461	 0.1987
C	 3.2458487325	-1.1871680998	 0.416833808	 0.224969
N	 4.3995487738	-1.2171591973	 0.4982780455	-0.350358
C	 0.7547054532	-0.5461323042	 1.1926625591	-0.098746
N	 0.9867259718	-1.9623031381	 1.10923695	-0.117826
C	 0.0308187377	-2.9126663808	 0.5574149988	-0.328931
H	 0.93390637	 2.0054205877	 0.1476971969	 0.126574
H	-0.4466014802	 1.9541684813	-0.960158001	 0.12432
H	-0.7137919278	 1.9356425699	 0.7899154308	 0.122644
H	-1.0068149766	-0.3620372211	-0.153334185	 0.082557
H	 0.7716874329	-1.2857025732	-1.7107582294	 0.112174
H	 1.6716079482	 0.2251886634	-1.4576276888	 0.128699
H	 0.8888945784	-0.0567043908	 2.1526172795	 0.114283
H	-0.5268805828	-2.5610560423	-0.3204081429	 0.113707
H	 0.5695664867	-3.8232184915	 0.2817845878	 0.139837
H	-0.6879340226	-3.1664754642	 1.3417562966	 0.135298
99.139	150.818	167.9384	190.5808	236.4701	260.4215	298.7388	363.9954	437.1975	509.7472	545.7115	578.4446	586.3781	742.3749	748.2474	857.4848	902.1696	914.1942	963.2699	989.5841	1038.3158	1074.7851	1089.2989	1113.05	1150.7781	1172.7317	1189.612	1215.3427	1234.3012	1260.6286	1276.3744	1360.7471	1401.532	1415.0914	1451.1972	1478.8806	1493.9294	1497.7621	1498.335	1503.7986	2351.3944	3016.3826	3030.1625	3050.7565	3067.1098	3089.2393	3098.8085	3104.4906	3119.9109	3125.0975	3163.9185
CC1CC2(C#N)C1N2C	C[C@H]1C[C@@]2(C#N)[C@@H]1N2C	
InChI=1S/C7H10N2/c1-5-3-7(4-8)6(5)9(7)2/h5-6H,3H2,1-2H3	InChI=1S/C7H10N2/c1-5-3-7(4-8)6(5)9(7)2/h5-6H,3H2,1-2H3/t5-,6+,7+,9?/m0/s1
