16
gdb 10550	2.98843	1.53423	1.1329	2.5237	68.	-0.2591	0.0253	0.2845	1072.2386	0.12704	-383.662026	-383.653271	-383.652327	-383.695707	30.869	
C	 0.167276241	 1.3814082783	 0.0645974599	-0.223331
O	 0.2376581854	-0.0246485635	 0.0882505605	-0.225764
C	 0.5211776046	-0.5776038497	-1.1711434607	-0.126126
C	 0.5362300689	-2.0865635009	-1.0527124561	 0.198523
C	 1.4201173779	-2.8618577738	-1.9488013092	-0.214347
O	 1.7763248128	-2.6521480633	-0.5896537147	-0.254853
C	-0.6659217133	-2.7008092745	-0.5411358714	 0.309492
C	-1.6790271088	-3.2048757655	-0.1378365257	-0.439802
H	 1.1214366477	 1.833086275	-0.2497432803	 0.106258
H	-0.6228030881	 1.7389500369	-0.6148834129	 0.105072
H	-0.0624405898	 1.7117521907	 1.0799386764	 0.133131
H	-0.2401483204	-0.2777930199	-1.9122238658	 0.095103
H	 1.5047706897	-0.2451583781	-1.5404544582	 0.094554
H	 1.1349730154	-3.8777654273	-2.2142768947	 0.126248
H	 2.0262080437	-2.333543258	-2.6845860795	 0.115744
H	-2.5693183866	-3.6498717663	 0.2327870824	 0.200101
70.2025	93.3329	134.3227	191.2362	225.6095	238.5831	345.6949	381.0898	418.3778	553.4019	571.6231	620.1658	667.5401	740.475	831.4354	918.1926	960.9969	1015.7368	1031.9742	1134.1134	1160.2634	1170.4984	1184.5872	1228.3338	1244.8033	1287.3388	1358.0916	1427.8616	1477.6495	1486.1395	1494.5757	1517.6649	1521.4081	2243.4812	2952.6617	2971.6282	2995.2647	3015.0795	3082.501	3121.1327	3176.9085	3502.3544
COCC1(CO1)C#C	COC[C@]1(CO1)C#C	
InChI=1S/C6H8O2/c1-3-6(4-7-2)5-8-6/h1H,4-5H2,2H3	InChI=1S/C6H8O2/c1-3-6(4-7-2)5-8-6/h1H,4-5H2,2H3/t6-/m0/s1
