18
gdb 30915	2.08421	1.68649	0.99365	1.9929	76.68	-0.188	0.0326	0.2206	1180.5032	0.147526	-439.109116	-439.099727	-439.098782	-439.143157	34.292	
C	-0.1527957499	 1.4153260857	 0.1045313723	-0.349868
N	-0.0711950196	-0.0315288146	 0.0698737509	-0.035144
C	-0.0648500975	-0.8018836007	-1.053748625	-0.086351
C	 0.0663726896	-2.1271906844	-0.6890452051	-0.308577
C	 0.1399369387	-2.1441683996	 0.7266835463	 0.241606
O	 0.2606426664	-3.225606835	 1.5547153456	-0.452046
C	 0.0609553071	-0.8430584695	 1.1890923987	 0.166631
C	 0.0681521087	-0.3239390321	 2.5818317453	-0.195186
O	-1.1625556055	 0.3073599192	 2.9693419034	-0.416747
H	 0.8328592252	 1.8726358314	 0.2545095905	 0.132155
H	-0.5595220722	 1.773139546	-0.8435059544	 0.132827
H	-0.8108982625	 1.7227771356	 0.9199034819	 0.16418
H	-0.1600660751	-0.3516433079	-2.029525877	 0.115758
H	 0.091130851	-2.9755965354	-1.3564976925	 0.089384
H	 0.335727905	-4.0160814488	 1.0133369957	 0.296202
H	 0.3170430857	-1.1561942642	 3.2529601007	 0.118142
H	 0.8283575919	 0.4522592493	 2.7291926506	 0.108473
H	-1.865946007	-0.322585905	 2.7772439219	 0.278561
101.2687	121.8618	138.8548	174.1101	196.8057	248.5519	288.2236	316.0009	366.5719	418.7153	519.178	584.3327	625.2707	676.8144	704.8703	743.9336	761.7566	769.9459	932.0138	1004.1318	1045.8276	1083.7589	1107.382	1155.3472	1162.2725	1214.9988	1265.049	1296.3603	1359.5352	1381.9249	1417.17	1423.627	1453.7109	1484.6429	1489.7122	1500.7886	1528.9837	1543.2971	1650.3029	3020.7465	3026.3944	3058.7528	3102.2378	3142.8729	3235.8462	3259.8473	3803.1986	3848.6376
CN1C=CC(O)=C1CO	Cn1ccc(O)c1CO	
InChI=1S/C6H9NO2/c1-7-3-2-6(9)5(7)4-8/h2-3,8-9H,4H2,1H3	InChI=1S/C6H9NO2/c1-7-3-2-6(9)5(7)4-8/h2-3,8-9H,4H2,1H3
