18
gdb 8290	6.69844	0.88086	0.83184	3.1034	69.36	-0.2454	-0.0207	0.2247	1341.1298	0.152215	-384.935004	-384.926417	-384.925473	-384.969144	30.68	
O	-0.2069306889	 1.4756469457	-0.0390376752	-0.429642
C	-0.0148419831	 0.0823660425	-0.0001033433	 0.147432
C	 0.3304552777	-0.5971348176	 1.3557074459	-0.285403
C	-0.6946636776	-1.709535008	 0.9976667823	 0.026836
C	-1.5641882099	-2.2838765961	 2.1198972936	-0.295108
C	-2.6147416401	-3.2343840896	 1.5917179158	 0.160325
O	-2.725303795	-4.3896980102	 1.9141923223	-0.239666
C	-1.3242272296	-0.7289355155	-0.0362956742	-0.252629
H	 0.6553535685	 1.9031538126	-0.0489886342	 0.283337
H	 0.6755102817	-0.2480670649	-0.7895215105	 0.069636
H	 1.3649121186	-0.8903214154	 1.5512159052	 0.096935
H	-0.0339444941	 0.0242684414	 2.1800568133	 0.106889
H	-0.1889254648	-2.5300307901	 0.4771318039	 0.085746
H	-0.9576724733	-2.8146689975	 2.8604768112	 0.11981
H	-2.0814607287	-1.4562916825	 2.6268963342	 0.113332
H	-3.3070840268	-2.7846354966	 0.8419440816	 0.075112
H	-2.1267020075	-0.1366738449	 0.4155695255	 0.112637
H	-1.6648179271	-1.1201752135	-0.9970876773	 0.104421
48.7861	67.1127	103.255	193.3738	265.3634	328.8615	362.8554	416.1683	455.4989	495.8187	599.0626	774.9337	811.046	836.8466	913.5829	943.2772	968.4808	995.9289	1027.7357	1063.6665	1107.9142	1117.4276	1158.988	1187.0863	1219.6093	1248.9613	1255.1325	1268.8989	1285.2885	1301.2098	1332.7378	1373.8634	1431.086	1432.7462	1462.8874	1470.6776	1501.4115	1832.8268	2858.4483	2994.8884	3009.8057	3046.0732	3050.4967	3057.9052	3090.7428	3111.6458	3118.1252	3816.0268
OC1CC(CC=O)C1	O[C@H]1C[C@@H](CC=O)C1	
InChI=1S/C6H10O2/c7-2-1-5-3-6(8)4-5/h2,5-6,8H,1,3-4H2	InChI=1S/C6H10O2/c7-2-1-5-3-6(8)4-5/h2,5-6,8H,1,3-4H2/t5-,6+
