17
gdb 43935	3.61226	1.51415	1.32101	4.4133	71.78	-0.272	0.0041	0.2761	975.603	0.13845	-421.802256	-421.795839	-421.794895	-421.832916	26.759	
O	-0.1514620019	 0.1185427201	-0.6607759293	-0.304607
C	-0.0545403951	 1.1792088806	-0.1429369096	 0.362944
O	-1.1043624012	 1.9930749856	 0.3261641517	-0.322012
C	-0.1348226273	 2.8076986504	 1.0421005463	 0.442198
C	 0.3124278674	 4.2608227782	 1.2903676652	-0.313449
C	 1.4003447733	 3.4547722516	 2.1380221333	-0.031029
C	 0.2415731997	 2.482518775	 2.4941960261	-0.272527
C	 2.2029763596	 2.5474083428	 1.1368328781	-0.278249
C	 1.000015752	 2.2519438634	 0.2065549307	-0.167926
H	 0.6351363579	 4.8508954104	 0.4303125495	 0.107763
H	-0.3238699447	 4.8488539888	 1.9542137749	 0.1153
H	 1.9592186445	 3.9744382897	 2.914558745	 0.084905
H	-0.4670264458	 2.894030398	 3.2152144122	 0.109666
H	 0.4955849946	 1.4489281418	 2.7436625197	 0.10676
H	 3.0093605703	 3.0621436617	 0.6100066496	 0.110279
H	 2.6277447162	 1.6840354523	 1.6538521284	 0.12484
H	 1.0943833607	 2.8269644395	-0.7220428418	 0.125145
133.9723	262.9461	364.0296	410.7945	471.6344	493.3963	553.7098	638.6956	677.4781	761.4372	770.6846	794.3317	838.7665	877.4375	901.9979	925.2673	976.8845	993.8054	1019.733	1033.3312	1074.1575	1082.12	1101.5392	1130.6464	1170.7633	1177.3971	1209.8936	1216.1284	1258.7089	1266.0449	1283.338	1313.3963	1353.9225	1487.3489	1499.1732	1527.5925	1943.8964	3040.6049	3063.6358	3072.0391	3074.5905	3120.0645	3130.3839	3134.5388	3140.2949
O=C1OC23CC(C2)CC13	O=C1O[C@@]23C[C@@H](C2)C[C@@H]13	
InChI=1S/C7H8O2/c8-6-5-1-4-2-7(5,3-4)9-6/h4-5H,1-3H2	InChI=1S/C7H8O2/c8-6-5-1-4-2-7(5,3-4)9-6/h4-5H,1-3H2/t4-,5-,7-/m0/s1
