17
gdb 78568	2.32931	1.79436	1.26511	2.3034	72.14	-0.2352	0.0045	0.2397	1022.1271	0.135068	-421.790111	-421.782202	-421.781258	-421.822228	30.94	
C	 0.110925805	 1.6034598027	 0.0109391851	-0.421572
C	 0.0782928983	 0.082284327	 0.0229713544	 0.019079
C	 0.7627623278	-0.7207834046	-1.0966467558	-0.131513
C	 2.2811319322	-0.7890929421	-0.7621852152	-0.278706
C	 2.4379638393	-0.2142019361	 0.6076313242	 0.433298
O	 3.3661477628	 0.2175179394	 1.2340338474	-0.347421
C	 1.0200284398	-0.6918619928	 0.9996427685	-0.274389
C	 1.2321619783	-1.7667977479	-0.1622958822	 0.38296
O	 1.1446688089	-3.1246845117	-0.2216230808	-0.447773
H	 1.1291483589	 1.9837434975	-0.1198328862	 0.132252
H	-0.5031658192	 1.9990105085	-0.8049512658	 0.118187
H	-0.2790290325	 2.0099538912	 0.9499922879	 0.123354
H	-0.9466962028	-0.2849772806	 0.140210357	 0.08632
H	 0.4608015066	-0.8385864598	-2.1303403479	 0.10325
H	 3.0200544729	-0.9847869934	-1.5269678598	 0.111684
H	 0.7593958911	-0.8764376669	 2.0385033256	 0.089776
H	 1.8892482527	-3.5103105907	 0.2553517637	 0.301214
119.5291	167.5415	224.7033	239.4414	287.6647	359.3038	403.9006	445.3357	545.4721	592.3401	642.5206	657.7846	745.2655	771.2993	833.9795	859.54	885.9537	945.3641	961.2342	1005.3488	1028.8633	1064.7647	1077.7981	1103.4467	1138.8476	1142.3356	1163.3556	1198.1864	1269.347	1284.8834	1312.3686	1373.157	1414.7728	1493.312	1496.7391	1504.6933	1873.6039	3033.5901	3053.1755	3100.7537	3107.1846	3161.1492	3192.1566	3222.19	3783.8166
CC1C2C3C(=O)C1C23O	C[C@H]1[C@H]2[C@H]3C(=O)[C@@H]1[C@@]23O	
InChI=1S/C7H8O2/c1-2-3-5-6(8)4(2)7(3,5)9/h2-5,9H,1H3	InChI=1S/C7H8O2/c1-2-3-5-6(8)4(2)7(3,5)9/h2-5,9H,1H3/t2-,3-,4+,5-,7-/m0/s1
