22
gdb 101126	2.99227	1.06509	0.97722	2.1168	81.79	-0.233	0.0587	0.2917	1351.1138	0.193596	-404.303234	-404.293617	-404.292673	-404.338159	36.063	
C	-0.0527831418	 1.5391862401	 0.0868480051	-0.384428
C	 0.1128189214	 0.0177311342	 0.0816165372	-0.19846
C	 0.6728895656	-0.5151587777	-1.2425959203	 0.005881
O	 1.962765955	 0.0286767745	-1.5342336481	-0.428068
C	 0.7044365332	-2.0233826807	-1.3194339841	 0.363629
C	 0.482255807	-2.7583517605	-2.5793783261	-0.287691
N	-0.5567033605	-2.8523176122	-1.532388723	-0.172691
C	-0.0135168302	-3.8468691654	-0.539644088	-0.143908
C	 1.239094324	-2.981290977	-0.2452319256	-0.332828
H	 0.8965311578	 2.0306917014	-0.1421757892	 0.126416
H	-0.7819676707	 1.8570431536	-0.6663905085	 0.117132
H	-0.4012625784	 1.8965932751	 1.0604016888	 0.10836
H	 0.7818044096	-0.2825571369	 0.900910225	 0.083029
H	-0.8489129206	-0.4745432396	 0.2687036445	 0.11424
H	 0.0305269464	-0.1593468113	-2.0577603941	 0.091361
H	 2.557181101	-0.2371069688	-0.8235893152	 0.278701
H	 0.1640231226	-2.1847732075	-3.4444628505	 0.12152
H	 1.0732603807	-3.6425230514	-2.8129493412	 0.105607
H	-0.6945030185	-3.9396220698	 0.308449475	 0.111754
H	 0.1562858887	-4.8398867431	-0.9690875355	 0.105189
H	 2.2238283831	-3.4195857236	-0.4325810895	 0.103268
H	 1.2276490745	-2.5635249832	 0.7630749332	 0.111987
38.8817	97.1724	132.7916	199.5611	225.3501	264.5993	281.0895	299.4182	346.324	476.7781	480.1447	505.0687	704.414	759.2673	779.4664	787.3354	829.9288	859.9238	920.3795	941.078	976.3704	982.199	1003.0556	1055.1548	1081.6831	1100.32	1100.8877	1114.4922	1129.8188	1195.0277	1221.4285	1232.5041	1251.476	1265.7797	1297.5078	1330.0124	1340.9327	1362.8293	1397.7189	1410.4109	1423.2234	1481.9763	1488.885	1494.3287	1498.0693	1509.5633	1516.8995	3006.0609	3038.0376	3039.7713	3045.2343	3056.3309	3063.097	3096.2693	3103.2136	3104.0604	3121.1139	3122.6646	3193.4494	3798.0332
CCC(O)C12CN1CC2	CC[C@@H](O)[C@]12CN1CC2	
InChI=1S/C7H13NO/c1-2-6(9)7-3-4-8(7)5-7/h6,9H,2-5H2,1H3	InChI=1S/C7H13NO/c1-2-6(9)7-3-4-8(7)5-7/h6,9H,2-5H2,1H3/t6-,7+,8?/m1/s1
