18
gdb 96930	2.45608	1.39182	1.1221	1.8643	75.72	-0.2416	0.0182	0.2598	1171.6844	0.145448	-439.048691	-439.039394	-439.03845	-439.082785	33.766	
C	-0.0101200779	 1.3880056015	 0.161472937	-0.342757
N	 0.1344167624	-0.0540168357	 0.0268971526	-0.341131
C	 0.5516653348	-0.7278202657	 0.9895498482	 0.441075
O	 0.9705531127	-0.3113735003	 2.2766554767	-0.313121
C	 1.4445897674	-1.6570526293	 2.5493646643	-0.02518
C	 0.2636394081	-2.5517508414	 2.5857200355	 0.085167
O	-0.9727752813	-2.1478328427	 3.06023253	-0.425975
C	 0.8721907013	-2.1656928122	 1.2177681522	 0.087894
C	 1.3411706642	-3.141484685	 0.18076812	-0.497103
H	 0.5300855571	 1.8772192353	-0.6558002283	 0.130575
H	-1.0672139143	 1.6530501351	 0.0485042964	 0.132014
H	 0.3535565246	 1.7872210428	 1.1153592471	 0.127443
H	 2.4144051586	-1.7489795858	 3.0222878568	 0.121347
H	 0.4632397868	-3.5899838556	 2.838871892	 0.119503
H	-0.9419845429	-1.1854524561	 3.1417277959	 0.299729
H	 0.526891847	-3.386201113	-0.5086290223	 0.146046
H	 2.1668600649	-2.7309880803	-0.4089722525	 0.132736
H	 1.6807590165	-4.0731048115	 0.6432279485	 0.121737
94.3922	98.2784	153.8322	184.4877	209.479	230.4426	255.0862	288.066	397.5768	471.3785	503.9778	619.8801	659.7939	733.1578	750.4404	813.4266	863.3083	912.8979	948.7538	1008.0955	1026.7745	1039.9419	1073.0028	1106.4431	1134.1698	1154.0915	1172.9792	1239.4189	1287.7081	1297.0263	1391.8731	1421.5373	1438.8995	1469.1624	1482.6226	1492.3473	1497.3466	1498.8236	1857.3015	3019.0562	3037.2666	3085.7444	3090.9039	3103.7626	3109.8373	3154.3898	3195.3044	3769.7262
CN=C1OC2C(O)C12C	CN=C1O[C@H]2[C@@H](O)[C@@]12C	
InChI=1S/C6H9NO2/c1-6-3(8)4(6)9-5(6)7-2/h3-4,8H,1-2H3	InChI=1S/C6H9NO2/c1-6-3(8)4(6)9-5(6)7-2/h3-4,8H,1-2H3/t3-,4+,6-/m1/s1
