14
gdb 133031	2.56882	1.6578	1.01391	3.3991	71.03	-0.2312	-0.0629	0.1684	1090.0215	0.100108	-477.985836	-477.97797	-477.977026	-478.019134	28.029	
C	 0.0945284907	 1.4283726343	 0.1153975421	-0.326436
N	 0.1492073015	-0.0235750526	 0.1053341696	-0.298257
C	 0.4376815552	-0.6120603822	-0.9718676751	 0.290811
O	 0.7056980405	 0.0704566036	-2.1497414797	-0.238524
C	 1.0108504276	-0.6230835338	-3.2798010207	 0.041757
C	 1.0632984951	-1.9603819465	-3.2982045478	-0.094708
N	 0.8078466702	-2.7187207979	-2.1584901019	-0.297784
C	 0.5226985962	-2.074989583	-1.1020875335	 0.286761
F	 0.2712778002	-2.7371179833	 0.0076687889	-0.029888
H	 1.0581621969	 1.8726199944	-0.167243068	 0.12922
H	-0.6538856778	 1.8110253332	-0.5912081061	 0.129233
H	-0.1662860581	 1.7683987393	 1.119198244	 0.130195
H	 1.1964215808	 0.0294755769	-4.12209058	 0.145595
H	 1.306880181	-2.5019795825	-4.2022025818	 0.132025
50.6171	104.3442	192.5291	203.7002	269.3102	338.013	514.4928	524.6739	546.3592	572.5029	594.0167	751.4369	768.7803	810.3985	906.1107	907.3062	1031.9511	1054.799	1093.4001	1103.8225	1174.3355	1221.7619	1275.6412	1371.7352	1411.2526	1435.0738	1483.3014	1497.6258	1640.7255	1696.9308	1750.905	3005.6154	3056.7442	3120.9912	3219.3966	3241.6402
CN=C1OC=CN=C1F	C[N]C1=C([N]C=CO1)F	
InChI=1S/C5H5FN2O/c1-7-5-4(6)8-2-3-9-5/h2-3H,1H3	InChI=1S/C5H5FN2O/c1-7-5-4(6)8-2-3-9-5/h2-3H,1H3
