15
gdb 14497	3.69995	2.05894	1.56341	2.8719	66.03	-0.2536	0.0173	0.271	810.3537	0.120792	-358.772998	-358.766098	-358.765154	-358.8038	26.676	
N	 0.0055375613	 1.4977236232	-0.0547907384	-0.566739
C	-0.0044357255	 0.047577015	-0.011961825	 0.190441
C	 0.950250506	-0.5545418927	-0.9585283926	 0.202272
N	 1.7214768052	-0.9513799813	-1.7252479721	-0.342296
C	-0.0913399278	-0.6668128934	 1.3865417438	-0.050719
C	-1.5354893732	-0.1266660251	 1.5318435167	-0.216445
C	-1.3859215618	-0.6959720017	 0.0993825514	-0.050707
N	-0.7017856842	-1.8896213161	 0.7332747668	-0.326852
H	 0.93452697	 1.850347141	 0.158459511	 0.245803
H	-0.2201409568	 1.8243780683	-0.9903141626	 0.245806
H	 0.7010254542	-0.7391797171	 2.1323553571	 0.097216
H	-2.1717165378	-0.7212717265	 2.1852105593	 0.117465
H	-1.659992108	 0.9474373862	 1.6327230409	 0.128637
H	-2.1342403263	-0.8030392312	-0.6866648608	 0.097219
H	-0.0377585455	-2.3103391287	 0.0749517845	 0.228901
152.4146	173.8906	222.3602	333.7065	338.6143	496.9411	515.13	547.6956	636.7851	661.1112	775.2317	812.3103	860.7925	889.9462	901.0174	921.0366	1017.4403	1058.4603	1077.2944	1087.4984	1146.6147	1172.2007	1181.0682	1211.0461	1215.92	1269.6861	1277.9339	1299.9036	1309.9326	1479.1955	1656.1024	2330.7404	3107.8708	3112.1567	3122.2642	3203.1898	3390.1648	3489.8225	3565.9777
NC1(C#N)C2CC1N2	N[C@@]1(C#N)[C@H]2C[C@@H]1N2	
InChI=1S/C5H7N3/c6-2-5(7)3-1-4(5)8-3/h3-4,8H,1,7H2	InChI=1S/C5H7N3/c6-2-5(7)3-1-4(5)8-3/h3-4,8H,1,7H2/t3-,4+,5+
