18
gdb 41107	3.01456	1.99703	1.81445	0.9285	79.03	-0.2032	-0.0122	0.1909	855.5269	0.149812	-364.733418	-364.727194	-364.72625	-364.763317	27.796	
C	 0.0030677086	 1.4383480404	 0.3443546528	-0.181979
C	 1.5107678158	 1.4440614955	-0.1043278448	-0.325624
C	 1.0720987508	 0.280388981	-1.0225248388	 0.236803
C	 0.2938639929	 0.7908953702	-2.2863679975	-0.141759
C	-0.8754172601	 0.1594735635	-2.2761962181	-0.057915
C	-0.837435565	-0.7700694447	-1.0379245708	-0.154818
C	 0.2908266959	-1.8207239519	-1.3390991816	-0.051978
C	 1.4632722014	-1.1786869497	-1.3282610594	-0.159485
N	-0.0255268433	 0.0104677634	-0.0751797317	-0.051994
H	-0.2196760295	 1.5827700376	 1.4038366193	 0.100889
H	-0.5950211625	 2.1276682796	-0.2655967254	 0.098501
H	 1.8854597954	 2.3493957066	-0.585123722	 0.097802
H	 2.1803725259	 1.1323280404	 0.6988248843	 0.116703
H	 0.6950509985	 1.4739942589	-3.0232719529	 0.096803
H	-1.6796070946	 0.2003794079	-2.9984888387	 0.101709
H	-1.7833006785	-1.1731889979	-0.6770196985	 0.066858
H	 0.095965506	-2.859097677	-1.5680851024	 0.103435
H	 2.449327972	-1.5645476136	-1.5427819137	 0.10605
285.518	296.4345	403.2644	437.5589	465.9004	537.5395	628.4894	632.0479	699.2158	713.9336	727.5079	763.6367	794.762	833.6994	847.7625	875.0275	890.8799	895.3209	920.3873	944.0531	953.5946	1061.4403	1073.7172	1087.9888	1103.5727	1142.4768	1166.0407	1194.8061	1208.5599	1218.6731	1243.0024	1264.9311	1277.6547	1291.0646	1309.7456	1475.5712	1496.8811	1587.4418	1643.2651	3017.7917	3078.2698	3098.8073	3121.7443	3140.8309	3207.141	3220.5056	3234.9091	3246.5631
C1CC23C=CC(C=C2)N13	C1C[C@@]23C=C[C@@H](C=C2)N13	
InChI=1S/C8H9N/c1-3-8-4-2-7(1)9(8)6-5-8/h1-4,7H,5-6H2	InChI=1S/C8H9N/c1-3-8-4-2-7(1)9(8)6-5-8/h1-4,7H,5-6H2/t7-,8+
