15
gdb 105577	2.04246	1.56741	1.33881	3.1679	67.4	-0.259	-0.0194	0.2396	1046.8525	0.109841	-457.728622	-457.719692	-457.718748	-457.762481	31.596	
C	-0.0532430253	 1.4497919274	-0.0002360345	-0.265497
O	 0.0852740274	 0.0300879731	 0.0370615741	-0.270466
C	 0.706077573	-0.5289135173	-1.0904289659	 0.054849
C	 0.49863058	-2.0609927158	-1.1300218443	-0.117027
O	-0.3295885571	-1.9390754513	-2.3303892284	-0.234685
C	-0.2140010459	-0.5788303633	-2.3584083401	 0.418168
O	-0.7203768691	 0.1921765423	-3.1048233674	-0.320653
C	 2.0602055816	-0.0525955847	-1.3351083514	 0.297814
C	 3.1763652499	 0.3372995425	-1.5502756638	-0.469583
H	 0.925932498	 1.942280361	-0.0290055113	 0.128719
H	-0.6442988447	 1.7688400329	-0.8658003433	 0.145232
H	-0.571936884	 1.7240399638	 0.9196809561	 0.136549
H	 1.3847012229	-2.6643204414	-1.3247437924	 0.140124
H	-0.0817855941	-2.4373129381	-0.2873455921	 0.143623
H	 4.1621221574	 0.6845361791	-1.7433022951	 0.212832
103.5389	114.6995	120.2407	165.5895	173.1102	250.7494	307.6789	373.6561	421.0903	522.1183	600.7869	644.6732	678.0431	687.0282	749.3747	786.456	898.9049	953.4189	1009.3512	1063.0023	1118.4093	1151.5464	1186.6927	1188.5348	1197.5743	1244.7584	1345.2429	1477.2772	1487.5695	1501.3161	1511.8812	1936.5222	2233.1623	3023.48	3091.8267	3092.5275	3140.422	3167.4911	3495.0161
COC1(COC1=O)C#C	CO[C@]1(COC1=O)C#C	
InChI=1S/C6H6O3/c1-3-6(8-2)4-9-5(6)7/h1H,4H2,2H3	InChI=1S/C6H6O3/c1-3-6(8-2)4-9-5(6)7/h1H,4H2,2H3/t6-/m0/s1
