19
gdb 13991	5.3541	1.08677	1.0151	1.5381	71.49	-0.245	0.0804	0.3254	1191.9652	0.166124	-365.016874	-365.008708	-365.007764	-365.049887	30.385	
O	 0.1233723356	 1.4558683148	 0.1297713454	-0.418937
C	 0.04776334	 0.0399362495	 0.1774840302	-0.057584
C	-1.3337604832	-0.4940744267	-0.2201068955	-0.314998
C	-1.3920167811	-1.9942369534	-0.2171072269	 0.359479
C	-0.7602028142	-2.9373740043	-1.2620813753	-0.292963
C	-1.9523078836	-3.9283878877	-1.0480524672	-0.235211
C	-2.5288965929	-2.9591272102	-0.0074468115	-0.095186
N	-1.5658406651	-2.6920368053	 1.0578141921	-0.357974
H	-0.488368146	 1.802393725	 0.7872162826	 0.280982
H	 0.8068238626	-0.317973627	-0.5270633307	 0.109878
H	 0.3167253064	-0.3472698126	 1.1719951102	 0.09934
H	-2.0830737027	-0.1135054727	 0.4853827861	 0.097735
H	-1.5895559646	-0.105579609	-1.2132948042	 0.102858
H	-0.749765016	-2.5168709797	-2.2709735572	 0.108996
H	 0.2458432545	-3.3021879476	-1.0280936292	 0.095618
H	-2.5734899572	-4.0272766847	-1.9414389738	 0.108579
H	-1.7121479314	-4.9312670539	-0.6783604759	 0.09749
H	-3.5776767818	-2.7751656963	 0.1995804859	 0.091553
H	-0.9079316994	-3.4591036481	 1.1894791049	 0.220346
69.0474	102.456	125.5731	250.1254	302.4455	338.5116	354.3938	411.4987	476.869	716.2524	754.6743	780.014	788.6586	833.2738	923.8995	939.2632	956.4133	986.9899	1015.3147	1045.8633	1069.0385	1076.2504	1108.3128	1121.664	1164.1708	1190.442	1219.5722	1229.7527	1250.0776	1278.4634	1294.7542	1307.3512	1332.1385	1393.4676	1421.0791	1441.5573	1475.7504	1479.7411	1501.2971	1513.7481	2991.5952	3024.332	3038.4742	3047.1359	3057.6947	3079.7077	3093.3289	3110.8912	3170.042	3451.8871	3814.6864
OCCC12CCC1N2	OCC[C@]12CC[C@H]1N2	
InChI=1S/C6H11NO/c8-4-3-6-2-1-5(6)7-6/h5,7-8H,1-4H2	InChI=1S/C6H11NO/c8-4-3-6-2-1-5(6)7-6/h5,7-8H,1-4H2/t5-,6-/m1/s1
