17
gdb 85214	2.66404	1.29437	0.97855	1.7631	70.93	-0.2652	0.0078	0.2731	1196.8327	0.135565	-455.172402	-455.163451	-455.162507	-455.206917	31.886	
C	-0.3729120121	 1.2727521381	 0.3445957747	-0.406855
C	 0.1437568659	-0.1330876107	 0.1691106268	 0.133826
O	 1.2110227417	-0.2170840782	-0.8558880113	-0.266031
C	 2.1376078508	-0.6075641489	 0.0734227554	 0.39837
N	 3.3801062953	-0.7661753469	 0.0061957985	-0.550113
C	 1.1479538985	-0.7009838334	 1.2147610709	-0.091174
N	 1.5054832183	 0.0746329613	 2.3738587649	-0.283912
C	 0.7042741911	 0.106988354	 3.4721555866	 0.151134
O	-0.4004326542	-0.3925577033	 3.5173070875	-0.324366
H	 0.435829988	 1.9611925223	 0.6033688225	 0.122681
H	-0.8480042855	 1.6202543146	-0.5769504379	 0.133172
H	-1.1135317302	 1.2869695186	 1.1495324674	 0.152369
H	-0.6536986738	-0.8332258956	-0.0897124913	 0.104917
H	 3.7361080599	-0.572794064	-0.9313444239	 0.233989
H	 0.8971882484	-1.7265284759	 1.5006344686	 0.133724
H	 2.4483272056	 0.4303293352	 2.4239843476	 0.268737
H	 1.1658880923	 0.6525329429	 4.3173393532	 0.089532
45.1399	94.5342	132.4188	198.8142	224.1631	226.6791	290.8662	382.4072	461.0236	504.5512	554.3201	629.8499	740.3078	793.8908	819.5174	862.5277	876.8425	981.7354	1023.98	1033.1551	1039.6109	1065.7092	1122.2775	1152.4364	1205.7447	1237.8938	1247.953	1342.4515	1370.6021	1383.9814	1413.9607	1421.4192	1487.2324	1489.4962	1506.7299	1795.8557	1825.1724	2954.5132	3047.7351	3069.63	3090.184	3125.4648	3129.6191	3481.0163	3622.6535
CC1OC(=N)C1NC=O	C[C@H]1O[C]([NH])[C@H]1NC=O	
InChI=1S/C5H8N2O2/c1-3-4(7-2-8)5(6)9-3/h2-4,6H,1H3,(H,7,8)	InChI=1S/C5H8N2O2/c1-3-4(7-2-8)5(6)9-3/h2-4,6H,1H3,(H,7,8)/t3-,4+/m1/s1
