20
gdb 95623	2.07923	1.77529	1.16845	3.8779	74.82	-0.2349	-0.0183	0.2166	1111.7334	0.172029	-440.307721	-440.298987	-440.298043	-440.340976	33.628	
C	-0.0322838834	 1.5738454583	-0.000971875	-0.402657
C	 0.0893093825	 0.0520350551	 0.0087449809	-0.106242
C	 0.7631718149	-0.5091702607	-1.2718083395	 0.138598
O	 2.0379070399	 0.0689967962	-1.4861531786	-0.436681
C	 0.8952635764	-2.0329606637	-1.1752820127	-0.201884
N	 1.7833088663	-2.3056812684	-0.046219713	-0.314462
C	 1.1652546641	-1.9583431175	 1.2352309535	-0.261541
C	 0.7984943389	-0.4708069685	 1.2596575648	 0.397164
O	 1.0262636775	 0.2145615452	 2.2272367636	-0.301434
H	 0.9524208095	 2.0261157982	-0.1368518232	 0.141375
H	-0.6756007853	 1.9011733292	-0.8237572111	 0.10492
H	-0.4501554284	 1.9373418235	 0.9395774655	 0.12817
H	-0.9160886475	-0.3999398041	 0.0486240105	 0.091772
H	 0.1467691526	-0.2390444682	-2.1364865329	 0.08196
H	 2.6498280163	-0.4604230306	-0.9531780017	 0.284368
H	-0.1013304422	-2.4989613782	-1.0696390698	 0.083675
H	 1.3584917113	-2.416943453	-2.0886307909	 0.112223
H	 2.0921104367	-3.2701731536	-0.0425809097	 0.23324
H	 0.2356810522	-2.5300840079	 1.4300466507	 0.099406
H	 1.8591612279	-2.1504766714	 2.0561077087	 0.128033
75.4674	131.7603	183.5435	227.3091	274.5183	291.4585	379.7869	388.6388	448.9674	507.6887	530.5579	561.5618	618.7527	693.6214	749.3602	826.6196	893.6898	917.1946	938.5683	961.3746	1004.6933	1043.397	1072.6838	1112.8576	1138.0275	1154.9754	1173.4675	1230.7983	1244.518	1255.8621	1293.1562	1315.7676	1342.2999	1384.7786	1401.9468	1406.575	1436.1234	1476.5511	1477.8878	1486.8884	1495.9775	1500.349	1820.3277	2906.1485	2938.6376	2975.8517	3048.2112	3051.9542	3086.2838	3109.3624	3122.7936	3143.322	3546.26	3712.6442
CC1C(O)CNCC1=O	C[C@H]1[C@@H](O)CNCC1=O	
InChI=1S/C6H11NO2/c1-4-5(8)2-7-3-6(4)9/h4-5,7-8H,2-3H2,1H3	InChI=1S/C6H11NO2/c1-4-5(8)2-7-3-6(4)9/h4-5,7-8H,2-3H2,1H3/t4-,5-/m0/s1
