17
gdb 88525	2.31329	1.42558	1.19841	3.3796	68.83	-0.2411	-0.0425	0.1986	1100.5962	0.133546	-458.923891	-458.915231	-458.914287	-458.957622	32.212	
O	 0.0537489341	 1.2577954437	 0.9363437227	-0.428002
C	-0.0011767126	 0.0707722952	 0.212799222	 0.15043
C	-0.6049164922	-1.1833162548	 0.781876469	-0.368292
C	-1.2972329103	-0.4638166772	-0.3641982755	-0.151329
C	-2.5667431781	 0.289295797	-0.1361912087	 0.279001
C	-3.6326596934	-0.1924670019	 0.7760259699	-0.216424
O	-2.7705360154	 0.8669331264	 1.1727909004	-0.280357
C	-3.0282682233	 1.1977273347	-1.2416396962	 0.136643
O	-2.6320888073	 1.1348196764	-2.3750189964	-0.248242
H	-0.7432786042	 1.3195713667	 1.4765624653	 0.300621
H	 0.8865156662	-0.0242013354	-0.4032245462	 0.114802
H	-0.1420296681	-2.1442797156	 0.5860036744	 0.119143
H	-1.0555486393	-1.0914490821	 1.7657485491	 0.119838
H	-1.2475207373	-0.9059724091	-1.3534680365	 0.113281
H	-4.6700444287	 0.0967732628	 0.6162243978	 0.131108
H	-3.4741769247	-1.1470209905	 1.2728165898	 0.136965
H	-3.7897829454	 1.9384274637	-0.9108353709	 0.090812
47.9724	133.9944	162.9823	186.7105	263.5598	334.6076	376.2563	397.9699	427.7013	462.7312	566.7333	628.4537	709.6621	790.8991	821.369	841.708	883.0155	909.3793	992.7566	1027.7434	1042.8809	1066.8109	1083.7634	1123.283	1132.2821	1136.4513	1166.7899	1224.6374	1240.1625	1331.0379	1342.5791	1397.9388	1428.3363	1447.7252	1484.7682	1514.4291	1834.0636	2894.5373	3094.0755	3126.4754	3169.2147	3176.5751	3189.5813	3215.9232	3789.3703
OC1CC1C1(CO1)C=O	O[C@H]1C[C@H]1[C@]1(CO1)C=O	
InChI=1S/C6H8O3/c7-2-6(3-9-6)4-1-5(4)8/h2,4-5,8H,1,3H2	InChI=1S/C6H8O3/c7-2-6(3-9-6)4-1-5(4)8/h2,4-5,8H,1,3H2/t4-,5+,6-/m1/s1
