18
gdb 62648	2.86246	1.74676	1.26251	2.2018	72.1	-0.2467	0.0557	0.3024	1007.2578	0.146368	-438.990153	-438.98218	-438.981236	-439.02189	32.311	
C	-0.1419696935	 1.5431907127	-0.0931042904	-0.481558
C	-0.0162250145	 0.0339259605	-0.0855910624	 0.419511
O	-1.1817883671	-0.6173452582	-0.5807220802	-0.490901
C	 1.2484207621	-0.6231545132	-0.6480369666	-0.128226
N	 2.0585147686	-0.2639030135	 0.6203104914	-0.17157
C	 2.5132993863	-1.721637012	 0.7425419468	-0.221223
C	 1.0884998386	-1.8958019103	 0.2555129253	 0.379988
O	 0.4336090942	-3.0758195095	 0.0049524552	-0.470238
C	 0.6495871085	-0.660567558	 1.1200766984	-0.158921
H	 0.7896663878	 1.9988220973	 0.2507483833	 0.151605
H	-0.367365201	 1.905157809	-1.1010875711	 0.125998
H	-0.9486422599	 1.8715540208	 0.574693071	 0.10666
H	-1.9481272626	-0.2491251276	-0.1278062539	 0.282854
H	 1.6997278139	-0.5417036616	-1.6384075607	 0.080681
H	 3.3295816801	-1.9801228275	 0.060901034	 0.106228
H	 2.7508319192	-2.0171415127	 1.76913309	 0.10534
H	-0.4427145636	-2.8311127958	-0.3229301294	 0.288674
H	 0.4108116627	-0.6242774304	 2.1852853494	 0.075097
166.9311	198.5225	249.0958	294.0727	317.5546	326.7324	397.4343	403.7107	494.2148	510.1798	541.1845	630.1674	688.4802	752.8559	840.0482	862.3494	884.4914	899.8822	917.9734	942.9313	1031.079	1049.1176	1066.4564	1088.3743	1109.5933	1123.1592	1148.136	1163.6078	1191.478	1197.7506	1250.0493	1271.9473	1339.4866	1396.708	1403.3105	1416.1666	1491.5526	1497.5401	1525.2361	3025.1763	3044.2763	3092.3746	3093.2649	3105.8625	3106.3742	3131.3048	3763.5583	3806.3393
CC1(O)C2N3CC2(O)C13	C[C@@]1(O)[C@H]2N3C[C@@]2(O)[C@H]13	
InChI=1S/C6H9NO2/c1-5(8)3-6(9)2-7(3)4(5)6/h3-4,8-9H,2H2,1H3	InChI=1S/C6H9NO2/c1-5(8)3-6(9)2-7(3)4(5)6/h3-4,8-9H,2H2,1H3/t3-,4+,5-,6+
