20
gdb 8883	4.26054	1.10396	0.9819	1.6032	71.97	-0.2639	0.018	0.2819	1277.0176	0.174664	-386.186212	-386.176092	-386.175148	-386.222186	34.68	
C	 0.147635007	 1.6083984469	-0.0248521295	-0.397706
C	 0.1410981358	 0.077236717	-0.0403142552	-0.162102
C	 0.6702456712	-0.5617238491	 1.253419129	-0.090603
C	-0.2098860227	-0.2680946681	 2.4861587532	-0.399941
C	 0.7955424889	-2.0684683692	 1.0862316454	 0.445944
O	 0.2410173115	-2.7369359813	 0.2496999157	-0.362887
O	 1.6118790137	-2.591337991	 2.0284632352	-0.23915
C	 1.763896448	-4.0147801813	 1.9864997083	-0.240321
H	 1.1518120925	 2.0014599562	 0.1721320625	 0.112534
H	-0.1776815932	 2.0040780788	-0.9917521727	 0.116321
H	-0.523815528	 2.0167900462	 0.7367228176	 0.118071
H	-0.8711802726	-0.2964218814	-0.2300281474	 0.111782
H	 0.7491176249	-0.2802285081	-0.8785668085	 0.105096
H	 1.678179912	-0.182626162	 1.4645014323	 0.095556
H	-0.2541555792	 0.8056003083	 2.6844803423	 0.122921
H	-1.2325083597	-0.6259881936	 2.3247132341	 0.125814
H	 0.1906504493	-0.7602578016	 3.3756808571	 0.129713
H	 0.8002913157	-4.5117438689	 2.1260479513	 0.138562
H	 2.1827151308	-4.3303609927	 1.0274686953	 0.139581
H	 2.4438762241	-4.2659746051	 2.8008119641	 0.130816
28.391	77.5141	113.9413	134.2769	166.7986	216.3994	241.0732	276.3592	310.2302	346.6934	359.0862	470.3044	679.6969	755.4574	778.7231	838.4752	878.2525	972.3253	984.939	1016.5645	1046.439	1107.4539	1143.6295	1178.8952	1179.1178	1206.3763	1217.2428	1289.9386	1332.0049	1344.7723	1393.7333	1399.9742	1415.044	1471.6721	1480.8265	1482.3818	1495.2782	1498.2581	1501.2996	1508.1449	1511.6824	1816.1601	3029.8537	3032.6576	3041.3694	3044.8962	3050.1624	3074.5304	3100.4828	3107.6651	3114.3847	3123.5713	3127.2886	3156.1216
CCC(C)C(=O)OC	CC[C@@H](C)C(=O)OC	
InChI=1S/C6H12O2/c1-4-5(2)6(7)8-3/h5H,4H2,1-3H3	InChI=1S/C6H12O2/c1-4-5(2)6(7)8-3/h5H,4H2,1-3H3/t5-/m1/s1
