20
gdb 39386	2.35622	2.15342	1.44431	2.1772	78.44	-0.2426	0.0723	0.3149	956.76	0.17432	-403.083439	-403.07644	-403.075496	-403.114353	29.604	
C	-0.0029297374	 1.5423282396	-0.1146583251	-0.253523
C	 1.5295392479	 1.3277115764	 0.0223102867	-0.024767
C	 1.2027686933	 0.0582207286	 0.8870861567	-0.310089
C	-0.0469096569	 0.019821437	-0.0002628423	 0.347415
N	-1.1551230085	-0.8381407005	-0.3627536921	-0.443428
C	 0.0682116717	-0.8179685677	-1.2137729701	-0.094353
C	 0.185047372	-0.0954062245	-2.5302745677	-0.085718
O	 1.1706799539	 0.9554392176	-2.4657843677	-0.268438
C	 2.109368401	 0.9792617063	-1.391118608	-0.069871
H	-0.4285377833	 2.0174655675	 0.7743378419	 0.091875
H	-0.3725922861	 2.0239987197	-1.0175716076	 0.11956
H	 2.1197173559	 2.1076605029	 0.5085857982	 0.067294
H	 1.8899471106	-0.7923100884	 0.8493447599	 0.092781
H	 1.0063689087	 0.3353652603	 1.9279967966	 0.098179
H	-1.1793941612	-1.7024727045	 0.1739475561	 0.232874
H	 0.7161862087	-1.6865731533	-1.110704229	 0.088904
H	 0.4637865918	-0.7835042457	-3.3398094512	 0.094446
H	-0.7646150419	 0.3787997624	-2.7992434694	 0.118517
H	 2.8076642929	 1.7667300269	-1.6884175883	 0.110068
H	 2.6821032071	 0.0404569395	-1.3418135475	 0.088272
157.185	256.2175	332.9153	357.5776	387.9065	399.5329	441.9413	524.3637	581.0714	655.9404	772.1886	816.6135	843.0836	863.9465	867.0647	898.6853	948.8964	963.7917	969.0546	1004.9378	1027.2538	1048.2492	1071.6782	1088.0452	1108.1507	1126.1018	1151.0018	1166.9221	1209.2613	1230.0443	1247.4201	1260.8164	1279.777	1311.2078	1327.678	1356.5495	1390.7458	1401.5953	1479.421	1484.3537	1493.6189	1509.0929	1514.693	2983.4648	3009.2398	3039.7464	3062.1143	3070.2428	3073.8215	3090.4033	3097.3893	3115.3481	3156.0069	3493.3902
C1C2CC11NC1COC2	C1[C@H]2C[C@]31N[C@H]3COC2	
InChI=1S/C7H11NO/c1-5-2-7(1)6(8-7)4-9-3-5/h5-6,8H,1-4H2	InChI=1S/C7H11NO/c1-5-2-7(1)6(8-7)4-9-3-5/h5-6,8H,1-4H2/t5-,6-,7-/m0/s1
