22
gdb 22268	2.6477	1.07347	0.91949	0.4895	86.22	-0.2347	0.0161	0.2508	1400.3042	0.190918	-404.308093	-404.297297	-404.296353	-404.343959	39.622	
C	-0.0670088067	 1.453336439	-0.1971656142	-0.418919
C	 0.1288564781	-0.0400094872	-0.0497256824	-0.01975
C	 1.5045947804	-0.6639891386	-0.0625502187	-0.328873
C	 0.6637984121	-0.6868681774	 1.2071773784	 0.260344
C	 1.1076673206	 0.1642025423	 2.3880519139	-0.471067
C	 0.1024205865	-2.0200302131	 1.6070748922	 0.290746
C	 0.960598597	-2.9577401678	 2.418170995	-0.478576
N	-1.0870311111	-2.2980632915	 1.2287106938	-0.175222
O	-1.4936978679	-3.5732125381	 1.6619384924	-0.400091
H	 0.7468179809	 2.0297719754	 0.251772143	 0.111833
H	-0.1107979863	 1.727468946	-1.2570386253	 0.11753
H	-1.0038653995	 1.7800736492	 0.2676494926	 0.120277
H	-0.6401130084	-0.6270446394	-0.5402095149	 0.10145
H	 1.6476333803	-1.5920161855	-0.6063298462	 0.110462
H	 2.366061275	-0.0021543184	-0.0723806071	 0.102992
H	 1.6045373217	 1.079542587	 2.058933699	 0.118691
H	 0.2522313616	 0.4499664037	 3.0104509374	 0.123317
H	 1.8155468411	-0.3770273634	 3.0247125953	 0.117745
H	 0.6712672767	-2.9376315601	 3.4752755836	 0.141686
H	 0.8242004152	-3.9852402082	 2.07356349	 0.14806
H	 2.0150758622	-2.683876503	 2.345124167	 0.12363
H	-2.3729549195	-3.6423728208	 1.2760323252	 0.303734
47.8995	91.8033	130.8732	162.7022	179.641	186.8704	274.4668	284.1161	314.0301	351.6684	363.182	428.485	437.5922	502.5151	554.7864	588.1116	726.0321	788.5921	853.0852	892.9228	928.0822	952.1767	978.2775	1014.2486	1027.1736	1049.7006	1056.5184	1103.9844	1122.4312	1131.2034	1179.3077	1191.9913	1302.59	1317.4389	1392.5783	1397.1901	1408.1721	1419.6356	1432.6188	1474.6007	1481.8998	1487.2935	1489.6081	1496.0174	1502.6154	1516.2735	1717.4819	3029.7946	3034.3859	3041.4721	3088.451	3091.2161	3103.1978	3104.7626	3118.0301	3122.7247	3138.3563	3171.8984	3205.7923	3822.8381
CC1CC1(C)C(C)=NO	C[C@H]1C[C@]1(C)C(=NO)C	
InChI=1S/C7H13NO/c1-5-4-7(5,3)6(2)8-9/h5,9H,4H2,1-3H3	InChI=1S/C7H13NO/c1-5-4-7(5,3)6(2)8-9/h5,9H,4H2,1-3H3/t5-,7-/m0/s1
