18
gdb 17640	3.31801	1.35087	1.20606	2.408	68.02	-0.2442	-0.0174	0.2268	1080.478	0.150839	-384.940224	-384.931034	-384.930089	-384.975424	31.951	
C	-0.6588765556	 1.8267897988	 0.311548049	-0.399314
C	-0.1404914114	 0.3777160623	 0.1946697129	-0.125478
C	 0.6596329543	 0.0015762324	 1.4259935354	 0.109124
C	 1.904156382	-0.7709949701	 1.3450035674	-0.185281
O	 1.9286271927	 0.6425732676	 1.563278704	-0.244368
C	-1.3322992828	-0.5696622035	 0.0262995716	 0.394027
C	-1.6742187849	-0.9920831169	-1.3887058841	-0.482605
O	-1.9746244613	-0.9399527296	 0.9831685266	-0.312243
H	 0.1846217969	 2.506365337	 0.4568467483	 0.142287
H	-1.1994856833	 2.1345231676	-0.5888738429	 0.116876
H	-1.3364903225	 1.9202233353	 1.1654180243	 0.13757
H	 0.5108546542	 0.3097803037	-0.6843127584	 0.079923
H	 0.075973271	-0.0564150137	 2.3433961669	 0.113597
H	 2.2212100639	-1.3809705514	 2.1893453562	 0.119837
H	 2.2732672765	-1.0977908343	 0.3731960263	 0.109213
H	-0.8686892707	-1.6200113953	-1.7884032335	 0.143252
H	-2.6107104004	-1.5508566142	-1.3997359789	 0.143461
H	-1.7476924186	-0.1191928357	-2.0468767809	 0.140122
21.04	70.5872	147.4078	168.9386	218.5214	232.565	241.5244	351.3793	390.532	469.0936	587.6346	603.5512	796.3391	820.5508	871.9928	936.6521	958.1616	969.4633	996.4522	1048.4914	1106.14	1113.798	1149.9909	1166.8759	1175.5333	1195.4487	1284.9158	1311.8934	1328.9419	1380.6017	1400.7013	1442.7594	1461.0916	1473.7311	1496.6319	1501.7605	1529.1188	1806.4887	3032.2878	3040.8376	3043.5414	3081.3735	3092.7674	3112.6803	3126.8867	3131.6072	3152.4462	3168.988
CC(C1CO1)C(C)=O	C[C@@H]([C@H]1CO1)C(=O)C	
InChI=1S/C6H10O2/c1-4(5(2)7)6-3-8-6/h4,6H,3H2,1-2H3	InChI=1S/C6H10O2/c1-4(5(2)7)6-3-8-6/h4,6H,3H2,1-2H3/t4-,6-/m1/s1
