21
gdb 95376	2.56405	1.7114	1.26791	1.6834	76.53	-0.2413	0.0706	0.3119	1062.7352	0.185104	-424.242533	-424.234517	-424.233573	-424.275346	31.209	
C	 0.490526939	 1.4336211506	-0.1094491129	-0.386712
C	-0.045784517	 0.0215118117	 0.1098832127	 0.100027
O	 0.1548839293	-0.8036645812	-1.0460831627	-0.263974
C	 1.3108667383	-1.5953732514	-0.8416985757	-0.101332
C	 1.3138027429	-1.9588900258	 0.652779273	-0.042628
C	 2.6941195195	-1.9833374052	 1.3231909653	-0.244721
C	 2.9079218213	-0.5046698043	 1.669360054	-0.082086
O	 1.6186059064	 0.0030783551	 1.9955726601	-0.259501
C	 0.6148666174	-0.7369574533	 1.3008488659	 0.080249
H	 1.5683230933	 1.4311905406	-0.2932416943	 0.116623
H	-0.0059989961	 1.8808804534	-0.9748314811	 0.116219
H	 0.3053945016	 2.0582124236	 0.7685336463	 0.123502
H	-1.1311357995	 0.0688059489	 0.2542751031	 0.077317
H	 1.242258895	-2.4652305877	-1.5009940068	 0.107259
H	 2.2279433728	-1.0431705474	-1.1084495044	 0.083447
H	 0.7481598276	-2.8779051795	 0.817235718	 0.080429
H	 2.667248204	-2.5869675449	 2.2353207491	 0.109082
H	 3.4800278429	-2.3833364378	 0.6756627759	 0.104669
H	 3.5615318225	-0.3451729511	 2.5319312598	 0.109198
H	 3.3372241639	 0.0423483574	 0.814983974	 0.092032
H	-0.1405003752	-1.0165447518	 2.0414466009	 0.080901
58.0482	140.0378	216.1738	229.2081	266.6987	347.8974	411.8413	474.7742	578.9218	638.9919	678.4558	775.6887	789.7425	858.1893	859.6859	910.7465	931.7561	957.1044	992.2761	1013.6111	1029.0073	1047.2793	1068.8687	1107.844	1128.2713	1143.469	1155.6975	1215.3169	1227.6865	1243.5521	1268.716	1292.3122	1320.8796	1335.3314	1352.9386	1364.4873	1373.7305	1396.5065	1398.396	1410.0986	1480.24	1491.1473	1491.4871	1514.6166	1530.3217	2957.1273	2977.9944	3033.0989	3047.8613	3053.6243	3057.8711	3078.176	3080.816	3095.3448	3103.6737	3122.2392	3125.212
CC1OCC2CCOC12	C[C@H]1OC[C@H]2CCO[C@@H]12	
InChI=1S/C7H12O2/c1-5-7-6(4-9-5)2-3-8-7/h5-7H,2-4H2,1H3	InChI=1S/C7H12O2/c1-5-7-6(4-9-5)2-3-8-7/h5-7H,2-4H2,1H3/t5-,6-,7+/m1/s1
