15
gdb 56113	4.10746	0.80543	0.68311	2.626	71.36	-0.2525	-0.0307	0.2217	1553.6027	0.109861	-453.936791	-453.926922	-453.925978	-453.973487	33.869	
N	-0.0305293133	 1.2774155995	-0.1138379187	-0.526292
C	 0.0535429358	-0.0598547167	 0.1561173267	 0.374646
O	 1.0827202095	-0.6136775844	 0.4672198585	-0.329764
C	-1.304366647	-0.763813985	 0.0914854021	-0.169528
O	-1.0677675261	-2.158449008	-0.0129720885	-0.205796
C	-2.162318574	-2.9399752295	 0.0247582246	 0.2658
N	-3.3364320778	-2.4585218253	 0.1335235909	-0.54305
C	-1.8237980016	-4.3326927661	-0.0739197863	 0.278123
C	-1.5944902109	-5.5096807762	-0.1542805059	-0.398686
H	 0.821850256	 1.8132280916	-0.1033860277	 0.265976
H	-0.8554436358	 1.6982081037	-0.5048557581	 0.261497
H	-1.8798930914	-0.5420243013	 0.9981689957	 0.151996
H	-1.9041724549	-0.4160037294	-0.7580476839	 0.125619
H	-4.02714861	-3.2052251943	 0.1496433072	 0.237573
H	-1.3829896786	-6.5486665588	-0.2242254967	 0.211886
21.7194	53.7967	101.404	137.3244	161.5271	207.3695	282.6243	305.1909	391.994	491.2451	557.1284	570.0103	615.1854	661.4582	664.5606	665.8697	733.5531	844.385	852.5076	936.5062	1010.8598	1053.1992	1095.7194	1138.7386	1254.9361	1291.1417	1376.2811	1423.7818	1491.7962	1619.3656	1678.6683	1827.9175	2239.281	3032.3576	3070.0818	3499.6274	3527.9538	3601.2996	3734.9998
NC(=O)COC(=N)C#C	NC(=O)CO[C]([NH])C#C	
InChI=1S/C5H6N2O2/c1-2-5(7)9-3-4(6)8/h1,7H,3H2,(H2,6,8)	InChI=1S/C5H6N2O2/c1-2-5(7)9-3-4(6)8/h1,7H,3H2,(H2,6,8)
