20
gdb 7688	3.39643	1.70598	1.51106	1.4099	75.22	-0.2469	0.0728	0.3197	950.7577	0.176378	-348.977427	-348.969075	-348.968131	-349.009348	32.7	
C	-0.0409503588	 1.5557990754	-0.034064041	-0.459673
C	 0.0630313259	 0.0416396684	 0.0348800017	 0.341192
C	-1.1807797066	-0.6572335067	-0.4973190031	-0.451149
C	 1.336172401	-0.7175522874	-0.2320341865	-0.088935
C	 2.5747804201	 0.0213675688	 0.2838775829	-0.303341
C	 1.9682492567	-0.053640011	 1.7306440106	 0.105557
O	 1.7593818309	 1.1318362677	 2.4727819986	-0.428752
C	 0.7084223064	-0.7069148073	 1.1800534319	-0.102595
H	 0.8058667786	 2.0594523074	 0.4295314849	 0.13285
H	-0.1242284212	 1.8870034033	-1.0766526116	 0.101356
H	-0.941034269	 1.8940977862	 0.4920133408	 0.111734
H	-1.3695293816	-0.3754335133	-1.5396177353	 0.113024
H	-1.0816103111	-1.7467403943	-0.4577693804	 0.10999
H	-2.0655212278	-0.379050702	 0.0865718833	 0.115387
H	 1.3631458733	-1.541431834	-0.9358655385	 0.079115
H	 3.5003221708	-0.5513829852	 0.1882588462	 0.096711
H	 2.7396800144	 1.026077607	-0.1159071904	 0.098049
H	 2.5329423706	-0.7823853388	 2.3281252795	 0.072398
H	 2.6116953241	 1.4291811542	 2.8071822606	 0.281524
H	 0.1701309133	-1.4971997485	 1.6918234256	 0.075557
149.9379	185.5674	205.5944	236.4834	277.414	283.5007	360.0753	379.5535	407.1018	454.9589	587.966	646.3747	701.4682	807.7604	846.8748	868.281	941.7644	976.4225	981.4391	1002.6272	1011.2908	1039.7231	1051.098	1068.0732	1102.7227	1151.7339	1155.5644	1196.3006	1234.8456	1254.7379	1274.0102	1304.3486	1326.7433	1407.7025	1418.6243	1423.1585	1432.7759	1480.2912	1484.9401	1495.4786	1506.9531	1515.569	2999.9991	3022.1468	3026.959	3053.9277	3078.4264	3085.5153	3098.1256	3105.7311	3158.5599	3163.9425	3177.4585	3812.2305
CC1(C)C2CC(O)C12	CC1(C)[C@H]2C[C@@H](O)[C@@H]12	
InChI=1S/C7H12O/c1-7(2)4-3-5(8)6(4)7/h4-6,8H,3H2,1-2H3	InChI=1S/C7H12O/c1-7(2)4-3-5(8)6(4)7/h4-6,8H,3H2,1-2H3/t4-,5+,6-/m0/s1
