22
gdb 109567	2.1006	1.31299	0.93788	2.4689	84.23	-0.2278	-0.0198	0.208	1365.139	0.191402	-404.354069	-404.343621	-404.342677	-404.389727	37.633	
C	-0.1076685177	 1.5447410736	 0.1304867862	-0.391144
C	 0.0797568643	 0.0251169645	 0.1307193827	-0.175154
C	 0.7083158394	-0.5150221007	-1.1494478579	-0.068173
N	 2.1459382487	-0.2121548544	-1.39033432	-0.103723
C	 2.4718569592	 0.7857448179	-2.3898169172	-0.333968
C	 2.4801294175	-1.6236362714	-1.7212250672	-0.054687
C	 3.715711394	-2.2152813937	-1.0621767275	-0.39804
C	 1.0911949547	-2.0018247043	-1.1877828594	 0.368171
O	 0.5552429091	-3.0211675905	-0.8670788345	-0.304024
H	 0.855333375	 2.0590599032	 0.0539346894	 0.127731
H	-0.7327609093	 1.8698858745	-0.7088530991	 0.112854
H	-0.5890772645	 1.8798155187	 1.0542611824	 0.117361
H	 0.7073314018	-0.2719015	 0.9783850778	 0.103576
H	-0.886831781	-0.4768434929	 0.2607720212	 0.11211
H	 0.0738575931	-0.2668942871	-2.0209408566	 0.080666
H	 2.1322674316	 1.7730673244	-2.0638948448	 0.125954
H	 3.5574613583	 0.8354130705	-2.523001695	 0.124072
H	 2.0160657775	 0.5750987318	-3.3766160699	 0.093632
H	 2.5054460701	-1.7994411223	-2.8128071563	 0.084097
H	 3.6939587619	-2.0439230125	 0.0171686741	 0.126526
H	 3.7593831133	-3.2932389748	-1.2459263395	 0.131743
H	 4.628298693	-1.7631401245	-1.4635925689	 0.12042
54.712	86.6393	140.8802	181.6517	193.649	202.3018	209.1766	251.021	279.7892	317.9171	400.8162	434.3909	556.6106	598.4153	641.6671	744.9667	822.4481	845.4898	868.7535	944.8852	1012.1021	1021.5677	1067.2873	1077.2827	1099.7352	1133.7312	1139.4309	1170.3617	1179.2186	1203.6687	1272.6016	1281.4163	1292.0132	1327.4803	1358.008	1390.0603	1402.072	1408.846	1457.1665	1476.0763	1484.7829	1491.5561	1493.9168	1496.427	1500.0272	1509.1019	1908.4818	2921.5777	2929.3946	2937.6181	3032.3185	3034.5602	3039.5639	3064.8808	3071.9047	3101.8659	3106.7631	3109.349	3111.0763	3124.0856
CCC1N(C)C(C)C1=O	CC[C@H]1N(C)[C@@H](C)C1=O	
InChI=1S/C7H13NO/c1-4-6-7(9)5(2)8(6)3/h5-6H,4H2,1-3H3	InChI=1S/C7H13NO/c1-4-6-7(9)5(2)8(6)3/h5-6H,4H2,1-3H3/t5-,6+/m0/s1
