16
gdb 27930	3.94568	1.17088	0.90804	4.0188	77.43	-0.1987	-0.0265	0.1721	1233.4302	0.124733	-437.960014	-437.951894	-437.950949	-437.992526	30.438	
C	-0.0504960978	 1.5217957901	 0.0857596219	-0.500259
C	-0.0068194099	 0.0383588679	-0.0488467856	 0.334998
C	-0.0405985334	-0.7759977891	-1.1410433836	-0.373731
C	 0.032504409	-2.1420673225	-0.6852920029	 0.06074
C	 0.0406230384	-3.4169701638	-1.3194986457	 0.064644
O	 0.1135791445	-4.4767867666	-0.6797129807	-0.380858
C	 0.1095763532	-2.0807135481	 0.7108370046	 0.40425
O	 0.1928118692	-3.0851545659	 1.5656220239	-0.412662
N	 0.0863212827	-0.785716435	 1.090572933	-0.393246
H	 0.8491069577	 1.9208035644	 0.5717705831	 0.130403
H	-0.1224420374	 1.9785844244	-0.9036887259	 0.142837
H	-0.9147587985	 1.8597878201	 0.6718576843	 0.130402
H	-0.1102055539	-0.4443488042	-2.1660054867	 0.105927
H	-0.0208296405	-3.4498136595	-2.4233116429	 0.089077
H	 0.1868753282	-3.8863557759	 0.9721725484	 0.32818
H	 0.1295862083	-0.4707575664	 2.0456169347	 0.269297
125.3384	151.3894	212.6343	229.1371	282.7741	292.9529	331.6927	465.6646	488.9401	501.8965	616.3797	628.1802	729.4126	768.9022	796.6308	845.4346	856.9326	975.4527	1013.7568	1028.2312	1064.995	1162.9105	1198.5768	1267.313	1309.4172	1368.3513	1376.2394	1418.4214	1467.4763	1477.1465	1495.3916	1574.6294	1607.2988	1638.4369	1707.4489	2954.2764	3014.2792	3057.4608	3125.9731	3211.5183	3247.5058	3664.8051
CC1=CC(C=O)=C(O)N1	Cc1cc(C=O)c(O)[nH]1	
InChI=1S/C6H7NO2/c1-4-2-5(3-8)6(9)7-4/h2-3,7,9H,1H3	InChI=1S/C6H7NO2/c1-4-2-5(3-8)6(9)7-4/h2-3,7,9H,1H3
