17
gdb 33392	2.33973	1.39498	1.04882	1.9327	79.18	-0.2467	0.0305	0.2772	1182.5646	0.133191	-384.591302	-384.582103	-384.581159	-384.625737	33.498	
C	 0.0444776946	-1.2209173815	-0.0640389846	-0.439242
C	 0.0564540451	-0.0209429364	-0.0310000387	 0.340089
C	 0.0297032861	 1.4438501856	 0.0031728645	-0.381758
C	 1.3793973203	 2.0151410585	-0.0265615143	 0.349761
C	 2.4743508309	 2.5083621616	-0.0399132423	-0.458837
C	-0.86862767	 1.9973119912	-1.1343232276	 0.157441
C	-0.8829315853	 3.5243937312	-1.3568008308	-0.313768
C	-0.3381783939	 3.1730483561	-2.7559004211	-0.054329
O	-0.321091015	 1.762233944	-2.4396779509	-0.279302
H	 0.0462995074	-2.2822818147	-0.0978712682	 0.199896
H	-0.4534879147	 1.7555641648	 0.9427292207	 0.136026
H	 3.4509173343	 2.925570573	-0.0527402677	 0.201384
H	-1.8568570794	 1.5324848418	-1.0247866678	 0.08911
H	-1.8687658985	 3.989783506	-1.3298021651	 0.111918
H	-0.1929506286	 4.082708791	-0.7230478527	 0.124328
H	-1.0109777475	 3.3913079611	-3.5936340057	 0.103742
H	 0.6645026443	 3.5467482967	-2.9887536377	 0.113542
67.9503	83.6851	125.6258	148.6309	165.6676	308.9645	341.4744	349.6797	464.7954	561.7943	627.8495	630.2986	652.4368	654.5388	660.1764	748.3699	800.791	854.6738	927.9374	958.7834	993.7392	1005.8372	1036.734	1105.4761	1120.943	1167.3944	1219.0178	1235.377	1262.9978	1292.2293	1299.2745	1366.1955	1382.5426	1482.4263	1527.3976	2240.174	2246.0545	2985.1272	3020.3719	3027.78	3073.158	3087.12	3144.8773	3502.3578	3505.2821
C#CC(C#C)C1CCO1	C#CC(C#C)[C@H]1CCO1	
InChI=1S/C8H8O/c1-3-7(4-2)8-5-6-9-8/h1-2,7-8H,5-6H2	InChI=1S/C8H8O/c1-3-7(4-2)8-5-6-9-8/h1-2,7-8H,5-6H2/t8-/m1/s1
