19
gdb 69782	3.23175	1.43666	1.18353	1.0632	74.3	-0.2512	0.0702	0.3213	1085.4736	0.158641	-423.007539	-422.999446	-422.998502	-423.039491	32.67	
C	-0.0093442528	 1.5275914617	 0.0170945781	-0.478829
C	-0.0538943052	 0.0285166099	 0.1363330057	 0.413858
C	-1.3289889287	-0.7352961129	-0.2208234051	-0.369537
C	-1.2801106039	-2.0570471693	 0.5614106048	 0.385701
O	-2.4840029898	-2.5186458105	 1.1013123213	-0.464544
C	-0.1838191182	-3.046844726	 0.2855194553	-0.34723
C	-0.040747486	-2.0509333429	 1.4264591081	-0.108754
C	 0.7047910939	-0.7762904917	 1.1156799722	-0.040647
O	 1.1500817555	-0.6632476653	-0.2472418072	-0.296279
H	 0.9592452975	 1.9076933596	 0.351704702	 0.129324
H	-0.1544802768	 1.8407385659	-1.0229461686	 0.126568
H	-0.7973423213	 1.991051276	 0.6197892907	 0.12264
H	-2.2032663681	-0.1747775402	 0.126973033	 0.112846
H	-1.4267057552	-0.8724118974	-1.3036219197	 0.106394
H	-2.9195723784	-3.0628180718	 0.43645411	 0.282844
H	-0.3909945644	-4.0711884413	 0.5768543008	 0.107474
H	 0.4526785801	-2.9148350465	-0.5808207504	 0.133785
H	-0.0716169607	-2.4092255822	 2.4478238749	 0.094039
H	 1.3694930927	-0.337849385	 1.8554460039	 0.090346
163.3302	185.5229	220.948	280.282	289.4677	353.5625	395.352	406.2505	417.213	547.7536	568.0387	657.1069	724.318	741.4769	831.1177	866.2487	880.7887	897.5732	928.7915	972.188	978.0484	1001.1359	1047.6252	1072.9156	1078.3316	1088.0636	1104.122	1177.5977	1218.709	1252.4062	1268.1915	1293.6293	1322.2638	1339.1382	1390.7035	1410.5038	1435.6903	1470.3743	1480.6213	1486.4151	1497.094	3033.349	3042.0088	3086.8849	3096.51	3121.8142	3137.6001	3146.6837	3196.1564	3236.7348	3796.5598
CC12CC3(O)CC3C1O2	C[C@]12C[C@@]3(O)C[C@H]3[C@H]1O2	
InChI=1S/C7H10O2/c1-6-3-7(8)2-4(7)5(6)9-6/h4-5,8H,2-3H2,1H3	InChI=1S/C7H10O2/c1-6-3-7(8)2-4(7)5(6)9-6/h4-5,8H,2-3H2,1H3/t4-,5+,6-,7-/m0/s1
