19
gdb 53823	3.86775	0.91065	0.77349	2.1675	78.85	-0.2347	-0.0489	0.1858	1492.1322	0.158114	-419.221423	-419.211737	-419.210793	-419.257064	34.741	
C	 0.0993642049	 1.3738871148	 0.0460226218	-0.468704
C	-0.3378852972	-0.062820191	-0.0681502266	 0.379512
O	-0.9172330385	-0.6556927949	 0.8182694468	-0.32198
C	-0.0321110024	-0.7832787465	-1.3755044728	 0.244159
N	 0.5165114148	-0.1187485524	-2.3247410932	-0.530193
N	-0.4012533433	-2.097625312	-1.338655188	-0.312556
C	-0.3889116017	-2.9454964993	-2.4824499238	 0.028909
C	 0.9292439378	-3.5228997623	-2.9546351261	-0.256869
C	-0.0878897202	-4.403589743	-2.2758915249	-0.288161
H	 1.1822016225	 1.4464331779	-0.0906851149	 0.156589
H	-0.3449043889	 1.9648869374	-0.7593782361	 0.160231
H	-0.1922562437	 1.7655992874	 1.0208580773	 0.132007
H	 0.6634134188	-0.7054672469	-3.1480924761	 0.21766
H	-0.9336311558	-2.3601099469	-0.5203466481	 0.258161
H	-1.1128111357	-2.696288031	-3.2584606018	 0.102072
H	 1.0827516141	-3.6345559417	-4.0219830152	 0.120564
H	 1.8138501659	-3.253017028	-2.3903236139	 0.130654
H	 0.1258995176	-4.7244383278	-1.2624989093	 0.125261
H	-0.636269239	-5.1229239937	-2.8726398351	 0.122683
53.3818	74.0538	83.4433	119.032	137.9972	264.2727	328.3172	372.0714	404.4118	468.0295	537.971	567.5412	603.2051	704.9229	771.1904	804.9399	834.6497	851.5966	886.6064	957.5766	983.8409	1017.4661	1049.1803	1059.6685	1083.0016	1122.0697	1136.1735	1197.0867	1200.3897	1209.4734	1263.0394	1333.9621	1387.0403	1402.0091	1452.1065	1459.3675	1460.5947	1497.8776	1534.3494	1700.1141	1791.8589	3057.643	3095.8759	3122.7651	3141.0997	3145.6798	3162.1838	3224.8201	3239.187	3461.6484	3587.3919
CC(=O)C(=N)NC1CC1	CC(=O)C(=N)NC1CC1	
InChI=1S/C6H10N2O/c1-4(9)6(7)8-5-2-3-5/h5H,2-3H2,1H3,(H2,7,8)	InChI=1S/C6H10N2O/c1-4(9)6(7)8-5-2-3-5/h5H,2-3H2,1H3,(H2,7,8)
