21
gdb 39431	2.30972	1.93393	1.30232	1.6628	81.6	-0.2378	0.0769	0.3147	1045.1826	0.185391	-387.074407	-387.066953	-387.066009	-387.106001	30.62	
C	-0.0353065303	 1.528493396	-0.0407412815	-0.394763
C	 1.2882456154	 0.7893603418	 0.0267703829	-0.056471
C	 2.1004463923	 0.6643456747	 1.3110458206	-0.223622
C	 2.0593468077	-0.7853524788	 1.830357648	-0.198415
C	 0.6249395298	-1.1808245462	 2.2097191146	-0.222177
C	-0.3789550912	-0.9571530412	 1.0814461246	 0.093412
O	-0.40328351	-2.0202064791	 0.0871318807	-0.302154
C	-0.3809535591	-1.0622106645	-0.9977281443	-0.153112
C	-0.0103712945	 0.0372515415	-0.0174731199	 0.297781
H	-0.3821622	 2.0490842068	 0.8481381433	 0.110357
H	-0.2927099178	 2.0251042268	-0.9712916614	 0.112807
H	 1.8680046664	 0.784758657	-0.8931498434	 0.084144
H	 3.1329415313	 0.9806786128	 1.1327533723	 0.098175
H	 1.7029422817	 1.3340979454	 2.0850870412	 0.094271
H	 2.4375945711	-1.461657448	 1.0539420166	 0.106096
H	 2.7151891653	-0.9000245993	 2.7000599195	 0.090539
H	 0.5668699892	-2.2326083923	 2.5121765846	 0.110466
H	 0.3074069217	-0.5856051685	 3.0766497719	 0.092859
H	-1.3912153564	-0.8145367761	 1.4891659332	 0.065081
H	 0.3550486791	-1.3219047255	-1.768182473	 0.10062
H	-1.3721691718	-0.9573250831	-1.4630604505	 0.094104
126.6034	183.5148	234.5033	316.5781	368.3363	405.8262	432.2306	471.9711	575.8088	624.8982	775.8063	795.4539	825.1999	841.2103	886.2596	901.6031	921.5449	973.7459	976.9575	995.6241	1002.2246	1052.2037	1066.1584	1090.5827	1100.0919	1111.2085	1133.5814	1156.9314	1195.1316	1211.0482	1226.7758	1281.2065	1295.0323	1309.5663	1349.4091	1358.7091	1370.7487	1372.52	1398.6507	1438.3423	1467.1134	1484.987	1493.4609	1502.4538	1524.285	2977.2454	2991.3322	3018.8334	3020.973	3032.1477	3047.6609	3068.9687	3073.0402	3078.4295	3113.151	3132.4125	3197.0903
C1C2CCCC3OCC123	C1[C@H]2CCC[C@@H]3OC[C@]123	
InChI=1S/C8H12O/c1-2-6-4-8(6)5-9-7(8)3-1/h6-7H,1-5H2	InChI=1S/C8H12O/c1-2-6-4-8(6)5-9-7(8)3-1/h6-7H,1-5H2/t6-,7+,8-/m1/s1
