19
gdb 114713	2.51919	1.44674	1.07154	2.0665	75.71	-0.2411	-0.0226	0.2185	1177.8092	0.158809	-423.037042	-423.028554	-423.02761	-423.070553	31.998	
C	 0.2098668724	 1.4285153959	 0.2238452494	-0.390329
C	 0.2627744423	-0.0935114623	 0.0780085507	-0.178642
C	 0.6110072049	-0.5420406053	-1.3417949837	 0.006834
O	 1.9052453252	-0.09048662	-1.7514570295	-0.278724
C	 2.6988714607	-1.1749825013	-2.1706574892	 0.10618
C	 3.1299645731	-2.1342466401	-1.1157086276	-0.320409
C	 1.940810275	-2.4702848977	-2.0291539054	-0.188948
C	 0.5953918283	-2.070479833	-1.5209760137	 0.381764
O	-0.3659732881	-2.7738712907	-1.3370164256	-0.330836
H	 1.1717131829	 1.8755899966	-0.0417617971	 0.134639
H	-0.5543903482	 1.8604451522	-0.4316952747	 0.116356
H	-0.0295285354	 1.7151326589	 1.2520973654	 0.114228
H	 0.9979223288	-0.5115740715	 0.7762945332	 0.099648
H	-0.7045520982	-0.5441994131	 0.3275445201	 0.12231
H	-0.1322189843	-0.1272717012	-2.0404390238	 0.110341
H	 3.3266479905	-0.9415817719	-3.0230089434	 0.112209
H	 4.021558868	-2.7267202705	-1.2891064591	 0.130354
H	 2.9422315947	-1.8818504003	-0.0781861071	 0.13412
H	 2.0131545374	-3.3144228648	-2.702101169	 0.118905
64.9972	107.7278	166.8529	188.9614	240.1869	306.7521	412.5217	414.2238	504.6335	599.5748	611.8909	710.7134	763.3754	785.726	819.6698	858.8312	917.7706	945.8438	973.7614	996.4063	1017.5902	1039.7866	1077.5431	1095.4649	1113.5711	1129.0284	1142.903	1182.3546	1213.6387	1282.9231	1288.8531	1312.3599	1338.041	1378.6753	1382.777	1411.8562	1475.0536	1481.4425	1497.0075	1508.8609	1836.8159	2987.4931	3033.5642	3037.8778	3076.5064	3105.2597	3121.2926	3137.4612	3178.9697	3204.1789	3229.3612
CCC1OC2CC2C1=O	CC[C@H]1O[C@H]2C[C@H]2C1=O	
InChI=1S/C7H10O2/c1-2-5-7(8)4-3-6(4)9-5/h4-6H,2-3H2,1H3	InChI=1S/C7H10O2/c1-2-5-7(8)4-3-6(4)9-5/h4-6H,2-3H2,1H3/t4-,5-,6+/m1/s1
