16
gdb 125374	2.62715	1.58181	0.99331	4.0418	72.63	-0.2415	-0.0121	0.2294	1132.734	0.125683	-434.135619	-434.126792	-434.125847	-434.169669	31.617	
C	-0.018283672	 1.538910707	-0.0210816131	-0.489963
C	-0.0124553945	 0.0429540651	 0.0031668012	 0.136207
C	-0.0525910601	-0.8223060355	-1.0700195271	-0.10144
N	-0.0281751739	-2.0847390171	-0.5653076904	-0.190643
N	 0.0251972439	-2.1117299382	 0.76962188	-0.309271
C	 0.0353472395	-0.824104302	 1.1280584632	 0.194484
C	 0.0909156093	-0.4252007669	 2.5583125287	 0.342068
N	 0.1315580624	-1.4655099441	 3.4339152014	-0.538021
O	 0.0992814083	 0.7465797373	 2.9020456014	-0.385604
H	 0.8740938962	 1.9445140453	 0.4631733945	 0.146172
H	-0.0601153844	 1.9117371588	-1.0486495209	 0.105477
H	-0.8722262708	 1.9387406937	 0.532325866	 0.146187
H	-0.0957621902	-0.6383821963	-2.1321896011	 0.138498
H	-0.0456291805	-2.953063192	-1.0734905696	 0.277449
H	 0.1178740882	-2.4146943521	 3.1017898699	 0.270679
H	 0.1654171686	-1.2659533629	 4.418514146	 0.257722
53.8783	99.4003	155.2273	184.6934	197.2295	283.2005	306.4339	419.6887	506.9772	517.0805	582.3257	654.5087	662.7106	692.6892	699.7624	789.4033	818.4471	956.8633	1013.528	1069.6686	1086.7047	1092.0515	1138.7508	1220.0966	1308.6223	1350.3833	1395.7049	1424.9629	1474.2038	1475.3923	1485.3083	1514.7767	1597.8778	1607.0599	1776.1661	3045.681	3111.5799	3117.7147	3259.2787	3605.4743	3668.6113	3748.4036
CC1=CNN=C1C(N)=O	Cc1c[nH]nc1C(=O)N	
InChI=1S/C5H7N3O/c1-3-2-7-8-4(3)5(6)9/h2H,1H3,(H2,6,9)(H,7,8)	InChI=1S/C5H7N3O/c1-3-2-7-8-4(3)5(6)9/h2H,1H3,(H2,6,9)(H,7,8)
