21
gdb 116519	2.97908	1.11173	0.87014	2.8594	75.33	-0.2411	0.0689	0.31	1350.4016	0.183391	-461.340488	-461.331391	-461.330447	-461.374521	33.911	
O	 0.2804674293	 1.3227488296	-0.1681998523	-0.419291
C	 0.1327755168	-0.0885523461	-0.2221002666	-0.094072
C	-1.3069750513	-0.4367535034	 0.1600529169	 0.006664
C	-2.2993383807	 0.1479123464	-0.8603783516	-0.095541
O	-3.6250540956	 0.1574148048	-0.3669204704	-0.245833
C	-4.3960292404	-1.0140782875	-0.5387430935	-0.057804
C	-3.6323871622	-2.3410740612	-0.4496057865	-0.108334
O	-2.7412074527	-2.4091587978	 0.6436762869	-0.237643
C	-1.4348539295	-1.9552819127	 0.3437807749	-0.098667
H	 1.1649132678	 1.546484953	-0.4716896116	 0.288721
H	 0.3530297164	-0.4718681422	-1.2330714307	 0.085059
H	 0.8301874132	-0.585836459	 0.4712488378	 0.089048
H	-1.5256853273	 0.048916895	 1.1185684268	 0.101733
H	-2.0341077073	 1.1932600141	-1.0358156165	 0.127206
H	-2.2243759484	-0.3768250948	-1.8269442177	 0.078732
H	-5.155366869	-0.9757099407	 0.2497376837	 0.112682
H	-4.9240193543	-1.0006393244	-1.5089283006	 0.082276
H	-4.3703729526	-3.1432547875	-0.3251656471	 0.105603
H	-3.0924407654	-2.5444195072	-1.3870667005	 0.090459
H	-1.0644371837	-2.469152414	-0.5619728437	 0.081105
H	-0.809370313	-2.2801231943	 1.1821043521	 0.107898
76.6947	106.6253	159.114	203.3431	247.1201	263.4952	320.0716	342.935	389.5251	426.3696	472.8673	568.4797	607.4793	835.6861	852.2184	860.8611	915.7566	949.2451	976.7206	1010.675	1069.2855	1073.5045	1121.3244	1133.8619	1154.5985	1172.7045	1205.8892	1234.3483	1258.8964	1272.4049	1288.6681	1304.9934	1316.0312	1343.6975	1369.5639	1391.1143	1413.7172	1420.4244	1431.6926	1459.595	1486.875	1496.5708	1499.4242	1514.8246	1521.4959	2938.9763	2949.7947	2954.6904	2969.6076	2983.4769	2991.7784	3047.4103	3049.1096	3069.1866	3071.2263	3101.4389	3831.9158
OCC1COCCOC1	OCC1COCCOC1	
InChI=1S/C6H12O3/c7-3-6-4-8-1-2-9-5-6/h6-7H,1-5H2	InChI=1S/C6H12O3/c7-3-6-4-8-1-2-9-5-6/h6-7H,1-5H2
