18
gdb 55024	3.07009	1.19852	1.05005	3.9336	73.33	-0.238	-0.0349	0.2031	1208.4564	0.145797	-439.048836	-439.039766	-439.038822	-439.083472	32.412	
C	 0.3375530498	 1.2544682916	-0.6445105101	-0.485348
C	 0.0511922316	 0.0669322747	 0.2520466255	 0.376621
O	 0.901396057	-0.4603007221	 0.9305398875	-0.294963
C	-1.3756622128	-0.4234115181	 0.2164988573	-0.065742
O	-1.6728804229	-1.6555334707	 0.866139071	-0.233872
C	-2.2665192706	-0.4881376431	 1.4097506981	 0.047742
C	-1.9128788648	-0.1017671964	 2.812037274	-0.042157
C	-1.8733546763	-1.1744766579	 3.8457505497	-0.232815
N	-0.6492500906	-0.4772884836	 3.4413268213	-0.31602
H	 1.3534197978	 1.6093432615	-0.4705429327	 0.153035
H	 0.2268440516	 0.9660766794	-1.696536998	 0.147908
H	-0.3798145168	 2.0615930638	-0.4576515018	 0.144043
H	-1.8689669183	-0.2907393951	-0.748735646	 0.103567
H	-3.332697181	-0.383033336	 1.1892612983	 0.102451
H	-2.2893502771	 0.8813353835	 3.0920372824	 0.093418
H	-2.2190940108	-0.966869422	 4.8544808582	 0.116398
H	-2.0244699744	-2.1950810175	 3.5040559801	 0.125038
H	-0.1029951515	-1.0465531718	 2.7975436153	 0.260695
56.4103	82.9028	113.2736	157.114	194.6232	245.3927	269.1744	377.5381	463.5692	580.8619	620.666	655.1216	717.9522	817.3631	840.1689	888.6949	916.5026	945.8933	973.8916	1001.9548	1004.4699	1056.1832	1105.1514	1120.6986	1135.5595	1140.9096	1193.6325	1194.0606	1266.4347	1280.7624	1314.3639	1379.3579	1396.3937	1413.5376	1452.3985	1462.8971	1473.6471	1508.336	1812.8162	3034.6884	3066.3397	3090.4969	3095.5891	3108.5331	3116.0234	3159.0187	3197.4063	3498.5587
CC(=O)C1OC1C1CN1	CC(=O)[C@H]1O[C@H]1[C@H]1CN1	
InChI=1S/C6H9NO2/c1-3(8)5-6(9-5)4-2-7-4/h4-7H,2H2,1H3	InChI=1S/C6H9NO2/c1-3(8)5-6(9-5)4-2-7-4/h4-7H,2H2,1H3/t4-,5-,6+/m1/s1
