17
gdb 25718	2.65435	1.55876	0.98906	3.5497	81.69	-0.1887	-0.0216	0.1671	1156.0025	0.136672	-418.07671	-418.06795	-418.067005	-418.110047	32.949	
C	-0.0165559936	 1.5033920625	 0.0052773638	-0.505496
C	-0.0485500503	-0.0199442289	 0.0413103731	 0.317175
O	-0.0594838022	-0.6181081846	 1.1196122819	-0.379946
C	-0.0542960611	-0.730163296	-1.2053806663	 0.151403
C	-0.0410666619	-2.1234150774	-1.3927129938	 0.258683
N	-0.1357277842	-3.0416855768	-0.3775498077	-0.606236
C	 0.0242790398	-2.365706969	-2.7893029565	-0.234502
C	 0.0398425715	-1.133824328	-3.4157431247	-0.0595
N	-0.0098322135	-0.1570290828	-2.4782848743	-0.341555
H	 0.8781092071	 1.867924945	-0.5132789082	 0.127719
H	-0.8924766485	 1.9044953601	-0.5184506315	 0.128419
H	-0.0121140844	 1.879685761	 1.028700103	 0.14395
H	 0.0165808073	-2.6405394362	 0.540362948	 0.271146
H	 0.2771339349	-3.9458866901	-0.540891778	 0.244327
H	 0.0464332131	-3.3271540894	-3.2786569101	 0.094961
H	 0.0772966638	-0.894738764	-4.4673518781	 0.12704
H	-0.0182810578	 0.8289796546	-2.6660147905	 0.262412
92.593	102.5227	165.969	188.9108	306.7454	316.7837	359.4116	401.6912	442.8055	495.4362	567.6923	613.4037	635.1022	640.1426	718.9074	725.3937	766.909	827.0929	901.1608	940.987	1036.4591	1049.2463	1092.9707	1104.6496	1156.4894	1253.3493	1318.7514	1359.6474	1374.0793	1459.661	1475.6244	1480.4106	1498.3053	1531.9105	1578.519	1644.1735	1703.84	3026.1207	3085.8205	3150.2678	3245.1446	3263.5358	3524.0959	3671.1334	3698.1996
CC(=O)C1=C(N)C=CN1	CC(=O)c1c(N)cc[nH]1	
InChI=1S/C6H8N2O/c1-4(9)6-5(7)2-3-8-6/h2-3,8H,7H2,1H3	InChI=1S/C6H8N2O/c1-4(9)6-5(7)2-3-8-6/h2-3,8H,7H2,1H3
