13
gdb 66055	2.84778	1.27983	1.12862	3.1591	63.47	-0.3061	-0.0384	0.2677	1069.9666	0.087508	-452.725187	-452.716601	-452.715657	-452.759193	29.656	
O	 0.0019525252	 1.4150646979	-0.2774158517	-0.43175
C	 0.0327396938	 0.0364343249	-0.0687353483	 0.202582
C	 0.0145557155	-0.4720445403	 1.404458832	-0.112057
O	-1.246010675	-1.1427913336	 1.198224081	-0.260218
C	-1.3932738548	-0.6187831723	-0.1284527515	-0.07887
C	-2.5012869713	 0.3284814048	-0.2599158548	 0.326456
N	-3.3970270112	 1.0492105772	-0.3675781157	-0.310848
C	 1.0216223334	-0.6275864344	-0.9237413275	 0.23509
N	 1.8271980393	-1.125768635	-1.5855781315	-0.314266
H	 0.9017203542	 1.7545539244	-0.3464587748	 0.310386
H	 0.8060562288	-1.1655782466	 1.6997265473	 0.138862
H	-0.0656484695	 0.3571492531	 2.1153727797	 0.138333
H	-1.5040984884	-1.41367645	-0.8729238641	 0.156302
43.7712	128.839	151.4597	178.5802	210.4547	250.241	352.2548	389.6381	476.9878	510.8226	575.5096	599.5242	673.6625	861.7922	910.819	947.7786	990.1749	1030.8942	1053.9066	1130.9837	1159.2458	1201.5788	1267.7498	1318.5828	1351.9561	1377.7807	1508.2369	2356.5371	2365.7548	3045.1626	3067.4006	3113.7567	3809.6905
OC1(COC1C#N)C#N	O[C@]1(CO[C@H]1C#N)C#N	
InChI=1S/C5H4N2O2/c6-1-4-5(8,2-7)3-9-4/h4,8H,3H2	InChI=1S/C5H4N2O2/c6-1-4-5(8,2-7)3-9-4/h4,8H,3H2/t4-,5-/m0/s1
