22
gdb 32889	4.9636	0.73819	0.68273	1.9543	91.51	-0.1966	0.0478	0.2444	1752.7528	0.19443	-367.25774	-367.247787	-367.246843	-367.293723	35.945	
C	-0.0149228777	 1.6143229039	 0.0989988969	-0.378716
C	 0.0054727951	 0.0843818123	 0.1336146114	-0.145557
C	-1.3785401322	-0.5424350397	-0.119450041	-0.304426
C	-1.3767000108	-2.043167104	-0.0713196514	 0.273425
C	-1.5218919597	-2.9002671154	-1.1410720887	-0.202626
N	-1.460083128	-4.1964014229	-0.6874658433	 0.027649
C	-1.479153625	-5.378765817	-1.5200519521	-0.333778
C	-1.265272269	-4.1785607204	 0.6706452396	-0.086764
C	-1.2119539139	-2.8676528107	 1.0822977353	-0.269105
H	 0.9795485138	 2.0325889739	 0.2845194887	 0.107998
H	-0.3550346948	 1.9850380125	-0.8747937739	 0.110165
H	-0.6931907538	 2.019273412	 0.858835623	 0.111024
H	 0.7095846135	-0.2985800299	-0.6153109484	 0.094328
H	 0.3818006432	-0.2600182843	 1.1048255782	 0.097055
H	-2.084413508	-0.143606407	 0.6223393417	 0.095607
H	-1.7481417422	-0.2087987974	-1.0975419271	 0.089416
H	-1.6701589704	-2.693080611	-2.190080812	 0.106174
H	-0.4832424028	-5.6234614781	-1.9090304157	 0.135246
H	-1.8441354943	-6.2295397367	-0.9396882751	 0.137997
H	-2.1545251223	-5.2261577367	-2.3659833462	 0.138149
H	-1.188039391	-5.1014131041	 1.224337318	 0.109698
H	-1.0919777396	-2.5302668393	 2.1013295921	 0.087042
38.6858	82.8255	87.7437	105.3749	180.3189	239.86	264.6888	308.6175	354.7228	407.4609	613.947	628.2246	670.5252	689.7473	735.6129	744.319	770.8009	809.0171	870.9285	894.5183	991.0866	1016.656	1043.3963	1078.4337	1083.7347	1108.7482	1111.5523	1148.5387	1191.9709	1243.321	1282.4294	1306.4304	1323.7387	1369.646	1389.4321	1404.3691	1409.6289	1421.4957	1454.6201	1480.7476	1488.7206	1492.6566	1498.3851	1510.0591	1515.2295	1545.864	1602.5238	3004.8827	3024.7133	3025.3735	3027.69	3038.2803	3062.5332	3093.1394	3093.318	3098.368	3127.4184	3234.2333	3244.8615	3258.6297
CCCC1=CN(C)C=C1	CCCc1cn(C)cc1	
InChI=1S/C8H13N/c1-3-4-8-5-6-9(2)7-8/h5-7H,3-4H2,1-2H3	InChI=1S/C8H13N/c1-3-4-8-5-6-9(2)7-8/h5-7H,3-4H2,1-2H3
