20
gdb 6853	3.27474	1.7863	1.57288	1.1506	76.64	-0.2431	0.0232	0.2663	934.084	0.177305	-349.017011	-349.008952	-349.008008	-349.048721	31.557	
C	-0.0340304996	 1.5384567034	-0.0104880415	-0.426985
C	-0.0185707781	 0.0003952896	 0.0094160284	 0.228135
C	-1.4620837915	-0.5423442233	 0.0221482865	-0.41005
C	 0.7309425638	-0.5186511244	-1.232561961	-0.103405
O	 1.0041907915	-1.9062884576	-1.1414754342	-0.253657
C	 1.9226423346	-2.2057316175	-0.1083985158	-0.11963
C	 1.6216737349	-1.4798024815	 1.1734441349	-0.096989
C	 0.7300015465	-0.4940923167	 1.230508297	-0.067126
H	 0.9808375471	 1.9490237489	 0.01318801	 0.115438
H	-0.5320894499	 1.9132262845	-0.9119341521	 0.112373
H	-0.5762110819	 1.9334868814	 0.8554605236	 0.113506
H	-2.0452590305	-0.1156697118	-0.8025082936	 0.105715
H	-1.4582400502	-1.6301341437	-0.0830546441	 0.128964
H	-1.9708034561	-0.2900564086	 0.9585750323	 0.107233
H	 0.1270997406	-0.3858068614	-2.1361429355	 0.100806
H	 1.66867362	 0.0473549054	-1.3619958379	 0.081907
H	 1.8696835945	-3.2907132171	 0.0421727041	 0.115871
H	 2.9565271505	-1.9814321297	-0.4332158602	 0.095609
H	 2.1714566478	-1.7982173245	 2.0555735936	 0.090373
H	 0.511084936	-0.0010517757	 2.1758976755	 0.081909
121.4661	221.0175	228.5787	253.7395	279.7769	326.9032	337.6317	399.2735	484.4796	504.3665	526.7339	706.5285	734.2764	832.6158	905.9643	911.2579	929.6199	949.5334	989.7142	999.3051	1014.0432	1034.87	1064.9072	1127.2125	1191.6536	1195.4258	1225.388	1258.5612	1295.9913	1324.1718	1368.6424	1390.5883	1401.5238	1408.0306	1433.2282	1481.7537	1485.1877	1486.6792	1497.8644	1500.6496	1510.0487	1721.5642	2925.594	2965.0969	3022.9884	3027.7074	3048.1178	3072.1761	3089.2681	3094.208	3098.2117	3120.589	3136.6411	3166.479
CC1(C)COCC=C1	CC1(C)COCC=C1	
InChI=1S/C7H12O/c1-7(2)4-3-5-8-6-7/h3-4H,5-6H2,1-2H3	InChI=1S/C7H12O/c1-7(2)4-3-5-8-6-7/h3-4H,5-6H2,1-2H3
