19
gdb 39302	2.61739	2.05245	1.78591	2.3218	72.52	-0.2313	0.0708	0.3021	875.6968	0.163325	-423.014714	-423.008347	-423.007403	-423.045216	26.94	
C	-0.0996952362	 1.5577099303	-0.0633295805	-0.255876
C	 1.3728892463	 2.0165036301	 0.1457004214	-0.222463
C	 2.0779080939	 0.7997211155	 0.7692449439	 0.086498
O	 1.7859261026	 0.6798046764	 2.1600783767	-0.270604
C	 0.5057819638	 0.1396508875	 2.4742803376	-0.079823
C	 0.0168940048	-0.7399392699	 1.3330682619	 0.048382
O	 1.1736713913	-1.5035595653	 0.8853421155	-0.289769
C	 1.4622700035	-0.4046201238	-0.0018666161	 0.074539
C	-0.0170154877	 0.0254467783	-0.0292883051	-0.032786
H	-0.7622143488	 1.9504997653	 0.7146429794	 0.107525
H	-0.4985164264	 1.9097764295	-1.0183670343	 0.100908
H	 1.8346837745	 2.2501289501	-0.8211727917	 0.100188
H	 1.4759763055	 2.8996202842	 0.7803383624	 0.110328
H	 3.1673072182	 0.8566477749	 0.7059240542	 0.081337
H	 0.6350658528	-0.460272699	 3.3817266882	 0.114267
H	-0.2216666848	 0.9368081631	 2.696004423	 0.089847
H	-0.8319581908	-1.370920942	 1.6102872795	 0.079952
H	 2.0122766702	-0.7009411637	-0.8982634272	 0.07872
H	-0.6384948027	-0.4925528115	-0.7598743489	 0.078829
137.3625	275.9745	362.7206	382.0001	425.7737	544.7174	648.7837	668.1033	695.2639	778.4286	802.5034	834.1372	869.9655	894.0656	908.6601	933.9535	985.8429	993.7639	1002.4512	1019.6766	1047.3167	1052.2449	1097.3181	1139.2848	1148.0105	1174.6874	1220.079	1235.4531	1250.4893	1277.6755	1286.9747	1295.8701	1317.9186	1328.9082	1350.0186	1358.16	1370.4155	1408.3454	1476.3555	1494.9411	1513.6426	2977.7287	3037.5512	3052.5735	3061.5052	3076.2701	3078.0463	3087.2938	3090.4673	3108.3438	3113.1891
C1CC2OCC3OC2C13	C1C[C@H]2OC[C@@H]3O[C@H]2[C@H]13	
InChI=1S/C7H10O2/c1-2-5-7-4(1)6(9-7)3-8-5/h4-7H,1-3H2	InChI=1S/C7H10O2/c1-2-5-7-4(1)6(9-7)3-8-5/h4-7H,1-3H2/t4-,5-,6+,7+/m1/s1
