23
gdb 109308	2.18587	1.40396	1.12713	1.5995	87.97	-0.2236	0.0219	0.2456	1252.9301	0.203849	-388.312364	-388.302127	-388.301183	-388.347778	38.071	
C	 0.1866371941	 1.6592319285	 0.0925261933	-0.370821
C	-0.0156878931	 0.1388431674	-0.0546447828	-0.299081
C	 0.6886560982	-0.4570548187	-1.2439306905	 0.300545
C	 1.9279187704	-0.9402431912	-1.2831767619	-0.214036
C	 2.26113973	-1.4347373995	-2.6580680494	-0.129087
O	 1.0997633829	-1.1707779619	-3.4347890981	-0.307531
C	 0.0499909062	-0.6123642948	-2.6198729499	 0.282582
C	-1.1239687651	-1.6060765958	-2.6005415284	-0.408248
C	-0.3798927405	 0.7157879852	-3.2589559624	-0.407843
H	 1.2494260075	 1.8989383933	 0.1938687705	 0.120581
H	-0.1959167501	 2.2046495642	-0.7742468874	 0.124347
H	-0.3333003545	 2.0317724579	 0.9809180644	 0.112156
H	 0.3475246847	-0.3518726916	 0.8552894628	 0.107883
H	-1.0895838173	-0.0761171362	-0.1103158445	 0.103531
H	 2.6211555608	-0.9927232595	-0.4514028964	 0.093641
H	 3.1291118945	-0.9184126987	-3.0985790581	 0.100549
H	 2.4926380832	-2.5129397536	-2.6714083494	 0.098193
H	-0.809885241	-2.560060232	-2.1683822631	 0.115653
H	-1.967155324	-1.2208807161	-2.0181067679	 0.109145
H	-1.470456325	-1.7865760992	-3.6224318724	 0.120733
H	-0.6980168164	 0.539061552	-4.2908876173	 0.120857
H	-1.2176949573	 1.1675097577	-2.7180410225	 0.109923
H	 0.4530131921	 1.4235969525	-3.2729719886	 0.116329
40.3841	70.8932	154.6626	201.4818	215.0993	243.7246	259.7851	276.5521	305.0022	342.3693	414.5611	435.3416	565.4168	650.8359	685.1748	765.9608	794.6595	830.7217	851.2056	917.6984	940.4156	963.9941	969.9637	1005.6035	1047.6369	1067.5119	1084.0894	1095.7623	1155.7346	1179.4896	1193.5692	1210.3604	1251.309	1276.2431	1346.2179	1357.7769	1378.7965	1389.3253	1408.4077	1410.2053	1474.8634	1480.1345	1484.1284	1493.6303	1500.2896	1503.7901	1509.112	1525.9612	1721.5675	2961.2336	2978.3921	3029.3012	3034.8745	3039.1646	3040.6577	3064.8407	3105.5058	3108.6543	3112.4397	3117.8932	3120.3302	3120.7887	3197.9465
CCC1=CCOC1(C)C	CCC1=CCOC1(C)C	
InChI=1S/C8H14O/c1-4-7-5-6-9-8(7,2)3/h5H,4,6H2,1-3H3	InChI=1S/C8H14O/c1-4-7-5-6-9-8(7,2)3/h5H,4,6H2,1-3H3
