20
gdb 115679	2.27935	1.28485	0.97985	2.6476	74.69	-0.2347	0.028	0.2628	1284.0592	0.170526	-440.30781	-440.298133	-440.297189	-440.343113	35.008	
C	 0.9882115437	 1.6054480234	 0.3722308639	-0.396113
C	 0.493955322	 0.1581884053	 0.289727916	-0.191771
C	 0.5182354332	-0.3855039088	-1.1346128297	-0.032882
C	 1.8942970677	-0.7663605662	-1.7287833207	-0.083789
O	 1.5032332992	-2.1524072706	-1.8826772392	-0.302959
C	 0.1814987778	-1.8884318947	-1.3579920748	 0.021316
C	-0.179050146	-2.7079466875	-0.1233680051	 0.359102
N	 0.8110380455	-3.5340736885	 0.296634013	-0.517398
O	-1.264879384	-2.584886479	 0.41314811	-0.375214
H	 2.0171287648	 1.7015804193	 0.0066762811	 0.114164
H	 0.3606856154	 2.2731712027	-0.2284697584	 0.117649
H	 0.9696827855	 1.9695951493	 1.4035983624	 0.119206
H	 1.1123557485	-0.4820499806	 0.9318775392	 0.10234
H	-0.5268306839	 0.0819308221	 0.678791423	 0.129852
H	-0.0633983445	 0.2664126891	-1.7917690699	 0.084279
H	 2.1488273951	-0.3136742346	-2.6934227989	 0.108389
H	 2.747140787	-0.6585018912	-1.0465092596	 0.10298
H	-0.5961300018	-2.0698090232	-2.1088132151	 0.107824
H	 1.6485153316	-3.6102371213	-0.2574748126	 0.271922
H	 0.6376403431	-4.1624578749	 1.0629883254	 0.261102
50.8904	78.9271	109.9904	125.9781	217.6256	250.5696	286.2325	330.5689	389.697	415.6905	493.3699	525.2633	653.2662	712.6348	761.9768	801.3306	850.8429	884.7413	960.3604	968.2513	988.3062	1026.4009	1036.2284	1079.8746	1097.9824	1136.3662	1157.9891	1185.9988	1238.5209	1260.2527	1294.1385	1329.0432	1335.3563	1360.6563	1374.2199	1399.7619	1415.2209	1488.1242	1501.4004	1507.2128	1525.1622	1589.3766	1797.5564	3016.6999	3027.9512	3029.6508	3043.4701	3060.5502	3071.0098	3080.3798	3098.4688	3106.9096	3590.4496	3733.4104
CCC1COC1C(N)=O	CC[C@H]1CO[C@H]1C(=O)N	
InChI=1S/C6H11NO2/c1-2-4-3-9-5(4)6(7)8/h4-5H,2-3H2,1H3,(H2,7,8)	InChI=1S/C6H11NO2/c1-2-4-3-9-5(4)6(7)8/h4-5H,2-3H2,1H3,(H2,7,8)/t4-,5+/m0/s1
