19
gdb 74391	3.2348	1.53701	1.19992	1.5133	80.88	-0.2132	0.0119	0.2251	1073.3663	0.159262	-385.839927	-385.832177	-385.831233	-385.871583	31.571	
C	-0.0535198912	 1.5028096418	 0.0247939867	-0.506019
C	-0.0016924785	 0.0150560203	-0.0403964628	 0.340207
C	-0.0268614326	-0.8294110393	-1.0745868837	-0.337491
C	 0.0486684434	-2.2087045431	-0.4258718244	 0.414792
O	-0.0251360263	-3.3572306143	-1.2105034886	-0.491479
C	-0.8269965475	-2.1653160568	 0.870544417	-0.064664
C	 0.187102592	-3.0842015034	 1.5953561856	-0.266123
C	 1.0601066198	-2.0940235279	 0.7883056775	-0.104006
C	 0.0890426594	-0.919946435	 1.1656658059	-0.123241
H	 0.8357040755	 1.9129618894	 0.521141619	 0.126257
H	-0.1193865249	 1.9467147678	-0.9724614909	 0.124951
H	-0.9180107743	 1.8472428663	 0.6071392927	 0.127724
H	-0.104168231	-0.6299019835	-2.1350906261	 0.095149
H	 0.709771614	-3.3456438142	-1.8324819666	 0.281384
H	-1.9191644203	-2.1897533111	 0.9087784177	 0.068119
H	 0.2318082788	-2.9990277791	 2.6844481123	 0.084634
H	 0.2097159006	-4.126508696	 1.273436802	 0.105971
H	 2.1510617911	-2.0358383475	 0.7290814189	 0.060852
H	 0.117937562	-0.5101746643	 2.1755856376	 0.062983
164.2113	178.55	240.9855	262.5851	318.521	335.6668	451.0158	474.3005	538.2064	560.9581	644.8926	732.5218	761.7201	797.3859	837.707	881.9323	899.17	909.8245	926.7397	1003.4465	1030.514	1035.4346	1057.8861	1064.1799	1088.9654	1116.3349	1124.0567	1131.3192	1184.2118	1198.2568	1220.0624	1226.9386	1273.9341	1297.3402	1318.4008	1363.5234	1413.81	1478.3853	1487.1982	1510.161	1701.0696	3013.2572	3056.5641	3057.55	3070.3899	3084.5104	3107.5239	3117.8515	3128.7454	3219.1235	3810.2483
CC1=CC2(O)C3CC2C13	CC1=C[C@]2(O)[C@H]3C[C@@H]2[C@@H]13	
InChI=1S/C8H10O/c1-4-3-8(9)5-2-6(8)7(4)5/h3,5-7,9H,2H2,1H3	InChI=1S/C8H10O/c1-4-3-8(9)5-2-6(8)7(4)5/h3,5-7,9H,2H2,1H3/t5-,6+,7-,8-
