18
gdb 108700	3.35525	1.52916	1.21631	1.946	79.32	-0.2091	-0.0418	0.1673	1029.2922	0.147719	-401.81822	-401.810607	-401.809663	-401.85013	30.018	
O	-0.2151339494	 1.4671220118	-0.250576939	-0.411156
C	-0.2048608265	 0.0548148423	-0.2587080955	-0.129981
C	-1.4237686492	-0.5586098012	 0.3613474607	 0.192624
C	-2.5580745805	 0.1445972833	 0.6256110664	-0.105284
C	-3.2128020163	 0.6928775162	-0.6595732238	-0.162343
N	-4.0113117368	-0.6117170857	-0.6869858555	-0.154691
C	-3.2925925295	-1.8657983708	-0.1165471467	-0.015833
C	-1.7766763102	-2.0163795374	 0.1098058912	-0.324493
C	-3.7602539795	-0.7952012442	 0.7675653723	-0.074156
H	-0.6084268806	 1.7374830361	 0.5884685899	 0.283443
H	-0.1183392829	-0.2499384658	-1.3133532975	 0.118758
H	 0.6970805931	-0.3462536106	 0.2403110347	 0.102332
H	-3.9506000264	 1.4921323311	-0.5440346472	 0.117432
H	-2.5600605945	 0.8957580015	-1.5110754524	 0.125717
H	-3.9005105386	-2.7361509363	-0.3451054195	 0.102331
H	-1.2083195734	-2.3809308475	-0.7541709316	 0.119343
H	-1.6120061531	-2.737813579	 0.9225191492	 0.122798
H	-4.5485385157	-0.7941860039	 1.5122040744	 0.093159
111.6271	165.5554	181.2869	297.1186	319.7178	403.6665	429.2569	489.3854	570.5544	644.8036	721.9874	744.1931	793.1329	847.7113	879.7407	910.7485	938.0751	984.81	987.5473	1016.3547	1036.5729	1065.3631	1077.443	1078.1114	1118.9729	1136.3894	1180.9666	1211.7975	1218.9179	1253.9191	1272.5868	1286.0388	1345.874	1362.1912	1424.3081	1466.9553	1489.1312	1514.606	1584.3428	2928.9627	2995.2904	3008.4446	3053.6566	3058.9561	3123.0137	3161.9425	3174.5228	3774.394
OCC1=C2CN3C(C1)C23	OC[C]1[C]2CN3[C@@H](C1)[C@@H]23	
InChI=1S/C7H9NO/c9-3-4-1-6-7-5(4)2-8(6)7/h6-7,9H,1-3H2	InChI=1S/C7H9NO/c9-3-4-1-6-7-5(4)2-8(6)7/h6-7,9H,1-3H2/t6-,7+,8?/m0/s1
