15
gdb 12597	3.28536	2.19939	1.34163	3.9366	63.57	-0.2267	0.0069	0.2336	871.7356	0.120317	-396.041088	-396.03345	-396.032506	-396.072834	27.944	
C	-0.0667487343	 1.4687633562	 0.0108315299	-0.363297
N	 0.0101177624	 0.0255700453	 0.0288488434	-0.129032
C	-0.002908842	-0.7650100413	-1.1188086949	 0.387752
O	-0.0279102882	-0.3542655842	-2.254455347	-0.374756
C	 0.008664677	-2.1940976184	-0.5703321911	-0.292543
N	 0.0292673048	-2.0835048486	 0.8852211318	-0.331037
C	 0.015470148	-0.8264922186	 1.1394149889	 0.430525
N	-0.0627754879	-0.2719847439	 2.3956896802	-0.582339
H	 0.846468902	 1.9312341085	 0.4043800513	 0.129342
H	-0.181736848	 1.7643031134	-1.0343685047	 0.173531
H	-0.9256557373	 1.8255612365	 0.5878176889	 0.144267
H	-0.8748746957	-2.7365231113	-0.9284691798	 0.141394
H	 0.8850562304	-2.7348777617	-0.9468176105	 0.140541
H	 0.103935829	-0.9539056447	 3.1226615904	 0.268068
H	 0.4426763699	 0.5904958028	 2.5363820134	 0.257586
135.3443	147.9063	169.5841	267.043	274.3072	335.5566	376.3442	541.6129	556.1666	605.0558	621.8702	708.2245	743.7858	758.1654	952.8526	985.3031	1021.0385	1099.918	1154.2731	1171.1135	1181.0626	1233.4085	1274.8944	1351.1236	1421.6705	1452.893	1487.3929	1497.256	1511.974	1624.1268	1727.8474	1837.6544	3022.8889	3037.3896	3067.1899	3085.8096	3136.401	3565.6461	3671.154
CN1C(=O)CN=C1N	CN1C(=O)CN=C1N	
InChI=1S/C4H7N3O/c1-7-3(8)2-6-4(7)5/h2H2,1H3,(H2,5,6)	InChI=1S/C4H7N3O/c1-7-3(8)2-6-4(7)5/h2H2,1H3,(H2,5,6)
