18
gdb 10261	2.06069	2.01156	1.08212	2.4388	74.88	-0.2506	-0.0312	0.2193	1098.6881	0.149803	-347.785584	-347.775962	-347.775018	-347.820213	34.155	
C	-0.0307956854	 1.571739242	 0.0387446969	-0.402201
C	 0.0102262932	 0.0379720357	 0.042566539	 0.020491
C	 0.8060802691	-0.4889761701	 1.2422262744	-0.396923
C	-1.4354453951	-0.5548315877	 0.0262229683	-0.229428
C	-2.1771162525	-0.0943837471	-1.2338232909	 0.161079
O	-3.09203155	 0.6832108322	-1.2394249147	-0.246239
C	-1.4486685898	-2.013469291	 0.0357935749	 0.290956
C	-1.4799144104	-3.2142857159	-0.0231477958	-0.434454
H	 0.9851806406	 1.9773271447	 0.0196436645	 0.116853
H	-0.5696657557	 1.973041478	-0.8240290896	 0.130526
H	-0.5246472742	 1.9504588776	 0.9409168555	 0.123227
H	 0.5066068883	-0.3046192887	-0.8754762423	 0.088192
H	 0.3462693528	-0.1699620269	 2.1848651973	 0.117147
H	 0.8558411186	-1.5804164793	 1.2421171301	 0.132701
H	 1.8281384754	-0.097913982	 1.2216436149	 0.115873
H	-1.9904954084	-0.162032413	 0.886823222	 0.12022
H	-1.7818506948	-0.5455855959	-2.1713568081	 0.089664
H	-1.5091986621	-4.2757396126	-0.0491193366	 0.202316
53.6239	71.3291	143.7917	176.5929	216.1024	241.8657	256.3226	344.2556	367.1628	409.912	475.739	511.9124	532.7893	635.7701	649.204	832.1067	917.1526	935.1683	948.2514	965.8258	1019.8487	1068.9353	1134.7948	1153.5584	1186.8801	1244.0392	1291.3859	1350.6766	1359.2502	1403.8165	1418.96	1426.125	1486.4972	1490.9039	1504.1042	1509.3203	1836.8727	2229.2936	2884.5452	3014.5673	3032.0339	3036.4009	3045.2384	3096.8614	3104.1827	3115.4509	3124.2623	3502.4431
CC(C)C(C=O)C#C	CC(C)[C@@H](C=O)C#C	
InChI=1S/C7H10O/c1-4-7(5-8)6(2)3/h1,5-7H,2-3H3	InChI=1S/C7H10O/c1-4-7(5-8)6(2)3/h1,5-7H,2-3H3/t7-/m1/s1
