16
gdb 30047	2.4535	1.8872	1.07478	1.0709	76.74	-0.2008	-0.0241	0.1766	1066.0663	0.126675	-434.139652	-434.131585	-434.130641	-434.172146	30.387	
C	-0.0240229089	 1.433271731	 0.0313098085	-0.335469
N	 0.0269623458	-0.0251546833	-0.0117746424	-0.129494
C	 0.2153911953	-0.7010730708	-1.190139129	 0.080427
N	 0.2878818608	-1.9862845909	-1.2897170491	-0.288359
C	 0.1566659134	-2.7117176852	-0.1362280358	-0.086838
C	-0.0497815733	-2.1476321916	 1.0936671605	 0.160156
N	-0.2505009895	-2.8200356185	 2.279982875	-0.580005
C	-0.1075576402	-0.6943172343	 1.2045485537	 0.416678
O	-0.2504896417	-0.0876785264	 2.2612390092	-0.430638
H	 0.0950896021	 1.8222314395	-0.980488572	 0.133456
H	-0.9790146262	 1.7618023464	 0.4472681501	 0.15902
H	 0.7712388095	 1.8167324724	 0.6744580838	 0.158022
H	 0.3064334659	-0.0781251755	-2.0748963122	 0.124378
H	 0.2209394687	-3.7911021262	-0.2466380239	 0.099842
H	 0.1558716685	-3.7382401775	 2.3641582648	 0.252457
H	-0.1363111801	-2.2253365591	 3.089929139	 0.266368
100.8178	129.6939	210.5442	279.9378	292.2267	338.6323	385.1042	471.8636	497.5901	527.2977	575.5525	611.9681	616.1926	698.3173	799.2966	880.4869	883.1867	922.7117	1023.2416	1070.3071	1129.6396	1154.8168	1192.3992	1272.1946	1329.1993	1374.4808	1424.3222	1448.1509	1462.507	1469.3932	1511.3717	1580.5108	1628.5133	1654.0684	1742.9347	3059.9978	3129.4672	3154.1948	3157.5742	3175.4798	3557.7647	3680.164
CN1C=NC=C(N)C1=O	Cn1cncc(N)c1=O	
InChI=1S/C5H7N3O/c1-8-3-7-2-4(6)5(8)9/h2-3H,6H2,1H3	InChI=1S/C5H7N3O/c1-8-3-7-2-4(6)5(8)9/h2-3H,6H2,1H3
