13
gdb 132670	3.19161	1.28215	0.91469	1.3146	64.09	-0.2288	-0.0114	0.2175	1118.9355	0.088642	-505.878995	-505.871983	-505.871039	-505.910404	27.458	
O	 0.0810139524	 1.3696810856	-0.0650376274	-0.436841
C	 0.0588768308	 0.0144019414	-0.0515183837	 0.308157
C	 0.0343935481	-0.6961158862	-1.247400568	-0.368054
C	 0.0121011357	-2.0839214624	-1.1979704361	 0.327926
F	-0.0113725762	-2.759864395	-2.3518212416	-0.082427
C	 0.0132541567	-2.7907706638	-0.0039918847	-0.263374
C	 0.0378559512	-2.0735299553	 1.1923630871	-0.218772
C	 0.0601194518	-0.6941537237	 1.1530397504	 0.15964
F	 0.0843014651	 0.0372594069	 2.2882286944	-0.100641
H	 0.0958401618	 1.6729458064	 0.8514887099	 0.305825
H	 0.0328538482	-0.1729449658	-2.1949420635	 0.12803
H	-0.0046766812	-3.8727215037	-0.0165424523	 0.117635
H	 0.0398721155	-2.5757008045	 2.1524011755	 0.122896
159.1272	235.7448	298.8866	344.6797	384.8624	444.2368	447.4817	472.1928	510.7268	600.2273	629.1256	701.5882	740.2386	790.271	816.4846	872.3656	915.8122	980.9821	1109.8589	1170.9472	1196.4108	1260.1656	1300.9857	1343.247	1376.3288	1501.2006	1546.0166	1656.1532	1663.5769	3204.6151	3220.2879	3222.4232	3792.152
OC1=CC(F)=CC=C1F	Oc1cc(F)ccc1F	
InChI=1S/C6H4F2O/c7-4-1-2-5(8)6(9)3-4/h1-3,9H	InChI=1S/C6H4F2O/c7-4-1-2-5(8)6(9)3-4/h1-3,9H
