18
gdb 13430	3.75372	1.31418	1.15621	4.4303	72.42	-0.2315	0.0334	0.2649	1082.6346	0.152527	-343.967308	-343.958266	-343.957322	-344.001506	31.856	
C	 0.0031999271	 1.5724460831	 0.669653517	-0.418791
C	 0.0657023813	 0.098669842	 0.3249514181	-0.012915
C	 0.2465503845	-0.4267148972	-1.0668880091	-0.006802
C	 0.3762268853	 0.5053591282	-2.2684700473	-0.374209
C	 1.1728815352	-0.0878883299	-3.3446269571	 0.268992
N	 1.8028470787	-0.563734228	-4.1883392771	-0.306082
N	 1.2930214272	-0.5973689745	-0.0657362543	-0.08958
C	 2.5635941449	 0.1048324644	-0.1710370091	-0.325463
H	 0.5823547606	 2.210534133	-0.0002988268	 0.119495
H	-1.0356906515	 1.9178753782	 0.6426111756	 0.128717
H	 0.3773820966	 1.7393874008	 1.6853836688	 0.132247
H	-0.5576692281	-0.5057077097	 0.9847104228	 0.096299
H	-0.2506476328	-1.3591107357	-1.3324388597	 0.106629
H	-0.6242270321	 0.7217721288	-2.6620079027	 0.157722
H	 0.821200924	 1.4672871782	-2.004626858	 0.150758
H	 2.513368992	 1.1442384427	-0.5264688606	 0.097406
H	 3.0365225704	 0.1148504858	 0.8157381423	 0.12955
H	 3.2142226567	-0.45177787	-0.8518269329	 0.146026
40.4506	105.4822	147.8704	151.9714	219.8692	239.17	285.4565	382.249	421.9541	475.9703	523.408	563.0891	732.4413	768.2012	835.4336	929.9493	967.0018	1000.8647	1049.8214	1080.758	1134.5509	1146.8272	1168.8054	1169.4384	1195.9265	1234.7503	1310.1468	1355.6041	1391.8827	1413.1813	1433.1835	1451.1705	1465.0748	1484.7904	1496.7325	1505.2846	1507.6324	2362.1309	2993.1775	3040.4132	3048.2941	3074.1393	3089.797	3096.8821	3102.4589	3111.3039	3115.3485	3131.4107
CC1C(CC#N)N1C	C[C@H]1[C@@H](CC#N)N1C	
InChI=1S/C6H10N2/c1-5-6(3-4-7)8(5)2/h5-6H,3H2,1-2H3	InChI=1S/C6H10N2/c1-5-6(3-4-7)8(5)2/h5-6H,3H2,1-2H3/t5-,6+,8?/m0/s1
