15
gdb 64750	2.72883	1.29246	1.11496	4.8842	65.01	-0.2615	-0.014	0.2474	1101.8717	0.112584	-453.97079	-453.962195	-453.961251	-454.004512	30.632	
N	-0.1711325557	 1.4871968858	 0.124609469	-0.555975
C	-0.0318612582	 0.0528294761	 0.0403403412	 0.092412
C	 0.8823021807	-0.456841324	 1.1706203457	-0.37199
C	 2.2125165131	 0.1479021015	 1.1270829792	 0.274336
N	 3.2494542327	 0.6563860771	 1.0972631601	-0.301184
C	-1.3535645849	-0.7396743416	-0.0920747823	-0.113185
O	-0.8996462235	-1.326070086	-1.3500942697	-0.240961
C	 0.2735589119	-0.6076108773	-1.3362007505	 0.41573
O	 1.1201639648	-0.5726988352	-2.1666675919	-0.309315
H	 0.7416936021	 1.9341028266	 0.0913055436	 0.264001
H	-0.7055481814	 1.8483643747	-0.6597009772	 0.246712
H	 0.4188445198	-0.2040529152	 2.1305426188	 0.170288
H	 0.9810077232	-1.54580987	 1.1187976096	 0.165352
H	-1.5469351959	-1.5124113991	 0.6549425518	 0.130325
H	-2.2398478587	-0.1199520834	-0.2426493674	 0.133453
68.6963	100.2363	143.7332	193.7029	270.1815	294.5217	335.9899	382.9037	393.994	509.0032	560.114	724.8455	761.7496	774.4485	860.6504	897.0758	919.395	962.2768	983.7286	1034.5969	1076.7335	1113.2759	1153.1332	1218.5144	1282.6802	1303.6278	1344.1955	1389.9223	1454.4484	1516.6967	1666.3822	1940.2232	2364.8157	3051.2142	3071.5713	3098.7451	3133.9795	3493.9183	3572.5453
NC1(CC#N)COC1=O	N[C@@]1(CC#N)COC1=O	
InChI=1S/C5H6N2O2/c6-2-1-5(7)3-9-4(5)8/h1,3,7H2	InChI=1S/C5H6N2O2/c6-2-1-5(7)3-9-4(5)8/h1,3,7H2/t5-/m0/s1
