23
gdb 118902	3.1916	0.98976	0.96306	0.9012	87.08	-0.2369	0.0284	0.2653	1403.1791	0.204696	-388.303841	-388.294132	-388.293188	-388.33852	36.901	
C	 0.079614388	 1.5702779731	 0.151099819	-0.380516
C	 0.0795881038	 0.0493240981	 0.1460740601	-0.049931
O	 0.6973420472	-0.3788032805	-1.0530881753	-0.299632
C	 0.6398537854	-1.7704314818	-1.3554156626	 0.424749
C	 1.2911641773	-2.6240908475	-0.2592180321	-0.441012
C	-0.8111439852	-2.2743426315	-1.6550422722	-0.305992
C	-0.6504835712	-3.1034965214	-2.9040896582	-0.061598
C	 0.5439699259	-2.9330209568	-3.468043446	-0.063677
C	 1.3980497594	-1.9601800612	-2.6992322625	-0.305281
H	 1.1025199478	 1.9518756248	 0.0832356391	 0.125098
H	-0.4851464443	 1.9575358263	-0.7017307685	 0.122829
H	-0.3727900772	 1.9505906403	 1.0720892634	 0.110584
H	 0.6209737106	-0.3293280614	 1.0262653112	 0.088518
H	-0.9523027552	-0.329977966	 0.2125834083	 0.085989
H	 0.7209695472	-2.602396033	 0.6743203691	 0.112369
H	 1.3436516313	-3.6663159545	-0.5893124966	 0.122375
H	 2.3078969958	-2.2734551448	-0.0557966721	 0.11738
H	-1.242820959	-2.8390980936	-0.8200783908	 0.095518
H	-1.4748890838	-1.4181873491	-1.8363868477	 0.110396
H	-1.4443654535	-3.7327093834	-3.2919618253	 0.088544
H	 0.8760365592	-3.4033829855	-4.3871061309	 0.089562
H	 1.4689723936	-0.9924010401	-3.2110822251	 0.117224
H	 2.4248486269	-2.3116133104	-2.5438770142	 0.096505
61.5677	88.9377	117.3453	179.1986	245.2093	283.4289	320.0605	338.4182	371.5867	396.7543	440.8302	460.0383	645.4429	694.0418	766.9732	778.6235	824.3242	878.1302	909.4332	935.6172	964.7736	974.7036	977.9408	990.3473	994.7913	1088.2149	1106.1969	1127.2484	1138.3208	1154.8515	1175.9637	1191.0781	1217.8156	1272.2666	1292.8128	1303.0711	1340.9656	1371.9577	1398.2714	1402.0095	1426.5262	1475.2378	1481.198	1482.9107	1493.6297	1499.7793	1502.8829	1531.0629	1691.0882	2974.5159	3002.8396	3015.5904	3027.09	3036.2248	3042.8622	3050.2745	3059.6228	3108.3767	3111.2537	3116.6981	3119.7837	3178.3664	3203.9952
CCOC1(C)CC=CC1	CCO[C@@]1(C)CC=CC1	
InChI=1S/C8H14O/c1-3-9-8(2)6-4-5-7-8/h4-5H,3,6-7H2,1-2H3	InChI=1S/C8H14O/c1-3-9-8(2)6-4-5-7-8/h4-5H,3,6-7H2,1-2H3
