19
gdb 59157	2.84748	1.20064	1.06566	4.0844	75.24	-0.2753	0.0007	0.276	1219.7439	0.158005	-423.030246	-423.021469	-423.020525	-423.064144	32.879	
C	 0.0491467844	 1.3672840122	-0.2562111248	-0.390765
C	 0.074842193	-0.1179940735	 0.1337430786	-0.004334
C	 0.7108140594	-0.3307911411	 1.5141758416	-0.389549
C	-1.3331517673	-0.687439405	 0.0977091805	-0.014896
C	-2.013757696	-1.2209396152	-1.1078141843	 0.058687
O	-1.0521472072	-1.8573322537	-1.9947289346	-0.26218
C	-0.7979259488	-2.8290838073	-1.0272431701	 0.466275
O	-0.1259630255	-3.800007697	-1.1460543707	-0.323264
C	-1.6847040659	-2.1891449213	 0.0073226329	-0.311255
H	 1.0607318471	 1.784787393	-0.258033334	 0.118463
H	-0.3766645141	 1.5082211251	-1.2543841336	 0.121863
H	-0.5496122582	 1.9522260223	 0.4524125607	 0.111306
H	 0.675693745	-0.6508214922	-0.6110165266	 0.105768
H	 0.1408313997	 0.1864517552	 2.2954033215	 0.110489
H	 0.7506533829	-1.3929862268	 1.773763975	 0.125402
H	 1.7324503121	 0.0609094955	 1.5351140449	 0.118009
H	-2.0266119201	-0.1866467119	 0.7751710905	 0.104247
H	-2.9601854768	-0.933129228	-1.5435715832	 0.128545
H	-2.3031443537	-2.7020191605	 0.7291200156	 0.12719
50.9374	102.625	170.5743	228.294	242.5113	260.0029	326.8604	408.8338	445.5724	488.546	597.0438	713.6168	738.709	801.9753	824.6307	866.0198	896.7867	932.0319	935.4407	945.2085	969.634	999.2046	1052.4753	1070.138	1085.8451	1106.6474	1140.7645	1189.1648	1220.3251	1273.7053	1301.9433	1336.5013	1348.5391	1400.6726	1419.6422	1444.833	1487.5411	1492.8599	1504.8059	1511.7605	1942.7988	3026.5153	3029.7933	3051.646	3092.5997	3098.9822	3108.569	3109.4971	3111.0823	3219.1296	3232.3922
CC(C)C1C2OC(=O)C12	CC(C)[C@H]1[C@H]2OC(=O)[C@@H]12	
InChI=1S/C7H10O2/c1-3(2)4-5-6(4)9-7(5)8/h3-6H,1-2H3	InChI=1S/C7H10O2/c1-3(2)4-5-6(4)9-7(5)8/h3-6H,1-2H3/t4-,5+,6-/m1/s1
