16
gdb 74820	3.8211	1.16694	0.99862	4.7251	75.94	-0.26	-0.0199	0.2401	1184.0697	0.123856	-400.756766	-400.748825	-400.74788	-400.789174	30.021	
C	 0.088927216	 1.4904369155	 0.045988144	-0.488541
C	-0.0183174624	 0.0021823376	-0.0250266343	 0.308821
C	-0.0681644463	-0.7615866189	-1.1240241751	-0.190686
C	-0.068374976	-2.2071177514	-0.7718749227	-0.054352
O	 1.1051608652	-2.6317197006	-0.0407347844	-0.281287
C	-0.0560415828	-2.2751842631	 0.7110544983	 0.285667
C	-0.0558066811	-0.8422396477	 1.2402476538	-0.384634
C	-0.6769952334	-3.331667018	 1.4701958356	 0.223687
N	-1.1874110555	-4.1545008941	 2.1017923904	-0.335877
H	 1.0256891698	 1.7932876667	 0.5302077012	 0.139783
H	 0.0595226865	 1.9426966279	-0.9482960372	 0.133766
H	-0.7248393052	 1.9174005975	 0.6450676365	 0.134456
H	-0.0675814233	-0.401366794	-2.1450665983	 0.109864
H	-0.5171894343	-2.9737787958	-1.3948637637	 0.123032
H	 0.8075629203	-0.6591393472	 1.8899977902	 0.140944
H	-0.9554055676	-0.6419230942	 1.8347745157	 0.135356
115.7337	145.4093	175.9393	218.9529	317.2996	352.2027	418.15	473.9231	500.315	555.7586	599.8125	676.8729	728.2708	819.5374	866.3162	888.2135	915.3288	959.3084	967.5979	1033.3356	1063.2777	1088.0831	1164.0148	1189.7027	1207.1024	1268.0444	1297.5469	1343.083	1399.3995	1417.2048	1457.8451	1478.3972	1485.089	1696.5735	2358.5773	3023.0218	3039.2751	3071.2832	3078.1777	3120.1915	3177.8491	3214.3313
CC1=CC2OC2(C1)C#N	CC1=C[C@H]2O[C@]2(C1)C#N	
InChI=1S/C7H7NO/c1-5-2-6-7(3-5,4-8)9-6/h2,6H,3H2,1H3	InChI=1S/C7H7NO/c1-5-2-6-7(3-5,4-8)9-6/h2,6H,3H2,1H3/t6-,7-/m1/s1
