18
gdb 77810	2.46917	1.52107	1.348	3.1388	73.53	-0.2501	0.0165	0.2666	1049.717	0.148053	-439.090434	-439.082112	-439.081167	-439.122975	32.049	
C	-0.0346552543	 1.5146747299	-0.0284935639	-0.491889
C	 0.0110251299	 0.008250675	 0.0206012443	 0.239727
C	-1.2561062008	-0.7666106997	-0.3101926139	-0.161541
O	-1.1731287659	-2.0235638492	 0.3910286628	-0.268144
C	-0.2460370869	-1.9415758316	 1.4161022688	 0.409533
N	-0.1874952528	-2.7469550256	 2.3846725646	-0.543809
C	 0.657316992	-0.7988898373	 1.1541773301	-0.231815
C	 1.2624197124	-0.7715538138	-0.244316639	 0.090912
O	 1.3278985452	-1.87575392	-1.089074967	-0.428718
H	 0.9294917043	 1.9462987718	 0.2559016521	 0.128427
H	-0.2681462746	 1.8691007555	-1.0390773396	 0.129864
H	-0.7941896019	 1.9147978697	 0.6528445269	 0.125419
H	-2.1495970846	-0.2273519568	 0.0268979846	 0.118895
H	-1.3590724211	-0.9897836427	-1.3770246427	 0.126655
H	-0.9529741579	-3.4214766668	 2.3368741668	 0.224871
H	 1.1872445227	-0.3629027711	 1.9902762191	 0.114586
H	 2.1776643081	-0.1943989296	-0.328511973	 0.115621
H	 0.601005516	-2.4757582175	-0.882291951	 0.301406
119.5354	183.087	194.725	213.3025	241.9871	290.4479	361.3897	438.4503	468.7754	532.7939	561.0829	670.071	721.0228	755.9199	822.5933	875.9411	892.519	937.1262	955.5845	993.6726	1002.7989	1027.6802	1067.8369	1103.1171	1137.4661	1154.9602	1199.9347	1232.5444	1260.9288	1314.9892	1331.4379	1356.0329	1417.6238	1420.2474	1471.7428	1489.9512	1499.2407	1518.1772	1781.1026	3025.1433	3031.0723	3080.918	3086.9457	3105.5875	3168.6474	3211.2581	3476.1049	3784.0773
CC12COC(=N)C1C2O	C[C@]12CO[C]([NH])[C@H]1[C@H]2O	
InChI=1S/C6H9NO2/c1-6-2-9-5(7)3(6)4(6)8/h3-4,7-8H,2H2,1H3	InChI=1S/C6H9NO2/c1-6-2-9-5(7)3(6)4(6)8/h3-4,7-8H,2H2,1H3/t3-,4-,6+/m1/s1
