18
gdb 92077	2.69149	1.55353	1.14283	4.2164	71.29	-0.257	-0.0232	0.2338	1076.5633	0.149295	-439.090885	-439.083098	-439.082153	-439.123464	30.397	
O	 0.0597517356	 1.4038472958	 0.1215601458	-0.441488
C	 0.0026155294	 0.0141934372	-0.0251320898	 0.051535
C	-1.4507869903	-0.5012793057	 0.0597067527	-0.227559
C	-1.6004454975	-1.9438203963	-0.4009501864	-0.05011
N	-1.7464097177	-2.1341543888	-1.8557534444	-0.323078
C	-0.5355224456	-2.6301819694	-1.1935594435	-0.032173
C	 0.7450078161	-1.9104137219	-1.5746897632	-0.310568
C	 0.6594283435	-0.4168297204	-1.3326845748	 0.371437
O	 1.1184273683	 0.4162493109	-2.0828435961	-0.334414
H	 0.4970835185	 1.7238366511	-0.6849547906	 0.291155
H	 0.5817665633	-0.4764891992	 0.7784178683	 0.087082
H	-1.7942875589	-0.3894669347	 1.092124095	 0.111428
H	-2.0740125959	 0.1469056154	-0.5634082178	 0.129555
H	-2.2039704432	-2.5827162276	 0.2396512097	 0.090937
H	-2.3875062779	-2.895008368	-2.0609526732	 0.23528
H	-0.4334549631	-3.7055658886	-1.0629235353	 0.089365
H	 1.5701382199	-2.2860722826	-0.9529729946	 0.127775
H	 1.0109441755	-2.0887771374	-2.6204008918	 0.133838
65.1957	109.3616	291.9027	320.0491	362.5055	364.357	423.9361	449.9001	511.5625	552.9852	609.135	728.9069	779.7772	798.7614	813.2379	868.476	936.7555	974.9582	1000.1384	1010.4782	1066.7934	1117.3561	1118.8313	1158.3797	1169.3864	1182.3225	1221.2994	1239.5647	1267.1373	1283.4644	1328.9725	1336.748	1368.2258	1396.4117	1445.1694	1453.3054	1460.8607	1485.1094	1807.7199	2939.42	3021.4778	3056.4775	3095.5888	3102.8307	3121.8954	3133.7215	3513.0148	3668.9375
OC1CC2NC2CC1=O	O[C@H]1C[C@H]2N[C@H]2CC1=O	
InChI=1S/C6H9NO2/c8-5-1-3-4(7-3)2-6(5)9/h3-5,7-8H,1-2H2	InChI=1S/C6H9NO2/c8-5-1-3-4(7-3)2-6(5)9/h3-5,7-8H,1-2H2/t3-,4+,5+/m1/s1
