13
gdb 129192	5.88766	1.07515	0.90913	1.9847	82.47	-0.2283	-0.0809	0.1474	1186.2414	0.090182	-411.751462	-411.744064	-411.74312	-411.783465	27.973	
N	-0.0624676264	 1.2335182849	 0.5130284668	-0.55031
C	-0.0067194472	 0.0433735326	 0.047161497	 0.399665
N	 1.1330343971	-0.6829735625	-0.2970062498	-0.314382
N	 1.1661867505	-1.9322380143	-0.784617328	-0.207765
C	 0.0119179117	-2.5172466676	-0.9496883153	 0.186859
N	-1.2258422609	-1.943289832	-0.6594281515	-0.257837
C	-1.2186587132	-0.7447521724	-0.19372181	-0.011914
C	 0.0032313336	-3.845199075	-1.4654109156	 0.287357
C	-0.0283127411	-4.9660782249	-1.8993882525	-0.370033
H	 0.8629394383	 1.6515379919	 0.6255036146	 0.209595
H	 2.0451359242	-0.2633463585	-0.1831837854	 0.27314
H	-2.1625163358	-0.2593868283	 0.0461205655	 0.152247
H	-0.0544327907	-5.956196164	-2.2828497559	 0.203377
74.2503	151.9572	213.4399	375.022	401.4054	431.0145	462.6949	535.7717	535.8051	617.1225	649.5731	649.7361	673.7831	742.6265	795.9926	816.7121	823.6661	989.4786	990.6893	1106.7517	1222.8314	1270.4973	1348.7225	1375.724	1451.5407	1555.1395	1641.3864	1715.3937	2241.1196	3165.0692	3457.9971	3502.9589	3599.3011
N=C1NN=C(N=C1)C#C	[NH]c1[nH]nc(nc1)C#C	
InChI=1S/C5H4N4/c1-2-5-7-3-4(6)8-9-5/h1,3H,(H2,6,8)	InChI=1S/C5H9N4/c1-2-5-7-3-4(6)8-9-5/h1,4-9H,3H2
