21
gdb 81766	2.09131	1.71027	1.2981	1.4292	77.87	-0.2434	0.062	0.3054	1092.4691	0.18001	-424.196843	-424.187102	-424.186158	-424.230323	37.822	
C	-0.1234485288	 1.5886129183	 0.0468368943	-0.45574
C	-0.0179064156	 0.066042437	 0.0249080818	 0.193059
C	-1.3764293263	-0.5814021938	-0.2459056634	-0.431847
C	 1.1052530641	-0.556560821	-0.9117333348	 0.066318
O	 2.0033931245	 0.3241766788	-1.555898775	-0.426929
C	 1.7212552887	-1.2611711114	 0.2881052492	-0.116767
C	 2.1388505358	-0.2341666128	 1.3200188951	-0.359468
C	 0.6939287032	-0.6220421448	 1.2111684676	 0.374047
O	 0.0175963993	-1.2515877129	 2.2456383574	-0.464375
H	 0.8466883074	 2.0665564519	 0.2002695752	 0.124213
H	-0.5320917187	 1.967168505	-0.8984034482	 0.101783
H	-0.7989929968	 1.9200241091	 0.8440221857	 0.108325
H	-1.7843471151	-0.2392714246	-1.2039906595	 0.100574
H	-1.2995476382	-1.6727578591	-0.2756317857	 0.120455
H	-2.0958382152	-0.3288917993	 0.5395283997	 0.112916
H	 0.6650877673	-1.259895199	-1.631297668	 0.062809
H	 1.529621827	 0.7691041842	-2.265880871	 0.282129
H	 2.1239544065	-2.2659695989	 0.2920387466	 0.090731
H	 2.6410143764	-0.6613430031	 2.1824372646	 0.109772
H	 2.5100625597	 0.736153361	 1.0076913819	 0.121581
H	-0.0513912352	-0.6335470548	 2.9810548966	 0.286415
119.8964	167.9511	208.3606	220.0054	244.5314	251.9469	275.2395	299.4609	303.613	355.644	421.7918	462.8694	521.619	573.682	621.6524	670.5225	784.5927	834.5997	902.1367	918.4717	954.4909	962.4833	980.1467	1011.6141	1026.6594	1045.5942	1076.7015	1103.4134	1169.5976	1189.5718	1213.3274	1235.5262	1243.3182	1281.7704	1320.3866	1337.3666	1387.1318	1403.3224	1415.6057	1425.5789	1480.79	1481.1295	1496.9377	1501.6604	1507.6881	3005.0481	3022.4772	3028.7737	3077.7364	3095.8119	3104.2067	3119.2216	3127.4744	3193.0434	3214.3347	3799.9288	3816.9672
CC1(C)C(O)C2CC12O	CC1(C)[C@@H](O)[C@H]2C[C@@]12O	
InChI=1S/C7H12O2/c1-6(2)5(8)4-3-7(4,6)9/h4-5,8-9H,3H2,1-2H3	InChI=1S/C7H12O2/c1-6(2)5(8)4-3-7(4,6)9/h4-5,8-9H,3H2,1-2H3/t4-,5+,7+/m1/s1
