18
gdb 9725	3.62506	1.54374	1.48194	0.9819	73.02	-0.2507	0.0527	0.3035	945.9598	0.153409	-347.77733	-347.769145	-347.7682	-347.810034	30.774	
C	 0.2150099554	 1.3540231662	-0.0051512971	-0.434044
C	-0.1353207143	-0.1489947625	-0.0198571481	 0.124378
C	 0.5714413223	-0.8710745653	-1.2167353589	-0.282294
C	 1.8071949742	-1.5468514645	-0.5691088791	-0.07887
O	 1.8808989078	-1.0623461602	 0.7672423381	-0.245095
C	 0.5468970648	-0.8590207351	 1.1834250521	-0.11346
C	-1.5809102316	-0.3385716464	-0.0168316159	 0.281255
C	-2.7736722876	-0.4911169005	 0.0034212347	-0.46565
H	 1.2998609621	 1.4770363587	 0.0630814624	 0.128546
H	-0.138109134	 1.844460386	-0.9164345801	 0.122331
H	-0.2482821487	 1.8524466138	 0.8511304738	 0.123061
H	-0.0907887707	-1.6080110941	-1.6738414725	 0.117357
H	 0.850155467	-0.1497984084	-1.9882623417	 0.113101
H	 1.6922907557	-2.6414243024	-0.5695489764	 0.096194
H	 2.7506769137	-1.3023077204	-1.0634763978	 0.111301
H	 0.5571783383	-0.2513546666	 2.0913670311	 0.114987
H	 0.0406442342	-1.8137268684	 1.3961260172	 0.094596
H	-3.8267163086	-0.62659782	 0.018008618	 0.192305
47.9874	156.3594	173.3015	233.1454	268.1208	347.5341	375.2782	503.1012	524.1559	562.2389	626.0178	630.5246	676.445	778.3406	821.0898	931.1824	938.7949	959.8119	980.1423	989.542	1019.3953	1103.8731	1163.8528	1178.9393	1201.6461	1238.0029	1267.4007	1294.1238	1300.258	1354.7994	1388.3018	1409.975	1491.5247	1495.0881	1499.9674	1507.1759	1526.2054	2232.7098	2980.9336	2988.8483	3040.0624	3073.3856	3091.2872	3103.0251	3116.8686	3120.4305	3125.7049	3501.7114
CC1(CCOC1)C#C	C[C@]1(CCOC1)C#C	
InChI=1S/C7H10O/c1-3-7(2)4-5-8-6-7/h1H,4-6H2,2H3	InChI=1S/C7H10O/c1-3-7(2)4-5-8-6-7/h1H,4-6H2,2H3/t7-/m1/s1
