19
gdb 39816	2.78218	1.62246	1.54019	1.3908	74.72	-0.2329	0.0794	0.3123	974.754	0.16079	-422.982762	-422.975496	-422.974552	-423.014171	29.372	
C	-0.1014875981	 1.5257153808	 0.011545203	-0.336579
C	 1.229232007	 0.793566647	-0.005671308	-0.360769
C	-0.0579967991	 0.0369957398	 0.0026319393	 0.437895
C	-0.5119127265	-1.0164742031	 1.0099722277	-0.035817
C	-2.0204328524	-0.932684404	 1.2196241931	-0.066303
O	-2.6656724041	-0.4994430991	 0.0251367967	-0.270906
C	-2.0440204809	-0.9189717957	-1.1866291129	-0.066303
C	-0.5316898111	-1.0049764976	-1.0075571092	-0.035818
O	-0.2975034894	-2.0444811816	-0.0068825949	-0.305102
H	-0.3988997667	 2.0260987294	 0.9274380861	 0.116585
H	-0.4167358638	 2.0364732626	-0.8925799399	 0.116585
H	 1.8099152977	 0.8093549573	-0.9226008799	 0.116264
H	 1.827776606	 0.7989638579	 0.8998216511	 0.116264
H	 0.0550027206	-1.1959965605	 1.9281841338	 0.08156
H	-2.3859036031	-1.9228574421	 1.5323339303	 0.100698
H	-2.2840954413	-0.2008016616	 1.9917601286	 0.104744
H	-2.4156608743	-1.9055581703	-1.5033778402	 0.100698
H	-2.3226871968	-0.1783671491	-1.9450575548	 0.104744
H	 0.0170974763	-1.1739595402	-1.9386917198	 0.08156
146.7182	211.3706	220.6427	243.2765	363.3152	410.152	449.0332	569.4077	606.5072	719.1434	766.0198	852.4926	857.4201	864.7828	883.2555	931.4123	934.6982	966.5797	971.6946	1019.8497	1027.275	1054.1657	1062.1382	1078.1979	1101.9448	1144.3332	1182.0391	1198.4719	1227.8827	1236.9932	1269.7434	1290.9184	1299.7259	1326.2638	1365.8318	1400.9804	1437.6771	1463.8573	1485.9357	1497.7762	1516.0203	2987.7368	2994.2854	3061.522	3063.1348	3072.8172	3075.6055	3123.2125	3128.3266	3200.9211	3215.2547
C1CC11C2COCC1O2	C1CC21[C@H]1COC[C@@H]2O1	
InChI=1S/C7H10O2/c1-2-7(1)5-3-8-4-6(7)9-5/h5-6H,1-4H2	InChI=1S/C7H10O2/c1-2-7(1)5-3-8-4-6(7)9-5/h5-6H,1-4H2/t5-,6+
