18
gdb 29909	3.26339	1.28456	0.9325	3.1338	90.44	-0.1945	0.0204	0.215	1242.7974	0.146591	-364.829355	-364.81998	-364.819035	-364.863548	34.351	
C	 0.0086617017	 1.4435417893	 0.0271408123	-0.33783
N	 0.0061313931	-0.0041188821	 0.0118883097	-0.032946
C	-0.0250541597	-0.7852253187	-1.1242024769	-0.096501
C	-0.0174483764	-2.1005933591	-0.7471027689	-0.301151
C	 0.0200587398	-2.1292586769	 0.6837300024	 0.092087
C	 0.0398922447	-3.272845513	 1.5143766827	 0.248177
C	 0.056760259	-4.2500282194	 2.2210213471	-0.470251
C	 0.0338769072	-0.808946137	 1.1230117502	 0.188205
C	 0.071358681	-0.2721435289	 2.5129373058	-0.520003
H	 0.9107479363	 1.8341718153	 0.5098087387	 0.141268
H	-0.0183097396	 1.8078065266	-1.000890698	 0.143061
H	-0.865202068	 1.8367285953	 0.5573033047	 0.141281
H	-0.0498299665	-0.3268285546	-2.0999736915	 0.118155
H	-0.0360059135	-2.9590115318	-1.3991140427	 0.102686
H	 0.0715360033	-5.1118349529	 2.8399714867	 0.177073
H	 0.9609567116	 0.342742258	 2.6999681126	 0.127023
H	-0.8047891959	 0.3462221838	 2.7462562478	 0.127009
H	 0.088122492	-1.1078971139	 3.2152549273	 0.152657
65.3026	116.9762	138.9602	145.5725	224.0175	240.2571	272.3815	391.3466	465.5755	508.9274	519.8276	565.7115	613.915	647.5812	681.8487	696.8541	720.6005	743.3855	805.5715	950.351	1050.3106	1059.4897	1095.3736	1117.4288	1150.2887	1190.728	1252.538	1368.3957	1390.9777	1414.3916	1452.3102	1477.0205	1477.547	1480.6245	1490.0739	1517.1345	1541.4406	1586.1066	2222.8071	3014.0532	3033.2762	3057.2079	3088.4971	3131.2364	3140.0881	3252.7665	3272.8793	3505.8824
CN1C=CC(C#C)=C1C	Cn1ccc(C#C)c1C	
InChI=1S/C8H9N/c1-4-8-5-6-9(3)7(8)2/h1,5-6H,2-3H3	InChI=1S/C8H9N/c1-4-8-5-6-9(3)7(8)2/h1,5-6H,2-3H3
