19
gdb 97164	3.24299	1.38891	1.07614	3.5798	78.78	-0.2176	0.0492	0.2668	1159.6416	0.16105	-419.20023	-419.191883	-419.190939	-419.234077	30.32	
C	-0.0702396447	 1.4003434809	 0.054257807	-0.323804
N	 0.0952051563	-0.0416150794	 0.0462924091	-0.338913
C	 0.4027409764	-0.6217050897	-1.0279261118	 0.443574
O	 0.5554314738	-0.0197732147	-2.2584466796	-0.256248
C	 1.314208684	-0.8647760601	-3.1326719798	-0.115609
C	 1.3060227378	-2.2452036149	-2.4492194063	 0.009837
C	 2.5676267101	-2.7766526442	-1.7136158015	-0.256477
C	 1.7769936011	-2.5919577513	-0.387189767	-0.168399
N	 0.6432843889	-1.9933720876	-1.1494635845	-0.142324
H	 0.3930297567	 1.9077968782	-0.801191784	 0.11311
H	-1.1376204273	 1.6567125025	 0.0598740905	 0.120239
H	 0.35699232	 1.8049675972	 0.9781070373	 0.114508
H	 0.826576912	-0.8664304351	-4.1105701977	 0.12233
H	 2.3273880256	-0.4578188532	-3.2444601149	 0.111092
H	 0.7894418468	-2.9962449105	-3.0545904197	 0.091731
H	 2.8636777366	-3.7978433192	-1.958669522	 0.11408
H	 3.4379225848	-2.1218664588	-1.807885379	 0.112668
H	 1.4901554635	-3.521988475	 0.1095791529	 0.118824
H	 2.1965861076	-1.905488045	 0.3520120011	 0.129782
53.1736	93.2235	122.5586	175.2757	226.1602	305.3012	348.7497	502.5871	634.8304	688.4749	699.1465	740.2187	776.8127	812.203	905.3725	941.0783	950.9398	1007.4637	1045.368	1069.0829	1079.6736	1117.3056	1128.9539	1142.0063	1164.0713	1178.9516	1210.4879	1231.4953	1251.7295	1264.3689	1287.718	1316.7279	1371.5743	1395.0741	1443.6507	1485.7669	1495.7606	1500.5508	1518.0994	1523.7635	1799.9853	3005.6601	3022.1114	3049.0668	3059.7483	3063.4034	3068.2123	3079.531	3096.3312	3111.4479	3131.6966
CN=C1OCC2CCN12	CN=C1OC[C@H]2CCN12	
InChI=1S/C6H10N2O/c1-7-6-8-3-2-5(8)4-9-6/h5H,2-4H2,1H3	InChI=1S/C6H10N2O/c1-7-6-8-3-2-5(8)4-9-6/h5H,2-4H2,1H3/t5-/m1/s1
