16
gdb 127706	3.11563	1.43126	0.99295	7.7768	77.03	-0.226	-0.055	0.1711	1146.5447	0.123813	-434.066887	-434.058546	-434.057602	-434.10001	30.496	
C	-0.0340842658	 1.468294261	-0.0192868054	-0.331476
N	-0.0084758247	 0.0145775024	 0.0655283149	-0.088613
N	-0.0366475239	-0.6038820431	-1.1547760853	-0.051826
N	-0.0195734751	-1.8580976439	-1.2450307672	-0.249467
C	 0.0301003942	-2.7174801507	-0.0862414669	 0.426789
O	 0.0441988716	-3.9193650587	-0.2479689419	-0.353674
C	 0.0590276658	-2.0362997812	 1.1886033122	-0.342553
C	 0.0394214955	-0.6824072434	 1.2484579462	 0.44048
C	 0.0670526987	 0.0946137338	 2.5321626334	-0.490286
H	 0.8644555489	 1.9062276302	 0.4250195136	 0.146131
H	-0.0713952932	 1.7166795836	-1.079116602	 0.17323
H	-0.9162252428	 1.8781142898	 0.481139936	 0.146125
H	 0.0966343759	-2.6297432019	 2.0935172528	 0.121989
H	 0.1045767285	-0.5957541528	 3.375960121	 0.152524
H	 0.941556466	 0.7517208266	 2.585957943	 0.150307
H	-0.8231176296	 0.7232386485	 2.6411496655	 0.150322
74.4502	136.3996	173.1536	211.6776	242.3408	314.0576	361.1583	468.6446	474.426	544.5312	558.8625	580.3018	725.5643	778.943	783.0581	883.5567	902.2921	939.0861	1035.7086	1063.3738	1148.3851	1174.5371	1201.0846	1254.3853	1268.0218	1408.861	1423.4258	1449.1957	1473.222	1483.2468	1495.309	1505.0762	1539.4373	1666.3054	1791.5339	3039.2459	3046.0296	3096.8146	3108.4926	3143.2824	3168.234	3211.8395
CN1N=NC(=O)C=C1C	Cn1nnc(=O)cc1C	
InChI=1S/C5H7N3O/c1-4-3-5(9)6-7-8(4)2/h3H,1-2H3	InChI=1S/C5H7N3O/c1-4-3-5(9)6-7-8(4)2/h3H,1-2H3
