17
gdb 7748	3.43661	1.80046	1.24333	3.2399	72.31	-0.2467	0.0104	0.2571	976.3835	0.142806	-363.888444	-363.880684	-363.879739	-363.92101	28.557	
C	-0.1426695197	 1.5051652275	 0.0984377496	-0.482206
C	 0.0078394623	 0.0206174343	-0.0538384625	 0.315717
C	 0.0124317881	-0.6162105456	-1.2222893297	-0.177895
C	 0.1785003712	-2.1034524909	-1.2926800948	-0.121163
O	-0.305194254	-2.8035930412	-0.1377386569	-0.24732
C	-0.3325217301	-2.2091066586	 1.0841327889	 0.392355
N	-0.7866397027	-2.8121933509	 2.1018959572	-0.516729
C	 0.197910667	-0.7976087024	 1.2009181502	-0.383193
H	 0.7159647414	 1.9344974991	 0.6304745646	 0.129549
H	-0.2288235197	 2.0039169233	-0.8704028263	 0.12448
H	-1.0310947534	 1.7509171812	 0.6935187161	 0.134315
H	-0.085966923	-0.0848661656	-2.1643451633	 0.093642
H	-0.3808891446	-2.5217143525	-2.1356090057	 0.126467
H	 1.2347461999	-2.3766167056	-1.4445231929	 0.119163
H	-1.0880790571	-3.7540606277	 1.8429236796	 0.215467
H	 1.2711792964	-0.8492421566	 1.4415000328	 0.136814
H	-0.2819343018	-0.3416536975	 2.0695580731	 0.140539
59.2071	98.064	190.788	241.4808	306.4747	427.0113	442.5577	476.7963	509.2558	582.1148	720.6246	806.5791	821.3496	892.8047	903.5762	939.2903	965.7313	1029.7879	1048.4287	1066.3424	1073.2465	1164.142	1180.4839	1218.1537	1256.0269	1304.5898	1319.2006	1371.8281	1413.9602	1432.493	1462.4923	1478.9854	1489.4044	1506.2103	1744.8873	1754.5654	2979.843	2995.7718	3019.0799	3067.1332	3069.2504	3106.0214	3115.3316	3171.9701	3461.07
CC1=CCOC(=N)C1	CC1=CCO[C]([NH])C1	
InChI=1S/C6H9NO/c1-5-2-3-8-6(7)4-5/h2,7H,3-4H2,1H3	InChI=1S/C6H9NO/c1-5-2-3-8-6(7)4-5/h2,7H,3-4H2,1H3
