17
gdb 48212	2.22697	1.32255	0.916	0.6423	68.88	-0.2535	-0.039	0.2144	1255.6964	0.133301	-458.911192	-458.902182	-458.901238	-458.946667	31.155	
O	-0.1286977486	-0.1604855961	 0.1525772864	-0.250921
C	-0.0316593253	 1.0038867897	-0.1395696463	 0.138956
C	 1.2491000998	 1.8109868513	 0.024666093	-0.148315
C	 1.5739009101	 2.6670489042	-1.1892983852	 0.071741
C	 1.1333386356	 2.3410714206	-2.5497718733	-0.192136
O	 0.4811705895	 3.3664700091	-1.7934828643	-0.234643
C	 1.1176685997	 2.7075142176	 1.2512515692	 0.072808
C	 1.5399783243	 2.2584457099	 2.5814665713	-0.178169
O	 2.3470660622	 3.1603397108	 1.8161493392	-0.238487
H	-0.8969759269	 1.5797607857	-0.5290729131	 0.10766
H	 2.0683198627	 1.1069655541	 0.203687707	 0.110299
H	 2.4757653486	 3.2681036013	-1.0698770058	 0.119329
H	 1.7125887301	 2.6887662499	-3.4029996835	 0.127706
H	 0.5417707165	 1.4434126864	-2.728096645	 0.126054
H	 0.3483073006	 3.4769973195	 1.1786836965	 0.116154
H	 1.0771835062	 2.6857206511	 3.4689855689	 0.124208
H	 1.945057895	 1.2551022551	 2.701338415	 0.127756
41.7824	65.064	72.5599	163.2372	194.0839	248.5843	310.6561	387.4692	445.1661	508.4739	597.0097	798.7314	829.655	867.9043	879.0887	943.4633	952.787	985.5669	1045.4224	1087.2312	1102.1934	1124.791	1144.2511	1156.4798	1163.4711	1178.0119	1180.1112	1240.9115	1281.7775	1293.8282	1318.759	1409.5526	1425.266	1438.894	1527.5416	1532.6162	1827.862	2918.2878	3068.6894	3085.686	3091.6026	3110.5363	3111.7387	3174.1024	3181.4967
O=CC(C1CO1)C1CO1	O=C[C@@H]([C@H]1CO1)[C@H]1CO1	
InChI=1S/C6H8O3/c7-1-4(5-2-8-5)6-3-9-6/h1,4-6H,2-3H2	InChI=1S/C6H8O3/c7-1-4(5-2-8-5)6-3-9-6/h1,4-6H,2-3H2/t5-,6-/m1/s1
