18
gdb 126415	3.29075	1.23904	0.91546	3.2383	73.99	-0.2147	0.0263	0.241	1262.4854	0.14834	-435.324573	-435.315323	-435.314379	-435.358892	32.842	
C	-0.0358776296	 1.5536742196	 0.0600389644	-0.370612
C	 0.0258089453	 0.0273361799	-0.0291984153	-0.302079
C	 0.7348110344	-0.4634371366	-1.2493023818	 0.394922
N	 1.2599188276	 0.297779353	-2.1630168456	-0.275411
N	 1.793585396	-0.5852095348	-3.0763602399	-0.314086
C	 1.6110295365	-1.9059871498	-2.7492308194	 0.457734
O	 1.9517022334	-2.9180807705	-3.3282656668	-0.436599
N	 0.9088306659	-1.8009928043	-1.5378687243	-0.162456
C	 0.4819042801	-2.9608592343	-0.7880397488	-0.352729
H	 0.9679394901	 1.9844405569	 0.0786776685	 0.137683
H	-0.5572471712	 1.9743737974	-0.8029534033	 0.137616
H	-0.5629675939	 1.8567812958	 0.9684018038	 0.112462
H	 0.5244506231	-0.3844545654	 0.8590558974	 0.122884
H	-0.9886150799	-0.3945074192	-0.0161570363	 0.122851
H	 2.265330201	-0.2445493771	-3.8947300666	 0.278231
H	 0.8120560271	-3.8350769686	-1.3528585388	 0.175344
H	 0.9361558533	-2.9831145931	 0.2075951343	 0.137126
H	-0.6071974092	-2.9905774489	-0.6828731514	 0.137118
66.2043	122.2512	139.419	178.2563	191.156	225.2123	277.8616	292.1844	368.5198	448.008	559.8997	642.0803	664.3407	749.968	754.0064	806.4107	806.7016	953.7584	1007.6661	1063.9742	1112.6409	1115.9756	1159.0542	1189.6565	1219.0424	1287.199	1318.6265	1359.5862	1393.2853	1417.0135	1433.2571	1475.3057	1489.7943	1491.3271	1496.975	1506.0706	1510.8205	1641.0349	1837.2567	3013.0286	3035.9086	3036.264	3055.3184	3096.6735	3128.2033	3133.3624	3141.5428	3701.5049
CCC1=NNC(=O)N1C	CCc1n[nH]c(=O)n1C	
InChI=1S/C5H9N3O/c1-3-4-6-7-5(9)8(4)2/h3H2,1-2H3,(H,7,9)	InChI=1S/C5H9N3O/c1-3-4-6-7-5(9)8(4)2/h3H2,1-2H3,(H,7,9)
