20
gdb 98417	2.59226	1.25253	0.97423	4.4727	78.01	-0.2289	0.0219	0.2507	1282.1626	0.169645	-440.310219	-440.300354	-440.29941	-440.345013	36.504	
C	-0.0801761947	 1.4494299554	 0.1207930263	-0.338187
N	-0.0813655609	 0.0006234356	 0.1937806651	-0.335286
C	 0.8175866087	-0.6997272099	 0.9336035855	 0.422726
O	 1.6993558836	-0.1334012776	 1.58716685	-0.436989
C	 0.6773327669	-2.1893999203	 0.935376214	 0.139614
C	-0.466952111	-2.8334887535	 0.1787315656	-0.505915
C	 2.012451466	-2.9475437359	 1.0060077784	-0.352182
C	 1.1668440184	-2.8670625514	 2.233116571	 0.128797
O	 1.5356302497	-2.1463645021	 3.3487776349	-0.428008
H	 0.1138479931	 1.7960907016	-0.9003758346	 0.12795
H	-1.0386273708	 1.8613380702	 0.454645962	 0.12848
H	 0.7127689025	 1.8103257825	 0.7756149195	 0.175127
H	-0.7662087978	-0.5051612421	-0.3405423618	 0.250125
H	-0.3933319906	-2.666126138	-0.9039014005	 0.119551
H	-0.4593661062	-3.9166406846	 0.3303559228	 0.127198
H	-1.4430780734	-2.4695905721	 0.5212354046	 0.124554
H	 2.0751886978	-3.8804316074	 0.4550374892	 0.110111
H	 2.9049447285	-2.3320611511	 0.9888568462	 0.135356
H	 0.6053749701	-3.7536836509	 2.5145856641	 0.102661
H	 1.83939835	-1.2785717485	 3.0205237377	 0.304316
63.8004	80.5498	145.0045	202.7455	215.7261	251.2662	277.3534	314.9244	348.8741	415.432	472.0399	478.9498	519.6621	565.8371	630.8296	761.0019	784.0308	808.3628	857.5471	925.9028	957.9268	1034.7297	1045.6453	1065.2771	1101.6768	1125.0778	1154.2993	1168.172	1191.1222	1229.2225	1274.8022	1335.0804	1366.5371	1415.4314	1438.1344	1455.159	1490.6758	1496.1071	1501.4653	1502.9503	1507.9348	1575.1369	1707.5278	3011.5683	3030.5263	3070.0297	3082.9776	3101.2693	3129.2053	3150.8529	3161.594	3227.8884	3572.1133	3667.7849
CNC(=O)C1(C)CC1O	CNC(=O)[C@@]1(C)C[C@H]1O	
InChI=1S/C6H11NO2/c1-6(3-4(6)8)5(9)7-2/h4,8H,3H2,1-2H3,(H,7,9)	InChI=1S/C6H11NO2/c1-6(3-4(6)8)5(9)7-2/h4,8H,3H2,1-2H3,(H,7,9)/t4-,6+/m1/s1
