20
gdb 119248	1.77657	1.42003	0.89517	3.7581	78.58	-0.2532	0.0324	0.2856	1365.9253	0.168701	-440.25274	-440.242793	-440.241849	-440.288346	35.404	
C	-0.0261828531	 1.3337071017	-0.1424622068	-0.228278
O	-0.0797286795	 0.1197199764	 0.5718171154	-0.238923
C	 0.9379018158	-0.7867288532	 0.2002784803	-0.11953
C	 0.6879348174	-2.1119472546	 0.8705718644	 0.404162
C	 1.8480951396	-2.9821109887	 1.2470333177	-0.32018
C	 1.0274727456	-2.3097528544	 2.3256542723	-0.312532
O	-0.4178368729	-2.8164003902	 0.3487566146	-0.234854
C	-1.6474170792	-2.4298843194	 0.7713845135	 0.111459
N	-2.6689992834	-2.9718008081	 0.265907057	-0.447566
H	-0.1334647885	 1.1732386586	-1.226080508	 0.113211
H	-0.8536317488	 1.9548650028	 0.2078456422	 0.130902
H	 0.9199632344	 1.8687984545	 0.0348768357	 0.105709
H	 0.9454912088	-0.9302527733	-0.8922698681	 0.10543
H	 1.9281252612	-0.401980444	 0.4949349899	 0.0869
H	 1.7072228063	-4.0465870245	 1.1030920706	 0.136999
H	 2.8509561289	-2.6209227329	 1.0489825283	 0.118282
H	 1.4546606443	-1.4731891958	 2.8668835161	 0.125004
H	 0.3627915657	-2.9367316432	 2.9082283526	 0.128987
H	-1.6193695649	-1.6583846767	 1.5455924318	 0.10938
H	-3.5067023577	-2.5880030951	 0.6991028602	 0.225437
55.9644	89.4799	100.9316	153.1116	170.5227	217.8939	240.0645	299.1746	347.2353	368.0277	445.0515	537.7951	579.2118	772.647	795.3132	823.4953	906.4007	933.4138	953.801	989.7807	1014.3179	1044.7556	1051.6628	1066.7742	1084.7278	1099.1815	1154.4562	1183.4498	1189.0403	1227.0949	1246.5075	1290.0073	1309.2048	1345.5323	1417.8643	1428.6276	1457.1094	1480.0987	1486.9173	1495.4968	1499.5597	1518.8019	1739.6371	2963.0152	2977.7503	3001.4519	3023.2949	3090.9165	3119.2857	3142.0014	3144.6853	3226.5265	3239.621	3512.4848
COCC1(CC1)OC=N	COCC1(CC1)O[CH][NH]	
InChI=1S/C6H11NO2/c1-8-4-6(2-3-6)9-5-7/h5,7H,2-4H2,1H3	InChI=1S/C6H11NO2/c1-8-4-6(2-3-6)9-5-7/h5,7H,2-4H2,1H3
