18
gdb 53356	3.23544	0.91636	0.84569	3.4594	82.2	-0.2533	0.0296	0.2829	1452.8654	0.147601	-401.950634	-401.941479	-401.940535	-401.986717	32.393	
C	-0.3214110231	 1.2380530533	 0.3974380282	-0.497476
C	-0.1433019754	-0.1845180216	 0.1481046021	 0.016118
C	-0.003795572	-1.3615342053	-0.0638779824	 0.142572
C	 0.1766196743	-2.7887357903	-0.3152412971	-0.089765
C	 0.953528234	-3.518564169	 0.8059325271	-0.236207
C	-0.1777464094	-3.9177051584	 1.7596686924	-0.297014
C	-1.3556214907	-4.1037609266	 0.8281901579	 0.420622
N	-2.4111359141	-4.7466418866	 1.0812751953	-0.541804
O	-1.1019829586	-3.4697048008	-0.3606462297	-0.231248
H	 0.281911006	 1.5725089739	 1.2482832499	 0.151461
H	-0.0299950692	 1.8336773672	-0.4743378164	 0.153261
H	-1.3687305047	 1.4672811976	 0.6218784737	 0.157387
H	 0.6360891625	-2.9391805709	-1.296572664	 0.116114
H	 1.4373641747	-4.4060746076	 0.3875956151	 0.116377
H	 1.716752874	-2.8839582542	 1.2565495725	 0.121499
H	 0.0106874056	-4.8212851448	 2.339068565	 0.136862
H	-0.4056231428	-3.1081462194	 2.4615046769	 0.139851
H	-3.0541585013	-4.7037061666	 0.2885036238	 0.221391
17.8252	58.6651	93.5781	150.9774	189.7858	307.1461	330.31	436.0742	447.3638	503.4294	549.2576	654.9739	698.136	799.6933	812.3955	888.9833	897.6019	932.145	959.1285	1025.503	1050.8274	1051.2056	1059.5592	1086.0017	1134.4108	1176.3254	1224.1501	1265.7792	1305.5938	1312.3322	1357.598	1381.6567	1413.8944	1470.2115	1475.8739	1477.3219	1494.2101	1780.4642	2370.1691	3030.0042	3056.975	3061.382	3071.15	3092.2407	3093.6073	3132.9507	3139.3758	3471.0393
CC#CC1CCC(=N)O1	CC#C[C@H]1CC[C]([NH])O1	
InChI=1S/C7H9NO/c1-2-3-6-4-5-7(8)9-6/h6,8H,4-5H2,1H3	InChI=1S/C7H9NO/c1-2-3-6-4-5-7(8)9-6/h6,8H,4-5H2,1H3/t6-/m0/s1
