21
gdb 114255	5.05469	0.81593	0.80621	1.9622	79.33	-0.2433	0.07	0.3133	1500.0525	0.181542	-424.180003	-424.170837	-424.169893	-424.214893	33.438	
C	-0.8026264234	 1.6809838828	 0.0510866019	-0.242024
O	-0.3527147992	 0.4582919129	 0.5908110763	-0.239738
C	-1.0524982614	-0.6532371511	 0.1052677425	 0.167995
C	-0.742797698	-1.173679715	-1.3302092834	-0.336296
C	-0.722975319	-2.6089222382	-0.7486500432	 0.302178
C	-1.8880709069	-3.5783378431	-1.0472590753	-0.124854
O	-0.9860097098	-4.5827439005	-1.5501328336	-0.274746
C	 0.1585541419	-3.7420005949	-1.2977567204	-0.137886
C	-0.5613190704	-2.0011645157	 0.6659018208	-0.337395
H	-0.2091873386	 2.4766649592	 0.5075145742	 0.128064
H	-0.6708316198	 1.7235121194	-1.0405846345	 0.108699
H	-1.8665095751	 1.8571366225	 0.2759576552	 0.104566
H	-2.1364279586	-0.5177530929	 0.2498774824	 0.064867
H	-1.4534259878	-0.9623404649	-2.1336423208	 0.099483
H	 0.2588089538	-0.8552535506	-1.6378714924	 0.108025
H	-2.4487491079	-3.9313466751	-0.1708435736	 0.097584
H	-2.599704658	-3.2442013379	-1.8146277722	 0.096631
H	 0.7101527753	-3.508501059	-2.2186425551	 0.09813
H	 0.8503714491	-4.1933113217	-0.5734884424	 0.098945
H	 0.4931343793	-1.9194658594	 0.9473898367	 0.114436
H	-1.1196154754	-2.454947787	 1.4884577869	 0.103336
55.2325	60.0899	103.3838	179.5339	233.0713	262.9346	324.7999	346.9383	414.2839	463.3544	519.9507	699.495	821.4701	851.9805	874.0919	880.8731	934.9381	948.3859	986.3663	1020.3675	1033.8341	1040.3179	1072.6315	1135.5141	1149.1367	1159.3113	1162.5252	1184.5015	1204.9998	1211.6071	1228.2324	1237.6513	1264.9993	1293.1709	1302.3391	1310.9728	1381.5981	1397.1061	1462.7415	1480.3884	1486.1814	1492.5039	1506.6706	1509.3747	1532.7101	2967.6966	2976.8478	2988.9965	3001.5132	3021.8044	3035.5057	3037.8485	3045.5853	3055.7438	3105.096	3112.4922	3115.982
COC1CC2(COC2)C1	COC1CC2(COC2)C1	
InChI=1S/C7H12O2/c1-8-6-2-7(3-6)4-9-5-7/h6H,2-5H2,1H3	InChI=1S/C7H12O2/c1-8-6-2-7(3-6)4-9-5-7/h6H,2-5H2,1H3
