21
gdb 40172	2.96315	1.55702	1.35478	1.8093	81.21	-0.2535	0.0805	0.334	1042.344	0.185398	-387.072896	-387.065584	-387.06464	-387.104344	30.494	
C	 0.0117294404	 1.4887645646	 0.0323033266	-0.260814
O	 1.210199466	 0.7191616728	-0.1065054343	-0.286783
C	-0.0450653916	 0.0231689968	-0.0054476827	 0.46697
C	-0.2884054349	-0.767494051	 1.2785381388	-0.291413
C	-0.2052260379	-2.2999772699	 1.0547946703	-0.21423
C	-0.5710910385	-2.6658098853	-0.3935266086	-0.001706
C	 0.4427229234	-1.9994319416	-1.364097525	-0.216128
C	-0.4431306697	-0.7249476239	-1.2642942984	-0.08585
C	-1.6360582175	-1.6816763261	-0.9647207352	-0.244579
H	-0.0997260051	 2.0113289566	 0.9829260843	 0.105969
H	-0.2786718661	 2.0664321509	-0.8452236272	 0.107636
H	 0.416416148	-0.4313828111	 2.0435987349	 0.110258
H	-1.2911004674	-0.5172106357	 1.6430711053	 0.108363
H	 0.8064771376	-2.6658644496	 1.2655602066	 0.103627
H	-0.8740905204	-2.8055802178	 1.7599799025	 0.093097
H	-0.7527241785	-3.737818111	-0.5012768575	 0.059784
H	 1.4851244	-1.9138531959	-1.045655599	 0.104746
H	 0.4007286308	-2.4370677358	-2.3649741911	 0.09225
H	-0.4970312871	-0.058916624	-2.1280137662	 0.058552
H	-2.0719649971	-2.0611070339	-1.8923401123	 0.099078
H	-2.4407992647	-1.3329573491	-0.3111693117	 0.091173
106.2628	203.1355	310.6456	346.199	378.8926	400.6676	414.5549	506.375	563.1981	689.3137	759.7457	819.2011	826.4658	844.126	889.968	898.9449	910.6521	945.7538	954.579	974.008	998.0628	1063.881	1067.3909	1092.5172	1100.2899	1111.7523	1126.8563	1138.2639	1161.1831	1215.0781	1237.8761	1247.4561	1265.5193	1281.0351	1287.4525	1316.7099	1332.8123	1351.0805	1371.6489	1434.8983	1470.72	1485.3078	1496.3867	1514.5694	1531.2881	3029.7676	3036.9823	3052.6639	3054.1915	3066.9165	3069.1998	3076.3853	3083.5009	3096.7805	3107.4855	3110.9327	3152.705
C1OC11CCC2CC1C2	C1O[C@]21CC[C@@H]1C[C@H]2C1	
InChI=1S/C8H12O/c1-2-8(5-9-8)7-3-6(1)4-7/h6-7H,1-5H2	InChI=1S/C8H12O/c1-2-8(5-9-8)7-3-6(1)4-7/h6-7H,1-5H2/t6-,7+,8-/m0/s1
