14
gdb 28716	6.51662	0.87164	0.77565	4.1063	67.51	-0.2391	-0.0265	0.2126	1389.7455	0.100065	-473.879886	-473.871696	-473.870752	-473.913718	28.173	
C	 0.1875425586	 1.4385315052	 0.006628318	-0.492908
C	-0.0762231784	-0.0194188655	 0.0017414293	 0.325873
C	-1.1616164643	-0.8075547853	-0.1682033074	-0.188666
N	-0.8028489204	-2.1531163315	-0.0430535286	-0.368323
C	 0.4643744029	-2.0925251325	 0.1800049871	 0.495811
O	 1.3471222147	-3.0855502973	 0.3869938272	-0.220418
C	 0.9831466813	-4.3592217228	-0.0166117664	 0.170497
O	 1.685126475	-5.2862041065	 0.2186931885	-0.239811
O	 1.0010449477	-0.8654923221	 0.2280004512	-0.204567
H	 0.9131383345	 1.7197281729	-0.7644995819	 0.147509
H	-0.74323948	 1.976636575	-0.1861373761	 0.145672
H	 0.5838060827	 1.7727893817	 0.9717902669	 0.148407
H	-2.1807927389	-0.5144306725	-0.36263424	 0.13202
H	 0.0218799447	-4.3639291888	-0.5472484577	 0.148904
46.8188	109.9128	149.6739	161.6771	220.3392	296.9237	360.6862	449.6118	544.9679	636.9565	675.5613	740.3551	844.9167	850.3424	967.6011	998.2132	1041.0968	1046.1194	1068.7841	1088.3869	1173.7636	1233.2161	1263.75	1392.4605	1407.9987	1420.7017	1470.5528	1491.6104	1627.8503	1661.3696	1887.7697	3034.5443	3071.1118	3087.7774	3131.26	3268.6006
CC1=CN=C(OC=O)O1	Cc1cnc(OC=O)o1	
InChI=1S/C5H5NO3/c1-4-2-6-5(9-4)8-3-7/h2-3H,1H3	InChI=1S/C5H5NO3/c1-4-2-6-5(9-4)8-3-7/h2-3H,1H3
