17
gdb 31980	4.89467	0.94345	0.82233	2.3769	73.54	-0.1899	0.0369	0.2268	1401.5914	0.13582	-455.160727	-455.151545	-455.150601	-455.195417	31.962	
C	 0.0387193053	 1.4070666744	-0.0173768086	-0.317788
N	 0.0183093049	-0.0426507549	-0.1402766639	-0.385387
C	-1.1966681507	-0.6694250184	-0.1207764606	 0.498815
N	-2.3439762186	-0.1860930583	 0.2406887495	-0.35272
C	-3.2094110154	-1.2838847606	 0.1587192505	-0.221881
C	-2.5294332686	-2.3631848436	-0.2736213127	 0.363511
O	-2.8675279956	-3.6070180388	-0.615177543	-0.265152
C	-2.2507168721	-4.6440251956	 0.1595008727	-0.252638
O	-1.2018794835	-1.9837835185	-0.4638952827	-0.245362
H	 1.0762896539	 1.7372944079	 0.066270025	 0.123643
H	-0.4374719132	 1.9181282958	-0.8652328454	 0.125218
H	-0.498329053	 1.6931246616	 0.8889759949	 0.159752
H	 0.6729064609	-0.4423416426	-0.7959419246	 0.25028
H	-4.2564995167	-1.2093449079	 0.4010586897	 0.119845
H	-1.1636900852	-4.6340067561	 0.0306160916	 0.135706
H	-2.4947816059	-4.5262133223	 1.2215547041	 0.126622
H	-2.6559147966	-5.5859711422	-0.2127260064	 0.137535
64.0424	89.7523	127.588	145.4555	163.3498	208.7163	284.7745	381.3338	430.6643	497.1373	535.9001	648.8739	703.0978	749.7251	760.8235	828.7588	947.0092	986.5309	1033.9016	1095.6311	1137.2422	1155.4596	1172.9395	1186.8123	1202.6751	1242.4971	1284.4933	1336.2413	1453.5303	1470.0315	1481.6416	1486.0805	1503.1265	1506.7478	1535.2179	1662.752	1708.3345	3012.1118	3025.197	3098.3371	3099.6254	3142.4611	3144.8642	3272.5383	3613.9957
CNC1=NC=C(OC)O1	CNc1ncc(OC)o1	
InChI=1S/C5H8N2O2/c1-6-5-7-3-4(8-2)9-5/h3H,1-2H3,(H,6,7)	InChI=1S/C5H8N2O2/c1-6-5-7-3-4(8-2)9-5/h3H,1-2H3,(H,6,7)
