17
gdb 49447	5.50063	1.06798	1.0068	2.2417	73.38	-0.2491	-0.0259	0.2232	1161.3911	0.137108	-421.783922	-421.776992	-421.776048	-421.81557	27.116	
O	 0.1513310827	-0.1259423868	-0.5109516256	-0.260041
C	 0.0926413162	 1.0381917766	-0.1987875641	 0.147274
C	 1.2905628697	 1.9313035729	-0.0961495093	-0.093602
C	 1.2165561495	 3.3670211084	-0.6965463764	-0.112351
C	 0.3509908816	 3.8618139262	 0.5149786422	-0.07242
C	 0.8262510804	 5.2745866097	 0.8339337002	-0.110047
O	 2.2449902251	 5.1351963668	 0.6407107657	-0.279896
C	 2.3654210809	 3.7828161646	 0.271989067	 0.157382
C	 1.4177596154	 2.8875918627	 1.1273515873	-0.112397
H	-0.8875718333	 1.510661017	 0.0332878028	 0.069227
H	 2.1878533702	 1.3575650866	-0.345901998	 0.087447
H	 1.0990172802	 3.6384547161	-1.7459564241	 0.087607
H	-0.7145536488	 3.6526627427	 0.5775394656	 0.086477
H	 0.4262491095	 6.0325542916	 0.1497889939	 0.109723
H	 0.6155567379	 5.5814155992	 1.8654649664	 0.109719
H	 3.4031140597	 3.5109825851	 0.0860778139	 0.098268
H	 1.5314669331	 2.6076392106	 2.1749256924	 0.087631
81.8836	175.6889	247.1564	306.2721	416.2502	448.3231	460.7118	721.3377	735.7904	751.7484	789.5133	878.5853	893.5947	948.3106	962.732	970.3034	982.2215	985.5879	1023.6063	1056.3912	1068.0244	1116.419	1116.442	1141.9686	1151.8451	1165.0028	1207.5549	1209.2837	1236.5242	1243.6405	1283.441	1320.7712	1331.4884	1395.8648	1448.9637	1521.7384	1818.867	2881.9258	3024.7319	3064.4884	3075.2024	3112.7645	3113.7577	3145.8817	3150.9286
O=CC1C2C3COC2C13	O=C[C@H]1[C@H]2[C@@H]3CO[C@H]2[C@H]13	
InChI=1S/C7H8O2/c8-1-3-5-4-2-9-7(5)6(3)4/h1,3-7H,2H2	InChI=1S/C7H8O2/c8-1-3-5-4-2-9-7(5)6(3)4/h1,3-7H,2H2/t3-,4-,5-,6+,7+
