20
gdb 52431	9.41416	0.39738	0.3896	2.8526	82.16	-0.257	-0.0281	0.2289	2615.9727	0.168764	-403.182404	-403.171825	-403.170881	-403.220158	35.566	
O	-0.1236745643	-0.1202091918	-0.1065499705	-0.233135
C	-0.0172754693	 1.0777596336	-0.0687002455	 0.159632
C	 1.2903009736	 1.8360202488	-0.1117632893	-0.275042
C	 1.3240699503	 2.8567570604	-1.2623040557	-0.199959
C	 2.5982809377	 3.7083524104	-1.2634851543	-0.182457
C	 2.6350056789	 4.7186190451	-2.4139286343	-0.184028
C	 3.9247091379	 5.5634517112	-2.4006356211	-0.34224
C	 3.9712469294	 6.5362875165	-3.4899344216	 0.257343
N	 3.9895400666	 7.2995648116	-4.3573043308	-0.301978
H	-0.9203935546	 1.7305922669	-0.0025436803	 0.071344
H	 1.3932747484	 2.3699023102	 0.8446881259	 0.119098
H	 2.1094149624	 1.1147583408	-0.1871540954	 0.123772
H	 1.2372391928	 2.3265614588	-2.2190421302	 0.117433
H	 0.4465086364	 3.5134960321	-1.1939774108	 0.1077
H	 2.6813666011	 4.239611149	-0.3053967879	 0.102377
H	 3.4756212844	 3.0505620793	-1.3250462401	 0.106615
H	 2.559897845	 4.1972129879	-3.3747574353	 0.124748
H	 1.7692595994	 5.3878621135	-2.3547103804	 0.122943
H	 4.0157754614	 6.102555671	-1.4502182916	 0.152433
H	 4.8047345525	 4.9139844646	-2.4772404309	 0.153404
40.6571	56.9847	66.822	89.0059	134.6948	140.2859	177.9666	255.6635	335.4767	399.0188	427.2118	513.944	564.8501	734.1366	752.854	803.8081	872.2007	931.4438	972.46	999.1946	1019.7445	1038.601	1063.5631	1108.6389	1136.8313	1173.2781	1237.4409	1254.8763	1289.9385	1304.8403	1332.2861	1336.4472	1346.1351	1386.7059	1402.6129	1430.4478	1464.065	1468.6401	1485.1381	1494.6186	1510.5703	1838.4303	2363.5721	2847.9828	3007.7046	3008.5764	3020.1442	3034.8682	3037.4523	3045.8695	3059.7546	3069.8713	3092.665	3097.941
O=CCCCCCC#N	O=CCCCCCC#N	
InChI=1S/C7H11NO/c8-6-4-2-1-3-5-7-9/h7H,1-5H2	InChI=1S/C7H11NO/c8-6-4-2-1-3-5-7-9/h7H,1-5H2
