22
gdb 120261	3.18409	0.99752	0.8886	2.629	81.87	-0.2364	0.0732	0.3096	1421.9212	0.194513	-404.307429	-404.298148	-404.297204	-404.341819	35.304	
C	 0.0187087046	 1.5910663069	 0.0402169917	-0.379346
C	-0.0301473963	 0.0666526172	-0.0907384136	-0.166567
C	-1.4371526933	-0.5075205331	 0.1195018791	-0.184528
C	-1.483804349	-2.0268310236	 0.0194563669	-0.03291
C	-2.8387764295	-2.7392405219	 0.0814015071	-0.076347
N	-3.5861291172	-2.3416151745	-1.1418241754	-0.357797
C	-2.5962116075	-3.4493988558	-1.2017855947	-0.083908
C	-1.2587567975	-2.7228316275	-1.3990479612	 0.128225
O	-1.1702982474	-1.9075867763	-2.5351680653	-0.431405
H	 1.0325902014	 1.9736655517	-0.1146555462	 0.108294
H	-0.6337122929	 2.0720002372	-0.6972445411	 0.113093
H	-0.3118557415	 1.9163246263	 1.0334377712	 0.108097
H	 0.3248904142	-0.2325353719	-1.0829001611	 0.119416
H	 0.6584585564	-0.3847004774	 0.6368496392	 0.084252
H	-1.8147867112	-0.2058439247	 1.107001042	 0.084936
H	-2.1264241425	-0.074387441	-0.6141858896	 0.100026
H	-0.7942921021	-2.4775499682	 0.7425850986	 0.068739
H	-3.3745798829	-3.0791275322	 0.9595783886	 0.092383
H	-4.5130415718	-2.7602459624	-1.0911824689	 0.233327
H	-2.8911648942	-4.4381270925	-1.5313916074	 0.093056
H	-0.3891481161	-3.3827718441	-1.4026447146	 0.086569
H	-2.0406994336	-1.4929028324	-2.6169487852	 0.292397
78.5518	90.1769	106.7663	188.7521	231.4002	248.2122	295.605	345.8665	449.0159	524.2276	595.8078	633.1282	677.7338	743.9076	787.6037	828.3919	845.8167	887.3763	904.1141	912.5841	950.7549	981.4252	1024.618	1045.6365	1056.4197	1091.15	1103.6913	1120.0771	1146.6567	1150.1944	1182.5757	1232.2174	1249.6429	1276.9253	1295.6115	1318.3163	1324.0666	1335.885	1368.4598	1381.7778	1399.7059	1411.2817	1448.4768	1486.0669	1495.2492	1498.9878	1510.594	3007.3351	3013.2937	3026.3094	3039.3719	3060.6302	3072.7297	3095.8761	3096.7256	3098.7556	3180.2212	3194.2155	3490.8853	3743.2696
CCCC1C2NC2C1O	CCC[C@H]1[C@H]2N[C@H]2[C@H]1O	
InChI=1S/C7H13NO/c1-2-3-4-5-6(8-5)7(4)9/h4-9H,2-3H2,1H3	InChI=1S/C7H13NO/c1-2-3-4-5-6(8-5)7(4)9/h4-9H,2-3H2,1H3/t4-,5+,6+,7-/m0/s1
