21
gdb 118532	2.35485	0.93088	0.72336	4.3074	80.3	-0.2341	0.0375	0.2716	1604.63	0.180921	-420.398182	-420.387198	-420.386254	-420.435408	37.629	
C	-0.1313982212	 1.9639792248	-0.564789693	-0.330692
N	 0.2437230417	 0.5974384346	-0.2109860847	-0.289474
C	-0.8157854806	-0.3048824156	 0.2164370962	-0.00534
C	-1.3167788535	 0.0724232565	 1.6131803404	-0.060254
O	-2.2191670377	-0.9241095187	 2.0408323077	-0.236826
C	-2.7535547078	-0.6726322164	 3.3201426885	-0.228681
C	-2.0272351434	-0.4498188068	-0.7560399782	-0.353539
C	-1.5986005423	-0.8584506427	-2.0880632253	 0.254745
N	-1.2120309199	-1.1730565994	-3.1313758283	-0.31587
H	 0.7672560006	 2.4962446057	-0.8880157198	 0.130042
H	-0.876304891	 2.0494458055	-1.372608698	 0.107885
H	-0.5213790951	 2.492280166	 0.3107215449	 0.125729
H	 0.7448562054	 0.1756112774	-0.984166367	 0.237584
H	-0.3602053512	-1.2970924161	 0.306076703	 0.10944
H	-0.4512640094	 0.1454516969	 2.2886946235	 0.107501
H	-1.8153391849	 1.0565801462	 1.6041483687	 0.085923
H	-1.9661418515	-0.6325586838	 4.0883113563	 0.110621
H	-3.3104968167	 0.2770175191	 3.3491377564	 0.106901
H	-3.4368742324	-1.4917005369	 3.5556774815	 0.13185
H	-2.7216904799	-1.1876038248	-0.3453749243	 0.168755
H	-2.574284239	 0.4964353184	-0.8348680484	 0.143702
54.4557	74.4796	83.7664	98.267	147.6765	156.8041	222.2037	227.1481	284.3814	315.2142	390.5488	400.9777	450.141	531.0323	601.2554	745.5231	812.3137	894.4727	963.7158	973.0103	1004.9343	1064.7676	1089.9679	1148.97	1155.4633	1166.3803	1181.1053	1198.6516	1224.2024	1235.3452	1256.682	1300.7675	1351.8492	1379.5756	1421.806	1457.2272	1467.7659	1479.5556	1485.425	1495.9926	1501.717	1503.3911	1527.1396	1530.0904	2355.8495	2958.365	2969.8444	2976.6539	3010.4785	3022.1116	3049.6318	3061.3609	3071.0249	3108.6201	3111.8747	3119.3206	3543.9499
CNC(COC)CC#N	CN[C@@H](COC)CC#N	
InChI=1S/C6H12N2O/c1-8-6(3-4-7)5-9-2/h6,8H,3,5H2,1-2H3	InChI=1S/C6H12N2O/c1-8-6(3-4-7)5-9-2/h6,8H,3,5H2,1-2H3/t6-/m1/s1
