21
gdb 58789	3.34671	1.07209	0.96867	3.613	83.65	-0.2368	-0.004	0.2328	1310.3306	0.181234	-387.093515	-387.084329	-387.083385	-387.127518	35.201	
C	-0.0173590464	 1.5609328187	 0.2219608787	-0.386334
C	-0.0242297768	 0.0365421384	 0.0118695731	-0.08197
C	 0.8691319373	-0.6639792492	 1.0436328798	-0.404226
C	-1.4445778767	-0.4823244869	-0.005694217	 0.3839
C	-2.2413982504	-0.9054831807	 1.1756974668	-0.329087
C	-1.9635091202	-1.9531325816	 0.0963236041	-0.242705
C	-2.8406571136	-1.6933076217	-1.0839313671	 0.433519
O	-3.4683124287	-2.400276735	-1.8217232955	-0.324167
C	-2.428774617	-0.1988777964	-1.1611568982	-0.430035
H	 1.0022953977	 1.9555719662	 0.168752491	 0.113951
H	-0.616523578	 2.0735062911	-0.5369761093	 0.119753
H	-0.4280340041	 1.819210298	 1.2044183921	 0.117956
H	 0.3984187563	-0.1645106365	-0.9833277757	 0.079918
H	 0.5507422773	-0.4423608006	 2.0681128598	 0.118511
H	 0.8650107536	-1.7505178572	 0.9121466623	 0.118736
H	 1.9031574091	-0.3201493983	 0.9439591852	 0.118754
H	-1.6969362694	-1.0903806453	 2.0956253184	 0.124814
H	-3.2525508374	-0.5366645791	 1.3278136338	 0.118237
H	-1.4506861816	-2.8765628043	 0.3369149511	 0.106806
H	-3.2000210895	 0.5568567814	-0.9852226448	 0.116451
H	-1.9412325115	 0.0014473389	-2.1206335586	 0.127221
56.2311	94.1919	180.7284	232.4291	254.6124	281.5572	310.2247	372.2134	424.6648	447.5922	487.3566	557.5891	626.9173	661.1057	778.5942	817.3958	873.2528	921.8995	929.2858	956.5152	967.431	973.0121	984.5383	1047.0886	1072.1932	1093.5038	1104.8948	1125.1134	1141.2951	1177.2493	1210.4593	1227.8955	1249.5767	1343.8616	1370.6668	1391.3819	1399.3524	1421.196	1457.2796	1488.0953	1491.6915	1502.4605	1508.584	1512.6124	1878.3182	2996.4657	3029.9394	3035.3415	3050.5984	3098.062	3103.264	3104.5008	3105.196	3108.1427	3116.2828	3191.4404	3209.0292
CC(C)C12CC1C(=O)C2	CC(C)[C@]12C[C@H]1C(=O)C2	
InChI=1S/C8H12O/c1-5(2)8-3-6(8)7(9)4-8/h5-6H,3-4H2,1-2H3	InChI=1S/C8H12O/c1-5(2)8-3-6(8)7(9)4-8/h5-6H,3-4H2,1-2H3/t6-,8+/m0/s1
