19
gdb 63126	2.28315	1.5667	1.18323	4.4623	78.38	-0.2393	-0.0274	0.2119	1120.5903	0.157008	-422.996108	-422.98714	-422.986196	-423.029375	33.754	
C	-0.0182743461	 1.5396719652	 0.0132514531	-0.461167
C	 0.0220547362	 0.0235894952	-0.0123532467	 0.244776
C	-1.2049253453	-0.61576007	-0.6430759977	-0.465554
C	 1.2953285954	-0.7500784677	-0.2404527315	-0.215364
C	 2.4804814508	-0.0913930203	 0.452670353	-0.113741
O	 1.7523875076	 0.0206321991	 1.7033224283	-0.300505
C	 0.6606088671	-0.7172176397	 1.1653196996	 0.336802
C	 0.0344383769	-1.7657057019	 1.9835925878	 0.053727
O	 0.3271683601	-1.9970858545	 3.1315813308	-0.264999
H	 0.7804149367	 1.9551977302	 0.6287875783	 0.145863
H	 0.0670397062	 1.9451613238	-1.0010715865	 0.118289
H	-0.9708925663	 1.8829502625	 0.430253709	 0.123601
H	-1.3252049838	-0.2474290136	-1.668044228	 0.126837
H	-1.1322113034	-1.7057438671	-0.6945179728	 0.121997
H	-2.1142767558	-0.3612486065	-0.0892680702	 0.129986
H	 1.352406698	-1.5815936204	-0.9316090314	 0.109635
H	 3.3393845511	-0.7602630132	 0.5712880856	 0.12268
H	 2.8144706446	 0.8807270826	 0.0737151297	 0.112603
H	-0.7563339602	-2.3413678138	 1.4560674897	 0.074532
94.8296	173.647	175.8944	225.7354	249.9803	266.2975	282.1036	316.0164	364.2629	444.2931	496.6803	544.49	660.1571	744.7344	770.0561	881.1254	929.2915	965.888	975.7012	984.2514	1004.8458	1012.1403	1037.1995	1086.0006	1101.0866	1152.033	1164.0589	1212.5109	1238.5151	1315.7065	1343.5935	1386.4903	1411.2647	1427.2648	1448.1793	1483.7076	1490.5718	1504.5187	1513.7509	1520.6362	1802.3876	2896.3328	3032.0046	3033.5202	3037.5088	3083.3691	3093.2649	3095.5221	3111.1636	3141.1898	3192.8244
CC1(C)C2COC12C=O	CC1(C)[C@H]2CO[C@@]12C=O	
InChI=1S/C7H10O2/c1-6(2)5-3-9-7(5,6)4-8/h4-5H,3H2,1-2H3	InChI=1S/C7H10O2/c1-6(2)5-3-9-7(5,6)4-8/h4-5H,3H2,1-2H3/t5-,7-/m1/s1
