20
gdb 26668	2.24597	1.54624	0.93171	2.0239	85.87	-0.1603	0.0518	0.212	1280.7991	0.170687	-399.366296	-399.355568	-399.354624	-399.401812	38.355	
C	-0.2230002174	 1.5001982718	 0.099790029	-0.514931
C	-0.0900554875	 0.0215080612	-0.0404535629	 0.239123
C	-0.0042861799	-0.7736237443	-1.162241414	 0.163379
N	-0.0661825412	-0.3843745701	-2.5178511509	-0.621499
C	 0.1058634847	-2.131059507	-0.728956537	 0.074269
N	 0.2451173281	-3.2147325517	-1.6461282995	-0.626702
C	 0.0904854045	-2.1380916375	 0.6534501783	 0.255718
C	 0.1844481697	-3.268927574	 1.6213095895	-0.509988
N	-0.0116626443	-0.8277930941	 1.0533009463	-0.376469
H	 0.714218817	 1.9987162606	 0.3865052754	 0.116912
H	-0.5466349508	 1.9334771386	-0.8511382236	 0.135198
H	-0.9756994587	 1.7745084467	 0.850186077	 0.116771
H	 0.5238859531	 0.4153700238	-2.7154098047	 0.230788
H	 0.2489235847	-1.1612382497	-3.0915676952	 0.240134
H	 0.8171984396	-3.9598728019	-1.266108072	 0.231429
H	-0.6512487572	-3.6211767477	-1.8989583935	 0.236032
H	 0.1024255079	-4.2202327415	 1.0875964698	 0.119282
H	 1.1341571076	-3.2844517513	 2.1732655442	 0.123044
H	-0.6219725708	-3.2438761901	 2.3653199323	 0.122091
H	-0.041816559	-0.5230198717	 2.0100567415	 0.245421
75.9125	98.1203	121.0512	152.0603	166.2369	232.8418	255.9685	264.9216	273.2971	284.5559	317.6757	394.7798	538.746	583.1195	594.5701	628.9919	697.8184	748.5419	797.6593	863.0934	896.1753	966.6432	1023.9159	1052.05	1062.9388	1082.6493	1208.1128	1230.7917	1247.5619	1265.6176	1342.2856	1413.131	1415.9513	1480.9168	1482.476	1484.4446	1490.9496	1503.2567	1510.3517	1589.8766	1640.9505	1646.0814	1678.8436	2995.0633	3004.9451	3041.4837	3047.7425	3102.5632	3103.3354	3483.9813	3497.1873	3574.5312	3585.6596	3680.5327
CC1=C(N)C(N)=C(C)N1	Cc1c(N)c(N)c(C)[nH]1	
InChI=1S/C6H11N3/c1-3-5(7)6(8)4(2)9-3/h9H,7-8H2,1-2H3	InChI=1S/C6H11N3/c1-3-5(7)6(8)4(2)9-3/h9H,7-8H2,1-2H3
