21
gdb 65203	3.02145	1.38066	1.22389	1.5246	81.3	-0.2244	0.0765	0.3009	1121.0293	0.183585	-383.19742	-383.189007	-383.188062	-383.230247	33.103	
C	 0.0620194839	 1.5486969171	-0.5503249121	-0.461307
C	 0.0396180634	 0.1139748853	-0.0616912605	 0.311449
C	 1.1639030546	-0.7867080403	-0.4263702791	-0.284832
N	 1.0242698795	-0.3014141392	 0.9598033717	-0.340529
C	-1.3518344865	-0.4657542192	 0.0728655394	 0.00854
C	-1.6098061059	-1.7975461242	 0.8296644315	-0.290001
C	-2.5724668562	-0.9950786886	 1.7039571668	-0.019907
C	-1.8754300961	 0.1297644792	 2.3505667982	-0.243114
N	-2.3275526364	 0.2989496679	 0.94826954	-0.159959
H	 1.0890748019	 1.9122821843	-0.6599948134	 0.105396
H	-0.4329623653	 1.6388825227	-1.5235284489	 0.125251
H	-0.468567124	 2.2031963986	 0.1480305854	 0.14289
H	 0.9958588877	-1.8530841336	-0.5533023837	 0.117486
H	 1.9618219693	-0.3801374645	-1.0424537465	 0.110355
H	 1.6831732342	 0.4551853369	 1.1278543103	 0.227236
H	-1.7976635226	-0.4935289159	-0.9272005236	 0.08263
H	-2.0930951256	-2.5520354602	 0.2066405239	 0.102773
H	-0.7612123335	-2.2449056515	 1.3523197195	 0.122218
H	-3.5758887132	-1.3027686392	 1.9799579789	 0.090143
H	-2.4472776799	 0.7489253972	 3.0351307243	 0.112716
H	-0.8154589192	 0.0490716073	 2.5673958577	 0.140565
77.7157	162.3657	178.8773	204.1216	308.2756	317.644	355.6754	406.626	461.9453	528.0261	699.6458	746.6882	767.8724	781.2973	845.7462	849.1741	926.0053	943.5725	954.6424	972.0662	988.5466	997.0569	1042.1417	1059.7507	1074.3429	1095.8017	1115.6135	1118.0458	1140.4263	1145.4161	1175.7189	1230.9163	1267.6229	1271.2864	1282.2015	1307.6206	1363.4664	1375.2332	1403.4685	1413.1908	1480.2096	1480.4654	1497.4659	1499.9115	1514.4804	3029.5246	3043.997	3068.9346	3095.9281	3104.1608	3108.1167	3122.6559	3123.6696	3162.0421	3187.7662	3215.5656	3493.7281
CC1(CN1)C1CC2CN12	C[C@]1(CN1)[C@H]1C[C@H]2CN12	
InChI=1S/C7H12N2/c1-7(4-8-7)6-2-5-3-9(5)6/h5-6,8H,2-4H2,1H3	InChI=1S/C7H12N2/c1-7(4-8-7)6-2-5-3-9(5)6/h5-6,8H,2-4H2,1H3/t5-,6+,7-,9?/m0/s1
