18
gdb 120251	3.1667	0.97798	0.82059	2.7825	73.03	-0.2435	-0.0239	0.2196	1388.8536	0.146714	-439.044649	-439.035818	-439.034874	-439.079047	32.048	
O	 0.0377126032	 1.5111476489	-0.2103662878	-0.420389
C	 0.0848973398	 0.0959287928	-0.1311427821	-0.07107
C	-1.3451240819	-0.398561383	 0.0656822921	-0.210445
C	-1.4285502792	-1.9116487275	 0.1614479826	-0.094986
N	-0.7993925156	-2.6125357366	 1.3537609668	-0.125836
C	-1.5922910393	-2.2384512113	 2.5186159374	-0.243255
C	-2.1251668189	-3.3176456527	 1.6350842235	-0.159615
C	-2.7484787754	-2.6762278611	 0.4285399094	 0.396787
O	-3.7583521597	-2.8436012203	-0.1904409567	-0.309872
H	 0.9373821791	 1.8384770235	-0.2998893893	 0.28817
H	 0.5044721331	-0.3457834969	-1.0499899837	 0.089066
H	 0.7126419249	-0.2413882732	 0.7077444863	 0.104626
H	-1.7655964902	 0.088070206	 0.9513906802	 0.112768
H	-1.9571386948	-0.0751825941	-0.7840535371	 0.131752
H	-0.9858727358	-2.3641934597	-0.7358127133	 0.117923
H	-1.1595095023	-2.5602890766	 3.4609542767	 0.137908
H	-2.0928536688	-1.2751696615	 2.5588059558	 0.131545
H	-2.1994445681	-4.3525521768	 1.9481399592	 0.124922
61.699	87.3537	119.0395	170.6328	258.8477	263.5918	297.5367	370.7794	491.5642	547.5215	632.8465	696.4636	744.3666	770.5446	823.0977	864.7092	924.2725	969.0745	1021.0145	1038.791	1078.9685	1085.1927	1102.3986	1109.1422	1129.7899	1161.4172	1202.4875	1218.4256	1225.5785	1256.5911	1301.7253	1309.6041	1321.7944	1380.2097	1462.0465	1483.4361	1507.5195	1527.8792	1893.6467	2966.2015	3001.7546	3031.543	3050.4003	3091.4839	3119.6185	3189.4456	3205.9365	3831.844
OCCC1N2CC2C1=O	OCC[C@H]1N2C[C@H]2C1=O	
InChI=1S/C6H9NO2/c8-2-1-4-6(9)5-3-7(4)5/h4-5,8H,1-3H2	InChI=1S/C6H9NO2/c8-2-1-4-6(9)5-3-7(4)5/h4-5,8H,1-3H2/t4-,5+,7?/m1/s1
