20
gdb 10206	3.30789	1.12058	0.88864	3.5937	73.13	-0.2439	-0.0158	0.2281	1345.329	0.173732	-386.142783	-386.132649	-386.131705	-386.178609	34.337	
C	 0.031717565	 1.5570809685	 0.0186774484	-0.389182
C	-0.0281357278	 0.0310078003	-0.0893707855	-0.20021
C	 0.7675457032	-0.5334414983	-1.2897656119	-0.07407
C	 0.91983319	-2.0477453769	-1.1877449775	-0.078462
O	 1.6260614928	-2.4938512189	-2.3234274971	-0.233742
C	 1.7986335194	-3.8912355346	-2.3562305128	-0.228805
C	 0.0434955814	-0.1797195454	-2.5766530409	 0.182659
O	 0.3163408239	 0.7452695012	-3.2954727635	-0.254587
H	 1.060022452	 1.8977956965	 0.1775542301	 0.12197
H	-0.3358106225	 2.0392230154	-0.8917432748	 0.139163
H	-0.5733092215	 1.9105823572	 0.8588580852	 0.114455
H	 0.3661802185	-0.4211992733	 0.8290106127	 0.104013
H	-1.0734847578	-0.2987740949	-0.1631779777	 0.102742
H	 1.7583735699	-0.0685419652	-1.3280438354	 0.102498
H	 1.4531474591	-2.31703553	-0.2609688071	 0.092601
H	-0.0744744819	-2.5284574218	-1.1381521233	 0.086561
H	 2.3704276245	-4.2508283349	-1.4863543754	 0.106231
H	 0.8334852098	-4.421631992	-2.3753886338	 0.105798
H	 2.3523234954	-4.1305659278	-3.2668892974	 0.133184
H	-0.8312861735	-0.839411175	-2.7955314723	 0.067183
62.8624	79.4469	99.3968	110.6422	131.4524	216.9274	231.6785	268.039	325.9297	341.7304	382.1886	454.2686	591.7919	776.0823	864.4061	910.61	977.379	981.7777	1025.3809	1037.5968	1113.6964	1138.976	1164.2821	1168.9584	1188.5203	1229.6722	1251.696	1265.8948	1301.4217	1352.5077	1368.9896	1413.0672	1418.4959	1427.0218	1479.9039	1486.2466	1488.909	1497.5335	1501.7804	1507.5075	1526.8918	1837.2838	2835.2258	2939.0899	2971.9143	2979.9221	3014.8884	3017.1507	3040.286	3048.1604	3068.9575	3107.888	3117.4082	3119.6558
CCC(COC)C=O	CC[C@@H](COC)C=O	
InChI=1S/C6H12O2/c1-3-6(4-7)5-8-2/h4,6H,3,5H2,1-2H3	InChI=1S/C6H12O2/c1-3-6(4-7)5-8-2/h4,6H,3,5H2,1-2H3/t6-/m1/s1
