14
gdb 42498	6.40468	0.63109	0.57863	3.9024	71.29	-0.2789	-0.0911	0.1877	1764.5469	0.096536	-436.641236	-436.63159	-436.630646	-436.677277	32.139	
O	-0.1341434158	-0.0758958076	 0.000981184	-0.230143
C	-0.0227051568	 1.1179154179	 0.0055345314	 0.284241
C	 1.281694709	 1.8911784903	-0.0022934009	-0.152118
O	 2.3518920825	 1.004771244	-0.0160551203	-0.227682
C	 3.6089728241	 1.6705599728	-0.0236908591	-0.21151
C	 4.6833730754	 0.6907648289	-0.03805879	 0.281499
C	 5.5919611528	-0.0932454278	-0.0500038383	-0.399107
C	-1.2131364488	 2.0009859808	 0.0201229296	 0.206842
N	-2.1334152376	 2.7007348387	 0.0317641137	-0.290516
H	 1.2676411269	 2.5624015021	-0.8820741546	 0.135059
H	 1.2832511739	 2.5538198291	 0.8840882586	 0.135063
H	 3.6860654527	 2.3260970303	-0.9069534313	 0.129433
H	 3.7015697011	 2.3171183462	 0.864685463	 0.129435
H	 6.3898898806	-0.7943666758	-0.0606415658	 0.209502
37.828	79.3495	81.8655	125.3312	147.2975	239.8199	277.2294	331.0216	334.5416	426.7065	569.5645	579.4888	608.3217	620.0655	689.6452	837.5031	990.5084	1002.9744	1026.1907	1039.2487	1087.4613	1187.7543	1243.1298	1260.7921	1378.5199	1431.5705	1476.443	1505.0132	1824.512	2252.6749	2339.3415	2932.9877	2952.824	2964.4811	2987.3455	3505.0209
O=C(COCC#C)C#N	O=C(COCC#C)C#N	
InChI=1S/C6H5NO2/c1-2-3-9-5-6(8)4-7/h1H,3,5H2	InChI=1S/C6H5NO2/c1-2-3-9-5-6(8)4-7/h1H,3,5H2
