13
gdb 131717	2.80738	1.51777	0.99113	2.3348	63.95	-0.2815	-0.1133	0.1682	1083.0858	0.088308	-489.86991	-489.862194	-489.86125	-489.902685	27.498	
O	 0.1311908257	 1.3782415742	-0.0108134218	-0.418234
C	 0.0353695561	-0.0140152992	-0.0020946796	-0.113267
C	-1.3778494442	-0.5045641614	 0.0772546783	 0.167791
N	-2.3428840912	 0.3479165821	 0.1284206723	-0.329726
C	-3.6198620215	-0.1722903831	 0.2002037418	 0.106263
N	-3.9705031917	-1.4101382764	 0.2227978873	-0.054928
O	-2.9327899902	-2.3390235369	 0.1679360741	-0.242548
C	-1.6126870455	-1.9655523729	 0.0937820517	 0.440133
O	-0.7552073725	-2.802917057	 0.0483100448	-0.308928
H	-0.7715502306	 1.7245600549	 0.038484915	 0.300156
H	 0.4932524888	-0.454684553	-0.9031991789	 0.144909
H	 0.589987775	-0.4504386816	 0.8450878819	 0.144895
H	-4.4408883282	 0.5348065604	 0.2435803931	 0.163483
83.4658	114.7732	198.8106	225.0701	276.6194	347.8454	410.0114	522.3181	556.9065	588.9347	595.2665	762.2837	779.8768	892.9344	945.3918	961.1017	999.075	1049.179	1142.1004	1190.3026	1235.119	1258.8334	1338.918	1358.4036	1451.6674	1472.2745	1587.5069	1670.0904	1841.529	2981.4602	2991.3343	3209.3574	3724.0044
OCC1=NC=NOC1=O	OCc1ncnoc1=O	
InChI=1S/C4H4N2O3/c7-1-3-4(8)9-6-2-5-3/h2,7H,1H2	InChI=1S/C4H4N2O3/c7-1-3-4(8)9-6-2-5-3/h2,7H,1H2
