16
gdb 66904	2.59906	2.17832	1.85477	1.7543	70.76	-0.2306	-0.0276	0.203	831.3444	0.126399	-396.905215	-396.898587	-396.897643	-396.935835	26.748	
C	-0.154788941	 1.6435614507	-0.1026292592	-0.494753
C	-0.009297848	 0.1537025664	-0.0096159752	 0.292921
C	-0.0937682351	-0.8689356341	-1.1038758244	-0.073147
N	 1.0879902693	-1.6739347175	-1.1150468018	-0.167878
C	 1.7235351017	-1.3798935421	-0.0494947491	 0.004017
N	 1.0913400864	-0.4078308736	 0.8470118127	-0.218092
C	 0.3836339655	-1.4041990271	 1.65615007	 0.004015
N	-0.797961519	-1.708135834	 1.2856997337	-0.167879
C	-1.0781634554	-0.8867932108	 0.149219316	-0.07314
H	 0.7502773353	 2.1029925317	-0.5126565487	 0.132499
H	-0.9931160876	 1.8991817079	-0.7584708203	 0.123867
H	-0.3464824565	 2.0829882338	 0.8814976237	 0.132486
H	-0.5753695013	-0.6821697123	-2.0552120723	 0.112617
H	 2.6500766434	-1.8491746083	 0.2610146435	 0.139924
H	 0.9112291562	-1.8807089898	 2.4745031372	 0.139924
H	-2.1189926338	-0.710176311	-0.0902425157	 0.112618
178.7591	205.7911	277.9234	328.0906	366.8002	507.9594	583.0343	656.7328	719.7984	729.5733	804.6264	834.6241	836.9114	879.7291	889.172	917.3348	925.9515	930.6322	969.3423	1044.623	1068.3105	1076.6511	1102.9454	1144.862	1175.6246	1235.0083	1275.5305	1323.9746	1326.5349	1408.218	1436.7457	1478.0793	1496.8049	1632.6706	1636.5448	3034.3983	3104.2768	3109.0715	3197.5025	3206.1615	3209.3558	3215.8815
CC12C3N=CN1C=NC23	C[C@@]12[C@H]3[N][CH]N1[CH][N][C@@H]23	
InChI=1S/C6H7N3/c1-6-4-5(6)8-3-9(6)2-7-4/h2-5H,1H3	InChI=1S/C6H7N3/c1-6-4-5(6)8-3-9(6)2-7-4/h2-5H,1H3/t4-,5+,6-
