17
gdb 5064	3.22868	1.94485	1.23237	1.9823	71.97	-0.1776	0.0526	0.2301	970.2415	0.1411	-363.905266	-363.896149	-363.895205	-363.939732	32.093	
C	-0.0659088747	 1.5094905057	 0.0981914363	-0.506257
C	 0.0102543595	 0.0222966155	-0.0203088133	 0.241894
C	 0.0304581239	-0.8045203655	-1.1311004123	 0.08159
C	-0.0204117205	-0.4233351617	-2.5793953246	-0.539512
C	 0.1116964622	-2.1443723855	-0.6407015549	 0.249746
O	 0.156368132	-3.2885580027	-1.3892868978	-0.450435
C	 0.1389412896	-2.1103959399	 0.730113143	-0.184767
N	 0.0761031136	-0.7777028958	 1.0906822421	-0.304675
H	 0.8078393427	 1.9286307376	 0.6135681144	 0.125404
H	-0.1107999956	 1.9708152649	-0.8906450172	 0.133934
H	-0.9568959673	 1.8353671867	 0.6501683503	 0.125415
H	 0.8704193676	-0.7589046683	-3.1281647873	 0.120557
H	-0.8938324624	-0.8513280339	-3.0905620174	 0.120572
H	-0.0799402491	 0.6604897566	-2.70908223	 0.126062
H	 0.1234960428	-3.0412025427	-2.3178066281	 0.293008
H	 0.1962347291	-2.9013335127	 1.4577727926	 0.114064
H	 0.0783889664	-0.4418998282	 2.0368969941	 0.2534
25.8206	87.8636	157.3804	168.8659	253.6215	263.2816	288.2698	301.9052	413.6196	495.3628	563.9047	622.4104	651.1499	705.8235	710.8234	754.0821	937.8175	976.0362	1054.1528	1062.2999	1106.3006	1128.8345	1169.9471	1232.1169	1301.1535	1346.2305	1409.7109	1425.3257	1455.0658	1479.3841	1483.0385	1485.2403	1503.7927	1511.6747	1582.4699	1670.7959	3001.1931	3013.3944	3038.9927	3054.8788	3105.8937	3123.4974	3280.9638	3690.5704	3840.6159
CC1=C(C)C(O)=CN1	Cc1c(C)c(O)c[nH]1	
InChI=1S/C6H9NO/c1-4-5(2)7-3-6(4)8/h3,7-8H,1-2H3	InChI=1S/C6H9NO/c1-4-5(2)7-3-6(4)8/h3,7-8H,1-2H3
