17
gdb 106640	2.93222	1.24487	1.00214	2.2322	69.73	-0.2442	-0.0275	0.2168	1190.432	0.133027	-458.94171	-458.932586	-458.931642	-458.975915	33.076	
C	 0.1711267908	 1.4892405411	-0.0639927405	-0.51552
C	-0.0555740111	 0.0374150029	 0.1905268953	 0.204143
O	 1.0121952733	-0.9050014121	-0.0811815902	-0.318547
C	 0.4123162227	-0.9392452747	 1.2225382316	 0.315992
C	 1.311227648	-0.7508795701	 2.4035331431	-0.177423
O	 2.0984734984	-1.9033977897	 2.6523685505	-0.408329
C	-0.8175069224	-1.8484366008	 1.0681344385	-0.419721
C	-1.3291890155	-0.8009889598	 0.0342677341	 0.397308
O	-2.3717305585	-0.6208005621	-0.5198875467	-0.297402
H	 1.1352424178	 1.8099488344	 0.3386705271	 0.137737
H	 0.1644607002	 1.6903276597	-1.1400112465	 0.150425
H	-0.6233235933	 2.085848453	 0.3939864558	 0.141379
H	 1.9336643046	 0.142070738	 2.2458171892	 0.100962
H	 0.7120901252	-0.5908449729	 3.3057127097	 0.121536
H	 2.6325420957	-2.0586672065	 1.8652364106	 0.295232
H	-0.6124325114	-2.8570790223	 0.7060178364	 0.13859
H	-1.4812291445	-1.8890091083	 1.937220862	 0.133637
68.856	95.3161	140.9156	163.7549	223.861	270.5813	304.7676	397.744	411.5528	476.8303	519.2249	573.5223	651.2591	678.2371	754.5634	772.8718	855.4882	925.8718	982.3842	1015.0775	1051.1423	1066.4345	1099.7293	1128.3899	1173.6495	1187.8427	1254.9123	1309.8744	1371.3682	1404.6021	1423.2954	1439.0961	1467.0691	1484.0603	1485.4425	1494.1969	1897.1079	2999.299	3043.9488	3068.6996	3082.5169	3111.2461	3126.1631	3134.0512	3805.3423
CC12OC1(CO)CC2=O	C[C@@]12O[C@]1(CO)CC2=O	
InChI=1S/C6H8O3/c1-5-4(8)2-6(5,3-7)9-5/h7H,2-3H2,1H3	InChI=1S/C6H8O3/c1-5-4(8)2-6(5,3-7)9-5/h7H,2-3H2,1H3/t5-,6-/m0/s1
