16
gdb 60837	2.78155	1.0344	0.91895	3.9508	68.61	-0.264	-0.0631	0.2009	1289.0449	0.120287	-475.063025	-475.053312	-475.052368	-475.098457	32.792	
C	 0.1186623689	 1.4052906646	-0.1404976473	-0.387158
C	-0.0448032673	-0.1046621401	 0.0292480755	-0.106645
C	 0.7137095407	-0.6569447523	 1.2399789623	 0.147072
O	 1.5884623009	-0.0634321495	 1.8091168772	-0.226474
N	-1.4426095364	-0.5558037372	 0.055254367	-0.107712
C	-2.1973443231	-0.2878113095	 1.2103149261	 0.165096
O	-3.355448606	-0.5393749867	 1.3798424645	-0.25764
C	-1.9755774997	-1.1828959282	-1.0856324735	 0.170503
O	-3.0990836858	-1.5689503155	-1.2259937088	-0.255193
H	 1.1790219901	 1.6649118132	-0.134590008	 0.152704
H	-0.3287759717	 1.7350135979	-1.081207127	 0.133029
H	-0.3617321909	 1.9452145911	 0.6802137746	 0.140655
H	 0.4159209726	-0.6145689937	-0.8295155229	 0.131592
H	 0.4018409286	-1.683118029	 1.5375210821	 0.104659
H	-1.5667131443	 0.200457321	 1.9812633283	 0.104788
H	-1.1952262967	-1.283222096	-1.8676707298	 0.090724
52.025	89.518	120.861	159.8491	184.1907	224.1422	253.4849	262.5582	271.0817	404.8443	435.2811	524.4393	587.8164	712.1494	851.2391	923.3089	952.2254	1013.908	1035.6071	1037.0292	1101.9081	1143.7395	1200.2259	1247.6095	1313.0308	1374.9801	1401.6802	1416.7696	1449.907	1476.2741	1486.7772	1491.6565	1805.8171	1839.6675	1882.5628	2890.8025	2914.1957	2925.0823	3010.7278	3055.8161	3129.1372	3145.7446
CC(C=O)N(C=O)C=O	C[C@@H](C=O)N(C=O)C=O	
InChI=1S/C5H7NO3/c1-5(2-7)6(3-8)4-9/h2-5H,1H3	InChI=1S/C5H7NO3/c1-5(2-7)6(3-8)4-9/h2-5H,1H3/t5-/m0/s1
