21
gdb 101151	3.68747	0.85445	0.8233	2.6752	81.39	-0.2377	0.0142	0.2519	1494.8511	0.182845	-424.234636	-424.225171	-424.224227	-424.269596	35.128	
O	 0.0864050763	 1.4156489156	-0.1066047982	-0.424147
C	 0.0862032759	 0.0144414536	 0.0493467308	-0.064929
C	-1.3519316164	-0.5290432312	 0.0442515071	-0.036679
O	-2.0240924904	-0.0106783094	-1.1181258039	-0.442341
C	-1.4282357159	-2.024339499	 0.1411195529	 0.352875
C	-1.8674679031	-2.7190139829	 1.192664504	-0.176069
C	-1.7455337881	-4.2102268687	 1.0017698011	-0.247872
C	-1.4721489616	-4.3396631025	-0.5181191012	-0.206288
C	-0.9300293611	-2.9552682517	-0.9543704282	-0.320825
H	-0.6031490439	 1.5943967532	-0.7604137661	 0.284192
H	 0.6654768844	-0.480019068	-0.7514232341	 0.073062
H	 0.5739570923	-0.2203753816	 1.0013563023	 0.110121
H	-1.8854739005	-0.0781281077	 0.8872541232	 0.097252
H	-1.6870364187	-0.4839526829	-1.8875813222	 0.283368
H	-2.2413136622	-2.2732560935	 2.108855084	 0.091045
H	-0.9166799548	-4.6113322742	 1.6027965979	 0.108056
H	-2.6419032886	-4.7564262908	 1.3158306493	 0.105921
H	-0.7888171132	-5.1564972659	-0.7624247335	 0.09991
H	-2.414343969	-4.5376052578	-1.0384197133	 0.109639
H	-1.2813318457	-2.6789513908	-1.956750951	 0.091507
H	 0.1679612343	-2.9449725938	-1.003437611	 0.112202
42.9687	104.0279	117.8236	154.4358	223.094	279.3864	297.3854	333.86	364.328	513.1022	528.7403	539.9543	635.3421	730.301	815.1355	846.8879	859.2385	894.4313	909.2187	919.0868	964.445	1031.8836	1049.9631	1058.7921	1077.7977	1093.2498	1152.2896	1172.7765	1195.4793	1234.5763	1243.0806	1253.5744	1289.9118	1304.1712	1323.1555	1330.2221	1367.6168	1379.8333	1419.1198	1439.2504	1481.0652	1486.0293	1504.2609	1507.6254	1713.9683	2940.4631	3005.205	3006.5497	3031.5295	3051.4986	3062.6461	3064.2078	3075.7756	3105.1508	3184.5716	3751.8409	3797.3574
OCC(O)C1=CCCC1	OC[C@@H](O)C1=CCCC1	
InChI=1S/C7H12O2/c8-5-7(9)6-3-1-2-4-6/h3,7-9H,1-2,4-5H2	InChI=1S/C7H12O2/c8-5-7(9)6-3-1-2-4-6/h3,7-9H,1-2,4-5H2/t7-/m1/s1
