21
gdb 112948	4.21747	0.84073	0.7874	1.728	80.13	-0.2432	-0.0117	0.2316	1536.0475	0.180106	-424.228984	-424.2189	-424.217956	-424.265118	35.811	
C	 0.4141464632	 1.5086536138	 0.7154776944	-0.241896
O	 0.6059916266	 0.2964542214	 0.0201874956	-0.241304
C	 0.5961913347	-0.8276263243	 0.8568620652	 0.178205
C	-0.7686837422	-1.3658583565	 1.3766977146	-0.269989
C	-0.3137722225	-2.7976717402	 0.985542953	-0.116457
C	 0.8165636175	-2.1517546493	 0.1026036146	-0.274028
C	 0.2795552456	-3.5992148309	 2.1301646752	 0.384422
C	 0.4355301193	-5.0896712753	 1.8885269423	-0.480281
O	 0.6353279924	-3.0779361169	 3.1644944577	-0.30743
H	 1.1952364547	 1.668817903	 1.4750570006	 0.107365
H	 0.463210918	 2.3164940013	-0.018594923	 0.125526
H	-0.5645706271	 1.54610025	 1.2169537027	 0.109055
H	 1.3057587713	-0.7030204429	 1.6871331923	 0.083418
H	-1.0064834236	-1.2093133948	 2.4292549499	 0.116276
H	-1.5881765455	-1.0201339511	 0.7413187215	 0.102466
H	-1.0279369534	-3.4099246248	 0.4297887914	 0.078176
H	 0.4953225781	-2.052679152	-0.936667115	 0.118496
H	 1.8129623726	-2.5989213786	 0.1329609457	 0.106643
H	 0.9209306604	-5.2791813917	 0.9247832482	 0.138283
H	 1.011655276	-5.544345978	 2.6951816958	 0.140905
H	-0.5547238763	-5.558275452	 1.8399857071	 0.14215
39.3114	63.338	105.4228	141.0805	161.9535	199.0575	251.904	270.738	350.9992	438.4057	457.841	558.6732	592.0377	678.6906	745.4589	820.5192	880.45	915.3827	942.6406	972.0161	998.2547	1039.0236	1053.4829	1098.0606	1108.5036	1165.9385	1179.8351	1184.1861	1188.808	1203.918	1251.6387	1253.204	1270.0003	1301.7852	1362.9163	1382.6212	1392.5108	1454.6115	1462.7073	1475.5949	1479.6355	1486.4588	1490.9489	1510.1937	1801.7096	2976.2082	3005.3901	3023.9851	3033.7263	3064.0948	3067.5302	3078.8613	3094.0934	3114.525	3125.0793	3139.8755	3151.6299
COC1CC(C1)C(C)=O	CO[C@H]1C[C@@H](C1)C(=O)C	
InChI=1S/C7H12O2/c1-5(8)6-3-7(4-6)9-2/h6-7H,3-4H2,1-2H3	InChI=1S/C7H12O2/c1-5(8)6-3-7(4-6)9-2/h6-7H,3-4H2,1-2H3/t6-,7-
