19
gdb 115238	4.00199	0.97721	0.81893	2.5986	72.39	-0.2289	0.0242	0.253	1363.3955	0.162086	-456.371645	-456.363061	-456.362116	-456.405183	32.315	
O	 0.0684314442	 1.4037791076	 0.0671623059	-0.422414
C	 0.0840758633	-0.0024064044	-0.0042844543	-0.067304
C	-1.3404220715	-0.560597362	-0.0069212224	 0.011656
C	-1.395512743	-2.0866633455	-0.0949521474	-0.170937
N	-2.7560701071	-2.5531881072	 0.1425863019	-0.315776
C	-3.7639157608	-1.8749284718	 0.7702889039	 0.387859
O	-4.8562486216	-2.3712047556	 0.971685981	-0.373285
C	-3.4489237776	-0.4300940054	 1.1712824169	-0.28983
N	-2.0321428786	-0.0643412944	 1.1886846393	-0.311589
H	-0.644984848	 1.6147809121	 0.686841847	 0.286945
H	 0.6077235975	-0.2852185359	-0.9240909569	 0.109432
H	 0.6439198823	-0.4461173329	 0.8401988773	 0.078212
H	-1.8688145956	-0.1359305666	-0.8707070311	 0.102177
H	-1.0676971931	-2.4228462351	-1.0861633627	 0.117794
H	-0.7012131173	-2.5240650087	 0.6405430546	 0.103458
H	-2.9845135808	-3.5115094321	-0.0807371389	 0.248612
H	-3.9810760591	 0.2223264471	 0.467202813	 0.142483
H	-3.8946438226	-0.2576941888	 2.1535274628	 0.139291
H	-1.5928733108	-0.4728364302	 2.01148945	 0.223217
73.4695	126.1309	154.3712	183.4352	240.9808	356.7201	419.6079	437.3928	489.9935	522.5189	528.3595	554.5618	646.1794	721.6297	774.1256	858.309	883.7108	935.3877	995.9229	1045.7684	1086.3357	1105.5587	1111.6747	1138.9015	1152.9784	1217.517	1242.0231	1278.5633	1302.3468	1340.4692	1346.4241	1372.516	1389.9636	1397.6789	1453.1847	1460.826	1483.6535	1485.9755	1514.4078	1525.3391	1793.5702	2930.2843	2972.5033	3028.9645	3037.4213	3045.5963	3067.1985	3113.0566	3474.8913	3602.4785	3726.7192
OCC1CNC(=O)CN1	OC[C@H]1CNC(=O)CN1	
InChI=1S/C5H10N2O2/c8-3-4-1-7-5(9)2-6-4/h4,6,8H,1-3H2,(H,7,9)	InChI=1S/C5H10N2O2/c8-3-4-1-7-5(9)2-6-4/h4,6,8H,1-3H2,(H,7,9)/t4-/m1/s1
