12
gdb 12616	3.17491	2.21923	1.36569	2.2149	50.99	-0.2693	-0.0572	0.2122	817.4386	0.082821	-455.654547	-455.647579	-455.646635	-455.686029	24.907	
O	 0.2268886759	 1.3318703183	 0.4577943447	-0.413983
C	-0.0160121828	 0.0292761358	 0.0454421237	-0.090767
C	-1.4753320288	-0.3583962264	-0.1712845005	 0.347269
O	-2.4583130129	 0.0645216975	 0.3623564946	-0.268368
C	-1.4237492687	-1.4335387742	-1.2665262345	-0.193527
O	-0.1596759964	-1.25280626	-1.9338337353	-0.213325
C	 0.6023964312	-0.327855238	-1.3012601067	 0.405388
O	 1.6058075044	 0.137418243	-1.7569101901	-0.335133
H	 1.0394025985	 1.6111146909	 0.0117791259	 0.306843
H	 0.3742046854	-0.722651906	 0.7634662962	 0.134703
H	-1.4755448983	-2.4411806824	-0.8393539233	 0.155859
H	-2.2329812673	-1.3091005187	-1.9895193547	 0.16504
84.3956	181.8312	222.6172	270.3397	348.3546	394.5201	521.9765	561.9999	604.5725	651.0622	715.3693	789.9032	908.4779	984.9273	1055.0626	1098.4984	1138.6078	1183.0962	1209.2027	1241.5282	1337.4211	1369.7944	1403.8997	1484.9196	1868.3368	1907.0617	2896.8983	3053.4754	3119.9558	3746.2349
OC1C(=O)COC1=O	O[C@H]1C(=O)COC1=O	
InChI=1S/C4H4O4/c5-2-1-8-4(7)3(2)6/h3,6H,1H2	InChI=1S/C4H4O4/c5-2-1-8-4(7)3(2)6/h3,6H,1H2/t3-/m0/s1
