22
gdb 18258	3.96536	1.45769	1.21667	0.1844	81.03	-0.2591	0.0856	0.3448	1089.9951	0.202471	-313.0812	-313.073268	-313.072324	-313.113287	31.358	
C	 0.0544866384	 1.5588140575	 0.0012208487	-0.383052
C	 0.0147514408	 0.0273076841	 0.0288091553	-0.179171
C	-1.4017887965	-0.5600561227	-0.0067046398	 0.047536
C	-2.2034294493	-0.2440211449	-1.2961636069	-0.234569
C	-3.2431579503	-1.3803918299	-1.4293325009	-0.219446
C	-2.5881237118	-2.5863925745	-0.7697637329	-0.02973
C	-1.1577071221	-2.8910890578	-1.1425521403	-0.289572
C	-1.4584020152	-2.0825395896	 0.0989743284	-0.036703
H	 1.0823179931	 1.9298825734	 0.0643557411	 0.109147
H	-0.3843045638	 1.9561221669	-0.9198258391	 0.116267
H	-0.5038879255	 1.9840086272	 0.8431998869	 0.110817
H	 0.5880896766	-0.3728999405	-0.817889559	 0.09204
H	 0.523359227	-0.3298382495	 0.9337550439	 0.089194
H	-1.9578663227	-0.1555914981	 0.8526764698	 0.063728
H	-2.6713271059	 0.7432730632	-1.2676263681	 0.09611
H	-1.5282198451	-0.2418282331	-2.1597345534	 0.098436
H	-4.1577305212	-1.1245537881	-0.8803771276	 0.095991
H	-3.5340036745	-1.5571504411	-2.4710054527	 0.092918
H	-3.2198553045	-3.4075822247	-0.4485588805	 0.07568
H	-0.8150774193	-3.9095340717	-0.9947500491	 0.105002
H	-0.7169836889	-2.4051703902	-2.0074900703	 0.105534
H	-1.2464577895	-2.5340692359	 1.0627334766	 0.073843
98.1456	134.8994	199.072	247.2288	275.5254	359.29	397.4753	472.139	597.922	629.2369	760.8122	779.3304	822.5502	839.9733	856.6969	908.2375	939.2939	955.3624	980.3197	989.6052	1008.076	1049.4795	1065.3611	1074.0015	1088.8635	1108.9322	1145.8628	1156.84	1203.2605	1209.9567	1229.0792	1283.6974	1311.5688	1315.8744	1329.8138	1344.6491	1362.8131	1391.0421	1397.941	1411.7039	1485.8171	1486.7587	1492.5766	1500.9328	1507.6195	1512.4473	2985.3161	3015.5488	3027.2798	3030.154	3037.6276	3047.6044	3065.0857	3093.6166	3095.7094	3103.6471	3126.1071	3155.3648	3165.9832	3207.5033
CCC1CCC2CC12	CC[C@H]1CC[C@H]2C[C@@H]12	
InChI=1S/C8H14/c1-2-6-3-4-7-5-8(6)7/h6-8H,2-5H2,1H3	InChI=1S/C8H14/c1-2-6-3-4-7-5-8(6)7/h6-8H,2-5H2,1H3/t6-,7-,8-/m0/s1
