17
gdb 56016	3.22371	0.86423	0.81516	2.4406	80.67	-0.1452	0.0001	0.1453	1434.1071	0.133299	-455.141398	-455.131415	-455.130471	-455.178921	33.819	
O	 0.0891777513	-0.249073379	 0.2201844788	-0.314586
C	 0.6653990272	 0.7366093292	-0.0245140828	 0.556038
O	 1.3471548457	 1.6486726623	-0.2642358929	-0.291397
C	-1.8419944805	 2.2578479058	-0.080689066	-0.438166
N	-2.6859949954	 1.2097049064	 0.0948788836	 0.159549
C	-3.019446492	 0.351888715	-1.0720449223	-0.170872
C	-4.1579096097	-0.5220240299	-0.521534536	-0.179852
N	-3.9663030407	-0.5120102676	 0.9409586734	-0.316553
H	-3.4762580166	-1.3509614761	 1.2505805598	 0.234448
C	-3.218939825	 0.6633545954	 1.1768838032	-0.070378
H	-1.6649830685	 2.8775045247	 0.7894236656	 0.096054
H	-1.8801625893	 2.7330827047	-1.0512010669	 0.096205
H	-3.3132793733	 0.9788120942	-1.9151893825	 0.131885
H	-2.1185369625	-0.2091473626	-1.3355012699	 0.138017
H	-5.1289357681	-0.0714700559	-0.7539978214	 0.124345
H	-4.1455228763	-1.538751642	-0.9176364739	 0.116938
H	-3.0796881465	 1.0837249652	 2.1598389403	 0.128322
28.0245	39.8601	65.2146	83.4521	143.4654	170.8543	252.0542	379.6863	440.5095	511.9533	559.422	604.3134	632.5084	647.5861	681.0636	721.3072	795.1769	872.6553	939.8034	973.1727	990.7112	1094.4216	1128.7705	1157.388	1222.1347	1237.4687	1312.0836	1336.4563	1349.659	1357.5085	1389.9791	1407.5961	1488.563	1494.8581	1505.7044	1623.7772	2406.0652	3045.8854	3070.8343	3117.9042	3134.1131	3156.8797	3261.0755	3263.436	3416.146
[O-]C(=O)CN1CC[NH+]=C1	O=C=O.[CH2]N1CCN[CH]1	
InChI=1S/C5H8N2O2/c8-5(9)3-7-2-1-6-4-7/h4H,1-3H2,(H,8,9)	InChI=1S/C4H8N2.CO2/c1-6-3-2-5-4-6;2-1-3/h4-5H,1-3H2;
