21
gdb 53386	2.8744	0.9475	0.849	1.9153	88.33	-0.2391	0.0289	0.268	1501.6857	0.1795	-387.055393	-387.044791	-387.043847	-387.092495	37.428	
C	 0.1971519653	 1.4749677216	-0.4217563346	-0.500625
C	 0.0843742014	 0.0564823665	-0.1173962767	 0.095134
C	-0.0059427804	-1.1160925873	 0.1448217582	 0.072164
C	-0.1030316296	-2.5325049177	 0.4396124993	-0.090736
O	-0.2823920505	-2.8366853621	 1.8470612812	-0.286889
C	-1.3435817729	-3.7679229318	 1.5564887579	-0.102918
C	-1.4114966425	-3.3221842461	 0.0745713344	 0.264517
C	-2.6148859511	-2.4339243397	-0.227307921	-0.43979
C	-1.2341631928	-4.4139472377	-0.9738045983	-0.45653
H	 1.0480440261	 1.6756958376	-1.0819264213	 0.149744
H	-0.705519	 1.8514594509	-0.9154296595	 0.148982
H	 0.3422696492	 2.0598189123	 0.4932181868	 0.155002
H	 0.7911579158	-3.0467140846	 0.0556718156	 0.08782
H	-1.0257854387	-4.8095009719	 1.7041699631	 0.090758
H	-2.2340393066	-3.5749811649	 2.1662730561	 0.10135
H	-2.726331335	-1.6480086897	 0.524575527	 0.129865
H	-2.5127608807	-1.9495237862	-1.2036985746	 0.11865
H	-3.5332561964	-3.0317356162	-0.2389737345	 0.109057
H	-2.1265597803	-5.0470349587	-1.0346849595	 0.117033
H	-1.0694468447	-3.9798014132	-1.9664221914	 0.121125
H	-0.3805500755	-5.0593918611	-0.7422598682	 0.116286
26.3812	43.6023	86.9023	132.2662	207.7852	240.0276	255.9147	278.2974	331.3439	344.9521	380.9661	393.4116	484.4001	528.9964	650.5716	789.1925	867.699	884.9899	941.039	962.8073	974.4208	1004.5948	1025.098	1040.1961	1050.2363	1054.7126	1157.6409	1187.9896	1200.5564	1223.279	1269.4376	1287.9018	1353.7202	1371.9054	1403.6816	1413.3336	1422.2284	1475.8791	1478.1446	1483.0137	1485.4015	1500.9119	1504.2488	1526.5469	2364.0508	2979.1337	2999.6168	3024.549	3027.8569	3032.8434	3054.0848	3088.9178	3090.5112	3090.7207	3097.8076	3099.1279	3115.4846
CC#CC1OCC1(C)C	CC#C[C@H]1OCC1(C)C	
InChI=1S/C8H12O/c1-4-5-7-8(2,3)6-9-7/h7H,6H2,1-3H3	InChI=1S/C8H12O/c1-4-5-7-8(2,3)6-9-7/h7H,6H2,1-3H3/t7-/m1/s1
