17
gdb 68681	2.41215	1.8221	1.41077	1.5025	67.93	-0.2463	-0.0242	0.2221	958.5502	0.136588	-458.961614	-458.95395	-458.953005	-458.993466	29.836	
O	 0.2260518717	 1.4228192747	-0.1744092051	-0.478535
C	 0.0523180459	 0.0503461238	-0.0561377721	 0.269524
C	-1.3533473665	-0.6584356692	-0.0003835142	-0.294902
C	-0.6429891341	-1.7693893716	 0.8400888076	-0.175393
C	 0.128136552	-2.6993913017	-0.1316398314	-0.089357
O	 0.4482632805	-2.0124940185	-1.3295196867	-0.242521
C	 0.8930194824	-0.6831475588	-1.1377445232	-0.123075
C	 0.2960237768	-0.6427773064	 1.2761419548	 0.362637
O	 0.8144003633	-0.2857653677	 2.298593521	-0.340017
H	 0.3517884306	 1.7772222946	 0.7148852023	 0.297665
H	-2.0733264456	-0.0877673826	 0.588383982	 0.116042
H	-1.7742920748	-0.9616076979	-0.9590697889	 0.127049
H	-1.1869588332	-2.3205592255	 1.6071245767	 0.100058
H	 1.0306177323	-3.0944786004	 0.3601401776	 0.109566
H	-0.4969973798	-3.5467352883	-0.4286008919	 0.122072
H	 0.7623013284	-0.1624369937	-2.0911100957	 0.129775
H	 1.9579864103	-0.6414640908	-0.8630075427	 0.109411
128.5415	191.6039	229.3324	256.3209	310.3179	351.5136	410.7455	446.4581	499.9544	564.0216	688.8331	768.9978	791.9413	822.2955	875.686	894.8059	950.8322	954.9747	1010.9616	1052.9737	1074.0029	1097.1366	1137.0447	1147.5516	1172.2598	1214.5726	1236.8972	1267.5415	1291.0804	1296.785	1374.5672	1379.6427	1407.3381	1475.9543	1505.3546	1516.861	1873.7249	2986.4108	2993.4393	3080.9084	3083.6965	3087.9506	3121.7818	3154.0973	3777.2859
OC12CC(COC1)C2=O	O[C@@]12C[C@@H](COC1)C2=O	
InChI=1S/C6H8O3/c7-5-4-1-6(5,8)3-9-2-4/h4,8H,1-3H2	InChI=1S/C6H8O3/c7-5-4-1-6(5,8)3-9-2-4/h4,8H,1-3H2/t4-,6-/m0/s1
