16
gdb 39090	3.66862	1.77991	1.55086	1.3211	66.78	-0.2513	-0.0013	0.25	859.0211	0.127579	-437.844181	-437.838285	-437.837341	-437.874125	24.976	
C	-0.0416476233	 1.6256019594	 0.2063230477	-0.298059
C	 1.456549114	 1.3813497431	-0.003792003	 0.056979
O	 1.7963932519	 0.5363475746	 1.1397046192	-0.2899
C	 0.6936896697	-0.4224471213	 1.2158189766	-0.153674
C	-0.0415000055	 0.071630354	-0.0105103439	 0.362342
O	-1.1058555556	-0.5170446952	-0.7321250208	-0.280736
C	-0.792120587	-0.1355660353	-2.0215546004	 0.0849
N	 0.3430120809	 0.3802408872	-2.2835617374	-0.290459
C	 1.1081660474	 0.2710189012	-1.029600743	 0.010582
H	-0.3543455035	 2.0107856126	 1.1777997121	 0.107414
H	-0.5198381124	 2.1598409925	-0.6131766494	 0.126272
H	 2.2196759551	 2.1483002832	-0.1108043087	 0.092674
H	 1.0738553837	-1.4444016272	 1.1239717691	 0.117329
H	 0.1644289542	-0.3059537987	 2.1669918442	 0.112403
H	-1.5854504312	-0.3140728201	-2.738630009	 0.145453
H	 1.8910975013	-0.4863651001	-1.1361014034	 0.096478
269.1984	314.0312	359.0758	454.7179	459.1965	514.9179	570.2415	680.8492	720.5288	847.6074	850.8769	878.771	910.0835	921.6364	948.6907	955.2838	969.5729	1025.8384	1036.0779	1055.5376	1075.5458	1112.1303	1139.1274	1168.4894	1201.6525	1238.8528	1248.3829	1265.9159	1289.2983	1325.4019	1336.945	1369.3185	1483.6381	1534.0957	1642.4044	3040.9142	3063.2565	3089.311	3091.364	3156.0132	3165.1296	3220.7332
C1C2OCC11OC=NC21	C1[C@H]2OC[C@]31O[CH][N][C@@H]23	
InChI=1S/C6H7NO2/c1-4-5-6(1,2-8-4)9-3-7-5/h3-5H,1-2H2	InChI=1S/C6H7NO2/c1-4-5-6(1,2-8-4)9-3-7-5/h3-5H,1-2H2/t4-,5+,6+/m1/s1
