19
gdb 72171	2.42822	2.11259	1.67999	1.0484	73.07	-0.2291	0.0917	0.3208	905.422	0.161491	-423.013041	-423.006114	-423.00517	-423.043905	28.831	
C	 0.0147884736	 1.48342916	-0.0715737013	-0.517524
C	-0.0504100094	-0.0128591306	-0.0070115851	 0.444151
O	 0.2535507477	-0.7252570386	-1.2358545979	-0.338715
C	-0.3671238426	-1.8642296895	-0.5666269043	 0.054757
C	 0.7132401068	-2.190025039	 0.483877739	-0.238651
C	 0.7041448984	-0.7831449463	 1.1375356399	 0.040604
O	-0.205346102	-0.7628536176	 2.2353206725	-0.274717
C	-1.5005997443	-1.0709679227	 1.6835880646	-0.118246
C	-1.3223512562	-0.8791340546	 0.1838262706	-0.111675
H	 1.0221523309	 1.8084283661	-0.3529588213	 0.131182
H	-0.690317443	 1.8811794467	-0.8069110883	 0.125868
H	-0.2200693554	 1.9083807038	 0.9090553414	 0.135527
H	-0.7191784774	-2.6412125346	-1.244626545	 0.079187
H	 0.4573933952	-2.9694694002	 1.2056659328	 0.106228
H	 1.6528294528	-2.4414208782	-0.012142027	 0.109894
H	 1.6586927165	-0.3825673804	 1.4764558984	 0.079356
H	-1.8015099929	-2.0923799526	 1.9560675365	 0.099207
H	-2.2339679437	-0.377788949	 2.1101563096	 0.109373
H	-2.1953595848	-0.5767306328	-0.3922076851	 0.084192
201.7287	221.8779	246.805	274.8	413.5494	455.0322	520.4779	599.4806	621.8601	720.7704	731.085	822.8138	834.884	881.8345	895.7236	901.7286	913.511	961.3879	974.0728	1001.763	1025.0457	1060.687	1071.7656	1127.306	1139.2481	1142.714	1167.6987	1195.1857	1225.6939	1255.3599	1279.7317	1293.2993	1310.3974	1335.7191	1357.831	1392.0493	1417.3746	1477.8096	1482.1263	1494.0969	1524.4755	3003.0451	3038.2139	3057.6788	3071.8878	3106.9195	3118.381	3123.6588	3125.5761	3131.5167	3138.6989
CC12OC3CC1OCC23	C[C@@]12O[C@H]3C[C@@H]1OC[C@@H]23	
InChI=1S/C7H10O2/c1-7-4-3-8-6(7)2-5(4)9-7/h4-6H,2-3H2,1H3	InChI=1S/C7H10O2/c1-7-4-3-8-6(7)2-5(4)9-7/h4-6H,2-3H2,1H3/t4-,5+,6+,7+/m1/s1
