20
gdb 57727	2.60197	1.00203	0.95303	4.2656	76.52	-0.2491	-0.0259	0.2232	1349.0324	0.167851	-440.326841	-440.316237	-440.315293	-440.363266	37.294	
C	 0.3242022485	 1.5307322993	 0.4616117012	-0.429863
C	-0.0510185993	 0.0900390316	 0.0533840981	 0.144635
C	 0.2755329546	-0.880662537	 1.2055991086	-0.41796
C	-1.5291334078	-0.0095788952	-0.3804742854	-0.182457
N	-2.4820539	 0.3948061486	 0.6433558833	-0.282169
C	-3.1559114109	-0.4957112756	 1.420714084	 0.153417
O	-2.9827891895	-1.6960185447	 1.4185705083	-0.323584
C	 0.8331362872	-0.2795331548	-1.1304613935	 0.158149
O	 0.4464060054	-0.5311901805	-2.2424960611	-0.257209
H	 1.3898370158	 1.609311844	 0.7006371821	 0.125624
H	 0.1043361749	 2.2467509164	-0.3377889965	 0.122296
H	-0.236143643	 1.8254810827	 1.3540357257	 0.122863
H	-0.2670237069	-0.5924378659	 2.1095255578	 0.134015
H	-0.0141753711	-1.9052292032	 0.9589712086	 0.144982
H	 1.3462693265	-0.863865515	 1.4366550761	 0.111801
H	-1.6862771915	 0.6030442199	-1.272426247	 0.119593
H	-1.7616009743	-1.0423270921	-0.6471988692	 0.151187
H	-2.7481509391	 1.364048155	 0.70579875	 0.249057
H	-3.8955228511	 0.0077430115	 2.075085529	 0.076212
H	 1.9220772715	-0.2937123848	-0.8859049802	 0.07941
37.0143	72.0728	89.7448	165.9042	202.6502	226.5306	243.1527	259.0812	312.557	336.9251	343.4949	395.5126	478.335	533.5711	631.1628	735.6064	758.6771	891.1124	933.7359	955.2029	962.1127	997.3396	1002.4892	1033.1765	1068.8187	1183.6742	1218.8974	1224.7165	1265.5706	1321.8549	1391.3091	1395.0828	1409.9553	1429.3007	1430.8688	1462.4947	1479.4653	1487.9614	1505.9697	1506.7829	1530.1772	1804.5603	1827.9525	2849.5885	2933.6938	3030.0751	3039.0874	3069.0618	3100.2209	3106.9831	3110.1649	3127.096	3129.1006	3640.5753
CC(C)(CNC=O)C=O	CC(C)(CNC=O)C=O	
InChI=1S/C6H11NO2/c1-6(2,4-8)3-7-5-9/h4-5H,3H2,1-2H3,(H,7,9)	InChI=1S/C6H11NO2/c1-6(2,4-8)3-7-5-9/h4-5H,3H2,1-2H3,(H,7,9)
