17
gdb 78719	4.65377	1.16584	1.0565	3.5214	78.47	-0.2494	0.012	0.2614	1143.3926	0.136987	-380.813047	-380.805535	-380.804591	-380.844863	29.29	
C	-0.116063111	 1.4713625531	 0.0210820935	-0.40281
C	 0.0343351191	-0.0380173625	-0.0157458829	 0.042593
C	 0.8454377479	-0.5775436531	-1.1869184844	-0.118732
C	 2.0632049626	-0.548293656	-0.3291339191	-0.068284
N	 1.1514128728	-0.5110981657	 0.9129734002	-0.177333
C	 1.0293717337	-2.0113896139	 0.7965225037	-0.232653
C	 1.4710020389	-1.9028147602	-0.661328622	 0.192983
C	 1.971697152	-2.9076814017	-1.5361096187	 0.165565
N	 2.3763566806	-3.7431970989	-2.2282016453	-0.346818
H	 0.8396021847	 1.9683317382	-0.1719837385	 0.12483
H	-0.8351264324	 1.8055450718	-0.7339411696	 0.120595
H	-0.474193712	 1.7877752901	 1.0046401478	 0.132785
H	-0.9239588098	-0.5247424111	 0.1994623882	 0.08173
H	 0.7636476441	-0.3997840331	-2.2521512435	 0.115882
H	 3.0656736068	-0.1554870703	-0.4150976698	 0.123598
H	 1.7864071083	-2.4963733733	 1.4160133144	 0.129535
H	 0.0379492036	-2.4128308633	 1.0280720258	 0.116535
132.8962	140.3247	230.7412	252.9891	301.1037	416.2397	466.5125	535.0998	550.5319	586.2579	746.9001	784.3698	802.9183	839.4467	882.9913	910.2778	931.1733	956.3711	1008.1684	1015.4029	1062.6156	1078.1316	1095.7539	1134.9414	1138.7572	1183.7447	1204.9854	1232.0857	1281.6042	1295.1175	1376.2162	1389.9162	1413.7266	1489.3602	1491.882	1512.7446	2343.9041	3038.632	3040.1875	3055.0383	3110.4303	3119.9785	3120.8437	3197.0619	3231.8181
CC1C2C3N1CC23C#N	C[C@H]1[C@H]2[C@H]3N1C[C@@]23C#N	
InChI=1S/C7H8N2/c1-4-5-6-7(5,2-8)3-9(4)6/h4-6H,3H2,1H3	InChI=1S/C7H8N2/c1-4-5-6-7(5,2-8)3-9(4)6/h4-6H,3H2,1H3/t4-,5-,6+,7-/m0/s1
