15
gdb 72526	2.34269	1.88928	1.70104	0.9699	59.75	-0.2483	-0.0427	0.2056	873.5215	0.113222	-494.896439	-494.889212	-494.888267	-494.927921	27.809	
O	 0.0324461536	 1.368520098	 0.0880805449	-0.488032
C	 0.0198983452	-0.0163269208	 0.0682356193	 0.221022
C	 0.8310485154	-0.7451089997	 1.1638080922	-0.11345
O	 1.0128397091	-2.0852730848	 0.6194217571	-0.273605
C	 0.3624191598	-2.1073726314	-0.6362660003	 0.092534
O	-1.0421726607	-2.0511420942	-0.4814191721	-0.273576
C	-1.3600024756	-0.7086196496	-0.0099683777	-0.113487
C	 0.6581147441	-0.6994160633	-1.1445150185	 0.372849
O	 1.1776654418	-0.1962965415	-2.0991915354	-0.335452
H	 0.4723749509	 1.6567122123	-0.7257999572	 0.297635
H	 1.804687189	-0.2677195748	 1.3154002292	 0.123925
H	 0.3037237869	-0.8139509367	 2.1208146431	 0.120934
H	 0.6476860998	-2.9930746574	-1.196193897	 0.123826
H	-1.866332016	-0.7777801042	 0.958269294	 0.120957
H	-2.0128598034	-0.204245802	-0.7298312918	 0.123921
150.6234	167.6163	225.9957	317.3921	333.5059	383.5114	439.2701	522.6164	547.5324	646.0279	698.8932	777.4604	800.501	895.011	913.5248	951.482	963.1523	997.1728	1065.165	1112.4648	1145.5362	1146.787	1182.8391	1199.2377	1246.9095	1292.0944	1303.0183	1352.185	1393.0582	1415.9316	1519.1522	1533.8907	1901.0562	3037.1379	3038.9819	3087.9718	3091.0258	3183.0884	3719.7563
OC12COC(OC1)C2=O	O[C@@]12CO[C@@H](OC1)C2=O	
InChI=1S/C5H6O4/c6-3-4-8-1-5(3,7)2-9-4/h4,7H,1-2H2	InChI=1S/C5H6O4/c6-3-4-8-1-5(3,7)2-9-4/h4,7H,1-2H2/t4-,5-
