21
gdb 104633	2.50585	1.17845	0.95749	4.4617	83.44	-0.2368	0.0297	0.2665	1340.0114	0.181932	-383.268813	-383.258996	-383.258051	-383.303439	36.41	
C	 0.028461643	 1.4758124583	 0.0915271181	-0.341331
N	-0.1203614514	 0.0401492776	-0.1396073594	-0.336252
C	 0.6840675848	-0.4959454084	-1.2183247223	 0.158943
C	 2.263270151	-0.5073393264	-1.146608114	-0.276818
C	 2.2446732103	-1.9599359381	-1.6947404658	 0.051146
C	 3.2145564935	-2.9756718363	-1.1133877245	-0.411136
C	 0.744387867	-2.0532782496	-1.3044908493	-0.284983
C	 0.238660661	 0.0838523146	-2.4935502825	 0.298555
N	-0.0827451038	 0.5370904258	-3.507316396	-0.353543
H	 1.0647772599	 1.796553734	 0.2890078706	 0.10418
H	-0.3333232817	 2.0240356382	-0.7834519362	 0.152193
H	-0.5894027397	 1.7631330642	 0.9460887748	 0.125782
H	 0.1000251514	-0.4737720224	 0.7064667755	 0.220727
H	 2.810391789	 0.2522903584	-1.7072559654	 0.118031
H	 2.5737548748	-0.4754879566	-0.0965085685	 0.09839
H	 2.336419245	-1.938851091	-2.7854168101	 0.095737
H	 3.1406847036	-3.0112816486	-0.0202660855	 0.109455
H	 3.0109055931	-3.9822643569	-1.4946941887	 0.121796
H	 4.250104827	-2.7268979065	-1.3694977201	 0.121819
H	 0.6143761701	-2.4752871873	-0.3017861782	 0.101297
H	 0.0499509822	-2.5444441731	-1.9873043423	 0.126012
72.5365	100.4175	162.286	173.7732	194.5263	231.0457	255.3966	309.3219	366.7277	413.1852	431.0157	500.1334	586.114	631.3443	703.8706	745.2582	831.9966	853.6815	896.6828	939.3822	953.5461	999.8733	1031.1378	1051.3852	1107.584	1124.757	1144.4814	1164.6897	1195.192	1220.7208	1229.1997	1276.9025	1294.2517	1310.3115	1378.6658	1413.8159	1458.0271	1465.6516	1475.7853	1492.6385	1493.9627	1495.8357	1498.4712	1518.3133	2351.9961	2968.532	3024.8351	3045.3211	3047.6243	3058.0341	3078.2887	3093.4161	3096.355	3120.6159	3122.5814	3127.9403	3529.6658
CNC1(CC(C)C1)C#N	CN[C@]1(C[C@@H](C)C1)C#N	
InChI=1S/C7H12N2/c1-6-3-7(4-6,5-8)9-2/h6,9H,3-4H2,1-2H3	InChI=1S/C7H12N2/c1-6-3-7(4-6,5-8)9-2/h6,9H,3-4H2,1-2H3/t6-,7+
