18
gdb 105214	2.25555	1.50748	1.03299	5.1004	68.91	-0.2497	0.0189	0.2686	1157.9816	0.147366	-476.236277	-476.227148	-476.226204	-476.269976	34.756	
N	 1.1131754551	-1.022326336	 0.6661907639	-0.542318
C	-0.0292660777	-0.2923984558	 0.7069245625	 0.368035
O	-0.0720814332	 0.8258847982	 1.2099748264	-0.392181
C	-1.2653712846	-0.8779196624	 0.0618428718	 0.174498
C	-2.5428983969	-0.1846096408	 0.5298781457	-0.1242
O	-2.5987200641	 1.1662876941	 0.1390455174	-0.423375
C	-1.1879388742	-1.2619674612	-1.4150838988	-0.342173
C	-1.3931980878	-2.3198552715	-0.3753271085	 0.024093
O	-0.3676426022	-3.235258043	-0.0733687343	-0.422601
H	 1.9036055911	-0.6461346576	 1.1652652716	 0.256837
H	 1.0583459589	-2.0123786476	 0.4723963704	 0.271751
H	-3.4104540663	-0.6830404515	 0.082464335	 0.091515
H	-2.6255690547	-0.2963863972	 1.6226951762	 0.095138
H	-1.8005180749	 1.5577582871	 0.5267372203	 0.296375
H	-2.0147821298	-0.9677473765	-2.0523807401	 0.135685
H	-0.2071384629	-1.2119301204	-1.876058937	 0.127408
H	-2.3894169261	-2.7470577952	-0.2713799301	 0.106568
H	-0.2515494597	-3.8099413526	-0.8376917324	 0.298947
68.7297	122.4108	188.4138	246.893	268.2056	288.3112	310.9516	369.0188	390.0363	463.5049	496.1567	514.1788	613.2509	635.056	659.8099	713.5735	776.2812	821.4166	902.659	938.8195	962.6456	1025.3921	1057.3075	1083.5955	1104.0567	1141.9008	1165.5491	1205.5507	1249.0464	1295.4564	1317.2083	1385.8859	1412.7218	1424.2734	1466.9438	1479.5425	1501.8647	1618.4306	1748.2559	2978.4928	3056.5858	3114.9936	3133.8291	3225.5964	3542.5688	3694.4585	3700.4689	3805.9647
NC(=O)C1(CO)CC1O	NC(=O)[C@@]1(CO)C[C@H]1O	
InChI=1S/C5H9NO3/c6-4(9)5(2-7)1-3(5)8/h3,7-8H,1-2H2,(H2,6,9)	InChI=1S/C5H9NO3/c6-4(9)5(2-7)1-3(5)8/h3,7-8H,1-2H2,(H2,6,9)/t3-,5-/m1/s1
