14
gdb 23535	2.16682	1.76728	1.09264	3.3946	70.72	-0.2555	-0.0251	0.2304	1056.4186	0.100541	-432.776254	-432.768431	-432.767487	-432.808853	28.849	
O	-0.1247741364	 1.2868403282	 0.0676019992	-0.383544
N	 0.0478344425	-0.096387233	-0.0435030015	-0.241398
C	-1.0538900541	-0.7003584669	 0.0924839659	 0.436583
C	-1.4313902728	-2.1217311784	-0.0535875577	-0.124278
C	-2.3942046119	-2.5070174753	 1.0109576191	-0.244823
N	-2.9230292819	-1.7394006721	-0.1233559271	-0.123302
C	-2.5286135906	-0.2919915827	 0.1291701254	-0.22073
C	-3.0767972947	 0.3174617378	 1.3326564079	 0.319817
N	-3.5135066418	 0.778950932	 2.2981166116	-0.327756
H	 0.7711201994	 1.6218743295	-0.0506947817	 0.318181
H	-0.9810066753	-2.8350929455	-0.7327942057	 0.131991
H	-2.7322903283	-3.5383587284	 1.0047363735	 0.145495
H	-2.3432894889	-2.0464230045	 1.9938858006	 0.152051
H	-2.7866364254	 0.3147627793	-0.7434891596	 0.161711
95.3149	129.5723	173.0257	221.7832	316.3233	394.4049	435.3495	449.5119	506.4674	601.1901	612.1111	718.0786	734.8413	812.3921	869.9174	962.3878	990.274	1001.1967	1036.4227	1061.4284	1118.2747	1135.3866	1174.6805	1198.1824	1229.9485	1317.0274	1325.415	1426.8872	1500.3342	1795.4322	2357.4294	3082.8282	3120.7844	3198.6869	3214.874	3814.3213
ON=C1C2CN2C1C#N	ON=C1[C@H]2CN2[C@H]1C#N	
InChI=1S/C5H5N3O/c6-1-3-5(7-9)4-2-8(3)4/h3-4,9H,2H2	InChI=1S/C5H5N3O/c6-1-3-5(7-9)4-2-8(3)4/h3-4,9H,2H2/t3-,4+,8?/m0/s1
