16
gdb 48924	3.62727	1.64515	1.41835	2.8358	71.46	-0.2367	-0.0365	0.2002	916.1562	0.125022	-400.660662	-400.654043	-400.653099	-400.692043	26.182	
O	-0.567695607	 0.8085463366	-0.7627809007	-0.247335
C	 0.1135676279	 1.1256391933	 0.1802357715	 0.053575
C	 1.3817846123	 1.9082766873	 0.0764399381	 0.268046
C	 2.7187057483	 1.3716405803	 0.6444337699	-0.290383
C	 3.0355349689	 2.8693968239	 0.7739197639	-0.011395
C	 2.9291938454	 3.5244297126	-0.6109386958	-0.09754
C	 1.5532901191	 4.0298294062	-0.2964334668	-0.023032
C	 1.6765451128	 2.795465948	-1.1373483772	-0.143869
N	 1.5307462415	 3.1745799873	 0.9655074671	-0.222905
H	-0.1618846588	 0.84831164	 1.2221195412	 0.083488
H	 2.5748301082	 0.9071615716	 1.6240308482	 0.120307
H	 3.3389070993	 0.7441349655	 0.0015277043	 0.114149
H	 3.7390690497	 3.2640497266	 1.5066515145	 0.085105
H	 3.6921690952	 3.9327738719	-1.2597351331	 0.098209
H	 1.0486173102	 4.9777941559	-0.4277898295	 0.104053
H	 1.463362127	 2.634389933	-2.1840541957	 0.109527
63.5059	179.1301	257.9075	398.9055	446.3886	544.2339	688.2604	743.0953	794.4696	802.5346	809.3231	820.2535	848.5122	870.6796	915.0721	941.0847	951.5814	1000.2203	1011.9509	1020.0335	1036.2716	1044.4659	1065.8941	1103.0713	1145.0724	1180.803	1205.4016	1226.561	1233.8123	1299.1468	1328.7497	1358.1076	1415.5316	1473.637	1817.0516	2888.3864	3064.9919	3118.845	3131.3075	3196.6606	3209.0444	3228.3358
O=CC12CC3C4C(C14)N23	O=C[C@@]12C[C@H]3[C@@H]4[C@@H]([C@H]14)N23	
InChI=1S/C7H7NO/c9-2-7-1-3-4-5(7)6(4)8(3)7/h2-6H,1H2	InChI=1S/C7H7NO/c9-2-7-1-3-4-5(7)6(4)8(3)7/h2-6H,1H2/t3-,4-,5+,6-,7-/m0/s1
