21
gdb 114972	2.99426	1.26592	1.02323	1.6513	84.78	-0.2203	0.0257	0.246	1224.0785	0.183936	-387.067291	-387.058875	-387.057931	-387.100267	32.888	
O	-0.1400953762	 1.5336249162	-0.098117196	-0.421675
C	-0.0068334508	 0.1290123854	 0.0779654573	-0.085625
C	-1.401504827	-0.4867337283	 0.0204089539	-0.015008
C	-2.0360631917	-0.3174080668	-1.4072456758	-0.251031
C	-1.7549948312	-1.6481025721	-2.0993450424	-0.247161
C	-1.4912154402	-2.5711766198	-1.1818277977	 0.326061
C	-0.683540499	-3.8064794189	-0.8566515269	-0.32249
C	-0.1695893717	-2.995845361	 0.3928435137	-0.24909
C	-1.40081584	-2.0246193896	 0.2154226137	-0.058142
H	 0.7410345165	 1.9137695081	-0.1554198352	 0.284865
H	 0.6263546245	-0.3076764665	-0.7107156719	 0.085628
H	 0.4615339317	-0.1048459673	 1.0472431709	 0.084459
H	-2.0069239727	 0.0197704018	 0.7784452142	 0.073139
H	-3.1117066851	-0.1038138905	-1.3409465536	 0.098604
H	-1.5881142544	 0.5326466807	-1.9319668307	 0.113543
H	-1.7095496603	-1.7575566397	-3.1770321258	 0.086496
H	-1.2982401721	-4.6592784847	-0.5483016466	 0.110469
H	 0.0498253571	-4.1500159575	-1.5903152064	 0.108162
H	-0.0999392354	-3.5391504025	 1.3382428624	 0.097742
H	 0.7864036318	-2.5118388405	 0.1835700461	 0.108138
H	-2.2172137838	-2.3500137166	 0.871733927	 0.072915
84.6656	142.9655	177.3769	244.2363	257.1096	287.5494	346.9949	412.2719	474.6556	629.9179	683.7237	708.1558	778.4596	797.8073	830.1593	850.053	904.6638	916.9983	940.7809	952.6582	992.9777	1040.3579	1053.5794	1068.3262	1094.5735	1102.3197	1127.4246	1178.6891	1195.7346	1208.9159	1233.7876	1236.5322	1251.0747	1255.5565	1280.6661	1298.9034	1323.0402	1345.5199	1359.1548	1453.9641	1474.8335	1487.4047	1496.8587	1520.7368	1739.1473	2965.3041	2995.89	3011.0805	3020.8065	3043.7671	3063.571	3067.4417	3075.3557	3099.266	3130.1619	3192.8514	3831.7802
OCC1CC=C2CCC12	OC[C@H]1C[CH][C]2CC[C@@H]12	
InChI=1S/C8H12O/c9-5-7-2-1-6-3-4-8(6)7/h1,7-9H,2-5H2	InChI=1S/C8H12O/c9-5-7-2-1-6-3-4-8(6)7/h1,7-9H,2-5H2/t7-,8-/m1/s1
