14
gdb 76590	3.54708	0.80878	0.78335	6.8117	79.12	-0.2533	-0.0389	0.2143	1446.93	0.099401	-436.6417	-436.63282	-436.631876	-436.675984	31.611	
O	 0.1130436887	 1.3612448598	-0.0028199756	-0.412718
C	 0.0150805381	-0.0132676904	 0.0003298408	 0.107645
C	-0.4357176465	-0.7071689417	 1.2484860171	 0.034149
O	-0.8309390902	 0.1233867987	 2.2984674682	-0.412019
C	-1.374065516	-0.7053116401	 0.0388923659	-0.347719
C	-2.5525999581	 0.0863894019	 0.0487894847	 0.136749
C	-3.5525213774	 0.7681179502	 0.0375161826	 0.05261
C	-4.6807086171	 1.5331186827	 0.0302653695	 0.202035
N	-5.6424956977	 2.1862159226	 0.0248038272	-0.342202
H	-0.3751403178	 1.6848623018	 0.7673105945	 0.296752
H	 0.7590279589	-0.4728357657	-0.641092429	 0.128984
H	-0.0117650781	-1.6678471579	 1.5347458478	 0.112871
H	-0.0537464503	 0.3123288853	 2.837461369	 0.305608
H	-1.4505049464	-1.6495521772	-0.4923871629	 0.137253
70.5249	73.4109	175.4387	179.7174	216.0585	254.4461	354.5875	383.9128	473.8158	532.9144	557.4576	580.5167	611.8202	678.9206	710.1668	760.5383	832.847	967.7258	989.3166	1043.7645	1104.2544	1158.5375	1191.0461	1237.9101	1266.3525	1330.4232	1368.1485	1411.0587	1465.695	2261.0148	2387.8067	3121.2585	3152.3497	3180.0265	3751.7311	3796.6788
OC1C(O)C1C#CC#N	O[C@H]1[C@@H](O)[C@H]1C#CC#N	
InChI=1S/C6H5NO2/c7-3-1-2-4-5(8)6(4)9/h4-6,8-9H	InChI=1S/C6H5NO2/c7-3-1-2-4-5(8)6(4)9/h4-6,8-9H/t4-,5+,6-
