17
gdb 42752	2.87678	1.28413	1.11848	3.028	78.04	-0.2396	0.0112	0.2508	1138.298	0.134789	-384.62435	-384.616107	-384.615162	-384.657657	31.242	
O	-0.0954425234	-0.0124631924	 0.1275986577	-0.325315
C	-0.0701192085	 1.1767006878	 0.0646971837	 0.439302
C	-1.0084794853	 2.3918878386	 0.0273803225	-0.176378
C	-0.0085622426	 3.0072453308	 1.065541834	-0.28442
C	 0.9410430155	 2.3399900544	 0.0060439344	 0.200933
C	 2.4543391445	 2.3140244927	-0.0023973586	-0.486644
C	 2.9981706295	 1.7311809357	-1.2245434375	 0.306555
C	 3.4241446574	 1.2579760398	-2.2432868122	-0.447496
C	-0.0331256058	 2.932699582	-1.0725892589	-0.258177
H	-2.0940453301	 2.4389930759	 0.0407591403	 0.098123
H	 0.0206117951	 4.0999614105	 1.0652219534	 0.108345
H	-0.0090921345	 2.598762849	 2.078128486	 0.114662
H	 2.8395023294	 3.3347866656	 0.1212048129	 0.136324
H	 2.8056776654	 1.7453457157	 0.8684506307	 0.144621
H	 3.8091333826	 0.829633502	-3.1353119039	 0.199911
H	-0.0489413296	 2.4522605777	-2.051659627	 0.123059
H	-0.0052661696	 4.0226137643	-1.1501412474	 0.106596
51.3888	104.0208	190.1616	204.7077	300.7071	335.2799	434.2856	493.5948	519.3039	624.3181	645.6092	690.4795	709.7525	767.7861	796.0969	821.6515	889.8284	938.8392	955.4362	979.0159	998.7377	1014.4939	1039.5155	1079.392	1121.4628	1136.5931	1180.5489	1196.1193	1223.3441	1264.9898	1319.3047	1356.4819	1462.2186	1495.5995	1532.5524	1918.7098	2243.0325	3016.5293	3048.5	3059.4664	3064.8321	3131.8055	3142.2089	3159.9928	3506.6277
O=C1C2CC1(CC#C)C2	O=C1[C@H]2C[C@]1(CC#C)C2	
InChI=1S/C8H8O/c1-2-3-8-4-6(5-8)7(8)9/h1,6H,3-5H2	InChI=1S/C8H8O/c1-2-3-8-4-6(5-8)7(8)9/h1,6H,3-5H2/t6-,8+
