14
gdb 130416	2.40827	0.8402	0.63871	1.6852	66.23	-0.2391	-0.0444	0.1947	1635.3679	0.094935	-466.239611	-466.227677	-466.226733	-466.282355	35.716	
N	-0.3318231915	 1.5665416749	-0.2628220913	-0.494613
C	-0.1703901108	 0.132859559	-0.0760265162	-0.248449
C	 0.8486574601	-0.3269130981	 0.9641781441	 0.34567
N	 0.9130607474	 0.552922767	 2.0825551391	-0.35281
C	 1.8243280677	 0.585908812	 2.9063924286	 0.517737
N	 2.7186293053	 0.8160741415	 3.6899083788	-0.520814
N	 2.7694889497	-2.6705983558	 3.5724639773	-0.012215
N	 2.816948448	-3.6339490614	 3.0470139801	 0.010774
O	 1.4887837412	-1.3441095296	 0.8819901175	-0.302687
H	-0.5506545851	 2.0019154073	 0.6284006417	 0.242277
H	 0.5446064753	 1.9781065159	-0.5696803746	 0.23333
H	-1.1362273892	-0.29492189	 0.2264252914	 0.141559
H	 0.0992213862	-0.3458471707	-1.0209836956	 0.140438
H	 2.9359040359	 0.209247388	 4.467778729	 0.299804
14.2397	35.3652	41.5786	45.4751	54.509	60.0228	86.8385	125.7136	238.8012	285.5001	399.2766	448.4709	512.2651	553.6847	622.1875	669.9674	797.3911	847.6912	892.3614	915.7499	1113.1424	1135.0981	1199.8576	1350.1147	1384.8606	1407.4887	1457.1587	1672.486	1791.1136	2239.4924	2435.2042	3026.1841	3106.6767	3497.2681	3574.2905	3634.3372
NCC1=NC(=N)N=NO1	NCC(=O)[N][C][NH].N#N	
InChI=1S/C3H5N5O/c4-1-2-6-3(5)7-8-9-2/h5H,1,4H2	InChI=1S/C3H5N3O.N2/c4-1-3(7)6-2-5;1-2/h5H,1,4H2;
