20
gdb 19303	7.5073	0.79583	0.76282	1.6775	75.86	-0.2619	0.0977	0.3595	1511.7575	0.176693	-348.969625	-348.961119	-348.960175	-349.003646	30.987	
C	 0.011498239	 1.4711324839	 0.2084043812	-0.199158
C	-0.0211444956	 0.0234412775	-0.3065399062	-0.212581
C	-1.3997540837	-0.5834860088	-0.2292010595	 0.098779
C	-1.6305254351	-1.9937148183	 0.1054158738	-0.18148
O	-1.858687689	-0.9671081502	 1.0724088932	-0.237399
C	 1.3892501978	 2.0933893455	 0.1396488193	 0.033568
C	 1.8779921883	 2.7323493737	-1.1374861705	-0.256338
C	 1.5562999818	 3.5887460244	 0.064208466	-0.276733
H	-0.690366124	 2.081633452	-0.3763990193	 0.088668
H	-0.3561469297	 1.4846121728	 1.2420887124	 0.115231
H	 0.3256817348	-0.0064279361	-1.3479678096	 0.101473
H	 0.6713427361	-0.5933311322	 0.2790226757	 0.099903
H	-2.1639501762	-0.0794311011	-0.8258486488	 0.087085
H	-2.5227638772	-2.502263019	-0.2580234001	 0.111814
H	-0.7784286694	-2.6426844062	 0.3055024028	 0.110578
H	 2.1446265299	 1.5652378728	 0.7175711865	 0.080529
H	 2.9175864922	 2.6074464894	-1.4195614099	 0.109384
H	 1.1929289639	 2.7683819701	-1.9789605206	 0.106667
H	 0.6576685506	 4.1959808625	 0.0256996169	 0.109769
H	 2.3766764755	 4.0469549874	 0.6054593667	 0.110242
60.597	67.0897	118.4147	132.5403	250.0787	315.5302	397.1922	450.581	466.9997	752.2523	774.3699	800.7344	823.6769	833.9478	875.1107	916.0922	938.9783	968.6816	1023.122	1050.0594	1053.1896	1070.9481	1078.7508	1104.7195	1140.8122	1159.4458	1169.013	1191.9181	1198.3062	1228.1067	1247.0965	1278.8204	1297.7793	1323.1958	1368.2373	1419.5488	1449.0221	1467.2053	1472.0666	1493.4534	1507.9638	1531.7571	3011.3732	3022.364	3048.0421	3067.5142	3078.8858	3086.6046	3126.5575	3128.321	3133.1054	3164.1552	3204.6649	3220.0817
C(CC1CO1)C1CC1	C(C[C@H]1CO1)C1CC1	
InChI=1S/C7H12O/c1-2-6(1)3-4-7-5-8-7/h6-7H,1-5H2	InChI=1S/C7H12O/c1-2-6(1)3-4-7-5-8-7/h6-7H,1-5H2/t7-/m0/s1
