18
gdb 46533	3.82545	1.17082	1.05899	1.8203	72.96	-0.2596	0.0219	0.2815	1162.665	0.148822	-439.087352	-439.079537	-439.078592	-439.120335	29.518	
N	-0.1521900607	 1.0895301496	 0.7125286281	-0.537366
C	-0.0827937185	-0.004589684	 0.0906899738	 0.402977
C	-1.2437652056	-0.7817870391	-0.490699658	-0.306388
C	-0.6527588781	-2.1853985983	-0.6711938794	-0.29622
C	 0.8336272554	-1.8887468705	-0.8931061395	 0.346163
C	 1.8682223746	-2.9993539682	-0.6437347156	-0.129858
O	 2.1961138757	-3.0633867884	-2.0462379636	-0.268613
C	 1.3920197644	-1.9034886761	-2.3373091381	-0.119595
O	 1.0837493805	-0.6822769025	-0.1669133599	-0.270566
H	 0.7788424796	 1.4094257116	 0.9851215016	 0.223853
H	-2.1168051486	-0.7316682557	 0.1597313143	 0.141081
H	-1.5224369218	-0.3366727818	-1.4529584858	 0.135662
H	-0.7718681281	-2.7713625643	 0.2467394044	 0.119912
H	-1.0908888779	-2.7552620338	-1.4925599091	 0.120959
H	 2.7143871387	-2.6726330706	-0.0270202954	 0.115659
H	 1.4787446576	-3.9514315731	-0.2644419739	 0.106412
H	 0.6766281109	-2.0873958093	-3.147632808	 0.103927
H	 1.9999065618	-1.0207527456	-2.5709788658	 0.111999
74.0355	90.0904	134.1892	271.7159	346.04	418.3738	445.6745	489.2993	515.6891	649.3446	746.9609	811.721	847.8066	895.706	910.1953	925.8211	941.4796	978.8887	995.8696	1003.1622	1036.2149	1076.7193	1099.8854	1146.5114	1154.7544	1164.9503	1203.6505	1227.9683	1254.7266	1304.8203	1310.964	1328.6755	1348.6118	1385.8587	1473.6188	1494.7408	1503.1644	1526.6656	1785.2979	3012.4008	3023.8419	3048.1205	3054.5628	3068.7343	3070.2254	3117.5366	3136.7063	3473.2279
N=C1CCC2(COC2)O1	[NH][C]1CCC2(COC2)O1	
InChI=1S/C6H9NO2/c7-5-1-2-6(9-5)3-8-4-6/h7H,1-4H2	InChI=1S/C6H9NO2/c7-5-1-2-6(9-5)3-8-4-6/h7H,1-4H2
