21
gdb 122082	2.74949	0.78319	0.67319	2.3933	82.38	-0.2539	0.0344	0.2883	1751.6838	0.178907	-424.176915	-424.165879	-424.164935	-424.214319	38.798	
C	-0.0992412664	 1.4391192352	-0.0072023672	-0.384166
C	-0.0484453435	-0.0877455011	 0.0900976908	-0.184593
C	 0.7354631425	-0.5630985075	 1.3052662244	-0.042003
O	 0.751271119	-1.9842831641	 1.3002731289	-0.267375
C	 1.4454676205	-2.5753924797	 2.4037021463	-0.116881
C	 0.4439467285	-2.798422944	 3.5543049591	-0.05271
O	-0.6731474909	-3.5332817241	 3.1178945527	-0.416502
C	 2.0522834872	-3.8252745218	 1.9502411802	 0.349447
C	 2.5698736021	-4.8541491203	 1.6104797567	-0.440542
H	 0.9055852675	 1.8680334935	-0.0875869104	 0.118919
H	-0.6660121189	 1.7560229386	-0.8870130497	 0.1215
H	-0.5789805725	 1.8806989459	 0.8732247735	 0.118205
H	-1.0634039679	-0.4982107235	 0.1450428554	 0.105891
H	 0.4128706054	-0.5135724966	-0.807835095	 0.114188
H	 1.7685756491	-0.1808972776	 1.2694181331	 0.095614
H	 0.2763763876	-0.1757102749	 2.2285890872	 0.092766
H	 2.2416607296	-1.897402548	 2.7490129434	 0.097646
H	 0.9229913477	-3.3602386914	 4.3619551339	 0.117189
H	 0.1532615086	-1.812980868	 3.9555609594	 0.084832
H	-0.9023894231	-3.1715536059	 2.2520925011	 0.288594
H	 3.0202924581	-5.7654687848	 1.3030638862	 0.19998
44.5592	50.933	100.2204	117.3311	127.5851	185.7701	221.4113	231.9048	307.0925	368.0921	384.2573	432.6474	455.5637	570.498	622.7577	669.5412	716.62	766.0518	850.7833	902.6697	907.6101	916.1909	1018.1502	1048.4034	1081.6576	1098.4761	1118.4269	1150.2348	1189.9648	1224.0026	1268.4027	1293.3864	1319.0756	1328.273	1355.303	1388.0081	1413.7757	1428.3546	1444.7905	1492.0027	1500.4982	1503.3986	1507.7491	1526.6893	2244.1618	2960.5744	2968.0063	2986.911	3000.6546	3033.4064	3040.5998	3074.6019	3084.1366	3102.0717	3111.2523	3504.1719	3771.4222
CCCOC(CO)C#C	CCCO[C@@H](CO)C#C	
InChI=1S/C7H12O2/c1-3-5-9-7(4-2)6-8/h2,7-8H,3,5-6H2,1H3	InChI=1S/C7H12O2/c1-3-5-9-7(4-2)6-8/h2,7-8H,3,5-6H2,1H3/t7-/m1/s1
