21
gdb 41658	3.21295	1.8334	1.81716	0.0251	83.08	-0.2552	0.0924	0.3476	897.5312	0.188726	-349.984204	-349.978193	-349.977249	-350.014108	27.131	
C	-0.0361406461	 1.5502747317	 0.027886969	-0.217264
C	 1.4614686781	 1.9952415057	 0.0074878763	-0.217263
C	 2.229930216	 0.6587219545	-0.0562411525	-0.013268
C	 2.0154814728	-0.0066040633	-1.4190991281	-0.052782
C	 1.6572115765	-1.4621139449	-1.2002589891	-0.081904
C	 1.7571174669	-1.7297380969	 0.295484873	-0.240296
C	 1.346610289	-0.3267625433	 0.7605774002	-0.04651
C	 0.0483712669	 0.0105337298	-0.0264535689	-0.013269
C	 0.5569893774	-0.4400112721	-1.3991695276	-0.05278
H	-0.5331352285	 1.881635249	 0.9455372126	 0.089805
H	-0.6088036291	 1.9570938527	-0.8108946365	 0.092253
H	 1.6979382348	 2.6425220651	-0.842281355	 0.092251
H	 1.7197614109	 2.5509476826	 0.9148810394	 0.089803
H	 3.2753837867	 0.722809664	 0.2565711673	 0.053089
H	 2.5010390127	 0.3451370246	-2.3205236525	 0.074997
H	 1.8703552439	-2.2137982061	-1.9493465924	 0.077036
H	 1.0663303924	-2.5085207642	 0.6376011699	 0.09107
H	 2.7693616484	-2.0025081488	 0.6143701971	 0.091067
H	 1.3086690541	-0.1496281953	 1.8363232454	 0.055881
H	-0.8542842764	-0.5041891925	 0.3129643835	 0.053087
H	-0.0643043174	-0.4171953922	-2.2854697711	 0.074996
209.923	331.3382	359.6348	447.7342	578.5655	611.0653	700.568	762.1522	788.8332	808.3581	814.4488	840.7955	893.1029	893.2748	913.5469	927.6393	955.1859	958.3273	970.7767	992.1942	993.1338	1010.2645	1038.0119	1045.7652	1068.6189	1075.912	1098.4916	1145.7826	1147.3923	1192.9695	1201.4285	1245.3688	1253.8578	1271.4037	1280.0793	1285.5601	1292.2308	1314.3429	1319.7165	1345.0234	1364.7364	1392.0164	1489.9822	1497.1229	1510.2662	3035.1727	3037.9706	3049.1757	3071.6131	3074.3342	3076.8878	3077.337	3093.6135	3108.1086	3186.8733	3189.4673	3203.5559
C1CC2C3C4CC2C1C34	C1C[C@@H]2[C@H]3[C@H]4C[C@@H]2[C@@H]1[C@@H]34	
InChI=1S/C9H12/c1-2-5-6-3-7-8(4(1)6)9(5)7/h4-9H,1-3H2	InChI=1S/C9H12/c1-2-5-6-3-7-8(4(1)6)9(5)7/h4-9H,1-3H2/t4-,5+,6-,7+,8-,9+
