19
gdb 40041	3.61476	1.42717	1.22998	1.4466	80.65	-0.2258	0.0186	0.2444	1066.8516	0.160392	-385.868759	-385.861421	-385.860477	-385.900509	29.698	
C	 0.5086505732	 1.6046543035	-0.1753696516	-0.335686
C	 1.4644212103	 0.4698455093	 0.1829242386	-0.343695
C	 0.0174566452	 0.203199903	-0.0778967237	 0.478504
O	-0.8650901465	-0.2201940606	 0.9634694072	-0.323549
C	-1.4139638664	-1.2669812733	 0.1220566831	 0.119004
C	-2.9117777154	-1.0857401895	-0.1625686915	-0.276693
C	-2.9237800566	-0.2900922033	-1.4485517066	-0.060405
C	-1.705989777	-0.1144157182	-1.962986938	-0.071667
C	-0.6297212041	-0.7278164575	-1.1078405353	-0.224749
H	 0.2202640064	 2.2818936686	 0.6214732887	 0.123953
H	 0.5873779314	 2.0651136647	-1.154862681	 0.11281
H	 2.1958094073	 0.1538948506	-0.5545261803	 0.110547
H	 1.7993823763	 0.4085834634	 1.2129269046	 0.122477
H	-1.1463768428	-2.256075798	 0.5061523331	 0.075916
H	-3.432031471	-2.0467712446	-0.2722872073	 0.102545
H	-3.3895862613	-0.5577661267	 0.671307772	 0.122334
H	-3.8418148733	 0.0839825602	-1.8891468958	 0.094523
H	-1.4876883304	 0.4246411483	-2.8781426777	 0.093276
H	 0.0536235348	-1.39405591	-1.6403225685	 0.080556
86.599	167.3303	238.5223	294.0434	372.0447	427.6438	498.4115	543.917	718.3923	747.1661	758.8331	783.5605	831.0197	859.4572	869.0921	900.0677	923.2868	949.4122	970.3482	973.755	1006.6531	1017.0844	1034.0152	1045.6498	1049.9813	1065.0559	1130.0679	1178.8779	1184.7584	1211.1703	1220.531	1254.1144	1290.2336	1325.0958	1336.8814	1374.3254	1394.6448	1447.5027	1464.4304	1498.593	1677.6362	3016.6346	3056.1587	3062.202	3078.0687	3124.5161	3129.3319	3180.3534	3205.387	3208.4437	3222.737
C1CC11OC2CC=CC12	C1CC21O[C@H]1CC=C[C@@H]21	
InChI=1S/C8H10O/c1-2-6-7(3-1)9-8(6)4-5-8/h1-2,6-7H,3-5H2	InChI=1S/C8H10O/c1-2-6-7(3-1)9-8(6)4-5-8/h1-2,6-7H,3-5H2/t6-,7+/m1/s1
