21
gdb 119028	1.79494	1.21453	0.83486	1.5322	84.01	-0.2606	0.0511	0.3117	1445.8352	0.180066	-387.03779	-387.027488	-387.026544	-387.073666	37.909	
O	-1.7986311383	 1.3990411936	-1.2894882229	-0.419319
C	-1.7171185252	-0.0155734629	-1.3881785575	-0.076403
C	-1.5846826294	-0.5650890414	 0.0299311854	-0.258302
C	-1.6169999535	-2.0817487111	 0.1161923799	 0.377146
C	-0.4703675649	-2.8226054269	-0.5789792074	-0.441833
C	 0.8490678635	-2.4711082563	-0.0602482765	 0.323428
C	 1.9279882739	-2.1671600594	 0.3741868495	-0.457693
C	-2.1523783795	-2.6999157861	 1.3828016977	-0.305347
C	-2.9632313518	-2.768649519	 0.1098422259	-0.317988
H	-1.8253299115	 1.7613166641	-2.1796565241	 0.284727
H	-2.6167510121	-0.4356054078	-1.867270671	 0.083979
H	-0.8502351975	-0.3166324303	-1.9966702598	 0.088661
H	-0.6540606772	-0.1868625223	 0.4678962349	 0.12009
H	-2.4063019547	-0.1505813511	 0.6247230567	 0.101999
H	-0.6251925688	-3.9031110878	-0.4683068759	 0.124514
H	-0.4966689378	-2.6270115486	-1.6590882961	 0.12861
H	 2.8835458768	-1.9055892023	 0.7559122646	 0.19533
H	-1.6873723026	-3.611759824	 1.7426077913	 0.113386
H	-2.4907650557	-2.0352972632	 2.1703765732	 0.113638
H	-3.8499385858	-2.1480078929	 0.0346837194	 0.113377
H	-3.0534929078	-3.7285362143	-0.3883731072	 0.107998
44.395	81.3888	107.529	145.2689	177.0497	258.0265	296.8148	317.4985	339.4103	365.0666	411.2388	434.7667	553.7232	618.4233	637.52	756.4755	783.5772	801.6799	885.1061	911.1456	929.5012	962.1964	986.1533	1001.8719	1032.2452	1054.0621	1078.8915	1082.5089	1103.6017	1186.3784	1209.9441	1218.8597	1249.7917	1299.5037	1317.5239	1325.5637	1350.9986	1392.4681	1459.4436	1468.4553	1475.892	1486.5668	1507.8157	1527.7557	2236.0834	2964.7132	2994.4802	3018.6453	3039.7803	3049.3383	3083.9135	3126.527	3132.0307	3204.3018	3218.9367	3506.7623	3830.298
OCCC1(CC#C)CC1	OCCC1(CC#C)CC1	
InChI=1S/C8H12O/c1-2-3-8(4-5-8)6-7-9/h1,9H,3-7H2	InChI=1S/C8H12O/c1-2-3-8(4-5-8)6-7-9/h1,9H,3-7H2
