21
gdb 67836	2.23423	2.02363	1.51974	0.222	86.2	-0.2358	0.0274	0.2632	996.8968	0.184211	-349.940249	-349.932662	-349.931717	-349.971631	31.73	
C	-0.0179253351	 1.5158068623	-0.0098714656	-0.470851
C	 0.0041240212	-0.0081077623	-0.0307727921	 0.317123
C	-1.2824587147	-0.6452463475	-0.4843566683	-0.131938
C	-1.7511327475	-1.5309281866	 0.3977379911	-0.070536
C	-0.8739104108	-1.6826876954	 1.6255163356	-0.293405
C	 0.3032743317	-0.7226700864	 1.3375181736	-0.060508
C	 1.6162444989	-1.268572488	 0.746656981	-0.056628
C	 1.3890597404	-2.0791841193	-0.4994404174	-0.299592
C	 1.3379673325	-0.5830472955	-0.5943827409	-0.091105
H	 0.915711577	 1.9131042134	 0.403656942	 0.113574
H	-0.1314788218	 1.9226699459	-1.0219373018	 0.111238
H	-0.8488830171	 1.8900140428	 0.5974334678	 0.113921
H	-1.7582432039	-0.4009766595	-1.4293603635	 0.084476
H	-2.6654018067	-2.103224641	 0.2714189977	 0.088636
H	-1.4182715194	-1.4178916773	 2.5411747755	 0.100229
H	-0.5385545971	-2.7198869273	 1.7586722845	 0.105543
H	 0.4863943843	-0.0200836488	 2.1532136891	 0.065836
H	 2.5522489378	-1.3285423413	 1.2898272565	 0.079096
H	 2.2846732597	-2.5330323896	-0.9124840453	 0.106143
H	 0.489522371	-2.6733194221	-0.6313471246	 0.112583
H	 2.0182242996	-0.0226383467	-1.2261899351	 0.076165
162.6253	219.134	243.06	263.4891	281.8469	392.0289	455.1429	520.7185	594.1537	635.3584	727.0709	770.3247	774.1966	793.6334	831.0357	901.0679	920.5949	938.9965	942.1012	958.5773	976.3468	988.8196	1001.5765	1041.4408	1064.1472	1067.4659	1093.3967	1111.0418	1135.5889	1171.0189	1178.9397	1195.946	1221.5403	1243.3132	1292.4179	1304.6939	1324.6221	1355.8574	1383.4296	1406.8149	1479.9644	1487.2034	1492.6367	1495.7864	1671.1904	3013.6521	3020.1049	3038.4248	3081.2933	3086.0676	3096.745	3118.9861	3163.3572	3164.3574	3174.2344	3189.8154	3202.0036
CC12C=CCC1C1CC21	C[C@]12C=CC[C@H]1[C@H]1C[C@@H]21	
InChI=1S/C9H12/c1-9-4-2-3-7(9)6-5-8(6)9/h2,4,6-8H,3,5H2,1H3	InChI=1S/C9H12/c1-9-4-2-3-7(9)6-5-8(6)9/h2,4,6-8H,3,5H2,1H3/t6-,7+,8-,9+/m1/s1
