18
gdb 34561	3.54672	1.2832	1.21173	4.6723	83.1	-0.2557	-0.0423	0.2134	1081.8449	0.151729	-364.848974	-364.842007	-364.841063	-364.880345	28.173	
N	 0.0590207048	-1.1372133517	 0.0677449526	-0.346246
C	-0.010448874	 0.0189659076	 0.0199616463	 0.176207
C	-0.0505774738	 1.4324418264	-0.0501117755	 0.229363
C	-1.1355240331	 2.2279562441	-0.0253764489	-0.168391
C	-0.6473921315	 3.6604878644	 0.0204136999	-0.05815
C	-0.0359254974	 3.8612231666	 1.4527627793	-0.206337
C	 1.2277962217	 2.9482042732	 1.4229379889	-0.210455
C	 1.1823978049	 2.3384933734	-0.0168243611	-0.117517
C	 0.6442024728	 3.5407396613	-0.824278856	-0.216888
H	-2.1665457362	 1.9096869915	 0.0599731761	 0.122142
H	-1.3732654794	 4.4194225568	-0.2696744797	 0.07303
H	 0.2323466027	 4.9113320858	 1.5990648599	 0.106358
H	-0.741882203	 3.5869900084	 2.2394414825	 0.10804
H	 2.1431602298	 3.5319334972	 1.553780805	 0.105689
H	 1.2157149747	 2.1747790848	 2.1935794601	 0.114791
H	 2.1114205739	 1.8775840737	-0.3488641493	 0.082414
H	 0.44969432	 3.3008530077	-1.8722006094	 0.107047
H	 1.2864743432	 4.4245102689	-0.7592052308	 0.098903
114.2256	159.4363	260.6056	374.3346	448.7491	451.9252	530.0034	564.8688	631.2459	713.7565	786.7215	820.7544	847.1541	864.1312	870.5088	901.1922	929.1441	946.4501	960.3424	971.8686	1040.5523	1054.7248	1120.3883	1143.3921	1154.6344	1190.4287	1215.8764	1238.1118	1254.7152	1283.1921	1305.8403	1308.804	1332.2946	1341.0589	1491.0045	1492.202	1514.1013	1644.5744	2332.4173	3056.1897	3057.7143	3068.8494	3102.4846	3115.4637	3120.6695	3121.8618	3131.2974	3221.0688
N#CC1=CC2CCC1C2	N#CC1=C[C@H]2CC[C@@H]1C2	
InChI=1S/C8H9N/c9-5-8-4-6-1-2-7(8)3-6/h4,6-7H,1-3H2	InChI=1S/C8H9N/c9-5-8-4-6-1-2-7(8)3-6/h4,6-7H,1-3H2/t6-,7+/m0/s1
