21
gdb 75612	1.79267	1.72133	1.13693	2.9402	78.65	-0.2312	-0.0128	0.2184	1190.7102	0.178624	-424.246638	-424.236167	-424.235223	-424.281566	38.621	
C	-1.2611121841	 0.6994383352	-1.2089595252	-0.422672
C	-0.1367730734	-0.2348634755	-0.7897482856	-0.142671
C	 1.2978658712	 0.0716283369	-1.2315525819	 0.374755
O	 1.7646990966	 0.6504093719	-2.1733610824	-0.31335
C	 1.8822698437	-0.4308321531	 0.0920807542	-0.11941
C	 3.0869047849	 0.2718637911	 0.6973851461	-0.423532
C	 0.4369548697	-0.3042457271	 0.6824509801	 0.349841
C	 0.1946270021	 0.9503814112	 1.5133088319	-0.450275
O	 0.1021546451	-1.4726136459	 1.4091338368	-0.478347
H	-1.0516484267	 1.7365810276	-0.9319584259	 0.123499
H	-1.3858010377	 0.6713083587	-2.2955877352	 0.13746
H	-2.2150503116	 0.411216527	-0.7547544712	 0.113043
H	-0.3651522367	-1.2700780541	-1.0748795518	 0.108011
H	 2.0756153733	-1.5068692485	-0.0077039003	 0.115487
H	 2.9209557755	 1.3483479708	 0.7977086825	 0.121245
H	 3.3265386666	-0.1327304635	 1.6855872064	 0.125021
H	 3.9609394974	 0.1349348056	 0.0540209357	 0.134694
H	 0.5032075915	 1.8587034379	 0.9871625168	 0.129313
H	-0.8706641186	 1.0577304655	 1.7504658521	 0.110978
H	 0.7499921466	 0.8931570508	 2.4536506893	 0.130063
H	-0.7836016756	-1.3610740226	 1.7713710276	 0.276848
63.6709	157.2306	160.8181	172.0774	192.1137	226.7406	227.5788	267.817	279.6185	321.4333	380.7187	429.7941	460.6648	535.9525	605.0628	642.1617	742.0218	796.1685	804.5249	937.3987	945.5656	966.5977	994.1167	1039.3102	1068.9414	1095.1271	1140.9503	1162.2512	1173.2091	1177.9484	1215.0151	1276.6752	1317.5432	1363.2279	1373.9978	1403.6429	1404.6178	1414.7778	1483.3681	1484.6208	1492.1247	1494.9379	1501.3691	1502.854	1878.5405	3028.6991	3029.4658	3037.1237	3038.3002	3041.4188	3094.5574	3103.5179	3111.025	3113.1688	3114.1904	3118.9897	3801.3708
CC1C(=O)C(C)C1(C)O	C[C@H]1C(=O)[C@@H](C)[C@]1(C)O	
InChI=1S/C7H12O2/c1-4-6(8)5(2)7(4,3)9/h4-5,9H,1-3H3	InChI=1S/C7H12O2/c1-4-6(8)5(2)7(4,3)9/h4-5,9H,1-3H3/t4-,5+,7+
