15
gdb 15919	3.71146	1.89754	1.53316	0.669	67.49	-0.2306	0.0187	0.2493	842.3449	0.118622	-362.571521	-362.564462	-362.563518	-362.602727	26.938	
C	-0.1156943582	-1.232698707	-0.2118988163	-0.414447
C	-0.0362200939	-0.0423171147	-0.0610677403	 0.271255
C	 0.0560023786	 1.3888954601	 0.0895207421	 0.08594
C	-0.3650471408	 2.2697507615	-1.1192883346	-0.113222
O	 0.8503243017	 3.0454247019	-1.0480862034	-0.282772
C	 1.3508130371	 2.2755524661	 0.052829373	 0.053227
C	 0.9208299964	 2.8474384438	 1.4165901512	-0.184593
N	-0.2520184053	 1.928387981	 1.4341220725	-0.364326
H	-0.1822594316	-2.2858019319	-0.3320621363	 0.195189
H	-0.4407344069	 1.7291101506	-2.0697285171	 0.114604
H	-1.2683212295	 2.8742747182	-0.9657349991	 0.099518
H	 2.3694691593	 1.9165802941	-0.0999490643	 0.096066
H	 1.6021878544	 2.6573604847	 2.2533678585	 0.111533
H	 0.7010826311	 3.9189410704	 1.3638209572	 0.11082
H	-1.1644394924	 2.3640396211	 1.5217929469	 0.221209
112.0117	152.1401	184.4854	342.6169	388.0042	489.4835	523.3508	586.759	622.8789	628.6145	649.6562	774.0887	844.2229	904.4227	935.7301	973.5745	992.4592	1015.3621	1053.6208	1086.1317	1127.3845	1141.0844	1163.7834	1199.4571	1260.5484	1304.9149	1319.2431	1358.2466	1367.5316	1502.6764	1511.8068	2234.9659	3010.8127	3029.102	3066.7534	3079.0312	3109.0052	3500.9589	3522.0308
C#CC12COC1CN2	C#C[C@]12CO[C@H]1CN2	
InChI=1S/C6H7NO/c1-2-6-4-8-5(6)3-7-6/h1,5,7H,3-4H2	InChI=1S/C6H7NO/c1-2-6-4-8-5(6)3-7-6/h1,5,7H,3-4H2/t5-,6-/m0/s1
