18
gdb 80988	2.74162	1.58333	1.25191	2.4837	73.77	-0.251	0.0306	0.2815	1042.1177	0.147901	-439.081327	-439.073312	-439.072368	-439.113335	31.769	
C	-0.087555661	 1.4970776562	 0.0055860947	-0.504114
C	 0.0885776148	 0.0092782576	 0.0066907618	 0.413041
C	 1.0030212573	-0.7992259289	-0.9491609963	-0.279378
C	 0.674929928	-1.9383190946	 0.0740570491	-0.191379
C	 0.7077797854	-0.8043813193	 1.177093592	 0.101852
O	 1.9742178012	-0.3165069078	 1.529910838	-0.443776
C	-0.8162594494	-2.0151780443	-0.0996523393	 0.447651
N	-1.5723294249	-3.0194498382	-0.1706383184	-0.580287
O	-1.1931098331	-0.6857839707	-0.1433116263	-0.299233
H	 0.8720813526	 1.9792116691	 0.2091943841	 0.141118
H	-0.4582312353	 1.8448239324	-0.963160146	 0.13204
H	-0.801237678	 1.8006499911	 0.7773528563	 0.132783
H	 0.6625155836	-0.9216998407	-1.9791210664	 0.110878
H	 2.0438231695	-0.4844592395	-0.8995180789	 0.126011
H	 1.2218621202	-2.8742214873	 0.1490527637	 0.092269
H	 0.0587324123	-0.9527372066	 2.0495888881	 0.084962
H	 2.3872805314	-0.9452678035	 2.1300658548	 0.29386
H	-2.5462473445	-2.7278235451	-0.276075341	 0.221702
160.0161	193.7247	215.2651	249.8107	272.7683	321.8852	361.1926	469.8559	487.6234	535.9575	604.5621	663.5069	702.8522	803.1982	861.7411	883.2233	895.6361	900.3922	913.7513	963.0384	999.2539	1035.8203	1083.3539	1092.5029	1134.7238	1158.7729	1196.9869	1206.0755	1215.3976	1241.9136	1288.0693	1330.1579	1342.4343	1417.1827	1430.0109	1482.5636	1486.7963	1490.1424	1807.5108	3027.9965	3045.387	3086.4499	3116.0764	3128.3733	3163.6017	3167.1043	3464.6608	3821.5134
CC12CC(C1O)C(=N)O2	C[C@@]12C[C@@H]([C@H]1O)[C]([NH])O2	
InChI=1S/C6H9NO2/c1-6-2-3(4(6)8)5(7)9-6/h3-4,7-8H,2H2,1H3	InChI=1S/C6H9NO2/c1-6-2-3(4(6)8)5(7)9-6/h3-4,7-8H,2H2,1H3/t3-,4+,6+/m0/s1
