15
gdb 35626	2.14533	1.73202	1.09172	6.4891	74.2	-0.288	-0.0246	0.2634	1076.8438	0.114087	-379.705943	-379.698059	-379.697115	-379.738912	28.696	
N	-0.6699329221	-0.8342436934	-0.943309292	-0.313098
C	-0.3743759677	 0.1764007709	-0.4679942842	 0.280562
C	-0.0349567896	 1.4585651319	 0.1361887153	-0.162594
C	-0.2635085878	 1.5312834708	 1.6734072257	-0.266513
C	 0.7580086121	 2.5546097628	 2.0998828605	-0.057099
C	 1.6752803404	 2.7869382976	 1.1657364178	-0.070961
C	 1.4465800441	 1.9391069253	-0.078471651	-0.210782
C	 2.43072639	 0.8531777672	-0.1569703066	 0.286976
N	 3.2289291037	 0.0189495671	-0.2026713292	-0.312353
H	-0.6659934464	 2.2216578216	-0.3308335656	 0.146245
H	-1.294007597	 1.8124423641	 1.9078100225	 0.134004
H	-0.078336695	 0.5630806554	 2.154293518	 0.150935
H	 0.7430626139	 3.0126680433	 3.0817482134	 0.121439
H	 2.53368254	 3.4405436806	 1.2511141363	 0.129038
H	 1.5237519614	 2.5160962647	-1.0059839707	 0.1442
68.5411	111.8376	175.4805	188.692	292.3093	392.0082	449.8271	484.4295	540.3012	584.8428	677.2719	744.9285	779.0676	811.0965	911.7861	969.1141	974.1785	993.8418	1029.8724	1046.9184	1084.2346	1136.4009	1168.6548	1246.3043	1282.041	1298.8873	1341.3488	1350.0463	1355.042	1487.1899	1689.3465	2358.2632	2365.0394	3041.7623	3054.1452	3065.4608	3093.5756	3203.68	3230.6092
N#CC1CC=CC1C#N	N#C[C@H]1CC=C[C@H]1C#N	
InChI=1S/C7H6N2/c8-4-6-2-1-3-7(6)5-9/h1-2,6-7H,3H2	InChI=1S/C7H6N2/c8-4-6-2-1-3-7(6)5-9/h1-2,6-7H,3H2/t6-,7+/m0/s1
