19
gdb 120523	5.57949	0.70484	0.66877	5.662	77.89	-0.2487	0.0169	0.2656	1674.412	0.15919	-419.181866	-419.172467	-419.171523	-419.21701	33.192	
C	 0.6234840978	 1.404113089	 0.051750418	-0.229508
O	 0.1727006943	 0.0734327862	-0.0600813996	-0.234451
C	 0.566807658	-0.549766741	-1.2610157232	-0.071946
C	 0.0303086798	-1.9737161553	-1.238001743	 0.029758
C	 0.7171150338	-2.919766261	-2.256135151	-0.269421
C	 1.541109574	-3.4494474594	-1.0422068756	-0.111637
N	 0.5581401055	-2.8158865688	-0.1380274526	-0.301418
C	 1.680177572	-4.899680019	-0.8939653764	 0.291163
N	 1.8010286951	-6.0448876931	-0.7961478937	-0.322453
H	 1.7226547126	 1.4661658786	 0.01962898	 0.106392
H	 0.2201942598	 2.0386994734	-0.7523169943	 0.109779
H	 0.2747973587	 1.7870062822	 1.0134979999	 0.13408
H	 0.1687445483	-0.0103117901	-2.1381545475	 0.092757
H	 1.6686029971	-0.5492241078	-1.3505594117	 0.081102
H	-1.0638157889	-1.9447331496	-1.2586684291	 0.092771
H	 0.0463335792	-3.6734369481	-2.6668910657	 0.138463
H	 1.2917674081	-2.4592893721	-3.0606402839	 0.118877
H	 2.5480991335	-3.0116128373	-1.0130623996	 0.112897
H	 0.9363794112	-2.3050273068	 0.6528376591	 0.232794
52.5049	90.0589	106.2449	140.0591	204.822	221.083	249.348	348.5639	386.4803	500.0213	541.5953	567.5185	646.3939	786.1033	860.0727	900.5556	956.2329	974.0787	1000.6111	1013.2952	1071.9302	1104.7961	1130.4796	1151.2105	1173.4875	1185.581	1225.7899	1238.0282	1250.3272	1263.2157	1301.9585	1342.2628	1355.9183	1400.2322	1431.5122	1480.0079	1485.7853	1487.7207	1500.5662	1521.652	2356.9763	2935.5368	2969.3807	2975.6768	3007.2599	3021.2878	3056.3474	3093.9789	3120.0787	3156.3907	3535.4894
COCC1CC(N1)C#N	COC[C@H]1C[C@@H](N1)C#N	
InChI=1S/C6H10N2O/c1-9-4-6-2-5(3-7)8-6/h5-6,8H,2,4H2,1H3	InChI=1S/C6H10N2O/c1-9-4-6-2-5(3-7)8-6/h5-6,8H,2,4H2,1H3/t5-,6-/m1/s1
