22
gdb 6236	2.48584	1.87091	1.78515	1.6874	77.23	-0.2383	0.0733	0.3116	956.4945	0.197773	-350.204379	-350.194968	-350.194024	-350.237449	36.139	
C	-0.1591091188	 1.5342181798	-0.0050410166	-0.44347
C	-0.0482893228	 0.0067906259	-0.0161932244	 0.241684
C	-1.389643144	-0.6073324682	-0.410692554	-0.459963
C	 1.199944898	-0.4719667844	-0.7940104117	-0.111301
O	 1.9260053629	-0.7262323768	 0.4208906173	-0.324452
C	 0.7169360456	-0.6012055464	 1.2270746359	 0.385632
C	 0.9626371379	 0.281764196	 2.4433368044	-0.4351
C	 0.2519016165	-1.9902181556	 1.6681150305	-0.427117
H	 0.8061763788	 2.0131565373	 0.1783888731	 0.124691
H	-0.5227526527	 1.8878671098	-0.9764664928	 0.110911
H	-0.8633934838	 1.8832232743	 0.7579986035	 0.112989
H	-1.7057385462	-0.2277368465	-1.3890840533	 0.113846
H	-1.3503403085	-1.6969080128	-0.4785479601	 0.115696
H	-2.173843296	-0.3423648326	 0.3078761579	 0.114676
H	 1.0458039897	-1.3884396101	-1.3822259571	 0.086259
H	 1.7013610864	 0.2716155674	-1.4252583805	 0.094766
H	 1.3632431361	 1.2578782986	 2.1668638178	 0.118705
H	 0.0378930506	 0.4304788185	 3.0115314354	 0.112434
H	 1.6881684192	-0.2030627647	 3.1047828886	 0.121399
H	 0.980077668	-2.4109086425	 2.3685938253	 0.119181
H	-0.7198771596	-1.9469633419	 2.1715561271	 0.111079
H	 0.1719418726	-2.6768045653	 0.8220864837	 0.117454
76.0447	174.2318	199.3993	238.0105	252.3732	278.2295	299.9933	343.2791	350.4092	380.6236	386.8843	469.9075	487.4458	627.8591	660.7715	854.4785	862.5576	923.4588	929.9082	956.9616	962.6469	994.6574	1000.821	1028.8805	1035.9491	1155.8002	1171.9259	1193.1882	1196.7942	1247.2667	1281.1048	1284.6162	1356.0963	1397.005	1403.6847	1409.3355	1425.464	1469.3554	1477.7363	1485.8668	1487.678	1498.895	1502.3281	1508.7631	1519.7143	1528.5532	2988.932	3025.8839	3031.0012	3034.6435	3041.3802	3045.7026	3084.0923	3091.339	3098.2453	3106.8962	3111.1458	3113.6149	3123.6873	3138.7481
CC1(C)COC1(C)C	CC1(C)COC1(C)C	
InChI=1S/C7H14O/c1-6(2)5-8-7(6,3)4/h5H2,1-4H3	InChI=1S/C7H14O/c1-6(2)5-8-7(6,3)4/h5H2,1-4H3
