18
gdb 108685	2.18178	1.54044	0.92781	5.5054	82.15	-0.2449	-0.0291	0.2158	1237.7893	0.14785	-401.979494	-401.970348	-401.969404	-402.01416	32.526	
O	 0.1546435721	 1.3434881721	 0.137500355	-0.400071
C	 0.0404078068	-0.0502101126	-0.0199657826	-0.193126
C	-1.391131692	-0.4716318194	-0.0242441984	 0.224344
C	-2.5022556423	 0.2845461838	-0.035565708	 0.115167
C	-3.7655699171	-0.5662118891	 0.0082782071	-0.297844
C	-3.2413456019	-1.9799006792	-0.3285538208	-0.217701
C	-1.7380551128	-1.94317747	 0.0276341056	-0.298407
C	-2.6125593904	 1.7018001294	-0.048354792	 0.22067
N	-2.8320469469	 2.8393098747	-0.0691334324	-0.362439
H	 1.0606700942	 1.605337102	-0.0471319909	 0.296758
H	 0.5013370715	-0.3986894211	-0.9618861148	 0.109097
H	 0.5590082482	-0.5979928639	 0.7885388168	 0.10525
H	-4.2146524936	-0.517955789	 1.0088530846	 0.122321
H	-4.527320939	-0.214129024	-0.6933359592	 0.123766
H	-3.7823622603	-2.7695740701	 0.1975361676	 0.107289
H	-3.3556304887	-2.1638316996	-1.40117628	 0.114435
H	-1.1232705713	-2.5443754806	-0.6524356989	 0.11104
H	-1.5454780163	-2.3319162437	 1.0383289513	 0.119451
40.9831	131.8523	146.2572	150.6011	188.7406	217.8598	244.0889	387.5086	431.9322	543.3976	548.097	616.5691	648.8444	700.1012	852.5453	886.6837	927.5302	982.5557	1017.4169	1026.2548	1074.1792	1090.7183	1150.5693	1155.5275	1190.6247	1227.0777	1238.1016	1261.6166	1269.2716	1325.2136	1331.6155	1349.4293	1463.6192	1481.1303	1488.2009	1498.8787	1506.6508	1706.8355	2335.2802	2934.455	2948.5157	3005.2233	3026.2084	3048.4614	3062.3761	3083.8927	3110.7359	3844.5058
OCC1=C(CCC1)C#N	OCC1=C(CCC1)C#N	
InChI=1S/C7H9NO/c8-4-6-2-1-3-7(6)5-9/h9H,1-3,5H2	InChI=1S/C7H9NO/c8-4-6-2-1-3-7(6)5-9/h9H,1-3,5H2
