13
gdb 129867	5.41694	1.29136	1.0487	3.437	66.59	-0.226	-0.0092	0.2168	1044.6662	0.091107	-452.730617	-452.72383	-452.722886	-452.761895	25.867	
N	-0.0169092556	 1.3721085835	 0.0188268962	-0.591795
C	-0.1228434242	-0.0074857857	 0.0160867614	 0.318825
C	-1.2016260237	-0.832177221	 0.092858119	-0.39805
C	-0.691647675	-2.1785247879	 0.04278232	 0.158724
C	 0.6615695429	-2.024146909	-0.060519411	 0.477094
O	 1.3455110233	-3.1509980232	-0.1222428137	-0.242775
N	 0.3584707673	-4.1923876091	-0.0543931068	-0.14779
C	-0.8109752704	-3.5928759535	 0.0408520893	-0.115831
O	 1.0893636146	-0.7694153817	-0.0835937189	-0.239099
H	 0.5126331092	 1.7303720944	 0.8071276912	 0.255038
H	 0.3849847393	 1.7434502253	-0.8360275974	 0.255038
H	-2.2195422179	-0.4872687302	 0.1742596544	 0.130317
H	-1.6876479698	-4.2225692221	 0.1035824563	 0.140304
116.9096	151.114	315.7664	316.4914	356.4196	523.5884	569.8503	602.2336	614.5384	746.6381	754.5757	766.9021	809.7074	818.9923	833.1727	862.5811	902.586	978.3734	1141.6627	1179.1073	1210.1955	1222.3358	1234.3001	1424.305	1456.7256	1554.6317	1613.2475	1650.621	1684.3068	3240.4214	3272.4202	3499.5601	3566.8831
NC1=CC2=C(ON=C2)O1	Nc1cc2c(onc2)o1	
InChI=1S/C5H4N2O2/c6-4-1-3-2-7-9-5(3)8-4/h1-2H,6H2	InChI=1S/C5H4N2O2/c6-4-1-3-2-7-9-5(3)8-4/h1-2H,6H2
