23
gdb 114480	2.84642	1.24138	1.10377	0.1748	89.73	-0.2309	0.0288	0.2597	1251.2846	0.20772	-351.163244	-351.154698	-351.153753	-351.196738	33.656	
C	 0.054053068	 1.4313970974	-0.3764986841	-0.385059
C	-0.0077606791	-0.0952555998	-0.256210691	-0.189612
C	-1.4030036245	-0.5981582307	 0.1098634986	 0.047817
C	-2.4977192214	-0.4854251234	-0.998689204	-0.24901
C	-2.6640608261	-2.0362419162	-0.9900337244	-0.046684
C	-1.9751473941	-2.7757868161	-2.1039490048	-0.076078
C	-0.8364791425	-3.3486256347	-1.7123268413	-0.058308
C	-0.5406253634	-3.125172602	-0.2454990085	-0.274052
C	-1.6523084148	-2.1479327758	 0.1995910287	-0.048381
H	 1.0575522283	 1.768434618	-0.6547115135	 0.109347
H	-0.6423885072	 1.8001970916	-1.137222415	 0.117925
H	-0.2090157544	 1.9131819572	 0.5719728085	 0.111642
H	 0.3137068088	-0.5485221223	-1.202312391	 0.100129
H	 0.711508992	-0.4245870145	 0.5052466937	 0.092552
H	-1.7135036027	-0.1000311997	 1.0352926974	 0.061948
H	-3.3921504299	 0.0618725819	-0.6899143834	 0.092212
H	-2.1541663916	-0.0688821483	-1.9506214851	 0.092336
H	-3.6883302292	-2.3858646084	-0.8232896729	 0.065314
H	-2.3772706243	-2.8152196118	-3.1115745967	 0.086787
H	-0.1808886895	-3.9297930659	-2.3529869158	 0.087124
H	-0.581441602	-4.0700462782	 0.3137200275	 0.097709
H	 0.467034403	-2.725007066	-0.0823878288	 0.102798
H	-2.0875365433	-2.4372976926	 1.157833906	 0.061546
49.1848	119.8411	174.7574	228.3676	248.5012	298.2548	393.4505	442.3394	484.0236	630.4924	742.9869	745.596	752.4741	780.132	803.6684	848.6485	882.6284	913.2892	948.8991	955.9194	971.0929	982.1796	1002.6101	1026.4075	1035.3882	1092.7957	1109.0555	1118.7078	1129.2049	1147.5507	1198.3866	1211.7809	1240.7962	1262.4923	1272.2225	1289.4472	1300.1853	1324.4001	1329.097	1343.4189	1377.0872	1390.7697	1410.8953	1478.1762	1486.2007	1494.8318	1499.6195	1507.3628	1678.2785	3009.88	3015.1645	3026.1092	3029.6449	3041.0818	3048.474	3050.7509	3054.3852	3085.2927	3095.6838	3100.7532	3101.3325	3169.9138	3196.0119
CCC1CC2C=CCC12	CC[C@H]1C[C@H]2C=CC[C@@H]12	
InChI=1S/C9H14/c1-2-7-6-8-4-3-5-9(7)8/h3-4,7-9H,2,5-6H2,1H3	InChI=1S/C9H14/c1-2-7-6-8-4-3-5-9(7)8/h3-4,7-9H,2,5-6H2,1H3/t7-,8+,9-/m0/s1
