20
gdb 104119	2.53745	1.29877	1.13364	4.7864	74.84	-0.2581	0.0565	0.3145	1195.0771	0.171078	-440.354658	-440.34548	-440.344536	-440.388472	34.471	
C	-0.0112755509	 1.5130248567	 0.1960537349	-0.397551
C	-0.0960655671	-0.008505844	 0.0502338856	-0.203266
C	-1.5225424533	-0.5677299767	-0.1007562836	 0.383517
C	-2.2304955284	-0.0931105737	-1.3632543537	-0.440982
C	-1.519536719	-2.1149837367	 0.0392734194	-0.228058
N	-1.801075475	-2.2579720694	 1.4519436951	-0.36383
C	-2.4273529215	-1.1388504812	 1.9584440032	 0.460456
O	-2.9797797726	-1.016352066	 3.0160682712	-0.393759
O	-2.3079874689	-0.1337182024	 1.0415720345	-0.273378
H	 1.01913342	 1.8174205466	 0.4011235886	 0.115963
H	-0.3305293096	 2.0323240658	-0.7127703283	 0.116841
H	-0.6387287056	 1.8566702624	 1.0221232321	 0.144976
H	 0.4893322834	-0.3405579325	-0.81678377	 0.09693
H	 0.352871806	-0.4846427196	 0.9301484363	 0.112508
H	-1.6928522514	-0.4394996476	-2.2520577493	 0.120301
H	-3.2497087889	-0.4869015025	-1.3985539231	 0.127749
H	-2.2859530929	 0.9969343071	-1.39731839	 0.138039
H	-2.2898343686	-2.5780687681	-0.5931602736	 0.105594
H	-0.548285302	-2.539966891	-0.2322085234	 0.117135
H	-2.0266807036	-3.1441162673	 1.8728493242	 0.260814
80.0411	122.4847	156.2446	206.3602	229.4733	251.1595	322.1784	340.83	394.9662	473.3063	506.6627	541.7577	609.1014	733.1679	772.6201	784.0468	802.931	894.6757	930.9856	975.7045	1009.871	1013.2745	1034.9258	1077.8418	1092.6234	1168.4269	1185.4022	1211.1351	1251.2296	1290.634	1320.4725	1362.1215	1380.6618	1412.549	1413.7886	1438.2776	1477.1136	1489.6621	1495.1497	1507.4109	1511.3216	1534.6192	1889.9504	3001.5824	3024.2367	3044.176	3047.0961	3063.2781	3070.9319	3108.7518	3116.4614	3128.7136	3133.3674	3658.8226
CCC1(C)CNC(=O)O1	CC[C@@]1(C)CNC(=O)O1	
InChI=1S/C6H11NO2/c1-3-6(2)4-7-5(8)9-6/h3-4H2,1-2H3,(H,7,8)	InChI=1S/C6H11NO2/c1-3-6(2)4-7-5(8)9-6/h3-4H2,1-2H3,(H,7,8)/t6-/m0/s1
