20
gdb 81247	2.84977	1.55126	1.42466	1.7662	79.25	-0.2083	0.0755	0.2839	1021.2836	0.172846	-403.066083	-403.058487	-403.057543	-403.097896	30.975	
O	-0.1464719123	 1.4830956235	-0.0963063358	-0.448988
C	 0.0043071858	 0.088016335	 0.017543805	 0.113591
C	-0.0473585315	-0.6090938397	 1.4058257332	-0.087746
C	-1.5472046633	-0.1776312658	 1.5068734428	-0.291282
C	-1.3135522377	-0.7478972798	 0.0769157005	 0.307523
C	-2.0170453075	-1.347072546	-1.1110041409	-0.344483
C	-0.95758015	-2.4131989472	-1.5673455342	-0.204065
C	 0.0437407569	-2.626047537	-0.3726735646	-0.187093
N	-0.5765637376	-1.876822688	 0.7386978686	-0.122323
H	 0.7243001132	 1.8883861845	-0.0381561185	 0.283442
H	 0.7729662439	-0.2786900695	-0.6681870581	 0.065905
H	 0.6966867371	-0.6343929447	 2.2038767014	 0.076034
H	-2.1618719357	-0.8017162933	 2.1559545016	 0.100583
H	-1.741810506	 0.8889234925	 1.5947814322	 0.113532
H	-2.9496842841	-1.8280924598	-0.8025488345	 0.112136
H	-2.2456179083	-0.6259140484	-1.8992245601	 0.108203
H	-1.4451580306	-3.3490645002	-1.849936814	 0.108037
H	-0.4185442528	-2.0583853191	-2.4499100933	 0.104814
H	 0.1118604944	-3.6796585905	-0.0860271163	 0.10007
H	 1.0564470663	-2.3091568565	-0.652944545	 0.09211
93.5389	213.4847	231.0153	266.0351	345.2582	366.7627	462.0972	525.8158	595.3215	640.6047	695.0896	778.3528	789.0383	831.168	859.1811	872.3966	888.8864	923.3803	958.3333	972.2367	998.148	1045.0346	1046.4595	1100.6619	1113.2609	1140.9428	1159.7863	1178.694	1190.9262	1212.6732	1221.5664	1230.8786	1247.6422	1269.1344	1294.5221	1304.7375	1330.6135	1349.7694	1436.328	1481.442	1488.4796	1501.1509	1535.728	3008.8852	3059.2689	3061.7683	3066.9923	3071.5615	3091.9161	3101.5262	3103.3761	3118.4314	3183.0587	3817.4371
OC1C2CC11CCCN21	O[C@H]1[C@H]2C[C@]31CCCN23	
InChI=1S/C7H11NO/c9-6-5-4-7(6)2-1-3-8(5)7/h5-6,9H,1-4H2	InChI=1S/C7H11NO/c9-6-5-4-7(6)2-1-3-8(5)7/h5-6,9H,1-4H2/t5-,6+,7+/m1/s1
