18
gdb 98308	3.09507	1.06754	0.91325	2.6149	68.88	-0.2438	-0.0034	0.2404	1319.8186	0.146798	-476.220681	-476.211216	-476.210272	-476.255814	33.343	
C	-0.0746469883	 1.3470065214	-0.1184535586	-0.245453
O	-0.0822044339	-0.089403885	-0.0458180754	-0.22567
C	-1.2844633272	-0.6609221631	 0.0113408924	 0.437204
O	-2.3358715132	-0.0624325246	 0.0268838247	-0.380619
C	-1.2102992876	-2.1861571823	 0.0616642281	-0.025981
O	-2.5140272444	-2.6929284028	 0.2001960513	-0.435325
C	-0.5317257444	-2.7370915703	-1.1908227549	 0.00138
C	-0.8559054405	-4.1036802161	-1.6541498097	-0.243343
N	-1.3252818569	-2.9235947023	-2.4100074646	-0.319344
H	 0.975555713	 1.6338841189	-0.1539994633	 0.143332
H	-0.5967219049	 1.6844160931	-1.0165292988	 0.151745
H	-0.5619779179	 1.7746606677	 0.7606051937	 0.148312
H	-0.5990185721	-2.4566190478	 0.9367527799	 0.109783
H	-3.0948035852	-1.9157196865	 0.2196656519	 0.301091
H	 0.4664880795	-2.3399368875	-1.3538795952	 0.10356
H	-0.0962572842	-4.6977848124	-2.1536631378	 0.116329
H	-1.5900379264	-4.6640467071	-1.0841212468	 0.130422
H	-2.3043174155	-2.7773254334	-2.1661369268	 0.232577
68.0561	70.6116	114.6814	128.7188	187.7432	242.0767	270.39	343.9026	374.5769	456.612	481.6833	616.1314	653.3452	773.9697	818.6779	862.286	908.0676	952.9597	993.0365	1013.3564	1027.1008	1102.7217	1142.7331	1157.6298	1177.878	1199.5522	1211.0325	1248.7763	1278.73	1292.1211	1312.6467	1349.0772	1394.3978	1447.7098	1477.8968	1483.4696	1494.6452	1502.7432	1801.6774	2989.2418	3058.8113	3118.8164	3137.8735	3149.7418	3169.6837	3210.9928	3476.3543	3692.0243
COC(=O)C(O)C1CN1	COC(=O)[C@@H](O)[C@H]1CN1	
InChI=1S/C5H9NO3/c1-9-5(8)4(7)3-2-6-3/h3-4,6-7H,2H2,1H3	InChI=1S/C5H9NO3/c1-9-5(8)4(7)3-2-6-3/h3-4,6-7H,2H2,1H3/t3-,4+/m1/s1
