18
gdb 77627	2.17668	1.4375	1.27874	3.2449	78.41	-0.2562	0.0116	0.2677	1116.3829	0.146501	-401.934586	-401.925643	-401.924699	-401.967947	33.102	
C	 0.007798973	 1.5650807707	-0.009055176	-0.428764
C	 0.0769284183	 0.0555570158	-0.0424415977	-0.119272
C	 0.6853715689	-0.7384632311	-1.1522452109	 0.401495
C	 0.0374433489	-1.8033383568	-1.9723371549	-0.483546
O	 1.7871682139	-0.0352421489	-1.7324699005	-0.310616
C	 2.5337174529	-0.0913737738	-0.4926175153	-0.144059
C	 1.3597201722	-0.7409649817	 0.2388176396	 0.05679
C	 1.4513479329	-1.7536100759	 1.2302329378	 0.192108
N	 1.5252243844	-2.5823650678	 2.0365345825	-0.354929
H	 0.8003507471	 2.0104332401	-0.6139376099	 0.141465
H	-0.9493493953	 1.9044558629	-0.4177600686	 0.12937
H	 0.0891762935	 1.9437254608	 1.014374551	 0.130267
H	-0.7789166797	-0.4534376838	 0.3960668719	 0.113155
H	-0.4734851209	-1.3541312542	-2.8313278028	 0.142782
H	 0.7797550689	-2.5126924187	-2.3482407569	 0.141791
H	-0.7039694534	-2.3458347773	-1.380013038	 0.140358
H	 3.3945601834	-0.7593285526	-0.590309516	 0.132328
H	 2.8588956509	 0.8962935423	-0.1498030355	 0.119277
110.8028	147.5358	168.8428	190.5039	217.6467	254.6752	262.6122	336.1544	434.941	516.4576	550.5673	564.8528	610.6398	707.9194	759.1618	765.6715	921.4837	964.487	989.2546	1008.5369	1054.6302	1094.7367	1107.9451	1121.9933	1150.0129	1172.1726	1220.0464	1274.1471	1306.9339	1348.6867	1411.2364	1412.8004	1472.3854	1476.7831	1491.5906	1494.6614	1511.2838	1521.0558	2338.739	3039.7246	3041.7636	3045.1282	3097.3176	3105.188	3107.2165	3128.5814	3130.3465	3146.8113
CC1C2(C)OCC12C#N	C[C@H]1[C@@]2(C)OC[C@@]12C#N	
InChI=1S/C7H9NO/c1-5-6(2)7(5,3-8)4-9-6/h5H,4H2,1-2H3	InChI=1S/C7H9NO/c1-5-6(2)7(5,3-8)4-9-6/h5H,4H2,1-2H3/t5-,6+,7-/m0/s1
