19
gdb 72516	2.19211	1.8618	1.64356	2.3667	74.21	-0.2258	-0.0199	0.206	966.7316	0.160309	-423.055548	-423.047589	-423.046645	-423.087765	30.945	
C	 0.0331975776	 1.5041273628	 0.0863118085	-0.471625
C	 0.0164773217	 0.0028990579	-0.0352998352	 0.304545
C	 0.6399055759	-0.6399630716	-1.292455421	-0.254295
C	 0.0745561005	-2.1068058474	-1.2639105556	-0.23415
C	-0.7827860931	-2.1402207264	 0.027337403	-0.157756
C	 0.1655337844	-1.9659335856	 1.222207823	-0.077859
O	 0.6427444675	-0.6012722595	 1.1167783947	-0.320663
C	-1.3476645609	-0.7148608154	-0.0122849361	 0.399676
O	-2.466451717	-0.2885336643	-0.0345848082	-0.326816
H	 1.0585767748	 1.884778527	 0.0756048513	 0.124575
H	-0.5161822033	 1.9540457332	-0.7452699258	 0.127994
H	-0.4421005026	 1.8136174118	 1.0204550986	 0.134432
H	 0.339981187	-0.1102226639	-2.2016913405	 0.109475
H	 1.729785513	-0.6081042068	-1.2219140894	 0.114784
H	-0.5418534253	-2.3116203025	-2.1430861256	 0.113939
H	 0.8678020273	-2.8584826964	-1.2324469924	 0.109759
H	-1.5041346693	-2.9500880688	 0.1114132049	 0.090243
H	-0.3491246598	-2.095228221	 2.1824930243	 0.110782
H	 1.0202268314	-2.6530755732	 1.1888606915	 0.10296
129.0943	143.5812	170.9033	227.4586	301.7721	329.4036	392.4174	492.6958	556.4797	593.1633	669.7724	749.3511	788.4111	827.2081	856.4555	867.4844	888.8163	934.0468	954.1749	978.6545	1022.9831	1055.3764	1082.1041	1130.197	1156.7128	1171.2459	1204.7801	1221.0437	1256.0199	1265.1034	1275.391	1325.3297	1357.1474	1379.2432	1416.8831	1472.812	1478.8638	1492.7555	1499.0863	1533.4371	1889.0307	3011.6769	3047.5888	3049.9165	3052.8638	3062.4765	3095.3375	3115.0136	3120.8676	3128.479	3146.3317
CC12CCC(CO1)C2=O	C[C@@]12CC[C@@H](CO1)C2=O	
InChI=1S/C7H10O2/c1-7-3-2-5(4-9-7)6(7)8/h5H,2-4H2,1H3	InChI=1S/C7H10O2/c1-7-3-2-5(4-9-7)6(7)8/h5H,2-4H2,1H3/t5-,7-/m0/s1
