16
gdb 28108	5.15776	1.27208	1.02692	2.158	80.49	-0.1782	0.0213	0.1995	1125.121	0.126598	-400.796823	-400.789441	-400.788497	-400.828442	28.729	
C	 0.0819182531	 1.4618492759	 0.0283550284	-0.489915
C	-0.0748404559	-0.0150156283	-0.0022466092	 0.362539
C	-1.1709929703	-0.819913068	-0.1566062908	-0.455224
C	-0.6595177437	-2.1526543247	-0.0947439747	 0.302565
C	 0.7042240256	-2.0549150696	 0.0916858514	 0.332871
O	 1.084012449	-0.7485985256	 0.1512796201	-0.245755
C	 1.2801251047	-3.3435116305	 0.1627239046	-0.332714
C	 0.2106219465	-4.2081502687	 0.0119007911	-0.067148
N	-0.9633875334	-3.4895644326	-0.1450869913	-0.399015
H	 0.7469538573	 1.8135613692	-0.7693367398	 0.136428
H	-0.8909890651	 1.9412387789	-0.1017435804	 0.13113
H	 0.5075074642	 1.8027986063	 0.9796389779	 0.136416
H	-2.1842427472	-0.4761505125	-0.2924035566	 0.105728
H	 2.3109721659	-3.6251371994	 0.3008317749	 0.103753
H	 0.1939977685	-5.2860529245	 0.002628323	 0.117984
H	-1.8731280992	-3.8959253059	-0.2657636485	 0.260356
127.6359	143.3141	263.0061	276.0428	332.198	388.7033	498.5087	559.2661	611.9611	614.8641	679.0029	741.1791	753.6212	764.2899	796.4257	802.5327	932.4164	952.6891	1013.0041	1061.5266	1069.1888	1099.9917	1162.4433	1171.937	1272.5437	1309.3354	1374.6393	1414.3254	1469.3344	1471.421	1475.8771	1491.5619	1555.3213	1589.3576	1622.7287	3024.687	3072.1111	3126.5382	3254.7313	3258.2603	3275.7305	3695.9966
CC1=CC2=C(O1)C=CN2	Cc1cc2c(o1)cc[nH]2	
InChI=1S/C7H7NO/c1-5-4-6-7(9-5)2-3-8-6/h2-4,8H,1H3	InChI=1S/C7H7NO/c1-5-4-6-7(9-5)2-3-8-6/h2-4,8H,1H3
