20
gdb 20050	4.55312	1.40521	1.20945	0.069	79.52	-0.2338	0.0322	0.2661	1056.4285	0.178719	-311.869216	-311.861661	-311.860716	-311.901487	29.256	
C	-0.2046506166	 1.1891273362	-0.3669545447	-0.277165
C	 1.2396405026	 0.8857668981	-0.0405553671	-0.277164
C	 0.1863369338	-0.1775460125	 0.1323566761	 0.049116
C	-0.2241717784	-0.6425651235	 1.5165227649	-0.002577
C	-1.6450904009	-1.2833123266	 1.4994880883	-0.264989
C	-1.3644841399	-2.766627134	 1.504584664	-0.055155
C	-0.0918564689	-3.033918765	 1.792204043	-0.055156
C	 0.7110075845	-1.778166538	 2.0319770404	-0.264989
H	-0.7481850967	 1.8395956633	 0.3112286911	 0.107906
H	-0.4848823894	 1.3044392332	-1.4083002116	 0.108005
H	 1.9451438747	 0.7940614981	-0.8591411902	 0.108005
H	 1.6583126629	 1.3341051901	 0.8550879733	 0.107906
H	 0.1875500908	-0.9720162798	-0.6113235048	 0.082999
H	-0.1947496007	 0.2212333997	 2.1891027789	 0.059519
H	-2.2318494793	-0.9974206546	 2.3839015195	 0.098428
H	-2.2256358653	-0.9563097168	 0.6287999984	 0.101943
H	-2.1351541769	-3.5080542864	 1.3228955231	 0.086498
H	 0.3354544492	-4.026960341	 1.8812629745	 0.086498
H	 1.6754097378	-1.7756517686	 1.5104555082	 0.101944
H	 0.9404019268	-1.6636889019	 3.1008458246	 0.098427
74.2433	81.5943	189.2583	289.0965	332.5226	379.6238	463.9162	677.1179	741.6003	757.9856	784.29	814.5506	830.5481	898.2886	902.5861	925.6499	968.4908	969.2715	977.9842	978.5196	1012.6518	1054.5735	1067.4227	1076.6003	1124.4084	1130.9953	1144.902	1175.5751	1198.0811	1224.9138	1233.1895	1254.7123	1305.5766	1308.0452	1325.8262	1374.8849	1421.9451	1470.3256	1483.0002	1490.2684	1507.0218	1686.9891	3003.6516	3005.7038	3045.438	3049.6605	3052.4229	3125.1038	3125.8166	3131.0756	3177.5841	3202.1945	3203.4922	3217.441
C1CC1C1CC=CC1	C1CC1[C@H]1CC=CC1	
InChI=1S/C8H12/c1-2-4-7(3-1)8-5-6-8/h1-2,7-8H,3-6H2	InChI=1S/C8H12/c1-2-4-7(3-1)8-5-6-8/h1-2,7-8H,3-6H2
