14
gdb 123389	7.60315	0.7679	0.70053	3.4827	70.21	-0.2406	-0.0137	0.2269	1488.101	0.099612	-436.616662	-436.608666	-436.607722	-436.650155	28.688	
C	 0.033640465	-1.2009475572	-0.0061489017	-0.385767
C	 0.0427755602	-0.0008989625	 0.0016521845	 0.28301
C	 0.012020525	 1.4514571912	 0.0115887463	-0.254502
O	 1.3467398683	 1.9583381929	-0.0007076544	-0.259851
C	 1.4326593568	 3.3046993052	 0.0067171606	 0.237254
C	 0.4842563638	 4.2840782821	 0.0244020403	-0.048035
O	 1.0896602416	 5.4917695991	 0.024669771	-0.173793
N	 2.4619900376	 5.3178853329	 0.0069446891	-0.118966
C	 2.6610347011	 4.0245411447	-0.0036290054	-0.060208
H	 0.032065237	-2.263187077	-0.0131318004	 0.209667
H	-0.5326381144	 1.8295411201	-0.8669588709	 0.139628
H	-0.511853569	 1.8178108669	 0.9075758196	 0.139627
H	-0.5922012495	 4.2931119224	 0.0374994489	 0.148675
H	 3.6652142765	 3.6274030993	-0.0183085173	 0.143262
53.6213	103.2533	108.8693	225.019	326.0642	358.4283	408.9387	501.0906	605.3218	620.6127	672.1957	693.504	754.8271	770.1228	895.3193	918.7121	927.0683	984.2086	1025.3763	1034.7732	1063.5263	1136.8719	1213.8004	1251.5845	1301.2526	1382.2567	1439.27	1487.7948	1501.3629	1665.3528	2253.8754	2983.0211	3012.1152	3256.2582	3284.3764	3504.6241
C#CCOC1=CON=C1	C#CCOc1conc1	
InChI=1S/C6H5NO2/c1-2-3-8-6-4-7-9-5-6/h1,4-5H,3H2	InChI=1S/C6H5NO2/c1-2-3-8-6-4-7-9-5-6/h1,4-5H,3H2
