17
gdb 64989	2.54836	1.28807	1.00044	0.6317	70.21	-0.2569	-0.0571	0.1998	1202.9011	0.132259	-458.968549	-458.959085	-458.958141	-459.003693	33.139	
C	-0.0957097284	 1.4274952575	-0.8983354217	-0.463283
C	-0.1584788619	 0.2549638415	 0.048668806	 0.29305
C	 0.4591464204	-1.0460292814	-0.3067109247	-0.236171
O	 1.0846511484	-0.1742960497	 0.6266597919	-0.256668
C	-1.3403824537	 0.2394546403	 0.9924363212	 0.323217
O	-2.2924244079	 0.9609903943	 0.8089146942	-0.300711
C	-1.2980862106	-0.7462856508	 2.1696001628	-0.387134
C	-2.1914636874	-1.9333733761	 1.841537032	 0.148703
O	-1.7800773063	-2.990373449	 1.4370404733	-0.225164
H	 0.7871870702	 1.3464746013	-1.5358100703	 0.127533
H	-0.9922350318	 1.4608075167	-1.5217804623	 0.144586
H	-0.0438379633	 2.3683476378	-0.3432012484	 0.138905
H	 0.0699167582	-1.9764557795	 0.1022931956	 0.154203
H	 0.9451373092	-1.1200922185	-1.2783425242	 0.128907
H	-0.2810884589	-1.0858199893	 2.3632364322	 0.157581
H	-1.7072930472	-0.219420111	 3.0358817781	 0.142751
H	-3.277637229	-1.7471934439	 1.9715327043	 0.109695
60.9415	73.0889	87.4727	159.9368	195.799	242.1972	296.4608	335.6072	379.9974	464.2231	489.2661	522.6455	644.1488	735.91	813.1029	849.4882	908.5812	943.0507	948.886	1033.1917	1051.8846	1083.8547	1102.02	1151.0351	1184.0349	1199.932	1244.6953	1320.7428	1364.8223	1413.9163	1415.3865	1472.43	1476.3909	1490.4323	1530.6511	1784.5716	1828.5041	2923.0398	3054.5654	3075.3545	3090.3318	3125.2768	3140.9004	3159.6157	3186.6426
CC1(CO1)C(=O)CC=O	C[C@]1(CO1)C(=O)CC=O	
InChI=1S/C6H8O3/c1-6(4-9-6)5(8)2-3-7/h3H,2,4H2,1H3	InChI=1S/C6H8O3/c1-6(4-9-6)5(8)2-3-7/h3H,2,4H2,1H3/t6-/m0/s1
