15
gdb 133703	2.67699	1.24227	1.16372	1.9359	54.06	-0.247	0.0656	0.3126	1073.1055	0.108648	-585.431921	-585.423383	-585.422439	-585.465208	32.116	
N	-0.3106580908	 1.3754695268	-0.1830928874	-0.58774
C	-0.0814373345	-0.0355433098	-0.0189842573	 0.080026
C	-0.4159048063	-0.6305665746	 1.3354853577	-0.364214
C	-1.3471047625	-0.8538986495	 0.1712140757	 0.130219
O	-2.5610915553	-0.1957404944	 0.0893293101	-0.431654
C	 1.0729141762	-0.6144568996	-0.7902093477	 0.24112
F	 2.2499899717	-0.1131664515	-0.3725613625	-0.079144
F	 1.1397612629	-1.9491472122	-0.6748617919	-0.076826
F	 0.972070586	-0.3227478753	-2.1014271102	-0.082121
H	 0.3857016895	 1.9260942953	 0.3088913211	 0.249601
H	-0.2689827918	 1.6271137954	-1.1663836746	 0.249859
H	 0.1884465301	-1.4603034086	 1.6830716195	 0.134048
H	-0.7309836005	 0.0723315048	 2.098519038	 0.125926
H	-1.3855890147	-1.8465059347	-0.2631402981	 0.121834
H	-2.3455674499	 0.7507171878	 0.0982031776	 0.289066
69.0313	146.1517	201.2618	258.0326	295.5355	308.1506	331.2231	403.363	449.1772	490.8485	550.6431	577.0777	583.5979	664.9178	746.459	828.0127	854.8819	916.5542	941.9007	1028.7847	1040.6626	1095.9225	1130.5362	1174.5806	1183.642	1203.9347	1257.8994	1322.5596	1349.493	1380.3692	1437.2245	1481.3174	1659.8368	3142.1068	3183.79	3237.5237	3499.9407	3578.6504	3685.481
NC1(CC1O)C(F)(F)F	N[C@]1(C[C@H]1O)C(F)(F)F	
InChI=1S/C4H6F3NO/c5-4(6,7)3(8)1-2(3)9/h2,9H,1,8H2	InChI=1S/C4H6F3NO/c5-4(6,7)3(8)1-2(3)9/h2,9H,1,8H2/t2-,3+/m1/s1
