19
gdb 50207	3.77511	1.26126	1.13532	3.0765	78.58	-0.2429	-0.019	0.2238	1107.9367	0.161137	-385.879377	-385.872083	-385.871138	-385.91153	28.974	
O	 0.0744642976	-0.1300239818	-0.0735829516	-0.254572
C	 0.0498829634	 1.0738855948	-0.1236557028	 0.145676
C	 1.2669559737	 1.9651999803	-0.087115009	-0.04613
C	 1.3005891016	 3.0218371297	-1.2310027357	-0.27825
C	 1.9294008606	 4.2531076648	-0.5759178545	-0.03191
C	 1.2208342685	 4.9101357299	 0.5981347435	-0.056275
C	 0.2437638014	 3.9358105102	 1.2515853048	-0.245564
C	 1.3626206971	 2.8376934559	 1.1892427451	-0.06895
C	 2.3817037447	 3.9527745045	 0.8240367142	-0.084684
H	-0.9209062081	 1.6181989432	-0.1989132017	 0.069989
H	 2.1466380115	 1.3157234396	-0.1382330515	 0.091682
H	 1.8968459112	 2.6654919015	-2.0753425956	 0.112295
H	 0.2953707239	 3.2302221233	-1.6181229055	 0.104262
H	 2.5315433499	 4.9203539778	-1.1825537245	 0.087119
H	 1.2048971282	 5.9891405773	 0.7010197343	 0.084107
H	 0.0336898752	 4.2171043106	 2.2863169283	 0.107919
H	-0.7075520908	 3.737936172	 0.745579573	 0.092958
H	 1.5207672552	 2.2663377662	 2.1032447573	 0.082271
H	 3.3720535255	 4.1119143703	 1.2288690719	 0.088057
62.2878	126.752	263.8516	323.1075	381.8304	432.4268	440.6912	645.2538	697.7038	709.4586	780.4299	799.7246	829.6554	888.1127	898.7864	946.1909	974.6604	975.7774	986.8874	998.3337	1017.429	1057.5954	1072.2543	1090.8105	1110.6339	1118.5118	1145.9526	1204.0993	1209.2282	1234.0309	1263.0549	1286.819	1287.5591	1301.1678	1324.0294	1345.1955	1402.7195	1433.032	1489.0577	1504.5384	1826.2629	2852.0312	3029.9698	3041.8245	3060.4725	3088.9168	3098.1463	3120.2083	3170.0686	3178.9182	3204.6279
O=CC1CC2C3CC1C23	O=C[C@H]1C[C@H]2[C@H]3C[C@@H]1[C@@H]23	
InChI=1S/C8H10O/c9-3-4-1-6-7-2-5(4)8(6)7/h3-8H,1-2H2	InChI=1S/C8H10O/c9-3-4-1-6-7-2-5(4)8(6)7/h3-8H,1-2H2/t4-,5+,6+,7-,8+/m1/s1
