19
gdb 38185	4.57353	1.0611	1.04756	2.9702	74.46	-0.2403	0.0766	0.3168	1205.7727	0.159699	-422.95144	-422.943603	-422.942659	-422.984507	29.576	
C	 0.107448582	 1.4695398476	 0.0917221679	-0.306969
C	 1.3847115927	 0.6995476796	 0.1903348993	 0.113723
O	 1.4919757084	 0.0368508215	 1.4529488226	-0.297314
C	 0.3089521792	-0.764687913	 1.1456779648	 0.09535
C	 0.110846668	-0.0225043859	-0.1775705116	-0.134833
C	 0.6338456655	-2.238922013	 1.0513767788	-0.055961
C	 1.8759101288	-2.6978138717	 0.2534730826	-0.07997
O	 2.4031960348	-3.3984017179	 1.3974985645	-0.272169
C	 1.3644940161	-2.882120958	 2.2531373188	-0.08807
H	-0.3499016504	 1.8677356378	 0.9935214002	 0.117992
H	 0.0009588971	 2.0889504726	-0.7936812572	 0.117394
H	 2.2995247814	 0.9143235753	-0.3496164237	 0.106919
H	-0.4733655173	-0.6039970516	 1.9009823075	 0.08265
H	-0.2152874467	-0.4650059498	-1.1094060273	 0.100867
H	-0.2753949458	-2.7787434622	 0.7682014029	 0.082707
H	 1.6921047097	-3.3710309347	-0.5919814417	 0.096248
H	 2.5388751517	-1.8855163484	-0.0657012299	 0.1086
H	 1.7559469909	-2.1572046464	 2.9776609021	 0.114339
H	 0.831997334	-3.6794300818	 2.7844088694	 0.098496
77.6326	85.8699	137.9245	202.1256	294.323	364.1851	460.0639	576.364	727.837	763.995	794.6677	853.245	869.7959	893.8422	920.0332	947.7087	965.6512	982.1704	1005.9545	1017.3704	1042.4643	1047.6812	1056.9061	1078.2201	1090.4119	1115.5795	1144.2717	1167.1153	1175.3536	1207.7422	1232.0007	1258.4501	1293.7363	1314.9032	1336.7964	1360.2673	1382.9384	1405.7111	1473.3172	1501.9728	1530.5745	3005.3133	3015.0857	3026.1112	3052.7695	3065.4255	3075.1599	3114.4113	3179.3749	3198.7274	3210.0809
C1C2OC(C12)C1COC1	C1[C@H]2O[C@@H]([C@@H]12)C1COC1	
InChI=1S/C7H10O2/c1-5-6(1)9-7(5)4-2-8-3-4/h4-7H,1-3H2	InChI=1S/C7H10O2/c1-5-6(1)9-7(5)4-2-8-3-4/h4-7H,1-3H2/t5-,6+,7+/m0/s1
