17
gdb 93613	2.64272	1.3245	1.05827	5.1276	72.96	-0.2443	-0.0446	0.1996	1159.6718	0.136634	-418.039019	-418.030427	-418.029483	-418.072867	31.413	
C	 0.0679018894	 1.5986559993	 0.0243380628	-0.373701
C	 0.0350231107	 0.0631374682	-0.0093978776	-0.104446
N	 0.7438078678	-0.4904718646	-1.1722838599	-0.292704
C	 2.1085489613	-0.8092587662	-0.7353664244	-0.20073
C	 1.9777450376	-1.3070680957	 0.7294678808	-0.280898
C	 3.1570862392	-1.1598167916	 1.5618245136	 0.292461
N	 4.1136620995	-1.0270058575	 2.196824517	-0.31701
C	 0.7401979408	-0.5039273576	 1.2376616985	 0.402247
O	 0.4126206137	-0.3574194138	 2.37934881	-0.290641
H	 1.0955685271	 1.9738787013	-0.0002499898	 0.128497
H	-0.4599053528	 1.9974110203	-0.8448166315	 0.132156
H	-0.4074711158	 1.9634296592	 0.9384857251	 0.142418
H	-1.00806861	-0.2689600299	-0.0044433724	 0.11242
H	 0.2840507795	-1.340908221	-1.4784874726	 0.229321
H	 2.5649514867	-1.5478575574	-1.3953673977	 0.131626
H	 2.7306112942	 0.0914671484	-0.761255703	 0.138949
H	 1.6741991012	-2.3631464712	 0.7282394212	 0.150035
41.8567	137.4287	154.4306	214.9844	230.8176	256.7929	388.7283	426.6	491.9653	520.4141	567.3287	636.3291	647.8327	780.2115	807.7036	864.423	916.2116	978.0668	1020.8501	1048.2852	1058.3405	1085.9557	1119.3471	1135.7149	1203.1364	1248.8556	1285.065	1294.7044	1353.6389	1372.745	1400.9028	1466.3557	1488.2944	1493.9448	1505.1146	1863.4811	2359.3682	3023.8612	3046.8175	3058.2336	3063.107	3121.5636	3128.881	3137.1517	3529.7631
CC1NCC(C#N)C1=O	C[C@H]1NC[C@@H](C#N)C1=O	
InChI=1S/C6H8N2O/c1-4-6(9)5(2-7)3-8-4/h4-5,8H,3H2,1H3	InChI=1S/C6H8N2O/c1-4-6(9)5(2-7)3-8-4/h4-5,8H,3H2,1H3/t4-,5-/m1/s1
