18
gdb 56549	2.80269	1.01849	1.00611	3.8137	72.56	-0.2477	0.0008	0.2485	1273.7019	0.147182	-435.311521	-435.301371	-435.300426	-435.346942	36.468	
C	-0.0093464675	 1.6342711768	 0.0894702502	-0.396121
C	-0.020548879	 0.0944104139	 0.0541639541	-0.152152
C	 0.7273628048	-0.4505710125	 1.1900770235	 0.257925
N	 1.2831416732	-0.8835814988	 2.1071440502	-0.323629
C	-1.4681476981	-0.5359650165	 0.06810932	-0.069982
N	-2.3065949112	-0.1766921464	 1.189855328	-0.516122
C	-2.1931956831	-0.1053875655	-1.2160137816	 0.415699
N	-2.0052643403	-0.9205460963	-2.2908301278	-0.521914
O	-2.8315089306	 0.9285346923	-1.2711569268	-0.361198
H	 1.0170567726	 2.0072608748	 0.0653425972	 0.134682
H	-0.5572549508	 2.0349241837	-0.7647455414	 0.153193
H	-0.4832839979	 2.0010269777	 1.0029956133	 0.132905
H	 0.4806279845	-0.2485717482	-0.8600654438	 0.125753
H	-1.3299528466	-1.6247961285	 0.0602205247	 0.093854
H	-1.7949143713	-0.2063442967	 2.0651327963	 0.243555
H	-2.68205654	 0.755059699	 1.0437792608	 0.249522
H	-1.6508453685	-1.8556630521	-2.1842411701	 0.266325
H	-2.5055192203	-0.6983223466	-3.1374181767	 0.267708
50.1007	67.5691	138.373	187.8862	211.8872	243.79	267.5242	308.3209	328.0392	355.2338	387.1707	451.829	562.005	575.1228	620.2947	678.7228	720.3026	817.2019	839.834	867.2629	917.4438	1009.5356	1068.1582	1093.2722	1119.2398	1155.707	1213.813	1285.0021	1297.0276	1334.8359	1369.0948	1416.5478	1441.3163	1491.8494	1502.1712	1618.6178	1628.8977	1797.5372	2349.4092	3019.0144	3034.2173	3061.2868	3133.6978	3150.9769	3504.0476	3592.1576	3597.4667	3724.6535
CC(C#N)C(N)C(N)=O	C[C@@H](C#N)[C@@H](N)C(=O)N	
InChI=1S/C5H9N3O/c1-3(2-6)4(7)5(8)9/h3-4H,7H2,1H3,(H2,8,9)	InChI=1S/C5H9N3O/c1-3(2-6)4(7)5(8)9/h3-4H,7H2,1H3,(H2,8,9)/t3-,4+/m0/s1
