17
gdb 29379	5.56348	0.8803	0.77779	1.3218	82.09	-0.1734	0.0455	0.2189	1426.1192	0.136137	-380.866638	-380.857597	-380.856653	-380.900878	33.861	
N	-0.400776254	 1.3504993897	 0.7138130462	-0.606022
C	-0.0788983747	 0.0733568664	 0.2106088211	 0.261281
C	-0.9021621108	-0.7799453252	-0.4933391594	-0.172424
N	-0.2060542528	-1.956459673	-0.6943383396	-0.2972
C	 1.0437731429	-1.8577245043	-0.1576531315	 0.349078
C	 2.0169537027	-3.0064526637	-0.1900373287	-0.465943
C	 1.8078259096	-3.9109085767	-1.3187640373	 0.289494
C	 1.593237532	-4.6553517779	-2.2382030745	-0.445855
C	 1.1551463347	-0.610245292	 0.4205535075	-0.320629
H	 0.3930576158	 1.9784960285	 0.6853226103	 0.237458
H	-1.1651792119	 1.7799147343	 0.2075149188	 0.234988
H	-1.9063715019	-0.65168607	-0.8628070205	 0.101374
H	-0.5151596703	-2.7373390505	-1.247465325	 0.259664
H	 3.0375829582	-2.6069470903	-0.2234440676	 0.147525
H	 1.9571450382	-3.591572576	 0.7400227717	 0.14685
H	 1.4346799038	-5.3152222707	-3.0549167749	 0.199468
H	 2.0160769583	-0.2316096086	 0.9517284033	 0.080895
31.5777	108.6769	171.2136	199.3437	265.6856	316.4376	330.6284	397.4926	460.5064	473.5098	617.8304	624.8924	633.696	652.5291	659.9155	679.0222	753.8409	762.7867	802.9445	942.3913	945.419	995.5918	1005.9772	1103.5705	1130.081	1176.6964	1214.1163	1288.3398	1323.3995	1333.68	1457.8856	1465.4642	1497.5155	1542.5292	1637.7273	1658.7168	2236.1313	2991.0515	3050.0951	3236.6649	3263.9071	3505.2734	3526.083	3613.3003	3673.0794
NC1=CNC(CC#C)=C1	Nc1c[nH]c(CC#C)c1	
InChI=1S/C7H8N2/c1-2-3-7-4-6(8)5-9-7/h1,4-5,9H,3,8H2	InChI=1S/C7H8N2/c1-2-3-7-4-6(8)5-9-7/h1,4-5,9H,3,8H2
