24
gdb 113828	3.84786	0.82077	0.73142	1.3052	91.78	-0.2156	0.0859	0.3015	1672.7404	0.216418	-368.37243	-368.362211	-368.361267	-368.408369	38.016	
C	-0.0958565706	 1.6496035447	-0.181634462	-0.374086
C	 0.0375713627	 0.202356715	 0.286943789	-0.107599
N	-1.2492209806	-0.4782519734	 0.1793847123	-0.08907
C	-1.5331088768	-1.2048822727	-1.0543932815	-0.269303
C	-1.3141394977	-1.9437535169	 0.2240434613	 0.005143
C	-0.1059042418	-2.805069857	 0.4220877368	-0.005306
C	 0.2367160107	-3.3473380428	 1.7954432591	-0.304259
C	-0.2148881125	-4.2909847879	 0.7103390557	-0.010894
C	-1.5347869834	-5.0260849694	 0.8071371238	-0.404239
H	 0.8532819574	 2.1830862209	-0.0688646145	 0.107136
H	-0.3848010849	 1.6921272405	-1.237095102	 0.115995
H	-0.8625467016	 2.1712916413	 0.3979010226	 0.12493
H	 0.837572022	-0.2935098944	-0.2878358356	 0.078543
H	 0.3412259301	 0.1761290443	 1.3402046146	 0.103427
H	-2.529011748	-1.0816454535	-1.4731930299	 0.108835
H	-0.7369771188	-1.2714449437	-1.7972395038	 0.099982
H	-2.1984642628	-2.2917341334	 0.754630534	 0.082528
H	 0.7439678561	-2.5318070812	-0.1950690068	 0.081127
H	 1.2744006635	-3.3538262792	 2.1109932451	 0.108248
H	-0.4685280731	-3.140898086	 2.5954132352	 0.111567
H	 0.5747748715	-4.8846819189	 0.2561089389	 0.083223
H	-2.2924501757	-4.4448440746	 1.3399463093	 0.119621
H	-1.9354681877	-5.2668475054	-0.183879747	 0.118136
H	-1.4076575578	-5.9679116165	 1.3522324151	 0.116316
33.8739	75.176	110.6775	173.4419	197.3542	224.5665	242.5863	312.7756	334.2548	387.0872	433.5953	464.8033	595.6244	725.4405	761.9794	805.4957	815.1022	860.8723	888.0044	916.7562	925.1402	965.2175	1013.1326	1026.5969	1044.6777	1068.0965	1095.3235	1109.4872	1111.0354	1131.0015	1141.9955	1153.5654	1196.1891	1201.0428	1205.1193	1251.9558	1309.8038	1316.5731	1338.5017	1385.4028	1399.7252	1408.9194	1422.7508	1455.1834	1486.971	1488.9067	1491.851	1495.5614	1503.5755	1507.8791	1516.7571	2958.1253	3030.7874	3037.0309	3049.4253	3075.712	3088.5023	3101.8718	3105.3648	3117.9917	3118.4601	3124.3018	3132.6632	3155.6376	3164.3299	3208.8302
CCN1CC1C1CC1C	CCN1C[C@H]1[C@H]1C[C@H]1C	
InChI=1S/C8H15N/c1-3-9-5-8(9)7-4-6(7)2/h6-8H,3-5H2,1-2H3	InChI=1S/C8H15N/c1-3-9-5-8(9)7-4-6(7)2/h6-8H,3-5H2,1-2H3/t6-,7+,8+,9?/m1/s1
