20
gdb 121673	7.12035	0.53596	0.50616	5.7699	81.28	-0.27	-0.0335	0.2365	2147.1461	0.16797	-403.190995	-403.180233	-403.179289	-403.229311	36.531	
C	 0.1471430457	 1.5394431661	 0.0085051588	-0.381713
C	 0.0309337707	 0.0128931093	 0.0015781119	-0.173039
C	-1.4226553013	-0.4716248916	 0.0127649888	-0.160386
C	-1.5404330965	-1.9955508364	 0.0059023948	-0.304974
C	-2.9743106103	-2.4983990552	 0.0171081802	 0.373742
O	-3.9347579809	-1.774352569	 0.0310833509	-0.260967
C	-3.1158002056	-4.0373091185	 0.0100050129	-0.455835
C	-4.4974732966	-4.4997107652	 0.0214132053	 0.288581
N	-5.5843052746	-4.8887404257	 0.0302349449	-0.293859
H	 1.1934832592	 1.8593323043	 0.0003249063	 0.11446
H	-0.3430625093	 1.9767884286	-0.8680359924	 0.118888
H	-0.3264138689	 1.9674972686	 0.898678812	 0.118893
H	 0.5433358181	-0.3903156227	-0.8823841739	 0.095169
H	 0.5598962251	-0.3995368958	 0.8714197358	 0.095171
H	-1.942729455	-0.0767897277	 0.8930110594	 0.115472
H	-1.9591969698	-0.0676382869	-0.8533392007	 0.115429
H	-1.0379910847	-2.4264509507	-0.8727505008	 0.124904
H	-1.0213386912	-2.4355190454	 0.870285319	 0.124953
H	-2.6014495865	-4.4366796756	-0.8728108595	 0.172551
H	-2.5837670776	-4.4463461205	 0.877796836	 0.172559
18.9104	42.2514	80.9771	84.2	129.8126	167.4269	245.4018	271.8169	302.3358	369.1077	415.643	463.1027	466.1513	694.8825	717.3093	764.2663	849.0839	865.8125	915.7321	943.937	957.4022	1024.9272	1056.1173	1072.5021	1110.7633	1137.9274	1213.728	1249.9781	1284.9019	1316.0871	1323.9081	1329.2958	1372.7367	1401.4899	1417.1311	1434.2268	1452.7325	1484.2563	1495.1954	1500.3192	1511.5159	1831.6451	2375.6304	3004.9911	3010.9462	3030.8324	3032.6828	3037.648	3040.9349	3044.1104	3075.6975	3083.1188	3100.8222	3106.025
CCCCC(=O)CC#N	CCCCC(=O)CC#N	
InChI=1S/C7H11NO/c1-2-3-4-7(9)5-6-8/h2-5H2,1H3	InChI=1S/C7H11NO/c1-2-3-4-7(9)5-6-8/h2-5H2,1H3
