19
gdb 86950	3.39804	0.88352	0.80123	3.3025	72.48	-0.2479	-0.0202	0.2277	1439.8298	0.157084	-460.152749	-460.143088	-460.142144	-460.188508	34.549	
O	 0.1564333174	 1.4130373967	-0.0778306142	-0.438506
C	 0.0523208292	 0.016902913	-0.0736717234	 0.147104
C	 0.3963462832	-0.7724043665	 1.2209157049	-0.288083
C	-0.8648832534	-1.651062894	 0.9713271635	-0.005657
C	-1.7451986973	-2.040765998	 2.1606927089	-0.287104
C	-1.0507031738	-3.0535148076	 3.0416713923	 0.16172
O	-0.7909112612	-2.8972414325	 4.2066792983	-0.239024
C	-1.3949627246	-0.5731831508	-0.0109562379	 0.036105
O	-2.2681683174	 0.3185454248	 0.6680681514	-0.43279
H	-0.4384317206	 1.7229376068	 0.6171393588	 0.277349
H	 0.6081462596	-0.3481193285	-0.9416072742	 0.091237
H	 1.3677045104	-1.2683197474	 1.272580847	 0.107384
H	 0.2767300543	-0.1422288234	 2.1074856732	 0.113549
H	-0.5974125014	-2.5464781828	 0.3987361787	 0.081605
H	-2.0151455931	-1.1671195772	 2.7568200682	 0.132501
H	-2.6712545763	-2.5017185733	 1.7874441639	 0.116897
H	-0.770441218	-3.9987866753	 2.5167756806	 0.066125
H	-1.8485492536	-0.928182722	-0.9443567976	 0.065037
H	-2.5841014834	 0.9604124779	 0.0237382075	 0.29455
40.9377	70.8682	88.7305	157.2268	164.8878	250.9027	282.06	355.8025	412.0935	444.5546	534.504	540.1887	611.9031	690.7435	758.1442	827.316	873.6984	904.7672	953.1002	957.3031	1027.3526	1065.5039	1090.2515	1110.08	1138.7367	1159.1075	1178.3635	1220.3166	1243.6547	1244.532	1263.5963	1301.2499	1311.8211	1328.0742	1377.6357	1418.5375	1429.9802	1443.5764	1464.1977	1484.003	1835.151	2839.7443	3015.4311	3021.593	3045.0219	3061.2443	3079.2737	3120.1863	3124.4355	3770.3163	3819.4174
OC1CC(CC=O)C1O	O[C@H]1C[C@@H](CC=O)[C@H]1O	
InChI=1S/C6H10O3/c7-2-1-4-3-5(8)6(4)9/h2,4-6,8-9H,1,3H2	InChI=1S/C6H10O3/c7-2-1-4-3-5(8)6(4)9/h2,4-6,8-9H,1,3H2/t4-,5+,6-/m1/s1
