20
gdb 18728	2.96143	2.09695	1.42128	1.4664	73.86	-0.2561	0.0743	0.3304	927.7649	0.179721	-349.006689	-348.999287	-348.998342	-349.037955	29.788	
O	-0.0630004546	 1.4368445134	-0.0091935173	-0.441352
C	-0.0080477602	 0.0118895315	 0.0261794717	 0.121514
C	 0.8178206175	-0.5041846318	 1.2123419107	-0.238597
C	 0.6970907882	-2.0267861987	 1.3351875694	-0.196205
C	-0.7411909979	-2.4459470365	 1.6822568392	-0.215365
C	-1.7999568979	-1.7267497669	 0.84324997	-0.029615
C	-2.2970826896	-0.3622901955	 1.2552269641	-0.276982
C	-1.4319362023	-0.49778383	 0.0307233605	-0.003983
H	 0.8415989055	 1.7621467644	-0.0682307249	 0.274772
H	 0.4713603872	-0.3611634646	-0.8959317364	 0.058488
H	 1.8655373162	-0.2098597986	 1.0704524072	 0.081173
H	 0.4772513518	-0.0140857591	 2.132963178	 0.103171
H	 0.9921432856	-2.4840597699	 0.3810558804	 0.095101
H	 1.3911541912	-2.4096871078	 2.0912290644	 0.091536
H	-0.845954058	-3.5274970407	 1.5471822788	 0.095862
H	-0.9234311484	-2.2549829543	 2.7475923899	 0.099352
H	-2.540975393	-2.3778730643	 0.3899800942	 0.080393
H	-3.3449598819	-0.121781483	 1.1132605571	 0.105768
H	-1.8592835182	 0.0847601868	 2.1418779814	 0.112459
H	-1.9373584612	-0.3749896342	-0.9224413686	 0.082507
113.1192	213.7787	262.7292	288.8061	342.0001	378.6296	425.2693	465.5917	573.7679	631.0431	744.813	778.0156	834.1861	867.3508	896.4237	912.0054	935.9114	976.116	1028.4612	1059.6873	1061.2823	1084.7232	1089.473	1120.6344	1134.1763	1155.3138	1196.9187	1218.1246	1232.6092	1264.6056	1283.7311	1340.2892	1357.7248	1366.9879	1380.9492	1393.2261	1420.4684	1441.4523	1485.5036	1489.9002	1498.1619	1507.3551	2938.8381	3015.4868	3020.3283	3021.5973	3060.1961	3063.8224	3072.1546	3130.5509	3142.8643	3153.3425	3213.2384	3804.6086
OC1CCCC2CC12	O[C@H]1CCC[C@H]2C[C@@H]12	
InChI=1S/C7H12O/c8-7-3-1-2-5-4-6(5)7/h5-8H,1-4H2	InChI=1S/C7H12O/c8-7-3-1-2-5-4-6(5)7/h5-8H,1-4H2/t5-,6+,7-/m0/s1
