19
gdb 72943	2.65999	1.71898	1.47832	0.4362	73.57	-0.2317	0.0691	0.3008	972.3255	0.159733	-422.965173	-422.957518	-422.956574	-422.997433	30.521	
O	 0.0667377202	 1.343890333	-0.1951642409	-0.482352
C	-0.0127306179	-0.0396217902	-0.0046431782	 0.388224
C	 0.4278750835	-0.9915254384	-1.1493829002	-0.296265
C	-0.9839858857	-1.660332918	-1.1134607436	-0.233739
C	-1.4202808469	-0.7155145853	 0.0423424954	-0.075762
C	-1.1646780046	-1.1542708845	 1.5228891523	-0.087115
C	-0.410886018	-2.4677596372	 1.7946121736	-0.091829
O	 0.8759395429	-1.8298514992	 1.5845936841	-0.291245
C	 0.2553746972	-0.5340158307	 1.4566143178	 0.036089
H	 0.9984999315	 1.5938778197	-0.1976264335	 0.277439
H	 0.6246244639	-0.4438521364	-2.0739137418	 0.099588
H	 1.2713198728	-1.6428370106	-0.916336339	 0.113881
H	-1.5616935737	-1.4978943911	-2.025887454	 0.104755
H	-0.9986055816	-2.7299379857	-0.8951361938	 0.102159
H	-2.3296704217	-0.1347435187	-0.1114114876	 0.076761
H	-1.9213997755	-0.853684535	 2.2461291822	 0.079736
H	-0.5069579825	-2.8205030532	 2.8293433646	 0.102181
H	-0.5728137511	-3.3127980808	 1.1169167715	 0.106491
H	 0.6582022174	 0.2103222322	 2.1517698312	 0.071004
51.5234	222.6253	247.0387	262.7043	312.8852	361.6051	463.0034	468.2228	590.3728	648.2945	722.0565	771.9142	814.7513	836.9995	883.3393	916.806	931.791	945.5953	963.9069	1005.7448	1025.2488	1030.2751	1071.9842	1116.4343	1124.0649	1151.4964	1163.863	1190.7077	1207.1535	1216.0455	1241.5476	1243.4298	1266.5601	1285.8767	1308.512	1314.8991	1356.5166	1374.0757	1456.5575	1484.6049	1526.3214	3017.188	3051.1129	3065.4999	3069.2017	3074.008	3105.0382	3114.1789	3121.9905	3137.9265	3781.0786
OC12CCC1C1COC21	O[C@]12CC[C@H]1[C@H]1CO[C@@H]21	
InChI=1S/C7H10O2/c8-7-2-1-5(7)4-3-9-6(4)7/h4-6,8H,1-3H2	InChI=1S/C7H10O2/c8-7-2-1-5(7)4-3-9-6(4)7/h4-6,8H,1-3H2/t4-,5+,6-,7-/m1/s1
