22
gdb 7966	3.17431	1.54816	1.09776	0.1439	85.76	-0.2145	0.039	0.2534	1166.2272	0.19968	-313.107591	-313.098416	-313.097472	-313.140908	34.435	
C	-0.720218223	 1.2960911645	-0.022652825	-0.402531
C	 0.1838498776	 0.0649885478	 0.0116657189	 0.048879
C	 1.2090787908	-0.0192615495	-1.1456350958	-0.302076
C	 2.4041360045	-0.7200694636	-0.5316798936	 0.230333
C	 3.5078596627	-1.2288587243	-1.406034586	-0.498197
C	 2.3173467284	-0.7465284254	 0.8059243082	 0.230326
C	 3.3001982389	-1.2920824153	 1.794832494	-0.498194
C	 1.0512094862	-0.0673762108	 1.2874809235	-0.30207
H	-0.1289247231	 2.2176578622	 0.0339369243	 0.110626
H	-1.3082142523	 1.3351216969	-0.9462190502	 0.109607
H	-1.4226913275	 1.3002365753	 0.8180324876	 0.109607
H	-0.4471069106	-0.8308186086	-0.0469892211	 0.072285
H	 0.8100615541	-0.546437431	-2.021823184	 0.091185
H	 1.4945932464	 0.9837881731	-1.5016401664	 0.092958
H	 3.9443417607	-0.4156569895	-2.0014752565	 0.121404
H	 4.3161877283	-1.6961506419	-0.8382978065	 0.11938
H	 3.1315331366	-1.9677994001	-2.1256712039	 0.120777
H	 4.1759666454	-1.7393546421	 1.3183237747	 0.11938
H	 3.6545533306	-0.5038715199	 2.4727173864	 0.121409
H	 2.8357882552	-2.0572846937	 2.4306881113	 0.120771
H	 1.2857707563	 0.9201436118	 1.7166109701	 0.092957
H	 0.5437085637	-0.6276354557	 2.08333702	 0.091184
85.7033	150.7567	168.9937	178.6022	241.8889	269.329	283.4065	288.8507	411.4647	419.6292	511.9909	534.329	588.9176	737.9387	845.6158	905.8726	910.982	914.8478	961.9245	987.753	999.4699	1055.1935	1080.243	1097.4611	1124.0624	1155.2353	1194.045	1194.8071	1236.8873	1239.1413	1308.3234	1336.234	1350.7112	1373.9184	1409.4378	1412.0967	1420.459	1477.7134	1482.0476	1483.5037	1490.1872	1492.5028	1494.5266	1498.7533	1501.8739	1743.1598	2977.208	2978.3359	3010.5873	3012.0192	3014.3894	3023.5614	3031.8867	3040.7351	3052.656	3052.9523	3090.5298	3091.7641	3107.0479	3114.9831
CC1CC(C)=C(C)C1	C[C@H]1CC(=C(C)C1)C	
InChI=1S/C8H14/c1-6-4-7(2)8(3)5-6/h6H,4-5H2,1-3H3	InChI=1S/C8H14/c1-6-4-7(2)8(3)5-6/h6H,4-5H2,1-3H3
