18
gdb 44423	3.3865	1.46999	1.44564	3.1496	77.43	-0.2243	-0.0133	0.211	977.9419	0.149088	-401.871563	-401.864695	-401.863751	-401.902611	28.447	
O	 0.0154802698	-0.0340403357	-0.2825352693	-0.283235
C	-0.0546018508	 1.1295042785	-0.0642010326	 0.336212
C	-1.253211785	 2.1597070767	 0.2072307844	-0.313925
N	-0.2227309043	 2.8991907749	 0.9680290848	-0.085775
C	 0.5983963037	 4.1646677041	 0.9689554204	-0.019153
C	 1.8287210595	 3.1712908061	 1.1209052179	-0.300225
C	 0.8793670381	 2.3498183652	 0.1827859445	 0.150943
C	 0.9727265908	 3.2240432473	-1.137797086	-0.252591
C	 0.6981074394	 4.6128489874	-0.5019323709	-0.214432
H	-1.6354656125	 2.5906719998	-0.7281792471	 0.11578
H	-2.0861951829	 1.8002988683	 0.8156299073	 0.12904
H	 0.3644001306	 4.9051457031	 1.733467887	 0.082908
H	 2.7962311895	 3.5033360002	 0.7379748782	 0.09994
H	 1.8980871162	 2.7555220625	 2.1241055653	 0.124412
H	 1.9639433803	 3.1337175728	-1.5872219561	 0.10919
H	 0.2400085268	 2.9440889697	-1.8972872911	 0.10565
H	-0.2318064962	 5.0688109291	-0.8517091684	 0.105679
H	 1.5071037671	 5.33023789	-0.6631468984	 0.109581
119.5828	210.1953	302.5859	350.4792	451.6694	483.6314	537.3519	595.4461	602.3251	684.106	758.1385	794.8351	831.7914	846.9659	886.6795	903.779	937.5518	955.002	977.9188	984.531	1019.9388	1086.3941	1098.4151	1104.4181	1124.634	1148.4059	1160.7642	1186.4496	1215.9456	1239.2189	1241.0473	1259.6571	1295.4109	1307.5585	1472.8445	1481.0498	1492.838	1518.6107	1919.8339	3008.9824	3061.3405	3077.1141	3081.0846	3101.3425	3104.6691	3123.2647	3124.9837	3171.1569
O=C1CN2C3CC12CC3	O=C1CN2[C@H]3C[C@@]12CC3	
InChI=1S/C7H9NO/c9-6-4-8-5-1-2-7(6,8)3-5/h5H,1-4H2	InChI=1S/C7H9NO/c9-6-4-8-5-1-2-7(6,8)3-5/h5H,1-4H2/t5-,7+/m1/s1
