18
gdb 45098	2.71938	1.74703	1.2589	3.6901	75.4	-0.2254	-0.0162	0.2092	1007.3703	0.149691	-401.927836	-401.920682	-401.919738	-401.959313	28.931	
O	-0.0383594813	 0.7006336674	-1.4765289016	-0.328012
C	 0.0562338438	 1.3969412433	-0.4900318012	 0.408079
C	-1.1563629086	 1.6541811585	 0.4133999824	-0.28157
N	-1.3135279291	 3.0488874636	 0.8490462479	-0.092444
C	-0.9687226594	 3.4230792703	 2.2181573784	-0.253312
C	-0.1018674171	 3.8423533574	 1.0826830999	-0.019652
C	 1.2591523213	 3.2568779408	 0.8213764645	-0.030952
C	 1.7306279532	 1.9593094554	 1.389540676	-0.316854
C	 1.3388367772	 2.0272323039	-0.0831533972	-0.128503
H	-2.0394310885	 1.3567132515	-0.1576045136	 0.136924
H	-1.0835222537	 0.9680556948	 1.2714618737	 0.115728
H	-1.6412837541	 4.1319989516	 2.6945856319	 0.118642
H	-0.5851033799	 2.6515587778	 2.8839763716	 0.108523
H	-0.1924082578	 4.8660672838	 0.7234281353	 0.09697
H	 2.0278204946	 4.0038759125	 0.6514294258	 0.102046
H	 2.7881182161	 1.8555907539	 1.6030464397	 0.130687
H	 1.0896887591	 1.3999095535	 2.0606131126	 0.125012
H	 2.1252473541	 1.95697421	-0.8247225962	 0.108688
101.1191	199.4187	245.0943	366.0568	424.2266	438.1091	456.0979	530.3951	575.3454	654.9856	729.5839	764.7842	831.1131	841.0395	881.4533	924.307	941.3725	962.9208	1020.299	1040.443	1062.4029	1073.9128	1095.1501	1123.0942	1124.9194	1128.3001	1165.507	1213.3325	1220.631	1262.5558	1323.8654	1330.8149	1365.0452	1407.1114	1414.8015	1478.1277	1491.1004	1517.0566	1800.2296	2987.8632	3089.8938	3092.6114	3111.5348	3145.356	3159.2236	3174.2883	3190.063	3229.8766
O=C1CN2CC2C2CC12	O=C1CN2C[C@H]2[C@H]2C[C@@H]12	
InChI=1S/C7H9NO/c9-7-3-8-2-6(8)4-1-5(4)7/h4-6H,1-3H2	InChI=1S/C7H9NO/c9-7-3-8-2-6(8)4-1-5(4)7/h4-6H,1-3H2/t4-,5+,6-,8?/m0/s1
