24
gdb 10779	2.47935	1.8545	1.40227	0.1352	84.15	-0.2694	0.07	0.3394	1060.8972	0.222769	-314.273009	-314.263404	-314.26246	-314.306211	36.952	
C	 0.0507379405	 1.6460919398	-0.2378640045	-0.402843
C	 0.174581128	 0.1265568967	-0.1296264463	-0.012645
C	 1.1115500378	-0.5805156169	-1.1665306494	 0.035304
C	 1.4471997879	 0.0953600266	-2.4900708441	-0.415168
C	 2.2058331968	-0.7410341358	-0.0575759056	-0.012643
C	 3.3943217678	 0.2179988512	-0.1193006285	-0.402839
C	 1.1001964022	-0.426639995	 1.0062565154	 0.035303
C	 1.4225905577	 0.4292590388	 2.2247485163	-0.415167
H	 1.0193048336	 2.1537043431	-0.2687458745	 0.115543
H	-0.494016568	 1.9272721228	-1.145645955	 0.111608
H	-0.5031983446	 2.0519656191	 0.6155424476	 0.111609
H	-0.8384136984	-0.2902831681	-0.1053921339	 0.057234
H	 0.696243995	-1.5709408063	-1.38492888	 0.06548
H	 1.8692001073	 1.095370587	-2.3552017895	 0.113335
H	 2.1756194044	-0.4956662574	-3.056755996	 0.110273
H	 0.5524384868	 0.1971224216	-3.1146317216	 0.11027
H	 2.6021756574	-1.7598119587	 0.0166381577	 0.057232
H	 3.0945185488	 1.2673317391	-0.195210368	 0.115542
H	 4.0181211555	 0.120886912	 0.7758690513	 0.111608
H	 4.0273118468	-0.003876838	-0.9853112556	 0.111608
H	 0.681936159	-1.3767151209	 1.3577299959	 0.06548
H	 1.8469797425	 1.400474089	 1.9546931124	 0.113335
H	 0.5214239764	 0.6176099741	 2.8192731095	 0.11027
H	 2.144437329	-0.0756031036	 2.8767344062	 0.110272
100.9511	211.475	219.8051	230.6272	231.1601	231.9237	248.6058	253.4351	255.9434	412.8576	431.2376	472.9016	515.3814	709.6054	744.231	758.2859	788.3274	858.4903	973.6383	978.9186	979.3999	1014.7437	1030.2462	1037.5992	1055.6072	1074.7513	1170.6363	1181.7945	1190.9914	1198.9628	1206.1406	1277.7877	1291.9829	1295.0166	1348.9697	1369.3359	1379.9481	1385.9201	1405.3912	1408.9743	1415.0908	1423.419	1485.2527	1487.0652	1490.2541	1492.3961	1505.8204	1507.1507	1509.0064	1510.8426	3015.7198	3025.6577	3027.4974	3028.522	3031.0325	3031.4717	3034.226	3049.975	3085.2268	3086.5761	3092.6267	3093.1615	3100.2043	3102.6341	3106.9718	3114.5267
CC1C(C)C(C)C1C	C[C@H]1[C@@H](C)[C@@H](C)[C@H]1C	
InChI=1S/C8H16/c1-5-6(2)8(4)7(5)3/h5-8H,1-4H3	InChI=1S/C8H16/c1-5-6(2)8(4)7(5)3/h5-8H,1-4H3/t5-,6+,7-,8+
