18
gdb 110917	2.57827	1.38333	1.13077	4.682	73.74	-0.2342	0.0264	0.2606	1139.3767	0.147012	-439.050918	-439.042333	-439.041389	-439.084736	31.065	
C	-0.2823062465	 0.796443384	-0.2425332913	-0.238719
O	 0.7446327797	-0.1800347197	-0.2397546615	-0.234765
C	 1.0246135611	-0.6781132933	 1.0208623632	 0.129157
C	 0.1959290492	-1.7593634573	 1.6774337027	-0.160689
C	-0.327301838	-2.7513528755	 0.6253529493	-0.183001
N	 1.0588545372	-2.9547172552	 0.1663952074	-0.040809
C	 1.4547905584	-3.1313484054	-1.1271583325	 0.147156
O	 0.7370689762	-3.5440261738	-2.0107064765	-0.322529
C	 1.6195615451	-2.0412648163	 1.151676583	-0.103839
H	 0.0079509788	 1.6854411139	 0.3365830534	 0.110234
H	-0.4436727527	 1.0856667115	-1.2826733798	 0.138972
H	-1.218351223	 0.3990645989	 0.1732149064	 0.115265
H	 1.4244059594	 0.0532845854	 1.7277160137	 0.095886
H	-0.1466360855	-1.7021296019	 2.7015016974	 0.104397
H	-0.7577172169	-3.6595286318	 1.055409009	 0.124787
H	-0.9909276968	-2.3572029747	-0.1486377607	 0.134535
H	 2.5308622004	-2.8993451227	-1.2636083836	 0.070692
H	 2.543195914	-2.2666363062	 1.6717336604	 0.11327
60.0218	103.4767	164.4061	197.6689	220.6366	251.031	294.4142	377.3914	529.3058	573.9109	635.2735	750.2054	772.5935	827.5325	907.4639	943.038	968.9485	990.8451	1034.224	1040.3986	1064.4828	1093.1885	1113.8681	1164.0092	1173.3171	1184.0586	1198.9799	1247.2688	1265.9098	1303.1384	1327.2161	1378.5457	1422.8665	1431.9361	1485.3618	1487.9473	1501.2871	1507.9365	1800.3748	2927.7013	2989.9768	3044.83	3060.2791	3079.2791	3112.0241	3130.4998	3180.3543	3211.3397
COC1C2CN(C=O)C12	CO[C@H]1[C@H]2CN(C=O)[C@@H]12	
InChI=1S/C6H9NO2/c1-9-6-4-2-7(3-8)5(4)6/h3-6H,2H2,1H3	InChI=1S/C6H9NO2/c1-9-6-4-2-7(3-8)5(4)6/h3-6H,2H2,1H3/t4-,5+,6-/m0/s1
