20
gdb 115971	2.46834	1.30484	0.89719	0.7504	76.97	-0.2445	0.0266	0.2711	1310.8731	0.171378	-440.310363	-440.301234	-440.30029	-440.344403	33.903	
C	-0.0311160719	 1.4279532026	 0.2142272664	-0.452826
C	-0.0588730931	-0.0568587486	 0.0008629875	 0.398155
N	-0.0304764518	-0.5742643925	-1.1546965864	-0.301827
C	-0.0087228658	-2.026326726	-1.2822343456	-0.164875
C	 0.4398247179	-2.7450301105	-0.0053705026	-0.246588
C	-0.2985655885	-2.1404968693	 1.1797614548	 0.114136
C	 0.1731863268	-2.6278656049	 2.5435567378	-0.071539
O	-0.5365011007	-2.0138832644	 3.5984935781	-0.423541
O	-0.1127738424	-0.7088850792	 1.2028216069	-0.294104
H	 0.8216348425	 1.7042182346	 0.8429431378	 0.135626
H	 0.0428312624	 1.9327973206	-0.7478853061	 0.146533
H	-0.9367571183	 1.7557250667	 0.7350053633	 0.135572
H	-1.0114346976	-2.3653875333	-1.5769867704	 0.111271
H	 0.6527529132	-2.2813596791	-2.1175298902	 0.111178
H	 0.240352623	-3.8200787146	-0.064423341	 0.106651
H	 1.5193045871	-2.615334917	 0.1381150601	 0.110845
H	-1.3780981951	-2.3268969925	 1.0914282319	 0.092228
H	-0.00183242	-3.7057727585	 2.6240373918	 0.110883
H	 1.2583953473	-2.4535867815	 2.6266686823	 0.09094
H	-0.470410995	-1.0636274727	 3.4497860636	 0.291283
92.079	108.2635	141.481	162.4104	208.9396	270.7175	333.6756	393.2368	423.6662	465.9796	512.182	527.829	609.0699	656.6865	808.269	888.7721	898.2143	928.7782	970.835	1012.8807	1059.4147	1065.2815	1088.7128	1105.0724	1128.4985	1151.8354	1214.5787	1229.8774	1245.6681	1268.4571	1312.1144	1368.28	1370.79	1392.4632	1399.1699	1413.6159	1439.501	1474.8113	1477.7532	1478.3147	1493.3887	1498.0613	1756.7861	2975.1043	3011.2903	3015.5602	3035.2692	3046.1804	3057.9914	3077.7968	3088.1163	3102.5516	3167.8892	3802.2078
CC1=NCCC(CO)O1	CC1=NCC[C@@H](CO)O1	
InChI=1S/C6H11NO2/c1-5-7-3-2-6(4-8)9-5/h6,8H,2-4H2,1H3	InChI=1S/C6H11NO2/c1-5-7-3-2-6(4-8)9-5/h6,8H,2-4H2,1H3/t6-/m0/s1
