19
gdb 62214	4.35169	0.65175	0.58646	1.3878	79.36	-0.2559	-0.0254	0.2305	1840.3698	0.154506	-422.987975	-422.97731	-422.976366	-423.024999	36.581	
C	-0.1179865344	 1.6631227754	-0.08794262	-0.403522
C	 0.0453526728	 0.1399649633	 0.0694597682	-0.104761
C	-1.2875252045	-0.5974061236	 0.1345985015	-0.040216
O	-1.9863284243	-0.1307528455	 1.2728784449	-0.254951
C	-3.2539906543	-0.7417835805	 1.4152990945	-0.205699
C	-3.9257520797	-0.2254947393	 2.6004800482	 0.278023
C	-4.5015776424	 0.1833229664	 3.571531496	-0.413139
C	 0.9261455007	-0.4065860554	-1.0331111218	 0.153461
O	 0.6264056897	-1.3045742334	-1.7791159833	-0.246914
H	 0.8534633301	 2.1671287005	-0.1010022657	 0.119338
H	-0.6391635951	 1.9054623895	-1.0204521962	 0.125557
H	-0.7038156318	 2.0580339901	 0.7436243676	 0.151634
H	 0.5859475126	-0.0405034462	 1.0116943636	 0.111703
H	-1.8684958506	-0.4130058766	-0.7837919942	 0.099234
H	-1.1201192941	-1.6831803266	 0.1946441847	 0.105453
H	-3.8755600241	-0.5523158131	 0.5233944112	 0.121105
H	-3.1469155299	-1.8370327513	 1.4961035267	 0.121671
H	-5.0066286894	 0.5477205974	 4.4317443696	 0.201447
H	 1.9134088685	 0.1040477788	-1.1204797254	 0.080576
38.454	82.5934	93.3145	104.466	133.3363	173.6375	216.8357	266.7589	331.3258	335.0593	389.2185	431.0027	538.9179	609.1229	677.2127	686.5548	817.1443	920.849	922.8279	945.2175	978.1718	1026.9161	1032.7285	1110.2093	1147.1805	1154.184	1180.4435	1254.6091	1266.5955	1302.9794	1328.3651	1385.9858	1399.892	1425.2656	1450.5464	1490.982	1498.1962	1508.1006	1518.7538	1825.0133	2248.7199	2863.7195	2954.3559	2973.4214	2975.3922	2998.2812	3016.8468	3039.4846	3104.6187	3140.4256	3505.8929
CC(COCC#C)C=O	C[C@@H](COCC#C)C=O	
InChI=1S/C7H10O2/c1-3-4-9-6-7(2)5-8/h1,5,7H,4,6H2,2H3	InChI=1S/C7H10O2/c1-3-4-9-6-7(2)5-8/h1,5,7H,4,6H2,2H3/t7-/m1/s1
