25
gdb 122931	4.20917	0.495	0.46166	2.8641	91.62	-0.2439	-0.0172	0.2267	2438.407	0.225887	-389.517417	-389.505581	-389.504636	-389.556462	40.98	
C	 0.0408867267	 1.6320191532	 0.0603066889	-0.379925
C	-0.0019290476	 0.1024910831	 0.0077987941	-0.165349
C	 0.7062601067	-0.4782421987	-1.2210143368	-0.160012
C	 0.6707108732	-2.0097708038	-1.2780537402	-0.188759
C	 1.3856418796	-2.5749284854	-2.5120640223	-0.197703
C	 1.4561370886	-4.1187042478	-2.5611638775	-0.060729
C	 0.0739027346	-4.7818359697	-2.6889566142	-0.409069
C	 2.3112726807	-4.5213471358	-3.7461496162	 0.159792
O	 3.3827353332	-5.0662653083	-3.6825793868	-0.250938
H	 1.0732060487	 1.9983009144	 0.0876478741	 0.114515
H	-0.4412442667	 2.0723001732	-0.819703516	 0.113522
H	-0.4718745866	 2.0163617577	 0.9475340436	 0.11192
H	 0.4565698944	-0.3087434637	 0.9168974809	 0.095442
H	-1.0465866089	-0.2359736956	 0.0168675988	 0.093952
H	 0.2466429116	-0.0691296704	-2.1317243112	 0.092333
H	 1.7511799734	-0.1382425553	-1.2322853315	 0.094597
H	 1.1374567902	-2.4185918059	-0.3714173049	 0.097858
H	-0.3740875965	-2.3436579127	-1.2612604968	 0.098534
H	 0.8912929936	-2.2071136792	-3.4223590245	 0.096855
H	 2.4089806017	-2.178424976	-2.5377596845	 0.108189
H	 1.9665978027	-4.4861921481	-1.6638079961	 0.092767
H	 0.1620495674	-5.8718549519	-2.7306636723	 0.127945
H	-0.5637101327	-4.5325820786	-1.8373514063	 0.129954
H	-0.4387257343	-4.449831825	-3.5994194149	 0.119687
H	 1.8621212761	-4.2572977797	-4.7352637574	 0.064621
37.502	46.1869	62.1922	96.5504	124.4162	133.2197	207.6237	229.8627	246.9218	258.1963	339.5028	356.5459	393.5337	467.9571	570.8135	732.0828	756.1559	829.9661	874.2294	899.8969	919.1806	947.9511	963.8347	1011.3516	1035.9889	1055.6256	1067.8416	1094.9769	1141.179	1162.7142	1190.2165	1233.2434	1252.3958	1293.4033	1301.2854	1330.704	1330.9736	1349.443	1360.8084	1391.2125	1399.5297	1407.9824	1413.2629	1428.9778	1481.3064	1484.0855	1490.9459	1498.2874	1499.4652	1502.7836	1506.3261	1514.4395	1835.6047	2829.8015	3002.5569	3006.1489	3012.3259	3020.4538	3026.8269	3029.3704	3034.0554	3037.4543	3047.7171	3055.8703	3070.6223	3095.3746	3101.3455	3101.8498	3120.3714
CCCCCC(C)C=O	CCCCC[C@@H](C)C=O	
InChI=1S/C8H16O/c1-3-4-5-6-8(2)7-9/h7-8H,3-6H2,1-2H3	InChI=1S/C8H16O/c1-3-4-5-6-8(2)7-9/h7-8H,3-6H2,1-2H3/t8-/m1/s1
