17
gdb 43837	3.0685	1.51266	1.17096	4.238	73.74	-0.2291	0.0212	0.2503	1053.4995	0.137666	-418.002386	-417.994967	-417.994022	-418.034189	29.539	
O	 0.0094764012	-0.0200734379	-0.102998957	-0.38668
C	 0.0118647303	 1.1886000988	-0.0329415719	 0.449427
N	-1.0876449588	 2.001407806	 0.0984049393	-0.395057
C	-0.8217498676	 3.4164149181	 0.0652271473	 0.43197
C	-1.7029484035	 4.3639331655	-0.7055043628	-0.326938
C	-1.6751129484	 4.3987019197	 0.811699221	-0.315234
C	 0.6809202917	 3.5061817558	 0.0055484177	-0.134864
N	 1.3330875387	 2.8983564063	 1.1793935574	-0.33343
C	 1.2042148803	 2.1213836189	-0.0844566602	-0.175405
H	-1.995335382	 1.609799345	 0.292243547	 0.251524
H	-1.2310584294	 5.1751485232	-1.2511024636	 0.118583
H	-2.5828827668	 3.9530200264	-1.1888529982	 0.119407
H	-2.5405750628	 4.0142578637	 1.3415025261	 0.119375
H	-1.1844616944	 5.2283251941	 1.3089591916	 0.125864
H	 1.1439335929	 4.3440678879	-0.503094142	 0.10142
H	 2.2893937384	 3.2440567618	 1.2381387929	 0.23755
H	 2.0860198902	 1.8251278768	-0.6379425045	 0.112488
98.6155	171.4433	253.1646	276.8878	381.1157	438.2459	457.6367	500.5154	555.3987	627.9152	748.7695	759.8506	829.0828	851.4433	871.6073	880.6919	902.0657	939.1152	941.0555	963.5961	988.3957	1058.1681	1061.3711	1073.6242	1125.32	1146.4993	1185.025	1244.2588	1258.5145	1274.568	1342.9617	1365.1719	1390.2212	1457.6592	1461.3696	1508.9359	1834.793	3126.0392	3132.0639	3177.4873	3204.1925	3207.9423	3222.908	3485.701	3647.077
O=C1NC2(CC2)C2NC12	O=C1NC2(CC2)[C@H]2N[C@@H]12	
InChI=1S/C6H8N2O/c9-5-3-4(7-3)6(8-5)1-2-6/h3-4,7H,1-2H2,(H,8,9)	InChI=1S/C6H8N2O/c9-5-3-4(7-3)6(8-5)1-2-6/h3-4,7H,1-2H2,(H,8,9)/t3-,4+/m1/s1
