19
gdb 71241	2.7197	1.82627	1.67639	0.6571	73.7	-0.2378	0.0673	0.3051	910.6462	0.161323	-422.993304	-422.986406	-422.985462	-423.023949	29.484	
O	-0.0494266326	 1.4055100755	-0.0588417564	-0.490687
C	-0.0034487294	 0.0062359411	 0.0284096446	 0.368691
C	 0.3114095027	-0.6977667796	 1.3813019056	-0.295958
C	-0.7524029636	-1.7249168579	 0.9637259299	-0.04535
C	-0.3830417018	-2.4878970567	-0.3732261091	 0.10599
C	-1.5679174007	-1.7671825266	-1.0763637985	-0.263242
C	-1.418145409	-0.6854947727	 0.0080401317	-0.064316
O	 0.8688877945	-2.0520852448	-0.883917165	-0.266839
C	 0.8852920603	-0.6340209854	-1.044497649	-0.141114
H	 0.8447651114	 1.7480910536	 0.0533423985	 0.277037
H	 1.3378844342	-1.0341615875	 1.5555930419	 0.096978
H	-0.0403079449	-0.0973640748	 2.2252499898	 0.102459
H	-1.3077197307	-2.3017801531	 1.7036040551	 0.067106
H	-0.3496947209	-3.5779900003	-0.3592487627	 0.079123
H	-1.4556562705	-1.5171979611	-2.1352998531	 0.102069
H	-2.5018343788	-2.3198836165	-0.9376878795	 0.102096
H	-2.2378025299	-0.0271168331	 0.296525647	 0.072875
H	 0.5417741526	-0.3389814262	-2.0462671872	 0.100658
H	 1.928174667	-0.3112417637	-0.9326253938	 0.092423
241.5491	273.3044	292.6182	335.9777	403.6432	440.5482	444.2527	501.2008	584.4429	634.7669	718.5502	774.1759	826.3911	864.1545	887.0449	912.3096	944.5592	961.0471	983.8818	996.7523	1022.9528	1053.2937	1062.2068	1109.4316	1120.0827	1150.0911	1182.0764	1204.1334	1211.2314	1231.9248	1246.1261	1261.8192	1264.7507	1297.697	1302.4777	1352.7557	1359.934	1402.1795	1475.2878	1485.0351	1520.8509	2999.6703	3045.7596	3047.7185	3052.7649	3099.5229	3103.9641	3107.5385	3108.7838	3116.4758	3792.9884
OC12CC3C(CC13)OC2	O[C@@]12C[C@@H]3[C@@H](C[C@H]13)OC2	
InChI=1S/C7H10O2/c8-7-2-4-5(7)1-6(4)9-3-7/h4-6,8H,1-3H2	InChI=1S/C7H10O2/c8-7-2-4-5(7)1-6(4)9-3-7/h4-6,8H,1-3H2/t4-,5-,6+,7+/m0/s1
