17
gdb 21067	3.4253	1.99916	1.28665	3.174	72.1	-0.1997	0.0395	0.2392	948.0914	0.143204	-360.06761	-360.059041	-360.058097	-360.10065	30.4	
C	-0.0150847322	 1.4228123682	-0.0232765258	-0.332602
N	-0.0275894349	-0.0199094051	 0.0170371031	 0.014547
N	-0.0631984894	-0.7410425637	-1.1321415211	-0.289657
C	-0.0561156425	-2.0053538507	-0.7258844871	-0.071416
C	 0.0086013615	-2.1305293552	 0.6794861929	 0.139695
C	 0.0402613159	-3.3723719021	 1.5153264536	-0.520961
C	 0.0324651475	-0.8145002566	 1.1187500786	 0.276822
N	 0.0305894836	-0.2616726522	 2.4073134533	-0.61146
H	 1.0040623211	 1.8271918585	 0.0236228425	 0.126914
H	-0.4715201833	 1.7351093662	-0.9626262707	 0.157662
H	-0.5916809642	 1.8149162303	 0.8187208977	 0.146063
H	-0.0899929368	-2.8006829658	-1.4579697812	 0.100165
H	 0.6647703401	-3.243663974	 2.4083557557	 0.108105
H	-0.955403711	-3.6806387466	 1.8598476567	 0.126127
H	 0.4580731063	-4.2117876965	 0.9514004084	 0.129843
H	-0.0137300538	-0.9841827509	 3.1144469675	 0.251302
H	 0.8367375021	 0.3254468562	 2.5941554356	 0.248851
87.1894	108.6171	138.1122	206.279	245.9614	269.3194	281.0942	307.2978	499.8001	586.1657	645.9581	680.2127	734.0939	775.0882	799.567	871.6878	997.4662	1003.2518	1053.2935	1064.7157	1151.0598	1220.3265	1223.8794	1253.8019	1327.4851	1391.9181	1424.4184	1434.1627	1457.1888	1487.0253	1490.2741	1499.5069	1509.2628	1559.1831	1617.7197	1662.361	3011.3719	3021.7111	3055.8793	3097.2707	3098.4762	3157.0922	3228.7684	3511.7183	3612.2516
CN1N=CC(C)=C1N	Cn1ncc(C)c1N	
InChI=1S/C5H9N3/c1-4-3-7-8(2)5(4)6/h3H,6H2,1-2H3	InChI=1S/C5H9N3/c1-4-3-7-8(2)5(4)6/h3H,6H2,1-2H3
