15
gdb 113291	2.55583	1.18872	0.90664	2.6313	69.84	-0.2678	-0.0571	0.2108	1255.8048	0.108227	-457.697689	-457.688261	-457.687317	-457.73244	33.189	
O	 0.1608563051	 1.2207002029	-0.4082487579	-0.412529
C	 0.156169316	-0.1057572958	 0.0953870107	-0.114065
C	-1.2679573254	-0.5743471949	 0.2845809196	 0.00039
O	-1.9664924598	-0.9860539395	-0.8808399605	-0.264307
C	-1.7371417219	-1.9896872743	 0.1159975063	 0.098525
C	-0.754310813	-3.0833111365	-0.2571054832	 0.08568
O	 0.0400829207	-3.0000871478	-1.1541561045	-0.238941
C	-2.884434231	-2.4488071991	 0.8583006543	 0.243928
C	-3.8154876415	-2.8844132413	 1.4808953432	-0.38085
H	-0.1838240364	 1.1855199449	-1.3073568845	 0.297163
H	 0.6989159327	-0.7961142816	-0.5573066772	 0.13495
H	 0.6590321637	-0.0676145964	 1.0675612966	 0.119045
H	-1.8639005413	 0.0335200649	 0.9672003876	 0.117851
H	-0.8361247103	-3.9855694484	 0.3837274522	 0.104175
H	-4.6479461178	-3.2526062471	 2.0290808575	 0.208984
61.8403	113.4379	123.6108	142.4653	179.1658	246.896	277.6899	368.027	394.0151	449.8902	520.4845	549.458	599.4348	628.957	683.9528	740.7463	856.6458	881.7416	983.682	1036.2996	1047.076	1075.7661	1103.595	1193.0459	1228.3796	1306.8045	1367.5105	1411.7611	1419.4718	1455.2586	1494.5782	1831.6592	2238.9272	2923.8661	3049.5783	3098.1128	3115.5619	3497.7863	3809.1492
OCC1OC1(C=O)C#C	OC[C@H]1O[C@]1(C=O)C#C	
InChI=1S/C6H6O3/c1-2-6(4-8)5(3-7)9-6/h1,4-5,7H,3H2	InChI=1S/C6H6O3/c1-2-6(4-8)5(3-7)9-6/h1,4-5,7H,3H2/t5-,6+/m1/s1
