20
gdb 123107	3.91141	0.62001	0.56777	2.6626	73.9	-0.2566	0.0586	0.3152	1979.3914	0.168802	-477.46069	-477.44995	-477.449006	-477.498921	36.815	
C	-0.0163331268	 1.5103642822	-0.0698891103	-0.384059
C	 0.0836377962	-0.0042575409	-0.0088844506	-0.026073
O	 0.6835279368	-0.4646203008	-1.2026267359	-0.240124
C	 0.8200381087	-1.8641454294	-1.2521250084	-0.069691
C	 1.4954180615	-2.2560042124	-2.5468825482	-0.064508
O	 2.8594559286	-1.8213093554	-2.4863221376	-0.255554
C	 3.619521062	-2.1737479287	-3.5513925537	 0.497899
N	 4.9002525688	-1.7249377947	-3.3752188321	-0.562815
O	 3.2273920507	-2.8190584627	-4.4952593269	-0.398737
H	 0.9770247445	 1.9558910568	-0.1738478329	 0.126887
H	-0.6218016721	 1.8205153971	-0.9262148383	 0.127538
H	-0.4786332049	 1.8991639381	 0.8422811208	 0.114734
H	 0.6825259627	-0.3184434508	 0.8629598403	 0.086322
H	-0.9171861413	-0.4538552525	 0.1118221881	 0.084744
H	 1.4111004256	-2.2332611503	-0.3975811246	 0.095119
H	-0.1665121402	-2.3576678569	-1.2093277446	 0.088635
H	 1.4594215193	-3.3408185183	-2.6856782034	 0.120949
H	 0.995573923	-1.7852130082	-3.3988557311	 0.127233
H	 5.0629843163	-1.000405455	-2.6963134969	 0.264295
H	 5.4841328607	-1.7380838473	-4.1937846738	 0.267206
17.8794	50.3059	70.4719	125.4216	144.4399	201.521	219.0155	246.6292	296.7823	379.6451	427.8783	467.5236	510.045	519.0859	671.9882	785.0193	821.0731	841.1081	869.7442	948.0803	1015.7577	1065.427	1100.6886	1119.721	1134.9744	1162.5045	1175.3018	1191.8657	1260.162	1296.3157	1300.7166	1342.4651	1389.603	1406.7537	1420.6142	1456.5845	1483.2194	1498.51	1501.0986	1504.1773	1535.0321	1613.0877	1834.1729	2947.5529	2960.0345	2975.5151	2989.1604	3045.4275	3057.0744	3104.9261	3120.075	3122.1119	3611.3465	3739.8361
CCOCCOC(N)=O	CCOCCOC(=O)N	
InChI=1S/C5H11NO3/c1-2-8-3-4-9-5(6)7/h2-4H2,1H3,(H2,6,7)	InChI=1S/C5H11NO3/c1-2-8-3-4-9-5(6)7/h2-4H2,1H3,(H2,6,7)
