19
gdb 114504	2.64238	1.31319	1.02443	1.4995	75.31	-0.2389	-0.0223	0.2166	1194.3301	0.158614	-423.010847	-423.002231	-423.001287	-423.044763	32.264	
O	-0.0505912428	 1.3733764122	-0.3071634412	-0.424785
C	 0.0430849859	-0.037881027	-0.1721618529	-0.099138
C	-1.3642501943	-0.558683179	 0.0475334092	 0.039209
C	-2.3698581186	-0.5221072463	-1.142441496	-0.245751
C	-2.6635402134	-2.0369300981	-0.9614882712	-0.025065
C	-1.8073759779	-2.973054383	-1.8561669013	-0.356684
C	-0.7129868906	-2.9465690991	-0.7701933843	 0.415785
O	 0.3817869634	-3.4253215371	-0.6857708938	-0.308412
C	-1.5748545165	-2.1014260145	 0.1808078457	-0.195056
H	 0.8288565213	 1.7171048886	-0.4891252712	 0.288547
H	 0.4822595557	-0.4951090495	-1.072568238	 0.090567
H	 0.6819589233	-0.3232720621	 0.6790914172	 0.096344
H	-1.7812569199	-0.0509301772	 0.9216010573	 0.091949
H	-3.2276761788	 0.132207855	-0.9781133421	 0.109732
H	-1.925784092	-0.2595900674	-2.1074122009	 0.102257
H	-3.6984810906	-2.3316934448	-0.7968163273	 0.075934
H	-2.2234122172	-3.9823931375	-1.9550395622	 0.132095
H	-1.5242457079	-2.6193097821	-2.8520749266	 0.124109
H	-1.7238764792	-2.5051575512	 1.1836475398	 0.088364
59.6652	97.7365	102.4012	223.0144	269.2162	342.0266	377.1209	415.0317	437.7418	542.1105	596.738	710.3577	764.8729	816.4488	852.4596	870.9815	910.8633	944.9536	969.6438	1025.9406	1040.0618	1058.8042	1077.6326	1091.5727	1129.7981	1133.9356	1171.9907	1188.2701	1214.9135	1231.7586	1248.974	1275.6749	1280.1844	1297.545	1304.7935	1361.693	1432.1967	1462.7106	1485.9205	1516.6026	1879.0516	2969.769	2998.653	3043.7784	3058.8402	3067.819	3097.3232	3101.5025	3113.5245	3128.7353	3830.0896
OCC1CC2CC(=O)C12	OC[C@H]1C[C@H]2CC(=O)[C@@H]12	
InChI=1S/C7H10O2/c8-3-5-1-4-2-6(9)7(4)5/h4-5,7-8H,1-3H2	InChI=1S/C7H10O2/c8-3-5-1-4-2-6(9)7(4)5/h4-5,7-8H,1-3H2/t4-,5+,7+/m0/s1
