18
gdb 91866	3.21768	1.25728	1.11196	3.591	72.62	-0.2389	-0.0239	0.215	1125.6883	0.147745	-439.075669	-439.06754	-439.066596	-439.108278	31.258	
O	-0.6204240274	 1.1798957097	 0.8759037926	-0.424027
C	-0.1473757217	 0.1023984826	 0.066375046	 0.071441
C	 0.8298313276	-0.8331448649	 0.81957284	-0.179815
N	 0.0659135641	-1.9250273644	 1.4520364295	-0.137627
C	-1.0904235709	-1.4921249115	 2.2271338095	-0.287137
C	-1.2799493751	-1.9077952881	 0.7983931829	 0.227369
C	-1.3462782447	-0.8087826284	-0.2483642183	-0.285746
C	-1.8574128513	-3.2427159945	 0.4993867031	 0.092299
O	-2.5322599023	-3.4869239514	-0.4704858214	-0.264312
H	 0.1326729604	 1.7351403455	 1.1027238781	 0.284639
H	 0.3102720476	 0.4995136359	-0.8494321992	 0.07857
H	 1.5307294285	-1.2934297293	 0.1143016596	 0.115316
H	 1.4156570883	-0.2952382672	 1.5729546875	 0.104707
H	-1.3745742046	-2.1764272381	 3.0230201253	 0.119133
H	-1.2265495077	-0.4363822582	 2.4387303991	 0.147783
H	-2.2766261219	-0.2376605621	-0.2224201684	 0.131168
H	-1.2575707736	-1.2567808774	-1.2417616516	 0.125499
H	-1.6077175853	-4.0209880984	 1.2539474657	 0.080739
92.902	161.8248	180.0119	240.6768	312.4266	358.1761	399.3099	416.84	434.558	483.5006	657.0182	725.5228	772.4584	780.6249	828.8741	898.3491	913.3267	957.9726	971.0623	1000.43	1029.0575	1063.4018	1088.5238	1129.7495	1172.9919	1198.621	1209.5962	1253.5891	1284.031	1306.5488	1327.0515	1359.2286	1370.492	1415.9416	1430.1549	1476.0113	1483.3743	1497.2952	1816.1231	2893.3408	3009.1172	3039.641	3075.6391	3083.476	3107.4745	3122.3696	3208.6557	3815.3625
OC1CN2CC2(C1)C=O	O[C@H]1CN2C[C@]2(C1)C=O	
InChI=1S/C6H9NO2/c8-4-6-1-5(9)2-7(6)3-6/h4-5,9H,1-3H2	InChI=1S/C6H9NO2/c8-4-6-1-5(9)2-7(6)3-6/h4-5,9H,1-3H2/t5-,6-,7?/m1/s1
