23
gdb 115800	3.87162	1.04615	0.93837	1.4643	86.14	-0.2459	0.0917	0.3376	1377.3776	0.205807	-388.29967	-388.290367	-388.289422	-388.333407	35.859	
C	 0.0092339954	 1.5347434131	-0.1001258795	-0.380273
C	 0.0262340946	 0.0065646416	-0.0018287425	-0.185402
C	-1.3693532302	-0.6036481515	 0.0704351012	 0.132736
O	-2.0915945752	-0.2468594631	-1.1143615825	-0.271913
C	-3.1327249497	-1.1951648028	-1.3070693753	-0.136225
C	-2.6125791472	-2.5184686745	-0.7591824095	 0.325252
C	-3.6056649389	-3.5991074488	-0.4129805143	-0.48843
C	-1.2019954785	-2.8461462015	-1.1836488002	-0.332642
C	-1.4489728587	-2.1221304024	 0.1199599648	-0.109303
H	 1.0251797279	 1.9379859156	-0.1518563546	 0.106666
H	-0.5346273268	 1.8564520378	-0.9917821084	 0.135565
H	-0.4829728201	 1.9814434501	 0.7712726653	 0.108834
H	 0.5507028736	-0.4217328119	-0.863695749	 0.099909
H	 0.5786753165	-0.3070273664	 0.8929063951	 0.091743
H	-1.891194103	-0.1975605608	 0.9569089608	 0.057844
H	-4.0453951767	-0.9024522817	-0.7594220238	 0.083743
H	-3.3677155445	-1.2119870688	-2.3774207505	 0.102677
H	-4.1192977167	-3.9719010383	-1.3072618014	 0.119488
H	-3.1109354537	-4.4530839901	 0.0597317373	 0.117874
H	-4.3715848463	-3.229961451	 0.2794278979	 0.116144
H	-0.8962630429	-3.8852030479	-1.1208918553	 0.10528
H	-0.7635491866	-2.2933005287	-2.0084865379	 0.118583
H	-1.2534728824	-2.624039848	 1.0610682723	 0.081849
86.3549	127.7746	172.3275	205.8797	220.8491	237.4177	296.1158	346.1673	375.7093	431.3521	499.5937	574.899	674.1665	731.0195	771.2341	861.6979	868.231	917.7032	931.043	943.8515	954.7826	992.5437	1036.4385	1051.4588	1055.6536	1071.7275	1078.1743	1114.4971	1130.8833	1146.8399	1167.5496	1238.9537	1269.3942	1288.3178	1301.3284	1322.3864	1352.1985	1356.8212	1405.9384	1409.5333	1415.1118	1426.3456	1475.688	1486.583	1489.9254	1497.1587	1502.2363	1508.9161	1515.5131	2926.1827	2954.4086	3021.3769	3028.6712	3035.2306	3056.4094	3068.0689	3078.2561	3099.5087	3099.6846	3124.8048	3125.2124	3172.5136	3212.2386
CCC1OCC2(C)CC12	CC[C@H]1OC[C@@]2(C)C[C@@H]12	
InChI=1S/C8H14O/c1-3-7-6-4-8(6,2)5-9-7/h6-7H,3-5H2,1-2H3	InChI=1S/C8H14O/c1-3-7-6-4-8(6,2)5-9-7/h6-7H,3-5H2,1-2H3/t6-,7+,8+/m0/s1
