15
gdb 16117	4.32626	1.72189	1.50131	5.0868	65.6	-0.2544	0.0171	0.2715	854.5433	0.120375	-362.662378	-362.655673	-362.654728	-362.693191	25.599	
N	 0.2223974158	-1.1784897252	-0.2389958094	-0.34222
C	 0.1548693834	-0.0383267203	-0.0593969269	 0.239431
C	 0.0902004475	 1.3853313925	 0.126848102	 0.320401
C	 0.1597876561	 2.3259456644	-1.0623432063	-0.346964
C	 1.2837967717	 2.3028358319	-0.0521769888	-0.110456
C	 1.2109310652	 3.2587614245	 1.1265863295	-0.241144
C	-0.2376930498	 3.0868567421	 1.6323419394	-0.102723
O	-0.6630891603	 1.7756271578	 1.242514553	-0.292798
H	 0.3558866835	 1.8802923855	-2.0305313923	 0.142968
H	-0.5374965526	 3.1566133919	-1.0779603573	 0.133156
H	 2.2444383286	 1.9036584149	-0.3524197879	 0.120638
H	 1.9343326859	 2.9486724338	 1.8866357102	 0.124279
H	 1.4234876115	 4.2980343632	 0.8604265316	 0.118606
H	-0.3329066163	 3.1546161546	 2.7184764096	 0.12624
H	-0.9009954001	 3.8384827885	 1.1852053536	 0.110586
136.9601	168.5815	215.3041	325.1632	408.3944	507.6562	554.7805	600.2157	664.0075	710.1734	819.2001	860.6495	883.2521	928.7579	938.5708	976.6378	1023.2398	1048.7909	1075.3467	1100.4101	1130.4271	1220.8903	1221.1641	1236.2975	1276.5679	1328.035	1375.5655	1398.1214	1473.8178	1494.0939	1527.9027	2359.7385	3019.171	3057.211	3096.0667	3108.309	3140.9239	3195.5984	3232.4676
N#CC12CC1CCO2	N#C[C@]12C[C@H]1CCO2	
InChI=1S/C6H7NO/c7-4-6-3-5(6)1-2-8-6/h5H,1-3H2	InChI=1S/C6H7NO/c7-4-6-3-5(6)1-2-8-6/h5H,1-3H2/t5-,6-/m1/s1
