18
gdb 14106	3.062	1.69977	1.45784	1.4162	68.24	-0.2471	0.0759	0.323	939.8072	0.153064	-384.904806	-384.896711	-384.895766	-384.937035	31.	
O	-0.1783658059	 1.3765404774	-0.2210080829	-0.422709
C	-0.1044567115	-0.0085761518	-0.0432312746	 0.040653
C	-0.5208319712	-0.6317291262	 1.2691502606	-0.407038
C	-1.4032735016	-0.744645529	 0.0568929728	 0.300572
C	-2.7731435214	-0.1169524902	-0.2195144092	-0.298186
C	-2.9504336989	-1.1383166954	-1.382774566	-0.255274
C	-1.7692397437	-1.9678519834	-0.7995352761	 0.081597
O	-0.8091780427	-2.5248454667	-1.662009399	-0.42955
H	 0.5265023311	 1.7810449583	 0.2950881436	 0.289115
H	 0.7039470822	-0.5012467512	-0.5861119099	 0.084434
H	 0.0143315532	-1.5120427387	 1.6130827368	 0.114604
H	-0.8482388679	 0.0453446844	 2.0526999929	 0.111523
H	-3.4848264364	-0.2781481878	 0.5954060705	 0.102014
H	-2.7680515788	 0.9417074209	-0.4830942706	 0.120797
H	-3.9148658728	-1.6401806349	-1.4848272362	 0.100312
H	-2.6779708174	-0.7012513205	-2.3490573036	 0.098004
H	-2.1240877926	-2.7994383166	-0.181674421	 0.090473
H	-0.5033146638	-1.8237752686	-2.2481670383	 0.278658
94.4938	144.8128	202.587	226.878	282.9645	343.116	393.1027	449.2097	495.6869	543.9198	557.7129	712.3552	780.0065	819.2595	872.6368	891.1411	936.3334	954.1124	1012.0601	1032.7652	1060.9782	1089.5102	1117.6226	1135.9039	1168.9495	1184.5132	1220.7445	1235.1743	1262.7007	1272.2709	1297.377	1315.1117	1342.0313	1421.3428	1431.6132	1475.6334	1490.354	1498.2073	3051.1259	3057.085	3061.167	3085.0286	3111.6125	3115.7387	3126.311	3205.2796	3800.2361	3808.5338
OC1CC11CCC1O	O[C@H]1C[C@]21CC[C@H]2O	
InChI=1S/C6H10O2/c7-4-1-2-6(4)3-5(6)8/h4-5,7-8H,1-3H2	InChI=1S/C6H10O2/c7-4-1-2-6(4)3-5(6)8/h4-5,7-8H,1-3H2/t4-,5+,6-/m1/s1
