21
gdb 92801	2.81398	1.64474	1.30794	0.4425	87.98	-0.2198	0.023	0.2427	1058.7885	0.18436	-349.912993	-349.905317	-349.904373	-349.944738	31.602	
C	-0.0464003244	 1.6257338586	-0.0695703862	-0.393208
C	 0.0071392674	 0.0959650288	-0.0217564363	-0.031588
C	 0.981090873	-0.4866431686	-1.1192342559	-0.250241
C	 2.3169241183	-0.6763069145	-0.3954264048	-0.256596
C	 2.0870780579	-0.6816432442	 0.9126611447	 0.340131
C	 2.5393243262	-0.3602407233	 2.3106913342	-0.187329
C	 2.1783753097	 1.0899391735	 2.5532497225	-0.266613
C	 1.0800563388	 0.0691064279	 2.6339470408	-0.102502
C	 0.6358875853	-0.5089375978	 1.2578361554	-0.026396
H	 0.9553759939	 2.0658973224	-0.0556821753	 0.119644
H	-0.5383700381	 1.9628252791	-0.9882996917	 0.108525
H	-0.6046712119	 2.0326479281	 0.7796518806	 0.113147
H	-1.0066750724	-0.287704204	-0.1787709599	 0.062109
H	 0.5973383904	-1.4350031499	-1.5222025028	 0.099136
H	 1.0741658571	 0.1934254838	-1.9749983216	 0.096788
H	 3.2661609595	-0.7400837824	-0.9146154743	 0.089261
H	 3.2582795039	-0.8846101926	 2.927079315	 0.094654
H	 2.4961577761	 1.4811240202	 3.5158151515	 0.110705
H	 2.240255066	 1.8075879153	 1.7427739066	 0.116303
H	 0.5383469675	-0.0869611087	 3.5592069939	 0.084764
H	 0.1838713959	-1.4896481919	 1.4634390937	 0.079305
110.6018	184.9292	260.6176	262.9176	301.5322	357.9141	449.0414	538.4364	628.8432	662.6955	723.5659	740.3885	784.0708	817.9789	838.4548	886.0204	901.5233	913.0844	938.12	956.6479	985.5884	1017.6432	1024.5693	1054.7106	1071.1189	1087.1017	1093.681	1109.3382	1133.6393	1168.3094	1190.6932	1218.1803	1238.2257	1265.7083	1286.4885	1315.1749	1337.7882	1353.1257	1375.8153	1409.0911	1481.5153	1485.6831	1495.3376	1505.7779	1735.8786	2996.5939	3000.6627	3032.2611	3044.0055	3047.5024	3096.8055	3107.361	3125.0547	3179.2522	3192.6295	3195.7283	3209.4297
CC1CC=C2C3CC3C12	C[C@H]1C[CH][C]2[C@H]3C[C@H]3[C@@H]12	
InChI=1S/C9H12/c1-5-2-3-6-7-4-8(7)9(5)6/h3,5,7-9H,2,4H2,1H3	InChI=1S/C9H12/c1-5-2-3-6-7-4-8(7)9(5)6/h3,5,7-9H,2,4H2,1H3/t5-,7+,8+,9-/m0/s1
