18
gdb 79775	3.04263	2.05321	1.81873	1.2398	73.95	-0.1905	0.0465	0.2369	843.2707	0.149401	-401.848431	-401.841997	-401.841053	-401.878962	26.916	
C	-0.2303161808	 1.544523091	-0.0018081353	-0.337086
N	 0.140464982	 0.1370561237	 0.034661284	-0.034251
C	 1.0611168781	-0.4978107516	-0.9124137783	-0.054677
C	 2.5699557579	 0.013372995	-0.7405260201	 0.081201
O	 2.626440585	 1.0391937033	 0.275929805	-0.289076
C	 2.3752905032	 0.0140094895	 1.2631437203	 0.081222
C	 2.8267605569	-1.1161637464	 0.2960726051	-0.116221
C	 1.3565374751	-1.6037240007	 0.1533886759	-0.067629
C	 0.8615594433	-0.4971098189	 1.1416730924	-0.054676
H	 0.6071972742	 2.2446312205	 0.0775242347	 0.13004
H	-0.7650263303	 1.7361858609	-0.9394587493	 0.113602
H	-0.9323430466	 1.7374877509	 0.8177889445	 0.113641
H	 0.6957431604	-0.6620159907	-1.9292478041	 0.064943
H	 3.167623151	 0.2457774891	-1.6234992481	 0.076355
H	 2.7918175068	 0.2470040953	 2.2445112325	 0.076352
H	 3.7310330646	-1.713317134	 0.3841075443	 0.075195
H	 0.982232289	-2.6226804788	 0.1173733034	 0.076124
H	 0.3072267002	-0.6606438282	 2.0692432833	 0.06494
136.5248	240.3557	246.0624	408.9868	532.664	606.7319	659.152	672.9674	751.4545	765.6324	786.8996	819.2681	843.0442	862.0969	869.439	913.5287	945.4856	973.5793	993.6239	1014.8259	1070.7544	1084.3997	1133.0381	1139.7544	1154.9595	1161.8259	1172.6141	1181.3012	1217.5663	1234.1795	1249.6062	1257.3815	1277.9344	1282.2012	1317.5321	1336.5729	1438.7585	1474.2266	1524.4176	3017.7964	3071.6894	3072.7644	3083.5497	3089.7778	3096.6306	3098.1041	3139.9589	3158.0267
CN1C2C3OC4C3C2C14	CN1[C@H]2[C@H]3O[C@@H]4[C@H]3[C@H]2[C@H]14	
InChI=1S/C7H9NO/c1-8-4-2-3-6(4)9-7(3)5(2)8/h2-7H,1H3	InChI=1S/C7H9NO/c1-8-4-2-3-6(4)9-7(3)5(2)8/h2-7H,1H3/t2-,3+,4-,5+,6+,7-
