17
gdb 30762	2.17766	1.0337	0.70415	2.4297	77.32	-0.2132	-0.0767	0.1365	1571.8642	0.131821	-455.153188	-455.141821	-455.140877	-455.192255	38.314	
N	 0.0978065816	 1.2951322137	 0.4147680877	-0.608798
C	 0.4265898021	-0.0374920379	 0.2240944946	 0.147308
C	 0.4027073168	-1.1100613033	 1.0403488055	-0.06553
O	 0.888528652	-2.2740961399	 0.4616638255	-0.237206
C	 1.266854193	-1.9558951409	-0.8233456164	 0.331704
C	 1.7904709749	-2.8288068535	-1.6756654211	-0.396485
N	 0.4518051885	-4.1089143591	 3.135025464	-0.726904
H	 0.6949848772	-3.8179228977	 2.1914420655	 0.260559
H	-0.5301703735	-3.879270125	 3.261497926	 0.230728
H	 0.9696641746	-3.501092633	 3.7638600851	 0.232093
C	 0.981136235	-0.5054546348	-1.0553232633	 0.241342
O	 1.1502810179	 0.1423628006	-2.0710870477	-0.353253
H	 0.0160607438	 1.7764239965	-0.4730974531	 0.262512
H	-0.6976037776	 1.4722332202	 1.0110390934	 0.251734
H	 0.0720175146	-1.2384194811	 2.0597405812	 0.134498
H	 1.960941152	-3.8652062866	-1.4131655254	 0.141686
H	 2.0535219872	-2.4808531483	-2.6667296815	 0.154013
15.3508	36.5984	80.7699	95.1757	122.4039	184.783	249.3042	268.9499	272.6881	284.8244	313.904	365.384	508.8987	556.1946	575.4663	677.5922	731.5404	744.2933	775.4535	817.6075	846.8899	912.3474	935.2692	1015.9927	1078.6965	1134.1704	1135.7669	1216.4919	1342.4742	1398.9658	1417.9424	1634.1406	1679.8764	1688.0167	1702.2629	1734.3855	1786.0798	3175.256	3256.7508	3273.9024	3465.1889	3537.4883	3585.9497	3588.6203	3642.7788
NC1=COC(C[NH3+])=C1[O-]	NC1=COC(=C)C1=O.N	
InChI=1S/C5H8N2O2/c6-1-4-5(8)3(7)2-9-4/h2,8H,1,6-7H2	InChI=1S/C5H5NO2.H3N/c1-3-5(7)4(6)2-8-3;/h2H,1,6H2;1H3
