23
gdb 63157	2.94031	1.28603	1.18491	0.2399	91.67	-0.2235	0.0239	0.2473	1205.0861	0.206984	-351.167343	-351.158466	-351.157522	-351.200199	35.465	
C	-0.1141871556	 1.5586401992	 0.0183723375	-0.45779
C	-0.0144672715	 0.046463383	 0.0031445479	 0.327105
C	-1.2293305417	-0.6455229191	 0.5946098975	-0.452326
C	 0.6841119719	-0.6763875986	-1.1386210677	-0.078892
C	 1.3795938127	 0.0650149998	-2.2798458789	-0.23841
C	 2.9142078797	 0.1031547789	-2.121781257	-0.246698
C	 3.3355328693	 0.4448981585	-0.7119832265	-0.05624
C	 2.6052983593	 0.1116807893	 0.3543959937	-0.075321
C	 1.330468991	-0.6370834525	 0.2319184861	-0.11506
H	 0.8196844093	 2.0425584612	-0.2743680849	 0.122639
H	-0.9066689439	 1.9084899817	-0.6545950683	 0.109675
H	-0.3631962541	 1.9118791924	 1.0260305828	 0.109341
H	-2.1399918986	-0.382827239	 0.0424291606	 0.111773
H	-1.1254971194	-1.7348730279	 0.5650728455	 0.109909
H	-1.3816816611	-0.3526487736	 1.640502148	 0.111465
H	 0.2328622698	-1.6231518819	-1.4215874862	 0.073106
H	 1.1198195791	-0.407036099	-3.2330409849	 0.093103
H	 1.0127235206	 1.0947078484	-2.3445264438	 0.103692
H	 3.3424629191	-0.871460912	-2.399392616	 0.108916
H	 3.3407528983	 0.8242429485	-2.8283871071	 0.096733
H	 4.280832478	 0.9657522911	-0.5814704532	 0.083137
H	 2.9477192744	 0.3684389999	 1.354587652	 0.081148
H	 1.2821216834	-1.5453990084	 0.829717783	 0.078995
108.1652	173.6521	203.1006	203.9141	251.9536	288.9428	340.1648	367.2717	461.0886	480.3303	504.955	538.1758	688.6034	728.4053	751.7617	794.2127	847.7028	878.0389	968.032	970.3015	975.7152	978.8672	986.9331	999.7178	1022.8089	1053.5174	1083.3862	1110.1288	1146.8347	1154.6765	1186.011	1217.036	1244.7455	1270.209	1323.366	1334.4802	1348.0832	1384.0449	1409.6286	1416.7764	1425.1193	1433.756	1479.0812	1483.0869	1489.9916	1494.9836	1506.6781	1510.8702	1707.3196	2997.9783	3016.3999	3023.6337	3039.4484	3054.734	3073.9238	3075.9957	3076.96	3094.3654	3113.1132	3121.7394	3136.6511	3139.2266	3164.8474
CC1(C)C2CCC=CC12	CC1(C)[C@H]2CCC=C[C@@H]12	
InChI=1S/C9H14/c1-9(2)7-5-3-4-6-8(7)9/h3,5,7-8H,4,6H2,1-2H3	InChI=1S/C9H14/c1-9(2)7-5-3-4-6-8(7)9/h3,5,7-8H,4,6H2,1-2H3/t7-,8+/m1/s1
