18
gdb 38495	3.41719	1.68292	1.58758	1.8726	73.07	-0.2154	0.0475	0.2629	908.3482	0.149822	-401.857252	-401.850676	-401.849732	-401.887738	27.802	
C	 0.0291268825	 1.5331098394	-0.0162818604	-0.254367
C	 1.2692479387	 0.7196652932	 0.0270973141	-0.095272
N	-0.086470687	 0.0692252733	 0.0266397025	-0.1016
C	-0.2785015218	-0.5714828311	-1.3122981352	-0.261174
C	 1.0083776816	-0.3882034088	-2.0998883708	 0.371309
C	 1.5540870816	 0.901616405	-2.6137894154	-0.383846
C	 1.9886137685	 0.3902404836	-1.2469692407	 0.137094
C	 2.8815523351	-0.8420966105	-1.4331995853	-0.135965
O	 1.9182222781	-1.4783162762	-2.3241761819	-0.318044
H	-0.3140698176	 2.042235575	 0.8811575943	 0.118762
H	-0.2283375866	 2.0552849259	-0.9344535844	 0.11012
H	 1.8273702245	 0.6446601239	 0.9558370821	 0.095469
H	-0.440881479	-1.6414512926	-1.1583700285	 0.131153
H	-1.1658805972	-0.1574811633	-1.8011873794	 0.112643
H	 2.2691118262	 0.8684003966	-3.4311071537	 0.124513
H	 0.8939234163	 1.7597599463	-2.6283048639	 0.126592
H	 3.8539512683	-0.6964217717	-1.9178002219	 0.108128
H	 3.0091819576	-1.4257573681	-0.5143468314	 0.114484
205.4996	227.3913	314.2872	387.9595	433.9116	454.8623	547.4159	636.7297	666.4056	728.1407	768.3899	786.6869	833.4821	853.1421	916.5593	937.7842	946.787	956.5144	989.2042	1013.1484	1021.4326	1067.8223	1089.9902	1119.1297	1129.6306	1153.632	1169.979	1201.4183	1231.8682	1255.2843	1264.2263	1313.2001	1336.1242	1375.7303	1395.4881	1471.2971	1489.0241	1512.3362	1516.1842	3022.1845	3056.3434	3073.9379	3101.3242	3105.5728	3127.8943	3151.0143	3178.4068	3229.3056
C1C2N1CC13CC21CO3	C1[C@H]2N1C[C@@]13C[C@@]21CO3	
InChI=1S/C7H9NO/c1-5-6-2-7(6,9-4-6)3-8(1)5/h5H,1-4H2	InChI=1S/C7H9NO/c1-5-6-2-7(6,9-4-6)3-8(1)5/h5H,1-4H2/t5-,6-,7+,8?/m1/s1
