14
gdb 129117	5.12243	1.37554	1.09182	2.1717	69.4	-0.2307	-0.0133	0.2174	1017.9462	0.105009	-429.079984	-429.073118	-429.072174	-429.111783	25.482	
N	-0.1156580952	 1.2354328355	 0.0017260965	-0.53068
C	-0.0068179937	-0.024837579	-0.0030388962	 0.391042
C	-1.2284077151	-0.9706062976	 0.0376387391	-0.248255
N	-0.5741640476	-2.2595139301	 0.013907136	 0.018668
N	-0.9514017388	-3.5695342245	 0.0256454861	-0.26836
C	 0.2290983478	-4.168091327	-0.0148097393	 0.028889
N	 1.3390057238	-3.3489962218	-0.0516229682	-0.395725
C	 0.7618637767	-2.1718338303	-0.0310889617	 0.512449
N	 1.1318166714	-0.8409273668	-0.0421568405	-0.469243
H	 0.7890504992	 1.7061669352	-0.0284089314	 0.220463
H	-1.813109452	-0.8114372536	 0.9477263837	 0.16661
H	-1.8740428522	-0.8095073731	-0.8298931277	 0.166616
H	 0.3112201189	-5.2444501621	-0.0188197394	 0.130029
H	 2.0800285669	-0.5089129148	-0.0741654669	 0.277497
62.9198	139.0183	257.7196	349.6615	350.4463	524.5351	545.0853	572.6846	659.7516	751.3929	771.2161	850.827	855.1207	864.0621	890.5618	984.4779	1014.4247	1068.9749	1149.5654	1183.5783	1194.842	1262.3513	1272.0841	1315.446	1331.843	1351.0239	1455.3288	1490.6019	1552.9466	1641.4472	1774.4667	3066.8947	3110.5132	3265.6392	3478.8853	3683.3503
N=C1CN2N=CN=C2N1	[NH][C]1Cn2ncnc2N1	
InChI=1S/C4H5N5/c5-3-1-9-4(8-3)6-2-7-9/h2H,1H2,(H2,5,6,7,8)	InChI=1S/C4H5N5/c5-3-1-9-4(8-3)6-2-7-9/h2H,1H2,(H2,5,6,7,8)
