21
gdb 103255	2.37369	1.38881	1.11793	3.3157	83.34	-0.2367	-0.0084	0.2283	1203.8866	0.181129	-387.090443	-387.081196	-387.080252	-387.124549	35.275	
C	 0.122293714	 1.3210929207	 0.4529114067	-0.382236
C	-0.0445833971	-0.0482566552	-0.2188749154	-0.259252
C	-1.4477169526	-0.6336170728	-0.0849410514	 0.339364
C	-2.5121564245	 0.1371381191	-0.8562795408	-0.460025
C	-1.7214187776	-2.0991308284	 0.0239395195	-0.112663
C	-0.6250121911	-2.8614540953	 0.780974477	-0.381933
C	-0.9114517271	-1.9313142219	 1.9913879926	 0.407346
O	-0.5457766729	-1.9431772322	 3.1334004502	-0.320462
C	-1.9738720218	-1.1741256572	 1.2536613957	-0.218997
H	 1.1521464723	 1.676112505	 0.3510957511	 0.115959
H	-0.5308754471	 2.0788832488	 0.0097915593	 0.116655
H	-0.1076600153	 1.2613443183	 1.5215449964	 0.132358
H	 0.191579565	 0.0341540438	-1.2883412453	 0.095811
H	 0.6971861559	-0.732751415	 0.2015724221	 0.108523
H	-2.2596645077	 0.1692194269	-1.9221145801	 0.121438
H	-3.4954818719	-0.3318826553	-0.7567391027	 0.118223
H	-2.5991673613	 1.1685874372	-0.502366123	 0.127959
H	-2.4866980992	-2.5787344673	-0.5739191386	 0.097622
H	-0.924305157	-3.8820637721	 1.0398522569	 0.130861
H	 0.3830168502	-2.8872124748	 0.360007378	 0.121335
H	-2.8951269932	-0.7929954124	 1.6787455918	 0.102114
48.0795	109.3863	184.9024	216.8044	229.3473	268.0543	292.5549	356.859	446.4964	451.7338	504.7859	559.9793	634.3838	683.099	789.0767	822.7707	836.9893	865.7243	902.3133	958.2813	986.9189	1003.8863	1015.1026	1025.193	1050.7181	1065.8479	1087.5374	1125.2114	1133.7982	1186.389	1224.1196	1265.7324	1284.8429	1311.4601	1356.7873	1404.5272	1410.9426	1418.4222	1463.3777	1482.7459	1494.0637	1501.7246	1507.6272	1510.9745	1875.1243	3020.4598	3033.3931	3039.9031	3058.9362	3082.7054	3099.105	3107.8939	3109.3916	3110.3056	3115.1277	3182.1043	3192.4618
CCC1(C)C2CC(=O)C12	CC[C@@]1(C)[C@H]2CC(=O)[C@@H]12	
InChI=1S/C8H12O/c1-3-8(2)5-4-6(9)7(5)8/h5,7H,3-4H2,1-2H3	InChI=1S/C8H12O/c1-3-8(2)5-4-6(9)7(5)8/h5,7H,3-4H2,1-2H3/t5-,7-,8-/m0/s1
