19
gdb 38501	3.03442	1.77494	1.60615	2.4633	77.88	-0.2147	0.0779	0.2925	923.4105	0.162992	-381.999598	-381.992878	-381.991934	-382.030271	28.52	
C	 0.0051148842	 1.579554053	 0.0308707108	-0.266685
C	 1.5767264484	 1.5660297274	 0.1227103116	-0.269725
C	 1.5306982002	 0.0410262633	-0.077052289	 0.275687
N	 0.7089437998	-0.5308198333	 1.0114550711	-0.406399
C	 0.0433291854	 0.0541457813	-0.1707476861	 0.260948
C	-0.4521215785	-0.8681778656	-1.2718933066	-0.327017
C	 0.8584395945	-1.4432250742	-1.8365711916	-0.022546
N	 1.7028558713	-0.4150864669	-2.4812815336	-0.331964
C	 2.0553205646	-0.8819137346	-1.1227035351	-0.181876
H	-0.5407737362	 1.9279488645	 0.9108060885	 0.10247
H	-0.3499966174	 2.1086322478	-0.8560617427	 0.107065
H	 2.0423492186	 2.0798057946	-0.7195189465	 0.114932
H	 2.0209604861	 1.9072438199	 1.0604331232	 0.101646
H	 0.7088409913	-1.5444194331	 0.9042014902	 0.224809
H	-1.1206467669	-1.6601501142	-0.9124272459	 0.098901
H	-0.9898769883	-0.3093900105	-2.0448496135	 0.116148
H	 0.8757586652	-2.4493192274	-2.2455862871	 0.086592
H	 2.3180958972	-0.8620083368	-3.1576149402	 0.231147
H	 2.9612165506	-1.4684131953	-0.9908854677	 0.085867
162.7458	213.3109	317.0256	379.5842	458.9678	474.9445	518.7574	638.3029	673.676	734.5135	768.352	792.2155	815.3201	842.8801	866.8583	907.4984	931.5734	946.0477	963.0609	969.7572	1030.2721	1056.8531	1079.9337	1114.0962	1116.8446	1149.6167	1163.1538	1187.4497	1219.7638	1231.7269	1236.4103	1238.518	1293.8241	1322.8336	1359.1583	1375.0221	1379.7984	1425.3184	1461.2118	1481.5635	1487.3687	3026.997	3063.3169	3072.3361	3077.073	3118.5845	3134.4753	3138.9783	3154.1601	3479.5119	3493.6635
C1CC23NC12CC1NC31	C1C[C@@]23N[C@@]12C[C@H]1N[C@@H]31	
InChI=1S/C7H10N2/c1-2-7-5-4(8-5)3-6(1,7)9-7/h4-5,8-9H,1-3H2	InChI=1S/C7H10N2/c1-2-7-5-4(8-5)3-6(1,7)9-7/h4-5,8-9H,1-3H2/t4-,5-,6-,7+/m1/s1
