21
gdb 119616	3.99078	0.99248	0.91542	0.6641	79.14	-0.2255	0.0875	0.313	1373.9174	0.182515	-424.203657	-424.194669	-424.193725	-424.237781	33.433	
C	-0.6572599262	 1.3649083305	-0.7063130244	-0.220575
O	-0.8664143137	-0.0264378316	-0.6849919927	-0.23756
C	-0.6314414759	-0.597642499	 0.5824504963	-0.149804
C	-0.8449277865	-2.0854518429	 0.4897906285	 0.430767
C	-0.4810923566	-2.88803465	-0.7302290355	-0.356925
C	-1.9346804221	-2.7639929257	-0.2869394649	-0.099772
C	-2.4789161377	-3.8403254413	 0.6379552135	-0.241495
C	-1.3845136037	-3.9485983243	 1.7244973853	-0.095198
O	-0.7031734714	-2.6934372842	 1.7517668839	-0.308034
H	-0.8617975381	 1.7106683416	-1.72243693	 0.12716
H	-1.3294556069	 1.8894966428	-0.0091961243	 0.105837
H	 0.3798969252	 1.6253737424	-0.442855976	 0.10664
H	 0.3969507637	-0.3865593738	 0.922131092	 0.09553
H	-1.3166295217	-0.17833448	 1.3384230343	 0.093515
H	-0.2018243518	-2.320615754	-1.6099807646	 0.126654
H	 0.0372185882	-3.833848721	-0.609609929	 0.106896
H	-2.617104932	-2.1972511185	-0.9080522118	 0.09847
H	-3.428623621	-3.5055848018	 1.0688590638	 0.106484
H	-2.6551734936	-4.8034983281	 0.1489091717	 0.103666
H	-1.7787588764	-4.1385021543	 2.7267039273	 0.108585
H	-0.6767087116	-4.7538441971	 1.4841446268	 0.099158
72.7423	81.2966	144.7673	199.7655	219.875	234.5712	333.9375	379.7208	403.892	469.7558	651.8842	682.9838	716.6367	833.8513	847.3567	870.9571	925.5064	937.8908	973.3551	995.2084	1024.3484	1041.2706	1085.7047	1087.7296	1107.3726	1135.9262	1164.8144	1187.2338	1209.4438	1219.3424	1235.6516	1240.1961	1251.798	1283.5999	1321.9232	1388.8069	1398.7509	1436.8627	1479.3751	1483.7505	1485.5946	1496.4159	1504.9563	1527.5016	1528.7431	2953.0945	2974.0507	2982.5412	3005.1602	3017.1999	3043.5166	3079.1381	3091.6161	3114.693	3133.8407	3189.1277	3227.6093
COCC12CC1CCO2	COC[C@]12C[C@H]1CCO2	
InChI=1S/C7H12O2/c1-8-5-7-4-6(7)2-3-9-7/h6H,2-5H2,1H3	InChI=1S/C7H12O2/c1-8-5-7-4-6(7)2-3-9-7/h6H,2-5H2,1H3/t6-,7-/m1/s1
