20
gdb 31242	2.03897	1.48646	0.94397	2.0512	82.92	-0.1903	0.0527	0.2431	1304.3518	0.17072	-403.177155	-403.167468	-403.166524	-403.212403	34.975	
C	 0.21434704	 1.3615293833	 0.3430500502	-0.361514
C	-0.1347922207	 0.0847594694	-0.4401584005	-0.303687
C	-1.5318898306	-0.4051128781	-0.191339692	 0.18651
C	-2.545746002	-0.4750774638	-1.1203325621	 0.260165
N	-3.6807146526	-0.9582707006	-0.5095105785	-0.297303
C	-3.4123655609	-1.1902494451	 0.8191277829	-0.088662
C	-2.097322823	-0.8643155109	 1.0411142013	-0.24208
O	-2.5726956448	-0.1232873087	-2.4326621195	-0.268994
C	-2.2484592709	-1.176841723	-3.3406508213	-0.247147
H	 1.2421756766	 1.6797045981	 0.1390918791	 0.103536
H	-0.4585688376	 2.1805405886	 0.0709808412	 0.118962
H	 0.120037356	 1.2006528548	 1.4217883381	 0.114884
H	-0.0148477699	 0.2771980806	-1.5122676107	 0.099206
H	 0.5911003079	-0.698570571	-0.1835478229	 0.097444
H	-4.5751526594	-1.0367636598	-0.9608892477	 0.259462
H	-4.1749824636	-1.5622796891	 1.4836718667	 0.114685
H	-1.58162337	-0.9452474314	 1.986533827	 0.088549
H	-2.2981079798	-0.7512027244	-4.3452860329	 0.129361
H	-1.2390906183	-1.5617148098	-3.1538192142	 0.124851
H	-2.9633184165	-2.0061508292	-3.2622426642	 0.111771
53.9041	66.0413	143.5133	156.4477	167.6476	202.3453	283.1879	334.8375	404.6247	451.242	504.9218	614.7298	655.5521	664.2691	692.589	758.9479	791.7997	822.4752	907.5591	969.6021	1017.1313	1055.5232	1079.9735	1091.9947	1109.2677	1174.566	1187.2948	1214.4368	1258.1188	1279.3785	1319.956	1364.1796	1407.5311	1427.2881	1454.8747	1482.2925	1484.811	1495.6008	1498.097	1503.4491	1509.4639	1516.7323	1643.2558	3008.2283	3011.9188	3032.8922	3060.0364	3073.4727	3101.7348	3109.7584	3127.074	3237.8574	3269.4186	3683.3771
CCC1=C(NC=C1)OC	CCc1c([nH]cc1)OC	
InChI=1S/C7H11NO/c1-3-6-4-5-8-7(6)9-2/h4-5,8H,3H2,1-2H3	InChI=1S/C7H11NO/c1-3-6-4-5-8-7(6)9-2/h4-5,8H,3H2,1-2H3
