18
gdb 111265	2.86313	1.33592	1.06315	3.2703	73.11	-0.224	0.0075	0.2315	1168.2414	0.146362	-439.070162	-439.061187	-439.060243	-439.104152	33.15	
C	 0.3561068525	 1.5699005483	 0.1644639193	-0.386915
C	-0.0141649775	 0.0840647292	 0.0962677556	-0.159634
N	 0.6526745232	-0.7627977681	 1.0696608867	-0.089221
C	 2.0800597194	-0.885746674	 1.3869489269	-0.107351
C	 2.4706435471	 0.0448773135	 2.5121303234	-0.324728
C	 1.699844066	-1.21943051	 2.8285899535	 0.263313
O	 2.2014344147	-2.1172326775	 3.734634876	-0.444657
C	 0.240292863	-1.0423122322	 2.3726544412	 0.3146
O	-0.8494282049	-1.1007885087	 2.8749759977	-0.365973
H	 1.4287051003	 1.7212290922	 0.0095756761	 0.126101
H	-0.1763750171	 2.1232840245	-0.6154470684	 0.121238
H	 0.0825138608	 2.0008271862	 1.1323813369	 0.130663
H	-1.0857838528	-0.049223752	 0.2756075463	 0.138707
H	 0.1934310354	-0.3052014103	-0.9076256667	 0.109948
H	 2.7647315506	-1.399651166	 0.7256874441	 0.117862
H	 3.5100696628	-0.011736667	 2.8263579727	 0.13146
H	 2.0165130375	 1.026177159	 2.6073976157	 0.125818
H	 1.7864213489	-2.9735660171	 3.5798257529	 0.298768
52.7278	107.2497	163.029	197.2006	255.2061	284.0892	308.6364	335.3753	415.3168	497.8581	546.8046	596.5602	710.3707	762.2847	770.4423	828.7802	887.1237	914.3608	939.0154	947.7097	996.3899	1026.1863	1055.6868	1096.2413	1109.6221	1187.4502	1217.1054	1225.4524	1326.9928	1334.9301	1372.8993	1390.6197	1406.1939	1418.9604	1482.6705	1489.4152	1493.8208	1504.0362	1875.6449	3033.2834	3038.497	3085.3317	3110.7805	3116.0935	3117.9644	3204.3491	3211.3324	3797.2975
CCN1C2CC2(O)C1=O	CCN1[C@H]2C[C@@]2(O)C1=O	
InChI=1S/C6H9NO2/c1-2-7-4-3-6(4,9)5(7)8/h4,9H,2-3H2,1H3	InChI=1S/C6H9NO2/c1-2-7-4-3-6(4,9)5(7)8/h4,9H,2-3H2,1H3/t4-,6-/m0/s1
