23
gdb 111870	2.5466	1.28364	1.17553	1.2603	85.02	-0.2416	0.0785	0.3201	1227.9115	0.208087	-388.287414	-388.278678	-388.277734	-388.32079	34.08	
C	-0.0612336844	 1.5892260996	 0.2076911687	-0.377086
C	-0.0220347501	 0.1268577507	-0.2551047641	-0.208092
C	-1.369319435	-0.5547821136	-0.1115920289	 0.002816
C	-1.5580637454	-2.0599745068	-0.1443939682	-0.078834
C	-0.364678631	-3.0129317014	-0.200813533	-0.228855
C	 0.1614306716	-3.3290168217	 1.2017667351	-0.068539
O	 0.3560875961	-2.1441266134	 1.9572638545	-0.237781
C	-0.8751089526	-1.5325424018	 2.3136451185	-0.105797
C	-1.8048562609	-1.2834451262	 1.1382126497	-0.064716
H	 0.9131753732	 2.0713208191	 0.0804636427	 0.109225
H	-0.7962031262	 2.1677591365	-0.363530229	 0.109646
H	-0.3358044739	 1.6633200662	 1.2653532999	 0.116141
H	 0.2880586053	 0.0913115775	-1.3087264921	 0.088991
H	 0.7369789133	-0.415528386	 0.3142532205	 0.121859
H	-2.1717950567	-0.004663508	-0.6008611384	 0.073849
H	-2.4406085228	-2.4057220811	-0.6732372915	 0.080727
H	-0.6596144412	-3.9470611698	-0.6906512174	 0.095518
H	 0.4465733778	-2.5880358747	-0.8027262678	 0.107449
H	-0.5410526276	-3.9957310164	 1.7298626353	 0.08471
H	 1.1337221638	-3.8288026833	 1.1588306569	 0.102814
H	-1.399706593	-2.1714072744	 3.0453951868	 0.088024
H	-0.606465129	-0.6002555088	 2.8221939171	 0.108054
H	-2.8398867315	-1.1513689322	 1.4421261245	 0.079879
80.0674	120.4938	163.5658	205.449	258.2186	287.3434	350.6043	436.9865	449.668	530.8493	540.8692	719.1461	739.1661	767.2979	803.7571	820.5663	862.4804	916.935	960.4274	977.0653	986.3201	1039.0193	1043.4156	1077.7576	1089.4227	1106.5572	1126.7601	1144.6964	1149.579	1173.8842	1247.853	1252.4681	1271.5057	1298.3782	1321.7917	1336.474	1353.6694	1370.817	1383.824	1401.6608	1411.9812	1421.5589	1457.7475	1482.9782	1491.6263	1497.468	1499.2274	1501.0318	1510.9363	2951.2687	2964.5221	3010.9032	3029.1557	3035.5766	3061.1785	3072.939	3082.7635	3084.2771	3101.3036	3102.218	3115.3217	3135.4824	3151.5318
CCC1C2CCOCC12	CC[C@H]1[C@H]2CCOC[C@@H]12	
InChI=1S/C8H14O/c1-2-6-7-3-4-9-5-8(6)7/h6-8H,2-5H2,1H3	InChI=1S/C8H14O/c1-2-6-7-3-4-9-5-8(6)7/h6-8H,2-5H2,1H3/t6-,7+,8-/m0/s1
