17
gdb 50640	2.81636	1.2329	0.90383	3.0702	69.49	-0.2489	-0.0403	0.2085	1235.6653	0.134954	-458.993281	-458.984911	-458.983967	-459.027131	30.341	
O	-0.8728507266	 1.1407939107	 0.2797418297	-0.237419
C	 0.241251323	 0.7715427446	 0.0221477127	 0.140316
C	 1.4627064759	 1.681514192	 0.0250401495	 0.01048
C	 1.3528677484	 2.8320966922	 1.0427633775	-0.300373
C	 2.6704183902	 3.5908099869	 1.122055771	 0.366014
O	 2.7382572759	 4.7959947788	 1.1025141996	-0.298077
C	 3.8934048974	 2.6881181733	 1.2119592382	-0.300309
C	 3.807185672	 1.5598134771	 0.1685203746	-0.091218
O	 2.5815645508	 0.8543132206	 0.2711486365	-0.258236
H	 0.477598023	-0.2789631983	-0.2535431533	 0.102239
H	 1.5346317371	 2.1115786757	-0.9935418116	 0.104975
H	 0.5401442759	 3.5117294793	 0.7839429043	 0.141993
H	 1.1385360136	 2.3990846822	 2.0281082391	 0.133143
H	 4.7979417321	 3.2870844182	 1.082417148	 0.126302
H	 3.9137772213	 2.2354812016	 2.2116112087	 0.130896
H	 3.9173386897	 1.9774976566	-0.8454538233	 0.10561
H	 4.6008791901	 0.8243211386	 0.3199964889	 0.123665
58.7675	98.5397	129.3357	178.0738	267.7798	377.412	389.048	451.9085	488.4148	506.4216	606.9643	672.3044	770.4142	829.134	847.5517	896.106	950.9393	998.0936	1044.6238	1091.2001	1109.4437	1116.9628	1187.2598	1228.6498	1240.3393	1268.1451	1270.2824	1327.2756	1343.5327	1363.2394	1398.0956	1410.8318	1449.8155	1462.0039	1505.81	1825.5212	1841.9463	2907.6044	2917.8337	2979.0713	3035.4176	3042.7957	3100.0003	3115.6813	3137.4749
O=CC1CC(=O)CCO1	O=C[C@H]1CC(=O)CCO1	
InChI=1S/C6H8O3/c7-4-6-3-5(8)1-2-9-6/h4,6H,1-3H2	InChI=1S/C6H8O3/c7-4-6-3-5(8)1-2-9-6/h4,6H,1-3H2/t6-/m1/s1
