14
gdb 7947	3.75309	1.71416	1.23426	1.0147	57.81	-0.2545	-0.0541	0.2004	911.2687	0.105671	-419.720766	-419.713464	-419.712519	-419.75272	26.973	
O	 0.4098789115	 1.1225257828	 0.6357801676	-0.437309
C	-0.0149146376	-0.0725838373	 0.0507220654	 0.051453
C	-1.5307674224	-0.1812670896	-0.1810912668	-0.342857
C	-1.6891560088	-1.1053329368	-1.3954254172	 0.386854
O	-2.7012876944	-1.6561765794	-1.7322501863	-0.292126
C	-0.3357175108	-1.2096022651	-2.1233932392	-0.434921
C	 0.5610451686	-0.2588237414	-1.3571287255	 0.353304
O	 1.5144332975	 0.3628095068	-1.7557684175	-0.316143
H	 1.1754359075	 1.412704425	 0.1161524454	 0.296155
H	 0.3154768948	-0.9438983062	 0.6473880056	 0.102545
H	-2.1070973748	-0.5395496318	 0.6732428774	 0.143605
H	-1.9193129032	 0.8087559871	-0.4553043051	 0.15354
H	 0.0321173243	-2.2400501224	-2.0352363087	 0.169371
H	-0.4009564623	-0.9797047618	-3.1893785649	 0.166529
69.9156	109.1585	266.4293	336.3723	375.5669	411.2832	457.862	511.0662	530.5428	609.2842	629.6021	746.5081	785.9139	850.6228	904.2387	1002.8372	1081.0753	1122.3685	1150.9491	1172.4991	1199.4325	1224.3752	1239.7851	1281.652	1371.562	1404.0804	1415.7902	1451.1576	1830.6858	1871.4312	2929.738	3040.1527	3046.7874	3118.3203	3126.6891	3708.5895
OC1CC(=O)CC1=O	O[C@H]1CC(=O)CC1=O	
InChI=1S/C5H6O3/c6-3-1-4(7)5(8)2-3/h4,7H,1-2H2	InChI=1S/C5H6O3/c6-3-1-4(7)5(8)2-3/h4,7H,1-2H2/t4-/m0/s1
