15
gdb 24921	5.0077	1.30622	1.04299	3.3281	76.49	-0.1768	-0.0167	0.1601	1081.9003	0.114335	-416.830839	-416.823627	-416.822683	-416.862548	27.896	
N	-0.0652723794	 1.2792823689	-0.0178526273	-0.600122
C	-0.0157096816	 0.0154546076	-0.0298953006	 0.434862
N	-1.110183902	-0.8455091254	-0.048246354	-0.458323
C	-0.6412344165	-2.149240979	 0.0316167981	 0.276441
C	 0.6977849222	-2.0852872627	 0.019265137	 0.298189
O	 1.1325910873	-0.7797532651	-0.0256993209	-0.26074
C	 1.2931971162	-3.4055070363	-0.0167517365	-0.199067
C	 0.2722161669	-4.2931902856	-0.0289379791	-0.090867
C	-1.0786286811	-3.5762335635	-0.0162433835	-0.408189
H	 0.8683692372	 1.6797462318	-0.0028398395	 0.228138
H	-2.0397520242	-0.4974571287	 0.1048732711	 0.274155
H	 2.3503598134	-3.6296596354	-0.0186317893	 0.116356
H	 0.3565753787	-5.370153185	-0.0194992703	 0.107207
H	-1.6868867988	-3.885894041	 0.8431507189	 0.138463
H	-1.6602089484	-3.8115379107	-0.9167888841	 0.143498
93.4811	136.1248	262.8283	318.9871	365.3471	420.1367	535.359	567.0947	628.5569	698.7546	708.5185	729.3384	743.5861	799.5733	895.3963	900.9376	904.2336	923.3673	928.2035	1029.7393	1068.1109	1124.7813	1145.2888	1209.7918	1253.8947	1288.8519	1323.4939	1421.8803	1434.1927	1476.1376	1552.9336	1687.1851	1786.5153	3034.5194	3065.8328	3229.6286	3250.4945	3548.9438	3695.124
N=C1NC2=C(O1)C=CC2	[NH][C@@H]1NC2=C(O1)C=CC2	
InChI=1S/C6H6N2O/c7-6-8-4-2-1-3-5(4)9-6/h1,3H,2H2,(H2,7,8)	InChI=1S/C6H7N2O/c7-6-8-4-2-1-3-5(4)9-6/h1,3,6-8H,2H2/t6-/m1/s1
