19
gdb 70461	3.48456	1.01928	0.91264	5.4696	80.26	-0.2386	0.0426	0.2812	1317.5832	0.159596	-382.050901	-382.042155	-382.041211	-382.084602	32.782	
C	-0.1010584082	 1.5376716898	 0.1345359434	-0.512173
C	 0.1107818137	 0.0591494891	 0.0340525656	 0.321613
N	-0.7827518517	-0.9166357521	 0.707248593	-0.371887
C	 0.6789981404	-0.9415306867	 0.9817525143	-0.099682
C	 1.3029641062	-1.75555001	-0.1527377016	-0.233519
C	 0.7122878268	-0.7077937612	-1.1637189245	-0.031114
C	-0.2859719064	-1.2030972231	-2.2189062009	-0.35958
C	 0.3327887545	-2.0899273653	-3.2008514546	 0.258138
N	 0.8441255641	-2.7875707227	-3.9677371883	-0.313875
H	 0.7860563053	 2.0863674176	-0.1994809796	 0.129788
H	-0.9470157297	 1.8645182461	-0.4821330072	 0.130179
H	-0.3093698143	 1.8347184123	 1.1682250503	 0.122767
H	-1.2277516681	-0.4263388577	 1.483106146	 0.226858
H	 1.0496515175	-0.8067272278	 1.9909549161	 0.096618
H	 2.3942030216	-1.7579889287	-0.1475580151	 0.112724
H	 0.9355278911	-2.7804403699	-0.2473049052	 0.118194
H	 1.511332325	-0.1331535534	-1.6391753521	 0.091495
H	-1.0986176622	-1.7342152483	-1.7128679699	 0.170902
H	-0.7325919957	-0.3546864279	-2.7515148496	 0.142553
63.1884	117.0957	162.0229	199.0882	227.0145	300.8046	355.0523	400.7843	438.6967	524.4008	541.5981	629.5721	699.7989	827.3228	843.4834	879.5548	913.1808	924.2844	958.5582	963.4883	1024.9975	1043.6169	1079.7375	1088.5121	1107.0262	1127.0407	1171.4061	1216.5459	1240.0658	1245.6324	1301.9029	1316.3767	1335.0276	1369.7617	1411.5419	1446.8574	1469.1217	1481.3557	1484.2724	1498.7275	2358.3922	3022.5136	3040.0233	3069.0965	3074.7341	3083.7988	3094.6069	3097.3369	3130.0146	3186.0253	3469.6123
CC12NC1CC2CC#N	C[C@]12N[C@H]1C[C@H]2CC#N	
InChI=1S/C7H10N2/c1-7-5(2-3-8)4-6(7)9-7/h5-6,9H,2,4H2,1H3	InChI=1S/C7H10N2/c1-7-5(2-3-8)4-6(7)9-7/h5-6,9H,2,4H2,1H3/t5-,6+,7-/m1/s1
