17
gdb 34951	3.62853	1.52949	1.3423	4.0632	75.55	-0.2481	0.0262	0.2743	964.4395	0.13952	-380.829698	-380.823236	-380.822292	-380.860475	26.467	
N	-0.037417255	-1.1385089328	-0.0562033194	-0.33494
C	-0.003116844	 0.0159590555	 0.0015837399	 0.262218
C	 0.03894814	 1.4707580852	 0.0548114569	-0.137638
C	-0.321824415	 2.0952974588	 1.4284581326	-0.081436
C	 0.8027416348	 1.5138425501	 2.3054215788	-0.180884
N	 1.7532358356	 2.3744445089	 1.5229616822	-0.139707
C	 0.6106770492	 3.3742531754	 1.3362424296	-0.000509
C	 1.0860174403	 3.6157819687	-0.0958934987	-0.250214
C	 1.4622562744	 2.1246368496	 0.0305541076	-0.014901
H	-0.5787109122	 1.8549044222	-0.761621822	 0.122829
H	-1.3734372715	 2.1160545807	 1.7141011803	 0.083785
H	 0.7835132807	 1.8759692853	 3.3365946711	 0.116304
H	 0.9868611248	 0.4365490778	 2.2913359418	 0.134302
H	 0.4799421322	 4.1547120277	 2.0861088308	 0.090468
H	 0.3810367822	 3.9151268337	-0.8740603272	 0.104517
H	 1.9660605531	 4.2608373438	-0.0991233076	 0.126093
H	 2.2388595905	 1.6405704794	-0.5573705767	 0.099713
147.283	158.9369	371.334	433.5383	439.72	492.362	559.1534	692.7139	739.2892	751.4707	822.287	842.734	869.2541	889.7593	937.3691	951.8061	972.6186	1001.8656	1018.8363	1031.9728	1051.695	1074.1194	1101.9604	1141.0049	1173.4251	1184.705	1207.6998	1227.9643	1245.7507	1252.2897	1284.2496	1291.1174	1313.7011	1362.8737	1485.1021	1507.9315	2352.4776	3062.6877	3072.5964	3077.9753	3113.4361	3121.0156	3123.3417	3140.0576	3148.5633
N#CC1C2CN3C2CC13	N#C[C@H]1[C@H]2CN3[C@H]2C[C@H]13	
InChI=1S/C7H8N2/c8-2-4-5-3-9-6(4)1-7(5)9/h4-7H,1,3H2	InChI=1S/C7H8N2/c8-2-4-5-3-9-6(4)1-7(5)9/h4-7H,1,3H2/t4-,5+,6+,7-/m0/s1
