15
gdb 61147	3.38422	0.98511	0.85626	4.834	74.54	-0.2777	-0.0549	0.2228	1319.5473	0.110275	-416.798443	-416.788812	-416.787868	-416.833816	33.077	
C	-0.3221981784	 1.3430867581	 0.0512212722	-0.359104
N	-0.0615740628	-0.0818433945	-0.0814846287	-0.106376
C	-0.0340519444	-0.878152734	 1.148281067	-0.328505
C	-1.3206735992	-0.8918695545	 1.8401609638	 0.31055
C	-2.3754803753	-0.8913558029	 2.4145234211	-0.444352
C	 0.1526239029	-0.7299706839	-1.2582755699	 0.376267
O	 0.3742305187	-1.9183397497	-1.3829792176	-0.353695
C	 0.1099607168	 0.1256832623	-2.4617905623	 0.213129
N	 0.0948209288	 0.7250551199	-3.449780034	-0.327794
H	 0.4702159643	 1.8212622858	 0.6390475374	 0.139717
H	-0.3599706281	 1.8117118629	-0.9316364083	 0.177458
H	-1.2786183906	 1.5015186305	 0.5587247882	 0.156069
H	 0.2618217186	-1.8903189865	 0.8623692644	 0.188226
H	 0.7416280157	-0.4748926107	 1.8129940279	 0.145726
H	-3.3088683571	-0.9079065926	 2.9217492489	 0.212683
43.5756	72.4554	123.7242	149.2325	179.7611	253.0394	310.0647	333.8774	340.788	374.9458	472.6232	542.8142	628.363	651.2243	682.8659	744.1153	755.9791	919.397	964.8896	1023.8257	1137.7535	1157.3768	1221.374	1287.4123	1376.3739	1436.598	1467.6124	1474.7088	1482.3012	1527.6994	1758.9676	2242.9831	2347.79	3020.1595	3032.3988	3094.7494	3109.5765	3159.7388	3502.1462
CN(CC#C)C(=O)C#N	CN(CC#C)C(=O)C#N	
InChI=1S/C6H6N2O/c1-3-4-8(2)6(9)5-7/h1H,4H2,2H3	InChI=1S/C6H6N2O/c1-3-4-8(2)6(9)5-7/h1H,4H2,2H3
