19
gdb 56759	2.87366	1.26615	1.0285	1.7046	80.23	-0.2331	0.0479	0.281	1205.0357	0.157248	-385.809739	-385.800771	-385.799827	-385.843542	33.997	
C	-0.063480993	 1.6215706458	 0.2467299971	-0.387313
C	-0.0127383578	 0.0889569047	 0.0543656809	-0.272169
C	 0.7920474611	-0.5468924367	 1.0973745116	 0.323754
C	 1.4452489569	-1.0619850632	 1.9654573779	-0.471527
C	-1.4071410897	-0.5007326472	-0.0155415967	 0.29548
C	-2.2577295436	-0.8843662118	 1.1812365582	-0.350421
C	-1.9458963989	-1.9037373708	 0.1282026444	 0.045125
O	-2.8314301422	-1.7682763343	-0.9879473766	-0.287242
C	-2.3148066686	-0.4362607173	-1.2452550099	-0.139672
H	 0.9435826909	 2.0461226464	 0.251375939	 0.126016
H	-0.6314779471	 2.0861801681	-0.5653348828	 0.117984
H	-0.5486486824	 1.8707719768	 1.1941778664	 0.132351
H	 0.4779492005	-0.1120415386	-0.9095378838	 0.107658
H	 2.0335024448	-1.5183292614	 2.7227830608	 0.198632
H	-1.6987911791	-0.9914733246	 2.1054375445	 0.128654
H	-3.2753832769	-0.5168578919	 1.2839710978	 0.111359
H	-1.4695120777	-2.8630042408	 0.2930059378	 0.112232
H	-3.1054971629	 0.3233925783	-1.2637105798	 0.105334
H	-1.7600913743	-0.4159322616	-2.1919661167	 0.103765
52.9921	122.0623	173.7047	198.811	234.7481	299.1807	324.966	378.272	447.6637	494.8687	544.9293	627.1312	641.6569	689.0229	759.0564	841.104	865.2455	905.8024	932.3617	987.5733	993.4386	1004.8452	1032.9147	1056.5171	1076.3872	1088.3427	1105.4467	1131.0254	1159.3546	1205.7954	1264.6889	1309.0244	1323.3259	1354.7469	1398.5752	1408.2912	1479.7765	1491.9093	1498.5861	1515.2873	2234.3698	2993.4003	3012.3358	3042.3187	3061.6666	3114.7235	3115.9112	3127.7035	3185.7504	3213.5737	3502.8642
CC(C#C)C12CC1OC2	C[C@@H](C#C)[C@]12C[C@H]1OC2	
InChI=1S/C8H10O/c1-3-6(2)8-4-7(8)9-5-8/h1,6-7H,4-5H2,2H3	InChI=1S/C8H10O/c1-3-6(2)8-4-7(8)9-5-8/h1,6-7H,4-5H2,2H3/t6-,7+,8+/m0/s1
