18
gdb 18704	3.21374	2.15064	1.49897	1.8161	72.09	-0.2464	0.0175	0.2639	870.7256	0.1559	-347.804044	-347.796981	-347.796037	-347.834997	28.269	
O	 0.4614356728	 0.7826525745	-0.9571129628	-0.436084
C	 0.0179860566	-0.1752315083	 0.0070306436	 0.070017
C	 0.6212286119	 0.0946587719	 1.361473641	-0.089575
C	-0.0016195775	-0.1132140939	 2.5209330458	-0.066143
C	-1.4038230366	-0.6465395346	 2.6341610154	-0.274187
C	-2.2090041601	-0.5071032119	 1.3536191601	-0.028529
C	-2.3050756177	 0.8341126627	 0.6719992494	-0.303029
C	-1.4955814841	-0.2790292315	 0.0413395095	-0.041084
H	 0.0346771492	 1.6178972569	-0.7349854788	 0.276563
H	 0.4222531928	-1.1247951601	-0.3704426142	 0.096527
H	 1.6421158397	 0.4672054974	 1.3371224864	 0.093415
H	 0.5193660969	 0.0892492299	 3.4539207908	 0.088559
H	-1.3594954697	-1.7074547682	 2.9218763425	 0.114657
H	-1.9250794389	-0.1443588052	 3.4607459714	 0.106764
H	-3.0999256943	-1.1266436536	 1.3141084672	 0.083259
H	-3.2425790073	 1.1121692801	 0.2039151823	 0.110852
H	-1.7682431735	 1.6611714881	 1.1273274546	 0.110886
H	-1.9247038403	-0.7374069542	-0.8440691343	 0.087131
109.6053	220.8947	289.0552	322.9491	344.3055	405.0792	480.6369	525.9064	610.9607	720.4285	756.2233	795.4084	830.0854	865.0489	911.9887	939.1561	972.0181	1009.1121	1029.1574	1047.1132	1065.9552	1079.9293	1113.731	1138.721	1143.0894	1191.3908	1226.3543	1240.1638	1259.2419	1339.6984	1358.6996	1366.1456	1407.7641	1413.8314	1428.1093	1476.4473	1489.4565	1719.4039	2998.0033	3010.183	3024.0592	3125.773	3144.8693	3145.661	3157.6669	3171.2584	3212.7996	3798.6259
OC1C=CCC2CC12	O[C@H]1C=CC[C@H]2C[C@@H]12	
InChI=1S/C7H10O/c8-7-3-1-2-5-4-6(5)7/h1,3,5-8H,2,4H2	InChI=1S/C7H10O/c8-7-3-1-2-5-4-6(5)7/h1,3,5-8H,2,4H2/t5-,6+,7-/m0/s1
