18
gdb 74685	3.28443	1.27511	1.10808	3.6623	77.81	-0.2421	0.0076	0.2498	1145.7046	0.148993	-401.992586	-401.984688	-401.983744	-402.025081	30.453	
C	 0.0444060304	 1.4902025573	 0.0620045941	-0.487887
C	-0.0001548757	-0.0040694063	 0.0076467623	 0.332517
C	-0.0055058786	-0.7699934438	-1.0885083917	-0.191934
C	-0.018822986	-2.2404821766	-0.7725394326	-0.016263
N	 1.2949459321	-2.9292473771	-0.7720113563	-0.327644
C	 1.4730023772	-2.8460272862	 0.5926423573	 0.411856
O	 2.4052878146	-3.0925185363	 1.3098106038	-0.360317
C	 0.0400562049	-2.2836016715	 0.7897466535	-0.185925
C	-0.0484136183	-0.8291998788	 1.2821508864	-0.320632
H	 0.9386531562	 1.8363064028	 0.5953768165	 0.134137
H	 0.0504667967	 1.9327423591	-0.9374350228	 0.125888
H	-0.8178937302	 1.8906236401	 0.6099138287	 0.128873
H	 0.0129031762	-0.3897791819	-2.1047145615	 0.089209
H	-0.793666008	-2.8151189879	-1.2881110412	 0.084922
H	 1.9984026026	-2.9857008076	-1.4961126854	 0.243306
H	-0.6362974816	-2.9767525192	 1.2896352792	 0.100554
H	 0.7715519622	-0.5767278942	 1.9658442464	 0.128976
H	-0.9778603346	-0.640484612	 1.8346065332	 0.110364
82.2717	155.1418	193.8052	221.879	308.432	398.2514	431.0294	475.7068	496.7896	600.8925	672.5057	712.	782.9715	845.5306	860.1536	861.7916	894.6283	962.7437	984.0163	995.5525	1045.8773	1058.0185	1066.962	1135.8947	1174.1617	1179.5043	1212.3584	1261.8204	1284.1008	1292.7681	1339.4718	1351.0713	1365.4547	1413.8613	1478.7758	1482.583	1487.5838	1711.1002	1886.8881	3019.2	3024.019	3054.478	3064.5803	3068.2103	3114.7249	3119.0274	3184.1631	3587.456
CC1=CC2NC(=O)C2C1	CC1=C[C@H]2NC(=O)[C@H]2C1	
InChI=1S/C7H9NO/c1-4-2-5-6(3-4)8-7(5)9/h3,5-6H,2H2,1H3,(H,8,9)	InChI=1S/C7H9NO/c1-4-2-5-6(3-4)8-7(5)9/h3,5-6H,2H2,1H3,(H,8,9)/t5-,6+/m0/s1
