19
gdb 86002	1.97625	1.51077	1.36931	2.5249	71.47	-0.2452	-0.0331	0.2121	1093.7464	0.155989	-460.155763	-460.145949	-460.145005	-460.190045	36.198	
C	 0.7777272044	 1.5114216296	-0.0780282304	-0.400855
C	 0.0457237204	 0.1740666436	 0.001946264	-0.012112
C	 0.5684254154	-0.9275799406	-0.9725056268	-0.307978
C	 1.267028408	-1.6477787043	 0.2133957848	 0.240558
O	 1.0001065795	-3.0204887894	 0.4392587343	-0.479928
C	 2.766535678	-1.415202734	 0.313592112	 0.114649
O	 3.4050546964	-0.6380725784	-0.3479489924	-0.243358
C	 0.4462642587	-0.7421962355	 1.1901886401	 0.085994
O	 1.1049546887	-0.098085451	 2.2511982999	-0.419838
H	 1.8614129707	 1.3777947344	-0.102700895	 0.147415
H	 0.4826471814	 2.0421667559	-0.9893400682	 0.10789
H	 0.5310842893	 2.141838446	 0.780807688	 0.122462
H	-1.0326177974	 0.3444206924	-0.0540648171	 0.074905
H	-0.2218912714	-1.5472426223	-1.4009291683	 0.102906
H	 1.2451819232	-0.5823182768	-1.7565909782	 0.120953
H	 1.3446072898	-3.5286298848	-0.3038932947	 0.285063
H	 3.2493804258	-2.0780996841	 1.0664976085	 0.083796
H	-0.405871656	-1.3396346607	 1.5398229785	 0.085091
H	 1.150334745	-0.7011845399	 2.999571221	 0.292385
81.3843	106.0084	187.4057	206.6208	222.9905	228.8084	273.3973	288.0469	327.76	341.4448	402.151	486.9579	546.7459	579.7363	657.703	785.7466	813.2046	848.2245	905.9586	931.2083	987.4706	1049.3623	1054.9205	1080.5113	1139.8602	1166.2368	1189.2778	1192.7746	1238.6925	1253.1837	1282.3268	1310.1476	1327.6921	1367.6019	1403.1846	1411.1237	1429.4346	1465.4748	1495.1275	1503.2863	1825.8337	2883.097	3017.9962	3042.3685	3062.9061	3072.8161	3108.3911	3132.8327	3136.8221	3796.3401	3822.6192
CC1CC(O)(C=O)C1O	C[C@H]1C[C@@](O)(C=O)[C@H]1O	
InChI=1S/C6H10O3/c1-4-2-6(9,3-7)5(4)8/h3-5,8-9H,2H2,1H3	InChI=1S/C6H10O3/c1-4-2-6(9,3-7)5(4)8/h3-5,8-9H,2H2,1H3/t4-,5-,6+/m0/s1
