20
gdb 40367	3.2962	1.37519	1.21976	1.3355	82.97	-0.213	0.072	0.285	1106.8766	0.17159	-365.90913	-365.901461	-365.900517	-365.941294	31.241	
C	-0.1332367178	 1.4619923672	-0.0781313528	-0.268477
C	 1.2516032882	 0.887544472	 0.074380035	-0.26777
C	 0.051401184	-0.0317889786	 0.0358528232	-0.092895
C	-0.3549792418	-0.7589826963	 1.2636073513	 0.394821
C	-0.4115650683	-2.2556705136	 1.3862091737	-0.362244
C	-1.6456972995	-1.4399763206	 1.6852805355	-0.137186
C	-1.5271438684	-0.6668272941	 3.0079465275	-0.029345
C	-0.2591992463	-0.856166077	 3.7412437878	-0.254892
N	-0.2733160907	 0.0369033439	 2.5647832472	-0.184906
H	-0.5488549652	 1.9736912366	 0.7816321337	 0.12809
H	-0.4256201758	 1.865193781	-1.0415685689	 0.10255
H	 1.9203183992	 0.891593866	-0.7791618929	 0.105376
H	 1.7355971878	 1.0238802422	 1.0347150421	 0.126192
H	-0.0848168471	-0.6076184245	-0.8751491412	 0.0779
H	-0.4495001871	-2.7479046119	 0.4183715252	 0.11599
H	 0.1140652582	-2.8402224606	 2.1338655189	 0.110912
H	-2.5756472156	-1.5544260103	 1.1441677683	 0.093809
H	-2.3554008304	-0.097624745	 3.4184540536	 0.09865
H	-0.1403491813	-0.2946703177	 4.6640921843	 0.121774
H	 0.2852176078	-1.7928552486	 3.7271067784	 0.121652
78.0537	148.3016	179.4744	306.5835	379.794	446.653	465.3073	518.5679	599.8292	702.0579	747.3833	780.0216	805.3055	815.7811	835.5175	894.8722	914.7822	917.0784	939.5918	971.1532	989.8678	1015.0557	1040.4789	1052.6921	1061.5816	1068.3244	1085.5466	1094.9819	1110.0083	1127.3983	1136.1746	1192.4754	1201.9314	1220.1483	1240.5992	1274.8809	1322.6526	1355.0025	1438.683	1456.0351	1477.4775	1502.5249	1522.1708	3117.8752	3130.7152	3136.2787	3138.2578	3147.194	3155.5608	3192.9273	3200.3043	3211.1469	3221.2309	3235.1494
C1CC1C12CC1C1CN21	C1CC1[C@]12C[C@H]1[C@H]1CN21	
InChI=1S/C8H11N/c1-2-5(1)8-3-6(8)7-4-9(7)8/h5-7H,1-4H2	InChI=1S/C8H11N/c1-2-5(1)8-3-6(8)7-4-9(7)8/h5-7H,1-4H2/t6-,7+,8+,9?/m0/s1
