22
gdb 64017	1.99905	1.73382	1.5203	1.717	81.03	-0.2423	0.0269	0.2692	1071.6805	0.192769	-404.382372	-404.37289	-404.371946	-404.415582	37.465	
C	-0.070044113	 1.5332288835	-0.0942029972	-0.42232
C	-0.051956121	 0.0056563746	 0.0230397287	 0.326019
C	-1.4504104502	-0.5608993319	-0.191028874	-0.436154
O	 0.7954237289	-0.4699813489	-1.0820636233	-0.254473
C	 1.992722256	-0.7368692879	-0.5165759585	 0.092461
N	 2.1115956092	-0.7481938983	 0.7444442088	-0.292269
C	 0.740651941	-0.5307321544	 1.2823211756	 0.242299
C	 0.7905122229	 0.4420730912	 2.4643517686	-0.427947
C	 0.2414762864	-1.8996108774	 1.7792212029	-0.411884
H	 0.9356034546	 1.9505407189	-0.0006499099	 0.129292
H	-0.4665165609	 1.8162507561	-1.0731524642	 0.121541
H	-0.7035142198	 1.9822280351	 0.6756710468	 0.11994
H	-1.8742630644	-0.1701239876	-1.1206103809	 0.123316
H	-1.4426988069	-1.6498568288	-0.2532727719	 0.127782
H	-2.1108241989	-0.2643801202	 0.6299322394	 0.120866
H	 2.7916509298	-0.9348827649	-1.2241967571	 0.131723
H	 1.2575699837	 1.3911692309	 2.1958280816	 0.120317
H	-0.2133678048	 0.6446096222	 2.8533326311	 0.108324
H	 1.3820920863	-0.0011386406	 3.2697901965	 0.125398
H	 0.9382108606	-2.278281216	 2.5314978649	 0.12635
H	-0.7513241928	-1.8271036384	 2.2342999139	 0.10915
H	 0.2011679632	-2.6311897671	 0.9678796981	 0.120269
78.7347	216.3232	233.3693	276.4271	281.1395	291.3582	298.8977	308.8018	345.6465	357.2463	382.8115	457.8309	510.5963	588.2401	597.8669	655.2553	797.458	810.9589	919.6604	935.0142	940.3901	957.5247	965.8628	976.7868	1013.0603	1023.2741	1105.3036	1167.4538	1177.2965	1200.0589	1239.7669	1256.1102	1285.3925	1336.6681	1394.8738	1401.4375	1412.6791	1423.7985	1469.8607	1480.1675	1482.0705	1485.0255	1500.4731	1502.6374	1505.6692	1521.4069	1699.0183	3037.5519	3042.2406	3044.6649	3050.2805	3108.132	3109.5612	3114.2908	3120.1543	3121.2556	3125.2735	3133.8815	3141.4626	3199.4379
CC1(C)OC=NC1(C)C	CC1(C)O[CH][N]C1(C)C	
InChI=1S/C7H13NO/c1-6(2)7(3,4)9-5-8-6/h5H,1-4H3	InChI=1S/C7H13NO/c1-6(2)7(3,4)9-5-8-6/h5H,1-4H3
