18
gdb 54423	2.60971	1.46106	1.17619	2.6913	73.31	-0.2392	0.0182	0.2574	1098.9528	0.14654	-439.086143	-439.077166	-439.076222	-439.119766	33.633	
C	 0.291900691	 1.4630626004	-0.0215516898	-0.486477
C	 0.065911653	-0.0094102653	 0.0470536328	 0.433894
C	-0.9572012263	-0.7250229468	 0.8479212539	-0.372316
C	 0.5130210662	-1.0691825904	 1.0693322716	 0.112198
C	 1.02023746	-1.8277941082	-0.1522387317	-0.17019
O	 0.4941626957	-0.8226008071	-1.0550856694	-0.316444
C	 1.156570093	-0.8049342842	 2.3777765984	 0.31278
N	 2.2848393043	-1.5358495804	 2.6428968958	-0.541942
O	 0.7352404727	 0.0434799904	 3.1469812462	-0.380759
H	 1.3104695558	 1.6835791635	-0.3536628846	 0.129037
H	-0.408351521	 1.9303298106	-0.7227916379	 0.131687
H	 0.140162943	 1.9004632121	 0.9685656604	 0.15506
H	-1.3795749383	-0.1687311231	 1.6774454606	 0.147398
H	-1.6049473141	-1.4558895273	 0.3717835488	 0.113354
H	 2.1139266675	-1.8698458094	-0.2277299327	 0.106876
H	 0.5971529199	-2.8215699965	-0.3443803176	 0.106445
H	 2.5060359665	-2.3668342122	 2.1215064254	 0.257917
H	 2.677018711	-1.4447609062	 3.5666371798	 0.261482
67.6787	114.0297	183.0657	204.7741	246.4788	280.0631	341.0947	380.9775	410.7605	465.2285	508.0758	561.0737	641.1325	679.642	756.1922	790.0867	831.6421	928.0031	953.852	978.4869	992.277	1034.5583	1066.8617	1083.9776	1108.8567	1154.4326	1179.0463	1219.1326	1240.3527	1347.7613	1360.4887	1407.0186	1428.3049	1476.0512	1484.4073	1500.6303	1520.7935	1617.824	1769.0698	3012.119	3037.5927	3059.1088	3103.9996	3119.4002	3130.7639	3226.9293	3593.9067	3725.4605
CC12CC1(CO2)C(N)=O	C[C@]12C[C@]1(CO2)C(=O)N	
InChI=1S/C6H9NO2/c1-5-2-6(5,3-9-5)4(7)8/h2-3H2,1H3,(H2,7,8)	InChI=1S/C6H9NO2/c1-5-2-6(5,3-9-5)4(7)8/h2-3H2,1H3,(H2,7,8)/t5-,6-/m0/s1
