22
gdb 118510	2.73433	0.97113	0.78327	2.1262	79.97	-0.2379	0.0843	0.3222	1533.0614	0.192545	-441.429312	-441.418709	-441.417764	-441.46579	36.979	
C	-0.0915042672	 1.4229628092	 0.0929570889	-0.231074
O	-0.0147927245	 0.021775038	-0.0267477245	-0.236663
C	-1.2748856705	-0.6070805799	 0.0712719916	-0.051823
C	-1.0940625539	-2.1233863988	-0.0144098984	 0.056518
O	-0.4743288415	-2.6398756599	 1.1513680426	-0.260456
C	 0.94184696	-2.6659684415	 1.135848288	-0.239409
C	-2.4430110453	-2.8111751503	-0.1661886311	 0.006502
C	-2.6083713109	-4.2368273816	 0.1936246493	-0.247558
N	-3.2155244716	-3.1820862865	 1.0293495477	-0.323675
H	 0.9230848942	 1.8167085695	-0.0036338266	 0.127847
H	-0.7210833257	 1.8640466506	-0.6959685667	 0.106274
H	-0.5017088312	 1.7275013848	 1.0683893822	 0.108749
H	-1.7661745958	-0.3554614987	 1.0250662453	 0.099991
H	-1.9361225738	-0.2671185526	-0.7443712328	 0.085054
H	-0.4738011597	-2.3414090907	-0.8988194487	 0.080862
H	 1.3652917415	-1.6584364615	 1.083402992	 0.133808
H	 1.2565045194	-3.1501766454	 2.0640019698	 0.121488
H	 1.3197782738	-3.2536211767	 0.285704519	 0.105098
H	-3.0498700655	-2.4079021665	-0.9747707593	 0.087858
H	-3.3145790492	-4.8546094067	-0.3537653068	 0.11168
H	-1.738983862	-4.7546993513	 0.5858829525	 0.117052
H	-2.6130158506	-3.0471254633	 1.8395075163	 0.241878
63.241	82.6437	91.6765	112.2702	151.7516	189.2062	225.9909	234.5267	286.0055	334.7159	378.5795	394.9089	546.7135	619.7877	809.1108	849.3794	881.6145	943.7677	976.2956	990.4423	1027.3115	1077.8563	1102.133	1120.6682	1147.0451	1148.0572	1168.9615	1185.2804	1186.4584	1193.558	1224.8709	1230.9015	1268.7203	1286.2807	1297.0993	1321.0485	1387.762	1415.6668	1425.3081	1476.5	1480.9266	1484.7815	1485.4838	1497.8017	1499.2565	1518.2881	1521.5277	2954.3662	2974.0456	2976.3479	2993.1581	3002.0761	3018.4024	3080.4539	3115.3748	3115.6772	3121.3086	3124.7403	3207.1697	3492.0909
COCC(OC)C1CN1	COC[C@@H](OC)[C@H]1CN1	
InChI=1S/C6H13NO2/c1-8-4-6(9-2)5-3-7-5/h5-7H,3-4H2,1-2H3	InChI=1S/C6H13NO2/c1-8-4-6(9-2)5-3-7-5/h5-7H,3-4H2,1-2H3/t5-,6-/m1/s1
