17
gdb 79486	2.34264	1.92384	1.25261	1.5865	80.04	-0.2201	0.0215	0.2417	1018.0597	0.134904	-380.708792	-380.701011	-380.700067	-380.740746	30.751	
C	 0.0860032558	 1.5178335376	-0.1544641438	-0.332361
N	 0.0370034168	 0.0625958496	-0.0371627019	-0.160301
C	-1.1164727899	-0.4915594203	 0.7260824423	-0.05771
C	-0.2902648596	-1.7320459508	 1.1872553829	-0.090156
N	-0.5912811044	-1.5959593392	 2.6456564797	-0.343232
C	-0.5418180799	-0.1813948631	 2.1619194217	-0.101245
C	 0.6781094566	-0.5020212225	 1.1992797439	 0.329423
C	 2.0779050785	-0.4442847452	 1.4782316597	 0.106488
C	 3.2564253823	-0.3715914109	 1.7065657423	-0.383602
H	 1.0992940392	 1.8179342752	-0.4374595329	 0.132514
H	-0.5948749599	 1.8331909025	-0.9513836453	 0.121306
H	-0.1875649895	 2.0579436008	 0.7673784577	 0.098404
H	-2.1478587687	-0.4486414865	 0.3725942927	 0.085602
H	-0.1368943149	-2.6797903959	 0.6729750188	 0.100694
H	-1.5605313202	-1.8682502353	 2.8293268683	 0.212185
H	-0.6900952104	 0.67104522	 2.8245336275	 0.096397
H	 4.2974358081	-0.3168453262	 1.9094695265	 0.185594
121.6948	161.1732	215.7222	237.318	289.5141	399.1418	474.8496	547.6279	564.7079	598.1557	620.7872	665.5964	735.618	756.3612	801.6793	854.1461	899.4459	914.5427	937.2147	941.4929	1048.4978	1077.8708	1095.1845	1122.6119	1132.6791	1157.9807	1174.4181	1187.8239	1219.4763	1257.9333	1271.4499	1291.8708	1354.1567	1445.4148	1491.711	1496.9327	2235.494	2966.5502	3070.4888	3106.7298	3109.2649	3122.0937	3136.3852	3405.2211	3500.9692
CN1C2C3NC2C13C#C	CN1[C@H]2[C@@H]3N[C@H]2[C@]13C#C	
InChI=1S/C7H8N2/c1-3-7-5-4(9(7)2)6(7)8-5/h1,4-6,8H,2H3	InChI=1S/C7H8N2/c1-3-7-5-4(9(7)2)6(7)8-5/h1,4-6,8H,2H3/t4-,5-,6+,7+
