20
gdb 22204	1.69634	1.18694	0.83373	2.152	74.79	-0.2508	-0.0039	0.2469	1453.1257	0.168253	-477.358663	-477.347827	-477.346883	-477.395717	37.63	
C	 0.9002149612	 0.5986714592	-0.038206948	-0.237736
O	 0.7687686791	 0.2017860808	-1.3898068195	-0.230201
C	-0.2536608975	-0.7616018948	-1.5936843791	-0.150777
C	 0.195450942	-2.154432479	-1.2159535934	 0.319516
C	 1.3348756092	-2.7912018249	-1.9673344819	-0.290556
C	 2.6925201157	-2.6015505956	-1.2604997893	-0.063203
O	 3.7527490601	-3.2140208404	-1.9720855823	-0.414993
N	-0.4317848296	-2.6893644199	-0.2368465229	-0.159947
O	 0.0513731435	-3.9720763418	 0.0661581429	-0.397378
H	-0.0218448222	 1.0740124292	 0.3290677678	 0.109519
H	 1.1378094041	-0.2455506288	 0.6232148216	 0.116359
H	 1.7157986863	 1.3243776916	 0.0018699581	 0.128846
H	-1.161809213	-0.5072358587	-1.0309812816	 0.106165
H	-0.4814412364	-0.7271093349	-2.6652876617	 0.112389
H	 1.1368488576	-3.864282769	-2.0629511976	 0.115319
H	 1.4061308749	-2.3618233545	-2.9709189242	 0.112376
H	 2.9315706548	-1.5358442641	-1.2187201047	 0.129518
H	 2.6227769818	-2.9779279955	-0.2304724145	 0.104058
H	 3.6174387229	-4.1665062448	-1.9388081071	 0.282526
H	-0.5351250245	-4.2459587642	 0.7793139472	 0.3082
48.9435	60.7408	94.274	110.9182	138.1573	192.3055	245.5083	292.544	313.259	326.0995	399.9136	412.8253	442.4287	473.5511	593.9164	676.6028	799.7545	878.5039	930.1364	960.6785	1010.2412	1020.4344	1066.9153	1087.6117	1119.6298	1158.2012	1184.997	1215.1168	1256.8882	1303.6979	1315.6059	1317.9921	1382.471	1396.4814	1409.0077	1416.2119	1472.5817	1481.5768	1485.9663	1486.9121	1510.2909	1516.633	1720.3845	2987.3139	3010.1444	3014.3172	3043.1418	3045.4462	3071.0382	3091.6999	3111.6664	3119.6789	3813.9044	3819.3683
COCC(CCO)=NO	COCC(=NO)CCO	
InChI=1S/C5H11NO3/c1-9-4-5(6-8)2-3-7/h7-8H,2-4H2,1H3	InChI=1S/C5H11NO3/c1-9-4-5(6-8)2-3-7/h7-8H,2-4H2,1H3
