17
gdb 92693	3.00581	1.40908	1.00208	2.0338	71.93	-0.2411	-0.0427	0.1984	1162.8745	0.137005	-455.201835	-455.19348	-455.192535	-455.234566	31.793	
C	-0.0681590163	 1.4815149064	 0.0785960081	-0.401716
C	-0.0083813701	-0.0265956169	-0.0790843151	 0.108834
C	 0.8771126044	-0.5113270975	-1.2169244942	-0.16799
N	 1.0231137674	-1.9583527303	-1.247282675	-0.306807
C	 0.9497009684	-2.5560088313	-0.1190826007	 0.235069
N	 1.0059535118	-3.9125996053	 0.0134372695	-0.544968
C	 0.83714546	-1.8474560709	 1.2217430698	 0.400097
O	 1.1108356133	-2.3961242401	 2.2595452432	-0.344821
O	 0.4865298101	-0.5581300259	 1.1838976324	-0.239624
H	 0.93305627	 1.894349105	 0.2326586825	 0.132887
H	-0.4989724473	 1.9348895451	-0.8188914344	 0.126799
H	-0.6887345547	 1.7528778098	 0.9362790138	 0.136721
H	-1.0192293033	-0.432824041	-0.2191434654	 0.100391
H	 0.441714955	-0.1824800356	-2.1674643755	 0.11643
H	 1.8676816437	-0.035878874	-1.1481460371	 0.113134
H	 1.3331435538	-4.4317950434	-0.7856740136	 0.260786
H	 1.2541611339	-4.250065544	 0.9307941415	 0.274779
101.8879	134.0312	219.1469	264.4572	276.6898	335.2808	376.628	444.396	459.347	503.9725	521.0238	536.0428	587.2176	677.4431	747.5739	819.9972	896.0942	938.8321	959.0359	1014.1281	1088.6422	1139.9614	1162.6124	1202.5948	1247.1538	1257.8939	1335.0375	1378.6837	1398.2482	1412.6047	1418.5477	1482.1249	1487.7558	1499.1867	1600.1586	1730.0235	1822.5472	2992.4459	3020.9628	3047.2174	3058.1301	3122.6397	3127.9857	3582.4731	3709.3237
CC1CN=C(N)C(=O)O1	C[C@H]1CN=C(N)C(=O)O1	
InChI=1S/C5H8N2O2/c1-3-2-7-4(6)5(8)9-3/h3H,2H2,1H3,(H2,6,7)	InChI=1S/C5H8N2O2/c1-3-2-7-4(6)5(8)9-3/h3H,2H2,1H3,(H2,6,7)/t3-/m0/s1
