25
gdb 120551	5.2749	0.57353	0.55789	1.2241	90.47	-0.2606	0.0777	0.3382	2100.7259	0.228067	-389.485601	-389.474857	-389.473913	-389.522256	39.239	
C	 0.027539737	 1.6006843507	 0.0054403724	-0.379127
C	 0.1273902705	 0.0728852623	-0.0038528876	-0.160262
C	 0.6426417629	-0.5078647355	 1.3186907047	-0.191005
C	 0.7532062345	-2.0265963641	 1.3158673822	 0.04959
C	 1.8440450368	-2.7075766131	 0.4359570983	-0.261021
C	 2.0821994497	-3.7258555694	 1.5835310938	 0.057398
C	 3.504405913	-4.1446935178	 1.8871420867	-0.096929
O	 3.4826521569	-4.9725333439	 3.0424610223	-0.422834
C	 1.3686895259	-2.7430954402	 2.5507282494	-0.251029
H	 1.0049298021	 2.0601895589	 0.1911145543	 0.11205
H	-0.3439884534	 1.9845352674	-0.9500085806	 0.109168
H	-0.6529407689	 1.9477571345	 0.7911234458	 0.112657
H	-0.8580921092	-0.3576597182	-0.2265000184	 0.092564
H	 0.7877148065	-0.2458479684	-0.8209936448	 0.097571
H	 1.6278462374	-0.0758107755	 1.5470179456	 0.08382
H	-0.0220298714	-0.1947657857	 2.1366466411	 0.089836
H	-0.2261566893	-2.4641700431	 1.0854608643	 0.065386
H	 1.5534975003	-3.0984014255	-0.542368078	 0.093826
H	 2.7097379268	-2.0470707587	 0.3022367123	 0.090033
H	 1.4744600734	-4.6250744476	 1.436937861	 0.076792
H	 3.9292231569	-4.6786838938	 1.0201729669	 0.081155
H	 4.1236974184	-3.2467578088	 2.0527322624	 0.07597
H	 4.3874325224	-5.2213621585	 3.2521859904	 0.285151
H	 2.0925689999	-2.1000283346	 3.0648025001	 0.091144
H	 0.6884247708	-3.1615587612	 3.2955231854	 0.098095
46.2616	72.8333	91.6205	120.8743	161.4391	209.354	250.1793	261.0279	302.7234	370.2285	392.9283	438.3144	445.0451	638.794	745.1364	782.3168	819.0477	861.2498	899.0308	912.1578	943.9874	961.4397	1000.7281	1033.6113	1044.9862	1051.6785	1073.1407	1093.3468	1129.9162	1144.4728	1173.7438	1217.6128	1227.0455	1241.8824	1259.2496	1269.7965	1273.7995	1284.3701	1299.8491	1313.2097	1331.9933	1364.4923	1380.2472	1400.8037	1412.3613	1461.1669	1475.6294	1481.3936	1492.9013	1500.3785	1500.9513	1510.3775	1520.0314	2949.3192	2975.571	2996.4232	3014.4063	3018.7318	3027.9894	3029.1618	3031.5273	3040.9974	3053.0074	3054.6648	3094.5148	3096.2216	3099.4747	3107.3431	3829.223
CCCC1CC(CO)C1	CCC[C@H]1C[C@@H](CO)C1	
InChI=1S/C8H16O/c1-2-3-7-4-8(5-7)6-9/h7-9H,2-6H2,1H3	InChI=1S/C8H16O/c1-2-3-7-4-8(5-7)6-9/h7-9H,2-6H2,1H3/t7-,8+
