19
gdb 56343	5.22664	0.51999	0.49418	21.9335	132.47	-0.133	-0.0911	0.042	2138.3907	0.157507	-456.305265	-456.29485	-456.293906	-456.342873	36.191	
O	-0.3565329314	-0.1640323939	 0.3427860555	-0.4732
C	-0.0916499785	 0.9636408527	-0.1222785972	 0.361038
O	 0.9546094746	 1.4593063395	-0.5591110911	-0.453171
C	-1.3273996356	 1.9871391229	-0.1234342045	-0.34087
C	-2.6360114793	 1.2076399273	-0.1445263907	-0.15599
C	-3.8193349553	 1.936849187	 0.4831256981	-0.199861
N	-4.9670971093	 0.9998964011	 0.6025384309	-0.201685
C	-6.0402378388	 1.0228549198	-0.1344092701	 0.195487
N	-6.947311875	 0.046940028	-0.2092548902	-0.481106
H	-7.7359074479	 0.1384444675	-0.8266743024	 0.308378
H	-6.8333296124	-0.8326261136	 0.2699141851	 0.301055
H	-1.2426795599	 2.5680694524	 0.8055797224	 0.083907
H	-1.2307351209	 2.689071693	-0.9558032248	 0.088102
H	-2.9057693193	 0.9085437861	-1.1660568283	 0.082699
H	-2.4046717041	 0.2862971196	 0.4138061562	 0.128632
H	-3.5803017805	 2.2818191828	 1.4929777219	 0.147252
H	-4.168326909	 2.7963518781	-0.0981809791	 0.129957
H	-4.7547296401	 0.158268284	 1.1293126429	 0.288806
H	-6.2198911574	 1.9105956459	-0.7314776746	 0.19057
27.8657	48.5717	72.2531	96.1317	151.9267	210.8524	280.8412	313.0599	329.9835	371.0953	479.5265	518.7388	554.9567	608.9754	675.2615	745.3215	768.0013	813.2451	869.3004	926.7919	990.077	1031.3311	1037.8924	1074.077	1100.7223	1153.4866	1199.1995	1245.8542	1263.5869	1304.9607	1332.4265	1341.7117	1354.1272	1398.4737	1452.416	1464.1678	1482.3792	1502.2761	1651.2883	1747.7707	1763.1647	2976.7892	3014.9344	3039.6271	3056.3368	3094.9728	3111.597	3213.3294	3547.2506	3602.6187	3725.9623
[O-]C(=O)CCCNC=[NH2+]	[O]C(=O)CCCNC=[NH2]	
InChI=1S/C5H10N2O2/c6-4-7-3-1-2-5(8)9/h4H,1-3H2,(H2,6,7)(H,8,9)	InChI=1S/C5H10N2O2/c6-4-7-3-1-2-5(8)9/h4,7H,1-3,6H2
