22
gdb 80885	2.44174	1.7535	1.45315	1.3974	85.32	-0.2223	0.0915	0.3138	1043.5574	0.195475	-367.163127	-367.155043	-367.154099	-367.194939	33.487	
C	-0.0764165189	 1.6368641305	-0.0371628596	-0.444712
C	-0.0213825463	 0.1114310799	-0.0022862878	 0.001738
C	 1.0516594413	-0.5903490895	-0.8845137037	-0.0659
C	 2.0707290534	-0.2636594703	 0.2642087847	-0.256928
C	 0.8101910864	-0.5605641464	 1.1429231123	 0.345512
C	 0.6819793107	-0.1854348686	 2.5969788595	-0.495152
N	 0.7440658095	-2.0560281807	 0.9185595235	-0.140915
C	-0.3765429267	-2.5684678383	 0.1080092867	-0.269077
C	 0.8514848928	-2.0799127622	-0.5694653598	-0.022228
H	 0.8973107093	 2.1211446112	 0.0669318265	 0.11907
H	-0.5112980383	 1.9764048353	-0.9839067802	 0.115959
H	-0.7182291898	 2.0130888551	 0.7671305238	 0.118127
H	-1.0476052802	-0.2406273431	-0.1239933258	 0.058872
H	 1.225152038	-0.3073243351	-1.9231956056	 0.059918
H	 2.9126350104	-0.9477618087	 0.394884347	 0.099474
H	 2.413739974	 0.7701497948	 0.2903761908	 0.095487
H	 0.8156089792	 0.8909495333	 2.7425961752	 0.112785
H	-0.3056266574	-0.4601069424	 2.9841383838	 0.117372
H	 1.4317493298	-0.7128780667	 3.1945159292	 0.127835
H	-0.4968513822	-3.6444833705	 0.2070173311	 0.113117
H	-1.3183688089	-2.0371078018	 0.043298824	 0.118699
H	 1.550169034	-2.7915209359	-1.0039296956	 0.090945
174.6412	203.5003	207.7998	232.4527	292.4635	345.3695	390.6892	445.935	527.4138	566.9261	615.1265	643.3804	736.4038	787.3632	810.5116	825.0061	855.2586	882.5076	919.8227	972.6626	999.5682	1020.6509	1035.815	1049.2479	1073.5093	1093.3276	1104.4117	1112.1592	1122.9519	1162.4503	1179.7244	1195.5409	1223.3781	1230.3018	1250.6744	1272.2803	1311.552	1363.7156	1406.1286	1410.7091	1414.6479	1483.6589	1490.3545	1492.9835	1499.3952	1515.1632	1518.3919	3031.9956	3033.3914	3069.5267	3074.631	3087.4284	3098.1997	3109.1616	3110.8416	3115.5279	3122.1173	3130.8877	3146.2689	3205.9195
CC1C2CC1(C)N1CC21	C[C@H]1[C@H]2C[C@]1(C)N1C[C@@H]21	
InChI=1S/C8H13N/c1-5-6-3-8(5,2)9-4-7(6)9/h5-7H,3-4H2,1-2H3	InChI=1S/C8H13N/c1-5-6-3-8(5,2)9-4-7(6)9/h5-7H,3-4H2,1-2H3/t5-,6+,7-,8-,9?/m0/s1
