20
gdb 102027	2.14239	1.35112	0.89383	2.9541	80.36	-0.2392	0.0007	0.2399	1352.494	0.170797	-436.518306	-436.507998	-436.507054	-436.554462	36.076	
C	-0.2520959673	 0.7907935458	 0.7464119481	-0.374623
C	 0.3843931641	-0.4901424479	 0.207485652	-0.15437
N	 0.6573485984	-0.4360571152	-1.2375007274	-0.139713
C	 1.918384845	-0.0750203113	-1.6452435956	 0.12902
N	 2.29986709	 0.0505166099	-2.8608370623	-0.510017
C	-0.4639534317	-0.726635822	-2.0814677835	 0.511617
O	-1.5348590211	-1.0090609003	-1.5677149112	-0.424754
N	-0.2241219963	-0.6614000475	-3.4072982192	-0.354545
C	-1.2697936182	-0.9228046886	-4.3741279407	-0.333487
H	 0.3962948739	 1.6579197012	 0.5823481668	 0.111783
H	-1.2095035904	 0.967566495	 0.2520621918	 0.151566
H	-0.4309243113	 0.6978242866	 1.822423669	 0.116859
H	 1.3326530687	-0.6943901364	 0.7133276433	 0.102043
H	-0.2802961916	-1.3365758213	 0.3804066274	 0.145136
H	 2.5810746458	 0.0942874206	-0.7905935916	 0.103457
H	 3.2791629801	 0.3146856792	-2.9046928959	 0.230362
H	 0.718113434	-0.4010256011	-3.6971012987	 0.277991
H	-1.0039030245	-1.7644514195	-5.0239104841	 0.123687
H	-2.1838745479	-1.1674210354	-3.8328852886	 0.164542
H	-1.4524424297	-0.0449070418	-5.0046744192	 0.123446
56.328	72.7177	87.3599	118.5174	167.3647	216.2148	239.3147	247.8503	345.495	392.8553	419.5448	463.0723	586.6969	660.186	707.4168	772.9527	785.5942	790.1676	844.842	946.5685	1037.2495	1042.5706	1106.3165	1108.0561	1155.3874	1175.3282	1187.8337	1237.3827	1272.9137	1307.842	1392.4476	1410.5731	1418.773	1436.0135	1440.2934	1480.6916	1490.404	1501.1256	1504.4432	1507.7583	1618.6532	1703.8011	1782.7102	3024.6402	3039.5819	3057.6587	3072.2701	3072.9579	3103.1352	3131.7986	3143.9893	3155.1785	3393.4175	3536.7896
CCN(C=N)C(=O)NC	CCN(C=N)C(=O)NC	
InChI=1S/C5H11N3O/c1-3-8(4-6)5(9)7-2/h4,6H,3H2,1-2H3,(H,7,9)	InChI=1S/C5H11N3O/c1-3-8(4-6)5(9)7-2/h4,6H,3H2,1-2H3,(H,7,9)
