16
gdb 25228	3.11957	1.62724	1.08368	5.6049	77.92	-0.2206	-0.0097	0.2109	1054.1515	0.127829	-400.822767	-400.815775	-400.81483	-400.854337	27.341	
O	-0.0360102904	-0.0398165425	 0.0053624803	-0.346973
C	 0.0227548963	 1.1692432986	 0.0100011463	 0.283739
C	-1.2194958156	 2.1078963007	 0.0314169755	-0.313175
C	-0.703599235	 3.5769869198	 0.0307167242	-0.371822
C	 0.7763135247	 3.3636106051	 0.0088717878	 0.313603
C	 1.1892496223	 2.0489055954	-0.0027049445	 0.189227
C	 2.6175406523	 2.0371305389	-0.023013788	-0.333694
C	 3.009184998	 3.3511493283	-0.022679813	-0.059556
N	 1.8745148828	 4.1586439118	-0.0031336459	-0.371615
H	-1.8445923194	 1.8869847846	-0.8384603265	 0.131217
H	-1.8202073095	 1.8792298751	 0.9163362644	 0.131198
H	-1.0604484142	 4.13839411	-0.8410742302	 0.119699
H	-1.0356136594	 4.130501623	 0.917243511	 0.119704
H	 3.2696024174	 1.1784576176	-0.0360346156	 0.117047
H	 3.9916327349	 3.7963609141	-0.0345768478	 0.126717
H	 1.8851211449	 5.1644592396	 0.0010979421	 0.264686
98.6931	165.0603	230.1197	300.8374	512.1867	512.9274	545.8634	601.7528	632.832	635.3196	675.0265	728.0086	735.7654	841.4502	855.1471	924.5627	974.1482	1010.7417	1011.234	1061.8764	1083.4113	1147.9594	1152.9658	1227.2482	1246.8915	1265.2114	1295.9862	1362.7445	1449.4466	1459.9722	1488.8276	1497.1616	1521.1076	1599.178	1808.662	3026.7189	3053.1482	3066.9233	3108.8471	3253.4218	3272.4801	3668.6679
O=C1CCC2=C1C=CN2	O=C1CCc2c1cc[nH]2	
InChI=1S/C7H7NO/c9-7-2-1-6-5(7)3-4-8-6/h3-4,8H,1-2H2	InChI=1S/C7H7NO/c9-7-2-1-6-5(7)3-4-8-6/h3-4,8H,1-2H2
