19
gdb 108344	2.77181	1.58792	1.30437	1.0772	74.29	-0.2412	0.0717	0.313	1043.3005	0.158344	-422.949432	-422.941383	-422.940439	-422.981846	31.28	
C	-0.0332565618	 1.3975137416	 0.0092071209	-0.264192
O	 0.0162155868	-0.0178285623	 0.0077010368	-0.292486
C	 0.6380666367	-0.5527320823	-1.1160764629	 0.418413
C	-0.0640426856	-0.4658550639	-2.5070917955	-0.291411
C	 0.0429257197	-2.0189713842	-2.6439440745	-0.226131
C	 0.7278388557	-2.1007803193	-1.247980276	-0.134797
C	 2.2704111133	-1.9707185083	-1.2227835585	 0.016868
O	 2.6675658449	-1.1187354416	-2.309953943	-0.237119
C	 2.2031221942	-0.5045878369	-1.1054241017	-0.056594
H	 0.9705205632	 1.8452517646	-0.0193661253	 0.109137
H	-0.608673852	 1.7855650021	-0.8429871703	 0.11508
H	-0.5267524654	 1.6984212957	 0.9358186659	 0.129979
H	-1.0935604304	-0.1113758186	-2.4124542585	 0.103254
H	 0.4540031917	 0.1144742993	-3.2721152761	 0.106701
H	-0.9232901956	-2.5257488197	-2.6820938204	 0.100191
H	 0.6614547727	-2.3624379168	-3.4737521074	 0.113586
H	 0.2973336764	-2.7359923779	-0.4748973031	 0.08362
H	 3.0100714115	-2.6810859014	-0.8706315453	 0.103524
H	 2.860999714	 0.2080319899	-0.6190047549	 0.102375
113.941	154.0654	186.7577	190.1147	282.0007	347.7969	371.1036	452.0607	549.4141	637.543	705.5314	738.6931	806.118	809.3697	848.4362	872.5321	929.17	945.0101	968.3667	1002.7478	1031.8157	1059.7087	1088.5134	1101.5559	1131.8876	1146.8724	1182.0656	1195.9152	1225.8982	1231.3478	1237.681	1245.6682	1270.8496	1293.4216	1323.9628	1376.7336	1454.1251	1477.1305	1484.1432	1488.1913	1507.3209	2991.1557	3041.4815	3066.4175	3077.2434	3121.7671	3121.9967	3128.1896	3141.3979	3166.3233	3183.267
COC12CCC1C1OC21	CO[C@]12CC[C@H]1[C@H]1O[C@@H]21	
InChI=1S/C7H10O2/c1-8-7-3-2-4(7)5-6(7)9-5/h4-6H,2-3H2,1H3	InChI=1S/C7H10O2/c1-8-7-3-2-4(7)5-6(7)9-5/h4-6H,2-3H2,1H3/t4-,5+,6+,7+/m0/s1
