16
gdb 128031	4.99683	0.90183	0.76758	2.2862	77.52	-0.2244	-0.0096	0.2148	1431.3346	0.125091	-434.061224	-434.052995	-434.052051	-434.094665	29.776	
C	 0.0643686224	 1.652837818	-0.228263395	-0.314461
N	-0.0232149108	 0.2265856201	 0.0015343634	-0.213416
C	 0.5449451797	-0.5343614586	-0.8373585651	 0.10796
N	 0.5544622627	-1.909516126	-0.7621838904	-0.42271
C	-0.0293743702	-2.7078052308	 0.2030551712	 0.493289
N	 0.0974529456	-4.015646798	 0.090005158	-0.245539
O	-0.5811365906	-4.5424677212	 1.1856117819	-0.164512
C	-1.0855363314	-3.5338931229	 1.9086128743	 0.086351
C	-0.7817586549	-2.3340390388	 1.3558888681	-0.334074
H	 0.6332163603	 1.9222768036	-1.1336033861	 0.095573
H	-0.9422023146	 2.0783000713	-0.3180937842	 0.126582
H	 0.5394095077	 2.1403341296	 0.6313456737	 0.126583
H	 1.0936283461	-0.1727384061	-1.7182373738	 0.088076
H	 1.0402272136	-2.4110548837	-1.4886705217	 0.267112
H	-1.6376404777	-3.8203896831	 2.7905763356	 0.150552
H	-1.0267137678	-1.3386335135	 1.67420187	 0.152634
60.6772	137.8161	139.352	200.47	275.0792	314.5028	368.2631	384.4347	520.2873	598.769	658.7734	721.4965	787.318	817.8875	881.171	918.3432	961.8983	980.9619	1006.2567	1038.4331	1070.9739	1141.3021	1153.4808	1169.6312	1213.7487	1321.0463	1412.0457	1421.8907	1449.0162	1479.891	1501.4053	1506.3797	1542.3112	1643.6126	1763.4286	2965.7631	3020.6522	3053.137	3070.6242	3263.6021	3328.8607	3643.4449
CN=CNC1=NOC=C1	CN=CNc1nocc1	
InChI=1S/C5H7N3O/c1-6-4-7-5-2-3-9-8-5/h2-4H,1H3,(H,6,7,8)	InChI=1S/C5H7N3O/c1-6-4-7-5-2-3-9-8-5/h2-4H,1H3,(H,6,7,8)
