15
gdb 69151	2.80727	1.68895	1.31273	3.8878	64.7	-0.2463	-0.0554	0.1909	969.5353	0.111201	-457.732541	-457.725143	-457.724199	-457.764304	28.307	
C	-0.0132575157	 1.539700752	 0.0536470485	-0.501714
C	 0.1366956512	 0.0485719232	-0.0230314607	 0.397831
O	-0.6154343226	-0.7520281568	 0.8821619257	-0.260444
C	 0.8173648485	-0.8018784396	 0.978977121	-0.168984
C	 1.4867883917	-1.9528456918	 0.2434798484	 0.418997
O	 2.3467154444	-2.6662462755	 0.6911272904	-0.299691
C	 1.0683220882	-1.8838361392	-1.2194305523	-0.098329
O	-0.3460869921	-1.9104557865	-1.4555111495	-0.220387
C	 0.2885309301	-0.6429599838	-1.3919728422	-0.034866
H	 0.8202073518	 2.0403378778	-0.4502154065	 0.132846
H	-0.9421552314	 1.8566336214	-0.4328688661	 0.141734
H	-0.0412201297	 1.8689372159	 1.0947683899	 0.143007
H	 1.2537277305	-0.4500057968	 1.9099774746	 0.116963
H	 1.6981440409	-2.3483887534	-1.9726422934	 0.121451
H	 0.2990483742	-0.0547671669	-2.3053708578	 0.111586
117.946	193.5165	197.7383	279.5196	316.4788	379.2268	446.054	550.5574	563.051	583.8697	729.5005	748.6665	835.3001	849.6441	879.2702	892.8775	923.2722	1015.587	1019.5394	1057.8828	1087.3129	1102.5644	1182.5104	1227.8277	1245.727	1262.0574	1305.5591	1390.6452	1411.554	1445.0389	1482.7462	1493.1166	1843.9625	3037.9634	3101.3967	3130.8761	3155.4422	3157.6587	3168.0844
CC12OC1C(=O)C1OC21	C[C@]12O[C@H]1C(=O)[C@H]1O[C@@H]21	
InChI=1S/C6H6O3/c1-6-4(9-6)2(7)3-5(6)8-3/h3-5H,1H3	InChI=1S/C6H6O3/c1-6-4(9-6)2(7)3-5(6)8-3/h3-5H,1H3/t3-,4+,5-,6+/m1/s1
