14
gdb 28545	3.22728	1.37161	0.96253	1.0952	68.63	-0.2046	-0.0149	0.1896	1118.548	0.101928	-473.890877	-473.883289	-473.882345	-473.922561	29.693	
O	 0.0076511635	 1.3629560926	-0.1496536405	-0.444477
C	 0.0462469385	 0.0038124856	-0.0414743834	 0.355422
C	 0.0446395348	-0.7485184934	-1.2106103603	-0.087072
N	 0.0810081806	-2.088932002	-1.1949423544	-0.34526
C	 0.1192774179	-2.7064463533	-0.0375959294	 0.304304
O	 0.1569748684	-4.0710923055	 0.0043812312	-0.453459
C	 0.124553985	-2.0446093373	 1.2015676261	 0.303794
O	 0.1649084333	-2.7321082244	 2.3699462619	-0.442859
C	 0.0870627124	-0.661018254	 1.1897791321	-0.324867
H	 0.0137031764	 1.7528703263	 0.7301316854	 0.299347
H	 0.0133067425	-0.2557299512	-2.1762236553	 0.115856
H	 0.1466208133	-4.3745216222	-0.9124776542	 0.302156
H	 0.1850548888	-3.6727742128	 2.1512269654	 0.312531
H	 0.0899454545	-0.1201516082	 2.1311997754	 0.104583
151.0704	232.566	297.6373	299.6976	341.1376	368.016	421.7611	466.218	484.4086	493.6993	513.5563	605.5478	640.2524	736.47	765.639	812.5835	881.7866	898.507	1006.5377	1133.071	1188.2984	1207.1312	1227.36	1299.5244	1337.9715	1360.6668	1423.7743	1517.7034	1530.1836	1650.328	1672.5221	3179.2105	3189.5515	3785.4624	3791.3844	3829.7824
OC1=CN=C(O)C(O)=C1	Oc1cnc(O)c(O)c1	
InChI=1S/C5H5NO3/c7-3-1-4(8)5(9)6-2-3/h1-2,7-8H,(H,6,9)	InChI=1S/C5H5NO3/c7-3-1-4(8)5(9)6-2-3/h1-2,7-8H,(H,6,9)
