18
gdb 79540	2.42631	1.84376	1.25579	1.7839	83.07	-0.226	0.028	0.254	1032.5633	0.146751	-364.714978	-364.706878	-364.705934	-364.747138	32.168	
C	-0.2326551767	 1.4861234279	 0.0101555689	-0.42188
C	 0.0450655787	 0.0056862499	-0.0992023283	 0.02058
C	 0.6568504739	-0.6854666977	-1.2592196122	-0.070209
C	 1.7494319223	 0.1026956932	-1.924971393	-0.155693
C	 3.0729352118	-0.5549540821	-1.6291319626	-0.324698
C	 2.3969065284	 0.228445587	-0.5331486452	 0.198493
C	 2.9991039936	 1.3312842986	 0.1346836934	 0.250184
C	 3.5094706809	 2.2576590661	 0.7091650101	-0.429357
N	 1.3677303653	-0.636299279	 0.1080931208	-0.195012
H	 0.486915326	 2.0944094235	-0.5381795737	 0.137123
H	-1.2323218155	 1.6981750317	-0.3844707348	 0.11871
H	-0.212200504	 1.8011433533	 1.0583202898	 0.130969
H	-0.7067334226	-0.6040474802	 0.4013210939	 0.09616
H	 0.2652805428	-1.6250387478	-1.6387692003	 0.099992
H	 1.6321580355	 0.8497141684	-2.7011228767	 0.105576
H	 3.1377712944	-1.6346150296	-1.52752028	 0.122858
H	 3.9430032604	-0.0749464479	-2.0648078165	 0.126512
H	 3.9610693347	 3.0719520547	 1.2189531165	 0.189695
124.7909	147.4364	202.6363	232.646	277.9947	394.4012	441.1495	484.7107	541.4332	574.9435	582.9113	658.6903	666.6395	706.764	773.1358	818.1462	844.3038	904.3943	915.1008	974.8018	1001.0542	1012.4364	1038.5583	1075.3344	1086.2867	1098.7031	1123.9192	1162.2006	1181.3108	1251.5472	1268.3901	1349.5944	1362.2886	1414.9208	1438.9833	1480.9027	1492.098	1499.8709	2231.8195	3041.983	3099.7201	3114.8262	3120.1055	3149.4542	3154.1259	3178.0304	3216.5847	3503.9449
CC1C2C3CC3(C#C)N12	C[C@H]1[C@H]2[C@@H]3C[C@]3(C#C)N12	
InChI=1S/C8H9N/c1-3-8-4-6(8)7-5(2)9(7)8/h1,5-7H,4H2,2H3	InChI=1S/C8H9N/c1-3-8-4-6(8)7-5(2)9(7)8/h1,5-7H,4H2,2H3/t5-,6-,7-,8-,9?/m0/s1
