18
gdb 118811	2.5548	1.05588	0.84803	3.7738	74.21	-0.2704	0.028	0.2984	1384.5457	0.145538	-439.071513	-439.061834	-439.06089	-439.106524	34.593	
C	 0.1141266546	 1.3435147798	 0.0533819281	-0.231826
O	-0.0072671148	-0.052377697	 0.2263131181	-0.254983
C	-1.2925696053	-0.547512493	-0.1007487	-0.142517
C	-1.1838941056	-2.0511580291	-0.0303781115	 0.424656
O	-0.1854317393	-2.5678015125	-0.852814279	-0.471928
C	-1.4974883848	-2.7804032808	 1.2439859689	-0.334897
C	-2.4247480765	-2.9144077733	 0.0315430064	-0.242833
C	-3.7325196701	-2.3245304062	 0.050549753	 0.295497
N	-4.7814892633	-1.8358311727	 0.0686762078	-0.347865
H	 1.1399439318	 1.6147614823	 0.3122972192	 0.133734
H	-0.0853387484	 1.6413212502	-0.9869127738	 0.115206
H	-0.5770690317	 1.8923213078	 0.7097928682	 0.116748
H	-2.0578941179	-0.1669025976	 0.5909420618	 0.111557
H	-1.5733195579	-0.2421383701	-1.1213307945	 0.109507
H	 0.5911439782	-2.0150217803	-0.6919414409	 0.296077
H	-0.8996604779	-3.6528349182	 1.4772400545	 0.136375
H	-1.8678817158	-2.2173804447	 2.0925496808	 0.138883
H	-2.3498796553	-3.8416707245	-0.5260819472	 0.148609
76.7719	87.9786	104.4778	154.8564	200.1876	227.9195	312.4537	336.0538	382.8615	405.46	443.1687	468.1937	548.8072	622.8489	760.6699	824.1286	902.4878	928.423	953.0505	993.1	1018.4786	1069.1604	1081.5684	1115.0716	1154.1855	1182.8916	1215.0307	1224.1084	1279.2355	1289.9618	1358.2622	1402.402	1438.3837	1480.7571	1487.0922	1492.1762	1500.8851	1519.2039	2351.1423	2977.5179	2987.4472	3026.4471	3035.4434	3122.5588	3147.9138	3178.0651	3247.2035	3767.4933
COCC1(O)CC1C#N	COC[C@@]1(O)C[C@H]1C#N	
InChI=1S/C6H9NO2/c1-9-4-6(8)2-5(6)3-7/h5,8H,2,4H2,1H3	InChI=1S/C6H9NO2/c1-9-4-6(8)2-5(6)3-7/h5,8H,2,4H2,1H3/t5-,6-/m0/s1
