15
gdb 18182	4.25533	1.89357	1.53599	1.5216	71.18	-0.2274	0.0039	0.2312	828.7534	0.119243	-325.461672	-325.454964	-325.45402	-325.492347	26.386	
C	-0.1076564518	-1.2627185533	-0.1659427016	-0.47837
C	-0.049629304	-0.0656099634	-0.0782548575	 0.355767
C	 0.0043152369	 1.3893441918	 0.0420399502	-0.195196
C	-0.6284715534	 1.9175598523	 1.3268773636	-0.086627
C	 0.2290190448	 2.6981176646	 1.9794788799	-0.082114
C	 1.5332436187	 2.7514459098	 1.2619615357	-0.065999
C	 2.2464413005	 1.4474806534	 1.1380972257	-0.232944
N	 1.4008393316	 1.9242242902	 0.0371823283	-0.100018
H	-0.1566748154	-2.3200315399	-0.2525410563	 0.199781
H	-0.5042525312	 1.8202824201	-0.8328193589	 0.120451
H	-1.6289211894	 1.6422977253	 1.6356481577	 0.11401
H	 0.0391031034	 3.2202548086	 2.9091327776	 0.109115
H	 2.0706690437	 3.691636274	 1.1714317687	 0.098455
H	 3.3059129266	 1.4237945221	 0.8981395157	 0.118087
H	 1.889904739	 0.6240768045	 1.7510769009	 0.125602
121.8511	149.6779	300.2806	362.0139	459.7273	527.9814	534.4399	620.2232	657.1696	702.2589	752.8617	757.3264	805.0917	853.4326	909.3463	932.6974	964.8448	1011.7711	1029.849	1068.6409	1089.0815	1108.5564	1130.7055	1159.1488	1246.0692	1279.5012	1325.3975	1330.7572	1370.4244	1494.7845	1673.0141	2237.1544	2990.2822	3107.4487	3144.2834	3198.4691	3203.3638	3228.3053	3503.5349
C#CC1C=CC2CN12	C#C[C@H]1C=C[C@H]2CN12	
InChI=1S/C7H7N/c1-2-6-3-4-7-5-8(6)7/h1,3-4,6-7H,5H2	InChI=1S/C7H7N/c1-2-6-3-4-7-5-8(6)7/h1,3-4,6-7H,5H2/t6-,7-,8?/m0/s1
